data_PCOD8327309
_publ_section_title
;
Structure prediction by ZEFSAII (Michael W. Deem and Ramdas Pophale) SiO2 
 PCOD8327309
Probable space group: P -6 C 2
;
_chemical_formula_sum "Si O2"
_cell_formula_units_Z 72
_cell_length_a 23.961388
_cell_length_b 23.961388
_cell_length_c 8.808835
_cell_angle_alpha 90.000000
_cell_angle_beta 90.000000
_cell_angle_gamma 120.000000
_cell_volume 4379.989306
_symmetry_space_group_name_H-M "P -6 C 2"
_symmetry_group_IT_number 188
_symmetry_cell_setting 'hexagonal'
loop_
_space_group_symop_operation_xyz
x,y,z
-x+y,-x,1/2-z
-y,x-y,z
x,y,1/2-z
-x+y,-x,z
-y,x-y,1/2-z
-y,-x,-z
-x+y,y,-z
x,x-y,-z
-x+y,y,1/2+z
x,x-y,1/2+z
-y,-x,1/2+z
loop_
_atom_site_type_symbol
_atom_site_label
_atom_site_fract_x
_atom_site_fract_y
_atom_site_fract_z
Si Si1 0.406846 0.928387 0.572975
Si Si2 0.332455 0.781921 0.570464
Si Si3 0.190945 0.039951 0.929302
Si Si4 0.655724 0.992855 0.923455
Si Si5 0.887480 0.217250 0.426589
Si Si6 0.736515 0.811751 0.070760
O O1 0.417496 0.932060 0.750000
O O2 0.476552 0.953104 0.500000
O O3 0.356506 0.855382 0.521575
O O4 0.380231 0.975117 0.527010
O O5 0.330126 0.773176 0.750000
O O6 0.261623 0.738378 0.500000
O O7 0.379549 0.759098 0.500000
O O8 0.181368 0.034676 0.750000
O O9 0.157268 0.078634 0.000000
O O10 0.265616 0.078086 0.973867
O O11 0.160954 0.968782 0.000308
O O12 0.632774 0.976733 0.750000
O O13 0.689398 0.952001 0.974470
O O14 0.705398 0.069840 0.943712
O O15 0.885012 0.198193 0.250000
O O16 0.814844 0.185157 0.500000
O O17 0.743064 0.819968 0.250000
O O18 0.706862 0.853431 0.000000
#
# Coordination Sequence:
#
# PCOD8327309 Si02
#       6
#    12  12  12  12  12  12
#     4  10  21  35  51  68  89 120 158 194 235 286
#     4  10  20  33  48  66  85 109 143 190 244 296
#     4  10  17  27  44  64  86 114 146 181 219 265
#     4   9  19  33  48  67  94 123 153 189 230 274
#     4   9  16  27  44  68  94 119 145 177 214 255
#     4  10  20  33  47  67  93 121 153 193 239 286
#
# _framework density 16.438396999999998
#
# number of rings (size 3 to 8) (size 9 to 14) (size 15 to 20)
#    0.000    2.333    0.000    5.667    0.000    6.667 
#    0.000    3.333    0.000    0.333    0.000    2.333 
#    0.000    0.000    0.000    0.500    0.000    8.000 
#
# Total GULP energy -892488.134022 kJ/mol
# GULP energy per Si atom -12395.668528 kJ/mol
# Density = 1.640098 g / cm^3
# Si number density = 16.438397 Si / 1000 Ang^3
#
#
#
# Elastic Constant Matrix: (Units=GPa)
#
#
# Indices 1 2 3 4 5 6 
#
# 1 75.9190 45.3074 37.3022 0.0000 0.0000 0.0000
# 2 45.3074 75.9190 37.3022 0.0000 0.0000 0.0000
# 3 37.3022 37.3022 91.3113 0.0000 0.0000 0.0000
# 4 0.0000 0.0000 0.0000 26.1454 0.0000 0.0000
# 5 0.0000 0.0000 0.0000 0.0000 26.1454 0.0000
# 6 0.0000 0.0000 0.0000 0.0000 0.0000 15.3058
#
#
#
# Elastic Compliance Matrix: (Units=1/GPa)
#
#
# Indices 1 2 3 4 5 6 
#
# 1 0.021843 -0.010824 -0.004502 0.000000 0.000000 0.000000
# 2 -0.010824 0.021843 -0.004502 0.000000 0.000000 0.000000
# 3 -0.004502 -0.004502 0.014629 0.000000 0.000000 0.000000
# 4 0.000000 0.000000 0.000000 0.038248 0.000000 0.000000
# 5 0.000000 0.000000 0.000000 0.000000 0.038248 0.000000
# 6 0.000000 0.000000 0.000000 0.000000 0.000000 0.065335
#
#
# Mechanical properties :
#
#
# Convention : Reuss Voigt Hill
#
# Bulk Modulus (GPa) = 53.58524 53.66366 53.62445
# Shear Modulus (GPa) = 20.32346 21.73517 21.02932
#
# Velocity S-wave (km/s) = 3.51998 3.64018 3.58058
# Velocity P-wave (km/s) = 7.01347 7.09817 7.05595
#
# Compressibility (1/GPa) = 0.01866186
#
# Stress axis : x y z
#
# Youngs Moduli (GPa) = 45.78049 45.78049 68.35504
#
# Poissons Ratio (x) = 0.49553 0.30771
# Poissons Ratio (y) = 0.49553 0.30771
# Poissons Ratio (z) = 0.20609 0.20609
#
# Static dielectric constant tensor:
#      x y z
#    x 3.131520 0.000000 0.000000 
#    y 0.000000 3.131520 0.000000 
#    z 0.000000 0.000000 3.168710 
# 
# 
# High freq. dielectric constant tensor:
#      x y z
#    x 1.604640 0.000000 0.000000 
#    y 0.000000 1.604640 0.000000 
#    z 0.000000 0.000000 1.650500 
# 
# From -- ./inp_files/1022.got.cif
#   From: 2010.03.12/outbox.cif.g09.slc.cpg/sg188_1_cif.got.tgz:1022.got - 2010.04.01 12:01:06.
