data_PCOD8327901
_publ_section_title
;
Structure prediction by ZEFSAII (Michael W. Deem and Ramdas Pophale) SiO2 
 PCOD8327901
Probable space group: P -6 2 M
;
_chemical_formula_sum "Si O2"
_cell_formula_units_Z 48
_cell_length_a 17.504413
_cell_length_b 17.504413
_cell_length_c 8.556243
_cell_angle_alpha 90.000000
_cell_angle_beta 90.000000
_cell_angle_gamma 120.000000
_cell_volume 2270.433808
_symmetry_space_group_name_H-M "P -6 2 M"
_symmetry_group_IT_number 189
_symmetry_cell_setting 'hexagonal'
loop_
_space_group_symop_operation_xyz
x,y,z
-x+y,-x,-z
-y,x-y,z
x,y,-z
-x+y,-x,z
-y,x-y,-z
x-y,-y,-z
-x,-x+y,-z
y,x,-z
y,x,z
x-y,-y,z
-x,-x+y,z
loop_
_atom_site_type_symbol
_atom_site_label
_atom_site_fract_x
_atom_site_fract_y
_atom_site_fract_z
Si Si1 0.288759 0.186147 0.817734
Si Si2 0.000000 0.385010 0.323522
Si Si3 0.722855 0.205871 0.681984
Si Si4 0.548166 0.161238 0.818390
Si Si5 0.795479 0.795479 0.676027
O O1 0.248213 0.248213 0.778518
O O2 0.380997 0.224233 0.728556
O O3 0.218618 0.087364 0.763550
O O4 0.307580 0.185479 0.000000
O O5 0.000000 0.417793 0.500000
O O6 0.916200 0.369030 0.227242
O O7 0.000000 0.294942 0.326010
O O8 0.739297 0.227778 0.500000
O O9 0.619508 0.147169 0.722115
O O10 0.750909 0.296348 0.774848
O O11 0.567567 0.159442 0.000000
O O12 0.828107 0.828107 0.500000
#
# Coordination Sequence:
#
# PCOD8327901 Si02
#       5
#    12   6  12  12   6
#     4  11  25  45  70 100 134 172 219 274 335 398
#     4  11  23  41  65  97 127 166 217 266 322 388
#     4  12  25  43  66  95 134 176 220 272 327 386
#     4  12  25  42  65  94 129 172 220 268 321 385
#     4  11  23  43  73 101 131 170 219 270 334 402
#
# _framework density 21.141334000000001
#
# number of rings (size 3 to 8) (size 9 to 14) (size 15 to 20)
#    0.000    0.500    2.500    6.500    1.750    3.000 
#    0.750    0.000    0.000    0.000    0.000    0.000 
#    0.000    0.000    0.000    0.000    0.000    0.000 
#
# Total GULP energy -595479.460255 kJ/mol
# GULP energy per Si atom -12405.822089 kJ/mol
# Density = 2.109322 g / cm^3
# Si number density = 21.141334 Si / 1000 Ang^3
#
#
#
# Elastic Constant Matrix: (Units=GPa)
#
#
# Indices 1 2 3 4 5 6 
#
# 1 75.4329 24.4525 34.7842 0.0000 0.0000 0.0000
# 2 24.4525 75.4329 34.7842 0.0000 0.0000 0.0000
# 3 34.7842 34.7842 117.5479 0.0000 0.0000 0.0000
# 4 0.0000 0.0000 0.0000 37.2438 0.0000 0.0000
# 5 0.0000 0.0000 0.0000 0.0000 37.2438 0.0000
# 6 0.0000 0.0000 0.0000 0.0000 0.0000 25.4902
#
#
#
# Elastic Compliance Matrix: (Units=1/GPa)
#
#
# Indices 1 2 3 4 5 6 
#
# 1 0.016113 -0.003502 -0.003732 0.000000 0.000000 0.000000
# 2 -0.003502 0.016113 -0.003732 0.000000 0.000000 0.000000
# 3 -0.003732 -0.003732 0.010716 0.000000 0.000000 0.000000
# 4 0.000000 0.000000 0.000000 0.026850 0.000000 0.000000
# 5 0.000000 0.000000 0.000000 0.000000 0.026850 0.000000
# 6 0.000000 0.000000 0.000000 0.000000 0.000000 0.039231
#
#
# Mechanical properties :
#
#
# Convention : Reuss Voigt Hill
#
# Bulk Modulus (GPa) = 47.59616 50.71730 49.15673
# Shear Modulus (GPa) = 30.33845 31.62174 30.98010
#
# Velocity S-wave (km/s) = 3.79229 3.87166 3.83218
# Velocity P-wave (km/s) = 6.46045 6.63537 6.54849
#
# Compressibility (1/GPa) = 0.02101010
#
# Stress axis : x y z
#
# Youngs Moduli (GPa) = 62.06191 62.06191 93.32133
#
# Poissons Ratio (x) = 0.21737 0.34824
# Poissons Ratio (y) = 0.21737 0.34824
# Poissons Ratio (z) = 0.23159 0.23159
#
# Static dielectric constant tensor:
#      x y z
#    x 3.821540 0.000000 0.000000 
#    y 0.000000 3.821540 0.000000 
#    z 0.000000 0.000000 3.966050 
# 
# 
# High freq. dielectric constant tensor:
#      x y z
#    x 1.833110 0.000000 0.000000 
#    y 0.000000 1.833110 0.000000 
#    z 0.000000 0.000000 1.844080 
# 
# From -- ./inp_files/651.got.cif
#   From: 2010.03.12/outbox.cif.g09.slc.cpg/sg189_1_cif.got.tgz:651.got - 2010.04.01 12:03:36.
