data_PCOD8327358
_publ_section_title
;
Structure prediction by ZEFSAII (Michael W. Deem and Ramdas Pophale) SiO2 
 PCOD8327358
Probable space group: P -6 C 2
;
_chemical_formula_sum "Si O2"
_cell_formula_units_Z 54
_cell_length_a 12.240593
_cell_length_b 12.240593
_cell_length_c 22.460112
_cell_angle_alpha 90.000000
_cell_angle_beta 90.000000
_cell_angle_gamma 120.000000
_cell_volume 2914.388638
_symmetry_space_group_name_H-M "P -6 C 2"
_symmetry_group_IT_number 188
_symmetry_cell_setting 'hexagonal'
loop_
_space_group_symop_operation_xyz
x,y,z
-x+y,-x,1/2-z
-y,x-y,z
x,y,1/2-z
-x+y,-x,z
-y,x-y,1/2-z
-y,-x,-z
-x+y,y,-z
x,x-y,-z
-x+y,y,1/2+z
x,x-y,1/2+z
-y,-x,1/2+z
loop_
_atom_site_type_symbol
_atom_site_label
_atom_site_fract_x
_atom_site_fract_y
_atom_site_fract_z
Si Si1 0.000000 0.000000 0.679341
Si Si2 0.330746 0.424385 0.319464
Si Si3 0.666668 0.333334 0.179548
Si Si4 0.616053 0.547951 0.320385
Si Si5 0.175254 0.253306 0.874044
Si Si6 0.837515 0.918758 0.500000
Si Si7 0.333335 0.666668 0.321208
O O1 0.128258 0.115250 0.653067
O O2 0.000000 0.000000 0.750000
O O3 0.308443 0.413178 0.250000
O O4 0.469483 0.450183 0.334936
O O5 0.216014 0.299184 0.346474
O O6 0.316470 0.537831 0.346584
O O7 0.666667 0.333334 0.250000
O O8 0.785245 0.317069 0.159054
O O9 0.635013 0.583344 0.250000
O O10 0.664293 0.676122 0.358033
O O11 0.147754 0.252661 0.943953
O O12 0.928559 0.857117 0.500000
O O13 0.333334 0.666668 0.250000
#
# Coordination Sequence:
#
# PCOD8327358 Si02
#       7
#     4  12   4  12  12   6   4
#     4  12  24  34  59  97 120 138 196 269 313 369
#     4  10  19  33  57  90 126 159 191 245 310 362
#     4   9  21  36  51  81 133 173 187 222 301 374
#     4  10  21  36  57  88 126 163 194 239 306 371
#     4  12  22  39  62  86 118 158 210 247 303 366
#     4  10  22  46  58  78 116 168 200 248 316 354
#     4   9  15  30  51  82 128 163 189 225 304 368
#
# _framework density 18.528758
#
# number of rings (size 3 to 8) (size 9 to 14) (size 15 to 20)
#    0.222    1.333    4.444    2.000    3.111    0.000 
#    0.000    1.111    0.000    0.000    0.000    0.000 
#    0.000    0.000    0.000    0.000    0.000    0.000 
#
# Total GULP energy -669089.131088 kJ/mol
# GULP energy per Si atom -12390.539465 kJ/mol
# Density = 1.848659 g / cm^3
# Si number density = 18.528758 Si / 1000 Ang^3
#
#
#
# Elastic Constant Matrix: (Units=GPa)
#
#
# Indices 1 2 3 4 5 6 
#
# 1 87.1762 36.7794 41.0455 0.0000 -0.0001 0.0001
# 2 36.7794 87.1772 41.0455 0.0001 0.0000 0.0000
# 3 41.0455 41.0455 93.3434 0.0001 0.0000 0.0000
# 4 0.0000 0.0001 0.0001 20.8137 0.0000 0.0000
# 5 -0.0001 0.0000 0.0000 0.0000 20.8138 0.0000
# 6 0.0001 0.0000 0.0000 0.0000 0.0000 25.1988
#
#
#
# Elastic Compliance Matrix: (Units=1/GPa)
#
#
# Indices 1 2 3 4 5 6 
#
# 1 0.015612 -0.004230 -0.005005 0.000000 0.000000 0.000000
# 2 -0.004230 0.015612 -0.005005 0.000000 0.000000 0.000000
# 3 -0.005005 -0.005005 0.015115 0.000000 0.000000 0.000000
# 4 0.000000 0.000000 0.000000 0.048045 0.000000 0.000000
# 5 0.000000 0.000000 0.000000 0.000000 0.048045 0.000000
# 6 0.000000 0.000000 0.000000 0.000000 0.000000 0.039685
#
#
# Mechanical properties :
#
#
# Convention : Reuss Voigt Hill
#
# Bulk Modulus (GPa) = 55.99459 56.15974 56.07716
# Shear Modulus (GPa) = 23.08968 23.28701 23.18835
#
# Velocity S-wave (km/s) = 3.53392 3.54899 3.54146
# Velocity P-wave (km/s) = 6.85109 6.86797 6.85954
#
# Compressibility (1/GPa) = 0.01785887
#
# Stress axis : x y z
#
# Youngs Moduli (GPa) = 64.05231 64.05321 66.16065
#
# Poissons Ratio (x) = 0.27096 0.33113
# Poissons Ratio (y) = 0.27095 0.33113
# Poissons Ratio (z) = 0.32058 0.32058
#
# Static dielectric constant tensor:
#      x y z
#    x 3.545440 0.000000 0.000000 
#    y 0.000000 3.545440 0.000000 
#    z 0.000000 0.000000 3.017810 
# 
# 
# High freq. dielectric constant tensor:
#      x y z
#    x 1.726160 0.000000 0.000000 
#    y 0.000000 1.726160 0.000000 
#    z 0.000000 0.000000 1.669260 
# 
# From -- ./inp_files/4045.got.cif
#   From: 2010.03.12/outbox.cif.g09.slc.cpg/sg188_3_cif.got.tgz:4045.got - 2010.04.01 12:01:06.
