data_PCOD8327746
_publ_section_title
;
Structure prediction by ZEFSAII (Michael W. Deem and Ramdas Pophale) SiO2 
 PCOD8327746
Probable space group: P -6 2 M
;
_chemical_formula_sum "Si O2"
_cell_formula_units_Z 48
_cell_length_a 19.350058
_cell_length_b 19.350058
_cell_length_c 7.729546
_cell_angle_alpha 90.000000
_cell_angle_beta 90.000000
_cell_angle_gamma 120.000000
_cell_volume 2506.392948
_symmetry_space_group_name_H-M "P -6 2 M"
_symmetry_group_IT_number 189
_symmetry_cell_setting 'hexagonal'
loop_
_space_group_symop_operation_xyz
x,y,z
-x+y,-x,-z
-y,x-y,z
x,y,-z
-x+y,-x,z
-y,x-y,-z
x-y,-y,-z
-x,-x+y,-z
y,x,-z
y,x,z
x-y,-y,z
-x,-x+y,z
loop_
_atom_site_type_symbol
_atom_site_label
_atom_site_fract_x
_atom_site_fract_y
_atom_site_fract_z
Si Si1 0.363357 0.194590 0.700471
Si Si2 0.615076 0.455670 0.000000
Si Si3 0.444049 0.091083 0.313364
Si Si4 0.721599 0.196984 0.000000
Si Si5 0.909586 0.819330 0.705255
O O1 0.372370 0.224573 0.500000
O O2 0.391952 0.131494 0.727067
O O3 0.420348 0.266751 0.830457
O O4 0.271582 0.150581 0.764438
O O5 0.596607 0.489659 0.827970
O O6 0.553894 0.363271 0.000000
O O7 0.707756 0.482959 0.000000
O O8 0.487531 0.119686 0.500000
O O9 0.378801 0.000000 0.316525
O O10 0.907237 0.821148 0.500000
O O11 0.854438 0.854438 0.779513
O O12 0.000000 0.874447 0.773521
#
# Coordination Sequence:
#
# PCOD8327746 Si02
#       5
#    12   6  12   6  12
#     4   9  18  33  53  76 103 136 172 209 252 304
#     4  10  20  34  52  75 100 128 162 205 252 304
#     4   9  17  31  52  76  99 125 162 208 254 298
#     4  10  21  36  54  75 101 132 167 207 256 312
#     4   9  16  28  49  77 108 142 180 220 258 296
#
# _framework density 19.151026999999999
#
# number of rings (size 3 to 8) (size 9 to 14) (size 15 to 20)
#    0.000    2.750    0.000    1.625    0.000    5.000 
#    0.000    5.000    0.000    6.000    0.000    1.750 
#    0.000    0.000    0.000    0.000    0.000    0.000 
#
# Total GULP energy -594728.201308 kJ/mol
# GULP energy per Si atom -12390.170861 kJ/mol
# Density = 1.910744 g / cm^3
# Si number density = 19.151027 Si / 1000 Ang^3
#
#
#
# Elastic Constant Matrix: (Units=GPa)
#
#
# Indices 1 2 3 4 5 6 
#
# 1 74.0155 19.2646 37.5647 0.0000 0.0000 0.0000
# 2 19.2646 74.0155 37.5647 0.0000 0.0000 0.0000
# 3 37.5647 37.5647 101.8491 0.0000 0.0000 0.0000
# 4 0.0000 0.0000 0.0000 30.9806 0.0000 0.0000
# 5 0.0000 0.0000 0.0000 0.0000 30.9806 0.0000
# 6 0.0000 0.0000 0.0000 0.0000 0.0000 27.3754
#
#
#
# Elastic Compliance Matrix: (Units=1/GPa)
#
#
# Indices 1 2 3 4 5 6 
#
# 1 0.016758 -0.001507 -0.005625 0.000000 0.000000 0.000000
# 2 -0.001507 0.016758 -0.005625 0.000000 0.000000 0.000000
# 3 -0.005625 -0.005625 0.013968 0.000000 0.000000 0.000000
# 4 0.000000 0.000000 0.000000 0.032278 0.000000 0.000000
# 5 0.000000 0.000000 0.000000 0.000000 0.032278 0.000000
# 6 0.000000 0.000000 0.000000 0.000000 0.000000 0.036529
#
#
# Mechanical properties :
#
#
# Convention : Reuss Voigt Hill
#
# Bulk Modulus (GPa) = 45.51735 48.74091 47.12913
# Shear Modulus (GPa) = 27.56259 28.23306 27.89782
#
# Velocity S-wave (km/s) = 3.79782 3.84374 3.82085
# Velocity P-wave (km/s) = 6.56129 6.72348 6.64288
#
# Compressibility (1/GPa) = 0.02196965
#
# Stress axis : x y z
#
# Youngs Moduli (GPa) = 59.67414 59.67414 71.59379
#
# Poissons Ratio (x) = 0.08992 0.40271
# Poissons Ratio (y) = 0.08992 0.40271
# Poissons Ratio (z) = 0.33566 0.33566
#
# Static dielectric constant tensor:
#      x y z
#    x 3.407220 0.000000 0.000000 
#    y 0.000000 3.407220 0.000000 
#    z 0.000000 0.000000 3.755150 
# 
# 
# High freq. dielectric constant tensor:
#      x y z
#    x 1.731220 0.000000 0.000000 
#    y 0.000000 1.731220 0.000000 
#    z 0.000000 0.000000 1.745330 
# 
# From -- ./inp_files/633.got.cif
#   From: 2010.03.12/outbox.cif.g09.slc.cpg/sg189_1_cif.got.tgz:633.got - 2010.04.01 12:03:36.
