data_PCOD8327698
_publ_section_title
;
Structure prediction by ZEFSAII (Michael W. Deem and Ramdas Pophale) SiO2 
 PCOD8327698
Probable space group: P -6 2 M
;
_chemical_formula_sum "Si O2"
_cell_formula_units_Z 72
_cell_length_a 24.090114
_cell_length_b 24.090114
_cell_length_c 8.898686
_cell_angle_alpha 90.000000
_cell_angle_beta 90.000000
_cell_angle_gamma 120.000000
_cell_volume 4472.333946
_symmetry_space_group_name_H-M "P -6 2 M"
_symmetry_group_IT_number 189
_symmetry_cell_setting 'hexagonal'
loop_
_space_group_symop_operation_xyz
x,y,z
-x+y,-x,-z
-y,x-y,z
x,y,-z
-x+y,-x,z
-y,x-y,-z
x-y,-y,-z
-x,-x+y,-z
y,x,-z
y,x,z
x-y,-y,z
-x,-x+y,z
loop_
_atom_site_type_symbol
_atom_site_label
_atom_site_fract_x
_atom_site_fract_y
_atom_site_fract_z
Si Si1 0.599071 0.739058 0.322598
Si Si2 0.810124 0.073640 0.825328
Si Si3 0.743900 0.816670 0.322407
Si Si4 0.927953 0.524000 0.678594
Si Si5 0.601444 0.863183 0.321475
Si Si6 0.072527 0.474516 0.678906
O O1 0.595454 0.731889 0.500000
O O2 0.671997 0.764635 0.270268
O O3 0.577482 0.789944 0.271487
O O4 0.551492 0.669019 0.251443
O O5 0.881238 0.115794 0.757138
O O6 0.759343 0.088902 0.747023
O O7 0.788676 0.000000 0.795640
O O8 0.811873 0.089183 0.000000
O O9 0.745833 0.827221 0.500000
O O10 0.791649 0.791649 0.271952
O O11 0.928245 0.524951 0.500000
O O12 0.881688 0.549539 0.739789
O O13 0.903843 0.451172 0.734670
O O14 0.000000 0.570816 0.737904
O O15 0.609239 0.870438 0.500000
O O16 0.074473 0.473687 0.500000
O O17 0.000000 0.427882 0.734145
#
# Coordination Sequence:
#
# PCOD8327698 Si02
#       6
#    12  12  12  12  12  12
#     4   8  13  21  35  56  81 106 130 161 202 243
#     4  10  20  31  43  62  87 113 139 167 205 253
#     4   9  17  29  46  67  87 108 137 172 208 246
#     4   8  13  20  32  52  76 102 132 164 197 234
#     4   9  16  26  41  60  81 106 138 175 210 244
#     4   8  12  18  30  50  76 102 126 155 192 234
#
# _framework density 16.098977000000001
#
# number of rings (size 3 to 8) (size 9 to 14) (size 15 to 20)
#    0.000    3.333    0.000    3.500    0.000    4.333 
#    0.000    0.000    0.000    1.000    0.000    9.333 
#    0.000    5.333    0.000    0.000    0.000    0.000 
#
# Total GULP energy -892182.629249 kJ/mol
# GULP energy per Si atom -12391.425406 kJ/mol
# Density = 1.606234 g / cm^3
# Si number density = 16.098977 Si / 1000 Ang^3
#
#
#
# Elastic Constant Matrix: (Units=GPa)
#
#
# Indices 1 2 3 4 5 6 
#
# 1 138.8631 82.2008 23.1726 0.0000 0.0000 0.0000
# 2 82.2008 138.8631 23.1726 0.0000 0.0000 0.0000
# 3 23.1726 23.1726 21.2210 0.0000 0.0000 0.0000
# 4 0.0000 0.0000 0.0000 5.7111 0.0000 0.0000
# 5 0.0000 0.0000 0.0000 0.0000 5.7111 0.0000
# 6 0.0000 0.0000 0.0000 0.0000 0.0000 28.3311
#
#
#
# Elastic Compliance Matrix: (Units=1/GPa)
#
#
# Indices 1 2 3 4 5 6 
#
# 1 0.011758 -0.005891 -0.006406 0.000000 0.000000 0.000000
# 2 -0.005891 0.011758 -0.006406 0.000000 0.000000 0.000000
# 3 -0.006406 -0.006406 0.061114 0.000000 0.000000 0.000000
# 4 0.000000 0.000000 0.000000 0.175098 0.000000 0.000000
# 5 0.000000 0.000000 0.000000 0.000000 0.175098 0.000000
# 6 0.000000 0.000000 0.000000 0.000000 0.000000 0.035297
#
#
# Mechanical properties :
#
#
# Convention : Reuss Voigt Hill
#
# Bulk Modulus (GPa) = 21.17643 61.78213 41.47928
# Shear Modulus (GPa) = 9.55532 19.31073 14.43302
#
# Velocity S-wave (km/s) = 2.43890 3.46714 2.99744
# Velocity P-wave (km/s) = 4.59494 7.38159 6.14822
#
# Compressibility (1/GPa) = 0.04722232
#
# Stress axis : x y z
#
# Youngs Moduli (GPa) = 85.05197 85.05197 16.36297
#
# Poissons Ratio (x) = 0.50103 0.10482
# Poissons Ratio (y) = 0.50103 0.10482
# Poissons Ratio (z) = 0.54485 0.54485
#
# Static dielectric constant tensor:
#      x y z
#    x 3.298910 0.000000 0.000000 
#    y 0.000000 3.298910 0.000000 
#    z 0.000000 0.000000 2.595350 
# 
# 
# High freq. dielectric constant tensor:
#      x y z
#    x 1.613990 0.000000 0.000000 
#    y 0.000000 1.613990 0.000000 
#    z 0.000000 0.000000 1.570680 
# 
# From -- ./inp_files/1236.got.cif
#   From: 2010.03.12/outbox.cif.g09.slc.cpg/sg189_1_cif.got.tgz:1236.got - 2010.04.01 12:03:36.
