data_PCOD8327825
_publ_section_title
;
Structure prediction by ZEFSAII (Michael W. Deem and Ramdas Pophale) SiO2 
 PCOD8327825
Probable space group: P -6 2 M
;
_chemical_formula_sum "Si O2"
_cell_formula_units_Z 42
_cell_length_a 15.449327
_cell_length_b 15.449327
_cell_length_c 12.809820
_cell_angle_alpha 90.000000
_cell_angle_beta 90.000000
_cell_angle_gamma 120.000000
_cell_volume 2647.846410
_symmetry_space_group_name_H-M "P -6 2 M"
_symmetry_group_IT_number 189
_symmetry_cell_setting 'hexagonal'
loop_
_space_group_symop_operation_xyz
x,y,z
-x+y,-x,-z
-y,x-y,z
x,y,-z
-x+y,-x,z
-y,x-y,-z
x-y,-y,-z
-x,-x+y,-z
y,x,-z
y,x,z
x-y,-y,z
-x,-x+y,z
loop_
_atom_site_type_symbol
_atom_site_label
_atom_site_fract_x
_atom_site_fract_y
_atom_site_fract_z
Si Si1 0.298565 0.415946 0.693335
Si Si2 0.446658 0.774529 0.500000
Si Si3 0.229413 0.678818 0.117520
Si Si4 0.772603 0.885800 0.378195
O O1 0.371543 0.371543 0.681996
O O2 0.327556 0.496602 0.603336
O O3 0.312998 0.466431 0.805256
O O4 0.183621 0.328617 0.684324
O O5 0.429517 0.661789 0.500000
O O6 0.230484 0.574575 0.134388
O O7 0.193997 0.682836 0.000000
O O8 0.745269 0.870393 0.500000
O O9 0.815634 0.815634 0.339850
O O10 0.856172 0.000000 0.355874
#
# Coordination Sequence:
#
# PCOD8327825 Si02
#       4
#    12   6  12  12
#     4  11  19  31  51  77 104 126 163 211 247 285
#     4  10  21  34  50  62  97 146 168 188 240 304
#     4   8  17  35  56  70  92 133 168 199 246 294
#     4   9  17  30  48  70 101 136 167 200 243 295
#
# _framework density 15.861947000000001
#
# number of rings (size 3 to 8) (size 9 to 14) (size 15 to 20)
#    0.857    1.714    1.429    2.429    0.000    1.714 
#    0.000    7.143    0.000    2.571    0.000    0.000 
#    0.000    2.286    0.000    0.000    0.000    0.000 
#
# Total GULP energy -520553.945121 kJ/mol
# GULP energy per Si atom -12394.141550 kJ/mol
# Density = 1.582584 g / cm^3
# Si number density = 15.861947 Si / 1000 Ang^3
#
#
#
# Elastic Constant Matrix: (Units=GPa)
#
#
# Indices 1 2 3 4 5 6 
#
# 1 97.4553 54.3582 54.0362 0.0000 0.0000 0.0000
# 2 54.3582 97.4553 54.0362 0.0000 0.0000 0.0000
# 3 54.0362 54.0362 101.5638 0.0000 0.0000 0.0000
# 4 0.0000 0.0000 0.0000 -14.9505 0.0000 0.0000
# 5 0.0000 0.0000 0.0000 0.0000 -14.9505 0.0000
# 6 0.0000 0.0000 0.0000 0.0000 0.0000 21.5486
#
#
#
# Elastic Compliance Matrix: (Units=1/GPa)
#
#
# Indices 1 2 3 4 5 6 
#
# 1 0.016903 -0.006300 -0.005641 0.000000 0.000000 0.000000
# 2 -0.006300 0.016903 -0.005641 0.000000 0.000000 0.000000
# 3 -0.005641 -0.005641 0.015849 0.000000 0.000000 0.000000
# 4 0.000000 0.000000 0.000000 -0.066887 0.000000 0.000000
# 5 0.000000 0.000000 0.000000 0.000000 -0.066887 0.000000
# 6 0.000000 0.000000 0.000000 0.000000 0.000000 0.046407
#
#
# Mechanical properties :
#
#
# Convention : Reuss Voigt Hill
#
# Bulk Modulus (GPa) = 69.01434 69.03729 69.02581
# Shear Modulus (GPa) = 2190.70786 7.26575 1098.98681
#
# Velocity S-wave (km/s) = 37.20359 2.14256 26.35050
# Velocity P-wave (km/s) = 43.46355 7.05259 31.13534
#
# Compressibility (1/GPa) = 0.01448974
#
# Stress axis : x y z
#
# Youngs Moduli (GPa) = 59.16066 59.16066 63.09666
#
# Poissons Ratio (x) = 0.37273 0.35594
# Poissons Ratio (y) = 0.37273 0.35594
# Poissons Ratio (z) = 0.33373 0.33373
#
# Static dielectric constant tensor:
#      x y z
#    x 2.936330 0.000000 0.000000 
#    y 0.000000 2.936330 0.000000 
#    z 0.000000 0.000000 2.875160 
# 
# 
# High freq. dielectric constant tensor:
#      x y z
#    x 1.601530 0.000000 0.000000 
#    y 0.000000 1.601530 0.000000 
#    z 0.000000 0.000000 1.598550 
# 
# From -- ./inp_files/1630.got.cif
#   From: 2010.03.12/outbox.cif.g09.slc.cpg/sg189_1_cif.got.tgz:1630.got - 2010.04.01 12:03:36.
