data_PCOD8327722
_publ_section_title
;
Structure prediction by ZEFSAII (Michael W. Deem and Ramdas Pophale) SiO2 
 PCOD8327722
Probable space group: P -6 2 M
;
_chemical_formula_sum "Si O2"
_cell_formula_units_Z 72
_cell_length_a 23.846795
_cell_length_b 23.846795
_cell_length_c 8.808855
_cell_angle_alpha 90.000000
_cell_angle_beta 90.000000
_cell_angle_gamma 120.000000
_cell_volume 4338.205589
_symmetry_space_group_name_H-M "P -6 2 M"
_symmetry_group_IT_number 189
_symmetry_cell_setting 'hexagonal'
loop_
_space_group_symop_operation_xyz
x,y,z
-x+y,-x,-z
-y,x-y,z
x,y,-z
-x+y,-x,z
-y,x-y,-z
x-y,-y,-z
-x,-x+y,-z
y,x,-z
y,x,z
x-y,-y,z
-x,-x+y,z
loop_
_atom_site_type_symbol
_atom_site_label
_atom_site_fract_x
_atom_site_fract_y
_atom_site_fract_z
Si Si1 0.851739 0.925723 0.824010
Si Si2 0.264386 0.189657 0.677500
Si Si3 0.261642 0.743148 0.680842
Si Si4 0.597006 0.192356 0.322164
Si Si5 0.855487 0.598266 0.178883
Si Si6 0.072915 0.605542 0.322805
O O1 0.881481 0.881481 0.772527
O O2 0.788125 0.904981 0.724221
O O3 0.905462 0.000000 0.793058
O O4 0.831647 0.915079 0.000000
O O5 0.278594 0.192389 0.500000
O O6 0.238237 0.238237 0.721883
O O7 0.329290 0.208943 0.768263
O O8 0.257275 0.746527 0.500000
O O9 0.334413 0.787486 0.746961
O O10 0.238125 0.670071 0.736609
O O11 0.215575 0.767373 0.751838
O O12 0.596601 0.202421 0.500000
O O13 0.575107 0.118172 0.279641
O O14 0.906968 0.577553 0.231674
O O15 0.850105 0.594302 0.000000
O O16 0.080885 0.624331 0.500000
O O17 0.000000 0.552134 0.280644
#
# Coordination Sequence:
#
# PCOD8327722 Si02
#       6
#    12  12  12  12  12  12
#     4   9  17  30  49  73 100 128 155 184 223 274
#     4  10  20  33  49  69  93 122 157 197 237 274
#     4   9  16  29  48  69  93 121 154 189 228 274
#     4   8  14  25  45  69  89 115 150 185 221 267
#     4  11  21  31  45  67  94 124 158 193 232 278
#     4   9  17  30  48  70  95 121 150 186 229 276
#
# _framework density 16.596723000000001
#
# number of rings (size 3 to 8) (size 9 to 14) (size 15 to 20)
#    0.000    2.667    0.000    4.000    0.000    5.667 
#    0.000    3.333    0.000    2.000    0.000    2.333 
#    0.000    0.000    0.000    0.000    0.000    0.000 
#
# Total GULP energy -892668.182784 kJ/mol
# GULP energy per Si atom -12398.169205 kJ/mol
# Density = 1.655895 g / cm^3
# Si number density = 16.596723 Si / 1000 Ang^3
#
#
#
# Elastic Constant Matrix: (Units=GPa)
#
#
# Indices 1 2 3 4 5 6 
#
# 1 120.3158 65.6145 35.0160 0.0000 0.0000 0.0000
# 2 65.6145 120.3158 35.0160 0.0000 0.0000 0.0000
# 3 35.0160 35.0160 56.3140 0.0000 0.0000 0.0000
# 4 0.0000 0.0000 0.0000 17.6185 0.0000 0.0000
# 5 0.0000 0.0000 0.0000 0.0000 17.6185 0.0000
# 6 0.0000 0.0000 0.0000 0.0000 0.0000 27.3507
#
#
#
# Elastic Compliance Matrix: (Units=1/GPa)
#
#
# Indices 1 2 3 4 5 6 
#
# 1 0.012652 -0.005629 -0.004367 0.000000 0.000000 0.000000
# 2 -0.005629 0.012652 -0.004367 0.000000 0.000000 0.000000
# 3 -0.004367 -0.004367 0.023188 0.000000 0.000000 0.000000
# 4 0.000000 0.000000 0.000000 0.056759 0.000000 0.000000
# 5 0.000000 0.000000 0.000000 0.000000 0.056759 0.000000
# 6 0.000000 0.000000 0.000000 0.000000 0.000000 0.036562
#
#
# Mechanical properties :
#
#
# Convention : Reuss Voigt Hill
#
# Bulk Modulus (GPa) = 50.59011 63.13764 56.86388
# Shear Modulus (GPa) = 21.37784 23.27080 22.32432
#
# Velocity S-wave (km/s) = 3.59287 3.74857 3.67154
# Velocity P-wave (km/s) = 6.91085 7.54059 7.23258
#
# Compressibility (1/GPa) = 0.01976671
#
# Stress axis : x y z
#
# Youngs Moduli (GPa) = 79.03788 79.03788 43.12499
#
# Poissons Ratio (x) = 0.44490 0.18833
# Poissons Ratio (y) = 0.44490 0.18833
# Poissons Ratio (z) = 0.34516 0.34516
#
# Static dielectric constant tensor:
#      x y z
#    x 3.192040 0.000000 0.000000 
#    y 0.000000 3.192040 0.000000 
#    z 0.000000 0.000000 2.943830 
# 
# 
# High freq. dielectric constant tensor:
#      x y z
#    x 1.631840 0.000000 0.000000 
#    y 0.000000 1.631840 0.000000 
#    z 0.000000 0.000000 1.622750 
# 
# From -- ./inp_files/1289.got.cif
#   From: 2010.03.12/outbox.cif.g09.slc.cpg/sg189_1_cif.got.tgz:1289.got - 2010.04.01 12:03:36.
