data_PCOD8327687
_publ_section_title
;
Structure prediction by ZEFSAII (Michael W. Deem and Ramdas Pophale) SiO2 
 PCOD8327687
Probable space group: P -6 2 M
;
_chemical_formula_sum "Si O2"
_cell_formula_units_Z 84
_cell_length_a 17.356065
_cell_length_b 17.356065
_cell_length_c 16.605748
_cell_angle_alpha 90.000000
_cell_angle_beta 90.000000
_cell_angle_gamma 120.000000
_cell_volume 4332.031547
_symmetry_space_group_name_H-M "P -6 2 M"
_symmetry_group_IT_number 189
_symmetry_cell_setting 'hexagonal'
loop_
_space_group_symop_operation_xyz
x,y,z
-x+y,-x,-z
-y,x-y,z
x,y,-z
-x+y,-x,z
-y,x-y,-z
x-y,-y,-z
-x,-x+y,-z
y,x,-z
y,x,z
x-y,-y,z
-x,-x+y,z
loop_
_atom_site_type_symbol
_atom_site_label
_atom_site_fract_x
_atom_site_fract_y
_atom_site_fract_z
Si Si1 0.505058 0.102219 0.587030
Si Si2 0.474697 0.167723 0.158911
Si Si3 0.364632 0.102189 0.000000
Si Si4 0.354247 0.505087 0.846828
Si Si5 0.900236 0.550686 0.676560
Si Si6 0.202658 0.100281 0.407898
Si Si7 0.097106 0.710170 0.000000
Si Si8 0.152617 0.380733 0.674542
O O1 0.536449 0.149862 0.500000
O O2 0.588284 0.140393 0.648355
O O3 0.422939 0.109851 0.618282
O O4 0.473731 0.000000 0.576641
O O5 0.421167 0.115372 0.080034
O O6 0.549834 0.140881 0.166953
O O7 0.527755 0.274616 0.150356
O O8 0.404964 0.140121 0.233486
O O9 0.342607 0.182601 0.000000
O O10 0.280017 0.000000 0.000000
O O11 0.343327 0.441724 0.772701
O O12 0.343899 0.449661 0.926031
O O13 0.832655 0.579799 0.643544
O O14 0.000000 0.616628 0.644243
O O15 0.240313 0.120752 0.500000
O O16 0.166983 0.166983 0.382954
O O17 0.275746 0.106779 0.343189
O O18 0.120592 0.000000 0.403048
O O19 0.000000 0.699156 0.000000
#
# Coordination Sequence:
#
# PCOD8327687 Si02
#       8
#    12  12   6  12  12  12   6  12
#     4  10  21  37  54  74 105 144 186 232 281 335
#     4  10  21  35  57  85 119 157 195 240 291 344
#     4  10  23  39  57  86 117 147 192 246 301 355
#     4  10  19  35  55  83 115 152 189 231 275 336
#     4  10  21  36  54  77 108 146 186 231 280 331
#     4  10  21  38  61  88 117 148 189 247 313 375
#     4  10  21  37  59  84 113 151 192 234 291 351
#     4  11  21  36  57  84 113 151 194 237 289 353
#
# _framework density 19.390440999999999
#
# number of rings (size 3 to 8) (size 9 to 14) (size 15 to 20)
#    0.000    1.857    1.429    2.571    0.000    5.714 
#    0.857    3.571    0.000    0.143    0.000    0.000 
#    0.000    0.000    0.000    0.000    0.000    0.000 
#
# Total GULP energy -1040838.141500 kJ/mol
# GULP energy per Si atom -12390.930256 kJ/mol
# Density = 1.934631 g / cm^3
# Si number density = 19.390441 Si / 1000 Ang^3
#
#
#
# Elastic Constant Matrix: (Units=GPa)
#
#
# Indices 1 2 3 4 5 6 
#
# 1 92.2133 34.1479 31.1724 0.0000 0.0000 0.0000
# 2 34.1479 92.2133 31.1724 0.0000 0.0000 0.0000
# 3 31.1724 31.1724 116.8558 0.0000 0.0000 0.0000
# 4 0.0000 0.0000 0.0000 18.4199 0.0000 0.0000
# 5 0.0000 0.0000 0.0000 0.0000 18.4199 0.0000
# 6 0.0000 0.0000 0.0000 0.0000 0.0000 29.0327
#
#
#
# Elastic Compliance Matrix: (Units=1/GPa)
#
#
# Indices 1 2 3 4 5 6 
#
# 1 0.013168 -0.004054 -0.002431 0.000000 0.000000 0.000000
# 2 -0.004054 0.013168 -0.002431 0.000000 0.000000 0.000000
# 3 -0.002431 -0.002431 0.009855 0.000000 0.000000 0.000000
# 4 0.000000 0.000000 0.000000 0.054289 0.000000 0.000000
# 5 0.000000 0.000000 0.000000 0.000000 0.054289 0.000000
# 6 0.000000 0.000000 0.000000 0.000000 0.000000 0.034444
#
#
# Mechanical properties :
#
#
# Convention : Reuss Voigt Hill
#
# Bulk Modulus (GPa) = 54.47543 54.91864 54.69704
# Shear Modulus (GPa) = 24.61070 26.82716 25.71893
#
# Velocity S-wave (km/s) = 3.56647 3.72361 3.64589
# Velocity P-wave (km/s) = 6.71674 6.84624 6.78180
#
# Compressibility (1/GPa) = 0.01835690
#
# Stress axis : x y z
#
# Youngs Moduli (GPa) = 75.94392 75.94392 101.47584
#
# Poissons Ratio (x) = 0.30790 0.24669
# Poissons Ratio (y) = 0.30790 0.24669
# Poissons Ratio (z) = 0.18462 0.18462
#
# Static dielectric constant tensor:
#      x y z
#    x 3.486570 0.000000 0.000000 
#    y 0.000000 3.486570 0.000000 
#    z 0.000000 0.000000 3.734810 
# 
# 
# High freq. dielectric constant tensor:
#      x y z
#    x 1.747530 0.000000 0.000000 
#    y 0.000000 1.747530 0.000000 
#    z 0.000000 0.000000 1.760770 
# 
# From -- ./inp_files/2843.got.cif
#   From: 2010.03.12/outbox.cif.g09.slc.cpg/sg189_2_cif.got.tgz:2843.got - 2010.04.01 12:03:36.
