data_PCOD8327645
_publ_section_title
;
Structure prediction by ZEFSAII (Michael W. Deem and Ramdas Pophale) SiO2 
 PCOD8327645
Probable space group: P -6 2 M
;
_chemical_formula_sum "Si O2"
_cell_formula_units_Z 60
_cell_length_a 20.497237
_cell_length_b 20.497237
_cell_length_c 8.916145
_cell_angle_alpha 90.000000
_cell_angle_beta 90.000000
_cell_angle_gamma 120.000000
_cell_volume 3244.131125
_symmetry_space_group_name_H-M "P -6 2 M"
_symmetry_group_IT_number 189
_symmetry_cell_setting 'hexagonal'
loop_
_space_group_symop_operation_xyz
x,y,z
-x+y,-x,-z
-y,x-y,z
x,y,-z
-x+y,-x,z
-y,x-y,-z
x-y,-y,-z
-x,-x+y,-z
y,x,-z
y,x,z
x-y,-y,z
-x,-x+y,z
loop_
_atom_site_type_symbol
_atom_site_label
_atom_site_fract_x
_atom_site_fract_y
_atom_site_fract_z
Si Si1 0.649614 0.795030 0.174051
Si Si2 0.916746 0.916746 0.830219
Si Si3 0.811211 0.451397 0.325211
Si Si4 0.212404 0.522310 0.824735
Si Si5 0.709214 0.086463 0.326509
Si Si6 0.000000 0.219383 0.676174
O O1 0.566218 0.726329 0.208247
O O2 0.657016 0.873176 0.226865
O O3 0.707718 0.780217 0.262815
O O4 0.669717 0.801663 0.000000
O O5 0.856918 0.856918 0.717225
O O6 0.926062 0.000000 0.805096
O O7 0.889350 0.889350 0.000000
O O8 0.801033 0.431450 0.500000
O O9 0.734239 0.443161 0.262343
O O10 0.830951 0.394784 0.237694
O O11 0.880008 0.534666 0.293525
O O12 0.229617 0.537863 0.000000
O O13 0.733582 0.097677 0.500000
O O14 0.664572 0.000000 0.278663
O O15 0.000000 0.225059 0.500000
#
# Coordination Sequence:
#
# PCOD8327645 Si02
#       6
#    12   6  12  12  12   6
#     4  10  22  39  58  79 110 148 188 230 273 329
#     4   8  18  38  62  86 112 141 176 221 268 320
#     4  10  19  32  54  80 110 144 182 228 280 332
#     4  10  20  35  54  78 109 145 188 233 278 325
#     4   9  19  37  58  82 112 143 182 229 276 328
#     4  12  24  38  60  86 114 149 184 225 278 332
#
# _framework density 18.494938000000001
#
# number of rings (size 3 to 8) (size 9 to 14) (size 15 to 20)
#    0.200    2.000    0.000    3.100    0.000    4.800 
#    1.800    0.000    0.000    0.000    0.000    0.000 
#    0.000    0.000    0.000    0.000    0.000    0.000 
#
# Total GULP energy -744136.828893 kJ/mol
# GULP energy per Si atom -12402.280482 kJ/mol
# Density = 1.845284 g / cm^3
# Si number density = 18.494938 Si / 1000 Ang^3
#
#
#
# Elastic Constant Matrix: (Units=GPa)
#
#
# Indices 1 2 3 4 5 6 
#
# 1 116.5875 72.2171 64.7292 0.0000 0.0000 0.0000
# 2 72.2171 116.5875 64.7292 0.0000 0.0000 0.0000
# 3 64.7292 64.7292 109.4918 0.0000 0.0000 0.0000
# 4 0.0000 0.0000 0.0000 31.4442 0.0000 0.0000
# 5 0.0000 0.0000 0.0000 0.0000 31.4442 0.0000
# 6 0.0000 0.0000 0.0000 0.0000 0.0000 22.1852
#
#
#
# Elastic Compliance Matrix: (Units=1/GPa)
#
#
# Indices 1 2 3 4 5 6 
#
# 1 0.015722 -0.006815 -0.005266 0.000000 0.000000 0.000000
# 2 -0.006815 0.015722 -0.005266 0.000000 0.000000 0.000000
# 3 -0.005266 -0.005266 0.015359 0.000000 0.000000 0.000000
# 4 0.000000 0.000000 0.000000 0.031802 0.000000 0.000000
# 5 0.000000 0.000000 0.000000 0.000000 0.031802 0.000000
# 6 0.000000 0.000000 0.000000 0.000000 0.000000 0.045075
#
#
# Mechanical properties :
#
#
# Convention : Reuss Voigt Hill
#
# Bulk Modulus (GPa) = 82.57337 82.89084 82.73210
# Shear Modulus (GPa) = 25.74492 26.41414 26.07953
#
# Velocity S-wave (km/s) = 3.73500 3.78323 3.75919
# Velocity P-wave (km/s) = 7.95887 7.99995 7.97944
#
# Compressibility (1/GPa) = 0.01211044
#
# Stress axis : x y z
#
# Youngs Moduli (GPa) = 63.60407 63.60407 65.10868
#
# Poissons Ratio (x) = 0.43348 0.34284
# Poissons Ratio (y) = 0.43348 0.34284
# Poissons Ratio (z) = 0.33491 0.33491
#
# Static dielectric constant tensor:
#      x y z
#    x 3.472870 0.000000 0.000000 
#    y 0.000000 3.472870 0.000000 
#    z 0.000000 0.000000 3.464350 
# 
# 
# High freq. dielectric constant tensor:
#      x y z
#    x 1.714150 0.000000 0.000000 
#    y 0.000000 1.714150 0.000000 
#    z 0.000000 0.000000 1.728430 
# 
# From -- ./inp_files/940.got.cif
#   From: 2010.03.12/outbox.cif.g09.slc.cpg/sg189_1_cif.got.tgz:940.got - 2010.04.01 12:03:36.
