data_PCOD8327842
_publ_section_title
;
Structure prediction by ZEFSAII (Michael W. Deem and Ramdas Pophale) SiO2 
 PCOD8327842
Probable space group: P -6 2 M
;
_chemical_formula_sum "Si O2"
_cell_formula_units_Z 60
_cell_length_a 20.120778
_cell_length_b 20.120778
_cell_length_c 9.024964
_cell_angle_alpha 90.000000
_cell_angle_beta 90.000000
_cell_angle_gamma 120.000000
_cell_volume 3164.212549
_symmetry_space_group_name_H-M "P -6 2 M"
_symmetry_group_IT_number 189
_symmetry_cell_setting 'hexagonal'
loop_
_space_group_symop_operation_xyz
x,y,z
-x+y,-x,-z
-y,x-y,z
x,y,-z
-x+y,-x,z
-y,x-y,-z
x-y,-y,-z
-x,-x+y,-z
y,x,-z
y,x,z
x-y,-y,z
-x,-x+y,z
loop_
_atom_site_type_symbol
_atom_site_label
_atom_site_fract_x
_atom_site_fract_y
_atom_site_fract_z
Si Si1 0.773027 0.000000 0.325715
Si Si2 0.482127 0.689705 0.326852
Si Si3 0.379659 0.379659 0.676503
Si Si4 0.639824 0.162942 0.323004
Si Si5 0.085254 0.352367 0.336456
Si Si6 0.913446 0.135503 0.170508
O O1 0.769175 0.000000 0.500000
O O2 0.697087 0.000000 0.263901
O O3 0.781269 0.929014 0.274579
O O4 0.465076 0.687372 0.500000
O O5 0.486875 0.766860 0.261739
O O6 0.420169 0.607519 0.258956
O O7 0.561230 0.695258 0.286293
O O8 0.379695 0.379695 0.500000
O O9 0.455371 0.376701 0.734692
O O10 0.638341 0.159058 0.500000
O O11 0.111977 0.338437 0.500000
O O12 0.091296 0.301669 0.207910
O O13 0.000000 0.337377 0.349872
O O14 0.000000 0.152166 0.203590
O O15 0.891951 0.112921 0.000000
#
# Coordination Sequence:
#
# PCOD8327842 Si02
#       6
#     6  12   6  12  12  12
#     4  11  21  35  57  81 109 140 173 216 267 317
#     4   9  16  25  40  64  99 137 174 214 268 327
#     4   9  18  29  45  71 105 140 173 214 269 327
#     4   9  16  25  38  61  98 140 175 211 263 326
#     4   9  17  29  48  73 100 129 168 219 266 310
#     4  10  21  37  55  77 104 137 176 214 258 315
#
# _framework density 18.962064000000002
#
# number of rings (size 3 to 8) (size 9 to 14) (size 15 to 20)
#    0.000    2.600    0.000    2.500    1.400    6.000 
#    0.600    0.000    0.000    0.000    0.000    7.000 
#    0.000    0.000    0.000    0.000    0.000    0.000 
#
# Total GULP energy -743283.442902 kJ/mol
# GULP energy per Si atom -12388.057382 kJ/mol
# Density = 1.891891 g / cm^3
# Si number density = 18.962064 Si / 1000 Ang^3
#
#
#
# Elastic Constant Matrix: (Units=GPa)
#
#
# Indices 1 2 3 4 5 6 
#
# 1 162.4627 62.8196 23.0167 0.0000 0.0000 0.0000
# 2 62.8196 162.4627 23.0167 0.0000 0.0000 0.0000
# 3 23.0167 23.0167 22.3761 0.0000 0.0000 0.0000
# 4 0.0000 0.0000 0.0000 9.7357 0.0000 0.0000
# 5 0.0000 0.0000 0.0000 0.0000 9.7357 0.0000
# 6 0.0000 0.0000 0.0000 0.0000 0.0000 49.8216
#
#
#
# Elastic Compliance Matrix: (Units=1/GPa)
#
#
# Indices 1 2 3 4 5 6 
#
# 1 0.007828 -0.002208 -0.005781 0.000000 0.000000 0.000000
# 2 -0.002208 0.007828 -0.005781 0.000000 0.000000 0.000000
# 3 -0.005781 -0.005781 0.056584 0.000000 0.000000 0.000000
# 4 0.000000 0.000000 0.000000 0.102715 0.000000 0.000000
# 5 0.000000 0.000000 0.000000 0.000000 0.102715 0.000000
# 6 0.000000 0.000000 0.000000 0.000000 0.000000 0.020072
#
#
# Mechanical properties :
#
#
# Convention : Reuss Voigt Hill
#
# Bulk Modulus (GPa) = 22.37146 62.77862 42.57504
# Shear Modulus (GPa) = 14.69803 29.75514 22.22658
#
# Velocity S-wave (km/s) = 2.78713 3.96560 3.42740
# Velocity P-wave (km/s) = 4.70968 7.35849 6.17772
#
# Compressibility (1/GPa) = 0.04469980
#
# Stress axis : x y z
#
# Youngs Moduli (GPa) = 127.74673 127.74673 17.67291
#
# Poissons Ratio (x) = 0.28204 0.10217
# Poissons Ratio (y) = 0.28204 0.10217
# Poissons Ratio (z) = 0.73851 0.73851
#
# Static dielectric constant tensor:
#      x y z
#    x -6.994220 0.000000 0.000000 
#    y 0.000000 -6.994220 0.000000 
#    z 0.000000 0.000000 2.970170 
# 
# 
# High freq. dielectric constant tensor:
#      x y z
#    x 1.748810 0.000000 0.000000 
#    y 0.000000 1.748810 0.000000 
#    z 0.000000 0.000000 1.671400 
# 
# From -- ./inp_files/901.got.cif
#   From: 2010.03.12/outbox.cif.g09.slc.cpg/sg189_1_cif.got.tgz:901.got - 2010.04.01 12:03:36.
