data_PCOD8327339
_publ_section_title
;
Structure prediction by ZEFSAII (Michael W. Deem and Ramdas Pophale) SiO2 
 PCOD8327339
Probable space group: P -6 C 2
;
_chemical_formula_sum "Si O2"
_cell_formula_units_Z 72
_cell_length_a 24.018417
_cell_length_b 24.018417
_cell_length_c 9.413719
_cell_angle_alpha 90.000000
_cell_angle_beta 90.000000
_cell_angle_gamma 120.000000
_cell_volume 4703.061127
_symmetry_space_group_name_H-M "P -6 C 2"
_symmetry_group_IT_number 188
_symmetry_cell_setting 'hexagonal'
loop_
_space_group_symop_operation_xyz
x,y,z
-x+y,-x,1/2-z
-y,x-y,z
x,y,1/2-z
-x+y,-x,z
-y,x-y,1/2-z
-y,-x,-z
-x+y,y,-z
x,x-y,-z
-x+y,y,1/2+z
x,x-y,1/2+z
-y,-x,1/2+z
loop_
_atom_site_type_symbol
_atom_site_label
_atom_site_fract_x
_atom_site_fract_y
_atom_site_fract_z
Si Si1 0.888720 0.998009 0.917682
Si Si2 0.328125 0.328081 0.580893
Si Si3 0.925531 0.741832 0.914223
Si Si4 0.554271 0.546413 0.407813
Si Si5 0.145195 0.622087 0.593584
Si Si6 0.254568 0.855451 0.081484
O O1 0.901892 0.993017 0.750000
O O2 0.836799 0.020824 0.936847
O O3 0.860202 0.930101 0.000000
O O4 0.954059 0.045942 0.000000
O O5 0.329355 0.331652 0.750000
O O6 0.302357 0.255851 0.526609
O O7 0.401319 0.375946 0.526609
O O8 0.279653 0.351736 0.527547
O O9 0.906485 0.727743 0.750000
O O10 0.861214 0.722428 0.000000
O O11 0.562601 0.525809 0.250000
O O12 0.518830 0.481170 0.500000
O O13 0.511570 0.580143 0.402324
O O14 0.173485 0.627342 0.750000
O O15 0.175130 0.587565 0.500000
O O16 0.165295 0.693071 0.537001
O O17 0.242860 0.849175 0.250000
O O18 0.188724 0.811277 0.000000
#
# Coordination Sequence:
#
# PCOD8327339 Si02
#       6
#    12  12  12  12  12  12
#     4  10  19  30  44  60  77  98 130 175 223 267
#     4   8  15  29  45  59  81 113 139 160 199 251
#     4   9  18  32  47  61  80 109 142 173 207 251
#     4   8  13  23  40  60  81 103 126 152 183 222
#     4   8  14  24  38  55  74  97 125 155 188 229
#     4   9  17  28  41  59  82 106 133 167 208 252
#
# _framework density 15.309179
#
# number of rings (size 3 to 8) (size 9 to 14) (size 15 to 20)
#    0.000    3.333    0.000    2.667    0.000    2.000 
#    0.000    4.167    0.000    0.333    0.000    0.000 
#    0.000    0.000    0.000    0.500    0.000    6.000 
#
# Total GULP energy -892252.789521 kJ/mol
# GULP energy per Si atom -12392.399854 kJ/mol
# Density = 1.527433 g / cm^3
# Si number density = 15.309179 Si / 1000 Ang^3
#
#
#
# Elastic Constant Matrix: (Units=GPa)
#
#
# Indices 1 2 3 4 5 6 
#
# 1 88.7136 58.6086 40.5663 0.0002 0.0000 0.0000
# 2 58.6086 88.7136 40.5663 -0.0002 0.0000 0.0000
# 3 40.5663 40.5663 59.6926 0.0000 0.0000 0.0000
# 4 0.0002 -0.0002 0.0000 18.5013 0.0000 0.0000
# 5 0.0000 0.0000 0.0000 0.0000 18.5013 0.0002
# 6 0.0000 0.0000 0.0000 0.0000 0.0002 15.0525
#
#
#
# Elastic Compliance Matrix: (Units=1/GPa)
#
#
# Indices 1 2 3 4 5 6 
#
# 1 0.022032 -0.011185 -0.007372 0.000000 0.000000 0.000000
# 2 -0.011185 0.022032 -0.007372 0.000000 0.000000 0.000000
# 3 -0.007372 -0.007372 0.026772 0.000000 0.000000 0.000000
# 4 0.000000 0.000000 0.000000 0.054050 0.000000 0.000000
# 5 0.000000 0.000000 0.000000 0.000000 0.054050 -0.000001
# 6 0.000000 0.000000 0.000000 0.000000 -0.000001 0.066434
#
#
# Mechanical properties :
#
#
# Convention : Reuss Voigt Hill
#
# Bulk Modulus (GPa) = 52.68743 57.40021 55.04382
# Shear Modulus (GPa) = 16.47146 16.90293 16.68719
#
# Velocity S-wave (km/s) = 3.28368 3.32641 3.30512
# Velocity P-wave (km/s) = 6.99050 7.23386 7.11322
#
# Compressibility (1/GPa) = 0.01897986
#
# Stress axis : x y z
#
# Youngs Moduli (GPa) = 45.38772 45.38772 37.35213
#
# Poissons Ratio (x) = 0.50765 0.27536
# Poissons Ratio (y) = 0.50765 0.27536
# Poissons Ratio (z) = 0.33460 0.33460
#
# Static dielectric constant tensor:
#      x y z
#    x 2.894580 0.000000 0.000000 
#    y 0.000000 2.894580 0.000000 
#    z 0.000000 0.000000 2.941720 
# 
# 
# High freq. dielectric constant tensor:
#      x y z
#    x 1.562130 0.000000 0.000000 
#    y 0.000000 1.562130 0.000000 
#    z 0.000000 0.000000 1.576280 
# 
# From -- ./inp_files/992.got.cif
#   From: 2010.03.12/outbox.cif.g09.slc.cpg/sg188_1_cif.got.tgz:992.got - 2010.04.01 12:01:06.
