data_PCOD8327335
_publ_section_title
;
Structure prediction by ZEFSAII (Michael W. Deem and Ramdas Pophale) SiO2 
 PCOD8327335
Probable space group: P -6 C 2
;
_chemical_formula_sum "Si O2"
_cell_formula_units_Z 46
_cell_length_a 15.525343
_cell_length_b 15.525343
_cell_length_c 14.112915
_cell_angle_alpha 90.000000
_cell_angle_beta 90.000000
_cell_angle_gamma 120.000000
_cell_volume 2945.979803
_symmetry_space_group_name_H-M "P -6 C 2"
_symmetry_group_IT_number 188
_symmetry_cell_setting 'hexagonal'
loop_
_space_group_symop_operation_xyz
x,y,z
-x+y,-x,1/2-z
-y,x-y,z
x,y,1/2-z
-x+y,-x,z
-y,x-y,1/2-z
-y,-x,-z
-x+y,y,-z
x,x-y,-z
-x+y,y,1/2+z
x,x-y,1/2+z
-y,-x,1/2+z
loop_
_atom_site_type_symbol
_atom_site_label
_atom_site_fract_x
_atom_site_fract_y
_atom_site_fract_z
Si Si1 0.153634 0.668144 0.455034
Si Si2 0.666668 0.333335 0.386964
Si Si3 0.330719 0.554721 0.250000
Si Si4 0.926051 0.564500 0.490656
Si Si5 0.789188 0.233300 0.145263
O O1 0.224324 0.775676 0.500000
O O2 0.183874 0.591937 0.500000
O O3 0.163910 0.669942 0.341725
O O4 0.042323 0.639300 0.480343
O O5 0.666668 0.333334 0.500000
O O6 0.561008 0.252606 0.347098
O O7 0.234203 0.569735 0.250000
O O8 0.901436 0.450718 0.500000
O O9 0.870033 0.575389 0.399811
O O10 0.889181 0.599368 0.582536
O O11 0.816514 0.212335 0.250000
#
# Coordination Sequence:
#
# PCOD8327335 Si02
#       5
#    12   4   6  12  12
#     4  11  20  36  51  71 101 131 163 209 246 291
#     4  12  16  29  46  61  98 133 163 191 235 274
#     4  10  18  32  54  72  88 136 172 200 254 292
#     4  10  21  32  46  71  99 129 170 203 236 290
#     4  11  19  32  47  69  97 134 166 199 237 283
#
# _framework density 15.614501000000001
#
# number of rings (size 3 to 8) (size 9 to 14) (size 15 to 20)
#    0.261    1.043    7.826    1.043    1.826    0.000 
#    9.391    0.000    0.000    0.000    0.000    0.000 
#   10.435    0.000    0.000    0.000    0.000    0.000 
#
# Total GULP energy -570329.154130 kJ/mol
# GULP energy per Si atom -12398.459872 kJ/mol
# Density = 1.557896 g / cm^3
# Si number density = 15.614501 Si / 1000 Ang^3
#
#
#
# Elastic Constant Matrix: (Units=GPa)
#
#
# Indices 1 2 3 4 5 6 
#
# 1 84.9573 42.8540 42.7662 -0.0001 0.0000 0.0000
# 2 42.8540 84.9574 42.7663 -0.0001 0.0000 0.0000
# 3 42.7662 42.7663 152.8878 0.0000 0.0001 0.0000
# 4 -0.0001 -0.0001 0.0000 14.7216 0.0000 0.0000
# 5 0.0000 0.0000 0.0001 0.0000 14.7213 0.0000
# 6 0.0000 0.0000 0.0000 0.0000 0.0000 21.0516
#
#
#
# Elastic Compliance Matrix: (Units=1/GPa)
#
#
# Indices 1 2 3 4 5 6 
#
# 1 0.016689 -0.007063 -0.002693 0.000000 0.000000 0.000000
# 2 -0.007063 0.016689 -0.002693 0.000000 0.000000 0.000000
# 3 -0.002693 -0.002693 0.008047 0.000000 0.000000 0.000000
# 4 0.000000 0.000000 0.000000 0.067927 0.000000 0.000000
# 5 0.000000 0.000000 0.000000 0.000000 0.067929 0.000000
# 6 0.000000 0.000000 0.000000 0.000000 0.000000 0.047502
#
#
# Mechanical properties :
#
#
# Convention : Reuss Voigt Hill
#
# Bulk Modulus (GPa) = 60.50120 64.39728 62.44924
# Shear Modulus (GPa) = 19.59343 23.05997 21.32670
#
# Velocity S-wave (km/s) = 3.54619 3.84712 3.69972
# Velocity P-wave (km/s) = 7.45642 7.81443 7.63752
#
# Compressibility (1/GPa) = 0.01652860
#
# Stress axis : x y z
#
# Youngs Moduli (GPa) = 59.92138 59.92139 124.26824
#
# Poissons Ratio (x) = 0.42320 0.33460
# Poissons Ratio (y) = 0.42320 0.33461
# Poissons Ratio (z) = 0.16134 0.16134
#
# Static dielectric constant tensor:
#      x y z
#    x 2.743640 0.000000 0.000000 
#    y 0.000000 2.743640 0.000000 
#    z 0.000000 0.000000 3.234430 
# 
# 
# High freq. dielectric constant tensor:
#      x y z
#    x 1.568220 0.000000 0.000000 
#    y 0.000000 1.568220 0.000000 
#    z 0.000000 0.000000 1.617840 
# 
# From -- ./inp_files/1567.got.cif
#   From: 2010.03.12/outbox.cif.g09.slc.cpg/sg188_1_cif.got.tgz:1567.got - 2010.04.01 12:01:06.
