data_PCOD8327779
_publ_section_title
;
Structure prediction by ZEFSAII (Michael W. Deem and Ramdas Pophale) SiO2 
 PCOD8327779
Probable space group: P -6 2 M
;
_chemical_formula_sum "Si O2"
_cell_formula_units_Z 68
_cell_length_a 21.604659
_cell_length_b 21.604659
_cell_length_c 8.915861
_cell_angle_alpha 90.000000
_cell_angle_beta 90.000000
_cell_angle_gamma 120.000000
_cell_volume 3604.032949
_symmetry_space_group_name_H-M "P -6 2 M"
_symmetry_group_IT_number 189
_symmetry_cell_setting 'hexagonal'
loop_
_space_group_symop_operation_xyz
x,y,z
-x+y,-x,-z
-y,x-y,z
x,y,-z
-x+y,-x,z
-y,x-y,-z
x-y,-y,-z
-x,-x+y,-z
y,x,-z
y,x,z
x-y,-y,z
-x,-x+y,z
loop_
_atom_site_type_symbol
_atom_site_label
_atom_site_fract_x
_atom_site_fract_y
_atom_site_fract_z
Si Si1 0.139411 0.139411 0.324797
Si Si2 0.390037 0.306850 0.322254
Si Si3 0.440267 0.082554 0.322302
Si Si4 0.000000 0.000000 0.678073
Si Si5 0.567253 0.084089 0.167419
Si Si6 0.137076 0.921064 0.831879
Si Si7 0.832087 0.207923 0.170364
O O1 0.144601 0.144601 0.500000
O O2 0.137231 0.208010 0.265130
O O3 0.069556 0.069556 0.260982
O O4 0.392482 0.300193 0.500000
O O5 0.333621 0.333621 0.278402
O O6 0.469390 0.361614 0.263335
O O7 0.369450 0.231721 0.247195
O O8 0.446059 0.088174 0.500000
O O9 0.518389 0.108610 0.254849
O O10 0.421727 0.141384 0.262111
O O11 0.383709 0.000000 0.274624
O O12 0.000000 0.000000 0.500000
O O13 0.524989 0.000000 0.151993
O O14 0.586293 0.118315 0.000000
O O15 0.198509 0.900981 0.830963
O O16 0.169750 0.000000 0.759947
O O17 0.110249 0.920413 0.000000
O O18 0.810472 0.215439 0.000000
#
# Coordination Sequence:
#
# PCOD8327779 Si02
#       7
#     6  12  12   2  12  12  12
#     4  11  21  35  53  71  95 127 176 235 294 351
#     4  10  21  37  56  81 114 149 187 229 276 330
#     4  10  20  35  57  85 115 146 183 227 278 331
#     4   9  18  33  49  71  91 117 166 233 292 345
#     4   9  17  32  57  85 110 139 176 216 261 316
#     4  10  22  38  53  72 100 138 185 236 292 347
#     4  11  23  37  55  79 112 149 188 234 282 334
#
# _framework density 18.867751999999999
#
# number of rings (size 3 to 8) (size 9 to 14) (size 15 to 20)
#    0.000    1.941    0.882    2.912    1.235    6.353 
#    0.000    0.000    0.000    0.706    0.000    4.941 
#    0.000    0.000    0.000    0.000    0.000    0.000 
#
# Total GULP energy -842975.151501 kJ/mol
# GULP energy per Si atom -12396.693404 kJ/mol
# Density = 1.882481 g / cm^3
# Si number density = 18.867752 Si / 1000 Ang^3
#
#
#
# Elastic Constant Matrix: (Units=GPa)
#
#
# Indices 1 2 3 4 5 6 
#
# 1 82.2048 35.2706 39.8346 0.0000 0.0000 0.0000
# 2 35.2706 82.2048 39.8346 0.0000 0.0000 0.0000
# 3 39.8346 39.8346 113.0720 0.0000 0.0000 0.0000
# 4 0.0000 0.0000 0.0000 30.6574 0.0000 0.0000
# 5 0.0000 0.0000 0.0000 0.0000 30.6574 0.0000
# 6 0.0000 0.0000 0.0000 0.0000 0.0000 23.4671
#
#
#
# Elastic Compliance Matrix: (Units=1/GPa)
#
#
# Indices 1 2 3 4 5 6 
#
# 1 0.016246 -0.005061 -0.003940 0.000000 0.000000 0.000000
# 2 -0.005061 0.016246 -0.003940 0.000000 0.000000 0.000000
# 3 -0.003940 -0.003940 0.011620 0.000000 0.000000 0.000000
# 4 0.000000 0.000000 0.000000 0.032619 0.000000 0.000000
# 5 0.000000 0.000000 0.000000 0.000000 0.032619 0.000000
# 6 0.000000 0.000000 0.000000 0.000000 0.000000 0.042613
#
#
# Mechanical properties :
#
#
# Convention : Reuss Voigt Hill
#
# Bulk Modulus (GPa) = 54.85963 56.37347 55.61655
# Shear Modulus (GPa) = 27.18569 27.79250 27.48910
#
# Velocity S-wave (km/s) = 3.79998 3.84215 3.82112
# Velocity P-wave (km/s) = 6.95644 7.04457 7.00064
#
# Compressibility (1/GPa) = 0.01822834
#
# Stress axis : x y z
#
# Youngs Moduli (GPa) = 61.55537 61.55537 86.05711
#
# Poissons Ratio (x) = 0.31153 0.33909
# Poissons Ratio (y) = 0.31153 0.33909
# Poissons Ratio (z) = 0.24255 0.24255
#
# Static dielectric constant tensor:
#      x y z
#    x 3.401340 0.000000 0.000000 
#    y 0.000000 3.401340 0.000000 
#    z 0.000000 0.000000 3.550680 
# 
# 
# High freq. dielectric constant tensor:
#      x y z
#    x 1.718740 0.000000 0.000000 
#    y 0.000000 1.718740 0.000000 
#    z 0.000000 0.000000 1.744680 
# 
# From -- ./inp_files/1082.got.cif
#   From: 2010.03.12/outbox.cif.g09.slc.cpg/sg189_1_cif.got.tgz:1082.got - 2010.04.01 12:03:36.
