data_PCOD8327617
_publ_section_title
;
Structure prediction by ZEFSAII (Michael W. Deem and Ramdas Pophale) SiO2 
 PCOD8327617
Probable space group: P -6 2 M
;
_chemical_formula_sum "Si O2"
_cell_formula_units_Z 72
_cell_length_a 23.891121
_cell_length_b 23.891121
_cell_length_c 8.584501
_cell_angle_alpha 90.000000
_cell_angle_beta 90.000000
_cell_angle_gamma 120.000000
_cell_volume 4243.446616
_symmetry_space_group_name_H-M "P -6 2 M"
_symmetry_group_IT_number 189
_symmetry_cell_setting 'hexagonal'
loop_
_space_group_symop_operation_xyz
x,y,z
-x+y,-x,-z
-y,x-y,z
x,y,-z
-x+y,-x,z
-y,x-y,-z
x-y,-y,-z
-x,-x+y,-z
y,x,-z
y,x,z
x-y,-y,z
-x,-x+y,z
loop_
_atom_site_type_symbol
_atom_site_label
_atom_site_fract_x
_atom_site_fract_y
_atom_site_fract_z
Si Si1 0.854042 0.926604 0.815503
Si Si2 0.189003 0.262084 0.684383
Si Si3 0.259396 0.731257 0.818383
Si Si4 0.591980 0.195717 0.316897
Si Si5 0.854187 0.591999 0.315157
Si Si6 0.070890 0.591813 0.315878
O O1 0.883121 0.883121 0.750464
O O2 0.781872 0.898494 0.749359
O O3 0.899768 0.000000 0.756701
O O4 0.851094 0.924168 0.000000
O O5 0.187276 0.260460 0.500000
O O6 0.234828 0.234828 0.746708
O O7 0.216574 0.335007 0.744140
O O8 0.332396 0.785137 0.780467
O O9 0.242441 0.667272 0.721201
O O10 0.214043 0.760341 0.768220
O O11 0.251607 0.714458 0.000000
O O12 0.581796 0.200279 0.500000
O O13 0.570749 0.122565 0.263791
O O14 0.843431 0.585454 0.500000
O O15 0.905003 0.569938 0.261885
O O16 0.065669 0.589127 0.500000
O O17 0.000000 0.544222 0.242241
#
# Coordination Sequence:
#
# PCOD8327617 Si02
#       6
#    12  12  12  12  12  12
#     4   9  17  29  45  65  91 124 159 193 233 284
#     4   9  17  29  47  71  96 121 152 193 237 278
#     4  11  21  32  47  69  97 124 154 191 229 268
#     4  10  19  32  50  70  94 123 155 188 227 275
#     4   9  17  30  48  69  94 123 152 182 223 277
#     4   8  14  26  47  72  92 113 144 181 219 263
#
# _framework density 16.96734
#
# number of rings (size 3 to 8) (size 9 to 14) (size 15 to 20)
#    0.000    2.667    0.000    4.000    0.000    3.667 
#    0.000    0.000    0.000   18.500    0.000    2.333 
#    0.000    0.000    0.000    0.000    0.000    0.000 
#
# Total GULP energy -892684.364164 kJ/mol
# GULP energy per Si atom -12398.393947 kJ/mol
# Density = 1.692872 g / cm^3
# Si number density = 16.967340 Si / 1000 Ang^3
#
#
#
# Elastic Constant Matrix: (Units=GPa)
#
#
# Indices 1 2 3 4 5 6 
#
# 1 126.5861 68.6119 15.4459 0.0000 0.0000 0.0000
# 2 68.6119 126.5861 15.4459 0.0000 0.0000 0.0000
# 3 15.4459 15.4459 29.9053 0.0000 0.0000 0.0000
# 4 0.0000 0.0000 0.0000 17.8937 0.0000 0.0000
# 5 0.0000 0.0000 0.0000 0.0000 17.8937 0.0000
# 6 0.0000 0.0000 0.0000 0.0000 0.0000 28.9871
#
#
#
# Elastic Compliance Matrix: (Units=1/GPa)
#
#
# Indices 1 2 3 4 5 6 
#
# 1 0.011414 -0.005835 -0.002882 0.000000 0.000000 0.000000
# 2 -0.005835 0.011414 -0.002882 0.000000 0.000000 0.000000
# 3 -0.002882 -0.002882 0.036415 0.000000 0.000000 0.000000
# 4 0.000000 0.000000 0.000000 0.055886 0.000000 0.000000
# 5 0.000000 0.000000 0.000000 0.000000 0.055886 0.000000
# 6 0.000000 0.000000 0.000000 0.000000 0.000000 0.034498
#
#
# Mechanical properties :
#
#
# Convention : Reuss Voigt Hill
#
# Bulk Modulus (GPa) = 27.74127 53.56499 40.65313
# Shear Modulus (GPa) = 20.77061 25.19316 22.98188
#
# Velocity S-wave (km/s) = 3.50258 3.85749 3.68432
# Velocity P-wave (km/s) = 5.72213 7.17484 6.48927
#
# Compressibility (1/GPa) = 0.03604738
#
# Stress axis : x y z
#
# Youngs Moduli (GPa) = 87.61141 87.61141 27.46088
#
# Poissons Ratio (x) = 0.51121 0.07913
# Poissons Ratio (y) = 0.51121 0.07913
# Poissons Ratio (z) = 0.25246 0.25246
#
# Static dielectric constant tensor:
#      x y z
#    x 3.305420 0.000000 0.000000 
#    y 0.000000 3.305420 0.000000 
#    z 0.000000 0.000000 2.940530 
# 
# 
# High freq. dielectric constant tensor:
#      x y z
#    x 1.645450 0.000000 0.000000 
#    y 0.000000 1.645450 0.000000 
#    z 0.000000 0.000000 1.638390 
# 
# From -- ./inp_files/1273.got.cif
#   From: 2010.03.12/outbox.cif.g09.slc.cpg/sg189_1_cif.got.tgz:1273.got - 2010.04.01 12:03:36.
