data_PCOD8327924
_publ_section_title
;
Structure prediction by ZEFSAII (Michael W. Deem and Ramdas Pophale) SiO2 
 PCOD8327924
Probable space group: P -6 2 M
;
_chemical_formula_sum "Si O2"
_cell_formula_units_Z 72
_cell_length_a 22.461358
_cell_length_b 22.461358
_cell_length_c 9.977338
_cell_angle_alpha 90.000000
_cell_angle_beta 90.000000
_cell_angle_gamma 120.000000
_cell_volume 4359.305811
_symmetry_space_group_name_H-M "P -6 2 M"
_symmetry_group_IT_number 189
_symmetry_cell_setting 'hexagonal'
loop_
_space_group_symop_operation_xyz
x,y,z
-x+y,-x,-z
-y,x-y,z
x,y,-z
-x+y,-x,z
-y,x-y,-z
x-y,-y,-z
-x,-x+y,-z
y,x,-z
y,x,z
x-y,-y,z
-x,-x+y,z
loop_
_atom_site_type_symbol
_atom_site_label
_atom_site_fract_x
_atom_site_fract_y
_atom_site_fract_z
Si Si1 0.379165 0.554643 0.845470
Si Si2 0.921697 0.842882 0.151909
Si Si3 0.922642 0.179610 0.351029
Si Si4 0.710223 0.482884 0.153066
Si Si5 0.351596 0.432098 0.343900
Si Si6 0.199646 0.795925 0.649458
O O1 0.309103 0.556476 0.824409
O O2 0.437304 0.630954 0.805858
O O3 0.385715 0.500448 0.748683
O O4 0.386053 0.536646 0.000000
O O5 0.898969 0.898969 0.176286
O O6 0.882066 0.778334 0.247224
O O7 0.000000 0.877334 0.192210
O O8 0.907986 0.815964 0.000000
O O9 0.921831 0.151377 0.500000
O O10 0.869161 0.205526 0.340721
O O11 0.000000 0.240702 0.315283
O O12 0.742562 0.548426 0.247219
O O13 0.716642 0.507415 0.000000
O O14 0.367821 0.453791 0.500000
O O15 0.382331 0.382331 0.304641
O O16 0.268945 0.392522 0.316738
O O17 0.219483 0.784308 0.500000
#
# Coordination Sequence:
#
# PCOD8327924 Si02
#       6
#    12  12  12  12  12  12
#     4   9  17  30  49  72  97 123 151 186 230 277
#     4   9  17  29  45  65  89 116 145 180 225 275
#     4   9  18  32  48  66  89 118 153 192 231 270
#     4   9  17  30  49  72  96 121 150 185 226 273
#     4   9  18  32  48  67  93 125 159 194 233 277
#     4   9  18  32  49  68  92 123 158 194 231 273
#
# _framework density 16.516390999999999
#
# number of rings (size 3 to 8) (size 9 to 14) (size 15 to 20)
#    0.000    3.000    0.000    0.500    0.000    4.667 
#    0.000    2.500    0.000    6.000    0.000    0.000 
#    0.000    0.000    0.000    0.000    0.000    0.000 
#
# Total GULP energy -892379.228918 kJ/mol
# GULP energy per Si atom -12394.155957 kJ/mol
# Density = 1.647880 g / cm^3
# Si number density = 16.516391 Si / 1000 Ang^3
#
#
#
# Elastic Constant Matrix: (Units=GPa)
#
#
# Indices 1 2 3 4 5 6 
#
# 1 85.0304 45.9176 53.0110 0.0000 0.0000 0.0000
# 2 45.9176 85.0304 53.0110 0.0000 0.0000 0.0000
# 3 53.0110 53.0110 79.5387 0.0000 0.0000 0.0000
# 4 0.0000 0.0000 0.0000 27.1249 0.0000 0.0000
# 5 0.0000 0.0000 0.0000 0.0000 27.1249 0.0000
# 6 0.0000 0.0000 0.0000 0.0000 0.0000 19.5564
#
#
#
# Elastic Compliance Matrix: (Units=1/GPa)
#
#
# Indices 1 2 3 4 5 6 
#
# 1 0.021077 -0.004490 -0.011055 0.000000 0.000000 0.000000
# 2 -0.004490 0.021077 -0.011055 0.000000 0.000000 0.000000
# 3 -0.011055 -0.011055 0.027309 0.000000 0.000000 0.000000
# 4 0.000000 0.000000 0.000000 0.036866 0.000000 0.000000
# 5 0.000000 0.000000 0.000000 0.000000 0.036866 0.000000
# 6 0.000000 0.000000 0.000000 0.000000 0.000000 0.051134
#
#
# Mechanical properties :
#
#
# Convention : Reuss Voigt Hill
#
# Bulk Modulus (GPa) = 61.49032 61.49763 61.49398
# Shear Modulus (GPa) = 19.76662 21.27191 20.51927
#
# Velocity S-wave (km/s) = 3.46322 3.59266 3.52853
# Velocity P-wave (km/s) = 7.30086 7.38409 7.34259
#
# Compressibility (1/GPa) = 0.01626272
#
# Stress axis : x y z
#
# Youngs Moduli (GPa) = 47.44449 47.44449 36.61845
#
# Poissons Ratio (x) = 0.21302 0.40482
# Poissons Ratio (y) = 0.21302 0.40482
# Poissons Ratio (z) = 0.52451 0.52451
#
# Static dielectric constant tensor:
#      x y z
#    x 3.053640 0.000000 0.000000 
#    y 0.000000 3.053640 0.000000 
#    z 0.000000 0.000000 3.361610 
# 
# 
# High freq. dielectric constant tensor:
#      x y z
#    x 1.625440 0.000000 0.000000 
#    y 0.000000 1.625440 0.000000 
#    z 0.000000 0.000000 1.645110 
# 
# From -- ./inp_files/1221.got.cif
#   From: 2010.03.12/outbox.cif.g09.slc.cpg/sg189_1_cif.got.tgz:1221.got - 2010.04.01 12:03:36.
