data_PCOD8327489
_publ_section_title
;
Structure prediction by ZEFSAII (Michael W. Deem and Ramdas Pophale) SiO2 
 PCOD8327489
Probable space group: P -6 2 M
;
_chemical_formula_sum "Si O2"
_cell_formula_units_Z 50
_cell_length_a 13.650384
_cell_length_b 13.650384
_cell_length_c 16.544473
_cell_angle_alpha 90.000000
_cell_angle_beta 90.000000
_cell_angle_gamma 120.000000
_cell_volume 2669.766671
_symmetry_space_group_name_H-M "P -6 2 M"
_symmetry_group_IT_number 189
_symmetry_cell_setting 'hexagonal'
loop_
_space_group_symop_operation_xyz
x,y,z
-x+y,-x,-z
-y,x-y,z
x,y,-z
-x+y,-x,z
-y,x-y,-z
x-y,-y,-z
-x,-x+y,-z
y,x,-z
y,x,z
x-y,-y,z
-x,-x+y,z
loop_
_atom_site_type_symbol
_atom_site_label
_atom_site_fract_x
_atom_site_fract_y
_atom_site_fract_z
Si Si1 0.870445 0.534824 0.753762
Si Si2 0.000000 0.000000 0.597312
Si Si3 0.785303 0.785303 0.405321
Si Si4 0.793196 0.334575 0.000000
Si Si5 0.671350 0.542655 0.173419
Si Si6 0.753786 0.129846 0.590363
O O1 0.831822 0.409137 0.783387
O O2 0.797695 0.583794 0.796415
O O3 0.854232 0.530248 0.656190
O O4 0.000000 0.619702 0.778369
O O5 0.891616 0.891616 0.635528
O O6 0.000000 0.000000 0.500000
O O7 0.803229 0.803229 0.500000
O O8 0.785872 0.670368 0.382795
O O9 0.777545 0.445391 0.000000
O O10 0.863916 0.336752 0.922676
O O11 0.635182 0.635182 0.196842
O O12 0.729853 0.159942 0.500000
O O13 0.727646 0.000000 0.591001
#
# Coordination Sequence:
#
# PCOD8327489 Si02
#       6
#    12   2   6   6  12  12
#     4  10  21  37  56  80 112 147 182 228 276 321
#     4   9  12  18  36  66  93 129 183 232 281 313
#     4   9  14  22  40  66  97 136 185 234 273 312
#     4  10  17  34  60  82 113 138 172 228 276 326
#     4  11  21  36  58  83 113 144 178 224 278 334
#     4   9  17  29  46  70 104 145 186 227 270 315
#
# _framework density 18.728228000000001
#
# number of rings (size 3 to 8) (size 9 to 14) (size 15 to 20)
#    0.240    1.920    3.600    0.840    1.680    0.000 
#    0.000    1.800    0.000    1.920    0.000    0.000 
#    0.000    0.000    0.000    0.000    0.000    0.000 
#
# Total GULP energy -619742.105492 kJ/mol
# GULP energy per Si atom -12394.842110 kJ/mol
# Density = 1.868560 g / cm^3
# Si number density = 18.728228 Si / 1000 Ang^3
#
#
#
# Elastic Constant Matrix: (Units=GPa)
#
#
# Indices 1 2 3 4 5 6 
#
# 1 66.7040 26.0261 32.1538 0.0000 0.0000 0.0000
# 2 26.0261 66.7040 32.1538 0.0000 0.0000 0.0000
# 3 32.1538 32.1538 112.6645 0.0000 0.0000 0.0000
# 4 0.0000 0.0000 0.0000 20.4762 0.0000 0.0000
# 5 0.0000 0.0000 0.0000 0.0000 20.4762 0.0000
# 6 0.0000 0.0000 0.0000 0.0000 0.0000 20.3389
#
#
#
# Elastic Compliance Matrix: (Units=1/GPa)
#
#
# Indices 1 2 3 4 5 6 
#
# 1 0.019014 -0.005569 -0.003837 0.000000 0.000000 0.000000
# 2 -0.005569 0.019014 -0.003837 0.000000 0.000000 0.000000
# 3 -0.003837 -0.003837 0.011066 0.000000 0.000000 0.000000
# 4 0.000000 0.000000 0.000000 0.048837 0.000000 0.000000
# 5 0.000000 0.000000 0.000000 0.000000 0.048837 0.000000
# 6 0.000000 0.000000 0.000000 0.000000 0.000000 0.049167
#
#
# Mechanical properties :
#
#
# Convention : Reuss Voigt Hill
#
# Bulk Modulus (GPa) = 44.23294 47.41557 45.82425
# Shear Modulus (GPa) = 21.74307 22.64086 22.19196
#
# Velocity S-wave (km/s) = 3.41101 3.48072 3.44604
# Velocity P-wave (km/s) = 6.25963 6.44411 6.35254
#
# Compressibility (1/GPa) = 0.02260759
#
# Stress axis : x y z
#
# Youngs Moduli (GPa) = 52.59225 52.59225 90.36602
#
# Poissons Ratio (x) = 0.29290 0.34675
# Poissons Ratio (y) = 0.29290 0.34675
# Poissons Ratio (z) = 0.20180 0.20180
#
# Static dielectric constant tensor:
#      x y z
#    x 3.326430 0.000000 0.000000 
#    y 0.000000 3.326430 0.000000 
#    z 0.000000 0.000000 3.379630 
# 
# 
# High freq. dielectric constant tensor:
#      x y z
#    x 1.707200 0.000000 0.000000 
#    y 0.000000 1.707200 0.000000 
#    z 0.000000 0.000000 1.721700 
# 
# From -- ./inp_files/2481.got.cif
#   From: 2010.03.12/outbox.cif.g09.slc.cpg/sg189_2_cif.got.tgz:2481.got - 2010.04.01 12:03:36.
