data_PCOD8327286
_publ_section_title
;
Structure prediction by ZEFSAII (Michael W. Deem and Ramdas Pophale) SiO2 
 PCOD8327286
Probable space group: P -6 M 2
;
_chemical_formula_sum "Si O2"
_cell_formula_units_Z 54
_cell_length_a 13.457477
_cell_length_b 13.457477
_cell_length_c 22.492537
_cell_angle_alpha 90.000000
_cell_angle_beta 90.000000
_cell_angle_gamma 120.000000
_cell_volume 3527.738362
_symmetry_space_group_name_H-M "P -6 M 2"
_symmetry_group_IT_number 187
_symmetry_cell_setting 'hexagonal'
loop_
_space_group_symop_operation_xyz
x,y,z
-x+y,-x,-z
-y,x-y,z
x,y,-z
-x+y,-x,z
-y,x-y,-z
-y,-x,-z
-x+y,y,-z
x,x-y,-z
-x+y,y,z
x,x-y,z
-y,-x,z
loop_
_atom_site_type_symbol
_atom_site_label
_atom_site_fract_x
_atom_site_fract_y
_atom_site_fract_z
Si Si1 0.666373 0.561964 0.149009
Si Si2 0.436743 0.332976 0.713854
Si Si3 0.335830 0.901418 0.370656
Si Si4 0.000315 0.771153 0.068488
Si Si5 0.108259 0.443692 0.500000
O O1 0.766330 0.532659 0.136207
O O2 0.547680 0.452321 0.130617
O O3 0.667309 0.595528 0.217502
O O4 0.680965 0.666585 0.108785
O O5 0.428996 0.214498 0.695269
O O6 0.565536 0.434465 0.700774
O O7 0.344378 0.348110 0.675472
O O8 0.435216 0.870431 0.357495
O O9 0.213561 0.786440 0.363473
O O10 0.353077 0.958224 0.437285
O O11 0.118481 0.881520 0.086869
O O12 0.899756 0.799511 0.081144
O O13 0.000451 0.737740 0.000000
O O14 0.207331 0.414661 0.500000
O O15 0.161392 0.580696 0.500000
#
# Coordination Sequence:
#
# PCOD8327286 Si02
#       5
#    12  12  12  12   6
#     4   9  17  29  45  64  85 110 141 176 212 247
#     4   9  17  29  44  61  83 113 145 174 205 245
#     4   9  16  26  42  63  85 107 133 169 212 254
#     4   9  17  29  45  64  85 109 136 167 205 249
#     4   8  13  22  37  58  82 106 132 164 206 252
#
# _framework density 15.307257999999999
#
# number of rings (size 3 to 8) (size 9 to 14) (size 15 to 20)
#    0.000    3.111    0.000    1.000    0.000    5.778 
#    0.000    0.556    0.000    2.222    0.000    1.556 
#    0.000    0.000    0.000    0.000    0.000    0.000 
#
# Total GULP energy -669260.001130 kJ/mol
# GULP energy per Si atom -12393.703725 kJ/mol
# Density = 1.527242 g / cm^3
# Si number density = 15.307258 Si / 1000 Ang^3
#
#
#
# Elastic Constant Matrix: (Units=GPa)
#
#
# Indices 1 2 3 4 5 6 
#
# 1 92.9637 51.1793 61.5968 0.0000 0.0000 0.0000
# 2 51.1793 92.9637 61.5968 0.0000 0.0000 0.0000
# 3 61.5968 61.5968 90.3285 0.0000 0.0000 0.0000
# 4 0.0000 0.0000 0.0000 24.9010 0.0000 0.0000
# 5 0.0000 0.0000 0.0000 0.0000 24.9010 0.0000
# 6 0.0000 0.0000 0.0000 0.0000 0.0000 20.8922
#
#
#
# Elastic Compliance Matrix: (Units=1/GPa)
#
#
# Indices 1 2 3 4 5 6 
#
# 1 0.020281 -0.003652 -0.011340 0.000000 0.000000 0.000000
# 2 -0.003652 0.020281 -0.011340 0.000000 0.000000 0.000000
# 3 -0.011340 -0.011340 0.026536 0.000000 0.000000 0.000000
# 4 0.000000 0.000000 0.000000 0.040159 0.000000 0.000000
# 5 0.000000 0.000000 0.000000 0.000000 0.040159 0.000000
# 6 0.000000 0.000000 0.000000 0.000000 0.000000 0.047865
#
#
# Mechanical properties :
#
#
# Convention : Reuss Voigt Hill
#
# Bulk Modulus (GPa) = 69.27297 69.44461 69.35879
# Shear Modulus (GPa) = 19.78199 20.93104 20.35651
#
# Velocity S-wave (km/s) = 3.59880 3.70184 3.65068
# Velocity P-wave (km/s) = 7.91338 7.98355 7.94855
#
# Compressibility (1/GPa) = 0.01443565
#
# Stress axis : x y z
#
# Youngs Moduli (GPa) = 49.30765 49.30765 37.68403
#
# Poissons Ratio (x) = 0.18005 0.42733
# Poissons Ratio (y) = 0.18005 0.42733
# Poissons Ratio (z) = 0.55914 0.55914
#
# Static dielectric constant tensor:
#      x y z
#    x 2.793400 0.000000 0.000000 
#    y 0.000000 2.793400 0.000000 
#    z 0.000000 0.000000 3.197590 
# 
# 
# High freq. dielectric constant tensor:
#      x y z
#    x 1.568500 0.000000 0.000000 
#    y 0.000000 1.568500 0.000000 
#    z 0.000000 0.000000 1.596640 
# 
# From -- ./inp_files/2979.got.cif
#   From: 2010.03.12/outbox.cif.g09.slc.cpg/sg187_2_cif.got.tgz:2979.got - 2010.04.01 11:58:23.
