data_PCOD8327481
_publ_section_title
;
Structure prediction by ZEFSAII (Michael W. Deem and Ramdas Pophale) SiO2 
 PCOD8327481
Probable space group: P -6 2 M
;
_chemical_formula_sum "Si O2"
_cell_formula_units_Z 70
_cell_length_a 15.120837
_cell_length_b 15.120837
_cell_length_c 17.426208
_cell_angle_alpha 90.000000
_cell_angle_beta 90.000000
_cell_angle_gamma 120.000000
_cell_volume 3450.525083
_symmetry_space_group_name_H-M "P -6 2 M"
_symmetry_group_IT_number 189
_symmetry_cell_setting 'hexagonal'
loop_
_space_group_symop_operation_xyz
x,y,z
-x+y,-x,-z
-y,x-y,z
x,y,-z
-x+y,-x,z
-y,x-y,-z
x-y,-y,-z
-x,-x+y,-z
y,x,-z
y,x,z
x-y,-y,z
-x,-x+y,z
loop_
_atom_site_type_symbol
_atom_site_label
_atom_site_fract_x
_atom_site_fract_y
_atom_site_fract_z
Si Si1 0.333335 0.666668 0.910114
Si Si2 0.239326 0.121370 0.692490
Si Si3 0.884114 0.199738 0.150004
Si Si4 0.505318 0.113458 0.089770
Si Si5 0.431364 0.233148 0.591406
Si Si6 0.427052 0.886955 0.591086
Si Si7 0.112859 0.881492 0.000000
O O1 0.400272 0.787065 0.884618
O O2 0.333334 0.666668 0.000000
O O3 0.151940 0.151940 0.690904
O O4 0.306254 0.164346 0.770439
O O5 0.316744 0.175595 0.622589
O O6 0.186943 0.000000 0.682769
O O7 0.878630 0.302064 0.142946
O O8 0.828779 0.128031 0.076030
O O9 0.000000 0.223147 0.150961
O O10 0.493111 0.000000 0.104028
O O11 0.482629 0.121483 0.000000
O O12 0.422550 0.228208 0.500000
O O13 0.496246 0.182672 0.622946
O O14 0.493808 0.348276 0.623107
O O15 0.426391 0.880110 0.500000
O O16 0.462875 0.000000 0.620528
O O17 0.000000 0.865889 0.000000
O O18 0.197092 0.000000 0.000000
#
# Coordination Sequence:
#
# PCOD8327481 Si02
#       7
#     4  12  12  12  12  12   6
#     4   9  18  30  54  87 117 150 190 224 280 351
#     4  11  23  38  55  79 115 157 199 238 281 336
#     4   9  18  33  53  74 101 142 188 236 290 335
#     4   9  16  32  55  77 107 146 187 234 284 340
#     4  10  20  36  59  85 112 143 181 227 283 346
#     4   9  17  31  53  80 107 136 174 221 270 320
#     4  10  17  28  48  74 100 130 175 234 294 344
#
# _framework density 20.286767000000001
#
# number of rings (size 3 to 8) (size 9 to 14) (size 15 to 20)
#    0.000    2.400    0.857    2.143    0.000    3.429 
#    0.000    5.143    0.000    3.086    0.000    0.000 
#    0.000    0.000    0.000    0.514    0.000    0.000 
#
# Total GULP energy -867445.485491 kJ/mol
# GULP energy per Si atom -12392.078364 kJ/mol
# Density = 2.024059 g / cm^3
# Si number density = 20.286767 Si / 1000 Ang^3
#
#
#
# Elastic Constant Matrix: (Units=GPa)
#
#
# Indices 1 2 3 4 5 6 
#
# 1 91.7812 22.4885 15.0087 0.0000 0.0000 0.0002
# 2 22.4885 91.7825 15.0091 0.0000 0.0000 -0.0001
# 3 15.0087 15.0091 51.5309 0.0000 0.0000 0.0001
# 4 0.0000 0.0000 0.0000 16.5550 0.0001 0.0000
# 5 0.0000 0.0000 0.0000 0.0001 16.5548 0.0000
# 6 0.0002 -0.0001 0.0001 0.0000 0.0000 34.6462
#
#
#
# Elastic Compliance Matrix: (Units=1/GPa)
#
#
# Indices 1 2 3 4 5 6 
#
# 1 0.011954 -0.002478 -0.002760 0.000000 0.000000 0.000000
# 2 -0.002478 0.011954 -0.002760 0.000000 0.000000 0.000000
# 3 -0.002760 -0.002760 0.021014 0.000000 0.000000 0.000000
# 4 0.000000 0.000000 0.000000 0.060405 0.000000 0.000000
# 5 0.000000 0.000000 0.000000 0.000000 0.060406 0.000000
# 6 0.000000 0.000000 0.000000 0.000000 0.000000 0.028863
#
#
# Mechanical properties :
#
#
# Convention : Reuss Voigt Hill
#
# Bulk Modulus (GPa) = 34.57113 37.78970 36.18042
# Shear Modulus (GPa) = 22.70332 25.72373 24.21352
#
# Velocity S-wave (km/s) = 3.34895 3.56477 3.45855
# Velocity P-wave (km/s) = 5.65970 5.96755 5.81566
#
# Compressibility (1/GPa) = 0.02892587
#
# Stress axis : x y z
#
# Youngs Moduli (GPa) = 83.65486 83.65584 47.58815
#
# Poissons Ratio (x) = 0.20727 0.13134
# Poissons Ratio (y) = 0.20726 0.13135
# Poissons Ratio (z) = 0.23089 0.23090
#
# Static dielectric constant tensor:
#      x y z
#    x 3.730330 0.000000 0.000000 
#    y 0.000000 3.730320 0.000000 
#    z 0.000000 0.000000 3.526070 
# 
# 
# High freq. dielectric constant tensor:
#      x y z
#    x 1.786110 0.000000 0.000000 
#    y 0.000000 1.786110 0.000000 
#    z 0.000000 0.000000 1.763850 
# 
# From -- ./inp_files/3134.got.cif
#   From: 2010.03.12/outbox.cif.g09.slc.cpg/sg189_2_cif.got.tgz:3134.got - 2010.04.01 12:03:36.
