data_PCOD8327109
_publ_section_title
;
Structure prediction by ZEFSAII (Michael W. Deem and Ramdas Pophale) SiO2 
 PCOD8327109
Probable space group: P -6 M 2
;
_chemical_formula_sum "Si O2"
_cell_formula_units_Z 60
_cell_length_a 17.437388
_cell_length_b 17.437388
_cell_length_c 14.076603
_cell_angle_alpha 90.000000
_cell_angle_beta 90.000000
_cell_angle_gamma 120.000000
_cell_volume 3706.733444
_symmetry_space_group_name_H-M "P -6 M 2"
_symmetry_group_IT_number 187
_symmetry_cell_setting 'hexagonal'
loop_
_space_group_symop_operation_xyz
x,y,z
-x+y,-x,-z
-y,x-y,z
x,y,-z
-x+y,-x,z
-y,x-y,-z
-y,-x,-z
-x+y,y,-z
x,x-y,-z
-x+y,y,z
x,x-y,z
-y,-x,z
loop_
_atom_site_type_symbol
_atom_site_label
_atom_site_fract_x
_atom_site_fract_y
_atom_site_fract_z
Si Si1 0.929346 0.242600 0.781324
Si Si2 0.511942 0.666305 0.277419
Si Si3 0.268357 0.360577 0.107267
Si Si4 0.493129 0.332980 0.699578
Si Si5 0.652003 0.002400 0.392792
O O1 0.862800 0.137201 0.788596
O O2 0.874536 0.295879 0.785911
O O3 0.998766 0.273963 0.867255
O O4 0.981400 0.267613 0.679073
O O5 0.513027 0.756514 0.300238
O O6 0.411581 0.588420 0.271129
O O7 0.558524 0.670445 0.176886
O O8 0.562212 0.647649 0.362035
O O9 0.166220 0.332440 0.118632
O O10 0.301868 0.390767 0.000000
O O11 0.512200 0.256100 0.663678
O O12 0.583435 0.416566 0.735874
O O13 0.449632 0.361309 0.614043
O O14 0.676426 0.991138 0.500000
#
# Coordination Sequence:
#
# PCOD8327109 Si02
#       5
#    12  12  12  12  12
#     4   8  17  30  47  70  95 124 159 194 231 278
#     4  10  20  33  48  67  93 125 163 204 246 289
#     4   9  18  32  50  72  96 123 156 196 242 292
#     4   9  17  28  43  64  92 123 156 190 227 268
#     4   9  18  31  46  65  94 126 159 198 237 278
#
# _framework density 16.186758999999999
#
# number of rings (size 3 to 8) (size 9 to 14) (size 15 to 20)
#    1.200    1.800    0.000    1.000    0.000    4.400 
#    0.000    0.000    0.000    4.000    0.000    0.000 
#    0.000    1.600    0.000    0.600    0.000    0.800 
#
# Total GULP energy -743309.690037 kJ/mol
# GULP energy per Si atom -12388.494834 kJ/mol
# Density = 1.614992 g / cm^3
# Si number density = 16.186759 Si / 1000 Ang^3
#
#
#
# Elastic Constant Matrix: (Units=GPa)
#
#
# Indices 1 2 3 4 5 6 
#
# 1 73.3543 42.5358 25.0982 0.0000 0.0001 0.0000
# 2 42.5358 73.3543 25.0982 0.0000 -0.0001 0.0000
# 3 25.0982 25.0982 63.6884 0.0000 0.0000 0.0000
# 4 0.0000 0.0000 0.0000 12.9108 0.0000 -0.0001
# 5 0.0001 -0.0001 0.0000 0.0000 12.9108 0.0000
# 6 0.0000 0.0000 0.0000 -0.0001 0.0000 15.4092
#
#
#
# Elastic Compliance Matrix: (Units=1/GPa)
#
#
# Indices 1 2 3 4 5 6 
#
# 1 0.021426 -0.011022 -0.004100 0.000000 0.000000 0.000000
# 2 -0.011022 0.021426 -0.004100 0.000000 0.000000 0.000000
# 3 -0.004100 -0.004100 0.018933 0.000000 0.000000 0.000000
# 4 0.000000 0.000000 0.000000 0.077454 0.000000 0.000000
# 5 0.000000 0.000000 0.000000 0.000000 0.077454 0.000000
# 6 0.000000 0.000000 0.000000 0.000000 0.000000 0.064896
#
#
# Mechanical properties :
#
#
# Convention : Reuss Voigt Hill
#
# Bulk Modulus (GPa) = 42.84200 43.98457 43.41328
# Shear Modulus (GPa) = 15.25246 16.09050 15.67148
#
# Velocity S-wave (km/s) = 3.07299 3.15628 3.11491
# Velocity P-wave (km/s) = 6.25426 6.36514 6.30994
#
# Compressibility (1/GPa) = 0.02334158
#
# Stress axis : x y z
#
# Youngs Moduli (GPa) = 46.67124 46.67124 52.81742
#
# Poissons Ratio (x) = 0.51439 0.21657
# Poissons Ratio (y) = 0.51439 0.21657
# Poissons Ratio (z) = 0.19137 0.19137
#
# Static dielectric constant tensor:
#      x y z
#    x 2.972590 0.000000 0.000000 
#    y 0.000000 2.972590 0.000000 
#    z 0.000000 0.000000 2.839500 
# 
# 
# High freq. dielectric constant tensor:
#      x y z
#    x 1.612580 0.000000 0.000000 
#    y 0.000000 1.612580 0.000000 
#    z 0.000000 0.000000 1.597390 
# 
# From -- ./inp_files/2398.got.cif
#   From: 2010.03.12/outbox.cif.g09.slc.cpg/sg187_2_cif.got.tgz:2398.got - 2010.04.01 11:58:23.
