data_PCOD8327277
_publ_section_title
;
Structure prediction by ZEFSAII (Michael W. Deem and Ramdas Pophale) SiO2 
 PCOD8327277
Probable space group: P -6 M 2
;
_chemical_formula_sum "Si O2"
_cell_formula_units_Z 60
_cell_length_a 21.558652
_cell_length_b 21.558652
_cell_length_c 9.236011
_cell_angle_alpha 90.000000
_cell_angle_beta 90.000000
_cell_angle_gamma 120.000000
_cell_volume 3717.562491
_symmetry_space_group_name_H-M "P -6 M 2"
_symmetry_group_IT_number 187
_symmetry_cell_setting 'hexagonal'
loop_
_space_group_symop_operation_xyz
x,y,z
-x+y,-x,-z
-y,x-y,z
x,y,-z
-x+y,-x,z
-y,x-y,-z
-y,-x,-z
-x+y,y,-z
x,x-y,-z
-x+y,y,z
x,x-y,z
-y,-x,z
loop_
_atom_site_type_symbol
_atom_site_label
_atom_site_fract_x
_atom_site_fract_y
_atom_site_fract_z
Si Si1 0.377237 0.997717 0.329109
Si Si2 0.216758 0.921331 0.327790
Si Si3 0.700189 0.538856 0.666550
Si Si4 0.497766 0.502235 0.836987
Si Si5 0.863280 0.001010 0.327987
Si Si6 0.582724 0.417277 0.162066
O O1 0.383959 0.989652 0.500000
O O2 0.296449 0.947302 0.271225
O O3 0.423606 0.968851 0.247723
O O4 0.402403 0.080339 0.288395
O O5 0.216977 0.923618 0.500000
O O6 0.159646 0.840355 0.275020
O O7 0.192910 0.976980 0.268064
O O8 0.679821 0.517713 0.500000
O O9 0.785317 0.570634 0.693073
O O10 0.657600 0.465656 0.757024
O O11 0.540182 0.459819 0.838614
O O12 0.482183 0.517818 0.000000
O O13 0.862685 0.005467 0.500000
O O14 0.885077 0.942539 0.280829
O O15 0.921769 0.078232 0.263036
O O16 0.598434 0.401567 0.000000
#
# Coordination Sequence:
#
# PCOD8327277 Si02
#       6
#    12  12  12   6  12   6
#     4   9  16  27  44  63  84 110 139 170 205 249
#     4   8  14  23  35  55  83 112 141 174 210 245
#     4   9  17  28  41  58  80 107 140 177 215 251
#     4   9  17  29  45  63  81 101 129 167 207 245
#     4   8  12  17  26  43  72 112 153 186 214 244
#     4   9  17  29  43  57  75 101 133 171 213 253
#
# _framework density 16.139607999999999
#
# number of rings (size 3 to 8) (size 9 to 14) (size 15 to 20)
#    0.000    3.400    0.000    2.000    0.000    4.400 
#    0.600    4.000    0.000    0.600    0.000    0.000 
#    1.000    0.000    1.800    0.600    0.600    5.400 
#
# Total GULP energy -743493.797720 kJ/mol
# GULP energy per Si atom -12391.563295 kJ/mol
# Density = 1.610287 g / cm^3
# Si number density = 16.139608 Si / 1000 Ang^3
#
#
#
# Elastic Constant Matrix: (Units=GPa)
#
#
# Indices 1 2 3 4 5 6 
#
# 1 108.6956 71.2500 29.0533 0.0000 0.0000 0.0000
# 2 71.2500 108.6956 29.0533 0.0000 0.0000 0.0000
# 3 29.0533 29.0533 39.7865 0.0000 0.0000 0.0000
# 4 0.0000 0.0000 0.0000 6.1086 0.0000 0.0000
# 5 0.0000 0.0000 0.0000 0.0000 6.1086 0.0000
# 6 0.0000 0.0000 0.0000 0.0000 0.0000 18.7228
#
#
#
# Elastic Compliance Matrix: (Units=1/GPa)
#
#
# Indices 1 2 3 4 5 6 
#
# 1 0.016989 -0.009717 -0.005310 0.000000 0.000000 0.000000
# 2 -0.009717 0.016989 -0.005310 0.000000 0.000000 0.000000
# 3 -0.005310 -0.005310 0.032889 0.000000 0.000000 0.000000
# 4 0.000000 0.000000 0.000000 0.163703 0.000000 0.000000
# 5 0.000000 0.000000 0.000000 0.000000 0.163703 0.000000
# 6 0.000000 0.000000 0.000000 0.000000 0.000000 0.053411
#
#
# Mechanical properties :
#
#
# Convention : Reuss Voigt Hill
#
# Bulk Modulus (GPa) = 38.17872 57.32119 47.74996
# Shear Modulus (GPa) = 10.05857 14.70944 12.38400
#
# Velocity S-wave (km/s) = 2.49915 3.02219 2.77303
# Velocity P-wave (km/s) = 5.65989 6.91167 6.31686
#
# Compressibility (1/GPa) = 0.02619260
#
# Stress axis : x y z
#
# Youngs Moduli (GPa) = 58.86282 58.86282 30.40489
#
# Poissons Ratio (x) = 0.57195 0.16146
# Poissons Ratio (y) = 0.57195 0.16146
# Poissons Ratio (z) = 0.31257 0.31257
#
# Static dielectric constant tensor:
#      x y z
#    x 3.107490 0.000000 0.000000 
#    y 0.000000 3.107490 0.000000 
#    z 0.000000 0.000000 2.750550 
# 
# 
# High freq. dielectric constant tensor:
#      x y z
#    x 1.604810 0.000000 0.000000 
#    y 0.000000 1.604810 0.000000 
#    z 0.000000 0.000000 1.578130 
# 
# From -- ./inp_files/703.got.cif
#   From: 2010.03.12/outbox.cif.g09.slc.cpg/sg187_1_cif.got.tgz:703.got - 2010.04.01 11:58:23.
