data_PCOD8327152
_publ_section_title
;
Structure prediction by ZEFSAII (Michael W. Deem and Ramdas Pophale) SiO2 
 PCOD8327152
Probable space group: P -6 M 2
;
_chemical_formula_sum "Si O2"
_cell_formula_units_Z 72
_cell_length_a 23.109523
_cell_length_b 23.109523
_cell_length_c 9.161575
_cell_angle_alpha 90.000000
_cell_angle_beta 90.000000
_cell_angle_gamma 120.000000
_cell_volume 4237.236802
_symmetry_space_group_name_H-M "P -6 M 2"
_symmetry_group_IT_number 187
_symmetry_cell_setting 'hexagonal'
loop_
_space_group_symop_operation_xyz
x,y,z
-x+y,-x,-z
-y,x-y,z
x,y,-z
-x+y,-x,z
-y,x-y,-z
-y,-x,-z
-x+y,y,-z
x,x-y,-z
-x+y,y,z
x,x-y,z
-y,-x,z
loop_
_atom_site_type_symbol
_atom_site_label
_atom_site_fract_x
_atom_site_fract_y
_atom_site_fract_z
Si Si1 0.071067 0.471712 0.328054
Si Si2 0.993572 0.743352 0.673234
Si Si3 0.380712 0.124793 0.169027
Si Si4 0.134309 0.000015 0.167136
Si Si5 0.126188 0.745026 0.326937
Si Si6 0.596527 0.531133 0.832547
O O1 0.061119 0.464556 0.500000
O O2 0.097194 0.548597 0.278527
O O3 0.122377 0.446936 0.278464
O O4 0.999315 0.421809 0.262032
O O5 0.989310 0.739410 0.500000
O O6 0.929450 0.679266 0.735897
O O7 0.993265 0.808774 0.725284
O O8 0.061044 0.746250 0.731017
O O9 0.396876 0.198438 0.215598
O O10 0.447874 0.121031 0.199549
O O11 0.359398 0.110594 0.000000
O O12 0.120972 0.060486 0.195711
O O13 0.156175 0.999904 0.000000
O O14 0.067183 0.932818 0.206474
O O15 0.129172 0.751502 0.500000
O O16 0.193077 0.806924 0.258164
O O17 0.547292 0.452709 0.793943
O O18 0.587321 0.544951 0.000000
#
# Coordination Sequence:
#
# PCOD8327152 Si02
#       6
#    12  12  12  12  12  12
#     4   9  16  28  48  71  93 120 156 194 231 275
#     4  11  21  33  49  71  97 127 162 202 248 293
#     4  10  20  33  49  70  99 132 162 195 239 291
#     4  10  21  37  54  69  88 120 162 205 249 298
#     4   9  17  29  45  67  97 128 155 189 236 284
#     4   9  17  30  49  71  95 122 153 193 237 278
#
# _framework density 16.992204999999998
#
# number of rings (size 3 to 8) (size 9 to 14) (size 15 to 20)
#    0.000    2.333    1.667    1.667    0.000    4.333 
#    0.000    0.000    0.000    3.167    0.000    4.667 
#    0.000    0.000    0.000    3.833    0.000    4.833 
#
# Total GULP energy -892552.011140 kJ/mol
# GULP energy per Si atom -12396.555710 kJ/mol
# Density = 1.695353 g / cm^3
# Si number density = 16.992205 Si / 1000 Ang^3
#
#
#
# Elastic Constant Matrix: (Units=GPa)
#
#
# Indices 1 2 3 4 5 6 
#
# 1 129.2518 74.8519 31.9817 0.0000 -0.0003 0.0000
# 2 74.8519 129.2518 31.9817 0.0000 0.0003 0.0000
# 3 31.9817 31.9817 33.9128 0.0000 0.0000 0.0000
# 4 0.0000 0.0000 0.0000 16.7592 0.0000 0.0003
# 5 -0.0003 0.0003 0.0000 0.0000 16.7592 0.0000
# 6 0.0000 0.0000 0.0000 0.0003 0.0000 27.1999
#
#
#
# Elastic Compliance Matrix: (Units=1/GPa)
#
#
# Indices 1 2 3 4 5 6 
#
# 1 0.012669 -0.005714 -0.006559 0.000000 0.000000 0.000000
# 2 -0.005714 0.012669 -0.006559 0.000000 0.000000 0.000000
# 3 -0.006559 -0.006559 0.041858 0.000000 0.000000 0.000000
# 4 0.000000 0.000000 0.000000 0.059669 0.000000 -0.000001
# 5 0.000000 0.000000 0.000000 0.000000 0.059669 0.000000
# 6 0.000000 0.000000 0.000000 -0.000001 0.000000 0.036765
#
#
# Mechanical properties :
#
#
# Convention : Reuss Voigt Hill
#
# Bulk Modulus (GPa) = 33.86102 63.33854 48.59978
# Shear Modulus (GPa) = 18.46346 22.38373 20.42359
#
# Velocity S-wave (km/s) = 3.29991 3.63339 3.47066
# Velocity P-wave (km/s) = 5.87281 7.41337 6.68760
#
# Compressibility (1/GPa) = 0.02953248
#
# Stress axis : x y z
#
# Youngs Moduli (GPa) = 78.93489 78.93489 23.89018
#
# Poissons Ratio (x) = 0.45101 0.15669
# Poissons Ratio (y) = 0.45101 0.15669
# Poissons Ratio (z) = 0.51773 0.51773
#
# Static dielectric constant tensor:
#      x y z
#    x 3.432120 0.000000 0.000000 
#    y 0.000000 3.432120 0.000000 
#    z 0.000000 0.000000 3.057470 
# 
# 
# High freq. dielectric constant tensor:
#      x y z
#    x 1.653320 0.000000 0.000000 
#    y 0.000000 1.653320 0.000000 
#    z 0.000000 0.000000 1.640140 
# 
# From -- ./inp_files/947.got.cif
#   From: 2010.03.12/outbox.cif.g09.slc.cpg/sg187_1_cif.got.tgz:947.got - 2010.04.01 11:58:23.
