data_PCOD8327148
_publ_section_title
;
Structure prediction by ZEFSAII (Michael W. Deem and Ramdas Pophale) SiO2 
 PCOD8327148
Probable space group: P -6 M 2
;
_chemical_formula_sum "Si O2"
_cell_formula_units_Z 66
_cell_length_a 12.488898
_cell_length_b 12.488898
_cell_length_c 28.014268
_cell_angle_alpha 90.000000
_cell_angle_beta 90.000000
_cell_angle_gamma 120.000000
_cell_volume 3784.061168
_symmetry_space_group_name_H-M "P -6 M 2"
_symmetry_group_IT_number 187
_symmetry_cell_setting 'hexagonal'
loop_
_space_group_symop_operation_xyz
x,y,z
-x+y,-x,-z
-y,x-y,z
x,y,-z
-x+y,-x,z
-y,x-y,-z
-y,-x,-z
-x+y,y,-z
x,x-y,-z
-x+y,y,z
x,x-y,z
-y,-x,z
loop_
_atom_site_type_symbol
_atom_site_label
_atom_site_fract_x
_atom_site_fract_y
_atom_site_fract_z
Si Si1 0.918039 0.334607 0.000000
Si Si2 0.245917 0.245764 0.445884
Si Si3 0.914889 0.333881 0.639808
Si Si4 0.001556 0.751015 0.180980
Si Si5 0.082229 0.666691 0.090588
Si Si6 0.083826 0.666491 0.729126
O O1 0.995929 0.342289 0.046381
O O2 0.795016 0.204985 0.000000
O O3 0.882522 0.441261 0.000000
O O4 0.288822 0.290858 0.500000
O O5 0.130320 0.260639 0.431256
O O6 0.359968 0.330254 0.411581
O O7 0.204333 0.102167 0.440071
O O8 0.877214 0.438607 0.638351
O O9 0.794390 0.205611 0.652789
O O10 0.018336 0.361256 0.679048
O O11 0.105507 0.894494 0.178365
O O12 0.016996 0.674611 0.138427
O O13 0.008461 0.691028 0.230456
O O14 0.869498 0.738996 0.176500
O O15 0.104404 0.552202 0.095014
O O16 0.213495 0.786506 0.082241
O O17 0.084174 0.542087 0.742057
O O18 0.224266 0.775735 0.726097
#
# Coordination Sequence:
#
# PCOD8327148 Si02
#       6
#     6  12  12  12  12  12
#     4  10  20  34  52  74 102 136 172 210 252 300
#     4   9  17  30  49  72  96 122 155 198 247 295
#     4  10  20  33  49  70  98 132 167 202 241 288
#     4  10  20  34  52  74 101 132 165 202 245 294
#     4  10  20  34  54  78 104 134 168 209 253 297
#     4  10  20  34  53  75  99 128 163 205 250 295
#
# _framework density 17.441579999999998
#
# number of rings (size 3 to 8) (size 9 to 14) (size 15 to 20)
#    0.000    2.182    0.000    3.455    0.000    1.091 
#    0.000    2.727    0.000   14.909    0.000    0.000 
#    0.000    0.000    0.000    0.000    0.000    0.000 
#
# Total GULP energy -818627.353508 kJ/mol
# GULP energy per Si atom -12403.444750 kJ/mol
# Density = 1.740188 g / cm^3
# Si number density = 17.441580 Si / 1000 Ang^3
#
#
#
# Elastic Constant Matrix: (Units=GPa)
#
#
# Indices 1 2 3 4 5 6 
#
# 1 92.6158 48.8316 43.3504 0.0000 0.0001 0.0000
# 2 48.8316 92.6158 43.3504 0.0000 -0.0001 0.0000
# 3 43.3504 43.3504 101.4741 0.0000 0.0000 0.0000
# 4 0.0000 0.0000 0.0000 25.5013 0.0000 -0.0001
# 5 0.0001 -0.0001 0.0000 0.0000 25.5013 0.0000
# 6 0.0000 0.0000 0.0000 -0.0001 0.0000 21.8921
#
#
#
# Elastic Compliance Matrix: (Units=1/GPa)
#
#
# Indices 1 2 3 4 5 6 
#
# 1 0.016209 -0.006631 -0.004092 0.000000 0.000000 0.000000
# 2 -0.006631 0.016209 -0.004092 0.000000 0.000000 0.000000
# 3 -0.004092 -0.004092 0.013351 0.000000 0.000000 0.000000
# 4 0.000000 0.000000 0.000000 0.039214 0.000000 0.000000
# 5 0.000000 0.000000 0.000000 0.000000 0.039214 0.000000
# 6 0.000000 0.000000 0.000000 0.000000 0.000000 0.045679
#
#
# Mechanical properties :
#
#
# Convention : Reuss Voigt Hill
#
# Bulk Modulus (GPa) = 61.95966 61.97448 61.96707
# Shear Modulus (GPa) = 24.40427 24.65713 24.53070
#
# Velocity S-wave (km/s) = 3.74465 3.76400 3.75433
# Velocity P-wave (km/s) = 7.36870 7.38241 7.37556
#
# Compressibility (1/GPa) = 0.01613953
#
# Stress axis : x y z
#
# Youngs Moduli (GPa) = 61.69581 61.69581 74.90230
#
# Poissons Ratio (x) = 0.40909 0.30648
# Poissons Ratio (y) = 0.40909 0.30648
# Poissons Ratio (z) = 0.25244 0.25244
#
# Static dielectric constant tensor:
#      x y z
#    x 3.192650 0.000000 0.000000 
#    y 0.000000 3.192650 0.000000 
#    z 0.000000 0.000000 3.426670 
# 
# 
# High freq. dielectric constant tensor:
#      x y z
#    x 1.676080 0.000000 0.000000 
#    y 0.000000 1.676080 0.000000 
#    z 0.000000 0.000000 1.689220 
# 
# From -- ./inp_files/4413.got.cif
#   From: 2010.03.12/outbox.cif.g09.slc.cpg/sg187_3_cif.got.tgz:4413.got - 2010.04.01 11:58:23.
