data_PCOD8327151
_publ_section_title
;
Structure prediction by ZEFSAII (Michael W. Deem and Ramdas Pophale) SiO2 
 PCOD8327151
Probable space group: P -6 M 2
;
_chemical_formula_sum "Si O2"
_cell_formula_units_Z 72
_cell_length_a 12.604872
_cell_length_b 12.604872
_cell_length_c 30.430616
_cell_angle_alpha 90.000000
_cell_angle_beta 90.000000
_cell_angle_gamma 120.000000
_cell_volume 4187.147454
_symmetry_space_group_name_H-M "P -6 M 2"
_symmetry_group_IT_number 187
_symmetry_cell_setting 'hexagonal'
loop_
_space_group_symop_operation_xyz
x,y,z
-x+y,-x,-z
-y,x-y,z
x,y,-z
-x+y,-x,z
-y,x-y,-z
-y,-x,-z
-x+y,y,-z
x,x-y,-z
-x+y,y,z
x,x-y,z
-y,-x,z
loop_
_atom_site_type_symbol
_atom_site_label
_atom_site_fract_x
_atom_site_fract_y
_atom_site_fract_z
Si Si1 0.999890 0.244142 0.341139
Si Si2 0.248260 0.001634 0.500000
Si Si3 0.333614 0.418750 0.918009
Si Si4 0.756816 0.756582 0.241080
Si Si5 0.666290 0.086683 0.163519
Si Si6 0.001777 0.753125 0.000000
Si Si7 0.419229 0.086880 0.581462
O O1 0.128466 0.256931 0.354407
O O2 0.001056 0.285899 0.291040
O O3 0.973161 0.331025 0.371996
O O4 0.897020 0.102981 0.348294
O O5 0.128991 0.871009 0.500000
O O6 0.208754 0.104377 0.500000
O O7 0.325603 0.011896 0.542954
O O8 0.221458 0.442916 0.913129
O O9 0.453359 0.546642 0.928492
O O10 0.345863 0.359026 0.873406
O O11 0.314371 0.327150 0.957326
O O12 0.740790 0.870395 0.227480
O O13 0.672437 0.642187 0.210175
O O14 0.899217 0.798434 0.235195
O O15 0.560376 0.120752 0.166151
O O16 0.791655 0.208346 0.151799
O O17 0.104468 0.895533 0.000000
O O18 0.870539 0.741077 0.000000
O O19 0.538092 0.076184 0.574941
O O20 0.457997 0.228999 0.579688
#
# Coordination Sequence:
#
# PCOD8327151 Si02
#       7
#    12   6  12  12  12   6  12
#     4   9  17  30  50  74  98 124 156 199 248 293
#     4  10  20  34  54  78 100 122 152 196 246 290
#     4  10  20  34  53  75  99 128 163 204 246 288
#     4   9  17  30  49  73  98 124 157 199 248 296
#     4  10  20  33  49  70  98 132 167 202 242 290
#     4  10  20  34  52  74 100 128 158 194 238 288
#     4  10  20  33  50  72  99 131 164 197 234 280
#
# _framework density 17.195477
#
# number of rings (size 3 to 8) (size 9 to 14) (size 15 to 20)
#    0.000    2.333    0.000    3.000    0.000    2.000 
#    0.000    3.333    0.000   14.667    0.000    0.000 
#    0.000    0.000    0.000    0.000    0.000    0.000 
#
# Total GULP energy -892996.989330 kJ/mol
# GULP energy per Si atom -12402.735963 kJ/mol
# Density = 1.715634 g / cm^3
# Si number density = 17.195477 Si / 1000 Ang^3
#
#
#
# Elastic Constant Matrix: (Units=GPa)
#
#
# Indices 1 2 3 4 5 6 
#
# 1 113.6062 70.2013 60.6353 0.0000 0.0004 0.0000
# 2 70.2013 113.6062 60.6353 0.0000 -0.0004 0.0000
# 3 60.6353 60.6353 109.5820 0.0000 0.0000 0.0000
# 4 0.0000 0.0000 0.0000 21.6067 0.0000 -0.0004
# 5 0.0004 -0.0004 0.0000 0.0000 21.6067 0.0000
# 6 0.0000 0.0000 0.0000 -0.0004 0.0000 21.7024
#
#
#
# Elastic Compliance Matrix: (Units=1/GPa)
#
#
# Indices 1 2 3 4 5 6 
#
# 1 0.015804 -0.007235 -0.004741 0.000000 0.000000 0.000000
# 2 -0.007235 0.015804 -0.004741 0.000000 0.000000 0.000000
# 3 -0.004741 -0.004741 0.014373 0.000000 0.000000 0.000000
# 4 0.000000 0.000000 0.000000 0.046282 0.000000 0.000001
# 5 0.000000 0.000000 0.000000 0.000000 0.046282 0.000000
# 6 0.000000 0.000000 0.000000 0.000001 0.000000 0.046078
#
#
# Mechanical properties :
#
#
# Convention : Reuss Voigt Hill
#
# Bulk Modulus (GPa) = 79.71509 79.97092 79.84300
# Shear Modulus (GPa) = 22.49832 22.67134 22.58483
#
# Velocity S-wave (km/s) = 3.62109 3.63498 3.62804
# Velocity P-wave (km/s) = 7.99636 8.01407 8.00522
#
# Compressibility (1/GPa) = 0.01254468
#
# Stress axis : x y z
#
# Youngs Moduli (GPa) = 63.27601 63.27601 69.57668
#
# Poissons Ratio (x) = 0.45781 0.32988
# Poissons Ratio (y) = 0.45781 0.32988
# Poissons Ratio (z) = 0.30001 0.30001
#
# Static dielectric constant tensor:
#      x y z
#    x 3.100610 0.000000 0.000000 
#    y 0.000000 3.100610 0.000000 
#    z 0.000000 0.000000 3.443200 
# 
# 
# High freq. dielectric constant tensor:
#      x y z
#    x 1.659410 0.000000 0.000000 
#    y 0.000000 1.659410 0.000000 
#    z 0.000000 0.000000 1.679860 
# 
# From -- ./inp_files/4586.got.cif
#   From: 2010.03.12/outbox.cif.g09.slc.cpg/sg187_3_cif.got.tgz:4586.got - 2010.04.01 11:58:23.
