data_PCOD8327135
_publ_section_title
;
Structure prediction by ZEFSAII (Michael W. Deem and Ramdas Pophale) SiO2 
 PCOD8327135
Probable space group: P -6 M 2
;
_chemical_formula_sum "Si O2"
_cell_formula_units_Z 72
_cell_length_a 12.587082
_cell_length_b 12.587082
_cell_length_c 30.488613
_cell_angle_alpha 90.000000
_cell_angle_beta 90.000000
_cell_angle_gamma 120.000000
_cell_volume 4183.294334
_symmetry_space_group_name_H-M "P -6 M 2"
_symmetry_group_IT_number 187
_symmetry_cell_setting 'hexagonal'
loop_
_space_group_symop_operation_xyz
x,y,z
-x+y,-x,-z
-y,x-y,z
x,y,-z
-x+y,-x,z
-y,x-y,-z
-y,-x,-z
-x+y,y,-z
x,x-y,-z
-x+y,y,z
x,x-y,z
-y,-x,z
loop_
_atom_site_type_symbol
_atom_site_label
_atom_site_fract_x
_atom_site_fract_y
_atom_site_fract_z
Si Si1 0.334466 0.914241 0.918681
Si Si2 0.666674 0.577279 0.840950
Si Si3 0.666731 0.577728 0.258774
Si Si4 0.754028 0.001252 0.663744
Si Si5 0.915290 0.334837 0.000000
Si Si6 0.417944 0.084952 0.582003
Si Si7 0.084124 0.419082 0.500000
O O1 0.437395 0.874789 0.921340
O O2 0.204137 0.795864 0.924679
O O3 0.338123 0.975651 0.872053
O O4 0.352071 0.007834 0.957054
O O5 0.796457 0.592914 0.854478
O O6 0.565374 0.434627 0.846954
O O7 0.666945 0.619721 0.791120
O O8 0.768513 0.537026 0.265199
O O9 0.536696 0.463305 0.272075
O O10 0.695741 0.692351 0.289514
O O11 0.738995 0.869498 0.656375
O O12 0.679033 0.025030 0.626532
O O13 0.897279 0.102722 0.661998
O O14 0.795309 0.204692 0.000000
O O15 0.876607 0.438304 0.000000
O O16 0.554010 0.108020 0.586767
O O17 0.427720 0.213860 0.571889
O O18 0.344880 0.994113 0.542598
O O19 0.204276 0.408551 0.500000
O O20 0.122429 0.561215 0.500000
#
# Coordination Sequence:
#
# PCOD8327135 Si02
#       7
#    12  12  12  12   6  12   6
#     4  10  20  33  50  71  97 130 165 199 234 278
#     4   9  17  30  50  75 100 126 158 200 249 294
#     4   9  17  30  50  75 100 126 158 200 249 296
#     4  10  20  33  49  69  96 131 168 204 241 286
#     4  10  20  34  54  78 100 122 152 196 248 294
#     4  10  20  34  54  78 102 128 160 203 252 296
#     4  10  20  34  52  74 102 136 170 200 234 282
#
# _framework density 17.211314999999999
#
# number of rings (size 3 to 8) (size 9 to 14) (size 15 to 20)
#    0.000    2.333    0.000    3.000    0.000    2.000 
#    0.000    5.000    0.000   10.667    0.000    0.000 
#    0.000    0.000    0.000    0.000    0.000    0.000 
#
# Total GULP energy -893016.678167 kJ/mol
# GULP energy per Si atom -12403.009419 kJ/mol
# Density = 1.717214 g / cm^3
# Si number density = 17.211315 Si / 1000 Ang^3
#
#
#
# Elastic Constant Matrix: (Units=GPa)
#
#
# Indices 1 2 3 4 5 6 
#
# 1 113.1632 73.2088 58.9647 0.0000 0.0003 0.0000
# 2 73.2088 113.1632 58.9647 0.0000 -0.0003 0.0000
# 3 58.9647 58.9647 115.8189 0.0000 0.0000 0.0000
# 4 0.0000 0.0000 0.0000 17.3768 0.0000 -0.0003
# 5 0.0003 -0.0003 0.0000 0.0000 17.3768 0.0000
# 6 0.0000 0.0000 0.0000 -0.0003 0.0000 19.9772
#
#
#
# Elastic Compliance Matrix: (Units=1/GPa)
#
#
# Indices 1 2 3 4 5 6 
#
# 1 0.016472 -0.008556 -0.004030 0.000000 0.000000 0.000000
# 2 -0.008556 0.016472 -0.004030 0.000000 0.000000 0.000000
# 3 -0.004030 -0.004030 0.012738 0.000000 0.000000 0.000000
# 4 0.000000 0.000000 0.000000 0.057548 0.000000 0.000001
# 5 0.000000 0.000000 0.000000 0.000000 0.057548 0.000000
# 6 0.000000 0.000000 0.000000 0.000001 0.000000 0.050057
#
#
# Mechanical properties :
#
#
# Convention : Reuss Voigt Hill
#
# Bulk Modulus (GPa) = 80.32749 80.49132 80.40941
# Shear Modulus (GPa) = 20.14367 21.01330 20.57848
#
# Velocity S-wave (km/s) = 3.42478 3.49793 3.46155
# Velocity P-wave (km/s) = 7.90010 7.94871 7.92444
#
# Compressibility (1/GPa) = 0.01244904
#
# Stress axis : x y z
#
# Youngs Moduli (GPa) = 60.70873 60.70873 78.50813
#
# Poissons Ratio (x) = 0.51945 0.31638
# Poissons Ratio (y) = 0.51945 0.31638
# Poissons Ratio (z) = 0.24465 0.24465
#
# Static dielectric constant tensor:
#      x y z
#    x 3.051450 0.000000 0.000000 
#    y 0.000000 3.051450 0.000000 
#    z 0.000000 0.000000 3.489130 
# 
# 
# High freq. dielectric constant tensor:
#      x y z
#    x 1.656310 0.000000 0.000000 
#    y 0.000000 1.656310 0.000000 
#    z 0.000000 0.000000 1.683460 
# 
# From -- ./inp_files/4570.got.cif
#   From: 2010.03.12/outbox.cif.g09.slc.cpg/sg187_3_cif.got.tgz:4570.got - 2010.04.01 11:58:23.
