data_PCOD8327634
_publ_section_title
;
Structure prediction by ZEFSAII (Michael W. Deem and Ramdas Pophale) SiO2 
 PCOD8327634
Probable space group: P -6 2 M
;
_chemical_formula_sum "Si O2"
_cell_formula_units_Z 66
_cell_length_a 20.093173
_cell_length_b 20.093173
_cell_length_c 9.492362
_cell_angle_alpha 90.000000
_cell_angle_beta 90.000000
_cell_angle_gamma 120.000000
_cell_volume 3318.959636
_symmetry_space_group_name_H-M "P -6 2 M"
_symmetry_group_IT_number 189
_symmetry_cell_setting 'hexagonal'
loop_
_space_group_symop_operation_xyz
x,y,z
-x+y,-x,-z
-y,x-y,z
x,y,-z
-x+y,-x,z
-y,x-y,-z
x-y,-y,-z
-x,-x+y,-z
y,x,-z
y,x,z
x-y,-y,z
-x,-x+y,z
loop_
_atom_site_type_symbol
_atom_site_label
_atom_site_fract_x
_atom_site_fract_y
_atom_site_fract_z
Si Si1 0.084817 0.173387 0.500000
Si Si2 0.085731 0.280036 0.740375
Si Si3 0.852157 0.301832 0.342497
Si Si4 0.692041 0.159586 0.335728
Si Si5 0.324172 0.239162 0.847808
Si Si6 0.089656 0.539686 0.834291
O O1 0.148796 0.148796 0.500000
O O2 0.095596 0.224477 0.634463
O O3 0.000000 0.098576 0.500000
O O4 0.103435 0.357708 0.661628
O O5 0.148984 0.297075 0.859239
O O6 0.000000 0.239415 0.805563
O O7 0.863001 0.337069 0.500000
O O8 0.761032 0.246769 0.312111
O O9 0.889695 0.367205 0.224899
O O10 0.670843 0.142260 0.500000
O O11 0.718621 0.101313 0.278915
O O12 0.618138 0.145239 0.247604
O O13 0.251811 0.251811 0.823946
O O14 0.363396 0.274577 0.000000
O O15 0.000000 0.511068 0.805710
O O16 0.107868 0.550344 0.000000
#
# Coordination Sequence:
#
# PCOD8327634 Si02
#       6
#     6  12  12  12  12  12
#     4  10  19  32  52  82 118 158 202 254 308 362
#     4  10  20  34  55  83 115 153 197 245 297 351
#     4  10  21  39  61  86 118 153 196 242 294 353
#     4  10  22  40  62  89 117 152 199 248 298 354
#     4  10  21  36  55  81 115 153 194 246 301 352
#     4  11  24  40  61  91 125 160 199 245 300 362
#
# _framework density 19.885750000000002
#
# number of rings (size 3 to 8) (size 9 to 14) (size 15 to 20)
#    0.000    1.818    0.909    2.818    1.273    8.727 
#    1.091    0.000    0.000    0.364    0.000    0.000 
#    0.000    0.000    0.000    0.000    0.000    0.000 
#
# Total GULP energy -818157.244323 kJ/mol
# GULP energy per Si atom -12396.321884 kJ/mol
# Density = 1.984049 g / cm^3
# Si number density = 19.885750 Si / 1000 Ang^3
#
#
#
# Elastic Constant Matrix: (Units=GPa)
#
#
# Indices 1 2 3 4 5 6 
#
# 1 95.4367 38.5945 41.8706 0.0000 0.0000 0.0000
# 2 38.5945 95.4367 41.8706 0.0000 0.0000 0.0000
# 3 41.8706 41.8706 120.5542 0.0000 0.0000 0.0000
# 4 0.0000 0.0000 0.0000 0.9790 0.0000 0.0000
# 5 0.0000 0.0000 0.0000 0.0000 0.9790 0.0000
# 6 0.0000 0.0000 0.0000 0.0000 0.0000 28.4211
#
#
#
# Elastic Compliance Matrix: (Units=1/GPa)
#
#
# Indices 1 2 3 4 5 6 
#
# 1 0.013561 -0.004032 -0.003309 0.000000 0.000000 0.000000
# 2 -0.004032 0.013561 -0.003309 0.000000 0.000000 0.000000
# 3 -0.003309 -0.003309 0.010594 0.000000 0.000000 0.000000
# 4 0.000000 0.000000 0.000000 1.021459 0.000000 0.000000
# 5 0.000000 0.000000 0.000000 0.000000 1.021458 0.000000
# 6 0.000000 0.000000 0.000000 0.000000 0.000000 0.035185
#
#
# Mechanical properties :
#
#
# Convention : Reuss Voigt Hill
#
# Bulk Modulus (GPa) = 60.92601 61.78875 61.35738
# Shear Modulus (GPa) = 2.33362 18.68194 10.50778
#
# Velocity S-wave (km/s) = 1.08446 3.06839 2.30121
# Velocity P-wave (km/s) = 5.68090 6.61005 6.16301
#
# Compressibility (1/GPa) = 0.01641335
#
# Stress axis : x y z
#
# Youngs Moduli (GPa) = 73.74292 73.74292 94.39395
#
# Poissons Ratio (x) = 0.29733 0.31239
# Poissons Ratio (y) = 0.29733 0.31239
# Poissons Ratio (z) = 0.24405 0.24405
#
# Static dielectric constant tensor:
#      x y z
#    x 3.650890 0.000000 0.000000 
#    y 0.000000 3.650890 0.000000 
#    z 0.000000 0.000000 3.591810 
# 
# 
# High freq. dielectric constant tensor:
#      x y z
#    x 1.774060 0.000000 0.000000 
#    y 0.000000 1.774060 0.000000 
#    z 0.000000 0.000000 1.777600 
# 
# From -- ./inp_files/1028.got.cif
#   From: 2010.03.12/outbox.cif.g09.slc.cpg/sg189_1_cif.got.tgz:1028.got - 2010.04.01 12:03:36.
