data_PCOD8327560
_publ_section_title
;
Structure prediction by ZEFSAII (Michael W. Deem and Ramdas Pophale) SiO2 
 PCOD8327560
Probable space group: P -6 2 M
;
_chemical_formula_sum "Si O2"
_cell_formula_units_Z 72
_cell_length_a 24.216301
_cell_length_b 24.216301
_cell_length_c 8.964231
_cell_angle_alpha 90.000000
_cell_angle_beta 90.000000
_cell_angle_gamma 120.000000
_cell_volume 4552.597791
_symmetry_space_group_name_H-M "P -6 2 M"
_symmetry_group_IT_number 189
_symmetry_cell_setting 'hexagonal'
loop_
_space_group_symop_operation_xyz
x,y,z
-x+y,-x,-z
-y,x-y,z
x,y,-z
-x+y,-x,z
-y,x-y,-z
x-y,-y,-z
-x,-x+y,-z
y,x,-z
y,x,z
x-y,-y,z
-x,-x+y,z
loop_
_atom_site_type_symbol
_atom_site_label
_atom_site_fract_x
_atom_site_fract_y
_atom_site_fract_z
Si Si1 0.256398 0.751880 0.671307
Si Si2 0.625038 0.139353 0.330394
Si Si3 0.810998 0.182721 0.825481
Si Si4 0.304606 0.929612 0.823558
Si Si5 0.367884 0.295925 0.324136
Si Si6 0.849756 0.370268 0.824057
O O1 0.257491 0.773796 0.500000
O O2 0.215596 0.675062 0.679787
O O3 0.221629 0.776548 0.781137
O O4 0.327981 0.782209 0.736482
O O5 0.600969 0.120131 0.500000
O O6 0.658155 0.099257 0.274627
O O7 0.564988 0.121488 0.224570
O O8 0.885454 0.229486 0.779079
O O9 0.775520 0.114352 0.742991
O O10 0.804285 0.169115 0.000000
O O11 0.346860 0.898518 0.770137
O O12 0.332829 0.000000 0.751496
O O13 0.310049 0.935171 0.000000
O O14 0.364173 0.288327 0.500000
O O15 0.325692 0.325692 0.264826
O O16 0.837950 0.363317 0.000000
#
# Coordination Sequence:
#
# PCOD8327560 Si02
#       6
#    12  12  12  12  12  12
#     4   9  17  31  47  58  75 108 143 174 217 274
#     4   9  18  31  45  60  80 109 142 179 223 272
#     4   9  16  27  46  68  87 109 140 179 214 248
#     4   8  15  28  44  63  88 116 142 168 209 264
#     4   9  18  32  48  65  88 120 151 177 215 268
#     4  10  19  29  44  64  84 107 139 184 230 269
#
# _framework density 15.815147
#
# number of rings (size 3 to 8) (size 9 to 14) (size 15 to 20)
#    0.000    3.000    0.000    3.500    0.000    4.333 
#    1.000    0.000    0.000   17.500    0.000    0.000 
#    0.000    0.000    0.000    0.500    0.000    7.667 
#
# Total GULP energy -892037.760130 kJ/mol
# GULP energy per Si atom -12389.413335 kJ/mol
# Density = 1.577915 g / cm^3
# Si number density = 15.815147 Si / 1000 Ang^3
#
#
#
# Elastic Constant Matrix: (Units=GPa)
#
#
# Indices 1 2 3 4 5 6 
#
# 1 89.2911 58.2906 29.9827 0.0000 0.0000 0.0000
# 2 58.2906 89.2911 29.9827 0.0000 0.0000 0.0000
# 3 29.9827 29.9827 38.0517 0.0000 0.0000 0.0000
# 4 0.0000 0.0000 0.0000 18.3280 0.0000 0.0000
# 5 0.0000 0.0000 0.0000 0.0000 18.3280 0.0000
# 6 0.0000 0.0000 0.0000 0.0000 0.0000 15.5003
#
#
#
# Elastic Compliance Matrix: (Units=1/GPa)
#
#
# Indices 1 2 3 4 5 6 
#
# 1 0.021112 -0.011145 -0.007853 0.000000 0.000000 0.000000
# 2 -0.011145 0.021112 -0.007853 0.000000 0.000000 0.000000
# 3 -0.007853 -0.007853 0.038656 0.000000 0.000000 0.000000
# 4 0.000000 0.000000 0.000000 0.054561 0.000000 0.000000
# 5 0.000000 0.000000 0.000000 0.000000 0.054561 0.000000
# 6 0.000000 0.000000 0.000000 0.000000 0.000000 0.064515
#
#
# Mechanical properties :
#
#
# Convention : Reuss Voigt Hill
#
# Bulk Modulus (GPa) = 36.79664 50.34953 43.57308
# Shear Modulus (GPa) = 15.75891 16.98980 16.37436
#
# Velocity S-wave (km/s) = 3.16008 3.28117 3.22119
# Velocity P-wave (km/s) = 6.05244 6.80148 6.43786
#
# Compressibility (1/GPa) = 0.02717639
#
# Stress axis : x y z
#
# Youngs Moduli (GPa) = 47.36601 47.36601 25.86918
#
# Poissons Ratio (x) = 0.52791 0.20316
# Poissons Ratio (y) = 0.52791 0.20316
# Poissons Ratio (z) = 0.37198 0.37198
#
# Static dielectric constant tensor:
#      x y z
#    x 3.153940 0.000000 0.000000 
#    y 0.000000 3.153940 0.000000 
#    z 0.000000 0.000000 2.936320 
# 
# 
# High freq. dielectric constant tensor:
#      x y z
#    x 1.581700 0.000000 0.000000 
#    y 0.000000 1.581700 0.000000 
#    z 0.000000 0.000000 1.603860 
# 
# From -- ./inp_files/1216.got.cif
#   From: 2010.03.12/outbox.cif.g09.slc.cpg/sg189_1_cif.got.tgz:1216.got - 2010.04.01 12:03:36.
