data_PCOD8327538
_publ_section_title
;
Structure prediction by ZEFSAII (Michael W. Deem and Ramdas Pophale) SiO2 
 PCOD8327538
Probable space group: P -6 2 M
;
_chemical_formula_sum "Si O2"
_cell_formula_units_Z 78
_cell_length_a 23.178831
_cell_length_b 23.178831
_cell_length_c 10.206533
_cell_angle_alpha 90.000000
_cell_angle_beta 90.000000
_cell_angle_gamma 120.000000
_cell_volume 4748.888073
_symmetry_space_group_name_H-M "P -6 2 M"
_symmetry_group_IT_number 189
_symmetry_cell_setting 'hexagonal'
loop_
_space_group_symop_operation_xyz
x,y,z
-x+y,-x,-z
-y,x-y,z
x,y,-z
-x+y,-x,z
-y,x-y,-z
x-y,-y,-z
-x,-x+y,-z
y,x,-z
y,x,z
x-y,-y,z
-x,-x+y,z
loop_
_atom_site_type_symbol
_atom_site_label
_atom_site_fract_x
_atom_site_fract_y
_atom_site_fract_z
Si Si1 0.348859 0.144581 0.350042
Si Si2 0.286695 0.706161 0.500000
Si Si3 0.330738 0.465968 0.149503
Si Si4 0.000000 0.403349 0.153585
Si Si5 0.728853 0.075222 0.651531
Si Si6 0.537862 0.131321 0.152491
Si Si7 0.000000 0.297121 0.652496
Si Si8 0.506347 0.733152 0.745023
O O1 0.368715 0.151275 0.500000
O O2 0.318804 0.192846 0.316811
O O3 0.418268 0.167149 0.277265
O O4 0.294241 0.067443 0.316848
O O5 0.368113 0.742264 0.500000
O O6 0.258047 0.727318 0.621422
O O7 0.314418 0.406448 0.249940
O O8 0.399288 0.526419 0.204840
O O9 0.274983 0.488250 0.148407
O O10 0.337280 0.445676 0.000000
O O11 0.063718 0.472589 0.191079
O O12 0.000000 0.349483 0.248228
O O13 0.000000 0.384795 0.000000
O O14 0.712666 0.083785 0.500000
O O15 0.712935 0.000000 0.676863
O O16 0.537831 0.195595 0.209063
O O17 0.545442 0.142605 0.000000
O O18 0.000000 0.317696 0.500000
#
# Coordination Sequence:
#
# PCOD8327538 Si02
#       8
#    12   6  12   6  12  12   6  12
#     4   9  17  30  51  74 100 126 153 198 242 287
#     4  10  22  32  46  69  93 129 170 220 271 304
#     4  10  22  35  52  72  94 129 169 215 259 301
#     4  10  20  34  50  68  94 128 160 197 246 308
#     4   9  19  36  55  75 100 131 165 202 247 298
#     4  10  21  35  50  66  92 127 165 207 256 309
#     4  10  18  32  50  78 102 124 158 195 242 292
#     4  11  18  34  50  67  95 125 168 210 259 310
#
# _framework density 16.424897999999999
#
# number of rings (size 3 to 8) (size 9 to 14) (size 15 to 20)
#    0.154    2.000    2.308    1.385    2.154    0.308 
#    2.308    0.000    0.000    0.000    0.000    0.000 
#    0.769    0.000    2.308    0.000    0.000    0.000 
#
# Total GULP energy -966575.562291 kJ/mol
# GULP energy per Si atom -12391.994388 kJ/mol
# Density = 1.638751 g / cm^3
# Si number density = 16.424898 Si / 1000 Ang^3
#
#
#
# Elastic Constant Matrix: (Units=GPa)
#
#
# Indices 1 2 3 4 5 6 
#
# 1 99.0193 59.8110 32.6912 0.0000 0.0000 0.0000
# 2 59.8110 99.0193 32.6912 0.0000 0.0000 0.0000
# 3 32.6912 32.6912 32.1085 0.0000 0.0000 0.0000
# 4 0.0000 0.0000 0.0000 18.1143 0.0000 0.0000
# 5 0.0000 0.0000 0.0000 0.0000 18.1143 0.0000
# 6 0.0000 0.0000 0.0000 0.0000 0.0000 19.6041
#
#
#
# Elastic Compliance Matrix: (Units=1/GPa)
#
#
# Indices 1 2 3 4 5 6 
#
# 1 0.018172 -0.007333 -0.011035 0.000000 0.000000 0.000000
# 2 -0.007333 0.018172 -0.011035 0.000000 0.000000 0.000000
# 3 -0.011035 -0.011035 0.053616 0.000000 0.000000 0.000000
# 4 0.000000 0.000000 0.000000 0.055205 0.000000 0.000000
# 5 0.000000 0.000000 0.000000 0.000000 0.055205 0.000000
# 6 0.000000 0.000000 0.000000 0.000000 0.000000 0.051010
#
#
# Mechanical properties :
#
#
# Convention : Reuss Voigt Hill
#
# Bulk Modulus (GPa) = 32.10117 53.39265 42.74691
# Shear Modulus (GPa) = 15.59719 18.16347 16.88033
#
# Velocity S-wave (km/s) = 3.08491 3.32904 3.20930
# Velocity P-wave (km/s) = 5.68116 6.88145 6.30991
#
# Compressibility (1/GPa) = 0.03115152
#
# Stress axis : x y z
#
# Youngs Moduli (GPa) = 55.03037 55.03037 18.65125
#
# Poissons Ratio (x) = 0.40354 0.20582
# Poissons Ratio (y) = 0.40354 0.20582
# Poissons Ratio (z) = 0.60728 0.60728
#
# Static dielectric constant tensor:
#      x y z
#    x 3.442740 0.000000 0.000000 
#    y 0.000000 3.442740 0.000000 
#    z 0.000000 0.000000 3.035720 
# 
# 
# High freq. dielectric constant tensor:
#      x y z
#    x 1.620020 0.000000 0.000000 
#    y 0.000000 1.620020 0.000000 
#    z 0.000000 0.000000 1.630110 
# 
# From -- ./inp_files/1454.got.cif
#   From: 2010.03.12/outbox.cif.g09.slc.cpg/sg189_1_cif.got.tgz:1454.got - 2010.04.01 12:03:36.
