data_PCOD8327894
_publ_section_title
;
Structure prediction by ZEFSAII (Michael W. Deem and Ramdas Pophale) SiO2 
 PCOD8327894
Probable space group: P -6 2 M
;
_chemical_formula_sum "Si O2"
_cell_formula_units_Z 60
_cell_length_a 14.173729
_cell_length_b 14.173729
_cell_length_c 16.579463
_cell_angle_alpha 90.000000
_cell_angle_beta 90.000000
_cell_angle_gamma 120.000000
_cell_volume 2884.492016
_symmetry_space_group_name_H-M "P -6 2 M"
_symmetry_group_IT_number 189
_symmetry_cell_setting 'hexagonal'
loop_
_space_group_symop_operation_xyz
x,y,z
-x+y,-x,-z
-y,x-y,z
x,y,-z
-x+y,-x,z
-y,x-y,-z
x-y,-y,-z
-x,-x+y,-z
y,x,-z
y,x,z
x-y,-y,z
-x,-x+y,z
loop_
_atom_site_type_symbol
_atom_site_label
_atom_site_fract_x
_atom_site_fract_y
_atom_site_fract_z
Si Si1 0.748484 0.873710 0.723922
Si Si2 0.126057 0.597416 0.657860
Si Si3 0.818167 0.242551 0.590813
Si Si4 0.806476 0.535970 0.814956
Si Si5 0.407674 0.877075 0.090841
O O1 0.812537 0.812537 0.751421
O O2 0.687835 0.825129 0.639135
O O3 0.663332 0.859452 0.794109
O O4 0.834362 0.000000 0.711138
O O5 0.175236 0.686327 0.586108
O O6 0.138608 0.494552 0.637545
O O7 0.193511 0.661872 0.736743
O O8 0.000000 0.559239 0.672386
O O9 0.864586 0.263833 0.500000
O O10 0.683737 0.488763 0.844796
O O11 0.873204 0.516702 0.885707
O O12 0.432010 0.000000 0.097110
O O13 0.372045 0.832741 0.000000
#
# Coordination Sequence:
#
# PCOD8327894 Si02
#       5
#    12  12  12  12  12
#     4  11  24  41  62  86 114 155 207 260 303 340
#     4  11  23  38  59  86 117 155 197 242 289 347
#     4  11  23  39  59  86 119 155 195 241 301 365
#     4  11  21  39  61  86 120 157 195 233 285 353
#     4  11  23  38  60  92 126 156 187 230 287 352
#
# _framework density 20.800889999999999
#
# number of rings (size 3 to 8) (size 9 to 14) (size 15 to 20)
#    0.000    1.000    0.000    9.400    0.000    5.600 
#    0.000    0.000    0.000    1.200    0.000    0.000 
#    0.000    9.600    0.000    0.000    0.000    0.000 
#
# Total GULP energy -744002.755775 kJ/mol
# GULP energy per Si atom -12400.045930 kJ/mol
# Density = 2.075355 g / cm^3
# Si number density = 20.800890 Si / 1000 Ang^3
#
#
#
# Elastic Constant Matrix: (Units=GPa)
#
#
# Indices 1 2 3 4 5 6 
#
# 1 115.2644 43.2373 50.2881 0.0000 0.0000 0.0000
# 2 43.2373 115.2644 50.2881 0.0000 0.0000 0.0000
# 3 50.2881 50.2881 118.4041 0.0000 0.0000 0.0000
# 4 0.0000 0.0000 0.0000 15.5131 0.0000 0.0000
# 5 0.0000 0.0000 0.0000 0.0000 15.5131 0.0000
# 6 0.0000 0.0000 0.0000 0.0000 0.0000 36.0136
#
#
#
# Elastic Compliance Matrix: (Units=1/GPa)
#
#
# Indices 1 2 3 4 5 6 
#
# 1 0.011260 -0.002623 -0.003668 0.000000 0.000000 0.000000
# 2 -0.002623 0.011260 -0.003668 0.000000 0.000000 0.000000
# 3 -0.003668 -0.003668 0.011561 0.000000 0.000000 0.000000
# 4 0.000000 0.000000 0.000000 0.064462 0.000000 0.000000
# 5 0.000000 0.000000 0.000000 0.000000 0.064462 0.000000
# 6 0.000000 0.000000 0.000000 0.000000 0.000000 0.027767
#
#
# Mechanical properties :
#
#
# Convention : Reuss Voigt Hill
#
# Bulk Modulus (GPa) = 70.61006 70.72891 70.66948
# Shear Modulus (GPa) = 23.21126 27.08257 25.14692
#
# Velocity S-wave (km/s) = 3.34410 3.61223 3.48075
# Velocity P-wave (km/s) = 6.99500 7.17455 7.08535
#
# Compressibility (1/GPa) = 0.01416229
#
# Stress axis : x y z
#
# Youngs Moduli (GPa) = 88.80864 88.80864 86.49403
#
# Poissons Ratio (x) = 0.23299 0.31727
# Poissons Ratio (y) = 0.23299 0.31727
# Poissons Ratio (z) = 0.32576 0.32576
#
# Static dielectric constant tensor:
#      x y z
#    x 3.807040 0.000000 0.000000 
#    y 0.000000 3.807040 0.000000 
#    z 0.000000 0.000000 3.765320 
# 
# 
# High freq. dielectric constant tensor:
#      x y z
#    x 1.816720 0.000000 0.000000 
#    y 0.000000 1.816720 0.000000 
#    z 0.000000 0.000000 1.807420 
# 
# From -- ./inp_files/2531.got.cif
#   From: 2010.03.12/outbox.cif.g09.slc.cpg/sg189_2_cif.got.tgz:2531.got - 2010.04.01 12:03:36.
