data_PCOD8327639
_publ_section_title
;
Structure prediction by ZEFSAII (Michael W. Deem and Ramdas Pophale) SiO2 
 PCOD8327639
Probable space group: P -6 2 M
;
_chemical_formula_sum "Si O2"
_cell_formula_units_Z 96
_cell_length_a 15.605767
_cell_length_b 15.605767
_cell_length_c 24.924255
_cell_angle_alpha 90.000000
_cell_angle_beta 90.000000
_cell_angle_gamma 120.000000
_cell_volume 5256.819370
_symmetry_space_group_name_H-M "P -6 2 M"
_symmetry_group_IT_number 189
_symmetry_cell_setting 'hexagonal'
loop_
_space_group_symop_operation_xyz
x,y,z
-x+y,-x,-z
-y,x-y,z
x,y,-z
-x+y,-x,z
-y,x-y,-z
x-y,-y,-z
-x,-x+y,-z
y,x,-z
y,x,z
x-y,-y,z
-x,-x+y,z
loop_
_atom_site_type_symbol
_atom_site_label
_atom_site_fract_x
_atom_site_fract_y
_atom_site_fract_z
Si Si1 0.115300 0.888069 0.257957
Si Si2 0.441518 0.888373 0.436148
Si Si3 0.674858 0.230100 0.152020
Si Si4 0.445129 0.556314 0.061166
Si Si5 0.560444 0.782954 0.563803
Si Si6 0.767062 0.882248 0.621604
Si Si7 0.883111 0.656818 0.163318
Si Si8 0.241901 0.884649 0.060838
O O1 0.147063 0.873724 0.317475
O O2 0.162326 0.854608 0.210802
O O3 0.000000 0.823342 0.251933
O O4 0.144553 0.000000 0.248343
O O5 0.441035 0.887256 0.500000
O O6 0.499860 0.834600 0.414360
O O7 0.329379 0.833184 0.414365
O O8 0.496419 0.000000 0.413901
O O9 0.767498 0.340868 0.164470
O O10 0.655859 0.192161 0.090073
O O11 0.695491 0.151693 0.182321
O O12 0.482145 0.482145 0.083279
O O13 0.532342 0.668357 0.069344
O O14 0.415021 0.532045 0.000000
O O15 0.563723 0.784708 0.500000
O O16 0.672591 0.841831 0.583613
O O17 0.832074 0.832074 0.605256
O O18 0.835687 0.000000 0.614452
O O19 0.840093 0.662803 0.105714
O O20 0.000000 0.719331 0.159249
O O21 0.278680 0.000000 0.069208
O O22 0.198998 0.853857 0.000000
#
# Coordination Sequence:
#
# PCOD8327639 Si02
#       8
#    12  12  12  12  12  12  12  12
#     4   9  19  36  59  82 105 136 177 223 267 316
#     4   9  17  29  46  70 102 142 186 226 264 311
#     4  10  20  33  49  68  99 135 168 202 248 305
#     4   9  17  30  48  70  97 131 170 207 244 298
#     4  10  19  32  53  80 112 149 189 232 276 319
#     4  10  20  35  56  82 114 148 184 225 276 338
#     4  11  21  34  53  78 103 130 171 220 263 306
#     4   9  17  31  50  71  97 128 161 202 257 316
#
# _framework density 18.261994999999999
#
# number of rings (size 3 to 8) (size 9 to 14) (size 15 to 20)
#    0.250    2.125    1.250    2.750    0.000    4.750 
#    0.000    0.000    2.750    1.000    0.000    0.000 
#    0.000    0.000    0.000    0.000    0.000    0.000 
#
# Total GULP energy -1189261.113908 kJ/mol
# GULP energy per Si atom -12388.136603 kJ/mol
# Density = 1.822043 g / cm^3
# Si number density = 18.261995 Si / 1000 Ang^3
#
#
#
# Elastic Constant Matrix: (Units=GPa)
#
#
# Indices 1 2 3 4 5 6 
#
# 1 82.5761 23.6231 19.8626 0.0000 0.0000 0.0000
# 2 23.6231 82.5761 19.8626 0.0000 0.0000 0.0000
# 3 19.8626 19.8626 39.1080 0.0000 0.0000 0.0000
# 4 0.0000 0.0000 0.0000 22.3532 0.0000 0.0000
# 5 0.0000 0.0000 0.0000 0.0000 22.3532 0.0000
# 6 0.0000 0.0000 0.0000 0.0000 0.0000 29.4765
#
#
#
# Elastic Compliance Matrix: (Units=1/GPa)
#
#
# Indices 1 2 3 4 5 6 
#
# 1 0.014294 -0.002669 -0.005904 0.000000 0.000000 0.000000
# 2 -0.002669 0.014294 -0.005904 0.000000 0.000000 0.000000
# 3 -0.005904 -0.005904 0.031567 0.000000 0.000000 0.000000
# 4 0.000000 0.000000 0.000000 0.044736 0.000000 0.000000
# 5 0.000000 0.000000 0.000000 0.000000 0.044736 0.000000
# 6 0.000000 0.000000 0.000000 0.000000 0.000000 0.033925
#
#
# Mechanical properties :
#
#
# Convention : Reuss Voigt Hill
#
# Bulk Modulus (GPa) = 32.05067 36.77298 34.41182
# Shear Modulus (GPa) = 22.43084 24.23072 23.33078
#
# Velocity S-wave (km/s) = 3.50848 3.64653 3.57817
# Velocity P-wave (km/s) = 5.83105 6.15708 5.99628
#
# Compressibility (1/GPa) = 0.03120060
#
# Stress axis : x y z
#
# Youngs Moduli (GPa) = 69.96082 69.96082 31.67815
#
# Poissons Ratio (x) = 0.18672 0.18703
# Poissons Ratio (y) = 0.18672 0.18703
# Poissons Ratio (z) = 0.41306 0.41306
#
# Static dielectric constant tensor:
#      x y z
#    x 3.492180 0.000000 0.000000 
#    y 0.000000 3.492180 0.000000 
#    z 0.000000 0.000000 3.196530 
# 
# 
# High freq. dielectric constant tensor:
#      x y z
#    x 1.713610 0.000000 0.000000 
#    y 0.000000 1.713610 0.000000 
#    z 0.000000 0.000000 1.669540 
# 
# From -- ./inp_files/3706.got.cif
#   From: 2010.03.12/outbox.cif.g09.slc.cpg/sg189_2_cif.got.tgz:3706.got - 2010.04.01 12:03:36.
