data_PCOD8327161
_publ_section_title
;
Structure prediction by ZEFSAII (Michael W. Deem and Ramdas Pophale) SiO2 
 PCOD8327161
Probable space group: P -6 M 2
;
_chemical_formula_sum "Si O2"
_cell_formula_units_Z 72
_cell_length_a 12.584967
_cell_length_b 12.584967
_cell_length_c 30.503093
_cell_angle_alpha 90.000000
_cell_angle_beta 90.000000
_cell_angle_gamma 120.000000
_cell_volume 4183.874729
_symmetry_space_group_name_H-M "P -6 M 2"
_symmetry_group_IT_number 187
_symmetry_cell_setting 'hexagonal'
loop_
_space_group_symop_operation_xyz
x,y,z
-x+y,-x,-z
-y,x-y,z
x,y,-z
-x+y,-x,z
-y,x-y,-z
-y,-x,-z
-x+y,y,-z
x,x-y,-z
-x+y,y,z
x,x-y,z
-y,-x,z
loop_
_atom_site_type_symbol
_atom_site_label
_atom_site_fract_x
_atom_site_fract_y
_atom_site_fract_z
Si Si1 0.248635 0.998510 0.500000
Si Si2 0.666548 0.089234 0.840834
Si Si3 0.753020 0.999863 0.336452
Si Si4 0.580720 0.913848 0.081231
Si Si5 0.331559 0.914133 0.582096
Si Si6 0.001466 0.248349 0.000000
Si Si7 0.910316 0.333272 0.258402
O O1 0.106768 0.893233 0.500000
O O2 0.317888 0.989726 0.542562
O O3 0.255425 0.127713 0.500000
O O4 0.565480 0.130959 0.846190
O O5 0.796837 0.203164 0.853856
O O6 0.665509 0.044770 0.791178
O O7 0.638963 0.976914 0.872468
O O8 0.874977 0.125024 0.348745
O O9 0.698643 0.007353 0.289672
O O10 0.787073 0.893537 0.334363
O O11 0.651323 0.973391 0.372768
O O12 0.456769 0.913538 0.070836
O O13 0.549791 0.774896 0.083273
O O14 0.674704 0.988901 0.042909
O O15 0.462782 0.925564 0.579139
O O16 0.228384 0.771617 0.579048
O O17 0.870808 0.129192 0.000000
O O18 0.104721 0.209442 0.000000
O O19 0.927712 0.463856 0.272147
O O20 0.766801 0.233200 0.262857
#
# Coordination Sequence:
#
# PCOD8327161 Si02
#       7
#     6  12  12  12  12   6  12
#     4  10  20  34  54  78 104 134 166 200 236 280
#     4   9  17  30  49  72  97 126 161 202 246 289
#     4  10  20  33  50  71  97 129 163 201 243 290
#     4  10  20  33  50  71  97 129 162 196 233 279
#     4  10  20  34  53  75  99 127 160 200 243 287
#     4  10  20  34  52  72  94 120 152 192 236 282
#     4   9  17  30  49  72  97 126 161 201 245 292
#
# _framework density 17.208928
#
# number of rings (size 3 to 8) (size 9 to 14) (size 15 to 20)
#    0.000    2.333    0.000    3.000    0.000    2.000 
#    0.000    3.333    0.000    8.667    0.000    0.000 
#    0.000    0.000    0.000    0.000    0.000    0.000 
#
# Total GULP energy -893004.299608 kJ/mol
# GULP energy per Si atom -12402.837495 kJ/mol
# Density = 1.716976 g / cm^3
# Si number density = 17.208928 Si / 1000 Ang^3
#
#
#
# Elastic Constant Matrix: (Units=GPa)
#
#
# Indices 1 2 3 4 5 6 
#
# 1 112.1379 69.1794 59.7752 0.0000 -0.0001 0.0000
# 2 69.1794 112.1379 59.7752 0.0000 0.0001 0.0000
# 3 59.7752 59.7752 119.6799 0.0000 0.0000 0.0000
# 4 0.0000 0.0000 0.0000 21.3111 0.0000 0.0001
# 5 -0.0001 0.0001 0.0000 0.0000 21.3111 0.0000
# 6 0.0000 0.0000 0.0000 0.0001 0.0000 21.4793
#
#
#
# Elastic Compliance Matrix: (Units=1/GPa)
#
#
# Indices 1 2 3 4 5 6 
#
# 1 0.015751 -0.007528 -0.004107 0.000000 0.000000 0.000000
# 2 -0.007528 0.015751 -0.004107 0.000000 0.000000 0.000000
# 3 -0.004107 -0.004107 0.012458 0.000000 0.000000 0.000000
# 4 0.000000 0.000000 0.000000 0.046924 0.000000 0.000000
# 5 0.000000 0.000000 0.000000 0.000000 0.046924 0.000000
# 6 0.000000 0.000000 0.000000 0.000000 0.000000 0.046557
#
#
# Mechanical properties :
#
#
# Convention : Reuss Voigt Hill
#
# Bulk Modulus (GPa) = 80.15297 80.15721 80.15509
# Shear Modulus (GPa) = 22.72657 23.16867 22.94762
#
# Velocity S-wave (km/s) = 3.63799 3.67320 3.65563
# Velocity P-wave (km/s) = 8.02023 8.04176 8.03100
#
# Compressibility (1/GPa) = 0.01247614
#
# Stress axis : x y z
#
# Youngs Moduli (GPa) = 63.48903 63.48903 80.26751
#
# Poissons Ratio (x) = 0.47792 0.32967
# Poissons Ratio (y) = 0.47792 0.32967
# Poissons Ratio (z) = 0.26076 0.26076
#
# Static dielectric constant tensor:
#      x y z
#    x 3.103500 0.000000 0.000000 
#    y 0.000000 3.103500 0.000000 
#    z 0.000000 0.000000 3.465480 
# 
# 
# High freq. dielectric constant tensor:
#      x y z
#    x 1.662090 0.000000 0.000000 
#    y 0.000000 1.662090 0.000000 
#    z 0.000000 0.000000 1.679510 
# 
# From -- ./inp_files/4580.got.cif
#   From: 2010.03.12/outbox.cif.g09.slc.cpg/sg187_3_cif.got.tgz:4580.got - 2010.04.01 11:58:23.
