data_PCOD8327802
_publ_section_title
;
Structure prediction by ZEFSAII (Michael W. Deem and Ramdas Pophale) SiO2 
 PCOD8327802
Probable space group: P -6 2 M
;
_chemical_formula_sum "Si O2"
_cell_formula_units_Z 60
_cell_length_a 14.700612
_cell_length_b 14.700612
_cell_length_c 14.324484
_cell_angle_alpha 90.000000
_cell_angle_beta 90.000000
_cell_angle_gamma 120.000000
_cell_volume 2680.898976
_symmetry_space_group_name_H-M "P -6 2 M"
_symmetry_group_IT_number 189
_symmetry_cell_setting 'hexagonal'
loop_
_space_group_symop_operation_xyz
x,y,z
-x+y,-x,-z
-y,x-y,z
x,y,-z
-x+y,-x,z
-y,x-y,-z
x-y,-y,-z
-x,-x+y,-z
y,x,-z
y,x,z
x-y,-y,z
-x,-x+y,z
loop_
_atom_site_type_symbol
_atom_site_label
_atom_site_fract_x
_atom_site_fract_y
_atom_site_fract_z
Si Si1 0.683165 0.124353 0.101820
Si Si2 0.768243 0.884366 0.636737
Si Si3 0.238000 0.119406 0.857115
Si Si4 0.470145 0.877534 0.291176
Si Si5 0.734997 0.535020 0.603383
O O1 0.808196 0.166715 0.109084
O O2 0.637550 0.163956 0.186116
O O3 0.626568 0.000000 0.109072
O O4 0.661071 0.159162 0.000000
O O5 0.856779 0.856779 0.606753
O O6 0.757847 0.883131 0.746891
O O7 0.659584 0.798328 0.593258
O O8 0.802489 0.000000 0.597742
O O9 0.163072 0.163072 0.895266
O O10 0.192422 0.000000 0.893313
O O11 0.355040 0.856558 0.317909
O O12 0.495601 0.813965 0.366622
O O13 0.554949 0.000000 0.300443
O O14 0.689061 0.489638 0.500000
#
# Coordination Sequence:
#
# PCOD8327802 Si02
#       5
#    12  12  12  12  12
#     4   9  18  36  63  91 123 168 217 262 315 380
#     4  10  20  36  59  91 132 175 216 260 316 386
#     4   9  16  29  53  89 133 179 221 262 312 377
#     4  11  24  45  68  93 130 170 209 269 340 390
#     4  12  25  41  65  96 125 163 221 275 327 396
#
# _framework density 22.380552999999999
#
# number of rings (size 3 to 8) (size 9 to 14) (size 15 to 20)
#    0.000    1.800    2.000    2.600    0.000    6.000 
#    0.000    1.000    0.000    2.400    0.000    0.000 
#    0.000    0.000    0.000    0.000    0.000    0.000 
#
# Total GULP energy -743694.442263 kJ/mol
# GULP energy per Si atom -12394.907371 kJ/mol
# Density = 2.232961 g / cm^3
# Si number density = 22.380553 Si / 1000 Ang^3
#
#
#
# Elastic Constant Matrix: (Units=GPa)
#
#
# Indices 1 2 3 4 5 6 
#
# 1 93.9770 24.3964 55.6630 0.0000 0.0000 0.0000
# 2 24.3964 93.9770 55.6630 0.0000 0.0000 0.0000
# 3 55.6630 55.6630 151.5337 0.0000 0.0000 0.0000
# 4 0.0000 0.0000 0.0000 6.1879 0.0000 0.0000
# 5 0.0000 0.0000 0.0000 0.0000 6.1879 0.0000
# 6 0.0000 0.0000 0.0000 0.0000 0.0000 34.7903
#
#
#
# Elastic Compliance Matrix: (Units=1/GPa)
#
#
# Indices 1 2 3 4 5 6 
#
# 1 0.013639 -0.000733 -0.004741 0.000000 0.000000 0.000000
# 2 -0.000733 0.013639 -0.004741 0.000000 0.000000 0.000000
# 3 -0.004741 -0.004741 0.010082 0.000000 0.000000 0.000000
# 4 0.000000 0.000000 0.000000 0.161605 0.000000 0.000000
# 5 0.000000 0.000000 0.000000 0.000000 0.161605 0.000000
# 6 0.000000 0.000000 0.000000 0.000000 0.000000 0.028744
#
#
# Mechanical properties :
#
#
# Convention : Reuss Voigt Hill
#
# Bulk Modulus (GPa) = 59.06179 67.88141 63.47160
# Shear Modulus (GPa) = 12.03694 23.01758 17.52726
#
# Velocity S-wave (km/s) = 2.32163 3.21045 2.80151
# Velocity P-wave (km/s) = 5.79946 6.64372 6.23589
#
# Compressibility (1/GPa) = 0.01693142
#
# Stress axis : x y z
#
# Youngs Moduli (GPa) = 73.31810 73.31810 99.18454
#
# Poissons Ratio (x) = 0.05371 0.47023
# Poissons Ratio (y) = 0.05371 0.47023
# Poissons Ratio (z) = 0.34760 0.34760
#
# Static dielectric constant tensor:
#      x y z
#    x 4.001820 0.000000 0.000000 
#    y 0.000000 4.001820 0.000000 
#    z 0.000000 0.000000 4.389170 
# 
# 
# High freq. dielectric constant tensor:
#      x y z
#    x 1.865370 0.000000 0.000000 
#    y 0.000000 1.865370 0.000000 
#    z 0.000000 0.000000 1.891470 
# 
# From -- ./inp_files/2527.got.cif
#   From: 2010.03.12/outbox.cif.g09.slc.cpg/sg189_2_cif.got.tgz:2527.got - 2010.04.01 12:03:36.
