data_PCOD8327528
_publ_section_title
;
Structure prediction by ZEFSAII (Michael W. Deem and Ramdas Pophale) SiO2 
 PCOD8327528
Probable space group: P -6 2 M
;
_chemical_formula_sum "Si O2"
_cell_formula_units_Z 52
_cell_length_a 16.349346
_cell_length_b 16.349346
_cell_length_c 13.958131
_cell_angle_alpha 90.000000
_cell_angle_beta 90.000000
_cell_angle_gamma 120.000000
_cell_volume 3231.161544
_symmetry_space_group_name_H-M "P -6 2 M"
_symmetry_group_IT_number 189
_symmetry_cell_setting 'hexagonal'
loop_
_space_group_symop_operation_xyz
x,y,z
-x+y,-x,-z
-y,x-y,z
x,y,-z
-x+y,-x,z
-y,x-y,-z
x-y,-y,-z
-x,-x+y,-z
y,x,-z
y,x,z
x-y,-y,z
-x,-x+y,z
loop_
_atom_site_type_symbol
_atom_site_label
_atom_site_fract_x
_atom_site_fract_y
_atom_site_fract_z
Si Si1 0.336180 0.488037 0.886636
Si Si2 0.109277 0.217034 0.393752
Si Si3 0.457089 0.000000 0.112411
Si Si4 0.892964 0.706313 0.200101
Si Si5 0.666667 0.333333 0.886837
Si Si6 0.726532 0.726532 0.886931
O O1 0.445580 0.536948 0.856292
O O2 0.274683 0.393344 0.828315
O O3 0.303273 0.561400 0.853159
O O4 0.322515 0.464986 0.000000
O O5 0.132160 0.263843 0.500000
O O6 0.132608 0.132608 0.390319
O O7 0.169961 0.296011 0.314363
O O8 0.000000 0.173385 0.368222
O O9 0.365792 0.000000 0.158273
O O10 0.444871 0.000000 0.000000
O O11 0.821905 0.729066 0.143639
O O12 0.000000 0.787631 0.175392
O O13 0.666667 0.333334 0.000000
O O14 0.720584 0.720584 0.000000
#
# Coordination Sequence:
#
# PCOD8327528 Si02
#       6
#    12  12   6  12   4   6
#     4  10  18  31  49  71  99 129 165 210 252 291
#     4   9  17  31  51  73  95 124 166 215 256 286
#     4   9  18  32  50  70  96 133 170 206 248 286
#     4  11  21  33  49  72 101 135 169 203 251 305
#     4   9  18  30  48  72  94 125 172 216 249 285
#     4  11  22  34  47  70 104 141 173 204 237 296
#
# _framework density 16.093284000000001
#
# number of rings (size 3 to 8) (size 9 to 14) (size 15 to 20)
#    0.000    2.077    2.308    2.308    0.000    6.000 
#    0.692    0.000    0.000    0.000    0.000    8.077 
#    0.000    0.000    0.000    0.000    0.000    0.000 
#
# Total GULP energy -644534.776488 kJ/mol
# GULP energy per Si atom -12394.899548 kJ/mol
# Density = 1.605665 g / cm^3
# Si number density = 16.093284 Si / 1000 Ang^3
#
#
#
# Elastic Constant Matrix: (Units=GPa)
#
#
# Indices 1 2 3 4 5 6 
#
# 1 145.3764 15.1370 45.5641 0.0000 -0.0001 0.0003
# 2 15.1370 145.3747 45.5644 0.0000 0.0001 -0.0005
# 3 45.5641 45.5644 79.1714 0.0000 0.0000 0.0000
# 4 0.0000 0.0000 0.0000 14.7061 0.0001 -0.0001
# 5 -0.0001 0.0001 0.0000 0.0001 14.7059 0.0000
# 6 0.0003 -0.0005 0.0000 -0.0001 0.0000 65.1179
#
#
#
# Elastic Compliance Matrix: (Units=1/GPa)
#
#
# Indices 1 2 3 4 5 6 
#
# 1 0.008466 0.000788 -0.005325 0.000000 0.000000 0.000000
# 2 0.000788 0.008466 -0.005326 0.000000 0.000000 0.000000
# 3 -0.005325 -0.005326 0.018761 0.000000 0.000000 0.000000
# 4 0.000000 0.000000 0.000000 0.067999 0.000000 0.000000
# 5 0.000000 0.000000 0.000000 0.000000 0.068000 0.000000
# 6 0.000000 0.000000 0.000000 0.000000 0.000000 0.015357
#
#
# Mechanical properties :
#
#
# Convention : Reuss Voigt Hill
#
# Bulk Modulus (GPa) = 62.63472 64.71705 63.67589
# Shear Modulus (GPa) = 23.57417 36.48312 30.02864
#
# Velocity S-wave (km/s) = 3.83148 4.76644 4.32431
# Velocity P-wave (km/s) = 7.65362 8.40196 8.03651
#
# Compressibility (1/GPa) = 0.01596559
#
# Stress axis : x y z
#
# Youngs Moduli (GPa) = 118.12236 118.12029 53.30302
#
# Poissons Ratio (x) = -0.09304 0.28386
# Poissons Ratio (y) = -0.09304 0.28387
# Poissons Ratio (z) = 0.62906 0.62906
#
# Static dielectric constant tensor:
#      x y z
#    x 3.020460 0.000010 0.000000 
#    y 0.000010 3.020480 0.000000 
#    z 0.000000 0.000000 2.951670 
# 
# 
# High freq. dielectric constant tensor:
#      x y z
#    x 1.623340 0.000000 0.000000 
#    y 0.000000 1.623340 0.000000 
#    z 0.000000 0.000000 1.582620 
# 
# From -- ./inp_files/2490.got.cif
#   From: 2010.03.12/outbox.cif.g09.slc.cpg/sg189_2_cif.got.tgz:2490.got - 2010.04.01 12:03:36.
