data_PCOD8327657
_publ_section_title
;
Structure prediction by ZEFSAII (Michael W. Deem and Ramdas Pophale) SiO2 
 PCOD8327657
Probable space group: P -6 2 M
;
_chemical_formula_sum "Si O2"
_cell_formula_units_Z 60
_cell_length_a 20.286140
_cell_length_b 20.286140
_cell_length_c 9.284215
_cell_angle_alpha 90.000000
_cell_angle_beta 90.000000
_cell_angle_gamma 120.000000
_cell_volume 3308.831545
_symmetry_space_group_name_H-M "P -6 2 M"
_symmetry_group_IT_number 189
_symmetry_cell_setting 'hexagonal'
loop_
_space_group_symop_operation_xyz
x,y,z
-x+y,-x,-z
-y,x-y,z
x,y,-z
-x+y,-x,z
-y,x-y,-z
x-y,-y,-z
-x,-x+y,-z
y,x,-z
y,x,z
x-y,-y,z
-x,-x+y,z
loop_
_atom_site_type_symbol
_atom_site_label
_atom_site_fract_x
_atom_site_fract_y
_atom_site_fract_z
Si Si1 0.163318 0.412625 0.832709
Si Si2 0.087952 0.253920 0.671395
Si Si3 0.866201 0.535897 0.834688
Si Si4 0.000000 0.819199 0.658519
Si Si5 0.580584 0.494662 0.170177
Si Si6 0.000000 0.663862 0.340618
O O1 0.134476 0.335634 0.744738
O O2 0.254138 0.469168 0.814519
O O3 0.124057 0.458338 0.766657
O O4 0.142297 0.390991 0.000000
O O5 0.101700 0.264936 0.500000
O O6 0.118751 0.198486 0.732981
O O7 0.000000 0.216634 0.713015
O O8 0.864214 0.458404 0.784233
O O9 0.925353 0.605081 0.741152
O O10 0.893533 0.552748 0.000000
O O11 0.000000 0.851170 0.500000
O O12 0.000000 0.741364 0.649493
O O13 0.529902 0.529902 0.230852
O O14 0.586872 0.502569 0.000000
O O15 0.000000 0.632526 0.500000
#
# Coordination Sequence:
#
# PCOD8327657 Si02
#       6
#    12  12  12   6  12   6
#     4  10  20  33  53  78 102 133 173 212 253 303
#     4  10  20  35  54  75 103 136 170 212 260 308
#     4  10  19  33  53  77 104 133 169 210 254 305
#     4   9  18  33  51  75 103 132 165 208 260 305
#     4   9  17  31  50  71 101 134 162 203 253 297
#     4  11  19  31  55  79 103 130 165 214 260 301
#
# _framework density 18.133289000000001
#
# number of rings (size 3 to 8) (size 9 to 14) (size 15 to 20)
#    0.000    2.200    3.000    0.900    0.000    1.200 
#    1.800    1.500    0.000    0.000    0.000    0.000 
#    0.000    0.000    0.000    0.000    0.000    0.000 
#
# Total GULP energy -743636.453947 kJ/mol
# GULP energy per Si atom -12393.940899 kJ/mol
# Density = 1.809202 g / cm^3
# Si number density = 18.133289 Si / 1000 Ang^3
#
#
#
# Elastic Constant Matrix: (Units=GPa)
#
#
# Indices 1 2 3 4 5 6 
#
# 1 124.0501 55.0508 20.9736 0.0000 0.0000 0.0000
# 2 55.0508 124.0501 20.9736 0.0000 0.0000 0.0000
# 3 20.9736 20.9736 35.5317 0.0000 0.0000 0.0000
# 4 0.0000 0.0000 0.0000 16.4311 0.0000 0.0000
# 5 0.0000 0.0000 0.0000 0.0000 16.4311 0.0000
# 6 0.0000 0.0000 0.0000 0.0000 0.0000 34.4996
#
#
#
# Elastic Compliance Matrix: (Units=1/GPa)
#
#
# Indices 1 2 3 4 5 6 
#
# 1 0.010486 -0.004007 -0.003825 0.000000 0.000000 0.000000
# 2 -0.004007 0.010486 -0.003825 0.000000 0.000000 0.000000
# 3 -0.003825 -0.003825 0.032659 0.000000 0.000000 0.000000
# 4 0.000000 0.000000 0.000000 0.060860 0.000000 0.000000
# 5 0.000000 0.000000 0.000000 0.000000 0.060860 0.000000
# 6 0.000000 0.000000 0.000000 0.000000 0.000000 0.028986
#
#
# Mechanical properties :
#
#
# Convention : Reuss Voigt Hill
#
# Bulk Modulus (GPa) = 32.98235 53.06979 43.02607
# Shear Modulus (GPa) = 21.03001 25.91463 23.47232
#
# Velocity S-wave (km/s) = 3.40920 3.78447 3.60173
# Velocity P-wave (km/s) = 5.80734 6.95890 6.40904
#
# Compressibility (1/GPa) = 0.03031925
#
# Stress axis : x y z
#
# Youngs Moduli (GPa) = 95.36481 95.36481 30.61942
#
# Poissons Ratio (x) = 0.38211 0.11711
# Poissons Ratio (y) = 0.38211 0.11711
# Poissons Ratio (z) = 0.36473 0.36473
#
# Static dielectric constant tensor:
#      x y z
#    x 3.633130 0.000000 0.000000 
#    y 0.000000 3.633130 0.000000 
#    z 0.000000 0.000000 3.132340 
# 
# 
# High freq. dielectric constant tensor:
#      x y z
#    x 1.707260 0.000000 0.000000 
#    y 0.000000 1.707260 0.000000 
#    z 0.000000 0.000000 1.665220 
# 
# From -- ./inp_files/914.got.cif
#   From: 2010.03.12/outbox.cif.g09.slc.cpg/sg189_1_cif.got.tgz:914.got - 2010.04.01 12:03:36.
