data_PCOD8327465
_publ_section_title
;
Structure prediction by ZEFSAII (Michael W. Deem and Ramdas Pophale) SiO2 
 PCOD8327465
Probable space group: P -6 C 2
;
_chemical_formula_sum "Si O2"
_cell_formula_units_Z 34
_cell_length_a 10.373782
_cell_length_b 10.373782
_cell_length_c 15.547510
_cell_angle_alpha 90.000000
_cell_angle_beta 90.000000
_cell_angle_gamma 120.000000
_cell_volume 1448.991077
_symmetry_space_group_name_H-M "P -6 C 2"
_symmetry_group_IT_number 188
_symmetry_cell_setting 'hexagonal'
loop_
_space_group_symop_operation_xyz
x,y,z
-x+y,-x,1/2-z
-y,x-y,z
x,y,1/2-z
-x+y,-x,z
-y,x-y,1/2-z
-y,-x,-z
-x+y,y,-z
x,x-y,-z
-x+y,y,1/2+z
x,x-y,1/2+z
-y,-x,1/2+z
loop_
_atom_site_type_symbol
_atom_site_label
_atom_site_fract_x
_atom_site_fract_y
_atom_site_fract_z
Si Si1 0.155590 0.166414 0.250000
Si Si2 0.201376 0.350797 0.404979
Si Si3 0.476567 0.988828 0.151747
Si Si4 0.666667 0.333333 0.101150
O O1 0.228573 0.243728 0.340567
O O2 0.154349 0.011676 0.250000
O O3 0.141801 0.283602 0.500000
O O4 0.372225 0.484876 0.411547
O O5 0.081836 0.383207 0.360782
O O6 0.509569 0.964544 0.250000
O O7 0.563638 0.164600 0.132886
O O8 0.666668 0.333334 0.000000
#
# Coordination Sequence:
#
# PCOD8327465 Si02
#       4
#     6  12  12   4
#     4  10  26  44  66  98 138 178 234 278 342 408
#     4  12  25  45  72 101 138 182 233 285 344 420
#     4  12  25  47  72 103 140 187 233 291 355 420
#     4  12  28  44  70 111 145 182 238 298 359 415
#
# _framework density 23.464600999999998
#
# number of rings (size 3 to 8) (size 9 to 14) (size 15 to 20)
#    0.353    0.000    3.529    4.941    4.941    1.412 
#    0.000    0.000    0.000    0.000    0.000    0.000 
#    0.000    0.000    0.000    0.000    0.000    0.000 
#
# Total GULP energy -421307.645511 kJ/mol
# GULP energy per Si atom -12391.401339 kJ/mol
# Density = 2.341119 g / cm^3
# Si number density = 23.464601 Si / 1000 Ang^3
#
#
#
# Elastic Constant Matrix: (Units=GPa)
#
#
# Indices 1 2 3 4 5 6 
#
# 1 103.9193 19.5147 3.5417 -0.0004 0.0002 -0.0001
# 2 19.5147 103.9191 3.5417 -0.0002 -0.0002 0.0001
# 3 3.5417 3.5417 157.0621 -0.0003 -0.0005 0.0001
# 4 -0.0004 -0.0002 -0.0003 25.0009 -0.0002 0.0002
# 5 0.0002 -0.0002 -0.0005 -0.0002 25.0015 0.0000
# 6 -0.0001 0.0001 0.0001 0.0002 0.0000 42.2021
#
#
#
# Elastic Compliance Matrix: (Units=1/GPa)
#
#
# Indices 1 2 3 4 5 6 
#
# 1 0.009980 -0.001868 -0.000183 0.000000 0.000000 0.000000
# 2 -0.001868 0.009980 -0.000183 0.000000 0.000000 0.000000
# 3 -0.000183 -0.000183 0.006375 0.000000 0.000000 0.000000
# 4 0.000000 0.000000 0.000000 0.039999 0.000000 0.000000
# 5 0.000000 0.000000 0.000000 0.000000 0.039998 0.000000
# 6 0.000000 0.000000 0.000000 0.000000 0.000000 0.023696
#
#
# Mechanical properties :
#
#
# Convention : Reuss Voigt Hill
#
# Bulk Modulus (GPa) = 45.73004 46.45519 46.09262
# Shear Modulus (GPa) = 35.26515 40.99440 38.12978
#
# Velocity S-wave (km/s) = 3.88094 4.18434 4.03549
# Velocity P-wave (km/s) = 6.29393 6.57160 6.43426
#
# Compressibility (1/GPa) = 0.02186746
#
# Stress axis : x y z
#
# Youngs Moduli (GPa) = 100.20200 100.20179 156.85882
#
# Poissons Ratio (x) = 0.18716 0.02869
# Poissons Ratio (y) = 0.18716 0.02869
# Poissons Ratio (z) = 0.01833 0.01833
#
# Static dielectric constant tensor:
#      x y z
#    x 4.109900 0.000000 0.000000 
#    y 0.000000 4.109890 0.000000 
#    z 0.000000 0.000000 4.283060 
# 
# 
# High freq. dielectric constant tensor:
#      x y z
#    x 1.928440 0.000000 0.000000 
#    y 0.000000 1.928440 0.000000 
#    z 0.000000 0.000000 1.942980 
# 
# From -- ./inp_files/1947.got.cif
#   From: 2010.03.12/outbox.cif.g09.slc.cpg/sg188_1_cif.got.tgz:1947.got - 2010.04.01 12:01:06.
