data_PCOD8327826
_publ_section_title
;
Structure prediction by ZEFSAII (Michael W. Deem and Ramdas Pophale) SiO2 
 PCOD8327826
Probable space group: P -6 2 M
;
_chemical_formula_sum "Si O2"
_cell_formula_units_Z 96
_cell_length_a 15.012241
_cell_length_b 15.012241
_cell_length_c 24.610196
_cell_angle_alpha 90.000000
_cell_angle_beta 90.000000
_cell_angle_gamma 120.000000
_cell_volume 4803.267346
_symmetry_space_group_name_H-M "P -6 2 M"
_symmetry_group_IT_number 189
_symmetry_cell_setting 'hexagonal'
loop_
_space_group_symop_operation_xyz
x,y,z
-x+y,-x,-z
-y,x-y,z
x,y,-z
-x+y,-x,z
-y,x-y,-z
x-y,-y,-z
-x,-x+y,-z
y,x,-z
y,x,z
x-y,-y,z
-x,-x+y,z
loop_
_atom_site_type_symbol
_atom_site_label
_atom_site_fract_x
_atom_site_fract_y
_atom_site_fract_z
Si Si1 0.408233 0.878912 0.214965
Si Si2 0.120354 0.564007 0.667168
Si Si3 0.429329 0.204255 0.938754
Si Si4 0.120080 0.237959 0.139260
Si Si5 0.420717 0.210699 0.357146
Si Si6 0.784440 0.664673 0.753908
Si Si7 0.118230 0.236099 0.563787
Si Si8 0.120428 0.571721 0.901505
O O1 0.439553 0.842672 0.270094
O O2 0.287978 0.843293 0.217465
O O3 0.432899 0.835724 0.160649
O O4 0.471492 0.000000 0.209371
O O5 0.150682 0.666662 0.634013
O O6 0.172472 0.502961 0.642101
O O7 0.000000 0.486355 0.664498
O O8 0.336550 0.179526 0.898510
O O9 0.481200 0.136201 0.925086
O O10 0.512106 0.325099 0.935310
O O11 0.386471 0.178471 0.000000
O O12 0.158494 0.158494 0.126126
O O13 0.142383 0.268544 0.203019
O O14 0.000000 0.185407 0.126319
O O15 0.353068 0.182300 0.301922
O O16 0.345702 0.161949 0.407785
O O17 0.719748 0.719748 0.737841
O O18 0.130304 0.257257 0.500000
O O19 0.180926 0.180926 0.583396
O O20 0.000000 0.162206 0.580130
O O21 0.000000 0.535850 0.905344
#
# Coordination Sequence:
#
# PCOD8327826 Si02
#       8
#    12  12  12  12  12  12  12  12
#     4   8  16  33  56  83 111 144 184 229 285 350
#     4  10  21  34  54  87 125 156 196 243 286 353
#     4  12  26  42  62  90 118 151 197 245 304 371
#     4  11  24  42  63  88 119 157 202 251 304 366
#     4  11  21  37  60  89 126 170 207 245 304 363
#     4   9  18  36  59  85 116 151 196 250 302 360
#     4  10  21  39  64  93 124 162 213 271 325 370
#     4  11  23  41  64  86 114 148 187 240 299 356
#
# _framework density 19.986395999999999
#
# number of rings (size 3 to 8) (size 9 to 14) (size 15 to 20)
#    0.000    1.750    1.250    4.125    1.750    4.000 
#    0.000    0.625    0.000    4.500    0.000    0.000 
#    0.000    0.000    0.000    0.000    0.000    0.000 
#
# Total GULP energy -1190515.986156 kJ/mol
# GULP energy per Si atom -12401.208189 kJ/mol
# Density = 1.994091 g / cm^3
# Si number density = 19.986396 Si / 1000 Ang^3
#
#
#
# Elastic Constant Matrix: (Units=GPa)
#
#
# Indices 1 2 3 4 5 6 
#
# 1 68.3220 10.3475 29.7598 0.0000 0.0000 0.0000
# 2 10.3475 68.3220 29.7598 0.0000 0.0000 0.0000
# 3 29.7598 29.7598 69.8648 0.0000 0.0000 0.0000
# 4 0.0000 0.0000 0.0000 21.8183 0.0000 0.0000
# 5 0.0000 0.0000 0.0000 0.0000 21.8183 0.0000
# 6 0.0000 0.0000 0.0000 0.0000 0.0000 28.9872
#
#
#
# Elastic Compliance Matrix: (Units=1/GPa)
#
#
# Indices 1 2 3 4 5 6 
#
# 1 0.018002 0.000754 -0.007989 0.000000 0.000000 0.000000
# 2 0.000754 0.018002 -0.007989 0.000000 0.000000 0.000000
# 3 -0.007989 -0.007989 0.021120 0.000000 0.000000 0.000000
# 4 0.000000 0.000000 0.000000 0.045833 0.000000 0.000000
# 5 0.000000 0.000000 0.000000 0.000000 0.045833 0.000000
# 6 0.000000 0.000000 0.000000 0.000000 0.000000 0.034498
#
#
# Mechanical properties :
#
#
# Convention : Reuss Voigt Hill
#
# Bulk Modulus (GPa) = 37.48934 38.47144 37.98039
# Shear Modulus (GPa) = 22.45870 23.63419 23.04645
#
# Velocity S-wave (km/s) = 3.35580 3.44250 3.39943
# Velocity P-wave (km/s) = 5.81492 5.92382 5.86963
#
# Compressibility (1/GPa) = 0.02667425
#
# Stress axis : x y z
#
# Youngs Moduli (GPa) = 55.54789 55.54789 47.34910
#
# Poissons Ratio (x) = -0.04186 0.37829
# Poissons Ratio (y) = -0.04186 0.37829
# Poissons Ratio (z) = 0.44379 0.44379
#
# Static dielectric constant tensor:
#      x y z
#    x 3.524480 0.000000 0.000000 
#    y 0.000000 3.524480 0.000000 
#    z 0.000000 0.000000 3.674370 
# 
# 
# High freq. dielectric constant tensor:
#      x y z
#    x 1.779170 0.000000 0.000000 
#    y 0.000000 1.779170 0.000000 
#    z 0.000000 0.000000 1.766590 
# 
# From -- ./inp_files/3734.got.cif
#   From: 2010.03.12/outbox.cif.g09.slc.cpg/sg189_2_cif.got.tgz:3734.got - 2010.04.01 12:03:36.
