data_PCOD8327222
_publ_section_title
;
Structure prediction by ZEFSAII (Michael W. Deem and Ramdas Pophale) SiO2 
 PCOD8327222
Probable space group: P -6 M 2
;
_chemical_formula_sum "Si O2"
_cell_formula_units_Z 72
_cell_length_a 22.829218
_cell_length_b 22.829218
_cell_length_c 8.894762
_cell_angle_alpha 90.000000
_cell_angle_beta 90.000000
_cell_angle_gamma 120.000000
_cell_volume 4014.643946
_symmetry_space_group_name_H-M "P -6 M 2"
_symmetry_group_IT_number 187
_symmetry_cell_setting 'hexagonal'
loop_
_space_group_symop_operation_xyz
x,y,z
-x+y,-x,-z
-y,x-y,z
x,y,-z
-x+y,-x,z
-y,x-y,-z
-y,-x,-z
-x+y,y,-z
x,x-y,-z
-x+y,y,z
x,x-y,z
-y,-x,z
loop_
_atom_site_type_symbol
_atom_site_label
_atom_site_fract_x
_atom_site_fract_y
_atom_site_fract_z
Si Si1 0.134106 0.732730 0.825896
Si Si2 0.923676 0.593137 0.675535
Si Si3 0.802828 0.333349 0.827530
Si Si4 0.402326 0.463807 0.676066
Si Si5 0.279086 0.206577 0.822526
Si Si6 0.741046 0.804245 0.676706
O O1 0.212545 0.787456 0.798235
O O2 0.121032 0.660996 0.764913
O O3 0.085732 0.752101 0.734676
O O4 0.114726 0.728165 0.000000
O O5 0.922298 0.607460 0.500000
O O6 0.859775 0.521959 0.717184
O O7 0.921805 0.652001 0.766941
O O8 0.989755 0.589541 0.720202
O O9 0.791922 0.395961 0.795337
O O10 0.733538 0.266463 0.788474
O O11 0.824326 0.332703 0.000000
O O12 0.390093 0.465957 0.500000
O O13 0.468996 0.531005 0.730254
O O14 0.276658 0.138329 0.769154
O O15 0.213677 0.206193 0.752726
O O16 0.275625 0.210269 0.000000
O O17 0.741205 0.794196 0.500000
O O18 0.761950 0.880975 0.719738
#
# Coordination Sequence:
#
# PCOD8327222 Si02
#       6
#    12  12  12  12  12  12
#     4  10  20  34  55  83 112 142 179 223 270 321
#     4  11  22  36  54  78 108 143 181 225 278 331
#     4  10  21  37  55  73  96 132 180 231 281 334
#     4  10  21  36  54  79 112 148 185 226 273 325
#     4  11  23  37  55  82 115 149 186 227 271 322
#     4  10  20  35  57  84 112 143 180 222 269 321
#
# _framework density 17.934342999999998
#
# number of rings (size 3 to 8) (size 9 to 14) (size 15 to 20)
#    0.000    1.667    1.667    3.167    0.000    8.333 
#    0.000    0.000    0.000    1.667    0.000    0.000 
#    0.000    0.000    0.000    0.000    0.000    0.000 
#
# Total GULP energy -893135.102593 kJ/mol
# GULP energy per Si atom -12404.654203 kJ/mol
# Density = 1.789352 g / cm^3
# Si number density = 17.934343 Si / 1000 Ang^3
#
#
#
# Elastic Constant Matrix: (Units=GPa)
#
#
# Indices 1 2 3 4 5 6 
#
# 1 117.1680 66.8021 44.3494 0.0000 0.0001 0.0000
# 2 66.8021 117.1680 44.3494 0.0000 -0.0001 0.0000
# 3 44.3494 44.3494 58.9435 0.0000 0.0000 0.0000
# 4 0.0000 0.0000 0.0000 31.4470 0.0000 -0.0001
# 5 0.0001 -0.0001 0.0000 0.0000 31.4470 0.0000
# 6 0.0000 0.0000 0.0000 -0.0001 0.0000 25.1830
#
#
#
# Elastic Compliance Matrix: (Units=1/GPa)
#
#
# Indices 1 2 3 4 5 6 
#
# 1 0.014192 -0.005662 -0.006418 0.000000 0.000000 0.000000
# 2 -0.005662 0.014192 -0.006418 0.000000 0.000000 0.000000
# 3 -0.006418 -0.006418 0.026623 0.000000 0.000000 0.000000
# 4 0.000000 0.000000 0.000000 0.031800 0.000000 0.000000
# 5 0.000000 0.000000 0.000000 0.000000 0.031800 0.000000
# 6 0.000000 0.000000 0.000000 0.000000 0.000000 0.039709
#
#
# Mechanical properties :
#
#
# Convention : Reuss Voigt Hill
#
# Bulk Modulus (GPa) = 55.52088 67.14234 61.33161
# Shear Modulus (GPa) = 24.83645 26.80064 25.81854
#
# Velocity S-wave (km/s) = 3.72540 3.86991 3.79834
# Velocity P-wave (km/s) = 7.03775 7.58204 7.31496
#
# Compressibility (1/GPa) = 0.01801124
#
# Stress axis : x y z
#
# Youngs Moduli (GPa) = 70.46047 70.46047 37.56105
#
# Poissons Ratio (x) = 0.39897 0.24107
# Poissons Ratio (y) = 0.39897 0.24107
# Poissons Ratio (z) = 0.45222 0.45222
#
# Static dielectric constant tensor:
#      x y z
#    x 3.399210 0.000000 0.000000 
#    y 0.000000 3.399210 0.000000 
#    z 0.000000 0.000000 3.382460 
# 
# 
# High freq. dielectric constant tensor:
#      x y z
#    x 1.690850 0.000000 0.000000 
#    y 0.000000 1.690850 0.000000 
#    z 0.000000 0.000000 1.703240 
# 
# From -- ./inp_files/978.got.cif
#   From: 2010.03.12/outbox.cif.g09.slc.cpg/sg187_1_cif.got.tgz:978.got - 2010.04.01 11:58:23.
