data_PCOD8327808
_publ_section_title
;
Structure prediction by ZEFSAII (Michael W. Deem and Ramdas Pophale) SiO2 
 PCOD8327808
Probable space group: P -6 2 M
;
_chemical_formula_sum "Si O2"
_cell_formula_units_Z 96
_cell_length_a 14.079479
_cell_length_b 14.079479
_cell_length_c 26.940825
_cell_angle_alpha 90.000000
_cell_angle_beta 90.000000
_cell_angle_gamma 120.000000
_cell_volume 4625.031461
_symmetry_space_group_name_H-M "P -6 2 M"
_symmetry_group_IT_number 189
_symmetry_cell_setting 'hexagonal'
loop_
_space_group_symop_operation_xyz
x,y,z
-x+y,-x,-z
-y,x-y,z
x,y,-z
-x+y,-x,z
-y,x-y,-z
x-y,-y,-z
-x,-x+y,-z
y,x,-z
y,x,z
x-y,-y,z
-x,-x+y,z
loop_
_atom_site_type_symbol
_atom_site_label
_atom_site_fract_x
_atom_site_fract_y
_atom_site_fract_z
Si Si1 0.679573 0.551599 0.096757
Si Si2 0.246632 0.121348 0.719911
Si Si3 0.540572 0.417698 0.632750
Si Si4 0.476425 0.877160 0.258561
Si Si5 0.346070 0.470764 0.942803
Si Si6 0.326837 0.206096 0.615579
Si Si7 0.875462 0.315076 0.445546
Si Si8 0.434677 0.172613 0.789497
O O1 0.638096 0.638096 0.081524
O O2 0.786842 0.569234 0.066492
O O3 0.579043 0.427491 0.089117
O O4 0.720611 0.571822 0.152788
O O5 0.197834 0.197834 0.733421
O O6 0.325615 0.166593 0.671863
O O7 0.313265 0.119895 0.767518
O O8 0.149003 0.000000 0.707949
O O9 0.518118 0.518118 0.642947
O O10 0.559355 0.380057 0.686876
O O11 0.437825 0.319380 0.605627
O O12 0.645523 0.462118 0.595471
O O13 0.379224 0.889337 0.236030
O O14 0.499526 0.801611 0.221842
O O15 0.583635 0.000000 0.262550
O O16 0.372922 0.372922 0.930347
O O17 0.372906 0.505114 0.000000
O O18 0.221326 0.221326 0.606565
O O19 0.331209 0.124565 0.575099
O O20 0.818304 0.292426 0.500000
O O21 0.000000 0.411088 0.451773
#
# Coordination Sequence:
#
# PCOD8327808 Si02
#       8
#    12  12  12  12  12  12  12  12
#     4  11  23  39  61  95 133 169 210 265 328 384
#     4  11  22  38  59  86 120 163 211 258 304 361
#     4   9  19  36  55  76 104 141 182 231 285 339
#     4  11  22  38  57  81 115 155 198 246 291 349
#     4  10  22  41  66  93 123 167 219 268 322 379
#     4  10  20  37  59  82 109 144 193 243 291 348
#     4  10  21  37  57  81 110 143 180 230 300 374
#     4  12  23  37  58  87 122 162 201 242 304 368
#
# _framework density 20.756616000000001
#
# number of rings (size 3 to 8) (size 9 to 14) (size 15 to 20)
#    0.000    1.500    1.250    4.375    0.000    4.500 
#    0.750    1.250    0.000    0.500    0.000    0.000 
#    0.000    0.000    0.000    0.000    0.000    0.000 
#
# Total GULP energy -1189947.670205 kJ/mol
# GULP energy per Si atom -12395.288231 kJ/mol
# Density = 2.070937 g / cm^3
# Si number density = 20.756616 Si / 1000 Ang^3
#
#
#
# Elastic Constant Matrix: (Units=GPa)
#
#
# Indices 1 2 3 4 5 6 
#
# 1 92.8770 38.9828 35.4353 0.0000 0.0000 0.0000
# 2 38.9828 92.8770 35.4353 0.0000 0.0000 0.0000
# 3 35.4353 35.4353 106.4309 0.0000 0.0000 0.0000
# 4 0.0000 0.0000 0.0000 16.0523 0.0000 0.0000
# 5 0.0000 0.0000 0.0000 0.0000 16.0523 0.0000
# 6 0.0000 0.0000 0.0000 0.0000 0.0000 26.9471
#
#
#
# Elastic Compliance Matrix: (Units=1/GPa)
#
#
# Indices 1 2 3 4 5 6 
#
# 1 0.013896 -0.004659 -0.003075 0.000000 0.000000 0.000000
# 2 -0.004659 0.013896 -0.003075 0.000000 0.000000 0.000000
# 3 -0.003075 -0.003075 0.011444 0.000000 0.000000 0.000000
# 4 0.000000 0.000000 0.000000 0.062296 0.000000 0.000000
# 5 0.000000 0.000000 0.000000 0.000000 0.062296 0.000000
# 6 0.000000 0.000000 0.000000 0.000000 0.000000 0.037110
#
#
# Mechanical properties :
#
#
# Convention : Reuss Voigt Hill
#
# Bulk Modulus (GPa) = 56.76723 56.87685 56.82204
# Shear Modulus (GPa) = 21.88866 23.96579 22.92723
#
# Velocity S-wave (km/s) = 3.25089 3.40164 3.32712
# Velocity P-wave (km/s) = 6.44200 6.54901 6.49573
#
# Compressibility (1/GPa) = 0.01761580
#
# Stress axis : x y z
#
# Youngs Moduli (GPa) = 71.96438 71.96438 87.38559
#
# Poissons Ratio (x) = 0.33529 0.26873
# Poissons Ratio (y) = 0.33529 0.26873
# Poissons Ratio (z) = 0.22131 0.22131
#
# Static dielectric constant tensor:
#      x y z
#    x 3.814520 0.000000 0.000000 
#    y 0.000000 3.814520 0.000000 
#    z 0.000000 0.000000 3.819990 
# 
# 
# High freq. dielectric constant tensor:
#      x y z
#    x 1.806060 0.000000 0.000000 
#    y 0.000000 1.806060 0.000000 
#    z 0.000000 0.000000 1.806540 
# 
# From -- ./inp_files/3718.got.cif
#   From: 2010.03.12/outbox.cif.g09.slc.cpg/sg189_2_cif.got.tgz:3718.got - 2010.04.01 12:03:36.
