data_PCOD8327633
_publ_section_title
;
Structure prediction by ZEFSAII (Michael W. Deem and Ramdas Pophale) SiO2 
 PCOD8327633
Probable space group: P -6 2 M
;
_chemical_formula_sum "Si O2"
_cell_formula_units_Z 54
_cell_length_a 17.699042
_cell_length_b 17.699042
_cell_length_c 11.306649
_cell_angle_alpha 90.000000
_cell_angle_beta 90.000000
_cell_angle_gamma 120.000000
_cell_volume 3067.355139
_symmetry_space_group_name_H-M "P -6 2 M"
_symmetry_group_IT_number 189
_symmetry_cell_setting 'hexagonal'
loop_
_space_group_symop_operation_xyz
x,y,z
-x+y,-x,-z
-y,x-y,z
x,y,-z
-x+y,-x,z
-y,x-y,-z
x-y,-y,-z
-x,-x+y,-z
y,x,-z
y,x,z
x-y,-y,z
-x,-x+y,z
loop_
_atom_site_type_symbol
_atom_site_label
_atom_site_fract_x
_atom_site_fract_y
_atom_site_fract_z
Si Si1 0.843134 0.454397 0.362190
Si Si2 0.203246 0.203246 0.638927
Si Si3 0.277414 0.100647 0.753116
Si Si4 0.532584 0.726994 0.360763
Si Si5 0.000000 0.627463 0.358304
Si Si6 0.205427 0.100815 0.000000
O O1 0.859203 0.450974 0.500000
O O2 0.757327 0.461220 0.339669
O O3 0.847360 0.371434 0.310037
O O4 0.918573 0.542394 0.305044
O O5 0.200340 0.200340 0.500000
O O6 0.208888 0.119985 0.683431
O O7 0.288102 0.288102 0.691260
O O8 0.377246 0.159697 0.709780
O O9 0.269699 0.120638 0.889464
O O10 0.248630 0.000000 0.731150
O O11 0.557266 0.734184 0.500000
O O12 0.000000 0.630959 0.500000
O O13 0.162332 0.162332 0.000000
O O14 0.127762 0.000000 0.000000
#
# Coordination Sequence:
#
# PCOD8327633 Si02
#       6
#    12   6  12  12   6   6
#     4   9  17  28  45  71 105 143 176 207 252 323
#     4  11  20  35  55  79 114 144 172 218 285 351
#     4  11  23  37  56  80 107 143 185 236 285 326
#     4  10  19  32  52  81 115 146 181 224 274 335
#     4   9  16  28  45  69 102 143 175 202 249 323
#     4  10  21  40  62  78  96 136 198 246 277 326
#
# _framework density 17.604742999999999
#
# number of rings (size 3 to 8) (size 9 to 14) (size 15 to 20)
#    0.000    2.000    3.333    1.222    1.556    3.556 
#    0.667    0.000    0.000    1.333    0.000    1.556 
#    0.000    0.000    0.000    0.000    0.000    0.000 
#
# Total GULP energy -669041.715897 kJ/mol
# GULP energy per Si atom -12389.661405 kJ/mol
# Density = 1.756467 g / cm^3
# Si number density = 17.604743 Si / 1000 Ang^3
#
#
#
# Elastic Constant Matrix: (Units=GPa)
#
#
# Indices 1 2 3 4 5 6 
#
# 1 86.3067 30.0253 35.1234 0.0000 0.0000 0.0000
# 2 30.0253 86.3067 35.1234 0.0000 0.0000 0.0000
# 3 35.1234 35.1234 73.0523 0.0000 0.0000 0.0000
# 4 0.0000 0.0000 0.0000 17.0273 0.0000 0.0000
# 5 0.0000 0.0000 0.0000 0.0000 17.0273 0.0000
# 6 0.0000 0.0000 0.0000 0.0000 0.0000 28.1407
#
#
#
# Elastic Compliance Matrix: (Units=1/GPa)
#
#
# Indices 1 2 3 4 5 6 
#
# 1 0.014940 -0.002828 -0.005824 0.000000 0.000000 0.000000
# 2 -0.002828 0.014940 -0.005824 0.000000 0.000000 0.000000
# 3 -0.005824 -0.005824 0.019289 0.000000 0.000000 0.000000
# 4 0.000000 0.000000 0.000000 0.058729 0.000000 0.000000
# 5 0.000000 0.000000 0.000000 0.000000 0.058729 0.000000
# 6 0.000000 0.000000 0.000000 0.000000 0.000000 0.035536
#
#
# Mechanical properties :
#
#
# Convention : Reuss Voigt Hill
#
# Bulk Modulus (GPa) = 49.45764 49.57887 49.51825
# Shear Modulus (GPa) = 21.02130 22.13196 21.57663
#
# Velocity S-wave (km/s) = 3.45928 3.54949 3.50468
# Velocity P-wave (km/s) = 6.64152 6.70983 6.67577
#
# Compressibility (1/GPa) = 0.02021932
#
# Stress axis : x y z
#
# Youngs Moduli (GPa) = 66.93295 66.93295 51.84305
#
# Poissons Ratio (x) = 0.18926 0.30192
# Poissons Ratio (y) = 0.18926 0.30192
# Poissons Ratio (z) = 0.38980 0.38980
#
# Static dielectric constant tensor:
#      x y z
#    x 3.487520 0.000000 0.000000 
#    y 0.000000 3.487520 0.000000 
#    z 0.000000 0.000000 2.885660 
# 
# 
# High freq. dielectric constant tensor:
#      x y z
#    x 1.692380 0.000000 0.000000 
#    y 0.000000 1.692380 0.000000 
#    z 0.000000 0.000000 1.623520 
# 
# From -- ./inp_files/1853.got.cif
#   From: 2010.03.12/outbox.cif.g09.slc.cpg/sg189_1_cif.got.tgz:1853.got - 2010.04.01 12:03:36.
