data_PCOD8327145
_publ_section_title
;
Structure prediction by ZEFSAII (Michael W. Deem and Ramdas Pophale) SiO2 
 PCOD8327145
Probable space group: P -6 M 2
;
_chemical_formula_sum "Si O2"
_cell_formula_units_Z 66
_cell_length_a 12.702451
_cell_length_b 12.702451
_cell_length_c 28.073437
_cell_angle_alpha 90.000000
_cell_angle_beta 90.000000
_cell_angle_gamma 120.000000
_cell_volume 3922.846136
_symmetry_space_group_name_H-M "P -6 M 2"
_symmetry_group_IT_number 187
_symmetry_cell_setting 'hexagonal'
loop_
_space_group_symop_operation_xyz
x,y,z
-x+y,-x,-z
-y,x-y,z
x,y,-z
-x+y,-x,z
-y,x-y,-z
-y,-x,-z
-x+y,y,-z
x,x-y,-z
-x+y,y,z
x,x-y,z
-y,-x,z
loop_
_atom_site_type_symbol
_atom_site_label
_atom_site_fract_x
_atom_site_fract_y
_atom_site_fract_z
Si Si1 0.910749 0.576984 0.132148
Si Si2 0.246134 0.244545 0.323267
Si Si3 0.910831 0.577869 0.239681
Si Si4 0.245108 0.999747 0.947056
Si Si5 0.913436 0.332900 0.588323
Si Si6 0.578852 0.914384 0.500000
O O1 0.780760 0.561520 0.122268
O O2 0.895967 0.447984 0.123096
O O3 0.955617 0.622804 0.185870
O O4 0.006091 0.668380 0.093487
O O5 0.129406 0.258812 0.330811
O O6 0.309982 0.306772 0.273542
O O7 0.343180 0.315837 0.364298
O O8 0.204507 0.102254 0.323581
O O9 0.770217 0.540433 0.246461
O O10 0.922042 0.461021 0.252944
O O11 0.227519 0.113759 0.938515
O O12 0.298259 0.003421 0.000000
O O13 0.115507 0.884494 0.940387
O O14 0.892378 0.446189 0.595224
O O15 0.784458 0.215543 0.576639
O O16 0.005473 0.353979 0.545833
O O17 0.436933 0.873866 0.500000
O O18 0.592048 0.796024 0.500000
#
# Coordination Sequence:
#
# PCOD8327145 Si02
#       6
#    12  12  12  12  12   6
#     4   9  17  29  46  69  95 121 149 184 230 281
#     4  10  20  33  49  70  98 130 161 194 234 281
#     4   9  17  30  49  71  94 121 153 191 233 277
#     4   9  17  29  45  65  89 118 152 189 228 270
#     4  10  20  34  54  78 102 128 160 202 247 287
#     4  10  20  34  52  74 102 136 170 200 232 276
#
# _framework density 16.824518999999999
#
# number of rings (size 3 to 8) (size 9 to 14) (size 15 to 20)
#    0.000    2.545    0.000    2.364    0.000    3.273 
#    0.000    2.727    0.000   10.182    0.000    0.000 
#    0.000    0.000    0.000    0.000    0.000    0.000 
#
# Total GULP energy -818344.605461 kJ/mol
# GULP energy per Si atom -12399.160689 kJ/mol
# Density = 1.678623 g / cm^3
# Si number density = 16.824519 Si / 1000 Ang^3
#
#
#
# Elastic Constant Matrix: (Units=GPa)
#
#
# Indices 1 2 3 4 5 6 
#
# 1 92.1690 44.9578 54.8733 0.0000 0.0001 0.0000
# 2 44.9578 92.1690 54.8733 0.0000 -0.0001 0.0000
# 3 54.8733 54.8733 118.7144 0.0000 0.0000 0.0000
# 4 0.0000 0.0000 0.0000 27.5833 0.0000 -0.0001
# 5 0.0001 -0.0001 0.0000 0.0000 27.5833 0.0000
# 6 0.0000 0.0000 0.0000 -0.0001 0.0000 23.6056
#
#
#
# Elastic Compliance Matrix: (Units=1/GPa)
#
#
# Indices 1 2 3 4 5 6 
#
# 1 0.016378 -0.004804 -0.005350 0.000000 0.000000 0.000000
# 2 -0.004804 0.016378 -0.005350 0.000000 0.000000 0.000000
# 3 -0.005350 -0.005350 0.013369 0.000000 0.000000 0.000000
# 4 0.000000 0.000000 0.000000 0.036254 0.000000 0.000000
# 5 0.000000 0.000000 0.000000 0.000000 0.036254 0.000000
# 6 0.000000 0.000000 0.000000 0.000000 0.000000 0.042363
#
#
# Mechanical properties :
#
#
# Convention : Reuss Voigt Hill
#
# Bulk Modulus (GPa) = 66.14607 68.05125 67.09866
# Shear Modulus (GPa) = 25.37531 25.64430 25.50981
#
# Velocity S-wave (km/s) = 3.88781 3.90836 3.89810
# Velocity P-wave (km/s) = 7.71713 7.80401 7.76069
#
# Compressibility (1/GPa) = 0.01511806
#
# Stress axis : x y z
#
# Youngs Moduli (GPa) = 61.05806 61.05806 74.79756
#
# Poissons Ratio (x) = 0.29330 0.40017
# Poissons Ratio (y) = 0.29330 0.40017
# Poissons Ratio (z) = 0.32666 0.32666
#
# Static dielectric constant tensor:
#      x y z
#    x 3.038550 0.000000 0.000000 
#    y 0.000000 3.038550 0.000000 
#    z 0.000000 0.000000 3.507240 
# 
# 
# High freq. dielectric constant tensor:
#      x y z
#    x 1.638250 0.000000 0.000000 
#    y 0.000000 1.638250 0.000000 
#    z 0.000000 0.000000 1.667090 
# 
# From -- ./inp_files/4434.got.cif
#   From: 2010.03.12/outbox.cif.g09.slc.cpg/sg187_3_cif.got.tgz:4434.got - 2010.04.01 11:58:23.
