data_PCOD8327258
_publ_section_title
;
Structure prediction by ZEFSAII (Michael W. Deem and Ramdas Pophale) SiO2 
 PCOD8327258
Probable space group: P -6 M 2
;
_chemical_formula_sum "Si O2"
_cell_formula_units_Z 78
_cell_length_a 23.919577
_cell_length_b 23.919577
_cell_length_c 7.565322
_cell_angle_alpha 90.000000
_cell_angle_beta 90.000000
_cell_angle_gamma 120.000000
_cell_volume 3748.564945
_symmetry_space_group_name_H-M "P -6 M 2"
_symmetry_group_IT_number 187
_symmetry_cell_setting 'hexagonal'
loop_
_space_group_symop_operation_xyz
x,y,z
-x+y,-x,-z
-y,x-y,z
x,y,-z
-x+y,-x,z
-y,x-y,-z
-y,-x,-z
-x+y,y,-z
x,x-y,-z
-x+y,y,z
x,x-y,z
-y,-x,z
loop_
_atom_site_type_symbol
_atom_site_label
_atom_site_fract_x
_atom_site_fract_y
_atom_site_fract_z
Si Si1 0.598903 0.737174 0.710653
Si Si2 0.665423 0.201339 0.000000
Si Si3 0.484770 0.387151 0.704690
Si Si4 0.455504 0.789705 0.290451
Si Si5 0.875285 0.999412 0.790746
Si Si6 0.806237 0.734995 0.296363
Si Si7 0.665400 0.659654 0.290494
O O1 0.599528 0.736594 0.500000
O O2 0.622729 0.811365 0.774103
O O3 0.526883 0.689884 0.783646
O O4 0.640288 0.706171 0.789085
O O5 0.657963 0.159571 0.824741
O O6 0.735712 0.264289 0.000000
O O7 0.611456 0.222911 0.000000
O O8 0.483682 0.366771 0.500000
O O9 0.537806 0.462195 0.734895
O O10 0.415611 0.378636 0.761760
O O11 0.457166 0.795671 0.500000
O O12 0.404190 0.808379 0.210777
O O13 0.433141 0.716571 0.234950
O O14 0.863339 0.931670 0.712167
O O15 0.817987 0.010881 0.725769
O O16 0.876717 0.998225 0.000000
O O17 0.943306 0.056695 0.717343
O O18 0.804759 0.718205 0.500000
O O19 0.864325 0.728650 0.203291
O O20 0.737161 0.685176 0.211447
O O21 0.668339 0.667439 0.500000
#
# Coordination Sequence:
#
# PCOD8327258 Si02
#       7
#    12   6  12  12  12  12  12
#     4   8  14  23  35  56  86 120 164 214 259 310
#     4  10  21  38  60  88 119 150 182 220 268 324
#     4   9  19  36  57  83 115 148 185 228 270 319
#     4   8  12  17  26  43  71 108 149 193 239 286
#     4   9  17  30  47  66  89 119 155 198 248 302
#     4   9  18  31  45  64  91 120 153 196 243 292
#     4   9  17  30  48  69  96 132 170 211 261 312
#
# _framework density 20.807962
#
# number of rings (size 3 to 8) (size 9 to 14) (size 15 to 20)
#    0.000    3.231    0.000    1.308    0.000    3.692 
#    1.385    6.154    0.000    1.846    0.000    0.000 
#    0.000    0.000    0.000    0.000    0.000    0.000 
#
# Total GULP energy -966419.786582 kJ/mol
# GULP energy per Si atom -12389.997264 kJ/mol
# Density = 2.076060 g / cm^3
# Si number density = 20.807962 Si / 1000 Ang^3
#
#
#
# Elastic Constant Matrix: (Units=GPa)
#
#
# Indices 1 2 3 4 5 6 
#
# 1 158.8713 101.6972 17.4317 0.0000 0.0008 0.0000
# 2 101.6972 158.8713 17.4317 0.0000 -0.0008 0.0000
# 3 17.4317 17.4317 40.0867 0.0000 0.0000 0.0000
# 4 0.0000 0.0000 0.0000 4.9699 0.0000 -0.0008
# 5 0.0008 -0.0008 0.0000 0.0000 4.9699 0.0000
# 6 0.0000 0.0000 0.0000 -0.0008 0.0000 28.5871
#
#
#
# Elastic Compliance Matrix: (Units=1/GPa)
#
#
# Indices 1 2 3 4 5 6 
#
# 1 0.010783 -0.006708 -0.001772 0.000000 -0.000003 0.000000
# 2 -0.006708 0.010783 -0.001772 0.000000 0.000003 0.000000
# 3 -0.001772 -0.001772 0.026487 0.000000 0.000000 0.000000
# 4 0.000000 0.000000 0.000000 0.201210 0.000000 0.000006
# 5 -0.000003 0.000003 0.000000 0.000000 0.201210 0.000000
# 6 0.000000 0.000000 0.000000 0.000006 0.000000 0.034981
#
#
# Mechanical properties :
#
#
# Convention : Reuss Voigt Hill
#
# Bulk Modulus (GPa) = 36.29907 70.10559 53.20233
# Shear Modulus (GPa) = 9.70611 22.45665 16.08138
#
# Velocity S-wave (km/s) = 2.16211 3.28873 2.78303
# Velocity P-wave (km/s) = 4.86987 6.94160 5.99590
#
# Compressibility (1/GPa) = 0.02754892
#
# Stress axis : x y z
#
# Youngs Moduli (GPa) = 92.74176 92.74176 37.75437
#
# Poissons Ratio (x) = 0.62209 0.06690
# Poissons Ratio (y) = 0.62209 0.06690
# Poissons Ratio (z) = 0.16433 0.16433
#
# Static dielectric constant tensor:
#      x y z
#    x 4.008650 0.000000 0.000000 
#    y 0.000000 4.008650 0.000000 
#    z 0.000000 0.000000 3.314790 
# 
# 
# High freq. dielectric constant tensor:
#      x y z
#    x 1.809730 0.000000 0.000000 
#    y 0.000000 1.809730 0.000000 
#    z 0.000000 0.000000 1.781070 
# 
# From -- ./inp_files/1145.got.cif
#   From: 2010.03.12/outbox.cif.g09.slc.cpg/sg187_1_cif.got.tgz:1145.got - 2010.04.01 11:58:23.
