data_PCOD8327510
_publ_section_title
;
Structure prediction by ZEFSAII (Michael W. Deem and Ramdas Pophale) SiO2 
 PCOD8327510
Probable space group: P -6 2 M
;
_chemical_formula_sum "Si O2"
_cell_formula_units_Z 72
_cell_length_a 22.625194
_cell_length_b 22.625194
_cell_length_c 10.423756
_cell_angle_alpha 90.000000
_cell_angle_beta 90.000000
_cell_angle_gamma 120.000000
_cell_volume 4621.037491
_symmetry_space_group_name_H-M "P -6 2 M"
_symmetry_group_IT_number 189
_symmetry_cell_setting 'hexagonal'
loop_
_space_group_symop_operation_xyz
x,y,z
-x+y,-x,-z
-y,x-y,z
x,y,-z
-x+y,-x,z
-y,x-y,-z
x-y,-y,-z
-x,-x+y,-z
y,x,-z
y,x,z
x-y,-y,z
-x,-x+y,z
loop_
_atom_site_type_symbol
_atom_site_label
_atom_site_fract_x
_atom_site_fract_y
_atom_site_fract_z
Si Si1 0.637175 0.717687 0.000000
Si Si2 0.709472 0.789971 0.248090
Si Si3 0.438737 0.519899 0.749695
Si Si4 0.918326 0.413342 0.500000
Si Si5 0.919344 0.600038 0.141783
Si Si6 0.188641 0.266157 0.152166
Si Si7 0.080671 0.360507 0.500000
Si Si8 0.494534 0.081468 0.000000
O O1 0.658622 0.763154 0.872792
O O2 0.555998 0.668266 0.000000
O O3 0.672318 0.672318 0.000000
O O4 0.763060 0.763060 0.249735
O O5 0.751994 0.872217 0.231867
O O6 0.663015 0.768000 0.374905
O O7 0.482671 0.482671 0.744734
O O8 0.455380 0.566251 0.623242
O O9 0.357747 0.463881 0.760239
O O10 0.459060 0.568216 0.873837
O O11 0.889658 0.331752 0.500000
O O12 0.000000 0.453233 0.500000
O O13 0.900818 0.656146 0.191480
O O14 0.000000 0.635833 0.127488
O O15 0.887567 0.573340 0.000000
O O16 0.213459 0.213459 0.194818
O O17 0.175479 0.260430 0.000000
O O18 0.000000 0.325103 0.500000
O O19 0.453175 0.000000 0.000000
#
# Coordination Sequence:
#
# PCOD8327510 Si02
#       8
#     6  12  12   6  12  12   6   6
#     4   9  16  24  38  61  83 105 142 182 212 260
#     4  10  18  30  46  64  86 116 154 192 236 291
#     4   9  14  21  34  53  78 110 142 163 186 228
#     4   9  16  24  35  55  85 119 144 160 188 232
#     4   8  13  23  38  57  81 110 143 173 209 260
#     4   9  17  29  46  66  87 114 150 195 247 297
#     4   9  18  30  42  59  89 123 146 170 216 276
#     4   9  14  20  33  53  77 105 136 166 190 224
#
# _framework density 15.580916
#
# number of rings (size 3 to 8) (size 9 to 14) (size 15 to 20)
#    0.000    3.000    1.667    2.000    0.000    4.000 
#    0.000    1.250    0.000    2.333    0.000    0.000 
#    0.000    0.000    0.000   20.000    0.000   13.333 
#
# Total GULP energy -892209.032282 kJ/mol
# GULP energy per Si atom -12391.792115 kJ/mol
# Density = 1.554545 g / cm^3
# Si number density = 15.580916 Si / 1000 Ang^3
#
#
#
# Elastic Constant Matrix: (Units=GPa)
#
#
# Indices 1 2 3 4 5 6 
#
# 1 62.7506 31.1491 33.5283 0.0000 0.0000 0.0000
# 2 31.1491 62.7506 33.5283 0.0000 0.0000 0.0000
# 3 33.5283 33.5283 112.0033 0.0000 0.0000 0.0000
# 4 0.0000 0.0000 0.0000 16.7318 0.0000 0.0000
# 5 0.0000 0.0000 0.0000 0.0000 16.7318 0.0000
# 6 0.0000 0.0000 0.0000 0.0000 0.0000 15.8007
#
#
#
# Elastic Compliance Matrix: (Units=1/GPa)
#
#
# Indices 1 2 3 4 5 6 
#
# 1 0.022595 -0.009049 -0.004055 0.000000 0.000000 0.000000
# 2 -0.009049 0.022595 -0.004055 0.000000 0.000000 0.000000
# 3 -0.004055 -0.004055 0.011356 0.000000 0.000000 0.000000
# 4 0.000000 0.000000 0.000000 0.059766 0.000000 0.000000
# 5 0.000000 0.000000 0.000000 0.000000 0.059766 0.000000
# 6 0.000000 0.000000 0.000000 0.000000 0.000000 0.063288
#
#
# Mechanical properties :
#
#
# Convention : Reuss Voigt Hill
#
# Bulk Modulus (GPa) = 44.98961 48.21288 46.60125
# Shear Modulus (GPa) = 17.78769 19.13946 18.46357
#
# Velocity S-wave (km/s) = 3.38247 3.50864 3.44613
# Velocity P-wave (km/s) = 6.64773 6.88657 6.76820
#
# Compressibility (1/GPa) = 0.02222735
#
# Stress axis : x y z
#
# Youngs Moduli (GPa) = 44.25814 44.25814 88.05969
#
# Poissons Ratio (x) = 0.40051 0.35707
# Poissons Ratio (y) = 0.40051 0.35707
# Poissons Ratio (z) = 0.17946 0.17946
#
# Static dielectric constant tensor:
#      x y z
#    x 2.807340 0.000000 0.000000 
#    y 0.000000 2.807340 0.000000 
#    z 0.000000 0.000000 3.090840 
# 
# 
# High freq. dielectric constant tensor:
#      x y z
#    x 1.562130 0.000000 0.000000 
#    y 0.000000 1.562130 0.000000 
#    z 0.000000 0.000000 1.595360 
# 
# From -- ./inp_files/1380.got.cif
#   From: 2010.03.12/outbox.cif.g09.slc.cpg/sg189_1_cif.got.tgz:1380.got - 2010.04.01 12:03:36.
