data_PCOD8327684
_publ_section_title
;
Structure prediction by ZEFSAII (Michael W. Deem and Ramdas Pophale) SiO2 
 PCOD8327684
Probable space group: P -6 2 M
;
_chemical_formula_sum "Si O2"
_cell_formula_units_Z 44
_cell_length_a 17.000399
_cell_length_b 17.000399
_cell_length_c 9.353323
_cell_angle_alpha 90.000000
_cell_angle_beta 90.000000
_cell_angle_gamma 120.000000
_cell_volume 2341.072119
_symmetry_space_group_name_H-M "P -6 2 M"
_symmetry_group_IT_number 189
_symmetry_cell_setting 'hexagonal'
loop_
_space_group_symop_operation_xyz
x,y,z
-x+y,-x,-z
-y,x-y,z
x,y,-z
-x+y,-x,z
-y,x-y,-z
x-y,-y,-z
-x,-x+y,-z
y,x,-z
y,x,z
x-y,-y,z
-x,-x+y,z
loop_
_atom_site_type_symbol
_atom_site_label
_atom_site_fract_x
_atom_site_fract_y
_atom_site_fract_z
Si Si1 0.633907 0.803274 0.169047
Si Si2 0.347164 0.453975 0.659363
Si Si3 0.000000 0.000000 0.829443
Si Si4 0.178794 0.000000 0.830250
Si Si5 0.492671 0.600191 0.161577
O O1 0.614424 0.873857 0.250772
O O2 0.730911 0.820056 0.224567
O O3 0.554768 0.703294 0.211859
O O4 0.636425 0.820066 0.000000
O O5 0.320469 0.469210 0.500000
O O6 0.410439 0.410439 0.650433
O O7 0.403920 0.551312 0.738118
O O8 0.910485 0.910485 0.771108
O O9 0.000000 0.000000 0.000000
O O10 0.179250 0.000000 0.000000
O O11 0.553749 0.553749 0.171818
O O12 0.457978 0.595326 0.000000
#
# Coordination Sequence:
#
# PCOD8327684 Si02
#       5
#    12  12   2   6  12
#     4  10  19  34  58  86 111 142 185 231 280 334
#     4  10  22  37  53  77 110 145 183 225 271 329
#     4   9  18  30  48  84 127 152 178 231 289 329
#     4   9  18  32  53  86 119 148 186 237 285 333
#     4   9  17  34  57  80 105 135 176 226 276 325
#
# _framework density 18.794806999999999
#
# number of rings (size 3 to 8) (size 9 to 14) (size 15 to 20)
#    0.000    2.455    1.364    0.818    1.909    2.727 
#    1.636    0.682    0.000    0.000    0.000    0.000 
#    0.000    0.000    0.000    0.000    0.000    0.000 
#
# Total GULP energy -545591.664442 kJ/mol
# GULP energy per Si atom -12399.810555 kJ/mol
# Density = 1.875203 g / cm^3
# Si number density = 18.794807 Si / 1000 Ang^3
#
#
#
# Elastic Constant Matrix: (Units=GPa)
#
#
# Indices 1 2 3 4 5 6 
#
# 1 88.3624 44.9440 41.9687 0.0000 0.0000 0.0000
# 2 44.9440 88.3624 41.9687 0.0000 0.0000 0.0000
# 3 41.9687 41.9687 68.4766 0.0000 0.0000 0.0000
# 4 0.0000 0.0000 0.0000 16.6326 0.0000 0.0000
# 5 0.0000 0.0000 0.0000 0.0000 16.6326 0.0000
# 6 0.0000 0.0000 0.0000 0.0000 0.0000 21.7092
#
#
#
# Elastic Compliance Matrix: (Units=1/GPa)
#
#
# Indices 1 2 3 4 5 6 
#
# 1 0.017624 -0.005408 -0.007487 0.000000 0.000000 0.000000
# 2 -0.005408 0.017624 -0.007487 0.000000 0.000000 0.000000
# 3 -0.007487 -0.007487 0.023781 0.000000 0.000000 0.000000
# 4 0.000000 0.000000 0.000000 0.060123 0.000000 0.000000
# 5 0.000000 0.000000 0.000000 0.000000 0.060123 0.000000
# 6 0.000000 0.000000 0.000000 0.000000 0.000000 0.046063
#
#
# Mechanical properties :
#
#
# Convention : Reuss Voigt Hill
#
# Bulk Modulus (GPa) = 54.75055 55.88490 55.31772
# Shear Modulus (GPa) = 18.36957 18.74955 18.55956
#
# Velocity S-wave (km/s) = 3.12969 3.16189 3.14583
# Velocity P-wave (km/s) = 6.50030 6.56726 6.53386
#
# Compressibility (1/GPa) = 0.01826466
#
# Stress axis : x y z
#
# Youngs Moduli (GPa) = 56.74181 56.74181 42.05073
#
# Poissons Ratio (x) = 0.30686 0.31483
# Poissons Ratio (y) = 0.30686 0.31483
# Poissons Ratio (z) = 0.42482 0.42482
#
# Static dielectric constant tensor:
#      x y z
#    x 3.439110 0.000000 0.000000 
#    y 0.000000 3.439110 0.000000 
#    z 0.000000 0.000000 3.397910 
# 
# 
# High freq. dielectric constant tensor:
#      x y z
#    x 1.728680 0.000000 0.000000 
#    y 0.000000 1.728680 0.000000 
#    z 0.000000 0.000000 1.704460 
# 
# From -- ./inp_files/585.got.cif
#   From: 2010.03.12/outbox.cif.g09.slc.cpg/sg189_1_cif.got.tgz:585.got - 2010.04.01 12:03:36.
