data_PCOD8327081
_publ_section_title
;
Structure prediction by ZEFSAII (Michael W. Deem and Ramdas Pophale) SiO2 
 PCOD8327081
Probable space group: P -6 M 2
;
_chemical_formula_sum "Si O2"
_cell_formula_units_Z 60
_cell_length_a 20.767451
_cell_length_b 20.767451
_cell_length_c 9.190931
_cell_angle_alpha 90.000000
_cell_angle_beta 90.000000
_cell_angle_gamma 120.000000
_cell_volume 3432.863431
_symmetry_space_group_name_H-M "P -6 M 2"
_symmetry_group_IT_number 187
_symmetry_cell_setting 'hexagonal'
loop_
_space_group_symop_operation_xyz
x,y,z
-x+y,-x,-z
-y,x-y,z
x,y,-z
-x+y,-x,z
-y,x-y,-z
-y,-x,-z
-x+y,y,-z
x,x-y,-z
-x+y,y,z
x,x-y,z
-y,-x,z
loop_
_atom_site_type_symbol
_atom_site_label
_atom_site_fract_x
_atom_site_fract_y
_atom_site_fract_z
Si Si1 0.040851 0.447429 0.668529
Si Si2 0.407863 0.203932 0.170105
Si Si3 0.792102 0.970007 0.168832
Si Si4 0.875527 0.751053 0.673953
Si Si5 0.626838 0.517869 0.168825
Si Si6 0.116227 0.379824 0.836058
O O1 0.029552 0.429224 0.500000
O O2 0.064481 0.532241 0.702417
O O3 0.105009 0.433620 0.728312
O O4 0.964230 0.390716 0.744712
O O5 0.332024 0.166012 0.261183
O O6 0.460454 0.170393 0.211497
O O7 0.385975 0.192988 0.000000
O O8 0.815657 0.907829 0.199839
O O9 0.705836 0.936678 0.206397
O O10 0.837187 0.039699 0.273194
O O11 0.807580 0.994652 0.000000
O O12 0.872979 0.745958 0.500000
O O13 0.568376 0.431625 0.209969
O O14 0.620687 0.531775 0.000000
O O15 0.201449 0.402897 0.820510
O O16 0.098452 0.392955 0.000000
#
# Coordination Sequence:
#
# PCOD8327081 Si02
#       6
#    12   6  12   6  12  12
#     4  10  20  32  48  73 103 133 164 199 241 293
#     4  10  20  34  52  74 102 136 174 216 262 314
#     4   9  19  37  57  75  98 131 170 208 252 307
#     4  12  24  34  50  78 108 136 170 214 258 302
#     4   9  18  33  51  72  98 131 171 213 258 302
#     4   9  18  33  54  78 100 124 160 206 249 292
#
# _framework density 17.478120000000001
#
# number of rings (size 3 to 8) (size 9 to 14) (size 15 to 20)
#    0.000    2.400    0.000    3.900    0.000    8.400 
#    1.200    2.000    0.000    0.400    0.000    0.000 
#    0.000    0.000    0.000    0.000    0.000    0.000 
#
# Total GULP energy -744005.019372 kJ/mol
# GULP energy per Si atom -12400.083656 kJ/mol
# Density = 1.743834 g / cm^3
# Si number density = 17.478120 Si / 1000 Ang^3
#
#
#
# Elastic Constant Matrix: (Units=GPa)
#
#
# Indices 1 2 3 4 5 6 
#
# 1 101.8291 59.7904 50.6524 0.0000 -0.0002 0.0000
# 2 59.7904 101.8291 50.6524 0.0000 0.0002 0.0000
# 3 50.6524 50.6524 72.2000 0.0000 0.0000 0.0000
# 4 0.0000 0.0000 0.0000 15.7914 0.0000 0.0002
# 5 -0.0002 0.0002 0.0000 0.0000 15.7914 0.0000
# 6 0.0000 0.0000 0.0000 0.0002 0.0000 21.0193
#
#
#
# Elastic Compliance Matrix: (Units=1/GPa)
#
#
# Indices 1 2 3 4 5 6 
#
# 1 0.017416 -0.006372 -0.007748 0.000000 0.000000 0.000000
# 2 -0.006372 0.017416 -0.007748 0.000000 0.000000 0.000000
# 3 -0.007748 -0.007748 0.024722 0.000000 0.000000 0.000000
# 4 0.000000 0.000000 0.000000 0.063326 0.000000 -0.000001
# 5 0.000000 0.000000 0.000000 0.000000 0.063326 0.000000
# 6 0.000000 0.000000 0.000000 -0.000001 0.000000 0.047575
#
#
# Mechanical properties :
#
#
# Convention : Reuss Voigt Hill
#
# Bulk Modulus (GPa) = 63.22020 66.44983 64.83501
# Shear Modulus (GPa) = 17.68112 18.17128 17.92620
#
# Velocity S-wave (km/s) = 3.18404 3.22787 3.20603
# Velocity P-wave (km/s) = 7.05458 7.21066 7.13304
#
# Compressibility (1/GPa) = 0.01581773
#
# Stress axis : x y z
#
# Youngs Moduli (GPa) = 57.41942 57.41942 40.45056
#
# Poissons Ratio (x) = 0.36587 0.31341
# Poissons Ratio (y) = 0.36587 0.31341
# Poissons Ratio (z) = 0.44488 0.44488
#
# Static dielectric constant tensor:
#      x y z
#    x 3.275780 0.000000 0.000000 
#    y 0.000000 3.275780 0.000000 
#    z 0.000000 0.000000 3.230630 
# 
# 
# High freq. dielectric constant tensor:
#      x y z
#    x 1.673200 0.000000 0.000000 
#    y 0.000000 1.673200 0.000000 
#    z 0.000000 0.000000 1.671310 
# 
# From -- ./inp_files/656.got.cif
#   From: 2010.03.12/outbox.cif.g09.slc.cpg/sg187_1_cif.got.tgz:656.got - 2010.04.01 11:58:23.
