data_PCOD8327251
_publ_section_title
;
Structure prediction by ZEFSAII (Michael W. Deem and Ramdas Pophale) SiO2 
 PCOD8327251
Probable space group: P -6 M 2
;
_chemical_formula_sum "Si O2"
_cell_formula_units_Z 66
_cell_length_a 21.943691
_cell_length_b 21.943691
_cell_length_c 7.946504
_cell_angle_alpha 90.000000
_cell_angle_beta 90.000000
_cell_angle_gamma 120.000000
_cell_volume 3313.798494
_symmetry_space_group_name_H-M "P -6 M 2"
_symmetry_group_IT_number 187
_symmetry_cell_setting 'hexagonal'
loop_
_space_group_symop_operation_xyz
x,y,z
-x+y,-x,-z
-y,x-y,z
x,y,-z
-x+y,-x,z
-y,x-y,-z
-y,-x,-z
-x+y,y,-z
x,x-y,-z
-x+y,y,z
x,x-y,z
-y,-x,z
loop_
_atom_site_type_symbol
_atom_site_label
_atom_site_fract_x
_atom_site_fract_y
_atom_site_fract_z
Si Si1 0.713916 0.142791 0.186138
Si Si2 0.468913 0.665968 0.800754
Si Si3 0.521299 0.187494 0.500000
Si Si4 0.739542 0.022822 0.306134
Si Si5 0.618726 0.877023 0.302889
Si Si6 0.000195 0.861924 0.803736
O O1 0.782575 0.217426 0.193582
O O2 0.663046 0.142252 0.334318
O O3 0.738570 0.085663 0.208608
O O4 0.678364 0.131480 0.000000
O O5 0.459995 0.729998 0.729672
O O6 0.406660 0.593341 0.725491
O O7 0.542726 0.675014 0.739071
O O8 0.465749 0.664761 0.000000
O O9 0.598429 0.196857 0.500000
O O10 0.528954 0.264477 0.500000
O O11 0.725025 0.030380 0.500000
O O12 0.678328 0.950116 0.225606
O O13 0.812865 0.023841 0.290925
O O14 0.630386 0.877971 0.500000
O O15 0.624738 0.812369 0.221294
O O16 0.075639 0.924362 0.737025
O O17 0.942550 0.885100 0.767387
O O18 0.004857 0.849365 0.000000
#
# Coordination Sequence:
#
# PCOD8327251 Si02
#       6
#    12  12   6  12  12  12
#     4  10  21  38  61  90 123 157 196 242 287 338
#     4   9  17  30  49  72  97 126 163 211 268 329
#     4  10  21  40  66  96 127 158 192 234 288 348
#     4  11  21  35  56  80 109 150 197 243 292 346
#     4   9  19  34  50  71 102 138 179 229 282 335
#     4  10  21  36  54  78 110 148 191 242 300 359
#
# _framework density 19.916722
#
# number of rings (size 3 to 8) (size 9 to 14) (size 15 to 20)
#    0.000    2.182    0.909    2.091    0.000    7.273 
#    0.000    2.727    0.000    3.273    0.000    0.000 
#    0.000    0.000    0.000    0.000    0.000    0.000 
#
# Total GULP energy -818266.884382 kJ/mol
# GULP energy per Si atom -12397.983097 kJ/mol
# Density = 1.987139 g / cm^3
# Si number density = 19.916722 Si / 1000 Ang^3
#
#
#
# Elastic Constant Matrix: (Units=GPa)
#
#
# Indices 1 2 3 4 5 6 
#
# 1 72.4067 16.3424 31.7714 0.0000 0.0002 0.0000
# 2 16.3424 72.4067 31.7714 0.0000 -0.0002 0.0000
# 3 31.7714 31.7714 82.1314 0.0000 0.0000 0.0000
# 4 0.0000 0.0000 0.0000 23.0643 0.0000 -0.0002
# 5 0.0002 -0.0002 0.0000 0.0000 23.0643 0.0000
# 6 0.0000 0.0000 0.0000 -0.0002 0.0000 28.0322
#
#
#
# Elastic Compliance Matrix: (Units=1/GPa)
#
#
# Indices 1 2 3 4 5 6 
#
# 1 0.016710 -0.001126 -0.006028 0.000000 0.000000 0.000000
# 2 -0.001126 0.016710 -0.006028 0.000000 0.000000 0.000000
# 3 -0.006028 -0.006028 0.016840 0.000000 0.000000 0.000000
# 4 0.000000 0.000000 0.000000 0.043357 0.000000 0.000000
# 5 0.000000 0.000000 0.000000 0.000000 0.043357 0.000000
# 6 0.000000 0.000000 0.000000 0.000000 0.000000 0.035673
#
#
# Mechanical properties :
#
#
# Convention : Reuss Voigt Hill
#
# Bulk Modulus (GPa) = 41.85182 42.96837 42.41009
# Shear Modulus (GPa) = 24.15704 24.63611 24.39658
#
# Velocity S-wave (km/s) = 3.48645 3.52085 3.50370
# Velocity P-wave (km/s) = 6.10460 6.17652 6.14067
#
# Compressibility (1/GPa) = 0.02389383
#
# Stress axis : x y z
#
# Youngs Moduli (GPa) = 59.84324 59.84324 59.38354
#
# Poissons Ratio (x) = 0.06740 0.35799
# Poissons Ratio (y) = 0.06740 0.35799
# Poissons Ratio (z) = 0.36076 0.36076
#
# Static dielectric constant tensor:
#      x y z
#    x 3.649220 0.000000 0.000000 
#    y 0.000000 3.649220 0.000000 
#    z 0.000000 0.000000 3.722130 
# 
# 
# High freq. dielectric constant tensor:
#      x y z
#    x 1.768660 0.000000 0.000000 
#    y 0.000000 1.768660 0.000000 
#    z 0.000000 0.000000 1.772670 
# 
# From -- ./inp_files/775.got.cif
#   From: 2010.03.12/outbox.cif.g09.slc.cpg/sg187_1_cif.got.tgz:775.got - 2010.04.01 11:58:23.
