data_PCOD8327018
_publ_section_title
;
Structure prediction by ZEFSAII (Michael W. Deem and Ramdas Pophale) SiO2 
 PCOD8327018
Probable space group: P -6 M 2
;
_chemical_formula_sum "Si O2"
_cell_formula_units_Z 66
_cell_length_a 12.884990
_cell_length_b 12.884990
_cell_length_c 28.431608
_cell_angle_alpha 90.000000
_cell_angle_beta 90.000000
_cell_angle_gamma 120.000000
_cell_volume 4087.899649
_symmetry_space_group_name_H-M "P -6 M 2"
_symmetry_group_IT_number 187
_symmetry_cell_setting 'hexagonal'
loop_
_space_group_symop_operation_xyz
x,y,z
-x+y,-x,-z
-y,x-y,z
x,y,-z
-x+y,-x,z
-y,x-y,-z
-y,-x,-z
-x+y,y,-z
x,x-y,-z
-x+y,y,z
x,x-y,z
-y,-x,z
loop_
_atom_site_type_symbol
_atom_site_label
_atom_site_fract_x
_atom_site_fract_y
_atom_site_fract_z
Si Si1 0.427821 0.094700 0.579307
Si Si2 0.665291 0.576382 0.848368
Si Si3 0.243362 0.000998 0.500000
Si Si4 0.905472 0.333060 0.686844
Si Si5 0.757008 0.755985 0.766358
Si Si6 0.905634 0.335455 0.950279
O O1 0.541024 0.082047 0.565323
O O2 0.464424 0.232212 0.570841
O O3 0.388668 0.056149 0.633062
O O4 0.317552 0.007867 0.546447
O O5 0.774524 0.549048 0.847485
O O6 0.544961 0.455040 0.834521
O O7 0.685996 0.678213 0.811498
O O8 0.653720 0.625539 0.900422
O O9 0.124656 0.875345 0.500000
O O10 0.208988 0.104494 0.500000
O O11 0.918332 0.459166 0.700852
O O12 0.767795 0.232206 0.695458
O O13 0.992333 0.308445 0.719260
O O14 0.751678 0.875839 0.767008
O O15 0.894507 0.789013 0.767407
O O16 0.857339 0.428670 0.947544
O O17 0.795797 0.204204 0.953808
O O18 0.980921 0.358538 0.000000
#
# Coordination Sequence:
#
# PCOD8327018 Si02
#       6
#    12  12   6  12  12  12
#     4   9  17  30  50  75  98 118 142 177 224 273
#     4   9  16  26  43  67  91 113 138 173 219 267
#     4  10  20  32  46  66  94 128 162 192 220 250
#     4   9  17  30  50  75  98 116 136 171 223 277
#     4  10  20  32  45  61  84 117 154 187 216 250
#     4   8  12  18  31  55  87 116 136 158 199 260
#
# _framework density 16.145209999999999
#
# number of rings (size 3 to 8) (size 9 to 14) (size 15 to 20)
#    0.000    2.909    0.000    1.818    0.000    4.364 
#    0.000    2.727    0.000    7.091    0.000    0.000 
#    0.000    1.455    0.000    0.000    0.000    0.000 
#
# Total GULP energy -817750.219594 kJ/mol
# GULP energy per Si atom -12390.154842 kJ/mol
# Density = 1.610846 g / cm^3
# Si number density = 16.145210 Si / 1000 Ang^3
#
#
#
# Elastic Constant Matrix: (Units=GPa)
#
#
# Indices 1 2 3 4 5 6 
#
# 1 92.7336 50.5850 65.8303 0.0000 0.0001 0.0000
# 2 50.5850 92.7336 65.8303 0.0000 -0.0001 0.0000
# 3 65.8303 65.8303 142.8966 0.0000 0.0000 0.0000
# 4 0.0000 0.0000 0.0000 16.1289 0.0000 -0.0001
# 5 0.0001 -0.0001 0.0000 0.0000 16.1289 0.0000
# 6 0.0000 0.0000 0.0000 -0.0001 0.0000 21.0743
#
#
#
# Elastic Compliance Matrix: (Units=1/GPa)
#
#
# Indices 1 2 3 4 5 6 
#
# 1 0.017911 -0.005814 -0.005573 0.000000 0.000000 0.000000
# 2 -0.005814 0.017911 -0.005573 0.000000 0.000000 0.000000
# 3 -0.005573 -0.005573 0.012133 0.000000 0.000000 0.000000
# 4 0.000000 0.000000 0.000000 0.062000 0.000000 0.000000
# 5 0.000000 0.000000 0.000000 0.000000 0.062000 0.000000
# 6 0.000000 0.000000 0.000000 0.000000 0.000000 0.047451
#
#
# Mechanical properties :
#
#
# Convention : Reuss Voigt Hill
#
# Bulk Modulus (GPa) = 71.24939 76.98388 74.11664
# Shear Modulus (GPa) = 19.37938 20.40764 19.89351
#
# Velocity S-wave (km/s) = 3.46832 3.55914 3.51402
# Velocity P-wave (km/s) = 7.76306 8.04212 7.90382
#
# Compressibility (1/GPa) = 0.01403521
#
# Stress axis : x y z
#
# Youngs Moduli (GPa) = 55.83056 55.83056 82.42111
#
# Poissons Ratio (x) = 0.32461 0.45933
# Poissons Ratio (y) = 0.32461 0.45933
# Poissons Ratio (z) = 0.31114 0.31114
#
# Static dielectric constant tensor:
#      x y z
#    x 2.724180 0.000000 0.000000 
#    y 0.000000 2.724180 0.000000 
#    z 0.000000 0.000000 3.753290 
# 
# 
# High freq. dielectric constant tensor:
#      x y z
#    x 1.586210 0.000000 0.000000 
#    y 0.000000 1.586210 0.000000 
#    z 0.000000 0.000000 1.652350 
# 
# From -- ./inp_files/4429.got.cif
#   From: 2010.03.12/outbox.cif.g09.slc.cpg/sg187_3_cif.got.tgz:4429.got - 2010.04.01 11:58:23.
