data_PCOD8327374
_publ_section_title
;
Structure prediction by ZEFSAII (Michael W. Deem and Ramdas Pophale) SiO2 
 PCOD8327374
Probable space group: P -6 C 2
;
_chemical_formula_sum "Si O2"
_cell_formula_units_Z 72
_cell_length_a 24.197585
_cell_length_b 24.197585
_cell_length_c 8.786895
_cell_angle_alpha 90.000000
_cell_angle_beta 90.000000
_cell_angle_gamma 120.000000
_cell_volume 4455.640231
_symmetry_space_group_name_H-M "P -6 C 2"
_symmetry_group_IT_number 188
_symmetry_cell_setting 'hexagonal'
loop_
_space_group_symop_operation_xyz
x,y,z
-x+y,-x,1/2-z
-y,x-y,z
x,y,1/2-z
-x+y,-x,z
-y,x-y,1/2-z
-y,-x,-z
-x+y,y,-z
x,x-y,-z
-x+y,y,1/2+z
x,x-y,1/2+z
-y,-x,1/2+z
loop_
_atom_site_type_symbol
_atom_site_label
_atom_site_fract_x
_atom_site_fract_y
_atom_site_fract_z
Si Si1 0.003298 0.674848 0.073075
Si Si2 0.554827 0.003715 0.426837
Si Si3 0.883056 0.999368 0.568076
Si Si4 0.252246 0.069172 0.570399
Si Si5 0.140084 0.744769 0.926089
Si Si6 0.380563 0.865634 0.427602
O O1 0.021541 0.683989 0.250000
O O2 0.970121 0.599217 0.028765
O O3 0.951843 0.695939 0.033987
O O4 0.068800 0.718455 0.985386
O O5 0.546374 0.007069 0.250000
O O6 0.520449 0.040898 0.500000
O O7 0.518638 0.931551 0.482762
O O8 0.886050 0.999010 0.750000
O O9 0.952558 0.047443 0.500000
O O10 0.832693 0.019724 0.512747
O O11 0.859305 0.929653 0.500000
O O12 0.239620 0.070008 0.750000
O O13 0.278952 0.139476 0.500000
O O14 0.138184 0.757143 0.750000
O O15 0.166215 0.695239 0.956622
O O16 0.187825 0.812176 0.000000
O O17 0.396407 0.877242 0.250000
O O18 0.412918 0.825835 0.500000
#
# Coordination Sequence:
#
# PCOD8327374 Si02
#       6
#    12  12  12  12  12  12
#     4   9  19  33  48  65  90 120 149 180 220 265
#     4   9  15  25  42  65  89 113 137 166 201 241
#     4  11  21  34  50  68  87 110 143 189 241 291
#     4  10  20  35  51  68  89 118 153 188 226 274
#     4  10  20  31  45  65  89 115 147 185 229 274
#     4   9  16  26  41  61  81 106 137 170 207 253
#
# _framework density 16.159295
#
# number of rings (size 3 to 8) (size 9 to 14) (size 15 to 20)
#    0.000    2.333    0.000    5.667    0.000    4.667 
#    0.000    0.000    0.000    0.333    0.000    0.000 
#    0.000    0.000    0.000    0.500    0.000    6.000 
#
# Total GULP energy -892121.737106 kJ/mol
# GULP energy per Si atom -12390.579682 kJ/mol
# Density = 1.612252 g / cm^3
# Si number density = 16.159295 Si / 1000 Ang^3
#
#
#
# Elastic Constant Matrix: (Units=GPa)
#
#
# Indices 1 2 3 4 5 6 
#
# 1 89.2961 59.2995 52.5121 0.0000 0.0000 0.0000
# 2 59.2995 89.2961 52.5121 0.0000 0.0000 0.0000
# 3 52.5121 52.5121 93.9831 0.0000 0.0000 0.0000
# 4 0.0000 0.0000 0.0000 21.8294 0.0000 0.0000
# 5 0.0000 0.0000 0.0000 0.0000 21.8294 0.0000
# 6 0.0000 0.0000 0.0000 0.0000 0.0000 14.9983
#
#
#
# Elastic Compliance Matrix: (Units=1/GPa)
#
#
# Indices 1 2 3 4 5 6 
#
# 1 0.022229 -0.011108 -0.006214 0.000000 0.000000 0.000000
# 2 -0.011108 0.022229 -0.006214 0.000000 0.000000 0.000000
# 3 -0.006214 -0.006214 0.017584 0.000000 0.000000 0.000000
# 4 0.000000 0.000000 0.000000 0.045810 0.000000 0.000000
# 5 0.000000 0.000000 0.000000 0.000000 0.045810 0.000000
# 6 0.000000 0.000000 0.000000 0.000000 0.000000 0.066674
#
#
# Mechanical properties :
#
#
# Convention : Reuss Voigt Hill
#
# Bulk Modulus (GPa) = 66.79477 66.80252 66.79864
# Shear Modulus (GPa) = 18.35541 18.94820 18.65181
#
# Velocity S-wave (km/s) = 3.37397 3.42802 3.40111
# Velocity P-wave (km/s) = 7.52351 7.55633 7.53994
#
# Compressibility (1/GPa) = 0.01497123
#
# Stress axis : x y z
#
# Youngs Moduli (GPa) = 44.98550 44.98550 56.86876
#
# Poissons Ratio (x) = 0.49969 0.35339
# Poissons Ratio (y) = 0.49969 0.35339
# Poissons Ratio (z) = 0.27954 0.27954
#
# Static dielectric constant tensor:
#      x y z
#    x 3.312240 0.000000 0.000000 
#    y 0.000000 3.312240 0.000000 
#    z 0.000000 0.000000 3.230080 
# 
# 
# High freq. dielectric constant tensor:
#      x y z
#    x 1.595860 0.000000 0.000000 
#    y 0.000000 1.595860 0.000000 
#    z 0.000000 0.000000 1.641860 
# 
# From -- ./inp_files/1056.got.cif
#   From: 2010.03.12/outbox.cif.g09.slc.cpg/sg188_1_cif.got.tgz:1056.got - 2010.04.01 12:01:06.
