data_PCOD8327169
_publ_section_title
;
Structure prediction by ZEFSAII (Michael W. Deem and Ramdas Pophale) SiO2 
 PCOD8327169
Probable space group: P -6 M 2
;
_chemical_formula_sum "Si O2"
_cell_formula_units_Z 54
_cell_length_a 12.862392
_cell_length_b 12.862392
_cell_length_c 22.803997
_cell_angle_alpha 90.000000
_cell_angle_beta 90.000000
_cell_angle_gamma 120.000000
_cell_volume 3267.270483
_symmetry_space_group_name_H-M "P -6 M 2"
_symmetry_group_IT_number 187
_symmetry_cell_setting 'hexagonal'
loop_
_space_group_symop_operation_xyz
x,y,z
-x+y,-x,-z
-y,x-y,z
x,y,-z
-x+y,-x,z
-y,x-y,-z
-y,-x,-z
-x+y,y,-z
x,x-y,-z
-x+y,y,z
x,x-y,z
-y,-x,z
loop_
_atom_site_type_symbol
_atom_site_label
_atom_site_fract_x
_atom_site_fract_y
_atom_site_fract_z
Si Si1 0.760543 0.760202 0.707188
Si Si2 0.908411 0.333091 0.065557
Si Si3 0.666687 0.577465 0.393848
Si Si4 0.759068 0.999276 0.159927
Si Si5 0.335722 0.912255 0.500000
O O1 0.745212 0.872606 0.688939
O O2 0.678935 0.646324 0.666699
O O3 0.715823 0.718131 0.773509
O O4 0.900725 0.801449 0.700705
O O5 0.900935 0.450468 0.074880
O O6 0.776540 0.223461 0.076942
O O7 0.999989 0.335259 0.114077
O O8 0.953785 0.327210 0.000000
O O9 0.786583 0.573165 0.409113
O O10 0.557899 0.442102 0.388305
O O11 0.643028 0.650443 0.443771
O O12 0.768884 0.884442 0.145848
O O13 0.888833 0.111168 0.148281
O O14 0.205279 0.794722 0.500000
O O15 0.436149 0.872298 0.500000
#
# Coordination Sequence:
#
# PCOD8327169 Si02
#       5
#    12  12  12  12   6
#     4   9  17  30  48  69  93 122 155 191 231 274
#     4   9  17  29  45  65  89 118 152 189 229 273
#     4  10  20  33  50  72  99 129 158 189 227 273
#     4   9  17  29  46  68  93 120 150 186 230 278
#     4  10  20  34  52  72  94 122 158 198 234 268
#
# _framework density 16.527556000000001
#
# number of rings (size 3 to 8) (size 9 to 14) (size 15 to 20)
#    0.000    2.667    0.000    2.000    0.000    4.000 
#    0.000    1.111    0.000    8.000    0.000    0.000 
#    0.000    0.000    0.000    0.000    0.000    0.000 
#
# Total GULP energy -669534.930336 kJ/mol
# GULP energy per Si atom -12398.795006 kJ/mol
# Density = 1.648994 g / cm^3
# Si number density = 16.527556 Si / 1000 Ang^3
#
#
#
# Elastic Constant Matrix: (Units=GPa)
#
#
# Indices 1 2 3 4 5 6 
#
# 1 91.1473 46.1021 59.5684 0.0000 0.0002 0.0000
# 2 46.1021 91.1473 59.5684 0.0000 -0.0002 0.0000
# 3 59.5684 59.5684 113.9185 0.0000 0.0000 0.0000
# 4 0.0000 0.0000 0.0000 28.3622 0.0000 -0.0002
# 5 0.0002 -0.0002 0.0000 0.0000 28.3622 0.0000
# 6 0.0000 0.0000 0.0000 -0.0002 0.0000 22.5226
#
#
#
# Elastic Compliance Matrix: (Units=1/GPa)
#
#
# Indices 1 2 3 4 5 6 
#
# 1 0.017771 -0.004429 -0.006976 0.000000 0.000000 0.000000
# 2 -0.004429 0.017771 -0.006976 0.000000 0.000000 0.000000
# 3 -0.006976 -0.006976 0.016074 0.000000 0.000000 0.000000
# 4 0.000000 0.000000 0.000000 0.035258 0.000000 0.000000
# 5 0.000000 0.000000 0.000000 0.000000 0.035258 0.000000
# 6 0.000000 0.000000 0.000000 0.000000 0.000000 0.044400
#
#
# Mechanical properties :
#
#
# Convention : Reuss Voigt Hill
#
# Bulk Modulus (GPa) = 67.33120 69.63231 68.48175
# Shear Modulus (GPa) = 24.00997 24.58103 24.29550
#
# Velocity S-wave (km/s) = 3.81560 3.86070 3.83822
# Velocity P-wave (km/s) = 7.76137 7.88009 7.82096
#
# Compressibility (1/GPa) = 0.01485196
#
# Stress axis : x y z
#
# Youngs Moduli (GPa) = 56.27187 56.27187 62.21131
#
# Poissons Ratio (x) = 0.24923 0.43402
# Poissons Ratio (y) = 0.24923 0.43402
# Poissons Ratio (z) = 0.39258 0.39258
#
# Static dielectric constant tensor:
#      x y z
#    x 3.029950 0.000000 0.000000 
#    y 0.000000 3.029950 0.000000 
#    z 0.000000 0.000000 3.389210 
# 
# 
# High freq. dielectric constant tensor:
#      x y z
#    x 1.628440 0.000000 0.000000 
#    y 0.000000 1.628440 0.000000 
#    z 0.000000 0.000000 1.649520 
# 
# From -- ./inp_files/3848.got.cif
#   From: 2010.03.12/outbox.cif.g09.slc.cpg/sg187_2_cif.got.tgz:3848.got - 2010.04.01 11:58:23.
