data_PCOD8327588
_publ_section_title
;
Structure prediction by ZEFSAII (Michael W. Deem and Ramdas Pophale) SiO2 
 PCOD8327588
Probable space group: P -6 2 M
;
_chemical_formula_sum "Si O2"
_cell_formula_units_Z 72
_cell_length_a 23.685335
_cell_length_b 23.685335
_cell_length_c 9.076585
_cell_angle_alpha 90.000000
_cell_angle_beta 90.000000
_cell_angle_gamma 120.000000
_cell_volume 4409.731776
_symmetry_space_group_name_H-M "P -6 2 M"
_symmetry_group_IT_number 189
_symmetry_cell_setting 'hexagonal'
loop_
_space_group_symop_operation_xyz
x,y,z
-x+y,-x,-z
-y,x-y,z
x,y,-z
-x+y,-x,z
-y,x-y,-z
x-y,-y,-z
-x,-x+y,-z
y,x,-z
y,x,z
x-y,-y,z
-x,-x+y,z
loop_
_atom_site_type_symbol
_atom_site_label
_atom_site_fract_x
_atom_site_fract_y
_atom_site_fract_z
Si Si1 0.477871 0.405453 0.169821
Si Si2 0.533159 0.269629 0.326411
Si Si3 0.394583 0.800628 0.174508
Si Si4 0.406090 0.273475 0.328896
Si Si5 0.851873 0.925559 0.173868
Si Si6 0.075386 0.814091 0.671936
O O1 0.464771 0.464771 0.206097
O O2 0.551895 0.427104 0.213267
O O3 0.425793 0.341868 0.255146
O O4 0.466365 0.385924 0.000000
O O5 0.549034 0.276742 0.500000
O O6 0.540741 0.211885 0.254362
O O7 0.583614 0.335854 0.244188
O O8 0.459063 0.251535 0.295275
O O9 0.384004 0.788119 0.000000
O O10 0.401200 0.284698 0.500000
O O11 0.335638 0.218142 0.270480
O O12 0.882421 0.882421 0.231885
O O13 0.780868 0.898309 0.245009
O O14 0.899813 0.000000 0.223477
O O15 0.843538 0.920522 0.000000
O O16 0.085791 0.829596 0.500000
O O17 0.000000 0.764856 0.710386
#
# Coordination Sequence:
#
# PCOD8327588 Si02
#       6
#    12  12  12  12  12  12
#     4   9  18  31  47  68  92 117 146 181 220 263
#     4  10  19  31  47  67  91 118 150 185 220 260
#     4  10  19  31  47  67  92 120 149 181 221 266
#     4   9  18  31  47  67  91 119 148 180 219 262
#     4   9  17  29  45  65  89 117 148 182 220 261
#     4   9  17  29  45  66  91 117 145 178 218 263
#
# _framework density 16.327522999999999
#
# number of rings (size 3 to 8) (size 9 to 14) (size 15 to 20)
#    0.000    2.667    0.000    2.000    0.000    4.000 
#    0.000    1.667    0.000    2.000    0.000    4.667 
#    0.000    0.000    0.000    0.000    0.000    0.000 
#
# Total GULP energy -892799.350508 kJ/mol
# GULP energy per Si atom -12399.990979 kJ/mol
# Density = 1.629036 g / cm^3
# Si number density = 16.327523 Si / 1000 Ang^3
#
#
#
# Elastic Constant Matrix: (Units=GPa)
#
#
# Indices 1 2 3 4 5 6 
#
# 1 111.4178 60.0532 38.8255 0.0000 0.0000 0.0000
# 2 60.0532 111.4178 38.8255 0.0000 0.0000 0.0000
# 3 38.8255 38.8255 51.3144 0.0000 0.0000 0.0000
# 4 0.0000 0.0000 0.0000 25.0634 0.0000 0.0000
# 5 0.0000 0.0000 0.0000 0.0000 25.0634 0.0000
# 6 0.0000 0.0000 0.0000 0.0000 0.0000 25.6823
#
#
#
# Elastic Compliance Matrix: (Units=1/GPa)
#
#
# Indices 1 2 3 4 5 6 
#
# 1 0.014170 -0.005298 -0.006712 0.000000 0.000000 0.000000
# 2 -0.005298 0.014170 -0.006712 0.000000 0.000000 0.000000
# 3 -0.006712 -0.006712 0.029645 0.000000 0.000000 0.000000
# 4 0.000000 0.000000 0.000000 0.039899 0.000000 0.000000
# 5 0.000000 0.000000 0.000000 0.000000 0.039899 0.000000
# 6 0.000000 0.000000 0.000000 0.000000 0.000000 0.038937
#
#
# Mechanical properties :
#
#
# Convention : Reuss Voigt Hill
#
# Bulk Modulus (GPa) = 48.68854 61.06204 54.87529
# Shear Modulus (GPa) = 22.62301 24.25818 23.44059
#
# Velocity S-wave (km/s) = 3.72637 3.85869 3.79311
# Velocity P-wave (km/s) = 6.95695 7.57179 7.27087
#
# Compressibility (1/GPa) = 0.02053871
#
# Stress axis : x y z
#
# Youngs Moduli (GPa) = 70.57083 70.57083 33.73211
#
# Poissons Ratio (x) = 0.37392 0.22643
# Poissons Ratio (y) = 0.37392 0.22643
# Poissons Ratio (z) = 0.47371 0.47371
#
# Static dielectric constant tensor:
#      x y z
#    x 3.132850 0.000000 0.000000 
#    y 0.000000 3.132850 0.000000 
#    z 0.000000 0.000000 3.094800 
# 
# 
# High freq. dielectric constant tensor:
#      x y z
#    x 1.618270 0.000000 0.000000 
#    y 0.000000 1.618270 0.000000 
#    z 0.000000 0.000000 1.632490 
# 
# From -- ./inp_files/1227.got.cif
#   From: 2010.03.12/outbox.cif.g09.slc.cpg/sg189_1_cif.got.tgz:1227.got - 2010.04.01 12:03:36.
