data_PCOD8327350
_publ_section_title
;
Structure prediction by ZEFSAII (Michael W. Deem and Ramdas Pophale) SiO2 
 PCOD8327350
Probable space group: P -6 C 2
;
_chemical_formula_sum "Si O2"
_cell_formula_units_Z 76
_cell_length_a 17.469029
_cell_length_b 17.469029
_cell_length_c 16.301025
_cell_angle_alpha 90.000000
_cell_angle_beta 90.000000
_cell_angle_gamma 120.000000
_cell_volume 4308.073228
_symmetry_space_group_name_H-M "P -6 C 2"
_symmetry_group_IT_number 188
_symmetry_cell_setting 'hexagonal'
loop_
_space_group_symop_operation_xyz
x,y,z
-x+y,-x,1/2-z
-y,x-y,z
x,y,1/2-z
-x+y,-x,z
-y,x-y,1/2-z
-y,-x,-z
-x+y,y,-z
x,x-y,-z
-x+y,y,1/2+z
x,x-y,1/2+z
-y,-x,1/2+z
loop_
_atom_site_type_symbol
_atom_site_label
_atom_site_fract_x
_atom_site_fract_y
_atom_site_fract_z
Si Si1 0.035581 0.471684 0.654402
Si Si2 0.145222 0.147257 0.447023
Si Si3 0.750682 0.221529 0.094715
Si Si4 0.313263 0.270406 0.155336
Si Si5 0.852844 0.414037 0.346037
Si Si6 0.376394 0.775604 0.653222
Si Si7 0.000000 0.000000 0.655199
O O1 0.043176 0.491615 0.750000
O O2 0.128395 0.542385 0.610589
O O3 0.017688 0.373922 0.637195
O O4 0.953855 0.481796 0.621007
O O5 0.092490 0.184979 0.500000
O O6 0.232523 0.226052 0.407557
O O7 0.170114 0.085057 0.500000
O O8 0.081771 0.091062 0.373918
O O9 0.761058 0.145033 0.138279
O O10 0.652572 0.207191 0.105565
O O11 0.820575 0.312592 0.137623
O O12 0.774451 0.225550 0.000000
O O13 0.282316 0.247960 0.250000
O O14 0.847285 0.432213 0.250000
O O15 0.272880 0.705697 0.628893
O O16 0.379845 0.789595 0.750000
O O17 0.000000 0.000000 0.750000
#
# Coordination Sequence:
#
# PCOD8327350 Si02
#       7
#    12  12  12  12  12  12   4
#     4   8  15  27  45  71  98 130 166 207 253 299
#     4   9  18  32  51  73  98 128 164 209 258 316
#     4  11  21  33  50  73 103 141 183 223 271 323
#     4  10  19  32  52  74 102 137 172 214 265 319
#     4  10  19  32  49  71 103 138 182 225 263 311
#     4   7  11  21  43  67  91 122 152 188 239 292
#     4   9  16  29  52  75  94 125 166 204 247 305
#
# _framework density 17.641297999999999
#
# number of rings (size 3 to 8) (size 9 to 14) (size 15 to 20)
#    0.316    2.526    0.000    4.737    0.000    0.000 
#    0.000    0.000   10.421    0.000    0.000    0.000 
#    0.000    5.053    0.000    0.000    0.000    0.000 
#
# Total GULP energy -941676.830712 kJ/mol
# GULP energy per Si atom -12390.484615 kJ/mol
# Density = 1.760115 g / cm^3
# Si number density = 17.641298 Si / 1000 Ang^3
#
#
#
# Elastic Constant Matrix: (Units=GPa)
#
#
# Indices 1 2 3 4 5 6 
#
# 1 28.8652 156.7136 26.0653 -0.0002 0.0000 0.0000
# 2 156.7136 28.8652 26.0653 0.0002 0.0000 0.0000
# 3 26.0653 26.0653 62.4515 0.0000 0.0000 0.0000
# 4 -0.0002 0.0002 0.0000 10.0602 0.0000 0.0000
# 5 0.0000 0.0000 0.0000 0.0000 10.0602 -0.0002
# 6 0.0000 0.0000 0.0000 0.0000 -0.0002 -63.9242
#
#
#
# Elastic Compliance Matrix: (Units=1/GPa)
#
#
# Indices 1 2 3 4 5 6 
#
# 1 -0.000859 0.006963 -0.002548 0.000000 0.000000 0.000000
# 2 0.006963 -0.000859 -0.002548 0.000000 0.000000 0.000000
# 3 -0.002548 -0.002548 0.018139 0.000000 0.000000 0.000000
# 4 0.000000 0.000000 0.000000 0.099402 0.000000 0.000000
# 5 0.000000 0.000000 0.000000 0.000000 0.099402 0.000000
# 6 0.000000 0.000000 0.000000 0.000000 0.000000 -0.015644
#
#
# Mechanical properties :
#
#
# Convention : Reuss Voigt Hill
#
# Bulk Modulus (GPa) = 49.61131 59.76337 54.68734
# Shear Modulus (GPa) = 24.68343 -14.67157 5.00593
#
# Velocity S-wave (km/s) = 3.74463 -2.88698 1.68635
# Velocity P-wave (km/s) = 6.84687 4.77887 5.90412
#
# Compressibility (1/GPa) = 0.02015669
#
# Stress axis : x y z
#
# Youngs Moduli (GPa) = -1164.45001 -1164.45000 55.12954
#
# Poissons Ratio (x) = 8.10806 0.14045
# Poissons Ratio (y) = 8.10806 0.14045
# Poissons Ratio (z) = -2.96668 -2.96668
#
# Static dielectric constant tensor:
#      x y z
#    x 3.431410 0.000000 0.000000 
#    y 0.000000 3.431410 0.000000 
#    z 0.000000 0.000000 3.052680 
# 
# 
# High freq. dielectric constant tensor:
#      x y z
#    x 1.675450 0.000000 0.000000 
#    y 0.000000 1.675450 0.000000 
#    z 0.000000 0.000000 1.666070 
# 
# From -- ./inp_files/2545.got.cif
#   From: 2010.03.12/outbox.cif.g09.slc.cpg/sg188_2_cif.got.tgz:2545.got - 2010.04.01 12:01:06.
