data_PCOD8327711
_publ_section_title
;
Structure prediction by ZEFSAII (Michael W. Deem and Ramdas Pophale) SiO2 
 PCOD8327711
Probable space group: P -6 2 M
;
_chemical_formula_sum "Si O2"
_cell_formula_units_Z 72
_cell_length_a 23.891935
_cell_length_b 23.891935
_cell_length_c 8.994207
_cell_angle_alpha 90.000000
_cell_angle_beta 90.000000
_cell_angle_gamma 120.000000
_cell_volume 4446.273354
_symmetry_space_group_name_H-M "P -6 2 M"
_symmetry_group_IT_number 189
_symmetry_cell_setting 'hexagonal'
loop_
_space_group_symop_operation_xyz
x,y,z
-x+y,-x,-z
-y,x-y,z
x,y,-z
-x+y,-x,z
-y,x-y,-z
x-y,-y,-z
-x,-x+y,-z
y,x,-z
y,x,z
x-y,-y,z
-x,-x+y,z
loop_
_atom_site_type_symbol
_atom_site_label
_atom_site_fract_x
_atom_site_fract_y
_atom_site_fract_z
Si Si1 0.925290 0.619177 0.170342
Si Si2 0.516144 0.378522 0.675774
Si Si3 0.516853 0.255512 0.336332
Si Si4 0.632646 0.491203 0.824611
Si Si5 0.701197 0.627696 0.674150
Si Si6 0.635975 0.826713 0.336536
O O1 0.908050 0.556218 0.266154
O O2 0.885466 0.654265 0.223543
O O3 0.000000 0.671149 0.191293
O O4 0.907482 0.597939 0.000000
O O5 0.515717 0.388336 0.500000
O O6 0.542741 0.329306 0.715066
O O7 0.562291 0.446253 0.754618
O O8 0.544337 0.253428 0.500000
O O9 0.535846 0.216253 0.221833
O O10 0.440532 0.223325 0.346317
O O11 0.657761 0.563204 0.767291
O O12 0.626652 0.489747 0.000000
O O13 0.691781 0.608815 0.500000
O O14 0.679634 0.679634 0.713167
O O15 0.777526 0.660510 0.717129
O O16 0.664068 0.855433 0.500000
#
# Coordination Sequence:
#
# PCOD8327711 Si02
#       6
#    12  12  12  12  12  12
#     4  10  20  32  47  69  95 121 149 183 226 272
#     4  10  20  34  50  64  83 115 152 191 234 279
#     4   8  16  32  49  62  78 107 146 182 223 277
#     4  11  21  31  46  67  91 115 143 188 239 283
#     4   9  18  33  51  69  91 121 154 184 219 268
#     4   8  15  29  49  69  88 114 147 180 213 257
#
# _framework density 16.193335999999999
#
# number of rings (size 3 to 8) (size 9 to 14) (size 15 to 20)
#    0.000    2.667    0.000    4.500    0.000    9.000 
#    1.000    0.000    0.000    0.000    0.000    0.000 
#    0.000    0.000    0.000    0.500    0.000    7.667 
#
# Total GULP energy -892430.362319 kJ/mol
# GULP energy per Si atom -12394.866143 kJ/mol
# Density = 1.615648 g / cm^3
# Si number density = 16.193336 Si / 1000 Ang^3
#
#
#
# Elastic Constant Matrix: (Units=GPa)
#
#
# Indices 1 2 3 4 5 6 
#
# 1 74.1294 44.2334 46.0920 0.0000 0.0000 0.0000
# 2 44.2334 74.1294 46.0920 0.0000 0.0000 0.0000
# 3 46.0920 46.0920 103.5030 0.0000 0.0000 0.0000
# 4 0.0000 0.0000 0.0000 19.5474 0.0000 0.0000
# 5 0.0000 0.0000 0.0000 0.0000 19.5474 0.0000
# 6 0.0000 0.0000 0.0000 0.0000 0.0000 14.9480
#
#
#
# Elastic Compliance Matrix: (Units=1/GPa)
#
#
# Indices 1 2 3 4 5 6 
#
# 1 0.023192 -0.010257 -0.005760 0.000000 0.000000 0.000000
# 2 -0.010257 0.023192 -0.005760 0.000000 0.000000 0.000000
# 3 -0.005760 -0.005760 0.014792 0.000000 0.000000 0.000000
# 4 0.000000 0.000000 0.000000 0.051158 0.000000 0.000000
# 5 0.000000 0.000000 0.000000 0.000000 0.051158 0.000000
# 6 0.000000 0.000000 0.000000 0.000000 0.000000 0.066899
#
#
# Mechanical properties :
#
#
# Convention : Reuss Voigt Hill
#
# Bulk Modulus (GPa) = 56.75115 58.28849 57.51982
# Shear Modulus (GPa) = 17.86873 18.49818 18.18346
#
# Velocity S-wave (km/s) = 3.32544 3.38351 3.35460
# Velocity P-wave (km/s) = 7.06165 7.16503 7.11353
#
# Compressibility (1/GPa) = 0.01762079
#
# Stress axis : x y z
#
# Youngs Moduli (GPa) = 43.11824 43.11824 67.60539
#
# Poissons Ratio (x) = 0.44228 0.38941
# Poissons Ratio (y) = 0.44228 0.38941
# Poissons Ratio (z) = 0.24836 0.24836
#
# Static dielectric constant tensor:
#      x y z
#    x 3.128760 0.000000 0.000000 
#    y 0.000000 3.128760 0.000000 
#    z 0.000000 0.000000 3.104290 
# 
# 
# High freq. dielectric constant tensor:
#      x y z
#    x 1.596440 0.000000 0.000000 
#    y 0.000000 1.596440 0.000000 
#    z 0.000000 0.000000 1.627240 
# 
# From -- ./inp_files/1249.got.cif
#   From: 2010.03.12/outbox.cif.g09.slc.cpg/sg189_1_cif.got.tgz:1249.got - 2010.04.01 12:03:36.
