data_PCOD8327097
_publ_section_title
;
Structure prediction by ZEFSAII (Michael W. Deem and Ramdas Pophale) SiO2 
 PCOD8327097
Probable space group: P -6 M 2
;
_chemical_formula_sum "Si O2"
_cell_formula_units_Z 72
_cell_length_a 12.490830
_cell_length_b 12.490830
_cell_length_c 30.861179
_cell_angle_alpha 90.000000
_cell_angle_beta 90.000000
_cell_angle_gamma 120.000000
_cell_volume 4169.900964
_symmetry_space_group_name_H-M "P -6 M 2"
_symmetry_group_IT_number 187
_symmetry_cell_setting 'hexagonal'
loop_
_space_group_symop_operation_xyz
x,y,z
-x+y,-x,-z
-y,x-y,z
x,y,-z
-x+y,-x,z
-y,x-y,-z
-y,-x,-z
-x+y,y,-z
x,x-y,-z
-x+y,y,z
x,x-y,z
-y,-x,z
loop_
_atom_site_type_symbol
_atom_site_label
_atom_site_fract_x
_atom_site_fract_y
_atom_site_fract_z
Si Si1 0.582076 0.667600 0.172720
Si Si2 0.249072 0.999705 0.254424
Si Si3 0.998351 0.240420 0.000000
Si Si4 0.749284 0.998613 0.500000
Si Si5 0.333323 0.416163 0.417952
Si Si6 0.666866 0.583516 0.663865
Si Si7 0.251562 0.002408 0.093883
O O1 0.540584 0.770292 0.172947
O O2 0.463963 0.536038 0.181498
O O3 0.682617 0.694824 0.209403
O O4 0.641429 0.665109 0.126755
O O5 0.219997 0.109999 0.250316
O O6 0.347769 0.023773 0.291495
O O7 0.123121 0.876879 0.266362
O O8 0.977646 0.292441 0.045680
O O9 0.138007 0.276014 0.000000
O O10 0.907756 0.092245 0.000000
O O11 0.870935 0.129065 0.500000
O O12 0.786768 0.893384 0.500000
O O13 0.671668 0.989995 0.457761
O O14 0.220354 0.440708 0.414026
O O15 0.454423 0.545578 0.426375
O O16 0.340960 0.352066 0.374205
O O17 0.789259 0.578517 0.653570
O O18 0.554899 0.445102 0.667435
O O19 0.248750 0.124375 0.108658
O O20 0.110716 0.889285 0.093762
#
# Coordination Sequence:
#
# PCOD8327097 Si02
#       7
#    12  12   6   6  12  12  12
#     4  10  20  33  48  66  91 124 160 195 231 275
#     4  10  20  34  53  76 100 124 153 194 244 294
#     4   8  13  22  39  66  96 122 148 182 230 284
#     4  10  20  34  52  74 100 130 164 202 246 296
#     4  10  20  34  53  76 102 132 167 208 252 295
#     4  10  20  34  52  74 102 136 171 204 238 281
#     4   9  16  27  46  71  97 122 150 189 237 286
#
# _framework density 17.266597000000001
#
# number of rings (size 3 to 8) (size 9 to 14) (size 15 to 20)
#    0.000    2.333    0.000    3.250    0.000    1.333 
#    0.000    2.917    0.000   16.667    0.000    1.167 
#    0.000    0.000    0.000    0.000    0.000    0.000 
#
# Total GULP energy -892669.124003 kJ/mol
# GULP energy per Si atom -12398.182278 kJ/mol
# Density = 1.722730 g / cm^3
# Si number density = 17.266597 Si / 1000 Ang^3
#
#
#
# Elastic Constant Matrix: (Units=GPa)
#
#
# Indices 1 2 3 4 5 6 
#
# 1 77.7197 40.3797 42.6300 0.0000 -0.0002 0.0000
# 2 40.3797 77.7197 42.6300 0.0000 0.0002 0.0000
# 3 42.6300 42.6300 107.7139 0.0000 0.0000 0.0000
# 4 0.0000 0.0000 0.0000 23.7143 0.0000 0.0002
# 5 -0.0002 0.0002 0.0000 0.0000 23.7143 0.0000
# 6 0.0000 0.0000 0.0000 0.0002 0.0000 18.6700
#
#
#
# Elastic Compliance Matrix: (Units=1/GPa)
#
#
# Indices 1 2 3 4 5 6 
#
# 1 0.019318 -0.007463 -0.004692 0.000000 0.000000 0.000000
# 2 -0.007463 0.019318 -0.004692 0.000000 0.000000 0.000000
# 3 -0.004692 -0.004692 0.012998 0.000000 0.000000 0.000000
# 4 0.000000 0.000000 0.000000 0.042169 0.000000 -0.000001
# 5 0.000000 0.000000 0.000000 0.000000 0.042169 0.000000
# 6 0.000000 0.000000 0.000000 -0.000001 0.000000 0.053562
#
#
# Mechanical properties :
#
#
# Convention : Reuss Voigt Hill
#
# Bulk Modulus (GPa) = 55.74177 57.15917 56.45047
# Shear Modulus (GPa) = 21.81451 22.38729 22.10090
#
# Velocity S-wave (km/s) = 3.55828 3.60469 3.58156
# Velocity P-wave (km/s) = 7.01676 7.10639 7.06172
#
# Compressibility (1/GPa) = 0.01793987
#
# Stress axis : x y z
#
# Youngs Moduli (GPa) = 51.76589 51.76589 76.93785
#
# Poissons Ratio (x) = 0.38634 0.36097
# Poissons Ratio (y) = 0.38634 0.36097
# Poissons Ratio (z) = 0.24287 0.24287
#
# Static dielectric constant tensor:
#      x y z
#    x 3.084570 0.000000 0.000000 
#    y 0.000000 3.084570 0.000000 
#    z 0.000000 0.000000 3.388470 
# 
# 
# High freq. dielectric constant tensor:
#      x y z
#    x 1.658290 0.000000 0.000000 
#    y 0.000000 1.658290 0.000000 
#    z 0.000000 0.000000 1.688620 
# 
# From -- ./inp_files/4590.got.cif
#   From: 2010.03.12/outbox.cif.g09.slc.cpg/sg187_3_cif.got.tgz:4590.got - 2010.04.01 11:58:23.
