data_PCOD8327981
_publ_section_title
;
Structure prediction by ZEFSAII (Michael W. Deem and Ramdas Pophale) SiO2 
 PCOD8327981
Probable space group: P -6 2 C
;
_chemical_formula_sum "Si O2"
_cell_formula_units_Z 72
_cell_length_a 23.895779
_cell_length_b 23.895779
_cell_length_c 8.641193
_cell_angle_alpha 90.000000
_cell_angle_beta 90.000000
_cell_angle_gamma 120.000000
_cell_volume 4273.136076
_symmetry_space_group_name_H-M "P -6 2 C"
_symmetry_group_IT_number 190
_symmetry_cell_setting 'hexagonal'
loop_
_space_group_symop_operation_xyz
x,y,z
-x+y,-x,1/2-z
-y,x-y,z
x,y,1/2-z
-x+y,-x,z
-y,x-y,1/2-z
x-y,-y,-z
-x,-x+y,-z
y,x,-z
y,x,1/2+z
x-y,-y,1/2+z
-x,-x+y,1/2+z
loop_
_atom_site_type_symbol
_atom_site_label
_atom_site_fract_x
_atom_site_fract_y
_atom_site_fract_z
Si Si1 0.475315 0.735724 0.568144
Si Si2 0.068662 0.812203 0.567930
Si Si3 0.592759 0.406073 0.065792
Si Si4 0.929606 0.860561 0.933389
Si Si5 0.473141 0.403750 0.931826
Si Si6 0.265278 0.403227 0.569388
O O1 0.467793 0.726725 0.750000
O O2 0.452762 0.664930 0.498394
O O3 0.429023 0.762480 0.509949
O O4 0.549314 0.787179 0.521258
O O5 0.061290 0.819553 0.750000
O O6 0.093131 0.880805 0.485839
O O7 0.120229 0.789643 0.529935
O O8 0.000000 0.758868 0.500000
O O9 0.588644 0.409321 0.250000
O O10 0.545041 0.427696 0.993267
O O11 0.932016 0.865672 0.750000
O O12 0.877851 0.877851 0.000000
O O13 0.000000 0.910008 0.000000
O O14 0.474589 0.408847 0.750000
O O15 0.452218 0.452218 0.000000
O O16 0.421920 0.330546 0.979054
O O17 0.283523 0.411572 0.750000
#
# Coordination Sequence:
#
# PCOD8327981 Si02
#       6
#    12  12  12  12  12  12
#     4   8  14  26  47  72  95 123 156 190 228 275
#     4  10  19  31  48  71  98 126 157 193 233 279
#     4   9  16  29  49  72  97 125 158 192 231 281
#     4  11  21  34  51  72  98 126 158 193 233 279
#     4  11  21  32  47  68  95 126 160 198 240 283
#     4   9  18  32  50  73  99 126 158 194 235 285
#
# _framework density 16.849450999999998
#
# number of rings (size 3 to 8) (size 9 to 14) (size 15 to 20)
#    0.000    2.333    0.000    6.500    0.000    4.000 
#    0.000    3.333    0.000    1.000    0.000    0.000 
#    0.000    0.000    0.000    0.000    0.000    0.000 
#
# Total GULP energy -892693.101568 kJ/mol
# GULP energy per Si atom -12398.515300 kJ/mol
# Density = 1.681110 g / cm^3
# Si number density = 16.849451 Si / 1000 Ang^3
#
#
#
# Elastic Constant Matrix: (Units=GPa)
#
#
# Indices 1 2 3 4 5 6 
#
# 1 138.8533 79.9237 47.8677 0.0000 0.0000 0.0000
# 2 79.9237 138.8533 47.8677 0.0000 0.0000 0.0000
# 3 47.8677 47.8677 93.7637 0.0000 0.0000 0.0000
# 4 0.0000 0.0000 0.0000 20.9681 0.0000 0.0000
# 5 0.0000 0.0000 0.0000 0.0000 20.9681 0.0000
# 6 0.0000 0.0000 0.0000 0.0000 0.0000 29.4648
#
#
#
# Elastic Compliance Matrix: (Units=1/GPa)
#
#
# Indices 1 2 3 4 5 6 
#
# 1 0.011428 -0.005542 -0.003005 0.000000 0.000000 0.000000
# 2 -0.005542 0.011428 -0.003005 0.000000 0.000000 0.000000
# 3 -0.003005 -0.003005 0.013733 0.000000 0.000000 0.000000
# 4 0.000000 0.000000 0.000000 0.047692 0.000000 0.000000
# 5 0.000000 0.000000 0.000000 0.000000 0.047692 0.000000
# 6 0.000000 0.000000 0.000000 0.000000 0.000000 0.033939
#
#
# Mechanical properties :
#
#
# Convention : Reuss Voigt Hill
#
# Bulk Modulus (GPa) = 74.15373 80.30984 77.23179
# Shear Modulus (GPa) = 25.83872 27.33425 26.58649
#
# Velocity S-wave (km/s) = 3.92025 4.03210 3.97657
# Velocity P-wave (km/s) = 8.03718 8.33329 8.18658
#
# Compressibility (1/GPa) = 0.01348550
#
# Stress axis : x y z
#
# Youngs Moduli (GPa) = 87.50770 87.50770 72.81707
#
# Poissons Ratio (x) = 0.48495 0.21880
# Poissons Ratio (y) = 0.48495 0.21880
# Poissons Ratio (z) = 0.26294 0.26294
#
# Static dielectric constant tensor:
#      x y z
#    x 3.288010 0.000000 0.000000 
#    y 0.000000 3.288010 0.000000 
#    z 0.000000 0.000000 3.077800 
# 
# 
# High freq. dielectric constant tensor:
#      x y z
#    x 1.642290 0.000000 0.000000 
#    y 0.000000 1.642290 0.000000 
#    z 0.000000 0.000000 1.643550 
# 
# From -- ./inp_files/1253.got.cif
#   From: 2010.06.25/outbox.cif.g09.slc.cpg/sg190_1_cif.got.tgz:1253.got - 2010.06.28 13:08:06.
