data_PCOD8327241
_publ_section_title
;
Structure prediction by ZEFSAII (Michael W. Deem and Ramdas Pophale) SiO2 
 PCOD8327241
Probable space group: P -6 M 2
;
_chemical_formula_sum "Si O2"
_cell_formula_units_Z 66
_cell_length_a 22.048589
_cell_length_b 22.048589
_cell_length_c 7.846766
_cell_angle_alpha 90.000000
_cell_angle_beta 90.000000
_cell_angle_gamma 120.000000
_cell_volume 3303.565616
_symmetry_space_group_name_H-M "P -6 M 2"
_symmetry_group_IT_number 187
_symmetry_cell_setting 'hexagonal'
loop_
_space_group_symop_operation_xyz
x,y,z
-x+y,-x,-z
-y,x-y,z
x,y,-z
-x+y,-x,z
-y,x-y,-z
-y,-x,-z
-x+y,y,-z
x,x-y,-z
-x+y,y,z
x,x-y,z
-y,-x,z
loop_
_atom_site_type_symbol
_atom_site_label
_atom_site_fract_x
_atom_site_fract_y
_atom_site_fract_z
Si Si1 0.717973 0.142084 0.690794
Si Si2 0.469603 0.666080 0.201614
Si Si3 0.666828 0.189222 0.000000
Si Si4 0.738086 0.020143 0.192046
Si Si5 0.620023 0.879224 0.694516
Si Si6 0.863112 0.863331 0.797074
O O1 0.692177 0.147146 0.500000
O O2 0.795940 0.204061 0.726184
O O3 0.667135 0.146828 0.831481
O O4 0.720775 0.070937 0.699838
O O5 0.454146 0.727073 0.259428
O O6 0.407046 0.592955 0.270484
O O7 0.540802 0.677379 0.286040
O O8 0.476471 0.665335 0.000000
O O9 0.731953 0.268048 0.000000
O O10 0.596328 0.192655 0.000000
O O11 0.802566 0.014254 0.273036
O O12 0.670090 0.943769 0.187658
O O13 0.756478 0.049533 0.000000
O O14 0.644432 0.897603 0.500000
O O15 0.624237 0.812119 0.759167
O O16 0.937985 0.875970 0.733869
O O17 0.852345 0.926173 0.724704
O O18 0.859537 0.863081 0.000000
#
# Coordination Sequence:
#
# PCOD8327241 Si02
#       6
#    12  12   6  12  12  12
#     4  10  21  38  61  90 124 159 196 241 288 338
#     4   9  17  31  52  76 100 128 165 213 271 337
#     4  10  21  40  66  96 127 158 192 234 286 348
#     4  11  20  33  55  80 109 150 201 246 287 345
#     4  10  21  35  50  72 105 142 184 237 292 348
#     4   9  17  28  46  75 111 148 188 238 296 353
#
# _framework density 19.978413
#
# number of rings (size 3 to 8) (size 9 to 14) (size 15 to 20)
#    0.000    2.182    0.909    2.636    0.000    4.727 
#    0.000    0.909    0.000    4.364    0.000    0.000 
#    0.000    8.727    0.000    0.000    0.000    0.000 
#
# Total GULP energy -818463.685703 kJ/mol
# GULP energy per Si atom -12400.964935 kJ/mol
# Density = 1.993294 g / cm^3
# Si number density = 19.978413 Si / 1000 Ang^3
#
#
#
# Elastic Constant Matrix: (Units=GPa)
#
#
# Indices 1 2 3 4 5 6 
#
# 1 116.3706 55.2954 29.1567 0.0000 -0.0002 0.0000
# 2 55.2954 116.3706 29.1567 0.0000 0.0002 0.0000
# 3 29.1567 29.1567 72.3203 0.0000 0.0000 0.0000
# 4 0.0000 0.0000 0.0000 15.5349 0.0000 0.0002
# 5 -0.0002 0.0002 0.0000 0.0000 15.5349 0.0000
# 6 0.0000 0.0000 0.0000 0.0002 0.0000 30.5376
#
#
#
# Elastic Compliance Matrix: (Units=1/GPa)
#
#
# Indices 1 2 3 4 5 6 
#
# 1 0.011561 -0.004812 -0.002721 0.000000 0.000000 0.000000
# 2 -0.004812 0.011561 -0.002721 0.000000 0.000000 0.000000
# 3 -0.002721 -0.002721 0.016022 0.000000 0.000000 0.000000
# 4 0.000000 0.000000 0.000000 0.064371 0.000000 0.000000
# 5 0.000000 0.000000 0.000000 0.000000 0.064371 0.000000
# 6 0.000000 0.000000 0.000000 0.000000 0.000000 0.032746
#
#
# Mechanical properties :
#
#
# Convention : Reuss Voigt Hill
#
# Bulk Modulus (GPa) = 53.65944 59.14211 56.40078
# Shear Modulus (GPa) = 21.99220 25.08502 23.53861
#
# Velocity S-wave (km/s) = 3.32143 3.54730 3.43622
# Velocity P-wave (km/s) = 6.45184 6.81506 6.63593
#
# Compressibility (1/GPa) = 0.01863605
#
# Stress axis : x y z
#
# Youngs Moduli (GPa) = 86.49448 86.49448 62.41603
#
# Poissons Ratio (x) = 0.41619 0.16985
# Poissons Ratio (y) = 0.41619 0.16985
# Poissons Ratio (z) = 0.23537 0.23537
#
# Static dielectric constant tensor:
#      x y z
#    x 3.573840 0.000000 0.000000 
#    y 0.000000 3.573840 0.000000 
#    z 0.000000 0.000000 3.470390 
# 
# 
# High freq. dielectric constant tensor:
#      x y z
#    x 1.771820 0.000000 0.000000 
#    y 0.000000 1.771820 0.000000 
#    z 0.000000 0.000000 1.769430 
# 
# From -- ./inp_files/774.got.cif
#   From: 2010.03.12/outbox.cif.g09.slc.cpg/sg187_1_cif.got.tgz:774.got - 2010.04.01 11:58:23.
