data_PCOD8327067
_publ_section_title
;
Structure prediction by ZEFSAII (Michael W. Deem and Ramdas Pophale) SiO2 
 PCOD8327067
Probable space group: P -6 M 2
;
_chemical_formula_sum "Si O2"
_cell_formula_units_Z 48
_cell_length_a 12.717952
_cell_length_b 12.717952
_cell_length_c 20.292574
_cell_angle_alpha 90.000000
_cell_angle_beta 90.000000
_cell_angle_gamma 120.000000
_cell_volume 2842.510863
_symmetry_space_group_name_H-M "P -6 M 2"
_symmetry_group_IT_number 187
_symmetry_cell_setting 'hexagonal'
loop_
_space_group_symop_operation_xyz
x,y,z
-x+y,-x,-z
-y,x-y,z
x,y,-z
-x+y,-x,z
-y,x-y,-z
-y,-x,-z
-x+y,y,-z
x,x-y,-z
-x+y,y,z
x,x-y,z
-y,-x,z
loop_
_atom_site_type_symbol
_atom_site_label
_atom_site_fract_x
_atom_site_fract_y
_atom_site_fract_z
Si Si1 0.421278 0.087605 0.000000
Si Si2 0.333433 0.424718 0.113953
Si Si3 0.665322 0.086752 0.621180
Si Si4 0.085823 0.664788 0.500000
Si Si5 0.575597 0.909419 0.264104
O O1 0.352220 0.015856 0.065663
O O2 0.558715 0.117429 0.000000
O O3 0.420868 0.210434 0.000000
O O4 0.207499 0.414998 0.095457
O O5 0.436769 0.563232 0.102368
O O6 0.334582 0.384111 0.188992
O O7 0.562559 0.125117 0.618033
O O8 0.794534 0.205467 0.612524
O O9 0.646441 0.992763 0.563849
O O10 0.662028 0.023551 0.690487
O O11 0.205346 0.794655 0.500000
O O12 0.124421 0.562210 0.500000
O O13 0.435323 0.870645 0.275352
O O14 0.589345 0.794673 0.283408
#
# Coordination Sequence:
#
# PCOD8327067 Si02
#       5
#     6  12  12   6  12
#     4  10  20  32  46  66  94 128 162 194 232 280
#     4   9  17  30  50  75  98 120 150 193 245 292
#     4  10  20  33  50  72  99 131 164 196 230 273
#     4  10  20  34  54  78 100 122 152 196 248 294
#     4   9  17  30  50  75 100 124 152 192 242 290
#
# _framework density 16.886479000000001
#
# number of rings (size 3 to 8) (size 9 to 14) (size 15 to 20)
#    0.000    2.500    0.000    2.500    0.000    3.000 
#    0.000    5.000    0.000   12.000    0.000    0.000 
#    0.000    0.000    0.000    0.000    0.000    0.000 
#
# Total GULP energy -595272.187308 kJ/mol
# GULP energy per Si atom -12401.503902 kJ/mol
# Density = 1.684804 g / cm^3
# Si number density = 16.886479 Si / 1000 Ang^3
#
#
#
# Elastic Constant Matrix: (Units=GPa)
#
#
# Indices 1 2 3 4 5 6 
#
# 1 112.9038 66.4913 66.2913 0.0000 -0.0003 0.0000
# 2 66.4913 112.9038 66.2913 0.0000 0.0003 0.0000
# 3 66.2913 66.2913 119.6146 0.0000 0.0000 0.0000
# 4 0.0000 0.0000 0.0000 21.0835 0.0000 0.0003
# 5 -0.0003 0.0003 0.0000 0.0000 21.0835 0.0000
# 6 0.0000 0.0000 0.0000 0.0003 0.0000 23.2062
#
#
#
# Elastic Compliance Matrix: (Units=1/GPa)
#
#
# Indices 1 2 3 4 5 6 
#
# 1 0.015494 -0.006052 -0.005232 0.000000 0.000000 0.000000
# 2 -0.006052 0.015494 -0.005232 0.000000 0.000000 0.000000
# 3 -0.005232 -0.005232 0.014160 0.000000 0.000000 0.000000
# 4 0.000000 0.000000 0.000000 0.047430 0.000000 -0.000001
# 5 0.000000 0.000000 0.000000 0.000000 0.047430 0.000000
# 6 0.000000 0.000000 0.000000 -0.000001 0.000000 0.043092
#
#
# Mechanical properties :
#
#
# Convention : Reuss Voigt Hill
#
# Bulk Modulus (GPa) = 82.55752 82.61890 82.58821
# Shear Modulus (GPa) = 22.70953 22.83122 22.77037
#
# Velocity S-wave (km/s) = 3.67118 3.68100 3.67609
# Velocity P-wave (km/s) = 8.18327 8.19138 8.18732
#
# Compressibility (1/GPa) = 0.01211277
#
# Stress axis : x y z
#
# Youngs Moduli (GPa) = 64.54261 64.54261 70.62185
#
# Poissons Ratio (x) = 0.39063 0.36953
# Poissons Ratio (y) = 0.39063 0.36953
# Poissons Ratio (z) = 0.33772 0.33772
#
# Static dielectric constant tensor:
#      x y z
#    x 2.965980 0.000000 0.000000 
#    y 0.000000 2.965980 0.000000 
#    z 0.000000 0.000000 3.549690 
# 
# 
# High freq. dielectric constant tensor:
#      x y z
#    x 1.636050 0.000000 0.000000 
#    y 0.000000 1.636050 0.000000 
#    z 0.000000 0.000000 1.671950 
# 
# From -- ./inp_files/3384.got.cif
#   From: 2010.03.12/outbox.cif.g09.slc.cpg/sg187_2_cif.got.tgz:3384.got - 2010.04.01 11:58:23.
