data_PCOD8327960
_publ_section_title
;
Structure prediction by ZEFSAII (Michael W. Deem and Ramdas Pophale) SiO2 
 PCOD8327960
Probable space group: P -6 2 C
;
_chemical_formula_sum "Si O2"
_cell_formula_units_Z 36
_cell_length_a 11.270432
_cell_length_b 11.270432
_cell_length_c 17.656223
_cell_angle_alpha 90.000000
_cell_angle_beta 90.000000
_cell_angle_gamma 120.000000
_cell_volume 1942.269825
_symmetry_space_group_name_H-M "P -6 2 C"
_symmetry_group_IT_number 190
_symmetry_cell_setting 'hexagonal'
loop_
_space_group_symop_operation_xyz
x,y,z
-x+y,-x,1/2-z
-y,x-y,z
x,y,1/2-z
-x+y,-x,z
-y,x-y,1/2-z
x-y,-y,-z
-x,-x+y,-z
y,x,-z
y,x,1/2+z
x-y,-y,1/2+z
-x,-x+y,1/2+z
loop_
_atom_site_type_symbol
_atom_site_label
_atom_site_fract_x
_atom_site_fract_y
_atom_site_fract_z
Si Si1 0.298604 0.500551 0.482851
Si Si2 0.397757 0.556690 0.750000
Si Si3 0.973020 0.641664 0.124540
Si Si4 0.974972 0.837513 0.250000
O O1 0.451399 0.636859 0.484415
O O2 0.292212 0.420445 0.406015
O O3 0.272575 0.404043 0.554663
O O4 0.233872 0.512058 0.750000
O O5 0.426355 0.492644 0.824479
O O6 0.961913 0.754094 0.174186
O O7 0.855027 0.877026 0.250000
#
# Coordination Sequence:
#
# PCOD8327960 Si02
#       4
#    12   6  12   6
#     4   9  20  38  55  85 120 137 188 233 267 341
#     4   9  18  32  55  82 106 140 198 234 261 346
#     4  10  18  38  58  78 114 147 176 236 280 317
#     4   9  22  44  55  80 116 140 196 232 265 346
#
# _framework density 18.535014
#
# number of rings (size 3 to 8) (size 9 to 14) (size 15 to 20)
#    1.333    1.333    0.000    2.000    0.000    0.000 
#   24.000   10.000    0.000    0.000    0.000    0.000 
#    0.000    0.000    0.000    0.000    0.000    0.000 
#
# Total GULP energy -446015.859288 kJ/mol
# GULP energy per Si atom -12389.329425 kJ/mol
# Density = 1.849283 g / cm^3
# Si number density = 18.535014 Si / 1000 Ang^3
#
#
#
# Elastic Constant Matrix: (Units=GPa)
#
#
# Indices 1 2 3 4 5 6 
#
# 1 90.9705 23.7802 50.5962 0.0000 0.0000 0.0000
# 2 23.7802 90.9705 50.5962 0.0000 0.0000 0.0000
# 3 50.5962 50.5962 137.7867 0.0000 0.0000 0.0000
# 4 0.0000 0.0000 0.0000 28.9587 0.0000 0.0000
# 5 0.0000 0.0000 0.0000 0.0000 28.9587 0.0000
# 6 0.0000 0.0000 0.0000 0.0000 0.0000 33.5951
#
#
#
# Elastic Compliance Matrix: (Units=1/GPa)
#
#
# Indices 1 2 3 4 5 6 
#
# 1 0.013885 -0.000998 -0.004733 0.000000 0.000000 0.000000
# 2 -0.000998 0.013885 -0.004733 0.000000 0.000000 0.000000
# 3 -0.004733 -0.004733 0.010733 0.000000 0.000000 0.000000
# 4 0.000000 0.000000 0.000000 0.034532 0.000000 0.000000
# 5 0.000000 0.000000 0.000000 0.000000 0.034532 0.000000
# 6 0.000000 0.000000 0.000000 0.000000 0.000000 0.029766
#
#
# Mechanical properties :
#
#
# Convention : Reuss Voigt Hill
#
# Bulk Modulus (GPa) = 56.88632 63.29701 60.09166
# Shear Modulus (GPa) = 30.46565 31.28617 30.87591
#
# Velocity S-wave (km/s) = 4.05863 4.11292 4.08587
# Velocity P-wave (km/s) = 7.26094 7.53518 7.39933
#
# Compressibility (1/GPa) = 0.01757892
#
# Stress axis : x y z
#
# Youngs Moduli (GPa) = 72.01758 72.01758 93.16864
#
# Poissons Ratio (x) = 0.07184 0.44092
# Poissons Ratio (y) = 0.07184 0.44092
# Poissons Ratio (z) = 0.34082 0.34082
#
# Static dielectric constant tensor:
#      x y z
#    x 3.233260 0.000000 0.000000 
#    y 0.000000 3.233260 0.000000 
#    z 0.000000 0.000000 3.446290 
# 
# 
# High freq. dielectric constant tensor:
#      x y z
#    x 1.701010 0.000000 0.000000 
#    y 0.000000 1.701010 0.000000 
#    z 0.000000 0.000000 1.729180 
# 
# From -- ./inp_files/3379.got.cif
#   From: 2010.06.25/outbox.cif.g09.slc.cpg/sg190_2_cif.got.tgz:3379.got - 2010.06.28 13:08:06.
