data_PCOD8327535
_publ_section_title
;
Structure prediction by ZEFSAII (Michael W. Deem and Ramdas Pophale) SiO2 
 PCOD8327535
Probable space group: P -6 2 M
;
_chemical_formula_sum "Si O2"
_cell_formula_units_Z 84
_cell_length_a 17.939586
_cell_length_b 17.939586
_cell_length_c 16.650833
_cell_angle_alpha 90.000000
_cell_angle_beta 90.000000
_cell_angle_gamma 120.000000
_cell_volume 4640.784795
_symmetry_space_group_name_H-M "P -6 2 M"
_symmetry_group_IT_number 189
_symmetry_cell_setting 'hexagonal'
loop_
_space_group_symop_operation_xyz
x,y,z
-x+y,-x,-z
-y,x-y,z
x,y,-z
-x+y,-x,z
-y,x-y,-z
x-y,-y,-z
-x,-x+y,-z
y,x,-z
y,x,z
x-y,-y,z
-x,-x+y,z
loop_
_atom_site_type_symbol
_atom_site_label
_atom_site_fract_x
_atom_site_fract_y
_atom_site_fract_z
Si Si1 0.169749 0.381942 0.330689
Si Si2 0.627461 0.154385 0.165193
Si Si3 0.514664 0.417754 0.000000
Si Si4 0.469630 0.184069 0.165012
Si Si5 0.099449 0.199814 0.407050
Si Si6 0.095911 0.635410 0.671021
Si Si7 0.510887 0.608453 0.592854
Si Si8 0.317504 0.895710 0.000000
O O1 0.155262 0.401107 0.238390
O O2 0.118724 0.280234 0.349520
O O3 0.267326 0.416656 0.356613
O O4 0.143043 0.434709 0.389174
O O5 0.535234 0.148219 0.174718
O O6 0.712978 0.247643 0.169406
O O7 0.631116 0.092862 0.232474
O O8 0.639256 0.119873 0.079441
O O9 0.489986 0.489986 0.000000
O O10 0.617914 0.474911 0.000000
O O11 0.411213 0.146036 0.083462
O O12 0.116476 0.230260 0.500000
O O13 0.158283 0.158283 0.382315
O O14 0.000000 0.127550 0.394808
O O15 0.139917 0.581129 0.638498
O O16 0.000000 0.596344 0.636034
O O17 0.489485 0.593750 0.500000
O O18 0.567784 0.567784 0.622804
O O19 0.358813 0.000000 0.000000
#
# Coordination Sequence:
#
# PCOD8327535 Si02
#       8
#    12  12   6  12  12  12  12   6
#     4  11  21  35  55  83 109 143 187 229 279 336
#     4  10  18  32  49  71 102 133 179 220 267 323
#     4   9  17  28  46  68  92 129 171 215 263 315
#     4  10  20  32  51  76 104 146 182 236 286 333
#     4  10  21  38  61  88 116 143 177 229 294 360
#     4  10  21  36  53  73 104 142 178 222 270 318
#     4  10  21  37  54  73 101 139 182 223 268 323
#     4   9  19  32  46  72 104 137 185 235 289 343
#
# _framework density 18.100387000000001
#
# number of rings (size 3 to 8) (size 9 to 14) (size 15 to 20)
#    0.000    2.000    1.429    2.571    0.000    4.571 
#    0.857    2.857    0.000    0.000    0.000    0.000 
#    0.000    0.000    0.000    1.286    0.000    0.429 
#
# Total GULP energy -1040874.638000 kJ/mol
# GULP energy per Si atom -12391.364738 kJ/mol
# Density = 1.805919 g / cm^3
# Si number density = 18.100387 Si / 1000 Ang^3
#
#
#
# Elastic Constant Matrix: (Units=GPa)
#
#
# Indices 1 2 3 4 5 6 
#
# 1 79.7936 32.5424 33.1209 0.0000 0.0000 0.0000
# 2 32.5424 79.7936 33.1209 0.0000 0.0000 0.0000
# 3 33.1209 33.1209 89.0975 0.0000 0.0000 0.0000
# 4 0.0000 0.0000 0.0000 27.0611 0.0000 0.0000
# 5 0.0000 0.0000 0.0000 0.0000 27.0611 0.0000
# 6 0.0000 0.0000 0.0000 0.0000 0.0000 23.6256
#
#
#
# Elastic Compliance Matrix: (Units=1/GPa)
#
#
# Indices 1 2 3 4 5 6 
#
# 1 0.016282 -0.004881 -0.004238 0.000000 0.000000 0.000000
# 2 -0.004881 0.016282 -0.004238 0.000000 0.000000 0.000000
# 3 -0.004238 -0.004238 0.014375 0.000000 0.000000 0.000000
# 4 0.000000 0.000000 0.000000 0.036953 0.000000 0.000000
# 5 0.000000 0.000000 0.000000 0.000000 0.036953 0.000000
# 6 0.000000 0.000000 0.000000 0.000000 0.000000 0.042327
#
#
# Mechanical properties :
#
#
# Convention : Reuss Voigt Hill
#
# Bulk Modulus (GPa) = 49.44636 49.58368 49.51502
# Shear Modulus (GPa) = 25.42851 25.54290 25.48571
#
# Velocity S-wave (km/s) = 3.75221 3.76064 3.75643
# Velocity P-wave (km/s) = 6.79333 6.80513 6.79923
#
# Compressibility (1/GPa) = 0.02022394
#
# Stress axis : x y z
#
# Youngs Moduli (GPa) = 61.41651 61.41651 69.56682
#
# Poissons Ratio (x) = 0.29979 0.29484
# Poissons Ratio (y) = 0.29979 0.29484
# Poissons Ratio (z) = 0.26030 0.26030
#
# Static dielectric constant tensor:
#      x y z
#    x 3.255560 0.000000 0.000000 
#    y 0.000000 3.255560 0.000000 
#    z 0.000000 0.000000 3.523560 
# 
# 
# High freq. dielectric constant tensor:
#      x y z
#    x 1.688000 0.000000 0.000000 
#    y 0.000000 1.688000 0.000000 
#    z 0.000000 0.000000 1.709300 
# 
# From -- ./inp_files/2846.got.cif
#   From: 2010.03.12/outbox.cif.g09.slc.cpg/sg189_2_cif.got.tgz:2846.got - 2010.04.01 12:03:36.
