data_PCOD8327622
_publ_section_title
;
Structure prediction by ZEFSAII (Michael W. Deem and Ramdas Pophale) SiO2 
 PCOD8327622
Probable space group: P -6 2 M
;
_chemical_formula_sum "Si O2"
_cell_formula_units_Z 72
_cell_length_a 23.673086
_cell_length_b 23.673086
_cell_length_c 8.736131
_cell_angle_alpha 90.000000
_cell_angle_beta 90.000000
_cell_angle_gamma 120.000000
_cell_volume 4239.938147
_symmetry_space_group_name_H-M "P -6 2 M"
_symmetry_group_IT_number 189
_symmetry_cell_setting 'hexagonal'
loop_
_space_group_symop_operation_xyz
x,y,z
-x+y,-x,-z
-y,x-y,z
x,y,-z
-x+y,-x,z
-y,x-y,-z
x-y,-y,-z
-x,-x+y,-z
y,x,-z
y,x,z
x-y,-y,z
-x,-x+y,z
loop_
_atom_site_type_symbol
_atom_site_label
_atom_site_fract_x
_atom_site_fract_y
_atom_site_fract_z
Si Si1 0.412400 0.145266 0.679971
Si Si2 0.189628 0.926693 0.319485
Si Si3 0.810641 0.072970 0.180366
Si Si4 0.850075 0.588731 0.820402
Si Si5 0.518589 0.593205 0.821901
Si Si6 0.475429 0.400102 0.321621
O O1 0.421744 0.141002 0.500000
O O2 0.337384 0.100091 0.731232
O O3 0.436937 0.219479 0.729098
O O4 0.454805 0.121413 0.770659
O O5 0.182576 0.924489 0.500000
O O6 0.117977 0.882498 0.249136
O O7 0.219501 0.000000 0.256257
O O8 0.762726 0.099757 0.229514
O O9 0.780633 0.000000 0.246900
O O10 0.817176 0.072872 0.000000
O O11 0.880485 0.544352 0.776144
O O12 0.835427 0.583338 0.000000
O O13 0.572987 0.572987 0.786165
O O14 0.453569 0.548234 0.725948
O O15 0.500430 0.585226 0.000000
O O16 0.473760 0.384348 0.500000
O O17 0.426031 0.426031 0.281045
#
# Coordination Sequence:
#
# PCOD8327622 Si02
#       6
#    12  12  12  12  12  12
#     4  10  19  32  50  72  99 129 161 198 241 288
#     4   9  18  31  47  69  96 125 157 194 237 283
#     4   9  18  31  47  69  96 125 157 194 237 283
#     4  10  19  32  50  72  99 129 161 198 241 288
#     4  10  20  33  50  73 100 130 164 201 242 287
#     4  10  20  33  50  73 100 130 164 201 242 287
#
# _framework density 16.981379
#
# number of rings (size 3 to 8) (size 9 to 14) (size 15 to 20)
#    0.000    2.333    0.000    3.000    0.000    5.333 
#    0.000    0.000    0.000    1.000    0.000    4.667 
#    0.000    0.000    0.000    0.000    0.000    0.000 
#
# Total GULP energy -893038.050630 kJ/mol
# GULP energy per Si atom -12403.306259 kJ/mol
# Density = 1.694273 g / cm^3
# Si number density = 16.981379 Si / 1000 Ang^3
#
#
#
# Elastic Constant Matrix: (Units=GPa)
#
#
# Indices 1 2 3 4 5 6 
#
# 1 98.5578 44.3905 16.3190 0.0000 0.0000 0.0000
# 2 44.3905 98.5578 16.3190 0.0000 0.0000 0.0000
# 3 16.3190 16.3190 35.8422 0.0000 0.0000 0.0000
# 4 0.0000 0.0000 0.0000 30.0322 0.0000 0.0000
# 5 0.0000 0.0000 0.0000 0.0000 30.0322 0.0000
# 6 0.0000 0.0000 0.0000 0.0000 0.0000 27.0836
#
#
#
# Elastic Compliance Matrix: (Units=1/GPa)
#
#
# Indices 1 2 3 4 5 6 
#
# 1 0.013134 -0.005327 -0.003555 0.000000 0.000000 0.000000
# 2 -0.005327 0.013134 -0.003555 0.000000 0.000000 0.000000
# 3 -0.003555 -0.003555 0.031137 0.000000 0.000000 0.000000
# 4 0.000000 0.000000 0.000000 0.033298 0.000000 0.000000
# 5 0.000000 0.000000 0.000000 0.000000 0.033298 0.000000
# 6 0.000000 0.000000 0.000000 0.000000 0.000000 0.036923
#
#
# Mechanical properties :
#
#
# Convention : Reuss Voigt Hill
#
# Bulk Modulus (GPa) = 30.73822 43.00166 36.86994
# Shear Modulus (GPa) = 25.42717 27.82490 26.62603
#
# Velocity S-wave (km/s) = 3.87377 4.05230 3.96404
# Velocity P-wave (km/s) = 6.17645 6.87551 6.53533
#
# Compressibility (1/GPa) = 0.03253278
#
# Stress axis : x y z
#
# Youngs Moduli (GPa) = 76.13698 76.13698 32.11619
#
# Poissons Ratio (x) = 0.40559 0.11416
# Poissons Ratio (y) = 0.40559 0.11416
# Poissons Ratio (z) = 0.27064 0.27064
#
# Static dielectric constant tensor:
#      x y z
#    x 3.155380 0.000000 0.000000 
#    y 0.000000 3.155380 0.000000 
#    z 0.000000 0.000000 3.179180 
# 
# 
# High freq. dielectric constant tensor:
#      x y z
#    x 1.645060 0.000000 0.000000 
#    y 0.000000 1.645060 0.000000 
#    z 0.000000 0.000000 1.663240 
# 
# From -- ./inp_files/1262.got.cif
#   From: 2010.03.12/outbox.cif.g09.slc.cpg/sg189_1_cif.got.tgz:1262.got - 2010.04.01 12:03:36.
