data_PCOD8327329
_publ_section_title
;
Structure prediction by ZEFSAII (Michael W. Deem and Ramdas Pophale) SiO2 
 PCOD8327329
Probable space group: P -6 C 2
;
_chemical_formula_sum "Si O2"
_cell_formula_units_Z 72
_cell_length_a 23.301482
_cell_length_b 23.301482
_cell_length_c 8.572946
_cell_angle_alpha 90.000000
_cell_angle_beta 90.000000
_cell_angle_gamma 120.000000
_cell_volume 4031.139309
_symmetry_space_group_name_H-M "P -6 C 2"
_symmetry_group_IT_number 188
_symmetry_cell_setting 'hexagonal'
loop_
_space_group_symop_operation_xyz
x,y,z
-x+y,-x,1/2-z
-y,x-y,z
x,y,1/2-z
-x+y,-x,z
-y,x-y,1/2-z
-y,-x,-z
-x+y,y,-z
x,x-y,-z
-x+y,y,1/2+z
x,x-y,1/2+z
-y,-x,1/2+z
loop_
_atom_site_type_symbol
_atom_site_label
_atom_site_fract_x
_atom_site_fract_y
_atom_site_fract_z
Si Si1 0.539681 0.332495 0.065715
Si Si2 0.472414 0.071990 0.065758
Si Si3 0.061720 0.592362 0.069731
Si Si4 0.604946 0.740971 0.569731
Si Si5 0.999161 0.873014 0.065715
Si Si6 0.194253 0.932909 0.065758
O O1 0.544622 0.333137 0.250000
O O2 0.607911 0.392090 0.000000
O O3 0.527336 0.263668 0.000000
O O4 0.476578 0.339447 0.011873
O O5 0.475287 0.080741 0.250000
O O6 0.533413 0.066825 0.000000
O O7 0.409820 0.002254 0.013662
O O8 0.043991 0.574501 0.250000
O O9 0.123053 0.666667 0.046744
O O10 0.082492 0.541246 0.000000
O O11 0.622676 0.758833 0.750000
O O12 0.584174 0.792087 0.500000
O O13 0.668920 0.743153 0.486339
O O14 0.999804 0.877955 0.250000
O O15 0.930335 0.860669 0.000000
O O16 0.006115 0.809912 0.011873
O O17 0.058757 0.941244 0.000000
O O18 0.191380 0.938787 0.250000
O O19 0.133255 0.866745 0.000000
#
# Coordination Sequence:
#
# PCOD8327329 Si02
#       6
#    12  12  12  12  12  12
#     4  11  20  31  45  65  94 128 168 212 260 309
#     4  10  18  30  48  70  96 128 165 205 249 293
#     4  10  20  34  54  80 107 134 164 199 239 283
#     4  10  20  34  54  80 107 134 164 199 239 283
#     4  11  20  31  45  65  94 128 168 212 260 309
#     4  10  18  30  48  70  96 128 165 205 249 293
#
# _framework density 17.860955000000001
#
# number of rings (size 3 to 8) (size 9 to 14) (size 15 to 20)
#    0.000    1.667    0.000   11.333    0.000    2.667 
#    0.000    0.000    0.000    1.333    0.000    0.000 
#    0.000    0.000    0.000    0.000    0.000    0.000 
#
# Total GULP energy -892436.365677 kJ/mol
# GULP energy per Si atom -12394.949523 kJ/mol
# Density = 1.782030 g / cm^3
# Si number density = 17.860955 Si / 1000 Ang^3
#
#
#
# Elastic Constant Matrix: (Units=GPa)
#
#
# Indices 1 2 3 4 5 6 
#
# 1 91.1715 45.9554 42.6720 -0.0001 0.0000 0.0000
# 2 45.9554 91.1715 42.6720 0.0001 0.0000 0.0000
# 3 42.6720 42.6720 174.6176 0.0000 0.0000 0.0000
# 4 -0.0001 0.0001 0.0000 24.7098 0.0000 0.0000
# 5 0.0000 0.0000 0.0000 0.0000 24.7098 -0.0001
# 6 0.0000 0.0000 0.0000 0.0000 -0.0001 22.6080
#
#
#
# Elastic Compliance Matrix: (Units=1/GPa)
#
#
# Indices 1 2 3 4 5 6 
#
# 1 0.015358 -0.006758 -0.002102 0.000000 0.000000 0.000000
# 2 -0.006758 0.015358 -0.002102 0.000000 0.000000 0.000000
# 3 -0.002102 -0.002102 0.006754 0.000000 0.000000 0.000000
# 4 0.000000 0.000000 0.000000 0.040470 0.000000 0.000000
# 5 0.000000 0.000000 0.000000 0.000000 0.040470 0.000000
# 6 0.000000 0.000000 0.000000 0.000000 0.000000 0.044232
#
#
# Mechanical properties :
#
#
# Convention : Reuss Voigt Hill
#
# Bulk Modulus (GPa) = 64.31623 68.83992 66.57808
# Shear Modulus (GPa) = 26.35081 29.44961 27.90021
#
# Velocity S-wave (km/s) = 3.84517 4.06498 3.95660
# Velocity P-wave (km/s) = 7.47003 7.78832 7.63083
#
# Compressibility (1/GPa) = 0.01554817
#
# Stress axis : x y z
#
# Youngs Moduli (GPa) = 65.11130 65.11130 148.05976
#
# Poissons Ratio (x) = 0.44000 0.31119
# Poissons Ratio (y) = 0.44000 0.31119
# Poissons Ratio (z) = 0.13685 0.13685
#
# Static dielectric constant tensor:
#      x y z
#    x 3.508130 0.000000 0.000000 
#    y 0.000000 3.508130 0.000000 
#    z 0.000000 0.000000 3.540370 
# 
# 
# High freq. dielectric constant tensor:
#      x y z
#    x 1.670210 0.000000 0.000000 
#    y 0.000000 1.670210 0.000000 
#    z 0.000000 0.000000 1.718470 
# 
# From -- ./inp_files/1020.got.cif
#   From: 2010.03.12/outbox.cif.g09.slc.cpg/sg188_1_cif.got.tgz:1020.got - 2010.04.01 12:01:06.
