data_PCOD8327467
_publ_section_title
;
Structure prediction by ZEFSAII (Michael W. Deem and Ramdas Pophale) SiO2 
 PCOD8327467
Probable space group: P -6 C 2
;
_chemical_formula_sum "Si O2"
_cell_formula_units_Z 40
_cell_length_a 12.434737
_cell_length_b 12.434737
_cell_length_c 13.984885
_cell_angle_alpha 90.000000
_cell_angle_beta 90.000000
_cell_angle_gamma 120.000000
_cell_volume 1872.676409
_symmetry_space_group_name_H-M "P -6 C 2"
_symmetry_group_IT_number 188
_symmetry_cell_setting 'hexagonal'
loop_
_space_group_symop_operation_xyz
x,y,z
-x+y,-x,1/2-z
-y,x-y,z
x,y,1/2-z
-x+y,-x,z
-y,x-y,1/2-z
-y,-x,-z
-x+y,y,-z
x,x-y,-z
-x+y,y,1/2+z
x,x-y,1/2+z
-y,-x,1/2+z
loop_
_atom_site_type_symbol
_atom_site_label
_atom_site_fract_x
_atom_site_fract_y
_atom_site_fract_z
Si Si1 0.984819 0.616274 0.979739
Si Si2 0.666667 0.333334 0.113503
Si Si3 0.309582 0.518814 0.858091
Si Si4 0.770614 0.165244 0.355269
O O1 0.895855 0.619778 0.898777
O O2 0.123634 0.702422 0.938221
O O3 0.952882 0.476441 0.000000
O O4 0.958798 0.669399 0.077918
O O5 0.541495 0.325787 0.152264
O O6 0.666668 0.333334 0.000000
O O7 0.444331 0.646618 0.872477
O O8 0.303761 0.469221 0.750000
O O9 0.794668 0.127920 0.250000
#
# Coordination Sequence:
#
# PCOD8327467 Si02
#       4
#    12   4  12  12
#     4  11  20  30  48  75 103 142 193 238 286 341
#     4  12  16  32  43  67  98 145 193 218 268 340
#     4   8  18  37  57  75  98 141 202 254 298 335
#     4  11  20  30  46  72 109 146 183 225 285 358
#
# _framework density 21.359801999999998
#
# number of rings (size 3 to 8) (size 9 to 14) (size 15 to 20)
#    0.600    1.200    6.000    1.800    0.000    2.400 
#    0.000    0.000    0.000    1.800    0.000    0.000 
#    0.000    0.000    0.000  100.800    0.000  422.400 
#
# Total GULP energy -495534.904087 kJ/mol
# GULP energy per Si atom -12388.372602 kJ/mol
# Density = 2.131119 g / cm^3
# Si number density = 21.359802 Si / 1000 Ang^3
#
#
#
# Elastic Constant Matrix: (Units=GPa)
#
#
# Indices 1 2 3 4 5 6 
#
# 1 48.8818 15.3954 38.0488 0.0000 0.0000 0.0000
# 2 15.3954 48.8820 38.0489 0.0000 0.0000 0.0000
# 3 38.0488 38.0489 188.6154 0.0000 0.0000 0.0000
# 4 0.0000 0.0000 0.0000 27.6164 0.0000 0.0000
# 5 0.0000 0.0000 0.0000 0.0000 27.6164 0.0000
# 6 0.0000 0.0000 0.0000 0.0000 0.0000 16.7432
#
#
#
# Elastic Compliance Matrix: (Units=1/GPa)
#
#
# Indices 1 2 3 4 5 6 
#
# 1 0.025151 -0.004712 -0.004123 0.000000 0.000000 0.000000
# 2 -0.004712 0.025151 -0.004123 0.000000 0.000000 0.000000
# 3 -0.004123 -0.004123 0.006965 0.000000 0.000000 0.000000
# 4 0.000000 0.000000 0.000000 0.036210 0.000000 0.000000
# 5 0.000000 0.000000 0.000000 0.000000 0.036210 0.000000
# 6 0.000000 0.000000 0.000000 0.000000 0.000000 0.059726
#
#
# Mechanical properties :
#
#
# Convention : Reuss Voigt Hill
#
# Bulk Modulus (GPa) = 31.89719 52.15173 42.02446
# Shear Modulus (GPa) = 22.14546 27.38760 24.76653
#
# Velocity S-wave (km/s) = 3.22340 3.58467 3.40883
# Velocity P-wave (km/s) = 5.36838 6.44996 5.93386
#
# Compressibility (1/GPa) = 0.03135072
#
# Stress axis : x y z
#
# Youngs Moduli (GPa) = 39.75997 39.76015 143.56940
#
# Poissons Ratio (x) = 0.18735 0.59195
# Poissons Ratio (y) = 0.18735 0.59195
# Poissons Ratio (z) = 0.16393 0.16393
#
# Static dielectric constant tensor:
#      x y z
#    x 3.436980 0.000000 0.000000 
#    y 0.000000 3.436980 0.000000 
#    z 0.000000 0.000000 4.219340 
# 
# 
# High freq. dielectric constant tensor:
#      x y z
#    x 1.787860 0.000000 0.000000 
#    y 0.000000 1.787860 0.000000 
#    z 0.000000 0.000000 1.865790 
# 
# From -- ./inp_files/2010.got.cif
#   From: 2010.03.12/outbox.cif.g09.slc.cpg/sg188_2_cif.got.tgz:2010.got - 2010.04.01 12:01:06.
