data_PCOD8327660
_publ_section_title
;
Structure prediction by ZEFSAII (Michael W. Deem and Ramdas Pophale) SiO2 
 PCOD8327660
Probable space group: P -6 2 M
;
_chemical_formula_sum "Si O2"
_cell_formula_units_Z 96
_cell_length_a 14.784937
_cell_length_b 14.784937
_cell_length_c 27.919374
_cell_angle_alpha 90.000000
_cell_angle_beta 90.000000
_cell_angle_gamma 120.000000
_cell_volume 5285.368411
_symmetry_space_group_name_H-M "P -6 2 M"
_symmetry_group_IT_number 189
_symmetry_cell_setting 'hexagonal'
loop_
_space_group_symop_operation_xyz
x,y,z
-x+y,-x,-z
-y,x-y,z
x,y,-z
-x+y,-x,z
-y,x-y,-z
x-y,-y,-z
-x,-x+y,-z
y,x,-z
y,x,z
x-y,-y,z
-x,-x+y,z
loop_
_atom_site_type_symbol
_atom_site_label
_atom_site_fract_x
_atom_site_fract_y
_atom_site_fract_z
Si Si1 0.756571 0.291572 0.295305
Si Si2 0.878507 0.286198 0.205460
Si Si3 0.761593 0.547022 0.601158
Si Si4 0.880753 0.449854 0.444867
Si Si5 0.119269 0.550489 0.874579
Si Si6 0.875684 0.631262 0.130431
Si Si7 0.880680 0.760026 0.554843
Si Si8 0.123915 0.401277 0.054741
O O1 0.782895 0.412715 0.292607
O O2 0.812912 0.264611 0.253621
O O3 0.801745 0.270922 0.343603
O O4 0.865410 0.371212 0.175097
O O5 0.832089 0.178064 0.175736
O O6 0.000000 0.327765 0.216935
O O7 0.803075 0.468717 0.587777
O O8 0.663505 0.526055 0.568429
O O9 0.851292 0.664741 0.590773
O O10 0.852977 0.452906 0.500000
O O11 0.000000 0.536381 0.434480
O O12 0.169016 0.674606 0.870049
O O13 0.162722 0.512690 0.918967
O O14 0.000000 0.509320 0.886193
O O15 0.835182 0.657138 0.081191
O O16 0.000000 0.703356 0.134665
O O17 0.863715 0.719798 0.500000
O O18 0.811234 0.811234 0.567494
O O19 0.000000 0.846337 0.563846
O O20 0.000000 0.327174 0.059684
O O21 0.160798 0.422822 0.000000
#
# Coordination Sequence:
#
# PCOD8327660 Si02
#       8
#    12  12  12  12  12  12  12  12
#     4  10  21  39  56  81 114 146 181 224 272 329
#     4  10  20  36  59  81 105 142 184 229 284 335
#     4  12  21  38  54  81 117 149 182 226 280 339
#     4  11  22  35  54  79 109 148 188 222 266 332
#     4   8  16  31  50  75 103 137 181 224 269 322
#     4  10  19  33  54  80 108 138 183 235 279 334
#     4  10  21  38  60  84 110 145 193 244 286 325
#     4   9  18  33  51  74 111 152 185 224 274 328
#
# _framework density 18.163350999999999
#
# number of rings (size 3 to 8) (size 9 to 14) (size 15 to 20)
#    0.250    1.750    1.250    4.125    0.000    4.250 
#    6.000    2.500    0.000    2.000    0.000    0.000 
#    0.000    0.000    0.000    0.000    0.000    0.000 
#
# Total GULP energy -1190238.229517 kJ/mol
# GULP energy per Si atom -12398.314891 kJ/mol
# Density = 1.812201 g / cm^3
# Si number density = 18.163351 Si / 1000 Ang^3
#
#
#
# Elastic Constant Matrix: (Units=GPa)
#
#
# Indices 1 2 3 4 5 6 
#
# 1 75.0814 22.3936 44.1382 0.0000 0.0000 0.0000
# 2 22.3936 75.0814 44.1382 0.0000 0.0000 0.0000
# 3 44.1382 44.1382 123.9079 0.0000 0.0000 0.0000
# 4 0.0000 0.0000 0.0000 22.1371 0.0000 0.0000
# 5 0.0000 0.0000 0.0000 0.0000 22.1371 0.0000
# 6 0.0000 0.0000 0.0000 0.0000 0.0000 26.3439
#
#
#
# Elastic Compliance Matrix: (Units=1/GPa)
#
#
# Indices 1 2 3 4 5 6 
#
# 1 0.017062 -0.001917 -0.005395 0.000000 0.000000 0.000000
# 2 -0.001917 0.017062 -0.005395 0.000000 0.000000 0.000000
# 3 -0.005395 -0.005395 0.011914 0.000000 0.000000 0.000000
# 4 0.000000 0.000000 0.000000 0.045173 0.000000 0.000000
# 5 0.000000 0.000000 0.000000 0.000000 0.045173 0.000000
# 6 0.000000 0.000000 0.000000 0.000000 0.000000 0.037959
#
#
# Mechanical properties :
#
#
# Convention : Reuss Voigt Hill
#
# Bulk Modulus (GPa) = 48.48675 55.04561 51.76618
# Shear Modulus (GPa) = 24.19751 25.01702 24.60727
#
# Velocity S-wave (km/s) = 3.65391 3.71527 3.68472
# Velocity P-wave (km/s) = 6.67489 6.98398 6.83119
#
# Compressibility (1/GPa) = 0.02062419
#
# Stress axis : x y z
#
# Youngs Moduli (GPa) = 58.60894 58.60894 83.93504
#
# Poissons Ratio (x) = 0.11238 0.45282
# Poissons Ratio (y) = 0.11238 0.45282
# Poissons Ratio (z) = 0.31619 0.31619
#
# Static dielectric constant tensor:
#      x y z
#    x 3.258580 0.000000 0.000000 
#    y 0.000000 3.258580 0.000000 
#    z 0.000000 0.000000 3.249480 
# 
# 
# High freq. dielectric constant tensor:
#      x y z
#    x 1.695700 0.000000 0.000000 
#    y 0.000000 1.695700 0.000000 
#    z 0.000000 0.000000 1.697690 
# 
# From -- ./inp_files/3699.got.cif
#   From: 2010.03.12/outbox.cif.g09.slc.cpg/sg189_2_cif.got.tgz:3699.got - 2010.04.01 12:03:36.
