data_PCOD8327690
_publ_section_title
;
Structure prediction by ZEFSAII (Michael W. Deem and Ramdas Pophale) SiO2 
 PCOD8327690
Probable space group: P -6 2 M
;
_chemical_formula_sum "Si O2"
_cell_formula_units_Z 60
_cell_length_a 17.388078
_cell_length_b 17.388078
_cell_length_c 11.560156
_cell_angle_alpha 90.000000
_cell_angle_beta 90.000000
_cell_angle_gamma 120.000000
_cell_volume 3026.895905
_symmetry_space_group_name_H-M "P -6 2 M"
_symmetry_group_IT_number 189
_symmetry_cell_setting 'hexagonal'
loop_
_space_group_symop_operation_xyz
x,y,z
-x+y,-x,-z
-y,x-y,z
x,y,-z
-x+y,-x,z
-y,x-y,-z
x-y,-y,-z
-x,-x+y,-z
y,x,-z
y,x,z
x-y,-y,z
-x,-x+y,z
loop_
_atom_site_type_symbol
_atom_site_label
_atom_site_fract_x
_atom_site_fract_y
_atom_site_fract_z
Si Si1 0.507880 0.612457 0.717358
Si Si2 0.201801 0.000000 0.863789
Si Si3 0.606541 0.711663 0.500000
Si Si4 0.000000 0.098148 0.369505
Si Si5 0.771966 0.605642 0.868816
Si Si6 0.900048 0.560840 0.268497
Si Si7 0.653492 0.903784 0.500000
O O1 0.553289 0.553289 0.705827
O O2 0.540719 0.680242 0.609382
O O3 0.536925 0.671920 0.831344
O O4 0.402147 0.546245 0.723948
O O5 0.295402 0.087496 0.844988
O O6 0.146356 0.000000 0.751013
O O7 0.168232 0.000000 0.000000
O O8 0.673736 0.673736 0.500000
O O9 0.669102 0.819432 0.500000
O O10 0.000000 0.139284 0.500000
O O11 0.087682 0.087682 0.363958
O O12 0.844494 0.588988 0.810778
O O13 0.777760 0.586572 0.000000
O O14 0.899435 0.593647 0.395108
O O15 0.000000 0.606436 0.217780
O O16 0.746167 0.000000 0.500000
#
# Coordination Sequence:
#
# PCOD8327690 Si02
#       7
#    12   6   6   6  12  12   6
#     4  10  20  39  64  88 118 157 202 253 308 372
#     4  10  22  40  64  94 131 174 222 267 310 385
#     4  10  19  35  67  98 121 158 210 255 305 378
#     4   8  18  40  66  92 133 172 214 273 332 377
#     4  11  23  40  61  90 123 163 215 258 302 372
#     4  10  22  40  63  89 122 159 198 253 319 374
#     4  10  19  37  63  94 129 159 197 250 310 377
#
# _framework density 19.822286999999999
#
# number of rings (size 3 to 8) (size 9 to 14) (size 15 to 20)
#    0.200    1.800    3.000    0.600    0.000    4.800 
#    4.800    4.000    0.000    0.200    0.000    0.000 
#    0.000    0.000    0.000    0.000    0.000    0.000 
#
# Total GULP energy -743304.722408 kJ/mol
# GULP energy per Si atom -12388.412040 kJ/mol
# Density = 1.977717 g / cm^3
# Si number density = 19.822287 Si / 1000 Ang^3
#
#
#
# Elastic Constant Matrix: (Units=GPa)
#
#
# Indices 1 2 3 4 5 6 
#
# 1 19.2734 125.6385 60.3299 0.0000 0.0000 0.0000
# 2 125.6385 19.2734 60.3299 0.0000 0.0000 0.0000
# 3 60.3299 60.3299 152.2714 0.0000 0.0000 0.0000
# 4 0.0000 0.0000 0.0000 123.0577 0.0000 0.0000
# 5 0.0000 0.0000 0.0000 0.0000 123.0577 0.0000
# 6 0.0000 0.0000 0.0000 0.0000 0.0000 -53.1825
#
#
#
# Elastic Compliance Matrix: (Units=1/GPa)
#
#
# Indices 1 2 3 4 5 6 
#
# 1 0.000448 0.009850 -0.004080 0.000000 0.000000 0.000000
# 2 0.009850 0.000448 -0.004080 0.000000 0.000000 0.000000
# 3 -0.004080 -0.004080 0.009800 0.000000 0.000000 0.000000
# 4 0.000000 0.000000 0.000000 0.008126 0.000000 0.000000
# 5 0.000000 0.000000 0.000000 0.000000 0.008126 0.000000
# 6 0.000000 0.000000 0.000000 0.000000 0.000000 -0.018803
#
#
# Mechanical properties :
#
#
# Convention : Reuss Voigt Hill
#
# Bulk Modulus (GPa) = 71.04300 75.93498 73.48899
# Shear Modulus (GPa) = 528.61303 34.88788 281.75046
#
# Velocity S-wave (km/s) = 16.34794 4.19983 11.93511
# Velocity P-wave (km/s) = 19.80550 7.86823 15.06929
#
# Compressibility (1/GPa) = 0.01407598
#
# Stress axis : x y z
#
# Youngs Moduli (GPa) = 2231.15081 2231.15096 102.03806
#
# Poissons Ratio (x) = -21.97635 0.41632
# Poissons Ratio (y) = -21.97635 0.41632
# Poissons Ratio (z) = 9.10323 9.10323
#
# Static dielectric constant tensor:
#      x y z
#    x 3.801250 0.000000 0.000000 
#    y 0.000000 3.801250 0.000000 
#    z 0.000000 0.000000 4.039890 
# 
# 
# High freq. dielectric constant tensor:
#      x y z
#    x 1.767300 0.000000 0.000000 
#    y 0.000000 1.767300 0.000000 
#    z 0.000000 0.000000 1.784220 
# 
# From -- ./inp_files/2008.got.cif
#   From: 2010.03.12/outbox.cif.g09.slc.cpg/sg189_2_cif.got.tgz:2008.got - 2010.04.01 12:03:36.
