data_PCOD8327591
_publ_section_title
;
Structure prediction by ZEFSAII (Michael W. Deem and Ramdas Pophale) SiO2 
 PCOD8327591
Probable space group: P -6 2 M
;
_chemical_formula_sum "Si O2"
_cell_formula_units_Z 60
_cell_length_a 16.903318
_cell_length_b 16.903318
_cell_length_c 13.753287
_cell_angle_alpha 90.000000
_cell_angle_beta 90.000000
_cell_angle_gamma 120.000000
_cell_volume 3403.149760
_symmetry_space_group_name_H-M "P -6 2 M"
_symmetry_group_IT_number 189
_symmetry_cell_setting 'hexagonal'
loop_
_space_group_symop_operation_xyz
x,y,z
-x+y,-x,-z
-y,x-y,z
x,y,-z
-x+y,-x,z
-y,x-y,-z
x-y,-y,-z
-x,-x+y,-z
y,x,-z
y,x,z
x-y,-y,z
-x,-x+y,z
loop_
_atom_site_type_symbol
_atom_site_label
_atom_site_fract_x
_atom_site_fract_y
_atom_site_fract_z
Si Si1 0.894311 0.786727 0.725423
Si Si2 0.537315 0.643650 0.214491
Si Si3 0.616269 0.108443 0.890316
Si Si4 0.108363 0.366636 0.607674
Si Si5 0.180799 0.355313 0.112864
O O1 0.856567 0.856567 0.728116
O O2 0.842115 0.707528 0.645388
O O3 0.880505 0.740284 0.830910
O O4 0.000000 0.841842 0.696494
O O5 0.577031 0.577031 0.228427
O O6 0.432574 0.582567 0.178344
O O7 0.547167 0.695199 0.317646
O O8 0.597213 0.717627 0.132549
O O9 0.716864 0.141737 0.849658
O O10 0.559493 0.000000 0.889543
O O11 0.621484 0.145090 0.000000
O O12 0.150209 0.400724 0.500000
O O13 0.000000 0.319689 0.604539
O O14 0.179594 0.332300 0.000000
#
# Coordination Sequence:
#
# PCOD8327591 Si02
#       5
#    12  12  12  12  12
#     4  10  20  32  47  69  99 136 176 216 255 295
#     4   9  17  30  49  70  92 122 158 198 246 298
#     4   9  17  29  45  66  93 123 153 189 238 295
#     4   8  15  29  49  71  92 117 155 201 244 289
#     4  10  19  31  47  68  95 130 166 205 250 298
#
# _framework density 17.630727
#
# number of rings (size 3 to 8) (size 9 to 14) (size 15 to 20)
#    0.000    2.800    0.000    3.200    0.000    4.000 
#    1.200    0.000    0.000    7.200    0.000    5.600 
#    0.000    0.000    0.000    0.000    0.000    0.000 
#
# Total GULP energy -743687.449470 kJ/mol
# GULP energy per Si atom -12394.790824 kJ/mol
# Density = 1.759060 g / cm^3
# Si number density = 17.630727 Si / 1000 Ang^3
#
#
#
# Elastic Constant Matrix: (Units=GPa)
#
#
# Indices 1 2 3 4 5 6 
#
# 1 44.0496 3.3026 24.8023 0.0000 0.0000 0.0000
# 2 3.3026 44.0496 24.8023 0.0000 0.0000 0.0000
# 3 24.8023 24.8023 100.7078 0.0000 0.0000 0.0000
# 4 0.0000 0.0000 0.0000 17.3435 0.0000 0.0000
# 5 0.0000 0.0000 0.0000 0.0000 17.3435 0.0000
# 6 0.0000 0.0000 0.0000 0.0000 0.0000 20.3735
#
#
#
# Elastic Compliance Matrix: (Units=1/GPa)
#
#
# Indices 1 2 3 4 5 6 
#
# 1 0.026501 0.001960 -0.007009 0.000000 0.000000 0.000000
# 2 0.001960 0.026501 -0.007009 0.000000 0.000000 0.000000
# 3 -0.007009 -0.007009 0.013382 0.000000 0.000000 0.000000
# 4 0.000000 0.000000 0.000000 0.057658 0.000000 0.000000
# 5 0.000000 0.000000 0.000000 0.000000 0.057658 0.000000
# 6 0.000000 0.000000 0.000000 0.000000 0.000000 0.049083
#
#
# Mechanical properties :
#
#
# Convention : Reuss Voigt Hill
#
# Bulk Modulus (GPa) = 23.65916 32.73571 28.19744
# Shear Modulus (GPa) = 18.58788 20.07209 19.32998
#
# Velocity S-wave (km/s) = 3.25050 3.37779 3.31476
# Velocity P-wave (km/s) = 5.24749 5.81552 5.53879
#
# Compressibility (1/GPa) = 0.04226692
#
# Stress axis : x y z
#
# Youngs Moduli (GPa) = 37.73385 37.73385 74.72576
#
# Poissons Ratio (x) = -0.07395 0.52378
# Poissons Ratio (y) = -0.07395 0.52378
# Poissons Ratio (z) = 0.26449 0.26449
#
# Static dielectric constant tensor:
#      x y z
#    x 3.228190 0.000000 0.000000 
#    y 0.000000 3.228190 0.000000 
#    z 0.000000 0.000000 3.542940 
# 
# 
# High freq. dielectric constant tensor:
#      x y z
#    x 1.666170 0.000000 0.000000 
#    y 0.000000 1.666170 0.000000 
#    z 0.000000 0.000000 1.673730 
# 
# From -- ./inp_files/2519.got.cif
#   From: 2010.03.12/outbox.cif.g09.slc.cpg/sg189_2_cif.got.tgz:2519.got - 2010.04.01 12:03:36.
