data_PCOD8327320
_publ_section_title
;
Structure prediction by ZEFSAII (Michael W. Deem and Ramdas Pophale) SiO2 
 PCOD8327320
Probable space group: P -6 C 2
;
_chemical_formula_sum "Si O2"
_cell_formula_units_Z 66
_cell_length_a 13.529128
_cell_length_b 13.529128
_cell_length_c 21.041015
_cell_angle_alpha 90.000000
_cell_angle_beta 90.000000
_cell_angle_gamma 120.000000
_cell_volume 3335.315556
_symmetry_space_group_name_H-M "P -6 C 2"
_symmetry_group_IT_number 188
_symmetry_cell_setting 'hexagonal'
loop_
_space_group_symop_operation_xyz
x,y,z
-x+y,-x,1/2-z
-y,x-y,z
x,y,1/2-z
-x+y,-x,z
-y,x-y,1/2-z
-y,-x,-z
-x+y,y,-z
x,x-y,-z
-x+y,y,1/2+z
x,x-y,1/2+z
-y,-x,1/2+z
loop_
_atom_site_type_symbol
_atom_site_label
_atom_site_fract_x
_atom_site_fract_y
_atom_site_fract_z
Si Si1 0.896210 0.553690 0.611348
Si Si2 0.691674 0.645758 0.250000
Si Si3 0.910208 0.648646 0.250000
Si Si4 0.440098 0.114500 0.616283
Si Si5 0.513291 0.641084 0.058418
Si Si6 0.544754 0.686547 0.883517
Si Si7 0.210545 0.836517 0.750000
O O1 0.929740 0.571820 0.685979
O O2 0.856285 0.422361 0.594773
O O3 0.797200 0.581970 0.591470
O O4 0.005199 0.633765 0.566478
O O5 0.827554 0.700953 0.250000
O O6 0.675847 0.753667 0.250000
O O7 0.887314 0.563646 0.307839
O O8 0.033536 0.761583 0.250000
O O9 0.342367 0.986287 0.594668
O O10 0.431629 0.575831 0.118776
O O11 0.545712 0.773394 0.061717
O O12 0.433013 0.566987 0.000000
O O13 0.553892 0.737076 0.813807
#
# Coordination Sequence:
#
# PCOD8327320 Si02
#       7
#    12   6   6  12  12  12   6
#     4  10  19  33  56  83 113 151 188 238 295 352
#     4  10  17  31  54  77 115 150 186 236 296 348
#     4   8  17  29  46  77 112 149 180 227 281 359
#     4   9  18  32  53  80 114 145 186 229 292 352
#     4  11  22  37  57  81 112 156 201 243 294 351
#     4  10  21  36  56  81 115 151 189 245 295 353
#     4  10  18  34  54  82 117 143 194 239 295 353
#
# _framework density 19.788233000000002
#
# number of rings (size 3 to 8) (size 9 to 14) (size 15 to 20)
#    0.000    2.182    1.818    1.818    0.000    2.909 
#    0.545    5.455    0.000    0.727    0.000    0.000 
#    0.000    0.000    0.000    0.000    0.000    0.000 
#
# Total GULP energy -817684.259506 kJ/mol
# GULP energy per Si atom -12389.155447 kJ/mol
# Density = 1.974319 g / cm^3
# Si number density = 19.788233 Si / 1000 Ang^3
#
#
#
# Elastic Constant Matrix: (Units=GPa)
#
#
# Indices 1 2 3 4 5 6 
#
# 1 125.1003 62.7290 21.6508 -0.0001 0.0000 0.0000
# 2 62.7290 125.1003 21.6508 0.0001 0.0000 0.0000
# 3 21.6508 21.6508 65.9470 0.0000 0.0000 0.0000
# 4 -0.0001 0.0001 0.0000 14.5461 0.0000 0.0000
# 5 0.0000 0.0000 0.0000 0.0000 14.5461 -0.0001
# 6 0.0000 0.0000 0.0000 0.0000 -0.0001 31.1856
#
#
#
# Elastic Compliance Matrix: (Units=1/GPa)
#
#
# Indices 1 2 3 4 5 6 
#
# 1 0.010896 -0.005137 -0.001891 0.000000 0.000000 0.000000
# 2 -0.005137 0.010896 -0.001891 0.000000 0.000000 0.000000
# 3 -0.001891 -0.001891 0.016405 0.000000 0.000000 0.000000
# 4 0.000000 0.000000 0.000000 0.068747 0.000000 0.000000
# 5 0.000000 0.000000 0.000000 0.000000 0.068747 0.000000
# 6 0.000000 0.000000 0.000000 0.000000 0.000000 0.032066
#
#
# Mechanical properties :
#
#
# Convention : Reuss Voigt Hill
#
# Bulk Modulus (GPa) = 49.11316 58.68989 53.90152
# Shear Modulus (GPa) = 21.51622 26.06335 23.78979
#
# Velocity S-wave (km/s) = 3.30104 3.63314 3.47106
# Velocity P-wave (km/s) = 6.27713 6.87917 6.58504
#
# Compressibility (1/GPa) = 0.02036114
#
# Stress axis : x y z
#
# Youngs Moduli (GPa) = 91.77277 91.77277 60.95566
#
# Poissons Ratio (x) = 0.47140 0.11527
# Poissons Ratio (y) = 0.47140 0.11527
# Poissons Ratio (z) = 0.17354 0.17354
#
# Static dielectric constant tensor:
#      x y z
#    x 3.712740 0.000000 0.000000 
#    y 0.000000 3.712740 0.000000 
#    z 0.000000 0.000000 3.659490 
# 
# 
# High freq. dielectric constant tensor:
#      x y z
#    x 1.763730 0.000000 0.000000 
#    y 0.000000 1.763730 0.000000 
#    z 0.000000 0.000000 1.769300 
# 
# From -- ./inp_files/3768.got.cif
#   From: 2010.03.12/outbox.cif.g09.slc.cpg/sg188_2_cif.got.tgz:3768.got - 2010.04.01 12:01:06.
