data_PCOD8327455
_publ_section_title
;
Structure prediction by ZEFSAII (Michael W. Deem and Ramdas Pophale) SiO2 
 PCOD8327455
Probable space group: P -6 C 2
;
_chemical_formula_sum "Si O2"
_cell_formula_units_Z 72
_cell_length_a 15.848487
_cell_length_b 15.848487
_cell_length_c 17.861427
_cell_angle_alpha 90.000000
_cell_angle_beta 90.000000
_cell_angle_gamma 120.000000
_cell_volume 3885.280698
_symmetry_space_group_name_H-M "P -6 C 2"
_symmetry_group_IT_number 188
_symmetry_cell_setting 'hexagonal'
loop_
_space_group_symop_operation_xyz
x,y,z
-x+y,-x,1/2-z
-y,x-y,z
x,y,1/2-z
-x+y,-x,z
-y,x-y,1/2-z
-y,-x,-z
-x+y,y,-z
x,x-y,-z
-x+y,y,1/2+z
x,x-y,1/2+z
-y,-x,1/2+z
loop_
_atom_site_type_symbol
_atom_site_label
_atom_site_fract_x
_atom_site_fract_y
_atom_site_fract_z
Si Si1 0.525090 0.858406 0.664955
Si Si2 0.829347 0.658692 0.338631
Si Si3 0.944138 0.375245 0.086907
Si Si4 0.333317 0.858406 0.835045
Si Si5 0.122067 0.061036 0.338109
Si Si6 0.944137 0.568890 0.086909
O O1 0.560913 0.893066 0.750000
O O2 0.541467 0.770733 0.641331
O O3 0.411140 0.822279 0.657778
O O4 0.587621 0.944584 0.607781
O O5 0.832227 0.664459 0.250000
O O6 0.719003 0.596853 0.364845
O O7 0.884712 0.769417 0.374173
O O8 0.877850 0.596849 0.364842
O O9 0.916847 0.458422 0.106488
O O10 0.928109 0.348208 0.999999
O O11 0.332154 0.893066 0.750000
O O12 0.356965 0.944585 0.892219
O O13 0.137619 0.068812 0.250000
O O14 0.055241 0.944763 0.360277
#
# Coordination Sequence:
#
# PCOD8327455 Si02
#       6
#    12  12  12  12  12  12
#     4   9  17  31  53  81 112 145 182 225 270 319
#     4  11  21  35  61  87 107 139 183 235 288 335
#     4  10  22  39  55  75 108 147 185 227 278 339
#     4   9  17  31  53  81 112 145 182 225 270 319
#     4   7  14  31  53  81 115 143 171 211 264 333
#     4  10  22  39  55  75 108 147 185 227 278 339
#
# _framework density 18.531479999999998
#
# number of rings (size 3 to 8) (size 9 to 14) (size 15 to 20)
#    0.333    2.333    0.000    1.833    0.000    5.333 
#    1.000    3.333    0.000    5.000    0.000    0.000 
#    0.000    0.000    0.000    0.000    0.000    0.000 
#
# Total GULP energy -892299.273233 kJ/mol
# GULP energy per Si atom -12393.045462 kJ/mol
# Density = 1.848930 g / cm^3
# Si number density = 18.531480 Si / 1000 Ang^3
#
#
#
# Elastic Constant Matrix: (Units=GPa)
#
#
# Indices 1 2 3 4 5 6 
#
# 1 112.3826 73.6534 44.5081 0.0000 0.0000 0.0000
# 2 73.6534 112.3826 44.5081 0.0000 0.0000 0.0000
# 3 44.5081 44.5081 60.8066 0.0000 0.0000 0.0000
# 4 0.0000 0.0000 0.0000 24.1901 0.0000 0.0000
# 5 0.0000 0.0000 0.0000 0.0000 24.1901 0.0000
# 6 0.0000 0.0000 0.0000 0.0000 0.0000 19.3646
#
#
#
# Elastic Compliance Matrix: (Units=1/GPa)
#
#
# Indices 1 2 3 4 5 6 
#
# 1 0.017047 -0.008774 -0.006055 0.000000 0.000000 0.000000
# 2 -0.008774 0.017047 -0.006055 0.000000 0.000000 0.000000
# 3 -0.006055 -0.006055 0.025310 0.000000 0.000000 0.000000
# 4 0.000000 0.000000 0.000000 0.041339 0.000000 0.000000
# 5 0.000000 0.000000 0.000000 0.000000 0.041339 0.000000
# 6 0.000000 0.000000 0.000000 0.000000 0.000000 0.051641
#
#
# Mechanical properties :
#
#
# Convention : Reuss Voigt Hill
#
# Bulk Modulus (GPa) = 56.70772 67.87901 62.29337
# Shear Modulus (GPa) = 20.71517 21.74245 21.22881
#
# Velocity S-wave (km/s) = 3.34703 3.42902 3.38827
# Velocity P-wave (km/s) = 6.75308 7.23783 6.99965
#
# Compressibility (1/GPa) = 0.01763428
#
# Stress axis : x y z
#
# Youngs Moduli (GPa) = 58.66303 58.66303 39.50989
#
# Poissons Ratio (x) = 0.51470 0.23924
# Poissons Ratio (y) = 0.51470 0.23924
# Poissons Ratio (z) = 0.35522 0.35522
#
# Static dielectric constant tensor:
#      x y z
#    x 3.586880 0.000000 0.000000 
#    y 0.000000 3.586880 0.000000 
#    z 0.000000 0.000000 3.237310 
# 
# 
# High freq. dielectric constant tensor:
#      x y z
#    x 1.717160 0.000000 0.000000 
#    y 0.000000 1.717160 0.000000 
#    z 0.000000 0.000000 1.701830 
# 
# From -- ./inp_files/3184.got.cif
#   From: 2010.03.12/outbox.cif.g09.slc.cpg/sg188_2_cif.got.tgz:3184.got - 2010.04.01 12:01:06.
