data_PCOD8327363
_publ_section_title
;
Structure prediction by ZEFSAII (Michael W. Deem and Ramdas Pophale) SiO2 
 PCOD8327363
Probable space group: P -6 C 2
;
_chemical_formula_sum "Si O2"
_cell_formula_units_Z 70
_cell_length_a 15.977131
_cell_length_b 15.977131
_cell_length_c 15.336351
_cell_angle_alpha 90.000000
_cell_angle_beta 90.000000
_cell_angle_gamma 120.000000
_cell_volume 3390.394723
_symmetry_space_group_name_H-M "P -6 C 2"
_symmetry_group_IT_number 188
_symmetry_cell_setting 'hexagonal'
loop_
_space_group_symop_operation_xyz
x,y,z
-x+y,-x,1/2-z
-y,x-y,z
x,y,1/2-z
-x+y,-x,z
-y,x-y,1/2-z
-y,-x,-z
-x+y,y,-z
x,x-y,-z
-x+y,y,1/2+z
x,x-y,1/2+z
-y,-x,1/2+z
loop_
_atom_site_type_symbol
_atom_site_label
_atom_site_fract_x
_atom_site_fract_y
_atom_site_fract_z
Si Si1 0.151306 0.941692 0.148285
Si Si2 0.783294 0.657725 0.411108
Si Si3 0.456396 0.717056 0.750000
Si Si4 0.788035 0.232700 0.750000
Si Si5 0.000000 0.000000 0.853987
Si Si6 0.559649 0.455478 0.250000
Si Si7 0.444717 0.008091 0.417582
Si Si8 0.582834 0.822356 0.592881
O O1 0.139238 0.917802 0.250000
O O2 0.159223 0.855850 0.100923
O O3 0.060197 0.949550 0.111831
O O4 0.247660 0.041548 0.132901
O O5 0.842810 0.685619 0.500000
O O6 0.827958 0.616806 0.339168
O O7 0.672810 0.579788 0.435421
O O8 0.378666 0.602392 0.750000
O O9 0.522906 0.742179 0.665040
O O10 0.817491 0.343357 0.750000
O O11 0.674261 0.162090 0.750000
O O12 0.000000 0.000000 0.750000
O O13 0.520171 0.484077 0.165080
O O14 0.496869 0.993737 0.500000
O O15 0.346877 0.910595 0.394988
O O16 0.544637 0.772319 0.500000
#
# Coordination Sequence:
#
# PCOD8327363 Si02
#       8
#    12  12   6   6   4   6  12  12
#     4  10  20  42  65  90 129 168 205 255 314 375
#     4  10  20  35  59  86 121 164 205 254 314 371
#     4  10  25  42  68  92 120 168 209 258 320 380
#     4  10  19  34  58  82 118 160 212 259 308 376
#     4   9  21  36  67  95 121 166 209 253 304 377
#     4  10  20  36  58  86 118 166 209 259 316 370
#     4  10  22  37  58  85 125 162 204 261 318 374
#     4  11  24  42  67  94 127 165 210 265 322 381
#
# _framework density 20.646564999999999
#
# number of rings (size 3 to 8) (size 9 to 14) (size 15 to 20)
#    0.171    1.714    1.714    1.714    4.800    2.743 
#    0.000    0.857    0.000    5.486    0.000    0.000 
#    0.000    0.000    0.000    0.000    0.000    0.000 
#
# Total GULP energy -868013.631651 kJ/mol
# GULP energy per Si atom -12400.194738 kJ/mol
# Density = 2.059957 g / cm^3
# Si number density = 20.646565 Si / 1000 Ang^3
#
#
#
# Elastic Constant Matrix: (Units=GPa)
#
#
# Indices 1 2 3 4 5 6 
#
# 1 66.9932 13.2264 21.6343 0.0001 0.0000 0.0000
# 2 13.2264 66.9932 21.6343 -0.0001 0.0000 0.0000
# 3 21.6343 21.6343 122.2490 0.0000 0.0000 0.0000
# 4 0.0001 -0.0001 0.0000 23.8875 0.0000 0.0000
# 5 0.0000 0.0000 0.0000 0.0000 23.8875 0.0001
# 6 0.0000 0.0000 0.0000 0.0000 0.0001 26.8834
#
#
#
# Elastic Compliance Matrix: (Units=1/GPa)
#
#
# Indices 1 2 3 4 5 6 
#
# 1 0.016190 -0.002409 -0.002439 0.000000 0.000000 0.000000
# 2 -0.002409 0.016190 -0.002439 0.000000 0.000000 0.000000
# 3 -0.002439 -0.002439 0.009043 0.000000 0.000000 0.000000
# 4 0.000000 0.000000 0.000000 0.041863 0.000000 0.000000
# 5 0.000000 0.000000 0.000000 0.000000 0.041863 0.000000
# 6 0.000000 0.000000 0.000000 0.000000 0.000000 0.037198
#
#
# Mechanical properties :
#
#
# Convention : Reuss Voigt Hill
#
# Bulk Modulus (GPa) = 37.24354 41.02506 39.13430
# Shear Modulus (GPa) = 26.90055 28.24771 27.57413
#
# Velocity S-wave (km/s) = 3.61350 3.70287 3.65846
# Velocity P-wave (km/s) = 5.95714 6.18021 6.06970
#
# Compressibility (1/GPa) = 0.02685030
#
# Stress axis : x y z
#
# Youngs Moduli (GPa) = 61.76639 61.76639 110.57988
#
# Poissons Ratio (x) = 0.14878 0.26969
# Poissons Ratio (y) = 0.14878 0.26969
# Poissons Ratio (z) = 0.15064 0.15064
#
# Static dielectric constant tensor:
#      x y z
#    x 3.670720 0.000000 0.000000 
#    y 0.000000 3.670720 0.000000 
#    z 0.000000 0.000000 3.738120 
# 
# 
# High freq. dielectric constant tensor:
#      x y z
#    x 1.800220 0.000000 0.000000 
#    y 0.000000 1.800220 0.000000 
#    z 0.000000 0.000000 1.817470 
# 
# From -- ./inp_files/3269.got.cif
#   From: 2010.03.12/outbox.cif.g09.slc.cpg/sg188_2_cif.got.tgz:3269.got - 2010.04.01 12:01:06.
