data_PCOD8327594
_publ_section_title
;
Structure prediction by ZEFSAII (Michael W. Deem and Ramdas Pophale) SiO2 
 PCOD8327594
Probable space group: P -6 2 M
;
_chemical_formula_sum "Si O2"
_cell_formula_units_Z 72
_cell_length_a 23.866925
_cell_length_b 23.866925
_cell_length_c 8.549211
_cell_angle_alpha 90.000000
_cell_angle_beta 90.000000
_cell_angle_gamma 120.000000
_cell_volume 4217.446716
_symmetry_space_group_name_H-M "P -6 2 M"
_symmetry_group_IT_number 189
_symmetry_cell_setting 'hexagonal'
loop_
_space_group_symop_operation_xyz
x,y,z
-x+y,-x,-z
-y,x-y,z
x,y,-z
-x+y,-x,z
-y,x-y,-z
x-y,-y,-z
-x,-x+y,-z
y,x,-z
y,x,z
x-y,-y,z
-x,-x+y,z
loop_
_atom_site_type_symbol
_atom_site_label
_atom_site_fract_x
_atom_site_fract_y
_atom_site_fract_z
Si Si1 0.143601 0.071553 0.814051
Si Si2 0.522497 0.929046 0.314942
Si Si3 0.261286 0.408552 0.317020
Si Si4 0.528446 0.268366 0.818491
Si Si5 0.602937 0.407636 0.316720
Si Si6 0.195253 0.270183 0.817165
O O1 0.095072 0.095072 0.749203
O O2 0.216885 0.122701 0.763469
O O3 0.121537 0.000000 0.746931
O O4 0.139968 0.070134 0.000000
O O5 0.525292 0.934037 0.500000
O O6 0.571450 0.904828 0.258780
O O7 0.449619 0.877638 0.262570
O O8 0.545931 0.000000 0.241041
O O9 0.260360 0.421377 0.500000
O O10 0.238880 0.453396 0.227444
O O11 0.213265 0.334007 0.279714
O O12 0.574659 0.332074 0.718684
O O13 0.547604 0.214351 0.781441
O O14 0.539011 0.286450 0.000000
O O15 0.618158 0.419144 0.500000
O O16 0.244229 0.244229 0.776783
O O17 0.197847 0.285465 0.000000
#
# Coordination Sequence:
#
# PCOD8327594 Si02
#       6
#    12  12  12  12  12  12
#     4   8  13  22  39  64  93 124 157 193 235 284
#     4   8  15  28  47  70  92 115 145 182 223 268
#     4  10  19  31  48  69  93 123 158 193 231 280
#     4  11  21  33  49  70  97 126 157 193 234 275
#     4  10  19  32  50  72  98 125 155 189 227 276
#     4   9  17  28  43  67  97 124 152 192 240 284
#
# _framework density 17.071940000000001
#
# number of rings (size 3 to 8) (size 9 to 14) (size 15 to 20)
#    0.000    2.667    0.000    5.500    0.000    1.667 
#    0.000    0.000    0.000   11.500    0.000    0.000 
#    0.000    1.333    0.000    0.000    0.000    0.000 
#
# Total GULP energy -892607.264322 kJ/mol
# GULP energy per Si atom -12397.323116 kJ/mol
# Density = 1.703308 g / cm^3
# Si number density = 17.071940 Si / 1000 Ang^3
#
#
#
# Elastic Constant Matrix: (Units=GPa)
#
#
# Indices 1 2 3 4 5 6 
#
# 1 118.8441 62.0993 16.5986 0.0000 0.0000 0.0000
# 2 62.0993 118.8441 16.5986 0.0000 0.0000 0.0000
# 3 16.5986 16.5986 41.1882 0.0000 0.0000 0.0000
# 4 0.0000 0.0000 0.0000 18.6213 0.0000 0.0000
# 5 0.0000 0.0000 0.0000 0.0000 18.6213 0.0000
# 6 0.0000 0.0000 0.0000 0.0000 0.0000 28.3724
#
#
#
# Elastic Compliance Matrix: (Units=1/GPa)
#
#
# Indices 1 2 3 4 5 6 
#
# 1 0.011795 -0.005827 -0.002405 0.000000 0.000000 0.000000
# 2 -0.005827 0.011795 -0.002405 0.000000 0.000000 0.000000
# 3 -0.002405 -0.002405 0.026217 0.000000 0.000000 0.000000
# 4 0.000000 0.000000 0.000000 0.053702 0.000000 0.000000
# 5 0.000000 0.000000 0.000000 0.000000 0.053702 0.000000
# 6 0.000000 0.000000 0.000000 0.000000 0.000000 0.035245
#
#
# Mechanical properties :
#
#
# Convention : Reuss Voigt Hill
#
# Bulk Modulus (GPa) = 35.04732 52.16329 43.60531
# Shear Modulus (GPa) = 22.39712 25.36167 23.87940
#
# Velocity S-wave (km/s) = 3.62598 3.85850 3.74405
# Velocity P-wave (km/s) = 6.17285 7.10437 6.65493
#
# Compressibility (1/GPa) = 0.02853285
#
# Stress axis : x y z
#
# Youngs Moduli (GPa) = 84.77963 84.77963 38.14287
#
# Poissons Ratio (x) = 0.49405 0.09173
# Poissons Ratio (y) = 0.49405 0.09173
# Poissons Ratio (z) = 0.20390 0.20390
#
# Static dielectric constant tensor:
#      x y z
#    x 3.315850 0.000000 0.000000 
#    y 0.000000 3.315850 0.000000 
#    z 0.000000 0.000000 2.905280 
# 
# 
# High freq. dielectric constant tensor:
#      x y z
#    x 1.649780 0.000000 0.000000 
#    y 0.000000 1.649780 0.000000 
#    z 0.000000 0.000000 1.638490 
# 
# From -- ./inp_files/1231.got.cif
#   From: 2010.03.12/outbox.cif.g09.slc.cpg/sg189_1_cif.got.tgz:1231.got - 2010.04.01 12:03:36.
