data_PCOD8327198
_publ_section_title
;
Structure prediction by ZEFSAII (Michael W. Deem and Ramdas Pophale) SiO2 
 PCOD8327198
Probable space group: P -6 M 2
;
_chemical_formula_sum "Si O2"
_cell_formula_units_Z 60
_cell_length_a 12.403020
_cell_length_b 12.403020
_cell_length_c 25.730826
_cell_angle_alpha 90.000000
_cell_angle_beta 90.000000
_cell_angle_gamma 120.000000
_cell_volume 3427.987643
_symmetry_space_group_name_H-M "P -6 M 2"
_symmetry_group_IT_number 187
_symmetry_cell_setting 'hexagonal'
loop_
_space_group_symop_operation_xyz
x,y,z
-x+y,-x,-z
-y,x-y,z
x,y,-z
-x+y,-x,z
-y,x-y,-z
-y,-x,-z
-x+y,y,-z
x,x-y,-z
-x+y,y,z
x,x-y,z
-y,-x,z
loop_
_atom_site_type_symbol
_atom_site_label
_atom_site_fract_x
_atom_site_fract_y
_atom_site_fract_z
Si Si1 0.000050 0.252678 0.399363
Si Si2 0.585027 0.919503 0.900182
Si Si3 0.919327 0.334650 0.000000
Si Si4 0.919059 0.584130 0.198927
Si Si5 0.668596 0.082477 0.500000
Si Si6 0.333539 0.918461 0.299117
O O1 0.116023 0.232046 0.407133
O O2 0.017414 0.340958 0.351214
O O3 0.986573 0.319214 0.449957
O O4 0.880281 0.119720 0.389394
O O5 0.441720 0.883440 0.900316
O O6 0.590231 0.795116 0.903288
O O7 0.657336 0.002932 0.949307
O O8 0.653375 0.991665 0.848131
O O9 0.795536 0.204465 0.000000
O O10 0.882317 0.441159 0.000000
O O11 0.797164 0.594328 0.195680
O O12 0.880083 0.440041 0.194877
O O13 0.988034 0.643842 0.252449
O O14 0.772557 0.227444 0.500000
O O15 0.535104 0.070208 0.500000
O O16 0.444869 0.889738 0.305082
O O17 0.209758 0.790243 0.287155
#
# Coordination Sequence:
#
# PCOD8327198 Si02
#       6
#    12  12   6  12   6  12
#     4  10  20  34  53  76 103 135 170 208 250 299
#     4  10  20  34  54  78 104 134 168 209 254 301
#     4  10  20  34  54  78 104 134 168 208 252 298
#     4  10  20  34  53  76 102 132 167 209 255 302
#     4  10  20  34  52  74 100 130 166 208 254 300
#     4  10  20  34  53  76 103 135 170 210 254 301
#
# _framework density 17.502980999999998
#
# number of rings (size 3 to 8) (size 9 to 14) (size 15 to 20)
#    0.000    2.000    0.000    4.000    0.000    0.000 
#    0.000    6.000    0.000   20.000    0.000    0.000 
#    0.000    0.000    0.000    0.000    0.000    0.000 
#
# Total GULP energy -744257.765282 kJ/mol
# GULP energy per Si atom -12404.296088 kJ/mol
# Density = 1.746314 g / cm^3
# Si number density = 17.502981 Si / 1000 Ang^3
#
#
#
# Elastic Constant Matrix: (Units=GPa)
#
#
# Indices 1 2 3 4 5 6 
#
# 1 111.4959 72.2798 52.4343 0.0000 -0.0001 0.0000
# 2 72.2798 111.4959 52.4343 0.0000 0.0001 0.0000
# 3 52.4343 52.4343 101.2474 0.0000 0.0000 0.0000
# 4 0.0000 0.0000 0.0000 17.6994 0.0000 0.0001
# 5 -0.0001 0.0001 0.0000 0.0000 17.6994 0.0000
# 6 0.0000 0.0000 0.0000 0.0001 0.0000 19.6081
#
#
#
# Elastic Compliance Matrix: (Units=1/GPa)
#
#
# Indices 1 2 3 4 5 6 
#
# 1 0.016612 -0.008888 -0.004000 0.000000 0.000000 0.000000
# 2 -0.008888 0.016612 -0.004000 0.000000 0.000000 0.000000
# 3 -0.004000 -0.004000 0.014020 0.000000 0.000000 0.000000
# 4 0.000000 0.000000 0.000000 0.056499 0.000000 0.000000
# 5 0.000000 0.000000 0.000000 0.000000 0.056499 0.000000
# 6 0.000000 0.000000 0.000000 0.000000 0.000000 0.050999
#
#
# Mechanical properties :
#
#
# Convention : Reuss Voigt Hill
#
# Bulk Modulus (GPa) = 74.25286 75.39290 74.82288
# Shear Modulus (GPa) = 20.03952 20.80741 20.42347
#
# Velocity S-wave (km/s) = 3.38734 3.45163 3.41963
# Velocity P-wave (km/s) = 7.60354 7.68458 7.64417
#
# Compressibility (1/GPa) = 0.01346749
#
# Stress axis : x y z
#
# Youngs Moduli (GPa) = 60.19789 60.19789 71.32656
#
# Poissons Ratio (x) = 0.53503 0.28532
# Poissons Ratio (y) = 0.53503 0.28532
# Poissons Ratio (z) = 0.24080 0.24080
#
# Static dielectric constant tensor:
#      x y z
#    x 3.199080 0.000000 0.000000 
#    y 0.000000 3.199080 0.000000 
#    z 0.000000 0.000000 3.466500 
# 
# 
# High freq. dielectric constant tensor:
#      x y z
#    x 1.680310 0.000000 0.000000 
#    y 0.000000 1.680310 0.000000 
#    z 0.000000 0.000000 1.698510 
# 
# From -- ./inp_files/4225.got.cif
#   From: 2010.03.12/outbox.cif.g09.slc.cpg/sg187_3_cif.got.tgz:4225.got - 2010.04.01 11:58:23.
