data_PCOD8327799
_publ_section_title
;
Structure prediction by ZEFSAII (Michael W. Deem and Ramdas Pophale) SiO2 
 PCOD8327799
Probable space group: P -6 2 M
;
_chemical_formula_sum "Si O2"
_cell_formula_units_Z 48
_cell_length_a 18.376336
_cell_length_b 18.376336
_cell_length_c 8.844009
_cell_angle_alpha 90.000000
_cell_angle_beta 90.000000
_cell_angle_gamma 120.000000
_cell_volume 2586.411685
_symmetry_space_group_name_H-M "P -6 2 M"
_symmetry_group_IT_number 189
_symmetry_cell_setting 'hexagonal'
loop_
_space_group_symop_operation_xyz
x,y,z
-x+y,-x,-z
-y,x-y,z
x,y,-z
-x+y,-x,z
-y,x-y,-z
x-y,-y,-z
-x,-x+y,-z
y,x,-z
y,x,z
x-y,-y,z
-x,-x+y,z
loop_
_atom_site_type_symbol
_atom_site_label
_atom_site_fract_x
_atom_site_fract_y
_atom_site_fract_z
Si Si1 0.248862 0.000000 0.179558
Si Si2 0.754369 0.596453 0.322772
Si Si3 0.089897 0.000000 0.177742
Si Si4 0.586688 0.489499 0.823882
Si Si5 0.904559 0.565952 0.674979
O O1 0.245387 0.916557 0.233602
O O2 0.168255 0.000000 0.255448
O O3 0.249306 0.000000 0.000000
O O4 0.749509 0.608751 0.500000
O O5 0.670939 0.512035 0.268972
O O6 0.838845 0.595472 0.278702
O O7 0.082621 0.082621 0.222298
O O8 0.103087 0.000000 0.000000
O O9 0.557563 0.557563 0.787991
O O10 0.515015 0.397660 0.774299
O O11 0.604666 0.487939 0.000000
O O12 0.894053 0.539268 0.500000
O O13 0.000000 0.640816 0.707770
#
# Coordination Sequence:
#
# PCOD8327799 Si02
#       5
#     6  12   6  12  12
#     4  11  21  33  55  85 114 147 194 243 279 330
#     4  11  22  36  57  84 114 152 189 228 280 340
#     4   7  14  31  51  73 106 149 190 231 285 334
#     4  10  20  36  59  84 111 144 183 232 279 327
#     4   9  20  39  60  82 111 148 188 229 278 339
#
# _framework density 18.558530000000001
#
# number of rings (size 3 to 8) (size 9 to 14) (size 15 to 20)
#    0.250    2.000    1.250    1.875    0.000    4.000 
#    1.500    0.000    0.000    2.250    0.000    0.000 
#    0.000    0.000    0.000    0.000    0.000    0.000 
#
# Total GULP energy -595017.458780 kJ/mol
# GULP energy per Si atom -12396.197058 kJ/mol
# Density = 1.851629 g / cm^3
# Si number density = 18.558530 Si / 1000 Ang^3
#
#
#
# Elastic Constant Matrix: (Units=GPa)
#
#
# Indices 1 2 3 4 5 6 
#
# 1 119.8127 67.8025 44.0895 0.0000 0.0000 0.0000
# 2 67.8025 119.8127 44.0895 0.0000 0.0000 0.0000
# 3 44.0895 44.0895 67.2275 0.0000 0.0000 0.0000
# 4 0.0000 0.0000 0.0000 22.5293 0.0000 0.0000
# 5 0.0000 0.0000 0.0000 0.0000 22.5293 0.0000
# 6 0.0000 0.0000 0.0000 0.0000 0.0000 26.0051
#
#
#
# Elastic Compliance Matrix: (Units=1/GPa)
#
#
# Indices 1 2 3 4 5 6 
#
# 1 0.013466 -0.005761 -0.005053 0.000000 0.000000 0.000000
# 2 -0.005761 0.013466 -0.005053 0.000000 0.000000 0.000000
# 3 -0.005053 -0.005053 0.021503 0.000000 0.000000 0.000000
# 4 0.000000 0.000000 0.000000 0.044387 0.000000 0.000000
# 5 0.000000 0.000000 0.000000 0.000000 0.044387 0.000000
# 6 0.000000 0.000000 0.000000 0.000000 0.000000 0.038454
#
#
# Mechanical properties :
#
#
# Convention : Reuss Voigt Hill
#
# Bulk Modulus (GPa) = 59.87924 68.75731 64.31827
# Shear Modulus (GPa) = 23.47819 24.27083 23.87451
#
# Velocity S-wave (km/s) = 3.56067 3.62027 3.59059
# Velocity P-wave (km/s) = 7.01709 7.38949 7.20570
#
# Compressibility (1/GPa) = 0.01670028
#
# Stress axis : x y z
#
# Youngs Moduli (GPa) = 74.26100 74.26100 46.50550
#
# Poissons Ratio (x) = 0.42782 0.23500
# Poissons Ratio (y) = 0.42782 0.23500
# Poissons Ratio (z) = 0.37525 0.37525
#
# Static dielectric constant tensor:
#      x y z
#    x 3.578470 0.000000 0.000000 
#    y 0.000000 3.578470 0.000000 
#    z 0.000000 0.000000 3.327220 
# 
# 
# High freq. dielectric constant tensor:
#      x y z
#    x 1.718180 0.000000 0.000000 
#    y 0.000000 1.718180 0.000000 
#    z 0.000000 0.000000 1.716470 
# 
# From -- ./inp_files/662.got.cif
#   From: 2010.03.12/outbox.cif.g09.slc.cpg/sg189_1_cif.got.tgz:662.got - 2010.04.01 12:03:36.
