data_PCOD8327015
_publ_section_title
;
Structure prediction by ZEFSAII (Michael W. Deem and Ramdas Pophale) SiO2 
 PCOD8327015
Probable space group: P -6 M 2
;
_chemical_formula_sum "Si O2"
_cell_formula_units_Z 60
_cell_length_a 12.598941
_cell_length_b 12.598941
_cell_length_c 26.274203
_cell_angle_alpha 90.000000
_cell_angle_beta 90.000000
_cell_angle_gamma 120.000000
_cell_volume 3611.838035
_symmetry_space_group_name_H-M "P -6 M 2"
_symmetry_group_IT_number 187
_symmetry_cell_setting 'hexagonal'
loop_
_space_group_symop_operation_xyz
x,y,z
-x+y,-x,-z
-y,x-y,z
x,y,-z
-x+y,-x,z
-y,x-y,-z
-y,-x,-z
-x+y,y,-z
x,x-y,-z
-x+y,y,z
x,x-y,z
-y,-x,z
loop_
_atom_site_type_symbol
_atom_site_label
_atom_site_fract_x
_atom_site_fract_y
_atom_site_fract_z
Si Si1 0.000618 0.750711 0.500000
Si Si2 0.999230 0.248305 0.095563
Si Si3 0.914376 0.583534 0.408258
Si Si4 0.424973 0.093910 0.701903
Si Si5 0.417739 0.086334 0.000000
Si Si6 0.669361 0.583880 0.187606
O O1 0.118294 0.881707 0.500000
O O2 0.884774 0.769548 0.500000
O O3 0.003940 0.678679 0.449942
O O4 0.892792 0.107209 0.096958
O O5 0.980876 0.319789 0.049398
O O6 0.003341 0.318440 0.147467
O O7 0.126489 0.252977 0.088244
O O8 0.775592 0.551184 0.419144
O O9 0.918529 0.459265 0.412487
O O10 0.959596 0.646895 0.351722
O O11 0.532860 0.065719 0.701971
O O12 0.479733 0.239867 0.701660
O O13 0.354105 0.041245 0.755668
O O14 0.537247 0.074494 0.000000
O O15 0.458100 0.229050 0.000000
O O16 0.774428 0.548855 0.176863
O O17 0.538922 0.461079 0.181944
#
# Coordination Sequence:
#
# PCOD8327015 Si02
#       6
#     6  12  12  12   6  12
#     4  10  20  32  44  58  82 118 156 188 216 256
#     4  10  20  33  49  68  93 126 161 193 221 255
#     4   9  16  27  46  71  95 114 136 175 228 281
#     4   8  13  22  39  66  96 120 140 168 217 277
#     4  10  20  34  54  78 100 118 140 180 234 286
#     4   9  16  27  46  71  97 122 148 182 225 272
#
# _framework density 16.61204
#
# number of rings (size 3 to 8) (size 9 to 14) (size 15 to 20)
#    0.000    2.800    0.000    2.200    0.000    3.200 
#    0.000    5.000    0.000    7.200    0.000    2.800 
#    0.000    0.000    0.000    0.000    0.000    0.000 
#
# Total GULP energy -743296.126974 kJ/mol
# GULP energy per Si atom -12388.268783 kJ/mol
# Density = 1.657423 g / cm^3
# Si number density = 16.612040 Si / 1000 Ang^3
#
#
#
# Elastic Constant Matrix: (Units=GPa)
#
#
# Indices 1 2 3 4 5 6 
#
# 1 73.6067 36.0268 51.5497 0.0000 0.0001 0.0000
# 2 36.0268 73.6067 51.5497 0.0000 -0.0001 0.0000
# 3 51.5497 51.5497 170.3457 0.0000 0.0000 0.0000
# 4 0.0000 0.0000 0.0000 11.3625 0.0000 -0.0001
# 5 0.0001 -0.0001 0.0000 0.0000 11.3625 0.0000
# 6 0.0000 0.0000 0.0000 -0.0001 0.0000 18.7899
#
#
#
# Elastic Compliance Matrix: (Units=1/GPa)
#
#
# Indices 1 2 3 4 5 6 
#
# 1 0.019680 -0.006930 -0.003858 0.000000 0.000000 0.000000
# 2 -0.006930 0.019680 -0.003858 0.000000 0.000000 0.000000
# 3 -0.003858 -0.003858 0.008206 0.000000 0.000000 0.000000
# 4 0.000000 0.000000 0.000000 0.088009 0.000000 0.000000
# 5 0.000000 0.000000 0.000000 0.000000 0.088009 0.000000
# 6 0.000000 0.000000 0.000000 0.000000 0.000000 0.053220
#
#
# Mechanical properties :
#
#
# Convention : Reuss Voigt Hill
#
# Bulk Modulus (GPa) = 54.72931 66.20129 60.46530
# Shear Modulus (GPa) = 16.01601 20.19848 18.10725
#
# Velocity S-wave (km/s) = 3.10840 3.49075 3.30511
# Velocity P-wave (km/s) = 6.77495 7.49567 7.14440
#
# Compressibility (1/GPa) = 0.01827175
#
# Stress axis : x y z
#
# Youngs Moduli (GPa) = 50.81348 50.81348 121.86830
#
# Poissons Ratio (x) = 0.35215 0.47020
# Poissons Ratio (y) = 0.35215 0.47020
# Poissons Ratio (z) = 0.19605 0.19605
#
# Static dielectric constant tensor:
#      x y z
#    x 2.786400 0.000000 0.000000 
#    y 0.000000 2.786400 0.000000 
#    z 0.000000 0.000000 3.874890 
# 
# 
# High freq. dielectric constant tensor:
#      x y z
#    x 1.605040 0.000000 0.000000 
#    y 0.000000 1.605040 0.000000 
#    z 0.000000 0.000000 1.674920 
# 
# From -- ./inp_files/4216.got.cif
#   From: 2010.03.12/outbox.cif.g09.slc.cpg/sg187_3_cif.got.tgz:4216.got - 2010.04.01 11:58:23.
