data_PCOD8327905
_publ_section_title
;
Structure prediction by ZEFSAII (Michael W. Deem and Ramdas Pophale) SiO2 
 PCOD8327905
Probable space group: P -6 2 M
;
_chemical_formula_sum "Si O2"
_cell_formula_units_Z 72
_cell_length_a 23.393303
_cell_length_b 23.393303
_cell_length_c 8.798099
_cell_angle_alpha 90.000000
_cell_angle_beta 90.000000
_cell_angle_gamma 120.000000
_cell_volume 4169.678481
_symmetry_space_group_name_H-M "P -6 2 M"
_symmetry_group_IT_number 189
_symmetry_cell_setting 'hexagonal'
loop_
_space_group_symop_operation_xyz
x,y,z
-x+y,-x,-z
-y,x-y,z
x,y,-z
-x+y,-x,z
-y,x-y,-z
x-y,-y,-z
-x,-x+y,-z
y,x,-z
y,x,z
x-y,-y,z
-x,-x+y,z
loop_
_atom_site_type_symbol
_atom_site_label
_atom_site_fract_x
_atom_site_fract_y
_atom_site_fract_z
Si Si1 0.485714 0.338586 0.323666
Si Si2 0.000000 0.285075 0.821420
Si Si3 0.482101 0.205237 0.327055
Si Si4 0.409453 0.000000 0.321782
Si Si5 0.803895 0.671386 0.322890
Si Si6 0.469669 0.592595 0.176492
Si Si7 0.663499 0.926483 0.319179
O O1 0.495108 0.360544 0.500000
O O2 0.502472 0.280595 0.299084
O O3 0.533169 0.397982 0.216158
O O4 0.411171 0.313778 0.267733
O O5 0.000000 0.348773 0.758642
O O6 0.935178 0.218536 0.766282
O O7 0.000000 0.287722 0.000000
O O8 0.497524 0.195328 0.500000
O O9 0.405084 0.156702 0.292395
O O10 0.525692 0.187889 0.215708
O O11 0.397848 0.000000 0.500000
O O12 0.477416 0.063487 0.277277
O O13 0.807386 0.688032 0.500000
O O14 0.875789 0.686954 0.260974
O O15 0.484085 0.589606 0.000000
O O16 0.663688 0.924929 0.500000
O O17 0.712269 0.000000 0.255195
#
# Coordination Sequence:
#
# PCOD8327905 Si02
#       7
#    12   6  12   6  12  12  12
#     4   9  19  35  55  77  99 134 179 215 256 316
#     4  12  22  32  50  80 110 136 168 211 258 309
#     4   9  18  35  55  72  95 133 176 212 254 317
#     4  12  24  38  56  74 100 138 176 215 262 325
#     4   9  17  31  53  77 104 137 169 203 248 307
#     4  12  24  36  52  78 108 133 168 222 278 321
#     4   8  15  30  54  82 105 131 173 214 246 290
#
# _framework density 17.267517999999999
#
# number of rings (size 3 to 8) (size 9 to 14) (size 15 to 20)
#    0.000    2.167    1.667    5.000    1.167    0.667 
#    1.000    2.500    0.000    1.500    0.000    0.000 
#    0.833    0.000    1.500    0.000    0.500    0.000 
#
# Total GULP energy -892788.972602 kJ/mol
# GULP energy per Si atom -12399.846842 kJ/mol
# Density = 1.722822 g / cm^3
# Si number density = 17.267518 Si / 1000 Ang^3
#
#
#
# Elastic Constant Matrix: (Units=GPa)
#
#
# Indices 1 2 3 4 5 6 
#
# 1 104.5684 62.7563 36.4137 0.0000 0.0000 0.0000
# 2 62.7563 104.5684 36.4137 0.0000 0.0000 0.0000
# 3 36.4137 36.4137 69.9636 0.0000 0.0000 0.0000
# 4 0.0000 0.0000 0.0000 10.3662 0.0000 0.0000
# 5 0.0000 0.0000 0.0000 0.0000 10.3662 0.0000
# 6 0.0000 0.0000 0.0000 0.0000 0.0000 20.9060
#
#
#
# Elastic Compliance Matrix: (Units=1/GPa)
#
#
# Indices 1 2 3 4 5 6 
#
# 1 0.015822 -0.008095 -0.004022 0.000000 0.000000 0.000000
# 2 -0.008095 0.015822 -0.004022 0.000000 0.000000 0.000000
# 3 -0.004022 -0.004022 0.018479 0.000000 0.000000 0.000000
# 4 0.000000 0.000000 0.000000 0.096468 0.000000 0.000000
# 5 0.000000 0.000000 0.000000 0.000000 0.096468 0.000000
# 6 0.000000 0.000000 0.000000 0.000000 0.000000 0.047833
#
#
# Mechanical properties :
#
#
# Convention : Reuss Voigt Hill
#
# Bulk Modulus (GPa) = 56.03271 61.14087 58.58679
# Shear Modulus (GPa) = 15.19223 17.89546 16.54385
#
# Velocity S-wave (km/s) = 2.96939 3.22276 3.09866
# Velocity P-wave (km/s) = 6.65406 7.02375 6.84141
#
# Compressibility (1/GPa) = 0.01784672
#
# Stress axis : x y z
#
# Youngs Moduli (GPa) = 63.20458 63.20458 54.11473
#
# Poissons Ratio (x) = 0.51163 0.21762
# Poissons Ratio (y) = 0.51163 0.21762
# Poissons Ratio (z) = 0.25418 0.25418
#
# Static dielectric constant tensor:
#      x y z
#    x 3.316620 0.000000 0.000000 
#    y 0.000000 3.316620 0.000000 
#    z 0.000000 0.000000 2.996280 
# 
# 
# High freq. dielectric constant tensor:
#      x y z
#    x 1.657690 0.000000 0.000000 
#    y 0.000000 1.657690 0.000000 
#    z 0.000000 0.000000 1.648750 
# 
# From -- ./inp_files/1345.got.cif
#   From: 2010.03.12/outbox.cif.g09.slc.cpg/sg189_1_cif.got.tgz:1345.got - 2010.04.01 12:03:36.
