data_PCOD8327514
_publ_section_title
;
Structure prediction by ZEFSAII (Michael W. Deem and Ramdas Pophale) SiO2 
 PCOD8327514
Probable space group: P -6 2 M
;
_chemical_formula_sum "Si O2"
_cell_formula_units_Z 84
_cell_length_a 14.653626
_cell_length_b 14.653626
_cell_length_c 24.457803
_cell_angle_alpha 90.000000
_cell_angle_beta 90.000000
_cell_angle_gamma 120.000000
_cell_volume 4548.186662
_symmetry_space_group_name_H-M "P -6 2 M"
_symmetry_group_IT_number 189
_symmetry_cell_setting 'hexagonal'
loop_
_space_group_symop_operation_xyz
x,y,z
-x+y,-x,-z
-y,x-y,z
x,y,-z
-x+y,-x,z
-y,x-y,-z
x-y,-y,-z
-x,-x+y,-z
y,x,-z
y,x,z
x-y,-y,z
-x,-x+y,z
loop_
_atom_site_type_symbol
_atom_site_label
_atom_site_fract_x
_atom_site_fract_y
_atom_site_fract_z
Si Si1 0.120180 0.730770 0.148052
Si Si2 0.543764 0.420881 0.331933
Si Si3 0.880411 0.238368 0.233313
Si Si4 0.119148 0.880334 0.437626
Si Si5 0.230894 0.808547 0.644227
Si Si6 0.441336 0.877913 0.788982
Si Si7 0.753604 0.876393 0.936778
O O1 0.131214 0.801422 0.201827
O O2 0.170544 0.655253 0.163692
O O3 0.169179 0.811900 0.096860
O O4 0.000000 0.655710 0.132807
O O5 0.503944 0.503944 0.329248
O O6 0.461157 0.314791 0.362233
O O7 0.653278 0.477671 0.365198
O O8 0.560142 0.388485 0.270581
O O9 0.855397 0.228318 0.296988
O O10 0.862515 0.326165 0.201155
O O11 0.000000 0.265110 0.226172
O O12 0.130326 0.852330 0.500000
O O13 0.203110 0.867483 0.401724
O O14 0.000000 0.805603 0.416312
O O15 0.144590 0.000000 0.433044
O O16 0.528406 0.000000 0.785674
O O17 0.812231 0.812231 0.919676
O O18 0.832926 0.000000 0.924160
O O19 0.721656 0.858360 0.000000
#
# Coordination Sequence:
#
# PCOD8327514 Si02
#       7
#    12  12  12  12  12  12  12
#     4  10  18  30  48  71 100 133 172 216 262 313
#     4  10  19  32  50  75 105 134 167 211 259 311
#     4  10  19  31  49  73 104 135 168 212 266 321
#     4  10  21  38  59  81 105 137 178 221 265 319
#     4  11  20  34  54  77 105 138 176 216 265 320
#     4   8  16  30  44  65  96 127 160 201 248 303
#     4   9  17  29  47  71 100 135 175 217 260 311
#
# _framework density 18.468900000000001
#
# number of rings (size 3 to 8) (size 9 to 14) (size 15 to 20)
#    0.000    2.286    1.429    3.571    0.000    1.714 
#    0.857    0.714    0.000    3.714    0.000    4.000 
#    0.000    0.000    0.000    0.000    0.000    0.000 
#
# Total GULP energy -1040800.874463 kJ/mol
# GULP energy per Si atom -12390.486601 kJ/mol
# Density = 1.842686 g / cm^3
# Si number density = 18.468900 Si / 1000 Ang^3
#
#
#
# Elastic Constant Matrix: (Units=GPa)
#
#
# Indices 1 2 3 4 5 6 
#
# 1 60.8926 15.4740 32.7516 0.0000 0.0000 0.0000
# 2 15.4740 60.8926 32.7516 0.0000 0.0000 0.0000
# 3 32.7516 32.7516 75.8809 0.0000 0.0000 0.0000
# 4 0.0000 0.0000 0.0000 30.5663 0.0000 0.0000
# 5 0.0000 0.0000 0.0000 0.0000 30.5663 0.0000
# 6 0.0000 0.0000 0.0000 0.0000 0.0000 22.7093
#
#
#
# Elastic Compliance Matrix: (Units=1/GPa)
#
#
# Indices 1 2 3 4 5 6 
#
# 1 0.021405 -0.000612 -0.008974 0.000000 0.000000 0.000000
# 2 -0.000612 0.021405 -0.008974 0.000000 0.000000 0.000000
# 3 -0.008974 -0.008974 0.020926 0.000000 0.000000 0.000000
# 4 0.000000 0.000000 0.000000 0.032716 0.000000 0.000000
# 5 0.000000 0.000000 0.000000 0.000000 0.032716 0.000000
# 6 0.000000 0.000000 0.000000 0.000000 0.000000 0.044035
#
#
# Mechanical properties :
#
#
# Convention : Reuss Voigt Hill
#
# Bulk Modulus (GPa) = 37.57576 39.95785 38.76681
# Shear Modulus (GPa) = 22.81066 24.54762 23.67914
#
# Velocity S-wave (km/s) = 3.51819 3.64968 3.58454
# Velocity P-wave (km/s) = 6.07397 6.28032 6.17801
#
# Compressibility (1/GPa) = 0.02661290
#
# Stress axis : x y z
#
# Youngs Moduli (GPa) = 46.71806 46.71806 47.78823
#
# Poissons Ratio (x) = 0.02861 0.42887
# Poissons Ratio (y) = 0.02861 0.42887
# Poissons Ratio (z) = 0.41927 0.41927
#
# Static dielectric constant tensor:
#      x y z
#    x 3.428050 0.000000 0.000000 
#    y 0.000000 3.428050 0.000000 
#    z 0.000000 0.000000 3.251690 
# 
# 
# High freq. dielectric constant tensor:
#      x y z
#    x 1.712840 0.000000 0.000000 
#    y 0.000000 1.712840 0.000000 
#    z 0.000000 0.000000 1.685600 
# 
# From -- ./inp_files/3597.got.cif
#   From: 2010.03.12/outbox.cif.g09.slc.cpg/sg189_2_cif.got.tgz:3597.got - 2010.04.01 12:03:36.
