data_PCOD8327094
_publ_section_title
;
Structure prediction by ZEFSAII (Michael W. Deem and Ramdas Pophale) SiO2 
 PCOD8327094
Probable space group: P -6 M 2
;
_chemical_formula_sum "Si O2"
_cell_formula_units_Z 54
_cell_length_a 12.543461
_cell_length_b 12.543461
_cell_length_c 23.558268
_cell_angle_alpha 90.000000
_cell_angle_beta 90.000000
_cell_angle_gamma 120.000000
_cell_volume 3210.027533
_symmetry_space_group_name_H-M "P -6 M 2"
_symmetry_group_IT_number 187
_symmetry_cell_setting 'hexagonal'
loop_
_space_group_symop_operation_xyz
x,y,z
-x+y,-x,-z
-y,x-y,z
x,y,-z
-x+y,-x,z
-y,x-y,-z
-y,-x,-z
-x+y,y,-z
x,x-y,-z
-x+y,y,z
x,x-y,z
-y,-x,z
loop_
_atom_site_type_symbol
_atom_site_label
_atom_site_fract_x
_atom_site_fract_y
_atom_site_fract_z
Si Si1 0.917015 0.582385 0.682831
Si Si2 0.665119 0.083555 0.000000
Si Si3 0.582761 0.666838 0.106732
Si Si4 0.248120 0.999335 0.786762
Si Si5 0.664500 0.576597 0.439994
O O1 0.776028 0.552055 0.682525
O O2 0.917715 0.458858 0.700035
O O3 0.998265 0.688414 0.727273
O O4 0.980406 0.633263 0.620198
O O5 0.655540 0.005586 0.055241
O O6 0.795894 0.204107 0.000000
O O7 0.560971 0.121941 0.000000
O O8 0.574108 0.787054 0.094401
O O9 0.445988 0.554013 0.112453
O O10 0.654769 0.676979 0.164182
O O11 0.251915 0.125958 0.799513
O O12 0.107491 0.892510 0.784222
O O13 0.640570 0.630044 0.500000
O O14 0.799559 0.599118 0.444293
O O15 0.568853 0.431148 0.436674
#
# Coordination Sequence:
#
# PCOD8327094 Si02
#       5
#    12   6  12  12  12
#     4   9  16  26  42  65  91 116 143 179 226 278
#     4  10  20  34  52  74 100 128 156 184 216 258
#     4  10  20  34  53  75  98 123 152 190 235 280
#     4  10  20  33  48  65  88 121 159 196 231 270
#     4   8  12  18  31  54  84 114 140 169 212 269
#
# _framework density 16.822286999999999
#
# number of rings (size 3 to 8) (size 9 to 14) (size 15 to 20)
#    0.000    2.667    0.000    2.667    0.000    2.667 
#    0.000    1.111    0.000   11.333    0.000    0.000 
#    0.000    1.778    0.000    0.000    0.000    0.000 
#
# Total GULP energy -669015.446015 kJ/mol
# GULP energy per Si atom -12389.174926 kJ/mol
# Density = 1.678400 g / cm^3
# Si number density = 16.822287 Si / 1000 Ang^3
#
#
#
# Elastic Constant Matrix: (Units=GPa)
#
#
# Indices 1 2 3 4 5 6 
#
# 1 76.9450 43.8031 58.2084 0.0000 0.0002 0.0000
# 2 43.8031 76.9450 58.2084 0.0000 -0.0002 0.0000
# 3 58.2084 58.2084 153.1894 0.0000 0.0000 0.0000
# 4 0.0000 0.0000 0.0000 19.2384 0.0000 -0.0002
# 5 0.0002 -0.0002 0.0000 0.0000 19.2384 0.0000
# 6 0.0000 0.0000 0.0000 -0.0002 0.0000 16.5710
#
#
#
# Elastic Compliance Matrix: (Units=1/GPa)
#
#
# Indices 1 2 3 4 5 6 
#
# 1 0.021622 -0.008552 -0.004966 0.000000 0.000000 0.000000
# 2 -0.008552 0.021622 -0.004966 0.000000 0.000000 0.000000
# 3 -0.004966 -0.004966 0.010302 0.000000 0.000000 0.000000
# 4 0.000000 0.000000 0.000000 0.051979 0.000000 0.000001
# 5 0.000000 0.000000 0.000000 0.000000 0.051979 0.000000
# 6 0.000000 0.000000 0.000000 0.000001 0.000000 0.060346
#
#
# Mechanical properties :
#
#
# Convention : Reuss Voigt Hill
#
# Bulk Modulus (GPa) = 60.32576 69.72436 65.02506
# Shear Modulus (GPa) = 19.20535 20.80019 20.00277
#
# Velocity S-wave (km/s) = 3.38251 3.52016 3.45202
# Velocity P-wave (km/s) = 7.15497 7.61968 7.39098
#
# Compressibility (1/GPa) = 0.01657667
#
# Stress axis : x y z
#
# Youngs Moduli (GPa) = 46.25023 46.25023 97.06882
#
# Poissons Ratio (x) = 0.39552 0.48207
# Poissons Ratio (y) = 0.39552 0.48207
# Poissons Ratio (z) = 0.22969 0.22969
#
# Static dielectric constant tensor:
#      x y z
#    x 2.909320 0.000000 0.000000 
#    y 0.000000 2.909320 0.000000 
#    z 0.000000 0.000000 3.785160 
# 
# 
# High freq. dielectric constant tensor:
#      x y z
#    x 1.624970 0.000000 0.000000 
#    y 0.000000 1.624970 0.000000 
#    z 0.000000 0.000000 1.679860 
# 
# From -- ./inp_files/3844.got.cif
#   From: 2010.03.12/outbox.cif.g09.slc.cpg/sg187_2_cif.got.tgz:3844.got - 2010.04.01 11:58:23.
