data_PCOD8327563
_publ_section_title
;
Structure prediction by ZEFSAII (Michael W. Deem and Ramdas Pophale) SiO2 
 PCOD8327563
Probable space group: P -6 2 M
;
_chemical_formula_sum "Si O2"
_cell_formula_units_Z 60
_cell_length_a 27.375939
_cell_length_b 27.375939
_cell_length_c 8.889967
_cell_angle_alpha 90.000000
_cell_angle_beta 90.000000
_cell_angle_gamma 120.000000
_cell_volume 5769.907217
_symmetry_space_group_name_H-M "P -6 2 M"
_symmetry_group_IT_number 189
_symmetry_cell_setting 'hexagonal'
loop_
_space_group_symop_operation_xyz
x,y,z
-x+y,-x,-z
-y,x-y,z
x,y,-z
-x+y,-x,z
-y,x-y,-z
x-y,-y,-z
-x,-x+y,-z
y,x,-z
y,x,z
x-y,-y,z
-x,-x+y,z
loop_
_atom_site_type_symbol
_atom_site_label
_atom_site_fract_x
_atom_site_fract_y
_atom_site_fract_z
Si Si1 0.610173 0.111194 0.331483
Si Si2 0.439000 0.671961 0.680561
Si Si3 0.560928 0.560928 0.833848
Si Si4 0.773401 0.436247 0.820609
Si Si5 0.493161 0.108476 0.665023
Si Si6 0.444192 0.444192 0.829570
O O1 0.635446 0.118431 0.500000
O O2 0.650254 0.164880 0.229155
O O3 0.549094 0.104297 0.341882
O O4 0.604370 0.055223 0.254504
O O5 0.433993 0.673953 0.500000
O O6 0.454992 0.730272 0.759519
O O7 0.379705 0.623188 0.744273
O O8 0.489181 0.659684 0.728084
O O9 0.611154 0.554051 0.761581
O O10 0.502658 0.502658 0.827143
O O11 0.581477 0.581477 0.000000
O O12 0.770428 0.429895 0.000000
O O13 0.466935 0.101121 0.500000
O O14 0.424826 0.424826 0.000000
#
# Coordination Sequence:
#
# PCOD8327563 Si02
#       6
#    12  12   6  12  12   6
#     4   9  16  26  37  48  61  78  95 111 134 166
#     4  10  19  30  39  46  58  78  99 117 137 166
#     4   9  15  21  33  49  63  73  83 105 135 161
#     4  11  20  28  37  49  62  76  95 120 143 164
#     4   8  15  25  36  46  57  73  92 110 130 158
#     4   9  15  23  35  51  65  75  89 113 139 161
#
# _framework density 10.39878
#
# number of rings (size 3 to 8) (size 9 to 14) (size 15 to 20)
#    0.000    2.600    0.000    5.200    0.000    8.000 
#    0.000    0.000    0.000    0.000    0.000    0.000 
#    0.000    0.000    0.000    0.000    0.000    0.000 
#
# Total GULP energy -743654.605185 kJ/mol
# GULP energy per Si atom -12394.243420 kJ/mol
# Density = 1.037511 g / cm^3
# Si number density = 10.398780 Si / 1000 Ang^3
#
#
#
# Elastic Constant Matrix: (Units=GPa)
#
#
# Indices 1 2 3 4 5 6 
#
# 1 44.9267 31.2277 26.8015 0.0000 0.0000 0.0000
# 2 31.2277 44.9267 26.8015 0.0000 0.0000 0.0000
# 3 26.8015 26.8015 77.8052 0.0000 0.0000 0.0000
# 4 0.0000 0.0000 0.0000 13.9698 0.0000 0.0000
# 5 0.0000 0.0000 0.0000 0.0000 13.9698 0.0000
# 6 0.0000 0.0000 0.0000 0.0000 0.0000 6.8495
#
#
#
# Elastic Compliance Matrix: (Units=1/GPa)
#
#
# Indices 1 2 3 4 5 6 
#
# 1 0.045166 -0.027832 -0.005971 0.000000 0.000000 0.000000
# 2 -0.027832 0.045166 -0.005971 0.000000 0.000000 0.000000
# 3 -0.005971 -0.005971 0.016966 0.000000 0.000000 0.000000
# 4 0.000000 0.000000 0.000000 0.071583 0.000000 0.000000
# 5 0.000000 0.000000 0.000000 0.000000 0.071583 0.000000
# 6 0.000000 0.000000 0.000000 0.000000 0.000000 0.145996
#
#
# Mechanical properties :
#
#
# Convention : Reuss Voigt Hill
#
# Bulk Modulus (GPa) = 36.03573 37.48000 36.75786
# Shear Modulus (GPa) = 10.30380 12.47968 11.39174
#
# Velocity S-wave (km/s) = 3.15122 3.46802 3.31341
# Velocity P-wave (km/s) = 6.92598 7.22199 7.07554
#
# Compressibility (1/GPa) = 0.02775024
#
# Stress axis : x y z
#
# Youngs Moduli (GPa) = 22.14057 22.14057 58.94039
#
# Poissons Ratio (x) = 0.61621 0.35194
# Poissons Ratio (y) = 0.61621 0.35194
# Poissons Ratio (z) = 0.13220 0.13220
#
# Static dielectric constant tensor:
#      x y z
#    x 2.148600 0.000000 0.000000 
#    y 0.000000 2.148600 0.000000 
#    z 0.000000 0.000000 2.475080 
# 
# 
# High freq. dielectric constant tensor:
#      x y z
#    x 1.356240 0.000000 0.000000 
#    y 0.000000 1.356240 0.000000 
#    z 0.000000 0.000000 1.411520 
# 
# From -- ./inp_files/1172.got.cif
#   From: 2010.03.12/outbox.cif.g09.slc.cpg/sg189_1_cif.got.tgz:1172.got - 2010.04.01 12:03:36.
