data_PCOD8327232
_publ_section_title
;
Structure prediction by ZEFSAII (Michael W. Deem and Ramdas Pophale) SiO2 
 PCOD8327232
Probable space group: P -6 M 2
;
_chemical_formula_sum "Si O2"
_cell_formula_units_Z 78
_cell_length_a 23.480795
_cell_length_b 23.480795
_cell_length_c 8.341512
_cell_angle_alpha 90.000000
_cell_angle_beta 90.000000
_cell_angle_gamma 120.000000
_cell_volume 3982.914691
_symmetry_space_group_name_H-M "P -6 M 2"
_symmetry_group_IT_number 187
_symmetry_cell_setting 'hexagonal'
loop_
_space_group_symop_operation_xyz
x,y,z
-x+y,-x,-z
-y,x-y,z
x,y,-z
-x+y,-x,z
-y,x-y,-z
-y,-x,-z
-x+y,y,-z
x,x-y,-z
-x+y,y,z
x,x-y,z
-y,-x,z
loop_
_atom_site_type_symbol
_atom_site_label
_atom_site_fract_x
_atom_site_fract_y
_atom_site_fract_z
Si Si1 0.463421 0.058036 0.186787
Si Si2 0.309336 0.825172 0.824899
Si Si3 0.860080 0.592517 0.686977
Si Si4 0.616734 0.670328 0.320361
Si Si5 0.456509 0.664531 0.500000
Si Si6 0.965871 0.232299 0.318946
Si Si7 0.127609 0.127487 0.188185
O O1 0.534546 0.069092 0.242100
O O2 0.457799 0.122942 0.221969
O O3 0.405532 0.998600 0.284263
O O4 0.452862 0.041187 0.000000
O O5 0.239802 0.760199 0.815288
O O6 0.300515 0.888400 0.810349
O O7 0.353944 0.831783 0.669290
O O8 0.341839 0.827116 0.000000
O O9 0.877745 0.593283 0.500000
O O10 0.783134 0.566268 0.715077
O O11 0.902026 0.668060 0.751115
O O12 0.591990 0.673259 0.500000
O O13 0.693847 0.719105 0.309248
O O14 0.377587 0.622414 0.500000
O O15 0.482774 0.741387 0.500000
O O16 0.951578 0.205355 0.500000
O O17 0.985937 0.186797 0.220848
O O18 0.119475 0.059738 0.260664
O O19 0.069984 0.139968 0.260210
O O20 0.118564 0.120262 0.000000
#
# Coordination Sequence:
#
# PCOD8327232 Si02
#       7
#    12  12  12  12   6  12  12
#     4  10  21  35  52  79 114 146 179 223 272 325
#     4  10  21  37  57  81 110 144 184 230 279 336
#     4   9  18  34  56  80 106 139 177 219 269 325
#     4  10  20  36  56  78 109 148 183 221 275 336
#     4  10  21  38  58  80 106 140 181 226 276 330
#     4   9  19  34  53  78 106 134 171 220 270 323
#     4  10  21  36  52  71  99 137 180 225 274 328
#
# _framework density 19.583649000000001
#
# number of rings (size 3 to 8) (size 9 to 14) (size 15 to 20)
#    0.000    2.308    0.769    2.538    0.000    8.000 
#    0.000    3.077    0.000    2.154    0.000    0.000 
#    0.000    0.000    0.000    0.000    0.000    0.000 
#
# Total GULP energy -966413.240693 kJ/mol
# GULP energy per Si atom -12389.913342 kJ/mol
# Density = 1.953908 g / cm^3
# Si number density = 19.583649 Si / 1000 Ang^3
#
#
#
# Elastic Constant Matrix: (Units=GPa)
#
#
# Indices 1 2 3 4 5 6 
#
# 1 85.5906 43.2134 33.8715 0.0000 -0.0001 0.0000
# 2 43.2134 85.5906 33.8715 0.0000 0.0001 0.0000
# 3 33.8715 33.8715 99.6748 0.0000 0.0000 0.0000
# 4 0.0000 0.0000 0.0000 20.0540 0.0000 0.0001
# 5 -0.0001 0.0001 0.0000 0.0000 20.0540 0.0000
# 6 0.0000 0.0000 0.0000 0.0001 0.0000 21.1886
#
#
#
# Elastic Compliance Matrix: (Units=1/GPa)
#
#
# Indices 1 2 3 4 5 6 
#
# 1 0.016525 -0.007072 -0.003212 0.000000 0.000000 0.000000
# 2 -0.007072 0.016525 -0.003212 0.000000 0.000000 0.000000
# 3 -0.003212 -0.003212 0.012216 0.000000 0.000000 0.000000
# 4 0.000000 0.000000 0.000000 0.049865 0.000000 0.000000
# 5 0.000000 0.000000 0.000000 0.000000 0.049865 0.000000
# 6 0.000000 0.000000 0.000000 0.000000 0.000000 0.047195
#
#
# Mechanical properties :
#
#
# Convention : Reuss Voigt Hill
#
# Bulk Modulus (GPa) = 54.72617 54.75211 54.73914
# Shear Modulus (GPa) = 22.19481 22.91927 22.55704
#
# Velocity S-wave (km/s) = 3.37015 3.42472 3.39754
# Velocity P-wave (km/s) = 6.56882 6.60734 6.58811
#
# Compressibility (1/GPa) = 0.01827279
#
# Stress axis : x y z
#
# Youngs Moduli (GPa) = 60.51277 60.51277 81.86050
#
# Poissons Ratio (x) = 0.42796 0.26297
# Poissons Ratio (y) = 0.42796 0.26297
# Poissons Ratio (z) = 0.19439 0.19439
#
# Static dielectric constant tensor:
#      x y z
#    x 3.513730 0.000000 0.000000 
#    y 0.000000 3.513730 0.000000 
#    z 0.000000 0.000000 3.783380 
# 
# 
# High freq. dielectric constant tensor:
#      x y z
#    x 1.752080 0.000000 0.000000 
#    y 0.000000 1.752080 0.000000 
#    z 0.000000 0.000000 1.764520 
# 
# From -- ./inp_files/1154.got.cif
#   From: 2010.03.12/outbox.cif.g09.slc.cpg/sg187_1_cif.got.tgz:1154.got - 2010.04.01 11:58:23.
