data_PCOD8327063
_publ_section_title
;
Structure prediction by ZEFSAII (Michael W. Deem and Ramdas Pophale) SiO2 
 PCOD8327063
Probable space group: P -6 M 2
;
_chemical_formula_sum "Si O2"
_cell_formula_units_Z 72
_cell_length_a 12.728624
_cell_length_b 12.728624
_cell_length_c 30.820611
_cell_angle_alpha 90.000000
_cell_angle_beta 90.000000
_cell_angle_gamma 120.000000
_cell_volume 4324.488945
_symmetry_space_group_name_H-M "P -6 M 2"
_symmetry_group_IT_number 187
_symmetry_cell_setting 'hexagonal'
loop_
_space_group_symop_operation_xyz
x,y,z
-x+y,-x,-z
-y,x-y,z
x,y,-z
-x+y,-x,z
-y,x-y,-z
-y,-x,-z
-x+y,y,-z
x,x-y,-z
-x+y,y,z
x,x-y,z
-y,-x,z
loop_
_atom_site_type_symbol
_atom_site_label
_atom_site_fract_x
_atom_site_fract_y
_atom_site_fract_z
Si Si1 0.667872 0.087685 0.670965
Si Si2 0.245598 0.244163 0.751100
Si Si3 0.908342 0.333148 0.074969
Si Si4 0.754887 0.754464 0.000000
Si Si5 0.423889 0.332858 0.826158
Si Si6 0.997285 0.751816 0.594208
Si Si7 0.997771 0.236419 0.500000
O O1 0.540890 0.081780 0.675425
O O2 0.772682 0.227318 0.667747
O O3 0.665429 0.013288 0.628277
O O4 0.685835 0.023050 0.712332
O O5 0.128302 0.256604 0.745182
O O6 0.310960 0.307549 0.796068
O O7 0.205377 0.102689 0.751057
O O8 0.918715 0.459358 0.062880
O O9 0.769727 0.230274 0.067329
O O10 0.948727 0.331492 0.124359
O O11 0.996352 0.313905 0.043203
O O12 0.753366 0.876683 0.000000
O O13 0.892546 0.785091 0.000000
O O14 0.461300 0.230650 0.818340
O O15 0.539244 0.460757 0.813731
O O16 0.892776 0.785552 0.603780
O O17 0.979342 0.690824 0.545765
O O18 0.126105 0.873896 0.598949
O O19 0.908238 0.091763 0.500000
O O20 0.132830 0.265660 0.500000
#
# Coordination Sequence:
#
# PCOD8327063 Si02
#       7
#    12  12  12   6  12  12   6
#     4  10  20  33  49  68  91 120 154 192 232 275
#     4  10  20  33  50  72  97 123 151 186 228 274
#     4   9  17  30  50  75  98 120 150 192 239 278
#     4  10  20  32  46  66  94 128 162 194 232 280
#     4   9  17  30  50  75 100 124 151 186 228 274
#     4   9  16  27  46  71  97 122 149 185 229 275
#     4   8  13  22  39  66  96 122 148 180 222 270
#
# _framework density 16.649367000000002
#
# number of rings (size 3 to 8) (size 9 to 14) (size 15 to 20)
#    0.000    2.667    0.000    2.250    0.000    3.333 
#    0.000    4.583    0.000    9.333    0.000    1.167 
#    0.000    0.000    0.000    0.000    0.000    0.000 
#
# Total GULP energy -892507.430916 kJ/mol
# GULP energy per Si atom -12395.936540 kJ/mol
# Density = 1.661147 g / cm^3
# Si number density = 16.649367 Si / 1000 Ang^3
#
#
#
# Elastic Constant Matrix: (Units=GPa)
#
#
# Indices 1 2 3 4 5 6 
#
# 1 92.9555 52.8197 59.0380 0.0000 0.0000 0.0000
# 2 52.8197 92.9555 59.0380 0.0000 0.0000 0.0000
# 3 59.0380 59.0380 129.2048 0.0000 0.0000 0.0000
# 4 0.0000 0.0000 0.0000 22.7871 0.0000 0.0000
# 5 0.0000 0.0000 0.0000 0.0000 22.7871 0.0000
# 6 0.0000 0.0000 0.0000 0.0000 0.0000 20.0679
#
#
#
# Elastic Compliance Matrix: (Units=1/GPa)
#
#
# Indices 1 2 3 4 5 6 
#
# 1 0.017903 -0.007012 -0.004976 0.000000 0.000000 0.000000
# 2 -0.007012 0.017903 -0.004976 0.000000 0.000000 0.000000
# 3 -0.004976 -0.004976 0.012287 0.000000 0.000000 0.000000
# 4 0.000000 0.000000 0.000000 0.043885 0.000000 0.000000
# 5 0.000000 0.000000 0.000000 0.000000 0.043885 0.000000
# 6 0.000000 0.000000 0.000000 0.000000 0.000000 0.049831
#
#
# Mechanical properties :
#
#
# Convention : Reuss Voigt Hill
#
# Bulk Modulus (GPa) = 70.60460 72.98972 71.79716
# Shear Modulus (GPa) = 22.28716 22.74307 22.51511
#
# Velocity S-wave (km/s) = 3.66268 3.69996 3.68137
# Velocity P-wave (km/s) = 7.77083 7.88590 7.82858
#
# Compressibility (1/GPa) = 0.01416338
#
# Stress axis : x y z
#
# Youngs Moduli (GPa) = 55.85651 55.85651 81.38479
#
# Poissons Ratio (x) = 0.39169 0.40499
# Poissons Ratio (y) = 0.39169 0.40499
# Poissons Ratio (z) = 0.27796 0.27796
#
# Static dielectric constant tensor:
#      x y z
#    x 2.881620 0.000000 0.000000 
#    y 0.000000 2.881620 0.000000 
#    z 0.000000 0.000000 3.649310 
# 
# 
# High freq. dielectric constant tensor:
#      x y z
#    x 1.617930 0.000000 0.000000 
#    y 0.000000 1.617930 0.000000 
#    z 0.000000 0.000000 1.667360 
# 
# From -- ./inp_files/4581.got.cif
#   From: 2010.03.12/outbox.cif.g09.slc.cpg/sg187_3_cif.got.tgz:4581.got - 2010.04.01 11:58:23.
