data_PCOD8327715
_publ_section_title
;
Structure prediction by ZEFSAII (Michael W. Deem and Ramdas Pophale) SiO2 
 PCOD8327715
Probable space group: P -6 2 M
;
_chemical_formula_sum "Si O2"
_cell_formula_units_Z 96
_cell_length_a 15.639341
_cell_length_b 15.639341
_cell_length_c 25.077803
_cell_angle_alpha 90.000000
_cell_angle_beta 90.000000
_cell_angle_gamma 120.000000
_cell_volume 5311.987157
_symmetry_space_group_name_H-M "P -6 2 M"
_symmetry_group_IT_number 189
_symmetry_cell_setting 'hexagonal'
loop_
_space_group_symop_operation_xyz
x,y,z
-x+y,-x,-z
-y,x-y,z
x,y,-z
-x+y,-x,z
-y,x-y,-z
x-y,-y,-z
-x,-x+y,-z
y,x,-z
y,x,z
x-y,-y,z
-x,-x+y,z
loop_
_atom_site_type_symbol
_atom_site_label
_atom_site_fract_x
_atom_site_fract_y
_atom_site_fract_z
Si Si1 0.112276 0.592874 0.423650
Si Si2 0.728568 0.115827 0.870761
Si Si3 0.744701 0.561212 0.557652
Si Si4 0.883121 0.455648 0.058800
Si Si5 0.888090 0.268120 0.061644
Si Si6 0.391978 0.274557 0.749005
Si Si7 0.556850 0.109796 0.304614
Si Si8 0.373342 0.116758 0.327437
O O1 0.163063 0.529102 0.438248
O O2 0.178064 0.700770 0.447279
O O3 0.109487 0.604959 0.360693
O O4 0.000000 0.539625 0.446310
O O5 0.654157 0.149845 0.895018
O O6 0.828952 0.169251 0.904071
O O7 0.755879 0.148948 0.809771
O O8 0.683871 0.000000 0.877625
O O9 0.753841 0.614927 0.500000
O O10 0.768361 0.632411 0.609179
O O11 0.843632 0.340948 0.072224
O O12 0.000000 0.507507 0.055415
O O13 0.843853 0.465718 0.000000
O O14 0.000000 0.318707 0.081449
O O15 0.879215 0.239044 0.000000
O O16 0.329562 0.329562 0.740981
O O17 0.508266 0.349549 0.735130
O O18 0.340437 0.178380 0.710482
O O19 0.488520 0.159528 0.310109
O O20 0.482657 0.000000 0.284232
O O21 0.303514 0.000000 0.317298
#
# Coordination Sequence:
#
# PCOD8327715 Si02
#       8
#    12  12  12  12  12  12  12  12
#     4  10  20  35  53  75 107 144 180 222 271 326
#     4  10  20  32  52  79 104 136 176 219 264 310
#     4  11  21  32  51  78 107 141 180 221 272 331
#     4   8  15  30  50  71  99 135 171 208 253 303
#     4   9  18  33  53  77 107 141 174 211 257 311
#     4  10  20  36  54  74 104 138 176 221 265 313
#     4   8  16  33  53  71  96 131 169 210 255 305
#     4  10  21  36  55  77 102 138 178 218 268 318
#
# _framework density 18.072333
#
# number of rings (size 3 to 8) (size 9 to 14) (size 15 to 20)
#    0.000    2.500    1.250    2.875    0.000    4.000 
#    1.500    2.500    0.000    0.500    0.000    0.000 
#    0.000    0.000    0.000    0.000    0.000    0.000 
#
# Total GULP energy -1189384.044887 kJ/mol
# GULP energy per Si atom -12389.417134 kJ/mol
# Density = 1.803120 g / cm^3
# Si number density = 18.072333 Si / 1000 Ang^3
#
#
#
# Elastic Constant Matrix: (Units=GPa)
#
#
# Indices 1 2 3 4 5 6 
#
# 1 70.0985 29.0998 44.4446 0.0000 0.0000 0.0000
# 2 29.0998 70.0985 44.4446 0.0000 0.0000 0.0000
# 3 44.4446 44.4446 127.2137 0.0000 0.0000 0.0000
# 4 0.0000 0.0000 0.0000 33.5385 0.0000 0.0000
# 5 0.0000 0.0000 0.0000 0.0000 33.5385 0.0000
# 6 0.0000 0.0000 0.0000 0.0000 0.0000 20.4993
#
#
#
# Elastic Compliance Matrix: (Units=1/GPa)
#
#
# Indices 1 2 3 4 5 6 
#
# 1 0.019533 -0.004858 -0.005127 0.000000 0.000000 0.000000
# 2 -0.004858 0.019533 -0.005127 0.000000 0.000000 0.000000
# 3 -0.005127 -0.005127 0.011443 0.000000 0.000000 0.000000
# 4 0.000000 0.000000 0.000000 0.029816 0.000000 0.000000
# 5 0.000000 0.000000 0.000000 0.000000 0.029816 0.000000
# 6 0.000000 0.000000 0.000000 0.000000 0.000000 0.048782
#
#
# Mechanical properties :
#
#
# Convention : Reuss Voigt Hill
#
# Bulk Modulus (GPa) = 49.29698 55.93210 52.61454
# Shear Modulus (GPa) = 25.52191 27.47671 26.49931
#
# Velocity S-wave (km/s) = 3.76201 3.90343 3.83337
# Velocity P-wave (km/s) = 6.79758 7.16463 6.98352
#
# Compressibility (1/GPa) = 0.02028522
#
# Stress axis : x y z
#
# Youngs Moduli (GPa) = 51.19535 51.19535 87.38789
#
# Poissons Ratio (x) = 0.24871 0.44804
# Poissons Ratio (y) = 0.24871 0.44804
# Poissons Ratio (z) = 0.26248 0.26248
#
# Static dielectric constant tensor:
#      x y z
#    x 3.178380 0.000000 0.000000 
#    y 0.000000 3.178380 0.000000 
#    z 0.000000 0.000000 3.509290 
# 
# 
# High freq. dielectric constant tensor:
#      x y z
#    x 1.676050 0.000000 0.000000 
#    y 0.000000 1.676050 0.000000 
#    z 0.000000 0.000000 1.709780 
# 
# From -- ./inp_files/3703.got.cif
#   From: 2010.03.12/outbox.cif.g09.slc.cpg/sg189_2_cif.got.tgz:3703.got - 2010.04.01 12:03:36.
