data_PCOD8327665
_publ_section_title
;
Structure prediction by ZEFSAII (Michael W. Deem and Ramdas Pophale) SiO2 
 PCOD8327665
Probable space group: P -6 2 M
;
_chemical_formula_sum "Si O2"
_cell_formula_units_Z 60
_cell_length_a 20.837691
_cell_length_b 20.837691
_cell_length_c 8.731395
_cell_angle_alpha 90.000000
_cell_angle_beta 90.000000
_cell_angle_gamma 120.000000
_cell_volume 3283.321834
_symmetry_space_group_name_H-M "P -6 2 M"
_symmetry_group_IT_number 189
_symmetry_cell_setting 'hexagonal'
loop_
_space_group_symop_operation_xyz
x,y,z
-x+y,-x,-z
-y,x-y,z
x,y,-z
-x+y,-x,z
-y,x-y,-z
x-y,-y,-z
-x,-x+y,-z
y,x,-z
y,x,z
x-y,-y,z
-x,-x+y,z
loop_
_atom_site_type_symbol
_atom_site_label
_atom_site_fract_x
_atom_site_fract_y
_atom_site_fract_z
Si Si1 0.914124 0.553770 0.180515
Si Si2 0.290603 0.913577 0.179181
Si Si3 0.210477 0.210477 0.822400
Si Si4 0.918345 0.000000 0.670366
Si Si5 0.087825 0.509129 0.328216
Si Si6 0.206659 0.347457 0.680955
O O1 0.883764 0.471561 0.246688
O O2 0.862125 0.582619 0.250298
O O3 0.000000 0.609372 0.226497
O O4 0.904846 0.547756 0.000000
O O5 0.346517 0.885428 0.232114
O O6 0.214439 0.867245 0.269163
O O7 0.323711 0.000000 0.219523
O O8 0.276046 0.898825 0.000000
O O9 0.133936 0.133936 0.803366
O O10 0.201026 0.273293 0.742543
O O11 0.229919 0.229919 0.000000
O O12 0.886624 0.000000 0.500000
O O13 0.927079 0.927079 0.687956
O O14 0.120351 0.521466 0.500000
O O15 0.000000 0.466771 0.331944
O O16 0.212852 0.350106 0.500000
#
# Coordination Sequence:
#
# PCOD8327665 Si02
#       6
#    12  12   6   6  12  12
#     4  10  19  33  55  82 112 144 180 223 274 330
#     4  10  21  38  58  82 113 150 193 238 288 343
#     4  12  24  38  56  80 112 147 188 241 298 352
#     4   8  18  38  60  78 100 135 186 239 290 350
#     4   9  17  31  54  82 111 140 176 219 266 324
#     4  12  24  37  56  81 114 151 191 240 294 345
#
# _framework density 18.274173999999999
#
# number of rings (size 3 to 8) (size 9 to 14) (size 15 to 20)
#    0.200    1.600    1.000    4.500    0.000    5.600 
#    0.000    0.000    0.000    0.800    0.000    5.600 
#    0.000    0.000    0.000    0.000    0.000    0.000 
#
# Total GULP energy -744057.174947 kJ/mol
# GULP energy per Si atom -12400.952916 kJ/mol
# Density = 1.823258 g / cm^3
# Si number density = 18.274174 Si / 1000 Ang^3
#
#
#
# Elastic Constant Matrix: (Units=GPa)
#
#
# Indices 1 2 3 4 5 6 
#
# 1 85.4696 43.2747 26.3782 0.0000 0.0000 0.0000
# 2 43.2747 85.4696 26.3782 0.0000 0.0000 0.0000
# 3 26.3782 26.3782 86.6030 0.0000 0.0000 0.0000
# 4 0.0000 0.0000 0.0000 31.5553 0.0000 0.0000
# 5 0.0000 0.0000 0.0000 0.0000 31.5553 0.0000
# 6 0.0000 0.0000 0.0000 0.0000 0.0000 21.0975
#
#
#
# Elastic Compliance Matrix: (Units=1/GPa)
#
#
# Indices 1 2 3 4 5 6 
#
# 1 0.016287 -0.007412 -0.002703 0.000000 0.000000 0.000000
# 2 -0.007412 0.016287 -0.002703 0.000000 0.000000 0.000000
# 3 -0.002703 -0.002703 0.013194 0.000000 0.000000 0.000000
# 4 0.000000 0.000000 0.000000 0.031690 0.000000 0.000000
# 5 0.000000 0.000000 0.000000 0.000000 0.031690 0.000000
# 6 0.000000 0.000000 0.000000 0.000000 0.000000 0.047399
#
#
# Mechanical properties :
#
#
# Convention : Reuss Voigt Hill
#
# Bulk Modulus (GPa) = 49.67494 49.95603 49.81548
# Shear Modulus (GPa) = 26.46960 27.60900 27.03930
#
# Velocity S-wave (km/s) = 3.81001 3.89114 3.85079
# Velocity P-wave (km/s) = 6.82620 6.89814 6.86226
#
# Compressibility (1/GPa) = 0.02013088
#
# Stress axis : x y z
#
# Youngs Moduli (GPa) = 61.39753 61.39753 75.79376
#
# Poissons Ratio (x) = 0.45509 0.20489
# Poissons Ratio (y) = 0.45509 0.20489
# Poissons Ratio (z) = 0.16597 0.16597
#
# Static dielectric constant tensor:
#      x y z
#    x 3.332630 0.000000 0.000000 
#    y 0.000000 3.332630 0.000000 
#    z 0.000000 0.000000 3.515360 
# 
# 
# High freq. dielectric constant tensor:
#      x y z
#    x 1.694170 0.000000 0.000000 
#    y 0.000000 1.694170 0.000000 
#    z 0.000000 0.000000 1.726090 
# 
# From -- ./inp_files/986.got.cif
#   From: 2010.03.12/outbox.cif.g09.slc.cpg/sg189_1_cif.got.tgz:986.got - 2010.04.01 12:03:36.
