data_PCOD8327596
_publ_section_title
;
Structure prediction by ZEFSAII (Michael W. Deem and Ramdas Pophale) SiO2 
 PCOD8327596
Probable space group: P -6 2 M
;
_chemical_formula_sum "Si O2"
_cell_formula_units_Z 72
_cell_length_a 23.679964
_cell_length_b 23.679964
_cell_length_c 9.027060
_cell_angle_alpha 90.000000
_cell_angle_beta 90.000000
_cell_angle_gamma 120.000000
_cell_volume 4383.681942
_symmetry_space_group_name_H-M "P -6 2 M"
_symmetry_group_IT_number 189
_symmetry_cell_setting 'hexagonal'
loop_
_space_group_symop_operation_xyz
x,y,z
-x+y,-x,-z
-y,x-y,z
x,y,-z
-x+y,-x,z
-y,x-y,-z
x-y,-y,-z
-x,-x+y,-z
y,x,-z
y,x,z
x-y,-y,z
-x,-x+y,z
loop_
_atom_site_type_symbol
_atom_site_label
_atom_site_fract_x
_atom_site_fract_y
_atom_site_fract_z
Si Si1 0.855163 0.927257 0.676284
Si Si2 0.196626 0.271834 0.673521
Si Si3 0.263940 0.730156 0.826567
Si Si4 0.593859 0.198927 0.325308
Si Si5 0.866388 0.595647 0.171226
Si Si6 0.072798 0.596781 0.329800
O O1 0.857597 0.928585 0.500000
O O2 0.877417 0.877417 0.739792
O O3 0.781727 0.905552 0.727152
O O4 0.904743 0.000000 0.735728
O O5 0.197834 0.284503 0.500000
O O6 0.246831 0.246831 0.713663
O O7 0.215416 0.338376 0.756023
O O8 0.329694 0.788775 0.757223
O O9 0.248167 0.664634 0.740653
O O10 0.207877 0.748113 0.798399
O O11 0.272480 0.721097 0.000000
O O12 0.593976 0.211186 0.500000
O O13 0.573866 0.124399 0.288049
O O14 0.916052 0.574695 0.236302
O O15 0.882196 0.608530 0.000000
O O16 0.081800 0.618988 0.500000
O O17 0.000000 0.537197 0.298216
#
# Coordination Sequence:
#
# PCOD8327596 Si02
#       6
#    12  12  12  12  12  12
#     4   8  13  22  39  64  91 117 146 182 224 268
#     4   9  17  28  43  65  92 119 146 181 226 268
#     4  10  20  33  47  65  92 121 148 181 220 258
#     4  10  19  31  49  71  92 116 148 181 217 265
#     4  10  20  31  45  66  90 119 153 184 215 257
#     4   9  18  32  49  69  93 118 143 178 224 267
#
# _framework density 16.42455
#
# number of rings (size 3 to 8) (size 9 to 14) (size 15 to 20)
#    0.000    2.667    0.000    3.500    0.000    6.000 
#    0.000    0.000    0.000    1.500    0.000    7.000 
#    0.000    1.333    0.000    0.000    0.000    0.000 
#
# Total GULP energy -892719.488692 kJ/mol
# GULP energy per Si atom -12398.881787 kJ/mol
# Density = 1.638717 g / cm^3
# Si number density = 16.424550 Si / 1000 Ang^3
#
#
#
# Elastic Constant Matrix: (Units=GPa)
#
#
# Indices 1 2 3 4 5 6 
#
# 1 111.1246 60.3519 44.2609 0.0000 0.0000 0.0000
# 2 60.3519 111.1246 44.2609 0.0000 0.0000 0.0000
# 3 44.2609 44.2609 63.5799 0.0000 0.0000 0.0000
# 4 0.0000 0.0000 0.0000 15.8987 0.0000 0.0000
# 5 0.0000 0.0000 0.0000 0.0000 15.8987 0.0000
# 6 0.0000 0.0000 0.0000 0.0000 0.0000 25.3863
#
#
#
# Elastic Compliance Matrix: (Units=1/GPa)
#
#
# Indices 1 2 3 4 5 6 
#
# 1 0.014399 -0.005296 -0.006337 0.000000 0.000000 0.000000
# 2 -0.005296 0.014399 -0.006337 0.000000 0.000000 0.000000
# 3 -0.006337 -0.006337 0.024551 0.000000 0.000000 0.000000
# 4 0.000000 0.000000 0.000000 0.062898 0.000000 0.000000
# 5 0.000000 0.000000 0.000000 0.000000 0.062898 0.000000
# 6 0.000000 0.000000 0.000000 0.000000 0.000000 0.039391
#
#
# Mechanical properties :
#
#
# Convention : Reuss Voigt Hill
#
# Bulk Modulus (GPa) = 57.44098 64.84182 61.14140
# Shear Modulus (GPa) = 19.20996 20.56711 19.88853
#
# Velocity S-wave (km/s) = 3.42363 3.54251 3.48358
# Velocity P-wave (km/s) = 7.11877 7.50312 7.31347
#
# Compressibility (1/GPa) = 0.01740917
#
# Stress axis : x y z
#
# Youngs Moduli (GPa) = 69.44742 69.44742 40.73104
#
# Poissons Ratio (x) = 0.36781 0.25812
# Poissons Ratio (y) = 0.36781 0.25812
# Poissons Ratio (z) = 0.44009 0.44009
#
# Static dielectric constant tensor:
#      x y z
#    x 3.126990 0.000000 0.000000 
#    y 0.000000 3.126990 0.000000 
#    z 0.000000 0.000000 3.006850 
# 
# 
# High freq. dielectric constant tensor:
#      x y z
#    x 1.623040 0.000000 0.000000 
#    y 0.000000 1.623040 0.000000 
#    z 0.000000 0.000000 1.624810 
# 
# From -- ./inp_files/1288.got.cif
#   From: 2010.03.12/outbox.cif.g09.slc.cpg/sg189_1_cif.got.tgz:1288.got - 2010.04.01 12:03:36.
