data_PCOD8327280
_publ_section_title
;
Structure prediction by ZEFSAII (Michael W. Deem and Ramdas Pophale) SiO2 
 PCOD8327280
Probable space group: P -6 M 2
;
_chemical_formula_sum "Si O2"
_cell_formula_units_Z 60
_cell_length_a 13.474381
_cell_length_b 13.474381
_cell_length_c 25.289455
_cell_angle_alpha 90.000000
_cell_angle_beta 90.000000
_cell_angle_gamma 120.000000
_cell_volume 3976.378788
_symmetry_space_group_name_H-M "P -6 M 2"
_symmetry_group_IT_number 187
_symmetry_cell_setting 'hexagonal'
loop_
_space_group_symop_operation_xyz
x,y,z
-x+y,-x,-z
-y,x-y,z
x,y,-z
-x+y,-x,z
-y,x-y,-z
-y,-x,-z
-x+y,y,-z
x,x-y,-z
-x+y,y,z
x,x-y,z
-y,-x,z
loop_
_atom_site_type_symbol
_atom_site_label
_atom_site_fract_x
_atom_site_fract_y
_atom_site_fract_z
Si Si1 0.771107 0.771397 0.754054
Si Si2 0.999735 0.771415 0.632068
Si Si3 0.894754 0.559323 0.055896
Si Si4 0.104501 0.666336 0.560966
Si Si5 0.665018 0.098913 0.829283
O O1 0.900848 0.801696 0.765003
O O2 0.738464 0.739308 0.693047
O O3 0.681379 0.663250 0.788116
O O4 0.760854 0.880427 0.771020
O O5 0.880972 0.761943 0.615662
O O6 0.014558 0.681334 0.596529
O O7 0.099471 0.900530 0.620523
O O8 0.790566 0.581131 0.052035
O O9 0.847471 0.423736 0.058819
O O10 0.958151 0.611555 0.111923
O O11 0.966879 0.608942 0.000000
O O12 0.071377 0.666057 0.500000
O O13 0.096472 0.548236 0.577469
O O14 0.233241 0.766760 0.572329
O O15 0.550574 0.101147 0.813526
O O16 0.771416 0.228585 0.827768
#
# Coordination Sequence:
#
# PCOD8327280 Si02
#       5
#    12  12  12  12  12
#     4   9  17  29  44  60  79 107 142 175 204 237
#     4   9  17  29  45  64  84 106 135 173 213 246
#     4   8  12  18  30  50  76 103 128 155 192 240
#     4   9  17  29  45  64  85 109 135 162 194 236
#     4   9  16  25  39  60  84 107 130 161 203 248
#
# _framework density 15.089105999999999
#
# number of rings (size 3 to 8) (size 9 to 14) (size 15 to 20)
#    0.000    3.200    0.000    1.000    0.000    6.000 
#    0.000    0.000    0.000    2.600    0.000    0.000 
#    0.000    1.600    0.000    0.000    0.000    0.000 
#
# Total GULP energy -743340.499814 kJ/mol
# GULP energy per Si atom -12389.008330 kJ/mol
# Density = 1.505476 g / cm^3
# Si number density = 15.089106 Si / 1000 Ang^3
#
#
#
# Elastic Constant Matrix: (Units=GPa)
#
#
# Indices 1 2 3 4 5 6 
#
# 1 83.6055 46.3323 60.0061 0.0000 0.0000 0.0000
# 2 46.3323 83.6055 60.0061 0.0000 0.0000 0.0000
# 3 60.0061 60.0061 96.5746 0.0000 0.0000 0.0000
# 4 0.0000 0.0000 0.0000 19.9874 0.0000 0.0000
# 5 0.0000 0.0000 0.0000 0.0000 19.9874 0.0000
# 6 0.0000 0.0000 0.0000 0.0000 0.0000 18.6366
#
#
#
# Elastic Compliance Matrix: (Units=1/GPa)
#
#
# Indices 1 2 3 4 5 6 
#
# 1 0.022445 -0.004384 -0.011222 0.000000 0.000000 0.000000
# 2 -0.004384 0.022445 -0.011222 0.000000 0.000000 0.000000
# 3 -0.011222 -0.011222 0.024300 0.000000 0.000000 0.000000
# 4 0.000000 0.000000 0.000000 0.050031 0.000000 0.000000
# 5 0.000000 0.000000 0.000000 0.000000 0.050031 0.000000
# 6 0.000000 0.000000 0.000000 0.000000 0.000000 0.053658
#
#
# Mechanical properties :
#
#
# Convention : Reuss Voigt Hill
#
# Bulk Modulus (GPa) = 64.37589 66.27497 65.32543
# Shear Modulus (GPa) = 17.74659 18.21836 17.98248
#
# Velocity S-wave (km/s) = 3.43318 3.47851 3.45592
# Velocity P-wave (km/s) = 7.64670 7.75572 7.70140
#
# Compressibility (1/GPa) = 0.01553377
#
# Stress axis : x y z
#
# Youngs Moduli (GPa) = 44.55376 44.55376 41.15223
#
# Poissons Ratio (x) = 0.19533 0.46181
# Poissons Ratio (y) = 0.19533 0.46181
# Poissons Ratio (z) = 0.49998 0.49998
#
# Static dielectric constant tensor:
#      x y z
#    x 2.695700 0.000000 0.000000 
#    y 0.000000 2.695700 0.000000 
#    z 0.000000 0.000000 3.295520 
# 
# 
# High freq. dielectric constant tensor:
#      x y z
#    x 1.551120 0.000000 0.000000 
#    y 0.000000 1.551120 0.000000 
#    z 0.000000 0.000000 1.594530 
# 
# From -- ./inp_files/3485.got.cif
#   From: 2010.03.12/outbox.cif.g09.slc.cpg/sg187_2_cif.got.tgz:3485.got - 2010.04.01 11:58:23.
