data_PCOD8327119
_publ_section_title
;
Structure prediction by ZEFSAII (Michael W. Deem and Ramdas Pophale) SiO2 
 PCOD8327119
Probable space group: P -6 M 2
;
_chemical_formula_sum "Si O2"
_cell_formula_units_Z 66
_cell_length_a 12.811754
_cell_length_b 12.811754
_cell_length_c 28.588075
_cell_angle_alpha 90.000000
_cell_angle_beta 90.000000
_cell_angle_gamma 120.000000
_cell_volume 4063.803750
_symmetry_space_group_name_H-M "P -6 M 2"
_symmetry_group_IT_number 187
_symmetry_cell_setting 'hexagonal'
loop_
_space_group_symop_operation_xyz
x,y,z
-x+y,-x,-z
-y,x-y,z
x,y,-z
-x+y,-x,z
-y,x-y,-z
-y,-x,-z
-x+y,y,-z
x,x-y,-z
-x+y,y,z
x,x-y,z
-y,-x,z
loop_
_atom_site_type_symbol
_atom_site_label
_atom_site_fract_x
_atom_site_fract_y
_atom_site_fract_z
Si Si1 0.242761 0.243185 0.552382
Si Si2 0.579420 0.668972 0.000000
Si Si3 0.912267 0.575570 0.629953
Si Si4 0.664900 0.567935 0.730882
Si Si5 0.424085 0.088882 0.832394
Si Si6 0.000214 0.245120 0.914697
O O1 0.291186 0.290887 0.500000
O O2 0.116746 0.233492 0.561709
O O3 0.335038 0.334926 0.590391
O O4 0.222885 0.111443 0.559992
O O5 0.659606 0.682611 0.955064
O O6 0.461804 0.538197 0.000000
O O7 0.539135 0.769568 0.000000
O O8 0.783739 0.567477 0.629421
O O9 0.889986 0.444993 0.617212
O O10 0.975708 0.619437 0.681786
O O11 0.800882 0.601764 0.730030
O O12 0.576476 0.423525 0.730911
O O13 0.645177 0.617983 0.780401
O O14 0.543373 0.086746 0.849116
O O15 0.455394 0.227697 0.831411
O O16 0.313654 0.009665 0.866581
O O17 0.878970 0.121031 0.926124
O O18 0.108607 0.217214 0.910582
#
# Coordination Sequence:
#
# PCOD8327119 Si02
#       6
#    12   6  12  12  12  12
#     4   9  17  29  44  60  79 107 144 183 218 253
#     4  10  20  34  52  72  92 114 144 186 232 270
#     4   9  16  26  42  65  91 115 138 169 214 267
#     4   8  13  22  38  61  88 116 144 173 210 259
#     4   9  16  27  45  68  92 117 147 185 226 264
#     4  10  20  33  49  68  93 126 159 187 214 253
#
# _framework density 16.240942
#
# number of rings (size 3 to 8) (size 9 to 14) (size 15 to 20)
#    0.000    2.909    0.000    1.818    0.000    4.000 
#    0.000    1.818    0.000    4.364    0.000    2.545 
#    0.000    0.000    0.000    0.000    0.000    0.000 
#
# Total GULP energy -817612.218804 kJ/mol
# GULP energy per Si atom -12388.063921 kJ/mol
# Density = 1.620398 g / cm^3
# Si number density = 16.240942 Si / 1000 Ang^3
#
#
#
# Elastic Constant Matrix: (Units=GPa)
#
#
# Indices 1 2 3 4 5 6 
#
# 1 70.5166 29.8699 54.1281 0.0000 -0.0001 0.0000
# 2 29.8699 70.5166 54.1281 0.0000 0.0001 0.0000
# 3 54.1281 54.1281 145.0402 0.0000 0.0000 0.0000
# 4 0.0000 0.0000 0.0000 21.6804 0.0000 0.0001
# 5 -0.0001 0.0001 0.0000 0.0000 21.6804 0.0000
# 6 0.0000 0.0000 0.0000 0.0001 0.0000 20.3234
#
#
#
# Elastic Compliance Matrix: (Units=1/GPa)
#
#
# Indices 1 2 3 4 5 6 
#
# 1 0.020636 -0.003966 -0.006221 0.000000 0.000000 0.000000
# 2 -0.003966 0.020636 -0.006221 0.000000 0.000000 0.000000
# 3 -0.006221 -0.006221 0.011538 0.000000 0.000000 0.000000
# 4 0.000000 0.000000 0.000000 0.046125 0.000000 0.000000
# 5 0.000000 0.000000 0.000000 0.000000 0.046125 0.000000
# 6 0.000000 0.000000 0.000000 0.000000 0.000000 0.049204
#
#
# Mechanical properties :
#
#
# Convention : Reuss Voigt Hill
#
# Bulk Modulus (GPa) = 50.01522 62.48059 56.24791
# Shear Modulus (GPa) = 21.39073 22.60001 21.99537
#
# Velocity S-wave (km/s) = 3.63311 3.73439 3.68410
# Velocity P-wave (km/s) = 6.96146 7.55968 7.26673
#
# Compressibility (1/GPa) = 0.01999391
#
# Stress axis : x y z
#
# Youngs Moduli (GPa) = 48.45809 48.45809 86.66884
#
# Poissons Ratio (x) = 0.19218 0.53920
# Poissons Ratio (y) = 0.19218 0.53920
# Poissons Ratio (z) = 0.30147 0.30147
#
# Static dielectric constant tensor:
#      x y z
#    x 2.854090 0.000000 0.000000 
#    y 0.000000 2.854090 0.000000 
#    z 0.000000 0.000000 3.655820 
# 
# 
# High freq. dielectric constant tensor:
#      x y z
#    x 1.598510 0.000000 0.000000 
#    y 0.000000 1.598510 0.000000 
#    z 0.000000 0.000000 1.650610 
# 
# From -- ./inp_files/4431.got.cif
#   From: 2010.03.12/outbox.cif.g09.slc.cpg/sg187_3_cif.got.tgz:4431.got - 2010.04.01 11:58:23.
