data_PCOD8327630
_publ_section_title
;
Structure prediction by ZEFSAII (Michael W. Deem and Ramdas Pophale) SiO2 
 PCOD8327630
Probable space group: P -6 2 M
;
_chemical_formula_sum "Si O2"
_cell_formula_units_Z 96
_cell_length_a 17.854224
_cell_length_b 17.854224
_cell_length_c 19.602019
_cell_angle_alpha 90.000000
_cell_angle_beta 90.000000
_cell_angle_gamma 120.000000
_cell_volume 5411.446832
_symmetry_space_group_name_H-M "P -6 2 M"
_symmetry_group_IT_number 189
_symmetry_cell_setting 'hexagonal'
loop_
_space_group_symop_operation_xyz
x,y,z
-x+y,-x,-z
-y,x-y,z
x,y,-z
-x+y,-x,z
-y,x-y,-z
x-y,-y,-z
-x,-x+y,-z
y,x,-z
y,x,z
x-y,-y,z
-x,-x+y,z
loop_
_atom_site_type_symbol
_atom_site_label
_atom_site_fract_x
_atom_site_fract_y
_atom_site_fract_z
Si Si1 0.904389 0.401851 0.076772
Si Si2 0.347169 0.448848 0.134620
Si Si3 0.623349 0.791205 0.923716
Si Si4 0.323017 0.099689 0.779908
Si Si5 0.898625 0.684731 0.334491
Si Si6 0.354859 0.101525 0.422180
Si Si7 0.100666 0.464811 0.693919
Si Si8 0.370775 0.471297 0.717736
O O1 0.866383 0.451317 0.119418
O O2 0.839037 0.301110 0.083196
O O3 0.000000 0.424599 0.103591
O O4 0.912654 0.434698 0.000000
O O5 0.391756 0.391756 0.125396
O O6 0.268043 0.407833 0.082727
O O7 0.316892 0.452257 0.211600
O O8 0.685769 0.800722 0.860537
O O9 0.665638 0.800728 0.000000
O O10 0.297109 0.159247 0.735451
O O11 0.420539 0.120818 0.758695
O O12 0.255488 0.000000 0.762558
O O13 0.847042 0.693395 0.398773
O O14 0.884286 0.586700 0.337477
O O15 0.000000 0.755337 0.340134
O O16 0.385490 0.123836 0.500000
O O17 0.440023 0.133440 0.375022
O O18 0.287910 0.000000 0.412042
O O19 0.144347 0.569967 0.700250
O O20 0.000000 0.427827 0.685866
O O21 0.437020 0.437020 0.729333
#
# Coordination Sequence:
#
# PCOD8327630 Si02
#       8
#    12  12  12  12  12  12  12  12
#     4   9  18  32  47  63  89 127 166 207 260 317
#     4  10  19  33  50  68  95 132 169 210 264 323
#     4  11  21  31  47  73 100 129 173 227 275 323
#     4  10  19  33  52  73 100 138 181 225 272 321
#     4  10  19  32  52  79 109 137 173 221 268 314
#     4   9  18  34  56  81 109 141 174 209 252 307
#     4   8  15  29  52  77  97 125 168 206 242 298
#     4   9  16  28  48  72  98 126 159 204 250 293
#
# _framework density 17.740172000000001
#
# number of rings (size 3 to 8) (size 9 to 14) (size 15 to 20)
#    0.000    2.500    1.250    2.625    0.000    3.750 
#    0.750    0.625    0.000    8.250    0.000    0.000 
#    0.000    0.000    0.000    0.000    0.000    0.000 
#
# Total GULP energy -1189421.781895 kJ/mol
# GULP energy per Si atom -12389.810228 kJ/mol
# Density = 1.769980 g / cm^3
# Si number density = 17.740172 Si / 1000 Ang^3
#
#
#
# Elastic Constant Matrix: (Units=GPa)
#
#
# Indices 1 2 3 4 5 6 
#
# 1 62.6592 29.4185 24.4050 0.0000 0.0000 0.0000
# 2 29.4185 62.6592 24.4050 0.0000 0.0000 0.0000
# 3 24.4050 24.4050 109.3282 0.0000 0.0000 0.0000
# 4 0.0000 0.0000 0.0000 22.1016 0.0000 0.0000
# 5 0.0000 0.0000 0.0000 0.0000 22.1016 0.0000
# 6 0.0000 0.0000 0.0000 0.0000 0.0000 16.6204
#
#
#
# Elastic Compliance Matrix: (Units=1/GPa)
#
#
# Indices 1 2 3 4 5 6 
#
# 1 0.021201 -0.008883 -0.002750 0.000000 0.000000 0.000000
# 2 -0.008883 0.021201 -0.002750 0.000000 0.000000 0.000000
# 3 -0.002750 -0.002750 0.010374 0.000000 0.000000 0.000000
# 4 0.000000 0.000000 0.000000 0.045246 0.000000 0.000000
# 5 0.000000 0.000000 0.000000 0.000000 0.045246 0.000000
# 6 0.000000 0.000000 0.000000 0.000000 0.000000 0.060167
#
#
# Mechanical properties :
#
#
# Convention : Reuss Voigt Hill
#
# Bulk Modulus (GPa) = 41.64663 43.45598 42.55130
# Shear Modulus (GPa) = 20.81577 22.59259 21.70418
#
# Velocity S-wave (km/s) = 3.42916 3.57252 3.50158
# Velocity P-wave (km/s) = 6.26145 6.44719 6.35500
#
# Compressibility (1/GPa) = 0.02401154
#
# Stress axis : x y z
#
# Youngs Moduli (GPa) = 47.16810 47.16810 96.39114
#
# Poissons Ratio (x) = 0.41898 0.26505
# Poissons Ratio (y) = 0.41898 0.26505
# Poissons Ratio (z) = 0.12970 0.12970
#
# Static dielectric constant tensor:
#      x y z
#    x 3.168280 0.000000 0.000000 
#    y 0.000000 3.168280 0.000000 
#    z 0.000000 0.000000 3.417110 
# 
# 
# High freq. dielectric constant tensor:
#      x y z
#    x 1.664290 0.000000 0.000000 
#    y 0.000000 1.664290 0.000000 
#    z 0.000000 0.000000 1.685040 
# 
# From -- ./inp_files/3518.got.cif
#   From: 2010.03.12/outbox.cif.g09.slc.cpg/sg189_2_cif.got.tgz:3518.got - 2010.04.01 12:03:36.
