data_PCOD8327218
_publ_section_title
;
Structure prediction by ZEFSAII (Michael W. Deem and Ramdas Pophale) SiO2 
 PCOD8327218
Probable space group: P -6 M 2
;
_chemical_formula_sum "Si O2"
_cell_formula_units_Z 84
_cell_length_a 18.636655
_cell_length_b 18.636655
_cell_length_c 14.312403
_cell_angle_alpha 90.000000
_cell_angle_beta 90.000000
_cell_angle_gamma 120.000000
_cell_volume 4305.059115
_symmetry_space_group_name_H-M "P -6 M 2"
_symmetry_group_IT_number 187
_symmetry_cell_setting 'hexagonal'
loop_
_space_group_symop_operation_xyz
x,y,z
-x+y,-x,-z
-y,x-y,z
x,y,-z
-x+y,-x,z
-y,x-y,-z
-y,-x,-z
-x+y,y,-z
x,x-y,-z
-x+y,y,z
x,x-y,z
-y,-x,z
loop_
_atom_site_type_symbol
_atom_site_label
_atom_site_fract_x
_atom_site_fract_y
_atom_site_fract_z
Si Si1 0.333631 0.501343 0.765212
Si Si2 0.743197 0.793280 0.646734
Si Si3 0.356230 0.260237 0.896573
Si Si4 0.873391 0.126610 0.609384
Si Si5 0.085993 0.756851 0.849742
Si Si6 0.585271 0.638711 0.603744
Si Si7 0.897560 0.368719 0.728003
Si Si8 0.777052 0.554104 0.389772
O O1 0.263343 0.526687 0.770593
O O2 0.420895 0.579106 0.795896
O O3 0.313189 0.426205 0.837506
O O4 0.336366 0.475093 0.657481
O O5 0.759624 0.879812 0.602160
O O6 0.828306 0.792544 0.652989
O O7 0.707165 0.784273 0.748211
O O8 0.676679 0.716620 0.585532
O O9 0.327050 0.163525 0.874293
O O10 0.278614 0.276735 0.901574
O O11 0.419816 0.317812 0.817971
O O12 0.397566 0.282631 0.000000
O O13 0.879579 0.120422 0.500000
O O14 0.825364 0.174637 0.636820
O O15 0.160873 0.839128 0.900390
O O16 0.549963 0.602691 0.500000
O O17 0.590375 0.572751 0.670611
O O18 0.882144 0.441072 0.765346
O O19 0.825131 0.313049 0.655874
O O20 0.769096 0.538192 0.500000
#
# Coordination Sequence:
#
# PCOD8327218 Si02
#       8
#    12  12  12   6  12  12  12   6
#     4  10  20  34  53  80 117 160 204 249 300 351
#     4  10  20  34  54  79 111 153 197 242 293 348
#     4  11  23  41  68  96 121 155 195 238 296 360
#     4  11  20  32  52  77 111 157 201 244 290 341
#     4   9  19  36  60  89 118 151 193 244 296 348
#     4  11  21  34  56  83 112 153 206 251 291 345
#     4  12  24  40  62  87 120 154 192 253 305 350
#     4  11  22  40  63  89 119 159 204 242 293 357
#
# _framework density 19.511927
#
# number of rings (size 3 to 8) (size 9 to 14) (size 15 to 20)
#    0.000    1.429    5.000    2.714    1.000    4.571 
#    0.857    0.000    0.000    1.143    0.000    0.000 
#    0.000    1.143    0.000    0.000    0.000    0.000 
#
# Total GULP energy -1041131.979917 kJ/mol
# GULP energy per Si atom -12394.428332 kJ/mol
# Density = 1.946752 g / cm^3
# Si number density = 19.511927 Si / 1000 Ang^3
#
#
#
# Elastic Constant Matrix: (Units=GPa)
#
#
# Indices 1 2 3 4 5 6 
#
# 1 126.5477 67.7105 26.0372 0.0000 -0.0003 0.0000
# 2 67.7105 126.5477 26.0372 0.0000 0.0003 0.0000
# 3 26.0372 26.0372 85.2112 0.0000 0.0000 0.0000
# 4 0.0000 0.0000 0.0000 4.1328 0.0000 0.0003
# 5 -0.0003 0.0003 0.0000 0.0000 4.1328 0.0000
# 6 0.0000 0.0000 0.0000 0.0003 0.0000 29.4186
#
#
#
# Elastic Compliance Matrix: (Units=1/GPa)
#
#
# Indices 1 2 3 4 5 6 
#
# 1 0.011302 -0.005694 -0.001713 0.000000 0.000001 0.000000
# 2 -0.005694 0.011302 -0.001713 0.000000 -0.000001 0.000000
# 3 -0.001713 -0.001713 0.012783 0.000000 0.000000 0.000000
# 4 0.000000 0.000000 0.000000 0.241967 0.000000 -0.000003
# 5 0.000001 -0.000001 0.000000 0.000000 0.241967 0.000000
# 6 0.000000 0.000000 0.000000 -0.000003 0.000000 0.033992
#
#
# Mechanical properties :
#
#
# Convention : Reuss Voigt Hill
#
# Bulk Modulus (GPa) = 58.33112 64.20852 61.26982
# Shear Modulus (GPa) = 8.66147 22.10495 15.38321
#
# Velocity S-wave (km/s) = 2.10919 3.36950 2.81089
# Velocity P-wave (km/s) = 5.99096 6.93663 6.48107
#
# Compressibility (1/GPa) = 0.01714351
#
# Stress axis : x y z
#
# Youngs Moduli (GPa) = 88.48339 88.48339 78.23147
#
# Poissons Ratio (x) = 0.50387 0.13403
# Poissons Ratio (y) = 0.50387 0.13403
# Poissons Ratio (z) = 0.15160 0.15160
#
# Static dielectric constant tensor:
#      x y z
#    x 3.610790 0.000000 0.000000 
#    y 0.000000 3.610790 0.000000 
#    z 0.000000 0.000000 3.393650 
# 
# 
# High freq. dielectric constant tensor:
#      x y z
#    x 1.755600 0.000000 0.000000 
#    y 0.000000 1.755600 0.000000 
#    z 0.000000 0.000000 1.748150 
# 
# From -- ./inp_files/2672.got.cif
#   From: 2010.03.12/outbox.cif.g09.slc.cpg/sg187_2_cif.got.tgz:2672.got - 2010.04.01 11:58:23.
