data_PCOD8327032
_publ_section_title
;
Structure prediction by ZEFSAII (Michael W. Deem and Ramdas Pophale) SiO2 
 PCOD8327032
Probable space group: P -6 M 2
;
_chemical_formula_sum "Si O2"
_cell_formula_units_Z 60
_cell_length_a 12.631781
_cell_length_b 12.631781
_cell_length_c 25.439052
_cell_angle_alpha 90.000000
_cell_angle_beta 90.000000
_cell_angle_gamma 120.000000
_cell_volume 3515.286530
_symmetry_space_group_name_H-M "P -6 M 2"
_symmetry_group_IT_number 187
_symmetry_cell_setting 'hexagonal'
loop_
_space_group_symop_operation_xyz
x,y,z
-x+y,-x,-z
-y,x-y,z
x,y,-z
-x+y,-x,z
-y,x-y,-z
-y,-x,-z
-x+y,y,-z
x,x-y,-z
-x+y,y,z
x,x-y,z
-y,-x,z
loop_
_atom_site_type_symbol
_atom_site_label
_atom_site_fract_x
_atom_site_fract_y
_atom_site_fract_z
Si Si1 0.581417 0.665040 0.000000
Si Si2 0.243312 0.000335 0.711370
Si Si3 0.243590 0.243257 0.407382
Si Si4 0.915470 0.335257 0.901865
Si Si5 0.912811 0.332908 0.500000
Si Si6 0.579663 0.666581 0.195435
O O1 0.650605 0.655573 0.949155
O O2 0.439819 0.560182 0.000000
O O3 0.588533 0.794267 0.000000
O O4 0.258453 0.129227 0.728832
O O5 0.290822 0.005670 0.652051
O O6 0.324571 0.967193 0.748696
O O7 0.100378 0.899623 0.715365
O O8 0.204808 0.102404 0.415632
O O9 0.348516 0.329560 0.447449
O O10 0.128266 0.256531 0.420925
O O11 0.876068 0.438034 0.905510
O O12 0.795871 0.204130 0.905199
O O13 0.985041 0.345500 0.847960
O O14 0.774044 0.225957 0.500000
O O15 0.915676 0.457838 0.500000
O O16 0.581982 0.790991 0.180519
O O17 0.439963 0.560038 0.198405
#
# Coordination Sequence:
#
# PCOD8327032 Si02
#       6
#     6  12  12  12   6  12
#     4  10  20  34  54  78 104 134 166 200 236 280
#     4   9  17  30  49  73  99 125 154 191 238 289
#     4   9  17  30  50  74  96 119 151 195 243 286
#     4  10  20  34  53  75  99 127 160 201 246 290
#     4  10  20  32  46  64  90 124 158 192 230 278
#     4  10  20  33  50  71  97 130 166 203 239 280
#
# _framework density 17.068311000000001
#
# number of rings (size 3 to 8) (size 9 to 14) (size 15 to 20)
#    0.000    2.400    0.000    2.800    0.000    2.400 
#    0.000    4.000    0.000    8.800    0.000    0.000 
#    0.000    0.000    0.000    0.000    0.000    0.000 
#
# Total GULP energy -744117.877306 kJ/mol
# GULP energy per Si atom -12401.964622 kJ/mol
# Density = 1.702946 g / cm^3
# Si number density = 17.068311 Si / 1000 Ang^3
#
#
#
# Elastic Constant Matrix: (Units=GPa)
#
#
# Indices 1 2 3 4 5 6 
#
# 1 108.0042 63.2349 59.0811 0.0000 -0.0002 0.0000
# 2 63.2349 108.0042 59.0811 0.0000 0.0002 0.0000
# 3 59.0811 59.0811 120.4973 0.0000 0.0000 0.0000
# 4 0.0000 0.0000 0.0000 21.8921 0.0000 0.0002
# 5 -0.0002 0.0002 0.0000 0.0000 21.8921 0.0000
# 6 0.0000 0.0000 0.0000 0.0002 0.0000 22.3846
#
#
#
# Elastic Compliance Matrix: (Units=1/GPa)
#
#
# Indices 1 2 3 4 5 6 
#
# 1 0.015581 -0.006755 -0.004327 0.000000 0.000000 0.000000
# 2 -0.006755 0.015581 -0.004327 0.000000 0.000000 0.000000
# 3 -0.004327 -0.004327 0.012543 0.000000 0.000000 0.000000
# 4 0.000000 0.000000 0.000000 0.045679 0.000000 0.000000
# 5 0.000000 0.000000 0.000000 0.000000 0.045679 0.000000
# 6 0.000000 0.000000 0.000000 0.000000 0.000000 0.044674
#
#
# Mechanical properties :
#
#
# Convention : Reuss Voigt Hill
#
# Bulk Modulus (GPa) = 77.61214 77.70000 77.65607
# Shear Modulus (GPa) = 23.27191 23.57433 23.42312
#
# Velocity S-wave (km/s) = 3.69651 3.72045 3.70850
# Velocity P-wave (km/s) = 7.98681 8.00484 7.99583
#
# Compressibility (1/GPa) = 0.01288458
#
# Stress axis : x y z
#
# Youngs Moduli (GPa) = 64.17937 64.17937 79.72887
#
# Poissons Ratio (x) = 0.43356 0.34502
# Poissons Ratio (y) = 0.43356 0.34502
# Poissons Ratio (z) = 0.27773 0.27773
#
# Static dielectric constant tensor:
#      x y z
#    x 3.049480 0.000000 0.000000 
#    y 0.000000 3.049480 0.000000 
#    z 0.000000 0.000000 3.512500 
# 
# 
# High freq. dielectric constant tensor:
#      x y z
#    x 1.651920 0.000000 0.000000 
#    y 0.000000 1.651920 0.000000 
#    z 0.000000 0.000000 1.675980 
# 
# From -- ./inp_files/4183.got.cif
#   From: 2010.03.12/outbox.cif.g09.slc.cpg/sg187_3_cif.got.tgz:4183.got - 2010.04.01 11:58:23.
