data_PCOD8327394
_publ_section_title
;
Structure prediction by ZEFSAII (Michael W. Deem and Ramdas Pophale) SiO2 
 PCOD8327394
Probable space group: P -6 C 2
;
_chemical_formula_sum "Si O2"
_cell_formula_units_Z 72
_cell_length_a 24.062581
_cell_length_b 24.062581
_cell_length_c 8.935951
_cell_angle_alpha 90.000000
_cell_angle_beta 90.000000
_cell_angle_gamma 120.000000
_cell_volume 4480.802768
_symmetry_space_group_name_H-M "P -6 C 2"
_symmetry_group_IT_number 188
_symmetry_cell_setting 'hexagonal'
loop_
_space_group_symop_operation_xyz
x,y,z
-x+y,-x,1/2-z
-y,x-y,z
x,y,1/2-z
-x+y,-x,z
-y,x-y,1/2-z
-y,-x,-z
-x+y,y,-z
x,x-y,-z
-x+y,y,1/2+z
x,x-y,1/2+z
-y,-x,1/2+z
loop_
_atom_site_type_symbol
_atom_site_label
_atom_site_fract_x
_atom_site_fract_y
_atom_site_fract_z
Si Si1 0.083027 0.599539 0.929341
Si Si2 0.146633 0.737296 0.070768
Si Si3 0.741824 0.149786 0.416202
Si Si4 0.817392 0.072205 0.080612
Si Si5 0.256755 0.292591 0.582119
Si Si6 0.956214 0.591165 0.914518
O O1 0.092238 0.605696 0.750000
O O2 0.008225 0.572450 0.973283
O O3 0.104945 0.552473 0.000000
O O4 0.126728 0.667923 0.005356
O O5 0.149298 0.736669 0.250000
O O6 0.215661 0.784340 0.000000
O O7 0.097723 0.761103 0.018711
O O8 0.732748 0.167246 0.250000
O O9 0.782654 0.217347 0.500000
O O10 0.778809 0.110281 0.421831
O O11 0.670281 0.106795 0.482817
O O12 0.829264 0.058411 0.250000
O O13 0.885792 0.114208 0.000000
O O14 0.777286 0.004657 0.994101
O O15 0.228466 0.285692 0.750000
O O16 0.332503 0.323794 0.591930
O O17 0.932087 0.562376 0.750000
#
# Coordination Sequence:
#
# PCOD8327394 Si02
#       6
#    12  12  12  12  12  12
#     4  10  20  34  51  71  92 116 146 184 230 283
#     4  11  21  34  51  70  91 116 147 186 232 286
#     4   9  15  21  32  50  75 107 142 173 201 232
#     4   9  15  22  33  52  78 111 146 177 206 238
#     4   9  16  27  41  59  83 111 143 179 216 259
#     4   8  15  26  39  56  81 109 139 173 209 250
#
# _framework density 16.068549999999998
#
# number of rings (size 3 to 8) (size 9 to 14) (size 15 to 20)
#    0.000    2.667    0.000    4.500    0.000    8.667 
#    0.000    0.000    0.000    0.333    0.000    2.333 
#    0.000    0.000    0.000    1.000    0.000   15.667 
#
# Total GULP energy -892441.368915 kJ/mol
# GULP energy per Si atom -12395.019013 kJ/mol
# Density = 1.603198 g / cm^3
# Si number density = 16.068550 Si / 1000 Ang^3
#
#
#
# Elastic Constant Matrix: (Units=GPa)
#
#
# Indices 1 2 3 4 5 6 
#
# 1 70.9837 42.9122 51.9259 0.0001 0.0000 0.0000
# 2 42.9122 70.9837 51.9259 -0.0001 0.0000 0.0000
# 3 51.9259 51.9259 149.3803 0.0000 0.0000 0.0000
# 4 0.0001 -0.0001 0.0000 21.4662 0.0000 0.0000
# 5 0.0000 0.0000 0.0000 0.0000 21.4662 0.0001
# 6 0.0000 0.0000 0.0000 0.0000 0.0001 14.0357
#
#
#
# Elastic Compliance Matrix: (Units=1/GPa)
#
#
# Indices 1 2 3 4 5 6 
#
# 1 0.024239 -0.011385 -0.004468 0.000000 0.000000 0.000000
# 2 -0.011385 0.024239 -0.004468 0.000000 0.000000 0.000000
# 3 -0.004468 -0.004468 0.009801 0.000000 0.000000 0.000000
# 4 0.000000 0.000000 0.000000 0.046585 0.000000 0.000000
# 5 0.000000 0.000000 0.000000 0.000000 0.046585 0.000000
# 6 0.000000 0.000000 0.000000 0.000000 0.000000 0.071247
#
#
# Mechanical properties :
#
#
# Convention : Reuss Voigt Hill
#
# Bulk Modulus (GPa) = 56.70183 64.98620 60.84402
# Shear Modulus (GPa) = 18.57249 21.03254 19.80252
#
# Velocity S-wave (km/s) = 3.40344 3.62183 3.51433
# Velocity P-wave (km/s) = 7.12801 7.61716 7.37664
#
# Compressibility (1/GPa) = 0.01763611
#
# Stress axis : x y z
#
# Youngs Moduli (GPa) = 41.25626 41.25626 102.03349
#
# Poissons Ratio (x) = 0.46969 0.45591
# Poissons Ratio (y) = 0.46969 0.45591
# Poissons Ratio (z) = 0.18434 0.18434
#
# Static dielectric constant tensor:
#      x y z
#    x 2.818930 0.000000 0.000000 
#    y 0.000000 2.818930 0.000000 
#    z 0.000000 0.000000 3.288140 
# 
# 
# High freq. dielectric constant tensor:
#      x y z
#    x 1.578300 0.000000 0.000000 
#    y 0.000000 1.578300 0.000000 
#    z 0.000000 0.000000 1.638630 
# 
# From -- ./inp_files/979.got.cif
#   From: 2010.03.12/outbox.cif.g09.slc.cpg/sg188_1_cif.got.tgz:979.got - 2010.04.01 12:01:06.
