data_PCOD8327581
_publ_section_title
;
Structure prediction by ZEFSAII (Michael W. Deem and Ramdas Pophale) SiO2 
 PCOD8327581
Probable space group: P -6 2 M
;
_chemical_formula_sum "Si O2"
_cell_formula_units_Z 48
_cell_length_a 18.759339
_cell_length_b 18.759339
_cell_length_c 9.260708
_cell_angle_alpha 90.000000
_cell_angle_beta 90.000000
_cell_angle_gamma 120.000000
_cell_volume 2822.343605
_symmetry_space_group_name_H-M "P -6 2 M"
_symmetry_group_IT_number 189
_symmetry_cell_setting 'hexagonal'
loop_
_space_group_symop_operation_xyz
x,y,z
-x+y,-x,-z
-y,x-y,z
x,y,-z
-x+y,-x,z
-y,x-y,-z
x-y,-y,-z
-x,-x+y,-z
y,x,-z
y,x,z
x-y,-y,z
-x,-x+y,z
loop_
_atom_site_type_symbol
_atom_site_label
_atom_site_fract_x
_atom_site_fract_y
_atom_site_fract_z
Si Si1 0.672547 0.902372 0.662269
Si Si2 0.466210 0.371408 0.168960
Si Si3 0.603448 0.374248 0.663090
Si Si4 0.905527 0.095330 0.167698
O O1 0.650840 0.866698 0.500000
O O2 0.589310 0.874414 0.750382
O O3 0.726184 0.868601 0.741176
O O4 0.724851 0.000000 0.660782
O O5 0.437390 0.437390 0.204940
O O6 0.558958 0.405822 0.226174
O O7 0.461431 0.353919 0.000000
O O8 0.574209 0.276844 0.687031
O O9 0.581732 0.387293 0.500000
O O10 0.000000 0.145432 0.214966
O O11 0.872377 0.000000 0.202617
O O12 0.893522 0.107428 0.000000
#
# Coordination Sequence:
#
# PCOD8327581 Si02
#       4
#    12  12  12  12
#     4   9  17  28  42  61  86 117 153 194 238 281
#     4  10  19  30  48  75 102 128 161 200 242 289
#     4   8  17  33  52  75 102 130 161 196 238 287
#     4   9  16  26  40  58  82 113 150 193 242 295
#
# _framework density 17.007142000000002
#
# number of rings (size 3 to 8) (size 9 to 14) (size 15 to 20)
#    0.500    2.500    0.000    1.750    0.000    7.000 
#    0.000    0.000    0.000    3.000    0.000    7.000 
#    0.000    0.000    0.000    0.000    0.000    0.000 
#
# Total GULP energy -594915.492413 kJ/mol
# GULP energy per Si atom -12394.072759 kJ/mol
# Density = 1.696843 g / cm^3
# Si number density = 17.007142 Si / 1000 Ang^3
#
#
#
# Elastic Constant Matrix: (Units=GPa)
#
#
# Indices 1 2 3 4 5 6 
#
# 1 53.7701 18.2180 35.0642 0.0000 0.0000 0.0000
# 2 18.2180 53.7701 35.0642 0.0000 0.0000 0.0000
# 3 35.0642 35.0642 97.7981 0.0000 0.0000 0.0000
# 4 0.0000 0.0000 0.0000 28.6389 0.0000 0.0000
# 5 0.0000 0.0000 0.0000 0.0000 28.6389 0.0000
# 6 0.0000 0.0000 0.0000 0.0000 0.0000 17.7760
#
#
#
# Elastic Compliance Matrix: (Units=1/GPa)
#
#
# Indices 1 2 3 4 5 6 
#
# 1 0.024737 -0.003390 -0.007654 0.000000 0.000000 0.000000
# 2 -0.003390 0.024737 -0.007654 0.000000 0.000000 0.000000
# 3 -0.007654 -0.007654 0.015713 0.000000 0.000000 0.000000
# 4 0.000000 0.000000 0.000000 0.034918 0.000000 0.000000
# 5 0.000000 0.000000 0.000000 0.000000 0.034918 0.000000
# 6 0.000000 0.000000 0.000000 0.000000 0.000000 0.056256
#
#
# Mechanical properties :
#
#
# Convention : Reuss Voigt Hill
#
# Bulk Modulus (GPa) = 35.98048 42.44789 39.21418
# Shear Modulus (GPa) = 21.01381 22.81023 21.91202
#
# Velocity S-wave (km/s) = 3.51891 3.66623 3.59332
# Velocity P-wave (km/s) = 6.14103 6.55246 6.35008
#
# Compressibility (1/GPa) = 0.02779285
#
# Stress axis : x y z
#
# Youngs Moduli (GPa) = 40.42451 40.42451 63.63983
#
# Poissons Ratio (x) = 0.13705 0.48708
# Poissons Ratio (y) = 0.13705 0.48708
# Poissons Ratio (z) = 0.30940 0.30940
#
# Static dielectric constant tensor:
#      x y z
#    x 2.962320 0.000000 0.000000 
#    y 0.000000 2.962320 0.000000 
#    z 0.000000 0.000000 3.223920 
# 
# 
# High freq. dielectric constant tensor:
#      x y z
#    x 1.629880 0.000000 0.000000 
#    y 0.000000 1.629880 0.000000 
#    z 0.000000 0.000000 1.663100 
# 
# From -- ./inp_files/534.got.cif
#   From: 2010.03.12/outbox.cif.g09.slc.cpg/sg189_1_cif.got.tgz:534.got - 2010.04.01 12:03:36.
