data_PCOD8327084
_publ_section_title
;
Structure prediction by ZEFSAII (Michael W. Deem and Ramdas Pophale) SiO2 
 PCOD8327084
Probable space group: P -6 M 2
;
_chemical_formula_sum "Si O2"
_cell_formula_units_Z 48
_cell_length_a 17.310401
_cell_length_b 17.310401
_cell_length_c 10.304329
_cell_angle_alpha 90.000000
_cell_angle_beta 90.000000
_cell_angle_gamma 120.000000
_cell_volume 2674.019717
_symmetry_space_group_name_H-M "P -6 M 2"
_symmetry_group_IT_number 187
_symmetry_cell_setting 'hexagonal'
loop_
_space_group_symop_operation_xyz
x,y,z
-x+y,-x,-z
-y,x-y,z
x,y,-z
-x+y,-x,z
-y,x-y,-z
-y,-x,-z
-x+y,y,-z
x,x-y,-z
-x+y,y,z
x,x-y,z
-y,-x,z
loop_
_atom_site_type_symbol
_atom_site_label
_atom_site_fract_x
_atom_site_fract_y
_atom_site_fract_z
Si Si1 0.966256 0.340326 0.648910
Si Si2 0.869853 0.130148 0.646148
Si Si3 0.840136 0.334425 0.854869
Si Si4 0.159540 0.667202 0.652486
Si Si5 0.943221 0.886441 0.859439
O O1 0.949858 0.359199 0.500000
O O2 0.922444 0.235318 0.672809
O O3 0.918809 0.373416 0.749750
O O4 0.071406 0.397070 0.682677
O O5 0.888118 0.111883 0.500000
O O6 0.910645 0.089355 0.741125
O O7 0.799224 0.399612 0.856036
O O8 0.763335 0.236666 0.812268
O O9 0.875567 0.331196 0.000000
O O10 0.172552 0.667257 0.500000
O O11 0.151686 0.575843 0.709975
O O12 0.245787 0.754214 0.713174
O O13 0.898595 0.949298 0.850672
O O14 0.918270 0.836539 0.000000
#
# Coordination Sequence:
#
# PCOD8327084 Si02
#       5
#    12   6  12  12   6
#     4  10  20  34  51  77 109 141 176 217 267 324
#     4  10  20  32  50  76 108 142 178 220 268 331
#     4  10  20  34  52  74 101 137 179 221 264 316
#     4   9  17  30  50  76 105 138 175 219 269 319
#     4   8  18  36  54  74 100 134 178 224 268 319
#
# _framework density 17.950503999999999
#
# number of rings (size 3 to 8) (size 9 to 14) (size 15 to 20)
#    0.250    2.250    1.250    1.250    0.000    6.000 
#    0.000    2.500    0.000    2.250    0.000    0.000 
#    0.000    2.000    0.000    0.000    0.000    0.000 
#
# Total GULP energy -594729.875029 kJ/mol
# GULP energy per Si atom -12390.205730 kJ/mol
# Density = 1.790965 g / cm^3
# Si number density = 17.950504 Si / 1000 Ang^3
#
#
#
# Elastic Constant Matrix: (Units=GPa)
#
#
# Indices 1 2 3 4 5 6 
#
# 1 113.7385 59.6348 42.1942 0.0000 -0.0002 0.0000
# 2 59.6348 113.7385 42.1942 0.0000 0.0002 0.0000
# 3 42.1942 42.1942 74.6183 0.0000 0.0000 0.0000
# 4 0.0000 0.0000 0.0000 20.9600 0.0000 0.0002
# 5 -0.0002 0.0002 0.0000 0.0000 20.9600 0.0000
# 6 0.0000 0.0000 0.0000 0.0002 0.0000 27.0518
#
#
#
# Elastic Compliance Matrix: (Units=1/GPa)
#
#
# Indices 1 2 3 4 5 6 
#
# 1 0.013221 -0.005262 -0.004500 0.000000 0.000000 0.000000
# 2 -0.005262 0.013221 -0.004500 0.000000 0.000000 0.000000
# 3 -0.004500 -0.004500 0.018491 0.000000 0.000000 0.000000
# 4 0.000000 0.000000 0.000000 0.047710 0.000000 0.000000
# 5 0.000000 0.000000 0.000000 0.000000 0.047710 0.000000
# 6 0.000000 0.000000 0.000000 0.000000 0.000000 0.036966
#
#
# Mechanical properties :
#
#
# Convention : Reuss Voigt Hill
#
# Bulk Modulus (GPa) = 60.94992 65.57128 63.26060
# Shear Modulus (GPa) = 23.66163 24.33251 23.99707
#
# Velocity S-wave (km/s) = 3.63459 3.68575 3.66026
# Velocity P-wave (km/s) = 7.18622 7.39738 7.29257
#
# Compressibility (1/GPa) = 0.01640691
#
# Stress axis : x y z
#
# Youngs Moduli (GPa) = 75.63900 75.63900 54.08051
#
# Poissons Ratio (x) = 0.39804 0.24337
# Poissons Ratio (y) = 0.39804 0.24337
# Poissons Ratio (z) = 0.34039 0.34039
#
# Static dielectric constant tensor:
#      x y z
#    x 3.338970 0.000000 0.000000 
#    y 0.000000 3.338970 0.000000 
#    z 0.000000 0.000000 3.168350 
# 
# 
# High freq. dielectric constant tensor:
#      x y z
#    x 1.690620 0.000000 0.000000 
#    y 0.000000 1.690620 0.000000 
#    z 0.000000 0.000000 1.674150 
# 
# From -- ./inp_files/414.got.cif
#   From: 2010.03.12/outbox.cif.g09.slc.cpg/sg187_1_cif.got.tgz:414.got - 2010.04.01 11:58:23.
