data_PCOD8327306
_publ_section_title
;
Structure prediction by ZEFSAII (Michael W. Deem and Ramdas Pophale) SiO2 
 PCOD8327306
Probable space group: P -6 C 2
;
_chemical_formula_sum "Si O2"
_cell_formula_units_Z 48
_cell_length_a 23.047721
_cell_length_b 23.047721
_cell_length_c 8.640611
_cell_angle_alpha 90.000000
_cell_angle_beta 90.000000
_cell_angle_gamma 120.000000
_cell_volume 3974.944429
_symmetry_space_group_name_H-M "P -6 C 2"
_symmetry_group_IT_number 188
_symmetry_cell_setting 'hexagonal'
loop_
_space_group_symop_operation_xyz
x,y,z
-x+y,-x,1/2-z
-y,x-y,z
x,y,1/2-z
-x+y,-x,z
-y,x-y,1/2-z
-y,-x,-z
-x+y,y,-z
x,x-y,-z
-x+y,y,1/2+z
x,x-y,1/2+z
-y,-x,1/2+z
loop_
_atom_site_type_symbol
_atom_site_label
_atom_site_fract_x
_atom_site_fract_y
_atom_site_fract_z
Si Si1 0.865634 0.605019 0.070265
Si Si2 0.127213 0.128019 0.066264
Si Si3 0.542595 0.334794 0.429430
Si Si4 0.932529 0.736136 0.933001
O O1 0.870778 0.623304 0.250000
O O2 0.857141 0.531744 0.042481
O O3 0.798926 0.597851 0.000000
O O4 0.930196 0.666730 0.984079
O O5 0.123632 0.123691 0.250000
O O6 0.070305 0.140610 0.000000
O O7 0.197807 0.191346 0.010371
O O8 0.117878 0.058939 0.000000
O O9 0.557293 0.334972 0.250000
O O10 0.593852 0.406149 0.500000
O O11 0.552096 0.276048 0.500000
O O12 0.936912 0.744746 0.750000
O O13 0.864947 0.729894 0.000000
#
# Coordination Sequence:
#
# PCOD8327306 Si02
#       4
#    12  12  12  12
#     4   9  16  26  38  51  64  82 105 132 161 193
#     4  11  20  30  40  52  69  88 109 133 163 200
#     4  10  19  28  38  50  67  87 109 134 166 203
#     4  10  17  26  39  53  66  83 105 131 160 192
#
# _framework density 12.075640999999999
#
# number of rings (size 3 to 8) (size 9 to 14) (size 15 to 20)
#    0.000    2.000    0.000    9.500    0.000    3.000 
#    0.000    0.000    0.000    0.000    0.000    0.000 
#    0.000    0.000    0.000    0.000    0.000    0.000 
#
# Total GULP energy -594726.647585 kJ/mol
# GULP energy per Si atom -12390.138491 kJ/mol
# Density = 1.204816 g / cm^3
# Si number density = 12.075641 Si / 1000 Ang^3
#
#
#
# Elastic Constant Matrix: (Units=GPa)
#
#
# Indices 1 2 3 4 5 6 
#
# 1 66.4705 39.8567 37.9898 -0.0001 0.0000 0.0000
# 2 39.8567 66.4705 37.9898 0.0001 0.0000 0.0000
# 3 37.9898 37.9898 115.0078 0.0000 0.0000 0.0000
# 4 -0.0001 0.0001 0.0000 17.2152 0.0000 0.0000
# 5 0.0000 0.0000 0.0000 0.0000 17.2152 -0.0001
# 6 0.0000 0.0000 0.0000 0.0000 -0.0001 13.3069
#
#
#
# Elastic Compliance Matrix: (Units=1/GPa)
#
#
# Indices 1 2 3 4 5 6 
#
# 1 0.024943 -0.012632 -0.004067 0.000000 0.000000 0.000000
# 2 -0.012632 0.024943 -0.004067 0.000000 0.000000 0.000000
# 3 -0.004067 -0.004067 0.011382 0.000000 0.000000 0.000000
# 4 0.000000 0.000000 0.000000 0.058088 0.000000 0.000000
# 5 0.000000 0.000000 0.000000 0.000000 0.058088 0.000000
# 6 0.000000 0.000000 0.000000 0.000000 0.000000 0.075149
#
#
# Mechanical properties :
#
#
# Convention : Reuss Voigt Hill
#
# Bulk Modulus (GPa) = 50.66614 53.29125 51.97869
# Shear Modulus (GPa) = 16.62781 18.35496 17.49138
#
# Velocity S-wave (km/s) = 3.71478 3.90295 3.81003
# Velocity P-wave (km/s) = 7.77482 8.03353 7.90524
#
# Compressibility (1/GPa) = 0.01973705
#
# Stress axis : x y z
#
# Youngs Moduli (GPa) = 40.09200 40.09200 87.86094
#
# Poissons Ratio (x) = 0.50643 0.35729
# Poissons Ratio (y) = 0.50643 0.35729
# Poissons Ratio (z) = 0.16304 0.16304
#
# Static dielectric constant tensor:
#      x y z
#    x 2.837500 0.000000 0.000000 
#    y 0.000000 2.837500 0.000000 
#    z 0.000000 0.000000 2.684700 
# 
# 
# High freq. dielectric constant tensor:
#      x y z
#    x 1.426760 0.000000 0.000000 
#    y 0.000000 1.426760 0.000000 
#    z 0.000000 0.000000 1.484880 
# 
# From -- ./inp_files/505.got.cif
#   From: 2010.03.12/outbox.cif.g09.slc.cpg/sg188_1_cif.got.tgz:505.got - 2010.04.01 12:01:06.
