data_PCOD8327863
_publ_section_title
;
Structure prediction by ZEFSAII (Michael W. Deem and Ramdas Pophale) SiO2 
 PCOD8327863
Probable space group: P -6 2 M
;
_chemical_formula_sum "Si O2"
_cell_formula_units_Z 48
_cell_length_a 18.121658
_cell_length_b 18.121658
_cell_length_c 9.255668
_cell_angle_alpha 90.000000
_cell_angle_beta 90.000000
_cell_angle_gamma 120.000000
_cell_volume 2632.293187
_symmetry_space_group_name_H-M "P -6 2 M"
_symmetry_group_IT_number 189
_symmetry_cell_setting 'hexagonal'
loop_
_space_group_symop_operation_xyz
x,y,z
-x+y,-x,-z
-y,x-y,z
x,y,-z
-x+y,-x,z
-y,x-y,-z
x-y,-y,-z
-x,-x+y,-z
y,x,-z
y,x,z
x-y,-y,z
-x,-x+y,z
loop_
_atom_site_type_symbol
_atom_site_label
_atom_site_fract_x
_atom_site_fract_y
_atom_site_fract_z
Si Si1 0.326323 0.901383 0.666066
Si Si2 0.592789 0.832489 0.828469
Si Si3 0.503177 0.405686 0.332892
Si Si4 0.000000 0.905973 0.339791
Si Si5 0.239712 0.239712 0.829976
O O1 0.296137 0.882516 0.500000
O O2 0.248941 0.844723 0.771278
O O3 0.399989 0.878444 0.694005
O O4 0.360497 0.000000 0.702893
O O5 0.513483 0.838240 0.762747
O O6 0.677656 0.915899 0.772400
O O7 0.584552 0.827056 0.000000
O O8 0.488480 0.378821 0.500000
O O9 0.440215 0.440215 0.284832
O O10 0.000000 0.870154 0.500000
O O11 0.916223 0.916223 0.321595
O O12 0.000000 0.844184 0.219989
O O13 0.239285 0.239285 0.000000
#
# Coordination Sequence:
#
# PCOD8327863 Si02
#       5
#    12  12  12   6   6
#     4   9  20  39  60  83 111 144 187 234 279 329
#     4  11  22  36  55  84 118 149 185 228 276 335
#     4   9  18  36  61  83 106 142 186 230 276 325
#     4   8  18  36  54  76 105 140 187 238 281 318
#     4  10  22  36  52  80 115 150 187 224 269 332
#
# _framework density 18.235050999999999
#
# number of rings (size 3 to 8) (size 9 to 14) (size 15 to 20)
#    0.250    2.250    1.250    2.250    0.000    5.000 
#    1.500    7.500    0.000    0.000    0.000    0.000 
#    0.000    0.000    0.000    0.000    0.000    0.000 
#
# Total GULP energy -595170.469845 kJ/mol
# GULP energy per Si atom -12399.384788 kJ/mol
# Density = 1.819355 g / cm^3
# Si number density = 18.235051 Si / 1000 Ang^3
#
#
#
# Elastic Constant Matrix: (Units=GPa)
#
#
# Indices 1 2 3 4 5 6 
#
# 1 103.7679 52.7859 52.0805 0.0000 0.0000 0.0000
# 2 52.7859 103.7679 52.0805 0.0000 0.0000 0.0000
# 3 52.0805 52.0805 70.4316 0.0000 0.0000 0.0000
# 4 0.0000 0.0000 0.0000 32.5418 0.0000 0.0000
# 5 0.0000 0.0000 0.0000 0.0000 32.5418 0.0000
# 6 0.0000 0.0000 0.0000 0.0000 0.0000 25.4910
#
#
#
# Elastic Compliance Matrix: (Units=1/GPa)
#
#
# Indices 1 2 3 4 5 6 
#
# 1 0.016094 -0.003521 -0.009297 0.000000 0.000000 0.000000
# 2 -0.003521 0.016094 -0.009297 0.000000 0.000000 0.000000
# 3 -0.009297 -0.009297 0.027948 0.000000 0.000000 0.000000
# 4 0.000000 0.000000 0.000000 0.030730 0.000000 0.000000
# 5 0.000000 0.000000 0.000000 0.000000 0.030730 0.000000
# 6 0.000000 0.000000 0.000000 0.000000 0.000000 0.039230
#
#
# Mechanical properties :
#
#
# Convention : Reuss Voigt Hill
#
# Bulk Modulus (GPa) = 62.87194 65.76234 64.31714
# Shear Modulus (GPa) = 23.76897 26.18297 24.97597
#
# Velocity S-wave (km/s) = 3.61429 3.79338 3.70492
# Velocity P-wave (km/s) = 7.20908 7.43830 7.32459
#
# Compressibility (1/GPa) = 0.01590535
#
# Stress axis : x y z
#
# Youngs Moduli (GPa) = 62.13439 62.13439 35.78049
#
# Poissons Ratio (x) = 0.21875 0.33267
# Poissons Ratio (y) = 0.21875 0.33267
# Poissons Ratio (z) = 0.57769 0.57769
#
# Static dielectric constant tensor:
#      x y z
#    x 3.280720 0.000000 0.000000 
#    y 0.000000 3.280720 0.000000 
#    z 0.000000 0.000000 3.188230 
# 
# 
# High freq. dielectric constant tensor:
#      x y z
#    x 1.703330 0.000000 0.000000 
#    y 0.000000 1.703330 0.000000 
#    z 0.000000 0.000000 1.702740 
# 
# From -- ./inp_files/644.got.cif
#   From: 2010.03.12/outbox.cif.g09.slc.cpg/sg189_1_cif.got.tgz:644.got - 2010.04.01 12:03:36.
