data_PCOD8327806
_publ_section_title
;
Structure prediction by ZEFSAII (Michael W. Deem and Ramdas Pophale) SiO2 
 PCOD8327806
Probable space group: P -6 2 M
;
_chemical_formula_sum "Si O2"
_cell_formula_units_Z 46
_cell_length_a 16.229719
_cell_length_b 16.229719
_cell_length_c 11.260020
_cell_angle_alpha 90.000000
_cell_angle_beta 90.000000
_cell_angle_gamma 120.000000
_cell_volume 2568.572300
_symmetry_space_group_name_H-M "P -6 2 M"
_symmetry_group_IT_number 189
_symmetry_cell_setting 'hexagonal'
loop_
_space_group_symop_operation_xyz
x,y,z
-x+y,-x,-z
-y,x-y,z
x,y,-z
-x+y,-x,z
-y,x-y,-z
x-y,-y,-z
-x,-x+y,-z
y,x,-z
y,x,z
x-y,-y,z
-x,-x+y,z
loop_
_atom_site_type_symbol
_atom_site_label
_atom_site_fract_x
_atom_site_fract_y
_atom_site_fract_z
Si Si1 0.344104 0.566342 0.500000
Si Si2 0.333334 0.666667 0.140001
Si Si3 0.537419 0.537419 0.141179
Si Si4 0.274329 0.000000 0.859488
Si Si5 0.305279 0.198453 0.862777
Si Si6 0.842689 0.498727 0.755039
O O1 0.244868 0.568726 0.500000
O O2 0.350601 0.510513 0.386701
O O3 0.299218 0.561777 0.189861
O O4 0.333334 0.666668 0.000000
O O5 0.631718 0.631718 0.185208
O O6 0.541902 0.448031 0.191025
O O7 0.530269 0.530269 0.000000
O O8 0.180261 0.906178 0.812200
O O9 0.271279 0.000000 0.000000
O O10 0.216554 0.216554 0.849104
O O11 0.391889 0.277171 0.786817
O O12 0.338023 0.208816 0.000000
#
# Coordination Sequence:
#
# PCOD8327806 Si02
#       6
#     6   4   6   6  12  12
#     4  10  22  41  54  80 116 157 203 237 264 342
#     4  12  21  31  56  85 108 150 193 224 289 357
#     4  11  22  35  55  90 122 146 192 241 295 356
#     4   9  20  34  53  82 116 149 181 233 289 348
#     4  10  20  37  58  84 116 147 190 242 292 346
#     4  12  21  37  58  80 117 159 185 239 286 340
#
# _framework density 17.908781999999999
#
# number of rings (size 3 to 8) (size 9 to 14) (size 15 to 20)
#    0.261    1.043    3.913    3.913    0.000    2.609 
#    0.783    0.000    0.000    0.783    0.000    0.000 
#    0.000    0.000    0.000    0.000    0.000    0.000 
#
# Total GULP energy -570513.875415 kJ/mol
# GULP energy per Si atom -12402.475552 kJ/mol
# Density = 1.786802 g / cm^3
# Si number density = 17.908782 Si / 1000 Ang^3
#
#
#
# Elastic Constant Matrix: (Units=GPa)
#
#
# Indices 1 2 3 4 5 6 
#
# 1 118.4927 59.0254 36.2736 0.0002 0.0001 0.0000
# 2 59.0254 118.4924 36.2733 0.0000 -0.0002 0.0002
# 3 36.2736 36.2733 117.2866 -0.0001 0.0000 -0.0001
# 4 0.0002 0.0000 -0.0001 10.8397 -0.0001 0.0002
# 5 0.0001 -0.0002 0.0000 -0.0001 10.8402 -0.0001
# 6 0.0000 0.0002 -0.0001 0.0002 -0.0001 29.7337
#
#
#
# Elastic Compliance Matrix: (Units=1/GPa)
#
#
# Indices 1 2 3 4 5 6 
#
# 1 0.011632 -0.005184 -0.001994 0.000000 0.000000 0.000000
# 2 -0.005184 0.011632 -0.001994 0.000000 0.000000 0.000000
# 3 -0.001994 -0.001994 0.009760 0.000000 0.000000 0.000000
# 4 0.000000 0.000000 0.000000 0.092254 0.000001 0.000000
# 5 0.000000 0.000000 0.000000 0.000001 0.092249 0.000000
# 6 0.000000 0.000000 0.000000 0.000000 0.000000 0.033632
#
#
# Mechanical properties :
#
#
# Convention : Reuss Voigt Hill
#
# Bulk Modulus (GPa) = 68.12409 68.60182 68.36296
# Shear Modulus (GPa) = 18.22179 25.12933 21.67556
#
# Velocity S-wave (km/s) = 3.19325 3.74997 3.48276
# Velocity P-wave (km/s) = 7.19152 7.55904 7.37757
#
# Compressibility (1/GPa) = 0.01467909
#
# Stress axis : x y z
#
# Youngs Moduli (GPa) = 85.96890 85.96881 102.46257
#
# Poissons Ratio (x) = 0.44565 0.20434
# Poissons Ratio (y) = 0.44565 0.20433
# Poissons Ratio (z) = 0.17145 0.17144
#
# Static dielectric constant tensor:
#      x y z
#    x 3.407560 0.000000 0.000000 
#    y 0.000000 3.407560 0.000000 
#    z 0.000000 0.000000 3.094440 
# 
# 
# High freq. dielectric constant tensor:
#      x y z
#    x 1.692350 0.000000 0.000000 
#    y 0.000000 1.692350 0.000000 
#    z 0.000000 0.000000 1.668910 
# 
# From -- ./inp_files/1725.got.cif
#   From: 2010.03.12/outbox.cif.g09.slc.cpg/sg189_1_cif.got.tgz:1725.got - 2010.04.01 12:03:36.
