data_PCOD8327969
_publ_section_title
;
Structure prediction by ZEFSAII (Michael W. Deem and Ramdas Pophale) SiO2 
 PCOD8327969
Probable space group: P -6 2 C
;
_chemical_formula_sum "Si O2"
_cell_formula_units_Z 72
_cell_length_a 23.857186
_cell_length_b 23.857186
_cell_length_c 8.533227
_cell_angle_alpha 90.000000
_cell_angle_beta 90.000000
_cell_angle_gamma 120.000000
_cell_volume 4206.126825
_symmetry_space_group_name_H-M "P -6 2 C"
_symmetry_group_IT_number 190
_symmetry_cell_setting 'hexagonal'
loop_
_space_group_symop_operation_xyz
x,y,z
-x+y,-x,1/2-z
-y,x-y,z
x,y,1/2-z
-x+y,-x,z
-y,x-y,1/2-z
x-y,-y,-z
-x,-x+y,-z
y,x,-z
y,x,1/2+z
x-y,-y,1/2+z
-x,-x+y,1/2+z
loop_
_atom_site_type_symbol
_atom_site_label
_atom_site_fract_x
_atom_site_fract_y
_atom_site_fract_z
Si Si1 0.862107 0.930467 0.564981
Si Si2 0.479143 0.408457 0.063929
Si Si3 0.269161 0.739799 0.934296
Si Si4 0.593357 0.399843 0.566769
Si Si5 0.594232 0.857052 0.564676
Si Si6 0.805931 0.069107 0.435632
O O1 0.867094 0.932706 0.750000
O O2 0.875135 0.875135 0.500000
O O3 0.790502 0.912989 0.506546
O O4 0.915647 0.000000 0.500000
O O5 0.485154 0.413173 0.250000
O O6 0.428668 0.335558 0.005896
O O7 0.457307 0.457307 0.000000
O O8 0.549072 0.429000 0.991702
O O9 0.283560 0.750575 0.750000
O O10 0.215629 0.758771 0.989456
O O11 0.242395 0.664728 0.972686
O O12 0.332862 0.786000 0.031817
O O13 0.583147 0.384168 0.750000
O O14 0.595907 0.859457 0.750000
O O15 0.665832 0.878433 0.498946
O O16 0.802847 0.065858 0.250000
O O17 0.752641 0.000000 0.500000
#
# Coordination Sequence:
#
# PCOD8327969 Si02
#       6
#    12  12  12  12  12  12
#     4  10  19  30  46  66  92 120 151 186 225 269
#     4  10  19  32  50  73  99 128 159 195 238 286
#     4  10  19  33  51  71  96 127 161 197 238 286
#     4  11  21  33  49  72 100 129 162 200 241 288
#     4   8  16  30  49  71  95 122 154 189 232 282
#     4   9  17  30  47  69  93 120 150 185 227 273
#
# _framework density 17.117887
#
# number of rings (size 3 to 8) (size 9 to 14) (size 15 to 20)
#    0.000    2.333    0.000    5.000    0.000    0.667 
#    0.000    4.167    0.000    1.000    0.000    2.333 
#    0.000    0.000    0.000    0.000    0.000    0.000 
#
# Total GULP energy -892735.869628 kJ/mol
# GULP energy per Si atom -12399.109300 kJ/mol
# Density = 1.707893 g / cm^3
# Si number density = 17.117887 Si / 1000 Ang^3
#
#
#
# Elastic Constant Matrix: (Units=GPa)
#
#
# Indices 1 2 3 4 5 6 
#
# 1 121.1509 68.1691 17.8832 0.0000 0.0000 0.0000
# 2 68.1691 121.1509 17.8832 0.0000 0.0000 0.0000
# 3 17.8832 17.8832 48.8758 0.0000 0.0000 0.0000
# 4 0.0000 0.0000 0.0000 20.8468 0.0000 0.0000
# 5 0.0000 0.0000 0.0000 0.0000 20.8468 0.0000
# 6 0.0000 0.0000 0.0000 0.0000 0.0000 26.4909
#
#
#
# Elastic Compliance Matrix: (Units=1/GPa)
#
#
# Indices 1 2 3 4 5 6 
#
# 1 0.012274 -0.006600 -0.002076 0.000000 0.000000 0.000000
# 2 -0.006600 0.012274 -0.002076 0.000000 0.000000 0.000000
# 3 -0.002076 -0.002076 0.021979 0.000000 0.000000 0.000000
# 4 0.000000 0.000000 0.000000 0.047969 0.000000 0.000000
# 5 0.000000 0.000000 0.000000 0.000000 0.047969 0.000000
# 6 0.000000 0.000000 0.000000 0.000000 0.000000 0.037749
#
#
# Mechanical properties :
#
#
# Convention : Reuss Voigt Hill
#
# Bulk Modulus (GPa) = 39.96283 55.44982 47.70632
# Shear Modulus (GPa) = 23.80266 26.11971 24.96119
#
# Velocity S-wave (km/s) = 3.73300 3.91048 3.82277
# Velocity P-wave (km/s) = 6.47895 7.26996 6.88582
#
# Compressibility (1/GPa) = 0.02502325
#
# Stress axis : x y z
#
# Youngs Moduli (GPa) = 81.47063 81.47063 45.49726
#
# Poissons Ratio (x) = 0.53771 0.09446
# Poissons Ratio (y) = 0.53771 0.09446
# Poissons Ratio (z) = 0.16915 0.16915
#
# Static dielectric constant tensor:
#      x y z
#    x 3.335430 0.000000 0.000000 
#    y 0.000000 3.335430 0.000000 
#    z 0.000000 0.000000 3.103580 
# 
# 
# High freq. dielectric constant tensor:
#      x y z
#    x 1.651480 0.000000 0.000000 
#    y 0.000000 1.651480 0.000000 
#    z 0.000000 0.000000 1.659640 
# 
# From -- ./inp_files/1193.got.cif
#   From: 2010.06.25/outbox.cif.g09.slc.cpg/sg190_1_cif.got.tgz:1193.got - 2010.06.28 13:08:06.
