data_PCOD8327056
_publ_section_title
;
Structure prediction by ZEFSAII (Michael W. Deem and Ramdas Pophale) SiO2 
 PCOD8327056
Probable space group: P -6 M 2
;
_chemical_formula_sum "Si O2"
_cell_formula_units_Z 66
_cell_length_a 12.807676
_cell_length_b 12.807676
_cell_length_c 27.716131
_cell_angle_alpha 90.000000
_cell_angle_beta 90.000000
_cell_angle_gamma 120.000000
_cell_volume 3937.348914
_symmetry_space_group_name_H-M "P -6 M 2"
_symmetry_group_IT_number 187
_symmetry_cell_setting 'hexagonal'
loop_
_space_group_symop_operation_xyz
x,y,z
-x+y,-x,-z
-y,x-y,z
x,y,-z
-x+y,-x,z
-y,x-y,-z
-y,-x,-z
-x+y,y,-z
x,x-y,-z
-x+y,y,z
x,x-y,z
-y,-x,z
loop_
_atom_site_type_symbol
_atom_site_label
_atom_site_fract_x
_atom_site_fract_y
_atom_site_fract_z
Si Si1 0.666406 0.093554 0.670628
Si Si2 0.426323 0.093230 0.780684
Si Si3 0.333348 0.422283 0.137296
Si Si4 0.577946 0.666717 0.412321
Si Si5 0.243833 0.246025 0.500000
Si Si6 0.240704 0.999815 0.054856
O O1 0.567420 0.134840 0.663960
O O2 0.794706 0.205295 0.655288
O O3 0.668599 0.054230 0.725593
O O4 0.634707 0.978373 0.637902
O O5 0.563982 0.127963 0.788622
O O6 0.415937 0.207969 0.795356
O O7 0.337867 0.983781 0.814813
O O8 0.219071 0.438142 0.142276
O O9 0.447759 0.552242 0.131975
O O10 0.328776 0.348541 0.089753
O O11 0.550132 0.775066 0.408284
O O12 0.454009 0.545992 0.424753
O O13 0.674315 0.689608 0.453528
O O14 0.256671 0.128336 0.500000
O O15 0.103066 0.206131 0.500000
O O16 0.102813 0.897188 0.062873
O O17 0.251038 0.125519 0.068270
O O18 0.281792 0.998646 0.000000
#
# Coordination Sequence:
#
# PCOD8327056 Si02
#       6
#    12  12  12  12   6  12
#     4   9  17  30  49  72  96 122 154 195 242 287
#     4   9  17  30  49  71  93 119 154 197 243 287
#     4  10  20  32  46  66  94 128 162 193 227 271
#     4  10  20  33  50  72  99 131 164 196 230 273
#     4  10  20  34  52  72  94 122 158 200 244 288
#     4   9  17  30  49  71  92 115 147 190 238 283
#
# _framework density 16.762547000000001
#
# number of rings (size 3 to 8) (size 9 to 14) (size 15 to 20)
#    0.000    2.545    0.000    2.364    0.000    3.273 
#    0.000    0.909    0.000    6.909    0.000    0.000 
#    0.000    0.000    0.000    0.000    0.000    0.000 
#
# Total GULP energy -818491.271291 kJ/mol
# GULP energy per Si atom -12401.382898 kJ/mol
# Density = 1.672439 g / cm^3
# Si number density = 16.762547 Si / 1000 Ang^3
#
#
#
# Elastic Constant Matrix: (Units=GPa)
#
#
# Indices 1 2 3 4 5 6 
#
# 1 108.4904 64.2587 68.6518 0.0000 0.0002 0.0000
# 2 64.2587 108.4904 68.6518 0.0000 -0.0002 0.0000
# 3 68.6518 68.6518 113.3703 0.0000 0.0000 0.0000
# 4 0.0000 0.0000 0.0000 27.5980 0.0000 -0.0002
# 5 0.0002 -0.0002 0.0000 0.0000 27.5980 0.0000
# 6 0.0000 0.0000 0.0000 -0.0002 0.0000 22.1159
#
#
#
# Elastic Compliance Matrix: (Units=1/GPa)
#
#
# Indices 1 2 3 4 5 6 
#
# 1 0.016884 -0.005724 -0.006758 0.000000 0.000000 0.000000
# 2 -0.005724 0.016884 -0.006758 0.000000 0.000000 0.000000
# 3 -0.006758 -0.006758 0.017005 0.000000 0.000000 0.000000
# 4 0.000000 0.000000 0.000000 0.036235 0.000000 0.000000
# 5 0.000000 0.000000 0.000000 0.000000 0.036235 0.000000
# 6 0.000000 0.000000 0.000000 0.000000 0.000000 0.045216
#
#
# Mechanical properties :
#
#
# Convention : Reuss Voigt Hill
#
# Bulk Modulus (GPa) = 81.34429 81.49731 81.42080
# Shear Modulus (GPa) = 23.69246 24.04827 23.87037
#
# Velocity S-wave (km/s) = 3.76362 3.79178 3.77773
# Velocity P-wave (km/s) = 8.21701 8.23980 8.22841
#
# Compressibility (1/GPa) = 0.01229343
#
# Stress axis : x y z
#
# Youngs Moduli (GPa) = 59.22697 59.22697 58.80470
#
# Poissons Ratio (x) = 0.33902 0.39741
# Poissons Ratio (y) = 0.33902 0.39741
# Poissons Ratio (z) = 0.40026 0.40026
#
# Static dielectric constant tensor:
#      x y z
#    x 3.072600 0.000000 0.000000 
#    y 0.000000 3.072600 0.000000 
#    z 0.000000 0.000000 3.328250 
# 
# 
# High freq. dielectric constant tensor:
#      x y z
#    x 1.643660 0.000000 0.000000 
#    y 0.000000 1.643660 0.000000 
#    z 0.000000 0.000000 1.656230 
# 
# From -- ./inp_files/4447.got.cif
#   From: 2010.03.12/outbox.cif.g09.slc.cpg/sg187_3_cif.got.tgz:4447.got - 2010.04.01 11:58:23.
