data_PCOD8327209
_publ_section_title
;
Structure prediction by ZEFSAII (Michael W. Deem and Ramdas Pophale) SiO2 
 PCOD8327209
Probable space group: P -6 M 2
;
_chemical_formula_sum "Si O2"
_cell_formula_units_Z 60
_cell_length_a 20.509709
_cell_length_b 20.509709
_cell_length_c 9.107796
_cell_angle_alpha 90.000000
_cell_angle_beta 90.000000
_cell_angle_gamma 120.000000
_cell_volume 3317.897179
_symmetry_space_group_name_H-M "P -6 M 2"
_symmetry_group_IT_number 187
_symmetry_cell_setting 'hexagonal'
loop_
_space_group_symop_operation_xyz
x,y,z
-x+y,-x,-z
-y,x-y,z
x,y,-z
-x+y,-x,z
-y,x-y,-z
-y,-x,-z
-x+y,y,-z
x,x-y,-z
-x+y,y,z
x,x-y,z
-y,-x,z
loop_
_atom_site_type_symbol
_atom_site_label
_atom_site_fract_x
_atom_site_fract_y
_atom_site_fract_z
Si Si1 0.128239 0.871762 0.826819
Si Si2 0.332800 0.811128 0.665531
Si Si3 0.081178 0.376127 0.826377
Si Si4 0.592041 0.035814 0.328465
Si Si5 0.903883 0.951942 0.330766
Si Si6 0.666277 0.480397 0.834589
O O1 0.216030 0.912777 0.777111
O O2 0.086220 0.913781 0.762103
O O3 0.123577 0.876423 0.000000
O O4 0.339305 0.843497 0.500000
O O5 0.415006 0.830012 0.720790
O O6 0.278629 0.721372 0.665060
O O7 0.296871 0.845464 0.773956
O O8 0.010106 0.375521 0.754804
O O9 0.075389 0.378224 0.000000
O O10 0.599187 0.027111 0.500000
O O11 0.504978 0.009955 0.286297
O O12 0.645929 0.121352 0.283229
O O13 0.879332 0.939666 0.500000
O O14 0.957457 0.914914 0.298293
O O15 0.748104 0.496207 0.791891
O O16 0.608496 0.391505 0.823803
O O17 0.664876 0.508859 0.000000
#
# Coordination Sequence:
#
# PCOD8327209 Si02
#       6
#     6  12  12  12   6  12
#     4  10  22  38  58  86 116 144 180 224 270 332
#     4  10  20  34  52  75 104 141 186 234 283 332
#     4  11  22  37  54  77 109 143 184 230 277 328
#     4  10  21  36  53  76 106 143 189 233 275 329
#     4   8  18  38  64  94 120 140 170 214 266 332
#     4   9  17  31  53  80 109 142 181 225 273 323
#
# _framework density 18.083742999999998
#
# number of rings (size 3 to 8) (size 9 to 14) (size 15 to 20)
#    0.200    2.000    1.000    2.200    0.000    8.000 
#    0.000    1.000    0.000    3.600    0.000    0.000 
#    0.000    0.000    0.000    0.000    0.000    0.000 
#
# Total GULP energy -743624.218476 kJ/mol
# GULP energy per Si atom -12393.736975 kJ/mol
# Density = 1.804258 g / cm^3
# Si number density = 18.083743 Si / 1000 Ang^3
#
#
#
# Elastic Constant Matrix: (Units=GPa)
#
#
# Indices 1 2 3 4 5 6 
#
# 1 116.0636 62.2788 47.9717 0.0000 -0.0002 0.0000
# 2 62.2788 116.0636 47.9717 0.0000 0.0002 0.0000
# 3 47.9717 47.9717 68.3680 0.0000 0.0000 0.0000
# 4 0.0000 0.0000 0.0000 29.5998 0.0000 0.0002
# 5 -0.0002 0.0002 0.0000 0.0000 29.5998 0.0000
# 6 0.0000 0.0000 0.0000 0.0002 0.0000 26.8924
#
#
#
# Elastic Compliance Matrix: (Units=1/GPa)
#
#
# Indices 1 2 3 4 5 6 
#
# 1 0.013800 -0.004793 -0.006320 0.000000 0.000000 0.000000
# 2 -0.004793 0.013800 -0.006320 0.000000 0.000000 0.000000
# 3 -0.006320 -0.006320 0.023496 0.000000 0.000000 0.000000
# 4 0.000000 0.000000 0.000000 0.033784 0.000000 0.000000
# 5 0.000000 0.000000 0.000000 0.000000 0.033784 0.000000
# 6 0.000000 0.000000 0.000000 0.000000 0.000000 0.037185
#
#
# Mechanical properties :
#
#
# Convention : Reuss Voigt Hill
#
# Bulk Modulus (GPa) = 61.61415 68.54885 65.08150
# Shear Modulus (GPa) = 25.49398 26.70329 26.09863
#
# Velocity S-wave (km/s) = 3.75877 3.84688 3.80308
# Velocity P-wave (km/s) = 7.27896 7.59737 7.43987
#
# Compressibility (1/GPa) = 0.01623004
#
# Stress axis : x y z
#
# Youngs Moduli (GPa) = 72.46418 72.46418 42.56048
#
# Poissons Ratio (x) = 0.34730 0.26899
# Poissons Ratio (y) = 0.34730 0.26899
# Poissons Ratio (z) = 0.45798 0.45798
#
# Static dielectric constant tensor:
#      x y z
#    x 3.317870 0.000000 0.000000 
#    y 0.000000 3.317870 0.000000 
#    z 0.000000 0.000000 3.288110 
# 
# 
# High freq. dielectric constant tensor:
#      x y z
#    x 1.696180 0.000000 0.000000 
#    y 0.000000 1.696180 0.000000 
#    z 0.000000 0.000000 1.699310 
# 
# From -- ./inp_files/685.got.cif
#   From: 2010.03.12/outbox.cif.g09.slc.cpg/sg187_1_cif.got.tgz:685.got - 2010.04.01 11:58:23.
