data_PCOD8327939
_publ_section_title
;
Structure prediction by ZEFSAII (Michael W. Deem and Ramdas Pophale) SiO2 
 PCOD8327939
Probable space group: P -6 2 C
;
_chemical_formula_sum "Si O2"
_cell_formula_units_Z 72
_cell_length_a 17.108666
_cell_length_b 17.108666
_cell_length_c 15.770937
_cell_angle_alpha 90.000000
_cell_angle_beta 90.000000
_cell_angle_gamma 120.000000
_cell_volume 3997.794117
_symmetry_space_group_name_H-M "P -6 2 C"
_symmetry_group_IT_number 190
_symmetry_cell_setting 'hexagonal'
loop_
_space_group_symop_operation_xyz
x,y,z
-x+y,-x,1/2-z
-y,x-y,z
x,y,1/2-z
-x+y,-x,z
-y,x-y,1/2-z
x-y,-y,-z
-x,-x+y,-z
y,x,-z
y,x,1/2+z
x-y,-y,1/2+z
-x,-x+y,1/2+z
loop_
_atom_site_type_symbol
_atom_site_label
_atom_site_fract_x
_atom_site_fract_y
_atom_site_fract_z
Si Si1 0.694178 0.905704 0.655988
Si Si2 0.447159 0.392261 0.084322
Si Si3 0.627354 0.126922 0.844129
Si Si4 0.882572 0.686451 0.656856
Si Si5 0.895647 0.107572 0.498265
Si Si6 0.399772 0.780444 0.995716
O O1 0.683181 0.862162 0.750000
O O2 0.599042 0.891990 0.623921
O O3 0.729755 0.859162 0.588680
O O4 0.763412 0.011177 0.662155
O O5 0.446016 0.465594 0.147547
O O6 0.392810 0.392810 0.000000
O O7 0.549870 0.417272 0.064952
O O8 0.620567 0.157938 0.750000
O O9 0.726090 0.141122 0.863932
O O10 0.605426 0.186353 0.907108
O O11 0.841805 0.689280 0.750000
O O12 0.846942 0.722286 0.579765
O O13 0.000000 0.138201 0.500000
O O14 0.838537 0.000000 0.500000
O O15 0.291555 0.727020 0.980877
#
# Coordination Sequence:
#
# PCOD8327939 Si02
#       6
#    12  12  12  12  12  12
#     4   9  16  27  46  68  85 108 155 211 246 274
#     4   9  15  29  52  73  93 123 166 206 239 288
#     4   9  16  29  53  77  94 121 163 210 252 290
#     4   8  15  28  46  68  88 110 152 207 248 278
#     4  10  18  27  39  59  89 123 155 193 247 306
#     4   9  19  30  45  75 108 133 155 191 250 308
#
# _framework density 18.009931999999999
#
# number of rings (size 3 to 8) (size 9 to 14) (size 15 to 20)
#    0.333    2.667    0.000    5.167    0.000    1.333 
#    0.000    0.000    0.000   18.000    0.000    0.000 
#    0.000    0.000    0.000    0.000    0.000    0.000 
#
# Total GULP energy -891974.728997 kJ/mol
# GULP energy per Si atom -12388.537903 kJ/mol
# Density = 1.796894 g / cm^3
# Si number density = 18.009932 Si / 1000 Ang^3
#
#
#
# Elastic Constant Matrix: (Units=GPa)
#
#
# Indices 1 2 3 4 5 6 
#
# 1 42.8188 4.7910 8.2345 0.0000 0.0000 0.0000
# 2 4.7910 42.8188 8.2345 0.0000 0.0000 0.0000
# 3 8.2345 8.2345 88.0975 0.0000 0.0000 0.0000
# 4 0.0000 0.0000 0.0000 11.0901 0.0000 0.0000
# 5 0.0000 0.0000 0.0000 0.0000 11.0901 0.0000
# 6 0.0000 0.0000 0.0000 0.0000 0.0000 19.0139
#
#
#
# Elastic Compliance Matrix: (Units=1/GPa)
#
#
# Indices 1 2 3 4 5 6 
#
# 1 0.024001 -0.002295 -0.002029 0.000000 0.000000 0.000000
# 2 -0.002295 0.024001 -0.002029 0.000000 0.000000 0.000000
# 3 -0.002029 -0.002029 0.011730 0.000000 0.000000 0.000000
# 4 0.000000 0.000000 0.000000 0.090171 0.000000 0.000000
# 5 0.000000 0.000000 0.000000 0.000000 0.090171 0.000000
# 6 0.000000 0.000000 0.000000 0.000000 0.000000 0.052593
#
#
# Mechanical properties :
#
#
# Convention : Reuss Voigt Hill
#
# Bulk Modulus (GPa) = 21.26449 24.02834 22.64642
# Shear Modulus (GPa) = 15.57396 18.40382 16.98889
#
# Velocity S-wave (km/s) = 2.94384 3.20014 3.07466
# Velocity P-wave (km/s) = 4.83608 5.19858 5.02060
#
# Compressibility (1/GPa) = 0.04702675
#
# Stress axis : x y z
#
# Youngs Moduli (GPa) = 41.66450 41.66450 85.24907
#
# Poissons Ratio (x) = 0.09563 0.17296
# Poissons Ratio (y) = 0.09563 0.17296
# Poissons Ratio (z) = 0.08453 0.08453
#
# Static dielectric constant tensor:
#      x y z
#    x 2.946730 0.000000 0.000000 
#    y 0.000000 2.946730 0.000000 
#    z 0.000000 0.000000 3.775290 
# 
# 
# High freq. dielectric constant tensor:
#      x y z
#    x 1.658110 0.000000 0.000000 
#    y 0.000000 1.658110 0.000000 
#    z 0.000000 0.000000 1.710780 
# 
# From -- ./inp_files/3873.got.cif
#   From: 2010.06.25/outbox.cif.g09.slc.cpg/sg190_2_cif.got.tgz:3873.got - 2010.06.28 13:08:06.
