data_PCOD8327742
_publ_section_title
;
Structure prediction by ZEFSAII (Michael W. Deem and Ramdas Pophale) SiO2 
 PCOD8327742
Probable space group: P -6 2 M
;
_chemical_formula_sum "Si O2"
_cell_formula_units_Z 60
_cell_length_a 20.830198
_cell_length_b 20.830198
_cell_length_c 9.292949
_cell_angle_alpha 90.000000
_cell_angle_beta 90.000000
_cell_angle_gamma 120.000000
_cell_volume 3491.973841
_symmetry_space_group_name_H-M "P -6 2 M"
_symmetry_group_IT_number 189
_symmetry_cell_setting 'hexagonal'
loop_
_space_group_symop_operation_xyz
x,y,z
-x+y,-x,-z
-y,x-y,z
x,y,-z
-x+y,-x,z
-y,x-y,-z
x-y,-y,-z
-x,-x+y,-z
y,x,-z
y,x,z
x-y,-y,z
-x,-x+y,z
loop_
_atom_site_type_symbol
_atom_site_label
_atom_site_fract_x
_atom_site_fract_y
_atom_site_fract_z
Si Si1 0.464482 0.550935 0.832174
Si Si2 0.295745 0.831369 0.331352
Si Si3 0.460676 0.292197 0.166491
Si Si4 0.916155 0.208285 0.332855
Si Si5 0.710111 0.916382 0.832165
O O1 0.505088 0.505088 0.789102
O O2 0.494891 0.623789 0.737578
O O3 0.378212 0.502240 0.794044
O O4 0.476778 0.572282 0.000000
O O5 0.302106 0.820236 0.500000
O O6 0.243560 0.750741 0.260203
O O7 0.261930 0.883887 0.297873
O O8 0.375314 0.261903 0.205230
O O9 0.471044 0.278944 0.000000
O O10 0.910653 0.189621 0.500000
O O11 0.871363 0.131253 0.248788
O O12 0.000000 0.248818 0.276990
O O13 0.756521 0.000000 0.775494
O O14 0.721903 0.911324 0.000000
#
# Coordination Sequence:
#
# PCOD8327742 Si02
#       5
#    12  12  12  12  12
#     4  10  20  34  54  78 102 132 172 215 259 308
#     4  10  20  34  51  73 102 133 167 208 254 300
#     4   9  18  34  53  73  99 131 167 206 250 301
#     4   9  18  32  49  70  98 130 161 195 237 287
#     4   9  17  30  50  75 100 124 154 197 245 289
#
# _framework density 17.182259999999999
#
# number of rings (size 3 to 8) (size 9 to 14) (size 15 to 20)
#    0.000    2.600    0.000    1.800    0.000    6.000 
#    1.200    0.000    0.000    4.000    0.000    0.000 
#    0.000    0.000    0.000    0.000    0.000    0.000 
#
# Total GULP energy -744103.919492 kJ/mol
# GULP energy per Si atom -12401.731992 kJ/mol
# Density = 1.714315 g / cm^3
# Si number density = 17.182260 Si / 1000 Ang^3
#
#
#
# Elastic Constant Matrix: (Units=GPa)
#
#
# Indices 1 2 3 4 5 6 
#
# 1 109.1860 55.7110 47.9565 0.0000 0.0000 0.0000
# 2 55.7110 109.1860 47.9565 0.0000 0.0000 0.0000
# 3 47.9565 47.9565 56.6211 0.0000 0.0000 0.0000
# 4 0.0000 0.0000 0.0000 26.4433 0.0000 0.0000
# 5 0.0000 0.0000 0.0000 0.0000 26.4433 0.0000
# 6 0.0000 0.0000 0.0000 0.0000 0.0000 26.7375
#
#
#
# Elastic Compliance Matrix: (Units=1/GPa)
#
#
# Indices 1 2 3 4 5 6 
#
# 1 0.015327 -0.003374 -0.010124 0.000000 0.000000 0.000000
# 2 -0.003374 0.015327 -0.010124 0.000000 0.000000 0.000000
# 3 -0.010124 -0.010124 0.034810 0.000000 0.000000 0.000000
# 4 0.000000 0.000000 0.000000 0.037817 0.000000 0.000000
# 5 0.000000 0.000000 0.000000 0.000000 0.037817 0.000000
# 6 0.000000 0.000000 0.000000 0.000000 0.000000 0.037401
#
#
# Mechanical properties :
#
#
# Convention : Reuss Voigt Hill
#
# Bulk Modulus (GPa) = 54.88152 64.24903 59.56528
# Shear Modulus (GPa) = 21.56899 24.14943 22.85921
#
# Velocity S-wave (km/s) = 3.54687 3.75305 3.65142
# Velocity P-wave (km/s) = 6.98455 7.50029 7.24701
#
# Compressibility (1/GPa) = 0.01822107
#
# Stress axis : x y z
#
# Youngs Moduli (GPa) = 65.24584 65.24584 28.72701
#
# Poissons Ratio (x) = 0.22012 0.29083
# Poissons Ratio (y) = 0.22012 0.29083
# Poissons Ratio (z) = 0.66054 0.66054
#
# Static dielectric constant tensor:
#      x y z
#    x 3.265940 0.000000 0.000000 
#    y 0.000000 3.265940 0.000000 
#    z 0.000000 0.000000 3.244570 
# 
# 
# High freq. dielectric constant tensor:
#      x y z
#    x 1.660600 0.000000 0.000000 
#    y 0.000000 1.660600 0.000000 
#    z 0.000000 0.000000 1.661480 
# 
# From -- ./inp_files/1918.got.cif
#   From: 2010.03.12/outbox.cif.g09.slc.cpg/sg189_1_cif.got.tgz:1918.got - 2010.04.01 12:03:36.
