data_PCOD8327709
_publ_section_title
;
Structure prediction by ZEFSAII (Michael W. Deem and Ramdas Pophale) SiO2 
 PCOD8327709
Probable space group: P -6 2 M
;
_chemical_formula_sum "Si O2"
_cell_formula_units_Z 78
_cell_length_a 24.178462
_cell_length_b 24.178462
_cell_length_c 8.204938
_cell_angle_alpha 90.000000
_cell_angle_beta 90.000000
_cell_angle_gamma 120.000000
_cell_volume 4153.969266
_symmetry_space_group_name_H-M "P -6 2 M"
_symmetry_group_IT_number 189
_symmetry_cell_setting 'hexagonal'
loop_
_space_group_symop_operation_xyz
x,y,z
-x+y,-x,-z
-y,x-y,z
x,y,-z
-x+y,-x,z
-y,x-y,-z
x-y,-y,-z
-x,-x+y,-z
y,x,-z
y,x,z
x-y,-y,z
-x,-x+y,z
loop_
_atom_site_type_symbol
_atom_site_label
_atom_site_fract_x
_atom_site_fract_y
_atom_site_fract_z
Si Si1 0.616371 0.480035 0.315252
Si Si2 0.612951 0.804565 0.185617
Si Si3 0.303514 0.928041 0.693301
Si Si4 0.591009 0.321272 0.000000
Si Si5 0.927870 0.521010 0.186378
Si Si6 0.289994 0.361527 0.312170
Si Si7 0.740082 0.476673 0.318133
O O1 0.594760 0.480174 0.500000
O O2 0.649608 0.552191 0.244911
O O3 0.553656 0.434066 0.213273
O O4 0.664855 0.452781 0.303349
O O5 0.650672 0.766913 0.228830
O O6 0.656118 0.880530 0.217968
O O7 0.552963 0.778795 0.306993
O O8 0.589405 0.791261 0.000000
O O9 0.297675 0.923832 0.500000
O O10 0.330585 0.000000 0.756234
O O11 0.609969 0.265173 0.000000
O O12 0.552322 0.313849 0.831724
O O13 0.906159 0.563436 0.290526
O O14 0.000000 0.539231 0.233954
O O15 0.923185 0.537168 0.000000
O O16 0.273608 0.346171 0.500000
O O17 0.318382 0.318382 0.239860
O O18 0.753308 0.457425 0.500000
#
# Coordination Sequence:
#
# PCOD8327709 Si02
#       7
#    12  12  12   6  12  12  12
#     4   9  18  31  50  73  97 132 168 206 258 313
#     4  11  21  35  57  80 107 140 174 217 265 319
#     4   9  18  33  53  78 108 141 178 216 257 315
#     4  10  24  40  54  74  96 122 171 222 274 324
#     4  10  20  31  45  70 100 127 159 206 261 313
#     4  10  21  37  55  75 100 133 176 220 264 321
#     4  10  21  39  57  75 100 131 173 216 266 328
#
# _framework density 18.777221000000001
#
# number of rings (size 3 to 8) (size 9 to 14) (size 15 to 20)
#    0.154    2.000    0.769    3.692    1.077    5.231 
#    0.000    1.538    0.000    0.000    0.000    0.000 
#    0.000    0.000    0.000    0.462    0.000    8.923 
#
# Total GULP energy -967043.119055 kJ/mol
# GULP energy per Si atom -12397.988706 kJ/mol
# Density = 1.873448 g / cm^3
# Si number density = 18.777221 Si / 1000 Ang^3
#
#
#
# Elastic Constant Matrix: (Units=GPa)
#
#
# Indices 1 2 3 4 5 6 
#
# 1 69.1230 19.9761 17.2513 0.0000 0.0000 0.0000
# 2 19.9761 69.1230 17.2513 0.0000 0.0000 0.0000
# 3 17.2513 17.2513 92.2093 0.0000 0.0000 0.0000
# 4 0.0000 0.0000 0.0000 21.4851 0.0000 0.0000
# 5 0.0000 0.0000 0.0000 0.0000 21.4851 0.0000
# 6 0.0000 0.0000 0.0000 0.0000 0.0000 24.5734
#
#
#
# Elastic Compliance Matrix: (Units=1/GPa)
#
#
# Indices 1 2 3 4 5 6 
#
# 1 0.016224 -0.004124 -0.002264 0.000000 0.000000 0.000000
# 2 -0.004124 0.016224 -0.002264 0.000000 0.000000 0.000000
# 3 -0.002264 -0.002264 0.011692 0.000000 0.000000 0.000000
# 4 0.000000 0.000000 0.000000 0.046544 0.000000 0.000000
# 5 0.000000 0.000000 0.000000 0.000000 0.046544 0.000000
# 6 0.000000 0.000000 0.000000 0.000000 0.000000 0.040694
#
#
# Mechanical properties :
#
#
# Convention : Reuss Voigt Hill
#
# Bulk Modulus (GPa) = 37.26205 37.71255 37.48730
# Shear Modulus (GPa) = 24.48948 25.24049 24.86499
#
# Velocity S-wave (km/s) = 3.61531 3.67032 3.64292
# Velocity P-wave (km/s) = 6.10857 6.17167 6.14020
#
# Compressibility (1/GPa) = 0.02683695
#
# Stress axis : x y z
#
# Youngs Moduli (GPa) = 61.63848 61.63848 85.52885
#
# Poissons Ratio (x) = 0.25417 0.19362
# Poissons Ratio (y) = 0.25417 0.19362
# Poissons Ratio (z) = 0.13954 0.13954
#
# Static dielectric constant tensor:
#      x y z
#    x 3.372500 0.000000 0.000000 
#    y 0.000000 3.372500 0.000000 
#    z 0.000000 0.000000 3.394390 
# 
# 
# High freq. dielectric constant tensor:
#      x y z
#    x 1.696780 0.000000 0.000000 
#    y 0.000000 1.696780 0.000000 
#    z 0.000000 0.000000 1.738750 
# 
# From -- ./inp_files/1421.got.cif
#   From: 2010.03.12/outbox.cif.g09.slc.cpg/sg189_1_cif.got.tgz:1421.got - 2010.04.01 12:03:36.
