data_PCOD8327261
_publ_section_title
;
Structure prediction by ZEFSAII (Michael W. Deem and Ramdas Pophale) SiO2 
 PCOD8327261
Probable space group: P -6 M 2
;
_chemical_formula_sum "Si O2"
_cell_formula_units_Z 54
_cell_length_a 17.266300
_cell_length_b 17.266300
_cell_length_c 11.950351
_cell_angle_alpha 90.000000
_cell_angle_beta 90.000000
_cell_angle_gamma 120.000000
_cell_volume 3085.388511
_symmetry_space_group_name_H-M "P -6 M 2"
_symmetry_group_IT_number 187
_symmetry_cell_setting 'hexagonal'
loop_
_space_group_symop_operation_xyz
x,y,z
-x+y,-x,-z
-y,x-y,z
x,y,-z
-x+y,-x,z
-y,x-y,-z
-y,-x,-z
-x+y,y,-z
x,x-y,-z
-x+y,y,z
x,x-y,z
-y,-x,z
loop_
_atom_site_type_symbol
_atom_site_label
_atom_site_fract_x
_atom_site_fract_y
_atom_site_fract_z
Si Si1 0.359879 0.458084 0.000000
Si Si2 0.815781 0.000000 0.500000
Si Si3 0.334535 0.334534 0.376408
Si Si4 0.640123 0.541916 0.000000
Si Si5 0.488430 0.158294 0.241246
Si Si6 0.511571 0.841707 0.758754
O O1 0.369844 0.369843 0.000000
O O2 0.309137 0.459676 0.888572
O O3 0.456946 0.543054 0.000000
O O4 0.913213 0.086788 0.500000
O O5 0.826423 0.913212 0.500000
O O6 0.759398 0.000001 0.390279
O O7 0.373460 0.373461 0.500000
O O8 0.404774 0.316896 0.311918
O O9 0.316898 0.404773 0.311916
O O10 0.690865 0.540326 0.111429
O O11 0.543058 0.456943 0.000000
O O12 0.570667 0.141333 0.260431
O O13 0.515589 0.257795 0.281354
O O14 0.429333 0.858665 0.739567
O O15 0.484414 0.742207 0.718646
#
# Coordination Sequence:
#
# PCOD8327261 Si02
#       6
#     6   6  12   6  12  12
#     4   9  17  32  52  77 104 140 184 229 278 327
#     4  10  21  40  63  86 106 132 176 226 277 322
#     4  10  23  38  56  77 111 147 181 220 273 333
#     4   9  17  32  52  77 104 140 184 229 278 327
#     4  11  21  35  55  80 111 146 187 231 276 328
#     4  11  21  35  55  80 111 146 187 231 276 328
#
# _framework density 17.501847999999999
#
# number of rings (size 3 to 8) (size 9 to 14) (size 15 to 20)
#    0.667    1.111    2.222    3.222    0.000    1.778 
#    0.000    2.222    0.000    2.667    0.000    0.000 
#    0.000    0.000    0.000    9.556    0.000    0.000 
#
# Total GULP energy -669286.148149 kJ/mol
# GULP energy per Si atom -12394.187929 kJ/mol
# Density = 1.746201 g / cm^3
# Si number density = 17.501848 Si / 1000 Ang^3
#
#
#
# Elastic Constant Matrix: (Units=GPa)
#
#
# Indices 1 2 3 4 5 6 
#
# 1 121.3535 55.9162 43.4741 0.0000 0.0000 0.0000
# 2 55.9162 121.3535 43.4741 0.0000 0.0000 0.0000
# 3 43.4741 43.4741 107.3068 0.0000 0.0000 0.0000
# 4 0.0000 0.0000 0.0000 17.7188 0.0000 0.0000
# 5 0.0000 0.0000 0.0000 0.0000 17.7188 0.0000
# 6 0.0000 0.0000 0.0000 0.0000 0.0000 32.7187
#
#
#
# Elastic Compliance Matrix: (Units=1/GPa)
#
#
# Indices 1 2 3 4 5 6 
#
# 1 0.011161 -0.004121 -0.002852 0.000000 0.000000 0.000000
# 2 -0.004121 0.011161 -0.002852 0.000000 0.000000 0.000000
# 3 -0.002852 -0.002852 0.011630 0.000000 0.000000 0.000000
# 4 0.000000 0.000000 0.000000 0.056437 0.000000 0.000000
# 5 0.000000 0.000000 0.000000 0.000000 0.056437 0.000000
# 6 0.000000 0.000000 0.000000 0.000000 0.000000 0.030564
#
#
# Mechanical properties :
#
#
# Convention : Reuss Voigt Hill
#
# Bulk Modulus (GPa) = 69.92277 70.63806 70.28041
# Shear Modulus (GPa) = 24.77607 27.44123 26.10865
#
# Velocity S-wave (km/s) = 3.76656 3.96397 3.86653
# Velocity P-wave (km/s) = 7.67817 7.83573 7.75735
#
# Compressibility (1/GPa) = 0.01430149
#
# Stress axis : x y z
#
# Youngs Moduli (GPa) = 89.59820 89.59820 85.98342
#
# Poissons Ratio (x) = 0.36922 0.24524
# Poissons Ratio (y) = 0.36922 0.24524
# Poissons Ratio (z) = 0.25555 0.25555
#
# Static dielectric constant tensor:
#      x y z
#    x 3.139970 0.000000 0.000000 
#    y 0.000000 3.139970 0.000000 
#    z 0.000000 0.000000 3.457110 
# 
# 
# High freq. dielectric constant tensor:
#      x y z
#    x 1.670050 0.000000 0.000000 
#    y 0.000000 1.670050 0.000000 
#    z 0.000000 0.000000 1.674570 
# 
# From -- ./inp_files/1601.got.cif
#   From: 2010.03.12/outbox.cif.g09.slc.cpg/sg187_1_cif.got.tgz:1601.got - 2010.04.01 11:58:23.
