data_PCOD8327627
_publ_section_title
;
Structure prediction by ZEFSAII (Michael W. Deem and Ramdas Pophale) SiO2 
 PCOD8327627
Probable space group: P -6 2 M
;
_chemical_formula_sum "Si O2"
_cell_formula_units_Z 60
_cell_length_a 18.438889
_cell_length_b 18.438889
_cell_length_c 11.683644
_cell_angle_alpha 90.000000
_cell_angle_beta 90.000000
_cell_angle_gamma 120.000000
_cell_volume 3440.158457
_symmetry_space_group_name_H-M "P -6 2 M"
_symmetry_group_IT_number 189
_symmetry_cell_setting 'hexagonal'
loop_
_space_group_symop_operation_xyz
x,y,z
-x+y,-x,-z
-y,x-y,z
x,y,-z
-x+y,-x,z
-y,x-y,-z
x-y,-y,-z
-x,-x+y,-z
y,x,-z
y,x,z
x-y,-y,z
-x,-x+y,z
loop_
_atom_site_type_symbol
_atom_site_label
_atom_site_fract_x
_atom_site_fract_y
_atom_site_fract_z
Si Si1 0.561708 0.461926 0.500000
Si Si2 0.383282 0.900532 0.259212
Si Si3 0.098018 0.762552 0.740310
Si Si4 0.098072 0.336032 0.134545
Si Si5 0.619660 0.099140 0.873935
Si Si6 0.702893 0.098997 0.500000
O O1 0.506858 0.506858 0.500000
O O2 0.623042 0.491380 0.610298
O O3 0.496923 0.360965 0.500000
O O4 0.294410 0.870254 0.199550
O O5 0.431075 0.862563 0.187583
O O6 0.435896 0.000000 0.256567
O O7 0.147922 0.853072 0.802055
O O8 0.124238 0.703185 0.805618
O O9 0.126722 0.764128 0.609531
O O10 0.000000 0.731953 0.750086
O O11 0.000000 0.273074 0.152126
O O12 0.120062 0.351666 0.000000
O O13 0.562548 0.000000 0.879859
O O14 0.644599 0.138290 0.000000
O O15 0.643796 0.000000 0.500000
#
# Coordination Sequence:
#
# PCOD8327627 Si02
#       6
#     6  12  12  12  12   6
#     4   9  14  25  46  73 102 128 154 191 242 301
#     4   9  16  27  45  69  97 127 158 193 243 308
#     4  10  19  32  52  76 101 134 179 226 270 316
#     4  10  21  35  49  71 106 142 176 223 279 325
#     4   9  15  24  43  70  94 118 155 200 243 297
#     4   9  16  29  49  77 107 128 157 211 267 309
#
# _framework density 17.441058000000002
#
# number of rings (size 3 to 8) (size 9 to 14) (size 15 to 20)
#    0.000    2.600    2.000    1.200    0.000    4.400 
#    0.000    1.500    0.000    1.200    0.000    2.800 
#    0.000    0.000    0.000    0.000    0.000    0.000 
#
# Total GULP energy -743646.409278 kJ/mol
# GULP energy per Si atom -12394.106821 kJ/mol
# Density = 1.740136 g / cm^3
# Si number density = 17.441058 Si / 1000 Ang^3
#
#
#
# Elastic Constant Matrix: (Units=GPa)
#
#
# Indices 1 2 3 4 5 6 
#
# 1 60.9139 30.9275 48.6840 0.0000 0.0000 0.0000
# 2 30.9275 60.9139 48.6840 0.0000 0.0000 0.0000
# 3 48.6840 48.6840 177.7808 0.0000 0.0000 0.0000
# 4 0.0000 0.0000 0.0000 23.4145 0.0000 0.0000
# 5 0.0000 0.0000 0.0000 0.0000 23.4145 0.0000
# 6 0.0000 0.0000 0.0000 0.0000 0.0000 14.9932
#
#
#
# Elastic Compliance Matrix: (Units=1/GPa)
#
#
# Indices 1 2 3 4 5 6 
#
# 1 0.024346 -0.009003 -0.004201 0.000000 0.000000 0.000000
# 2 -0.009003 0.024346 -0.004201 0.000000 0.000000 0.000000
# 3 -0.004201 -0.004201 0.007926 0.000000 0.000000 0.000000
# 4 0.000000 0.000000 0.000000 0.042709 0.000000 0.000000
# 5 0.000000 0.000000 0.000000 0.000000 0.042709 0.000000
# 6 0.000000 0.000000 0.000000 0.000000 0.000000 0.066697
#
#
# Mechanical properties :
#
#
# Convention : Reuss Voigt Hill
#
# Bulk Modulus (GPa) = 45.86025 61.79993 53.83009
# Shear Modulus (GPa) = 19.93531 23.78531 21.86031
#
# Velocity S-wave (km/s) = 3.38451 3.69691 3.54415
# Velocity P-wave (km/s) = 6.45172 7.33031 6.90500
#
# Compressibility (1/GPa) = 0.02180538
#
# Stress axis : x y z
#
# Youngs Moduli (GPa) = 41.07532 41.07532 126.16727
#
# Poissons Ratio (x) = 0.36980 0.53009
# Poissons Ratio (y) = 0.36980 0.53009
# Poissons Ratio (z) = 0.17258 0.17258
#
# Static dielectric constant tensor:
#      x y z
#    x 2.935060 0.000000 0.000000 
#    y 0.000000 2.935060 0.000000 
#    z 0.000000 0.000000 3.729980 
# 
# 
# High freq. dielectric constant tensor:
#      x y z
#    x 1.635720 0.000000 0.000000 
#    y 0.000000 1.635720 0.000000 
#    z 0.000000 0.000000 1.700110 
# 
# From -- ./inp_files/1958.got.cif
#   From: 2010.03.12/outbox.cif.g09.slc.cpg/sg189_1_cif.got.tgz:1958.got - 2010.04.01 12:03:36.
