data_PCOD8327534
_publ_section_title
;
Structure prediction by ZEFSAII (Michael W. Deem and Ramdas Pophale) SiO2 
 PCOD8327534
Probable space group: P -6 2 M
;
_chemical_formula_sum "Si O2"
_cell_formula_units_Z 96
_cell_length_a 14.783460
_cell_length_b 14.783460
_cell_length_c 26.306175
_cell_angle_alpha 90.000000
_cell_angle_beta 90.000000
_cell_angle_gamma 120.000000
_cell_volume 4978.981559
_symmetry_space_group_name_H-M "P -6 2 M"
_symmetry_group_IT_number 189
_symmetry_cell_setting 'hexagonal'
loop_
_space_group_symop_operation_xyz
x,y,z
-x+y,-x,-z
-y,x-y,z
x,y,-z
-x+y,-x,z
-y,x-y,-z
x-y,-y,-z
-x,-x+y,-z
y,x,-z
y,x,z
x-y,-y,z
-x,-x+y,z
loop_
_atom_site_type_symbol
_atom_site_label
_atom_site_fract_x
_atom_site_fract_y
_atom_site_fract_z
Si Si1 0.120811 0.879227 0.941942
Si Si2 0.460369 0.576006 0.200300
Si Si3 0.123333 0.736550 0.767983
Si Si4 0.369343 0.122890 0.852285
Si Si5 0.455246 0.271406 0.442349
Si Si6 0.886042 0.115511 0.560346
Si Si7 0.607073 0.487417 0.403094
Si Si8 0.582925 0.699548 0.701939
O O1 0.194803 0.850413 0.908286
O O2 0.000000 0.809167 0.925850
O O3 0.153810 0.000000 0.934131
O O4 0.137364 0.857056 0.000000
O O5 0.492082 0.492082 0.182091
O O6 0.336177 0.506769 0.210730
O O7 0.506303 0.668359 0.156934
O O8 0.512202 0.627103 0.253185
O O9 0.151805 0.822734 0.811851
O O10 0.181158 0.796290 0.715715
O O11 0.000000 0.672002 0.756579
O O12 0.304179 0.000000 0.840695
O O13 0.451680 0.307703 0.500000
O O14 0.340766 0.199780 0.417779
O O15 0.510056 0.370342 0.405316
O O16 0.508998 0.199626 0.443484
O O17 0.887657 0.126211 0.500000
O O18 0.000000 0.196209 0.583029
O O19 0.857996 0.000000 0.576730
O O20 0.568921 0.568921 0.417720
O O21 0.661031 0.511479 0.348120
O O22 0.683744 0.683744 0.695499
#
# Coordination Sequence:
#
# PCOD8327534 Si02
#       8
#    12  12  12  12  12  12  12  12
#     4   9  16  26  44  72 107 147 191 235 277 325
#     4   8  16  31  49  72 102 132 170 221 269 319
#     4  10  18  31  55  81 107 140 179 226 278 333
#     4   9  17  31  48  72 110 148 183 228 280 333
#     4  11  23  38  57  83 111 143 182 217 260 320
#     4   9  17  31  53  80 107 134 167 207 249 295
#     4  11  24  41  61  82 111 147 180 224 274 323
#     4   9  20  38  56  79 110 139 174 218 271 330
#
# _framework density 19.281051999999999
#
# number of rings (size 3 to 8) (size 9 to 14) (size 15 to 20)
#    0.000    2.500    0.000    3.125    1.750    3.000 
#    6.000    0.625    0.000    3.500    0.000    3.500 
#    0.000    0.000    0.000    0.000    0.000    0.000 
#
# Total GULP energy -1189484.156004 kJ/mol
# GULP energy per Si atom -12390.459958 kJ/mol
# Density = 1.923717 g / cm^3
# Si number density = 19.281052 Si / 1000 Ang^3
#
#
#
# Elastic Constant Matrix: (Units=GPa)
#
#
# Indices 1 2 3 4 5 6 
#
# 1 105.4059 49.3439 42.0365 0.0000 0.0000 0.0000
# 2 49.3439 105.4059 42.0365 0.0000 0.0000 0.0000
# 3 42.0365 42.0365 81.6165 0.0000 0.0000 0.0000
# 4 0.0000 0.0000 0.0000 20.9577 0.0000 0.0000
# 5 0.0000 0.0000 0.0000 0.0000 20.9577 0.0000
# 6 0.0000 0.0000 0.0000 0.0000 0.0000 28.0310
#
#
#
# Elastic Compliance Matrix: (Units=1/GPa)
#
#
# Indices 1 2 3 4 5 6 
#
# 1 0.013405 -0.004432 -0.004621 0.000000 0.000000 0.000000
# 2 -0.004432 0.013405 -0.004621 0.000000 0.000000 0.000000
# 3 -0.004621 -0.004621 0.017013 0.000000 0.000000 0.000000
# 4 0.000000 0.000000 0.000000 0.047715 0.000000 0.000000
# 5 0.000000 0.000000 0.000000 0.000000 0.047715 0.000000
# 6 0.000000 0.000000 0.000000 0.000000 0.000000 0.035675
#
#
# Mechanical properties :
#
#
# Convention : Reuss Voigt Hill
#
# Bulk Modulus (GPa) = 60.70607 62.14023 61.42315
# Shear Modulus (GPa) = 24.06514 24.59004 24.32759
#
# Velocity S-wave (km/s) = 3.53671 3.57508 3.55595
# Velocity P-wave (km/s) = 6.94485 7.02426 6.98467
#
# Compressibility (1/GPa) = 0.01647282
#
# Stress axis : x y z
#
# Youngs Moduli (GPa) = 74.59852 74.59852 58.77881
#
# Poissons Ratio (x) = 0.33064 0.27164
# Poissons Ratio (y) = 0.33064 0.27164
# Poissons Ratio (z) = 0.34475 0.34475
#
# Static dielectric constant tensor:
#      x y z
#    x 3.647010 0.000000 0.000000 
#    y 0.000000 3.647010 0.000000 
#    z 0.000000 0.000000 3.369110 
# 
# 
# High freq. dielectric constant tensor:
#      x y z
#    x 1.748790 0.000000 0.000000 
#    y 0.000000 1.748790 0.000000 
#    z 0.000000 0.000000 1.719140 
# 
# From -- ./inp_files/3721.got.cif
#   From: 2010.03.12/outbox.cif.g09.slc.cpg/sg189_2_cif.got.tgz:3721.got - 2010.04.01 12:03:36.
