data_PCOD8327997
_publ_section_title
;
Structure prediction by ZEFSAII (Michael W. Deem and Ramdas Pophale) SiO2 
 PCOD8327997
Probable space group: P -6 2 C
;
_chemical_formula_sum "Si O2"
_cell_formula_units_Z 78
_cell_length_a 24.678839
_cell_length_b 24.678839
_cell_length_c 8.177349
_cell_angle_alpha 90.000000
_cell_angle_beta 90.000000
_cell_angle_gamma 120.000000
_cell_volume 4313.130659
_symmetry_space_group_name_H-M "P -6 2 C"
_symmetry_group_IT_number 190
_symmetry_cell_setting 'hexagonal'
loop_
_space_group_symop_operation_xyz
x,y,z
-x+y,-x,1/2-z
-y,x-y,z
x,y,1/2-z
-x+y,-x,z
-y,x-y,1/2-z
x-y,-y,-z
-x,-x+y,-z
y,x,-z
y,x,1/2+z
x-y,-y,1/2+z
-x,-x+y,1/2+z
loop_
_atom_site_type_symbol
_atom_site_label
_atom_site_fract_x
_atom_site_fract_y
_atom_site_fract_z
Si Si1 0.808531 0.184717 0.432988
Si Si2 0.068520 0.360590 0.941075
Si Si3 0.522459 0.265643 0.430508
Si Si4 0.723378 0.313349 0.750000
Si Si5 0.521126 0.588179 0.440663
Si Si6 0.137743 0.621410 0.440587
Si Si7 0.380225 0.312000 0.444517
O O1 0.817863 0.167627 0.250000
O O2 0.877381 0.225199 0.518466
O O3 0.782578 0.232359 0.433314
O O4 0.757157 0.119356 0.517231
O O5 0.071179 0.353732 0.750000
O O6 0.084915 0.431221 0.976275
O O7 0.000000 0.308839 0.000000
O O8 0.549973 0.263345 0.250000
O O9 0.552234 0.246805 0.582071
O O10 0.534577 0.335524 0.454182
O O11 0.648290 0.264099 0.750000
O O12 0.533901 0.598012 0.250000
O O13 0.533604 0.533604 0.500000
O O14 0.449918 0.566861 0.485415
O O15 0.152892 0.635506 0.250000
O O16 0.082185 0.635558 0.484394
O O17 0.385648 0.311711 0.250000
O O18 0.326564 0.326564 0.500000
#
# Coordination Sequence:
#
# PCOD8327997 Si02
#       7
#    12  12  12   6  12  12  12
#     4   8  18  35  54  74  99 134 168 204 250 312
#     4  10  19  34  51  72  99 126 167 209 251 307
#     4  10  20  38  57  74  97 129 170 209 264 321
#     4  10  24  40  52  72  98 124 166 226 256 314
#     4  10  20  31  44  67  96 123 157 201 250 300
#     4  10  19  32  50  73 101 129 164 210 258 309
#     4  10  19  32  50  75 103 134 171 208 255 307
#
# _framework density 18.084313000000002
#
# number of rings (size 3 to 8) (size 9 to 14) (size 15 to 20)
#    0.154    2.154    0.769    4.154    0.000    5.538 
#    2.769    1.538    0.000    0.000    0.000    0.000 
#    0.000    0.000    0.000    0.462    0.000    5.538 
#
# Total GULP energy -966435.687569 kJ/mol
# GULP energy per Si atom -12390.201123 kJ/mol
# Density = 1.804315 g / cm^3
# Si number density = 18.084313 Si / 1000 Ang^3
#
#
#
# Elastic Constant Matrix: (Units=GPa)
#
#
# Indices 1 2 3 4 5 6 
#
# 1 73.6237 35.4033 19.0162 0.0000 0.0000 0.0000
# 2 35.4033 73.6237 19.0162 0.0000 0.0000 0.0000
# 3 19.0162 19.0162 77.2879 0.0000 0.0000 0.0000
# 4 0.0000 0.0000 0.0000 14.8919 0.0000 0.0000
# 5 0.0000 0.0000 0.0000 0.0000 14.8919 0.0000
# 6 0.0000 0.0000 0.0000 0.0000 0.0000 19.1102
#
#
#
# Elastic Compliance Matrix: (Units=1/GPa)
#
#
# Indices 1 2 3 4 5 6 
#
# 1 0.018099 -0.008065 -0.002469 0.000000 0.000000 0.000000
# 2 -0.008065 0.018099 -0.002469 0.000000 0.000000 0.000000
# 3 -0.002469 -0.002469 0.014153 0.000000 0.000000 0.000000
# 4 0.000000 0.000000 0.000000 0.067150 0.000000 0.000000
# 5 0.000000 0.000000 0.000000 0.000000 0.067150 0.000000
# 6 0.000000 0.000000 0.000000 0.000000 0.000000 0.052328
#
#
# Mechanical properties :
#
#
# Convention : Reuss Voigt Hill
#
# Bulk Modulus (GPa) = 41.07557 41.26738 41.17148
# Shear Modulus (GPa) = 18.44339 19.85213 19.14776
#
# Velocity S-wave (km/s) = 3.19698 3.31683 3.25746
# Velocity P-wave (km/s) = 6.03244 6.12678 6.07979
#
# Compressibility (1/GPa) = 0.02434537
#
# Stress axis : x y z
#
# Youngs Moduli (GPa) = 55.25287 55.25287 70.65436
#
# Poissons Ratio (x) = 0.44564 0.17442
# Poissons Ratio (y) = 0.44564 0.17442
# Poissons Ratio (z) = 0.13640 0.13640
#
# Static dielectric constant tensor:
#      x y z
#    x 3.607090 0.000000 0.000000 
#    y 0.000000 3.607090 0.000000 
#    z 0.000000 0.000000 3.414860 
# 
# 
# High freq. dielectric constant tensor:
#      x y z
#    x 1.675940 0.000000 0.000000 
#    y 0.000000 1.675940 0.000000 
#    z 0.000000 0.000000 1.703430 
# 
# From -- ./inp_files/1440.got.cif
#   From: 2010.06.25/outbox.cif.g09.slc.cpg/sg190_1_cif.got.tgz:1440.got - 2010.06.28 13:08:06.
