data_PCOD8327835
_publ_section_title
;
Structure prediction by ZEFSAII (Michael W. Deem and Ramdas Pophale) SiO2 
 PCOD8327835
Probable space group: P -6 2 M
;
_chemical_formula_sum "Si O2"
_cell_formula_units_Z 66
_cell_length_a 23.427050
_cell_length_b 23.427050
_cell_length_c 7.741668
_cell_angle_alpha 90.000000
_cell_angle_beta 90.000000
_cell_angle_gamma 120.000000
_cell_volume 3679.598078
_symmetry_space_group_name_H-M "P -6 2 M"
_symmetry_group_IT_number 189
_symmetry_cell_setting 'hexagonal'
loop_
_space_group_symop_operation_xyz
x,y,z
-x+y,-x,-z
-y,x-y,z
x,y,-z
-x+y,-x,z
-y,x-y,-z
x-y,-y,-z
-x,-x+y,-z
y,x,-z
y,x,z
x-y,-y,z
-x,-x+y,z
loop_
_atom_site_type_symbol
_atom_site_label
_atom_site_fract_x
_atom_site_fract_y
_atom_site_fract_z
Si Si1 0.922042 0.845825 0.000000
Si Si2 0.590146 0.191014 0.200003
Si Si3 0.145230 0.389839 0.300643
Si Si4 0.076439 0.242128 0.299937
Si Si5 0.073031 0.464275 0.704806
Si Si6 0.483948 0.748677 0.794830
O O1 0.895126 0.802689 0.174656
O O2 0.902437 0.902437 0.000000
O O3 0.000000 0.878652 0.000000
O O4 0.540133 0.114023 0.234358
O O5 0.661194 0.211133 0.281966
O O6 0.558422 0.232692 0.280773
O O7 0.601981 0.207748 0.000000
O O8 0.127596 0.379240 0.500000
O O9 0.120731 0.316880 0.227378
O O10 0.105191 0.422698 0.215416
O O11 0.223083 0.440091 0.269326
O O12 0.093179 0.234325 0.500000
O O13 0.000000 0.221880 0.283788
O O14 0.072513 0.461029 0.500000
O O15 0.000000 0.434392 0.780713
O O16 0.484725 0.748445 0.000000
#
# Coordination Sequence:
#
# PCOD8327835 Si02
#       6
#     6  12  12  12  12  12
#     4  10  21  36  56  82 110 138 168 200 238 286
#     4   9  17  29  43  63  89 120 155 192 236 285
#     4   9  17  29  47  71  96 123 157 198 244 292
#     4   9  18  33  53  78 108 138 166 201 248 299
#     4   9  17  29  45  65  91 121 150 187 238 288
#     4   9  17  28  44  64  91 124 159 200 246 293
#
# _framework density 17.936741999999999
#
# number of rings (size 3 to 8) (size 9 to 14) (size 15 to 20)
#    0.000    2.909    0.000    1.000    1.273    5.091 
#    0.000    0.000    0.000    4.364    0.000    0.000 
#    0.000    0.000    0.000    0.000    0.000    0.000 
#
# Total GULP energy -818020.588264 kJ/mol
# GULP energy per Si atom -12394.251337 kJ/mol
# Density = 1.789592 g / cm^3
# Si number density = 17.936742 Si / 1000 Ang^3
#
#
#
# Elastic Constant Matrix: (Units=GPa)
#
#
# Indices 1 2 3 4 5 6 
#
# 1 136.4542 76.8220 25.9751 0.0000 0.0000 0.0000
# 2 76.8220 136.4542 25.9751 0.0000 0.0000 0.0000
# 3 25.9751 25.9751 43.1020 0.0000 0.0000 0.0000
# 4 0.0000 0.0000 0.0000 20.9032 0.0000 0.0000
# 5 0.0000 0.0000 0.0000 0.0000 20.9032 0.0000
# 6 0.0000 0.0000 0.0000 0.0000 0.0000 29.8161
#
#
#
# Elastic Compliance Matrix: (Units=1/GPa)
#
#
# Indices 1 2 3 4 5 6 
#
# 1 0.011132 -0.005637 -0.003312 0.000000 0.000000 0.000000
# 2 -0.005637 0.011132 -0.003312 0.000000 0.000000 0.000000
# 3 -0.003312 -0.003312 0.027192 0.000000 0.000000 0.000000
# 4 0.000000 0.000000 0.000000 0.047840 0.000000 0.000000
# 5 0.000000 0.000000 0.000000 0.000000 0.047840 0.000000
# 6 0.000000 0.000000 0.000000 0.000000 0.000000 0.033539
#
#
# Mechanical properties :
#
#
# Convention : Reuss Voigt Hill
#
# Bulk Modulus (GPa) = 40.10238 63.72831 51.91534
# Shear Modulus (GPa) = 23.63967 26.80702 25.22334
#
# Velocity S-wave (km/s) = 3.63429 3.87011 3.75405
# Velocity P-wave (km/s) = 6.32590 7.45500 6.91353
#
# Compressibility (1/GPa) = 0.02493617
#
# Stress axis : x y z
#
# Youngs Moduli (GPa) = 89.82738 89.82738 36.77491
#
# Poissons Ratio (x) = 0.50636 0.12179
# Poissons Ratio (y) = 0.50636 0.12179
# Poissons Ratio (z) = 0.29749 0.29749
#
# Static dielectric constant tensor:
#      x y z
#    x 3.333270 0.000000 0.000000 
#    y 0.000000 3.333270 0.000000 
#    z 0.000000 0.000000 3.181670 
# 
# 
# High freq. dielectric constant tensor:
#      x y z
#    x 1.677760 0.000000 0.000000 
#    y 0.000000 1.677760 0.000000 
#    z 0.000000 0.000000 1.687790 
# 
# From -- ./inp_files/1021.got.cif
#   From: 2010.03.12/outbox.cif.g09.slc.cpg/sg189_1_cif.got.tgz:1021.got - 2010.04.01 12:03:36.
