data_PCOD8327202
_publ_section_title
;
Structure prediction by ZEFSAII (Michael W. Deem and Ramdas Pophale) SiO2 
 PCOD8327202
Probable space group: P -6 M 2
;
_chemical_formula_sum "Si O2"
_cell_formula_units_Z 72
_cell_length_a 12.369051
_cell_length_b 12.369051
_cell_length_c 30.933032
_cell_angle_alpha 90.000000
_cell_angle_beta 90.000000
_cell_angle_gamma 120.000000
_cell_volume 4098.508904
_symmetry_space_group_name_H-M "P -6 M 2"
_symmetry_group_IT_number 187
_symmetry_cell_setting 'hexagonal'
loop_
_space_group_symop_operation_xyz
x,y,z
-x+y,-x,-z
-y,x-y,z
x,y,-z
-x+y,-x,z
-y,x-y,-z
-y,-x,-z
-x+y,y,-z
x,x-y,-z
-x+y,y,z
x,x-y,z
-y,-x,z
loop_
_atom_site_type_symbol
_atom_site_label
_atom_site_fract_x
_atom_site_fract_y
_atom_site_fract_z
Si Si1 0.665684 0.079904 0.834418
Si Si2 0.079291 0.412881 0.917549
Si Si3 0.666626 0.585841 0.331949
Si Si4 0.253875 0.001766 0.416134
Si Si5 0.411849 0.079980 0.500000
Si Si6 0.334862 0.919625 0.751620
Si Si7 0.254243 0.999953 0.000000
O O1 0.557649 0.115298 0.835693
O O2 0.795617 0.204384 0.838532
O O3 0.653509 0.990409 0.873658
O O4 0.663056 0.012629 0.789969
O O5 0.215793 0.431585 0.916326
O O6 0.094548 0.547274 0.922926
O O7 0.000370 0.329386 0.957778
O O8 0.789581 0.579161 0.321806
O O9 0.554179 0.445821 0.337134
O O10 0.678411 0.660548 0.375312
O O11 0.644062 0.657704 0.293329
O O12 0.131035 0.868966 0.413754
O O13 0.214177 0.107089 0.417304
O O14 0.331162 0.008403 0.458397
O O15 0.537156 0.074311 0.500000
O O16 0.448391 0.224196 0.500000
O O17 0.440105 0.880210 0.754910
O O18 0.202128 0.797873 0.755644
O O19 0.245933 0.122967 0.000000
O O20 0.115354 0.884647 0.000000
#
# Coordination Sequence:
#
# PCOD8327202 Si02
#       7
#    12  12  12  12   6  12   6
#     4  10  20  34  53  76 103 135 170 210 254 301
#     4  10  20  34  54  78 104 134 168 209 254 301
#     4  10  20  34  54  78 104 134 168 209 254 301
#     4  10  20  34  53  76 103 135 170 208 250 298
#     4  10  20  34  54  78 104 134 168 210 256 302
#     4  10  20  34  53  76 103 135 170 209 252 300
#     4  10  20  34  52  74 102 136 172 208 248 296
#
# _framework density 17.567364999999999
#
# number of rings (size 3 to 8) (size 9 to 14) (size 15 to 20)
#    0.000    2.000    0.000    4.000    0.000    0.000 
#    0.000    6.667    0.000   16.000    0.000    0.000 
#    0.000    0.000    0.000    0.000    0.000    0.000 
#
# Total GULP energy -893105.950277 kJ/mol
# GULP energy per Si atom -12404.249309 kJ/mol
# Density = 1.752738 g / cm^3
# Si number density = 17.567365 Si / 1000 Ang^3
#
#
#
# Elastic Constant Matrix: (Units=GPa)
#
#
# Indices 1 2 3 4 5 6 
#
# 1 51.5916 26.0712 11.0372 0.0000 0.0010 0.0000
# 2 26.0712 51.5916 11.0372 0.0000 -0.0010 0.0000
# 3 11.0372 11.0372 91.9884 0.0000 0.0000 0.0000
# 4 0.0000 0.0000 0.0000 22.5289 0.0000 -0.0010
# 5 0.0010 -0.0010 0.0000 0.0000 22.5289 0.0000
# 6 0.0000 0.0000 0.0000 -0.0010 0.0000 12.7602
#
#
#
# Elastic Compliance Matrix: (Units=1/GPa)
#
#
# Indices 1 2 3 4 5 6 
#
# 1 0.026258 -0.012927 -0.001599 0.000000 -0.000002 0.000000
# 2 -0.012927 0.026258 -0.001599 0.000000 0.000002 0.000000
# 3 -0.001599 -0.001599 0.011255 0.000000 0.000000 0.000000
# 4 0.000000 0.000000 0.000000 0.044387 0.000000 0.000004
# 5 -0.000002 0.000002 0.000000 0.000000 0.044387 0.000000
# 6 0.000000 0.000000 0.000000 0.000004 0.000000 0.078369
#
#
# Mechanical properties :
#
#
# Convention : Reuss Voigt Hill
#
# Bulk Modulus (GPa) = 31.72749 32.38476 32.05612
# Shear Modulus (GPa) = 18.27010 21.36535 19.81773
#
# Velocity S-wave (km/s) = 3.22841 3.49118 3.36236
# Velocity P-wave (km/s) = 5.65654 5.89286 5.77591
#
# Compressibility (1/GPa) = 0.03151841
#
# Stress axis : x y z
#
# Youngs Moduli (GPa) = 38.08422 38.08422 88.85130
#
# Poissons Ratio (x) = 0.49231 0.14212
# Poissons Ratio (y) = 0.49231 0.14212
# Poissons Ratio (z) = 0.06092 0.06092
#
# Static dielectric constant tensor:
#      x y z
#    x 3.215300 0.000000 0.000000 
#    y 0.000000 3.215300 0.000000 
#    z 0.000000 0.000000 1.796500 
# 
# 
# High freq. dielectric constant tensor:
#      x y z
#    x 1.681290 0.000000 0.000000 
#    y 0.000000 1.681290 0.000000 
#    z 0.000000 0.000000 1.701790 
# 
# From -- ./inp_files/4527.got.cif
#   From: 2010.03.12/outbox.cif.g09.slc.cpg/sg187_3_cif.got.tgz:4527.got - 2010.04.01 11:58:23.
