data_PCOD8327301
_publ_section_title
;
Structure prediction by ZEFSAII (Michael W. Deem and Ramdas Pophale) SiO2 
 PCOD8327301
Probable space group: P -6 M 2
;
_chemical_formula_sum "Si O2"
_cell_formula_units_Z 84
_cell_length_a 23.945262
_cell_length_b 23.945262
_cell_length_c 9.530788
_cell_angle_alpha 90.000000
_cell_angle_beta 90.000000
_cell_angle_gamma 120.000000
_cell_volume 4732.587231
_symmetry_space_group_name_H-M "P -6 M 2"
_symmetry_group_IT_number 187
_symmetry_cell_setting 'hexagonal'
loop_
_space_group_symop_operation_xyz
x,y,z
-x+y,-x,-z
-y,x-y,z
x,y,-z
-x+y,-x,z
-y,x-y,-z
-y,-x,-z
-x+y,y,-z
x,x-y,-z
-x+y,y,z
x,x-y,z
-y,-x,z
loop_
_atom_site_type_symbol
_atom_site_label
_atom_site_fract_x
_atom_site_fract_y
_atom_site_fract_z
Si Si1 0.999866 0.872214 0.338920
Si Si2 0.413947 0.270220 0.164978
Si Si3 0.522940 0.919387 0.164978
Si Si4 0.539015 0.205547 0.661080
Si Si5 1.000000 0.333333 0.165692
Si Si6 0.189606 0.252720 0.835022
Si Si7 0.333199 0.794319 0.661080
O O1 0.998916 0.851804 0.500000
O O2 0.053559 0.946442 0.315907
O O3 0.013289 0.826082 0.241650
O O4 0.931832 0.863663 0.292741
O O5 0.392449 0.196225 0.204391
O O6 0.479459 0.320045 0.241651
O O7 0.359364 0.286197 0.218292
O O8 0.426544 0.282192 0.000000
O O9 0.470443 0.940885 0.204393
O O10 0.593501 0.973970 0.218292
O O11 0.507253 0.853875 0.241649
O O12 0.522315 0.906791 0.000000
O O13 0.519556 0.185137 0.500000
O O14 0.598499 0.196997 0.707263
O O15 0.559549 0.279775 0.684093
O O16 0.047136 0.307303 0.218293
O O17 0.000000 0.333333 0.000000
O O18 0.137110 0.274219 0.795609
O O19 0.188982 0.240124 0.000000
O O20 0.332250 0.813780 0.500000
O O21 0.386893 0.773785 0.684093
O O22 0.265166 0.734835 0.707257
#
# Coordination Sequence:
#
# PCOD8327301 Si02
#       7
#    12  12  12  12  12  12  12
#     4   9  17  30  48  70  97 128 159 192 234 282
#     4   9  18  32  49  70  95 123 158 197 233 274
#     4   9  18  32  49  70  95 123 158 197 233 274
#     4   9  17  30  48  70  97 128 159 192 234 282
#     4   9  18  33  52  71  94 126 157 188 235 288
#     4   9  18  32  49  70  95 123 158 197 233 274
#     4   9  17  30  48  70  97 128 159 192 234 282
#
# _framework density 17.749276999999999
#
# number of rings (size 3 to 8) (size 9 to 14) (size 15 to 20)
#    0.000    3.000    0.000    0.429    0.000    4.286 
#    0.000    6.429    0.000    7.714    0.000    0.000 
#    0.000    0.000    0.000    0.000    0.000    0.000 
#
# Total GULP energy -1041407.119784 kJ/mol
# GULP energy per Si atom -12397.703807 kJ/mol
# Density = 1.770888 g / cm^3
# Si number density = 17.749277 Si / 1000 Ang^3
#
#
#
# Elastic Constant Matrix: (Units=GPa)
#
#
# Indices 1 2 3 4 5 6 
#
# 1 133.9671 83.7037 34.5103 0.0000 -0.0002 0.0000
# 2 83.7037 133.9671 34.5103 0.0000 0.0002 0.0000
# 3 34.5103 34.5103 33.7514 0.0000 0.0000 0.0000
# 4 0.0000 0.0000 0.0000 21.1208 0.0000 0.0002
# 5 -0.0002 0.0002 0.0000 0.0000 21.1208 0.0000
# 6 0.0000 0.0000 0.0000 0.0002 0.0000 25.1317
#
#
#
# Elastic Compliance Matrix: (Units=1/GPa)
#
#
# Indices 1 2 3 4 5 6 
#
# 1 0.013347 -0.006549 -0.006951 0.000000 0.000000 0.000000
# 2 -0.006549 0.013347 -0.006951 0.000000 0.000000 0.000000
# 3 -0.006951 -0.006951 0.043843 0.000000 0.000000 0.000000
# 4 0.000000 0.000000 0.000000 0.047347 0.000000 0.000000
# 5 0.000000 0.000000 0.000000 0.000000 0.047347 0.000000
# 6 0.000000 0.000000 0.000000 0.000000 0.000000 0.039790
#
#
# Mechanical properties :
#
#
# Convention : Reuss Voigt Hill
#
# Bulk Modulus (GPa) = 33.74359 67.45935 50.60147
# Shear Modulus (GPa) = 19.54656 23.40543 21.47599
#
# Velocity S-wave (km/s) = 3.32212 3.63529 3.48223
# Velocity P-wave (km/s) = 5.81101 7.46390 6.68871
#
# Compressibility (1/GPa) = 0.02963526
#
# Stress axis : x y z
#
# Youngs Moduli (GPa) = 74.92496 74.92496 22.80867
#
# Poissons Ratio (x) = 0.49065 0.15854
# Poissons Ratio (y) = 0.49065 0.15854
# Poissons Ratio (z) = 0.52080 0.52080
#
# Static dielectric constant tensor:
#      x y z
#    x 3.438710 0.000000 0.000000 
#    y 0.000000 3.438710 0.000000 
#    z 0.000000 0.000000 3.139960 
# 
# 
# High freq. dielectric constant tensor:
#      x y z
#    x 1.685360 0.000000 0.000000 
#    y 0.000000 1.685360 0.000000 
#    z 0.000000 0.000000 1.667650 
# 
# From -- ./inp_files/1861.got.cif
#   From: 2010.03.12/outbox.cif.g09.slc.cpg/sg187_1_cif.got.tgz:1861.got - 2010.04.01 11:58:23.
