data_PCOD8327422
_publ_section_title
;
Structure prediction by ZEFSAII (Michael W. Deem and Ramdas Pophale) SiO2 
 PCOD8327422
Probable space group: P -6 C 2
;
_chemical_formula_sum "Si O2"
_cell_formula_units_Z 46
_cell_length_a 13.440433
_cell_length_b 13.440433
_cell_length_c 13.115763
_cell_angle_alpha 90.000000
_cell_angle_beta 90.000000
_cell_angle_gamma 120.000000
_cell_volume 2051.874115
_symmetry_space_group_name_H-M "P -6 C 2"
_symmetry_group_IT_number 188
_symmetry_cell_setting 'hexagonal'
loop_
_space_group_symop_operation_xyz
x,y,z
-x+y,-x,1/2-z
-y,x-y,z
x,y,1/2-z
-x+y,-x,z
-y,x-y,1/2-z
-y,-x,-z
-x+y,y,-z
x,x-y,-z
-x+y,y,1/2+z
x,x-y,1/2+z
-y,-x,1/2+z
loop_
_atom_site_type_symbol
_atom_site_label
_atom_site_fract_x
_atom_site_fract_y
_atom_site_fract_z
Si Si1 0.750732 0.161426 0.860968
Si Si2 0.666668 0.333335 0.618131
Si Si3 0.059607 0.466181 0.128591
Si Si4 0.201812 0.403624 0.000000
Si Si5 0.662367 0.002179 0.371958
O O1 0.780032 0.131312 0.750000
O O2 0.685071 0.231987 0.841789
O O3 0.872595 0.241892 0.918077
O O4 0.659752 0.040418 0.912780
O O5 0.666668 0.333334 0.500000
O O6 0.075822 0.468143 0.250000
O O7 0.174326 0.485890 0.071449
O O8 0.026591 0.561111 0.095615
O O9 0.224206 0.320767 0.075267
O O10 0.673222 0.000003 0.250000
#
# Coordination Sequence:
#
# PCOD8327422 Si02
#       5
#    12   4  12   6  12
#     4  10  20  38  64  95 131 161 187 237 313 387
#     4  12  22  26  58 105 145 155 178 219 307 410
#     4  10  22  40  64  92 122 161 205 251 310 372
#     4  12  24  38  56  76 124 168 212 250 290 338
#     4  10  22  40  64  92 122 161 205 251 310 372
#
# _framework density 22.418527000000001
#
# number of rings (size 3 to 8) (size 9 to 14) (size 15 to 20)
#    0.000    1.565    2.609    2.348    3.652    0.000 
#    6.261    0.000    0.000    4.174    0.000    7.304 
#    0.000    0.000    0.000    0.000    0.000    0.000 
#
# Total GULP energy -570102.709559 kJ/mol
# GULP energy per Si atom -12393.537164 kJ/mol
# Density = 2.236750 g / cm^3
# Si number density = 22.418527 Si / 1000 Ang^3
#
#
#
# Elastic Constant Matrix: (Units=GPa)
#
#
# Indices 1 2 3 4 5 6 
#
# 1 128.8033 55.9504 42.2010 0.0000 0.0000 0.0002
# 2 55.9504 128.8040 42.2008 0.0001 0.0000 0.0002
# 3 42.2010 42.2008 55.1397 -0.0002 0.0000 0.0000
# 4 0.0000 0.0001 -0.0002 34.5206 0.0001 0.0000
# 5 0.0000 0.0000 0.0000 0.0001 34.5203 -0.0001
# 6 0.0002 0.0002 0.0000 0.0000 -0.0001 36.4263
#
#
#
# Elastic Compliance Matrix: (Units=1/GPa)
#
#
# Indices 1 2 3 4 5 6 
#
# 1 0.011024 -0.002702 -0.006370 0.000000 0.000000 0.000000
# 2 -0.002702 0.011024 -0.006369 0.000000 0.000000 0.000000
# 3 -0.006370 -0.006369 0.027885 0.000000 0.000000 0.000000
# 4 0.000000 0.000000 0.000000 0.028968 0.000000 0.000000
# 5 0.000000 0.000000 0.000000 0.000000 0.028968 0.000000
# 6 0.000000 0.000000 0.000000 0.000000 0.000000 0.027453
#
#
# Mechanical properties :
#
#
# Convention : Reuss Voigt Hill
#
# Bulk Modulus (GPa) = 52.48721 65.93903 59.21312
# Shear Modulus (GPa) = 28.97610 32.58644 30.78127
#
# Velocity S-wave (km/s) = 3.59905 3.81668 3.70946
# Velocity P-wave (km/s) = 6.38233 6.99281 6.69453
#
# Compressibility (1/GPa) = 0.01905226
#
# Stress axis : x y z
#
# Youngs Moduli (GPa) = 90.70816 90.70907 35.86098
#
# Poissons Ratio (x) = 0.24509 0.22842
# Poissons Ratio (y) = 0.24509 0.22841
# Poissons Ratio (z) = 0.57777 0.57777
#
# Static dielectric constant tensor:
#      x y z
#    x 3.828390 0.000000 0.000000 
#    y 0.000000 3.828390 -0.000010 
#    z 0.000000 -0.000010 4.407370 
# 
# 
# High freq. dielectric constant tensor:
#      x y z
#    x 1.853070 0.000000 0.000000 
#    y 0.000000 1.853070 0.000000 
#    z 0.000000 0.000000 1.931870 
# 
# From -- ./inp_files/2117.got.cif
#   From: 2010.03.12/outbox.cif.g09.slc.cpg/sg188_2_cif.got.tgz:2117.got - 2010.04.01 12:01:06.
