data_PCOD8327967
_publ_section_title
;
Structure prediction by ZEFSAII (Michael W. Deem and Ramdas Pophale) SiO2 
 PCOD8327967
Probable space group: P -6 2 C
;
_chemical_formula_sum "Si O2"
_cell_formula_units_Z 78
_cell_length_a 24.288415
_cell_length_b 24.288415
_cell_length_c 8.272554
_cell_angle_alpha 90.000000
_cell_angle_beta 90.000000
_cell_angle_gamma 120.000000
_cell_volume 4226.380482
_symmetry_space_group_name_H-M "P -6 2 C"
_symmetry_group_IT_number 190
_symmetry_cell_setting 'hexagonal'
loop_
_space_group_symop_operation_xyz
x,y,z
-x+y,-x,1/2-z
-y,x-y,z
x,y,1/2-z
-x+y,-x,z
-y,x-y,1/2-z
x-y,-y,-z
-x,-x+y,-z
y,x,-z
y,x,1/2+z
x-y,-y,1/2+z
-x,-x+y,1/2+z
loop_
_atom_site_type_symbol
_atom_site_label
_atom_site_fract_x
_atom_site_fract_y
_atom_site_fract_z
Si Si1 0.737392 0.474333 0.568179
Si Si2 0.644003 0.933794 0.938264
Si Si3 0.610855 0.799535 0.561809
Si Si4 0.066679 0.587999 0.938094
Si Si5 0.381534 0.070927 0.941391
Si Si6 0.408893 0.729305 0.750000
Si Si7 0.386615 0.861686 0.067072
O O1 0.751633 0.456732 0.750000
O O2 0.773558 0.549825 0.552878
O O3 0.759766 0.446961 0.417962
O O4 0.661991 0.448370 0.554233
O O5 0.640464 0.940662 0.750000
O O6 0.654667 0.874613 0.980166
O O7 0.576589 0.921725 0.014500
O O8 0.703123 0.000000 0.000000
O O9 0.590496 0.790224 0.750000
O O10 0.646194 0.760232 0.517317
O O11 0.063525 0.592970 0.750000
O O12 0.123526 0.574633 0.977818
O O13 0.000000 0.529733 0.000000
O O14 0.380503 0.075148 0.750000
O O15 0.453549 0.098094 0.007328
O O16 0.336627 0.000000 0.000000
O O17 0.389325 0.654420 0.750000
O O18 0.405291 0.883891 0.250000
#
# Coordination Sequence:
#
# PCOD8327967 Si02
#       7
#    12  12  12  12  12   6  12
#     4  10  21  38  56  76  99 129 175 214 265 331
#     4   9  20  35  51  75 102 132 172 215 260 316
#     4  10  19  35  57  78 105 139 175 218 263 318
#     4  10  19  30  45  67  95 125 159 204 256 308
#     4  10  20  33  50  76 106 137 176 215 262 318
#     4  10  24  40  54  72  96 130 166 226 268 320
#     4   9  19  32  48  72  98 127 165 207 256 316
#
# _framework density 18.455507999999998
#
# number of rings (size 3 to 8) (size 9 to 14) (size 15 to 20)
#    0.154    2.154    0.769    2.769    1.077    6.154 
#    0.000    1.538    0.000    0.000    0.000    0.000 
#    0.000    0.000    0.000    0.462    0.000    7.385 
#
# Total GULP energy -966666.358876 kJ/mol
# GULP energy per Si atom -12393.158447 kJ/mol
# Density = 1.841350 g / cm^3
# Si number density = 18.455508 Si / 1000 Ang^3
#
#
#
# Elastic Constant Matrix: (Units=GPa)
#
#
# Indices 1 2 3 4 5 6 
#
# 1 65.6976 17.3736 21.4696 0.0000 0.0000 0.0000
# 2 17.3736 65.6976 21.4696 0.0000 0.0000 0.0000
# 3 21.4696 21.4696 86.3965 0.0000 0.0000 0.0000
# 4 0.0000 0.0000 0.0000 20.3286 0.0000 0.0000
# 5 0.0000 0.0000 0.0000 0.0000 20.3286 0.0000
# 6 0.0000 0.0000 0.0000 0.0000 0.0000 24.1620
#
#
#
# Elastic Compliance Matrix: (Units=1/GPa)
#
#
# Indices 1 2 3 4 5 6 
#
# 1 0.017253 -0.003441 -0.003432 0.000000 0.000000 0.000000
# 2 -0.003441 0.017253 -0.003432 0.000000 0.000000 0.000000
# 3 -0.003432 -0.003432 0.013280 0.000000 0.000000 0.000000
# 4 0.000000 0.000000 0.000000 0.049192 0.000000 0.000000
# 5 0.000000 0.000000 0.000000 0.000000 0.049192 0.000000
# 6 0.000000 0.000000 0.000000 0.000000 0.000000 0.041387
#
#
# Mechanical properties :
#
#
# Convention : Reuss Voigt Hill
#
# Bulk Modulus (GPa) = 36.79822 37.60193 37.20008
# Shear Modulus (GPa) = 23.01750 23.46245 23.23997
#
# Velocity S-wave (km/s) = 3.53539 3.56939 3.55243
# Velocity P-wave (km/s) = 6.05371 6.11605 6.08496
#
# Compressibility (1/GPa) = 0.02717523
#
# Stress axis : x y z
#
# Youngs Moduli (GPa) = 57.96156 57.96156 75.29894
#
# Poissons Ratio (x) = 0.19943 0.25845
# Poissons Ratio (y) = 0.19943 0.25845
# Poissons Ratio (z) = 0.19894 0.19894
#
# Static dielectric constant tensor:
#      x y z
#    x 3.325270 0.000000 0.000000 
#    y 0.000000 3.325270 0.000000 
#    z 0.000000 0.000000 3.432370 
# 
# 
# High freq. dielectric constant tensor:
#      x y z
#    x 1.682210 0.000000 0.000000 
#    y 0.000000 1.682210 0.000000 
#    z 0.000000 0.000000 1.726900 
# 
# From -- ./inp_files/1383.got.cif
#   From: 2010.06.25/outbox.cif.g09.slc.cpg/sg190_1_cif.got.tgz:1383.got - 2010.06.28 13:08:06.
