data_PCOD8327822
_publ_section_title
;
Structure prediction by ZEFSAII (Michael W. Deem and Ramdas Pophale) SiO2 
 PCOD8327822
Probable space group: P -6 2 M
;
_chemical_formula_sum "Si O2"
_cell_formula_units_Z 48
_cell_length_a 17.734800
_cell_length_b 17.734800
_cell_length_c 8.527037
_cell_angle_alpha 90.000000
_cell_angle_beta 90.000000
_cell_angle_gamma 120.000000
_cell_volume 2322.637157
_symmetry_space_group_name_H-M "P -6 2 M"
_symmetry_group_IT_number 189
_symmetry_cell_setting 'hexagonal'
loop_
_space_group_symop_operation_xyz
x,y,z
-x+y,-x,-z
-y,x-y,z
x,y,-z
-x+y,-x,z
-y,x-y,-z
x-y,-y,-z
-x,-x+y,-z
y,x,-z
y,x,z
x-y,-y,z
-x,-x+y,z
loop_
_atom_site_type_symbol
_atom_site_label
_atom_site_fract_x
_atom_site_fract_y
_atom_site_fract_z
Si Si1 0.228799 0.228799 0.679818
Si Si2 0.544524 0.378812 0.317367
Si Si3 0.715822 0.517675 0.816989
Si Si4 0.385511 0.385511 0.817632
Si Si5 0.808033 0.709610 0.317681
O O1 0.258970 0.258970 0.500000
O O2 0.295815 0.295815 0.804870
O O3 0.225268 0.136899 0.710472
O O4 0.550037 0.362959 0.500000
O O5 0.622522 0.473150 0.267319
O O6 0.543270 0.299706 0.223824
O O7 0.456271 0.375352 0.276549
O O8 0.775830 0.617283 0.764804
O O9 0.700658 0.516629 0.000000
O O10 0.409607 0.409607 0.000000
O O11 0.787632 0.689833 0.500000
O O12 0.757150 0.757150 0.249873
#
# Coordination Sequence:
#
# PCOD8327822 Si02
#       5
#     6  12  12   6  12
#     4  10  20  40  68  94 127 172 217 264 325 393
#     4  12  25  43  65  91 126 171 216 260 317 386
#     4  12  25  42  64  94 131 169 215 269 321 377
#     4  12  24  40  64  96 125 162 213 266 319 379
#     4  10  22  41  65  95 131 171 217 268 327 392
#
# _framework density 20.666164999999999
#
# number of rings (size 3 to 8) (size 9 to 14) (size 15 to 20)
#    0.000    0.750    2.500    6.125    1.750    0.500 
#    0.750    0.000    0.000    0.000    0.000    0.000 
#    0.000    0.000    0.000    0.000    0.000    0.000 
#
# Total GULP energy -595284.030914 kJ/mol
# GULP energy per Si atom -12401.750644 kJ/mol
# Density = 2.061913 g / cm^3
# Si number density = 20.666165 Si / 1000 Ang^3
#
#
#
# Elastic Constant Matrix: (Units=GPa)
#
#
# Indices 1 2 3 4 5 6 
#
# 1 28.0391 115.0018 21.7679 0.0000 0.0000 0.0000
# 2 115.0018 28.0391 21.7679 0.0000 0.0000 0.0000
# 3 21.7679 21.7679 45.1725 0.0000 0.0000 0.0000
# 4 0.0000 0.0000 0.0000 12.9439 0.0000 0.0000
# 5 0.0000 0.0000 0.0000 0.0000 12.9439 0.0000
# 6 0.0000 0.0000 0.0000 0.0000 0.0000 -43.4814
#
#
#
# Elastic Compliance Matrix: (Units=1/GPa)
#
#
# Indices 1 2 3 4 5 6 
#
# 1 -0.001653 0.009846 -0.003948 0.000000 0.000000 0.000000
# 2 0.009846 -0.001653 -0.003948 0.000000 0.000000 0.000000
# 3 -0.003948 -0.003948 0.025942 0.000000 0.000000 0.000000
# 4 0.000000 0.000000 0.000000 0.077256 0.000000 0.000000
# 5 0.000000 0.000000 0.000000 0.000000 0.077256 0.000000
# 6 0.000000 0.000000 0.000000 0.000000 0.000000 -0.022998
#
#
# Mechanical properties :
#
#
# Convention : Reuss Voigt Hill
#
# Bulk Modulus (GPa) = 37.68485 46.48065 42.08275
# Shear Modulus (GPa) = 31.42782 -7.33783 12.04500
#
# Velocity S-wave (km/s) = 3.90389 -1.88636 2.41682
# Velocity P-wave (km/s) = 6.21250 4.21848 5.30993
#
# Compressibility (1/GPa) = 0.02653586
#
# Stress axis : x y z
#
# Youngs Moduli (GPa) = -604.85146 -604.85146 38.54721
#
# Poissons Ratio (x) = 5.95530 0.15218
# Poissons Ratio (y) = 5.95530 0.15218
# Poissons Ratio (z) = -2.38788 -2.38788
#
# Static dielectric constant tensor:
#      x y z
#    x 3.913220 0.000000 0.000000 
#    y 0.000000 3.913220 0.000000 
#    z 0.000000 0.000000 3.693490 
# 
# 
# High freq. dielectric constant tensor:
#      x y z
#    x 1.812080 0.000000 0.000000 
#    y 0.000000 1.812080 0.000000 
#    z 0.000000 0.000000 1.810110 
# 
# From -- ./inp_files/637.got.cif
#   From: 2010.03.12/outbox.cif.g09.slc.cpg/sg189_1_cif.got.tgz:637.got - 2010.04.01 12:03:36.
