data_PCOD8327532
_publ_section_title
;
Structure prediction by ZEFSAII (Michael W. Deem and Ramdas Pophale) SiO2 
 PCOD8327532
Probable space group: P -6 2 M
;
_chemical_formula_sum "Si O2"
_cell_formula_units_Z 96
_cell_length_a 14.769927
_cell_length_b 14.769927
_cell_length_c 27.959075
_cell_angle_alpha 90.000000
_cell_angle_beta 90.000000
_cell_angle_gamma 120.000000
_cell_volume 5282.142684
_symmetry_space_group_name_H-M "P -6 2 M"
_symmetry_group_IT_number 189
_symmetry_cell_setting 'hexagonal'
loop_
_space_group_symop_operation_xyz
x,y,z
-x+y,-x,-z
-y,x-y,z
x,y,-z
-x+y,-x,z
-y,x-y,-z
x-y,-y,-z
-x,-x+y,-z
y,x,-z
y,x,z
x-y,-y,z
-x,-x+y,z
loop_
_atom_site_type_symbol
_atom_site_label
_atom_site_fract_x
_atom_site_fract_y
_atom_site_fract_z
Si Si1 0.409676 0.529120 0.055115
Si Si2 0.879903 0.432464 0.714326
Si Si3 0.633566 0.874856 0.716836
Si Si4 0.408411 0.122219 0.207220
Si Si5 0.718557 0.593875 0.640784
Si Si6 0.882691 0.764661 0.053958
Si Si7 0.743807 0.553588 0.101754
Si Si8 0.757324 0.293721 0.446102
O O1 0.436528 0.436528 0.060717
O O2 0.506518 0.635320 0.073890
O O3 0.310673 0.504772 0.086902
O O4 0.387098 0.541903 0.000000
O O5 0.831340 0.508146 0.716489
O O6 0.860797 0.370268 0.763652
O O7 0.838751 0.352489 0.669902
O O8 0.000000 0.509012 0.704947
O O9 0.653859 0.823147 0.763716
O O10 0.658615 0.829128 0.668953
O O11 0.707332 0.000000 0.719002
O O12 0.455417 0.184176 0.158376
O O13 0.328216 0.000000 0.197936
O O14 0.666475 0.666475 0.637105
O O15 0.736766 0.561164 0.588531
O O16 0.859013 0.859013 0.055882
O O17 0.807186 0.674837 0.089284
O O18 0.000000 0.807784 0.071684
O O19 0.868083 0.719690 0.000000
O O20 0.782259 0.413902 0.438451
O O21 0.787918 0.280585 0.500000
#
# Coordination Sequence:
#
# PCOD8327532 Si02
#       8
#    12  12  12  12  12  12  12  12
#     4  11  24  41  60  83 111 145 185 224 266 328
#     4   8  17  33  51  74 104 136 176 223 269 325
#     4  10  20  35  56  78 106 144 185 231 280 336
#     4  10  22  39  56  80 112 139 175 221 276 335
#     4  10  18  31  52  79 111 147 190 237 283 333
#     4  10  20  36  59  85 109 135 171 217 270 326
#     4  12  24  39  60  81 112 148 181 225 274 328
#     4   8  16  29  47  75 113 154 193 234 280 336
#
# _framework density 18.174443
#
# number of rings (size 3 to 8) (size 9 to 14) (size 15 to 20)
#    0.250    1.875    0.000    4.875    1.750    3.750 
#    6.000    0.000    0.000    3.125    0.000    0.000 
#    0.000    0.000    0.000    0.000    0.000    0.000 
#
# Total GULP energy -1190108.666498 kJ/mol
# GULP energy per Si atom -12396.965276 kJ/mol
# Density = 1.813308 g / cm^3
# Si number density = 18.174443 Si / 1000 Ang^3
#
#
#
# Elastic Constant Matrix: (Units=GPa)
#
#
# Indices 1 2 3 4 5 6 
#
# 1 77.8330 26.6741 41.4777 0.0000 0.0000 0.0000
# 2 26.6741 77.8330 41.4777 0.0000 0.0000 0.0000
# 3 41.4777 41.4777 123.0710 0.0000 0.0000 0.0000
# 4 0.0000 0.0000 0.0000 18.8925 0.0000 0.0000
# 5 0.0000 0.0000 0.0000 0.0000 18.8925 0.0000
# 6 0.0000 0.0000 0.0000 0.0000 0.0000 25.5794
#
#
#
# Elastic Compliance Matrix: (Units=1/GPa)
#
#
# Indices 1 2 3 4 5 6 
#
# 1 0.016305 -0.003242 -0.004403 0.000000 0.000000 0.000000
# 2 -0.003242 0.016305 -0.004403 0.000000 0.000000 0.000000
# 3 -0.004403 -0.004403 0.011093 0.000000 0.000000 0.000000
# 4 0.000000 0.000000 0.000000 0.052931 0.000000 0.000000
# 5 0.000000 0.000000 0.000000 0.000000 0.052931 0.000000
# 6 0.000000 0.000000 0.000000 0.000000 0.000000 0.039094
#
#
# Mechanical properties :
#
#
# Convention : Reuss Voigt Hill
#
# Bulk Modulus (GPa) = 50.99644 55.33290 53.16467
# Shear Modulus (GPa) = 22.80084 23.94670 23.37377
#
# Velocity S-wave (km/s) = 3.54581 3.63382 3.59009
# Velocity P-wave (km/s) = 6.69956 6.93669 6.81916
#
# Compressibility (1/GPa) = 0.01960921
#
# Stress axis : x y z
#
# Youngs Moduli (GPa) = 61.33001 61.33001 90.14688
#
# Poissons Ratio (x) = 0.19882 0.39689
# Poissons Ratio (y) = 0.19882 0.39689
# Poissons Ratio (z) = 0.27002 0.27002
#
# Static dielectric constant tensor:
#      x y z
#    x 3.293240 0.000000 0.000000 
#    y 0.000000 3.293240 0.000000 
#    z 0.000000 0.000000 3.295650 
# 
# 
# High freq. dielectric constant tensor:
#      x y z
#    x 1.694830 0.000000 0.000000 
#    y 0.000000 1.694830 0.000000 
#    z 0.000000 0.000000 1.700470 
# 
# From -- ./inp_files/3729.got.cif
#   From: 2010.03.12/outbox.cif.g09.slc.cpg/sg189_2_cif.got.tgz:3729.got - 2010.04.01 12:03:36.
