data_PCOD8327143
_publ_section_title
;
Structure prediction by ZEFSAII (Michael W. Deem and Ramdas Pophale) SiO2 
 PCOD8327143
Probable space group: P -6 M 2
;
_chemical_formula_sum "Si O2"
_cell_formula_units_Z 54
_cell_length_a 12.525146
_cell_length_b 12.525146
_cell_length_c 22.872126
_cell_angle_alpha 90.000000
_cell_angle_beta 90.000000
_cell_angle_gamma 120.000000
_cell_volume 3107.440062
_symmetry_space_group_name_H-M "P -6 M 2"
_symmetry_group_IT_number 187
_symmetry_cell_setting 'hexagonal'
loop_
_space_group_symop_operation_xyz
x,y,z
-x+y,-x,-z
-y,x-y,z
x,y,-z
-x+y,-x,z
-y,x-y,-z
-y,-x,-z
-x+y,y,-z
x,x-y,-z
-x+y,y,z
x,x-y,z
-y,-x,z
loop_
_atom_site_type_symbol
_atom_site_label
_atom_site_fract_x
_atom_site_fract_y
_atom_site_fract_z
Si Si1 0.666614 0.583106 0.389655
Si Si2 0.248862 0.249342 0.280002
Si Si3 0.332326 0.913406 0.170364
Si Si4 0.083356 0.418265 0.500000
Si Si5 0.753939 0.754383 0.066627
O O1 0.787946 0.575892 0.401584
O O2 0.554374 0.445627 0.383994
O O3 0.674786 0.654997 0.330646
O O4 0.649964 0.655242 0.443087
O O5 0.121531 0.243062 0.295246
O O6 0.305398 0.317841 0.219430
O O7 0.223298 0.111649 0.274558
O O8 0.464243 0.928485 0.181979
O O9 0.230742 0.769259 0.171667
O O10 0.333347 0.973014 0.107810
O O11 0.203804 0.407607 0.500000
O O12 0.122290 0.561145 0.500000
O O13 0.870082 0.740164 0.083238
O O14 0.793199 0.896600 0.076851
O O15 0.711797 0.713862 0.000000
#
# Coordination Sequence:
#
# PCOD8327143 Si02
#       5
#    12  12  12   6  12
#     4  10  20  34  53  76 103 135 169 204 242 289
#     4  10  20  34  53  76 101 129 162 203 250 297
#     4  10  20  33  49  70  97 129 164 201 242 289
#     4  10  20  34  52  74 100 130 166 208 252 294
#     4   9  17  30  50  75 100 126 158 199 246 293
#
# _framework density 17.377649000000002
#
# number of rings (size 3 to 8) (size 9 to 14) (size 15 to 20)
#    0.000    2.222    0.000    3.333    0.000    1.333 
#    0.000    3.333    0.000   16.444    0.000    0.000 
#    0.000    0.000    0.000    0.000    0.000    0.000 
#
# Total GULP energy -669785.270842 kJ/mol
# GULP energy per Si atom -12403.430942 kJ/mol
# Density = 1.733810 g / cm^3
# Si number density = 17.377649 Si / 1000 Ang^3
#
#
#
# Elastic Constant Matrix: (Units=GPa)
#
#
# Indices 1 2 3 4 5 6 
#
# 1 97.0580 55.1961 49.6465 0.0000 0.0009 0.0000
# 2 55.1961 97.0580 49.6465 0.0000 -0.0009 0.0000
# 3 49.6465 49.6465 103.0966 0.0000 0.0000 0.0000
# 4 0.0000 0.0000 0.0000 20.0301 0.0000 -0.0009
# 5 0.0009 -0.0009 0.0000 0.0000 20.0301 0.0000
# 6 0.0000 0.0000 0.0000 -0.0009 0.0000 20.9309
#
#
#
# Elastic Compliance Matrix: (Units=1/GPa)
#
#
# Indices 1 2 3 4 5 6 
#
# 1 0.016732 -0.007157 -0.004611 0.000000 -0.000001 0.000000
# 2 -0.007157 0.016732 -0.004611 0.000000 0.000001 0.000000
# 3 -0.004611 -0.004611 0.014140 0.000000 0.000000 0.000000
# 4 0.000000 0.000000 0.000000 0.049925 0.000000 0.000002
# 5 -0.000001 0.000001 0.000000 0.000000 0.049925 0.000000
# 6 0.000000 0.000000 0.000000 0.000002 0.000000 0.047776
#
#
# Mechanical properties :
#
#
# Convention : Reuss Voigt Hill
#
# Bulk Modulus (GPa) = 67.35423 67.35456 67.35440
# Shear Modulus (GPa) = 21.46523 21.71312 21.58918
#
# Velocity S-wave (km/s) = 3.51838 3.53864 3.52853
# Velocity P-wave (km/s) = 7.43967 7.45248 7.44607
#
# Compressibility (1/GPa) = 0.01484688
#
# Stress axis : x y z
#
# Youngs Moduli (GPa) = 59.76746 59.76746 70.71941
#
# Poissons Ratio (x) = 0.42773 0.32608
# Poissons Ratio (y) = 0.42773 0.32608
# Poissons Ratio (z) = 0.27558 0.27558
#
# Static dielectric constant tensor:
#      x y z
#    x 3.156100 0.000000 0.000000 
#    y 0.000000 3.156100 0.000000 
#    z 0.000000 0.000000 3.470070 
# 
# 
# High freq. dielectric constant tensor:
#      x y z
#    x 1.670120 0.000000 0.000000 
#    y 0.000000 1.670120 0.000000 
#    z 0.000000 0.000000 1.688160 
# 
# From -- ./inp_files/3457.got.cif
#   From: 2010.03.12/outbox.cif.g09.slc.cpg/sg187_2_cif.got.tgz:3457.got - 2010.04.01 11:58:23.
