data_PCOD8327943
_publ_section_title
;
Structure prediction by ZEFSAII (Michael W. Deem and Ramdas Pophale) SiO2 
 PCOD8327943
Probable space group: P -6 2 C
;
_chemical_formula_sum "Si O2"
_cell_formula_units_Z 60
_cell_length_a 10.508489
_cell_length_b 10.508489
_cell_length_c 30.022757
_cell_angle_alpha 90.000000
_cell_angle_beta 90.000000
_cell_angle_gamma 120.000000
_cell_volume 2871.188797
_symmetry_space_group_name_H-M "P -6 2 C"
_symmetry_group_IT_number 190
_symmetry_cell_setting 'hexagonal'
loop_
_space_group_symop_operation_xyz
x,y,z
-x+y,-x,1/2-z
-y,x-y,z
x,y,1/2-z
-x+y,-x,z
-y,x-y,1/2-z
x-y,-y,-z
-x,-x+y,-z
y,x,-z
y,x,1/2+z
x-y,-y,1/2+z
-x,-x+y,1/2+z
loop_
_atom_site_type_symbol
_atom_site_label
_atom_site_fract_x
_atom_site_fract_y
_atom_site_fract_z
Si Si1 0.333334 0.666668 0.012215
Si Si2 0.666667 0.333334 0.883028
Si Si3 0.176127 0.354370 0.157042
Si Si4 0.210182 0.479495 0.250000
Si Si5 0.337475 0.438627 0.635854
Si Si6 0.381314 0.053724 0.405256
Si Si7 0.333334 0.666667 0.802650
Si Si8 0.000000 0.425864 0.000000
O O1 0.333334 0.666667 0.064609
O O2 0.418486 0.577028 0.996972
O O3 0.775822 0.490762 0.864115
O O4 0.138826 0.372930 0.207806
O O5 0.271808 0.273710 0.153005
O O6 0.029296 0.270229 0.127503
O O7 0.169075 0.610177 0.250000
O O8 0.494209 0.509509 0.610611
O O9 0.226737 0.442921 0.599420
O O10 0.351791 0.532750 0.679592
O O11 0.336031 0.997166 0.455873
O O12 0.333334 0.666668 0.750000
#
# Coordination Sequence:
#
# PCOD8327943 Si02
#       8
#     4   4  12   6  12  12   4   6
#     4  12  24  40  68 103 135 172 236 277 345 403
#     4  12  18  37  62  91 117 157 200 271 318 370
#     4  12  20  38  62  91 125 160 207 263 322 373
#     4  10  18  30  56  94 122 146 204 264 310 368
#     4  10  22  41  61  87 133 165 206 267 318 381
#     4  11  23  41  62  92 126 168 214 264 325 384
#     4   9  21  40  62  94 126 172 212 253 324 388
#     4  12  24  40  70 100 132 176 224 280 336 408
#
# _framework density 20.897265999999998
#
# number of rings (size 3 to 8) (size 9 to 14) (size 15 to 20)
#    0.200    0.800    6.000    1.600    1.400    0.000 
#    8.400    0.000    0.000    0.400    0.000    0.000 
#    0.000    0.000    0.000    0.000    0.000    0.000 
#
# Total GULP energy -743532.069468 kJ/mol
# GULP energy per Si atom -12392.201158 kJ/mol
# Density = 2.084970 g / cm^3
# Si number density = 20.897266 Si / 1000 Ang^3
#
#
#
# Elastic Constant Matrix: (Units=GPa)
#
#
# Indices 1 2 3 4 5 6 
#
# 1 69.4778 17.0640 29.1968 -0.0001 0.0001 -0.0001
# 2 17.0640 69.4782 29.1966 0.0001 0.0000 -0.0001
# 3 29.1968 29.1966 178.5352 0.0001 0.0000 -0.0001
# 4 -0.0001 0.0001 0.0001 24.6645 -0.0001 0.0001
# 5 0.0001 0.0000 0.0000 -0.0001 24.6647 0.0001
# 6 -0.0001 -0.0001 -0.0001 0.0001 0.0001 26.2072
#
#
#
# Elastic Compliance Matrix: (Units=1/GPa)
#
#
# Indices 1 2 3 4 5 6 
#
# 1 0.016034 -0.003045 -0.002124 0.000000 0.000000 0.000000
# 2 -0.003045 0.016034 -0.002124 0.000000 0.000000 0.000000
# 3 -0.002124 -0.002124 0.006296 0.000000 0.000000 0.000000
# 4 0.000000 0.000000 0.000000 0.040544 0.000000 0.000000
# 5 0.000000 0.000000 0.000000 0.000000 0.040544 0.000000
# 6 0.000000 0.000000 0.000000 0.000000 0.000000 0.038157
#
#
# Mechanical properties :
#
#
# Convention : Reuss Voigt Hill
#
# Bulk Modulus (GPa) = 42.05881 52.04512 47.05197
# Shear Modulus (GPa) = 27.75920 31.24286 29.50103
#
# Velocity S-wave (km/s) = 3.64863 3.87081 3.76136
# Velocity P-wave (km/s) = 6.15793 6.70349 6.43650
#
# Compressibility (1/GPa) = 0.02377623
#
# Stress axis : x y z
#
# Youngs Moduli (GPa) = 62.36893 62.36935 158.83496
#
# Poissons Ratio (x) = 0.18993 0.33737
# Poissons Ratio (y) = 0.18993 0.33737
# Poissons Ratio (z) = 0.13248 0.13247
#
# Static dielectric constant tensor:
#      x y z
#    x 3.666740 0.000000 0.000000 
#    y 0.000000 3.666720 0.000000 
#    z 0.000000 0.000000 3.861810 
# 
# 
# High freq. dielectric constant tensor:
#      x y z
#    x 1.798500 0.000000 0.000000 
#    y 0.000000 1.798500 0.000000 
#    z 0.000000 0.000000 1.825740 
# 
# From -- ./inp_files/5130.got.cif
#   From: 2010.06.25/outbox.cif.g09.slc.cpg/sg190_3_cif.got.tgz:5130.got - 2010.06.28 13:08:06.
