data_PCOD8327565
_publ_section_title
;
Structure prediction by ZEFSAII (Michael W. Deem and Ramdas Pophale) SiO2 
 PCOD8327565
Probable space group: P -6 2 M
;
_chemical_formula_sum "Si O2"
_cell_formula_units_Z 72
_cell_length_a 23.952253
_cell_length_b 23.952253
_cell_length_c 8.881054
_cell_angle_alpha 90.000000
_cell_angle_beta 90.000000
_cell_angle_gamma 120.000000
_cell_volume 4412.532154
_symmetry_space_group_name_H-M "P -6 2 M"
_symmetry_group_IT_number 189
_symmetry_cell_setting 'hexagonal'
loop_
_space_group_symop_operation_xyz
x,y,z
-x+y,-x,-z
-y,x-y,z
x,y,-z
-x+y,-x,z
-y,x-y,-z
x-y,-y,-z
-x,-x+y,-z
y,x,-z
y,x,z
x-y,-y,z
-x,-x+y,z
loop_
_atom_site_type_symbol
_atom_site_label
_atom_site_fract_x
_atom_site_fract_y
_atom_site_fract_z
Si Si1 0.801959 0.395840 0.322028
Si Si2 0.072847 0.928802 0.179253
Si Si3 0.521717 0.928046 0.324919
Si Si4 0.266396 0.193900 0.179003
Si Si5 0.591633 0.864333 0.176899
Si Si6 0.533115 0.269625 0.177991
O O1 0.792114 0.386144 0.500000
O O2 0.875367 0.448869 0.277761
O O3 0.787886 0.329802 0.243350
O O4 0.752083 0.416065 0.257096
O O5 0.095965 0.879001 0.235954
O O6 0.000000 0.903776 0.235046
O O7 0.119983 0.000000 0.246856
O O8 0.074314 0.931565 0.000000
O O9 0.531202 0.921309 0.500000
O O10 0.573159 0.915129 0.241837
O O11 0.536125 0.000000 0.283715
O O12 0.241623 0.241623 0.237189
O O13 0.338551 0.219016 0.241388
O O14 0.266687 0.193873 0.000000
O O15 0.539298 0.791375 0.221174
O O16 0.595002 0.874005 0.000000
O O17 0.545219 0.276806 0.000000
#
# Coordination Sequence:
#
# PCOD8327565 Si02
#       6
#    12  12  12  12  12  12
#     4  10  19  31  47  65  86 112 141 171 208 254
#     4   8  12  17  27  46  74 107 139 169 201 237
#     4   9  18  31  46  65  87 109 136 173 212 248
#     4   8  13  21  34  53  76 103 136 169 199 236
#     4   9  17  28  43  62  84 111 139 168 205 250
#     4  10  19  30  44  63  87 111 137 171 209 247
#
# _framework density 16.317162
#
# number of rings (size 3 to 8) (size 9 to 14) (size 15 to 20)
#    0.000    3.000    0.000    3.000    0.000    3.000 
#    0.000    0.000    0.000    1.000    0.000    2.333 
#    0.000    0.667    0.000    0.500    0.000    5.333 
#
# Total GULP energy -892389.299251 kJ/mol
# GULP energy per Si atom -12394.295823 kJ/mol
# Density = 1.628002 g / cm^3
# Si number density = 16.317162 Si / 1000 Ang^3
#
#
#
# Elastic Constant Matrix: (Units=GPa)
#
#
# Indices 1 2 3 4 5 6 
#
# 1 124.9511 70.6825 22.7934 0.0000 0.0000 0.0000
# 2 70.6825 124.9511 22.7934 0.0000 0.0000 0.0000
# 3 22.7934 22.7934 26.9079 0.0000 0.0000 0.0000
# 4 0.0000 0.0000 0.0000 13.0128 0.0000 0.0000
# 5 0.0000 0.0000 0.0000 0.0000 13.0128 0.0000
# 6 0.0000 0.0000 0.0000 0.0000 0.0000 27.1343
#
#
#
# Elastic Compliance Matrix: (Units=1/GPa)
#
#
# Indices 1 2 3 4 5 6 
#
# 1 0.012398 -0.006029 -0.005395 0.000000 0.000000 0.000000
# 2 -0.006029 0.012398 -0.005395 0.000000 0.000000 0.000000
# 3 -0.005395 -0.005395 0.046304 0.000000 0.000000 0.000000
# 4 0.000000 0.000000 0.000000 0.076847 0.000000 0.000000
# 5 0.000000 0.000000 0.000000 0.000000 0.076847 0.000000
# 6 0.000000 0.000000 0.000000 0.000000 0.000000 0.036854
#
#
# Mechanical properties :
#
#
# Convention : Reuss Voigt Hill
#
# Bulk Modulus (GPa) = 26.69397 56.59429 41.64413
# Shear Modulus (GPa) = 16.24575 21.33469 18.79022
#
# Velocity S-wave (km/s) = 3.15877 3.61986 3.39715
# Velocity P-wave (km/s) = 5.44966 7.22706 6.40036
#
# Compressibility (1/GPa) = 0.03746164
#
# Stress axis : x y z
#
# Youngs Moduli (GPa) = 80.65951 80.65951 21.59657
#
# Poissons Ratio (x) = 0.48630 0.11651
# Poissons Ratio (y) = 0.48630 0.11651
# Poissons Ratio (z) = 0.43515 0.43515
#
# Static dielectric constant tensor:
#      x y z
#    x 3.307330 0.000000 0.000000 
#    y 0.000000 3.307330 0.000000 
#    z 0.000000 0.000000 2.813440 
# 
# 
# High freq. dielectric constant tensor:
#      x y z
#    x 1.621000 0.000000 0.000000 
#    y 0.000000 1.621000 0.000000 
#    z 0.000000 0.000000 1.601160 
# 
# From -- ./inp_files/1243.got.cif
#   From: 2010.03.12/outbox.cif.g09.slc.cpg/sg189_1_cif.got.tgz:1243.got - 2010.04.01 12:03:36.
