data_PCOD8327862
_publ_section_title
;
Structure prediction by ZEFSAII (Michael W. Deem and Ramdas Pophale) SiO2 
 PCOD8327862
Probable space group: P -6 2 M
;
_chemical_formula_sum "Si O2"
_cell_formula_units_Z 78
_cell_length_a 23.209781
_cell_length_b 23.209781
_cell_length_c 9.837765
_cell_angle_alpha 90.000000
_cell_angle_beta 90.000000
_cell_angle_gamma 120.000000
_cell_volume 4589.540019
_symmetry_space_group_name_H-M "P -6 2 M"
_symmetry_group_IT_number 189
_symmetry_cell_setting 'hexagonal'
loop_
_space_group_symop_operation_xyz
x,y,z
-x+y,-x,-z
-y,x-y,z
x,y,-z
-x+y,-x,z
-y,x-y,-z
x-y,-y,-z
-x,-x+y,-z
y,x,-z
y,x,z
x-y,-y,z
-x,-x+y,z
loop_
_atom_site_type_symbol
_atom_site_label
_atom_site_fract_x
_atom_site_fract_y
_atom_site_fract_z
Si Si1 0.344776 0.142822 0.339967
Si Si2 0.300222 0.718288 0.500000
Si Si3 0.334102 0.470646 0.151243
Si Si4 0.000000 0.419082 0.342705
Si Si5 0.727763 0.074968 0.657465
Si Si6 0.523024 0.114260 0.153155
Si Si7 0.000000 0.282460 0.653810
Si Si8 0.508261 0.728877 0.759778
O O1 0.351578 0.136083 0.500000
O O2 0.319208 0.194590 0.305661
O O3 0.293290 0.068988 0.278690
O O4 0.416377 0.167127 0.276784
O O5 0.379114 0.741884 0.500000
O O6 0.280939 0.745874 0.628215
O O7 0.319398 0.412479 0.256913
O O8 0.403912 0.533217 0.191741
O O9 0.278626 0.492697 0.150774
O O10 0.336651 0.445177 0.000000
O O11 0.000000 0.440023 0.500000
O O12 0.064706 0.474755 0.266583
O O13 0.000000 0.350888 0.335787
O O14 0.714792 0.083486 0.500000
O O15 0.710567 0.000000 0.689915
O O16 0.522544 0.183366 0.156322
O O17 0.503213 0.084656 0.000000
O O18 0.000000 0.260682 0.500000
#
# Coordination Sequence:
#
# PCOD8327862 Si02
#       8
#    12   6  12   6  12  12   6  12
#     4   9  16  29  51  76 105 130 158 211 254 302
#     4  10  22  32  48  77 103 131 176 238 283 314
#     4  10  23  38  54  73  99 138 176 217 269 324
#     4  11  23  37  57  79 101 133 175 220 263 318
#     4   9  19  35  55  79 103 132 170 214 260 305
#     4  11  24  39  55  74 105 138 173 219 271 327
#     4   9  16  29  49  81 103 127 163 200 253 304
#     4  11  19  36  54  73 100 134 173 220 272 323
#
# _framework density 16.995168
#
# number of rings (size 3 to 8) (size 9 to 14) (size 15 to 20)
#    0.154    1.846    2.308    1.615    3.231    0.923 
#    0.923    0.000    0.000    0.000    0.000    0.000 
#    0.769    0.000    2.308    0.000    0.000    0.000 
#
# Total GULP energy -966793.614554 kJ/mol
# GULP energy per Si atom -12394.789930 kJ/mol
# Density = 1.695649 g / cm^3
# Si number density = 16.995168 Si / 1000 Ang^3
#
#
#
# Elastic Constant Matrix: (Units=GPa)
#
#
# Indices 1 2 3 4 5 6 
#
# 1 98.1775 57.0243 31.2382 0.0000 0.0000 0.0000
# 2 57.0243 98.1775 31.2382 0.0000 0.0000 0.0000
# 3 31.2382 31.2382 62.8288 0.0000 0.0000 0.0000
# 4 0.0000 0.0000 0.0000 51.6306 0.0000 0.0000
# 5 0.0000 0.0000 0.0000 0.0000 51.6306 0.0000
# 6 0.0000 0.0000 0.0000 0.0000 0.0000 20.5766
#
#
#
# Elastic Compliance Matrix: (Units=1/GPa)
#
#
# Indices 1 2 3 4 5 6 
#
# 1 0.016177 -0.008122 -0.004005 0.000000 0.000000 0.000000
# 2 -0.008122 0.016177 -0.004005 0.000000 0.000000 0.000000
# 3 -0.004005 -0.004005 0.019899 0.000000 0.000000 0.000000
# 4 0.000000 0.000000 0.000000 0.019368 0.000000 0.000000
# 5 0.000000 0.000000 0.000000 0.000000 0.019368 0.000000
# 6 0.000000 0.000000 0.000000 0.000000 0.000000 0.048599
#
#
# Mechanical properties :
#
#
# Convention : Reuss Voigt Hill
#
# Bulk Modulus (GPa) = 50.02670 55.35390 52.69030
# Shear Modulus (GPa) = 28.00851 34.07977 31.04414
#
# Velocity S-wave (km/s) = 4.06399 4.48287 4.27856
# Velocity P-wave (km/s) = 7.17782 7.70947 7.44839
#
# Compressibility (1/GPa) = 0.01998933
#
# Stress axis : x y z
#
# Youngs Moduli (GPa) = 61.81434 61.81434 50.25393
#
# Poissons Ratio (x) = 0.50205 0.20127
# Poissons Ratio (y) = 0.50205 0.20127
# Poissons Ratio (z) = 0.24758 0.24758
#
# Static dielectric constant tensor:
#      x y z
#    x 3.339880 0.000000 0.000000 
#    y 0.000000 3.339880 0.000000 
#    z 0.000000 0.000000 2.872230 
# 
# 
# High freq. dielectric constant tensor:
#      x y z
#    x 1.646530 0.000000 0.000000 
#    y 0.000000 1.646530 0.000000 
#    z 0.000000 0.000000 1.648040 
# 
# From -- ./inp_files/1453.got.cif
#   From: 2010.03.12/outbox.cif.g09.slc.cpg/sg189_1_cif.got.tgz:1453.got - 2010.04.01 12:03:36.
