data_PCOD8327138
_publ_section_title
;
Structure prediction by ZEFSAII (Michael W. Deem and Ramdas Pophale) SiO2 
 PCOD8327138
Probable space group: P -6 M 2
;
_chemical_formula_sum "Si O2"
_cell_formula_units_Z 66
_cell_length_a 12.522973
_cell_length_b 12.522973
_cell_length_c 27.905824
_cell_angle_alpha 90.000000
_cell_angle_beta 90.000000
_cell_angle_gamma 120.000000
_cell_volume 3790.010132
_symmetry_space_group_name_H-M "P -6 M 2"
_symmetry_group_IT_number 187
_symmetry_cell_setting 'hexagonal'
loop_
_space_group_symop_operation_xyz
x,y,z
-x+y,-x,-z
-y,x-y,z
x,y,-z
-x+y,-x,z
-y,x-y,-z
-y,-x,-z
-x+y,y,-z
x,x-y,-z
-x+y,y,z
x,x-y,z
-y,-x,z
loop_
_atom_site_type_symbol
_atom_site_label
_atom_site_fract_x
_atom_site_fract_y
_atom_site_fract_z
Si Si1 0.417682 0.333631 0.319377
Si Si2 0.666776 0.088329 0.054373
Si Si3 0.085087 0.666793 0.770725
Si Si4 0.583339 0.668234 0.500000
Si Si5 0.752503 0.753063 0.139897
Si Si6 0.750327 0.000105 0.409590
O O1 0.444111 0.222056 0.314461
O O2 0.544674 0.455326 0.331622
O O3 0.359405 0.345306 0.270172
O O4 0.322292 0.312408 0.361272
O O5 0.536639 0.073277 0.069269
O O6 0.768445 0.231556 0.060244
O O7 0.696723 0.004010 0.088563
O O8 0.664234 0.043583 0.000000
O O9 0.115773 0.557887 0.775570
O O10 0.209645 0.790356 0.757260
O O11 0.028614 0.678544 0.820438
O O12 0.462870 0.537131 0.500000
O O13 0.544462 0.772231 0.500000
O O14 0.661378 0.678033 0.546657
O O15 0.872910 0.745820 0.153099
O O16 0.790075 0.895038 0.137727
O O17 0.774525 0.887263 0.404556
O O18 0.879426 0.120575 0.419734
#
# Coordination Sequence:
#
# PCOD8327138 Si02
#       6
#    12  12  12   6  12  12
#     4  10  20  34  52  74 101 132 165 202 245 294
#     4   9  17  30  49  72  96 122 154 194 239 284
#     4  10  20  34  52  73  97 126 162 204 249 295
#     4  10  20  34  52  74 100 130 164 202 244 288
#     4  10  20  33  49  70  97 129 163 198 238 286
#     4  10  20  34  53  76 102 132 166 204 245 290
#
# _framework density 17.414202
#
# number of rings (size 3 to 8) (size 9 to 14) (size 15 to 20)
#    0.000    2.182    0.000    3.455    0.000    1.091 
#    0.000    0.909    0.000   21.455    0.000    0.000 
#    0.000    0.000    0.000    0.000    0.000    0.000 
#
# Total GULP energy -818635.022071 kJ/mol
# GULP energy per Si atom -12403.560940 kJ/mol
# Density = 1.737457 g / cm^3
# Si number density = 17.414202 Si / 1000 Ang^3
#
#
#
# Elastic Constant Matrix: (Units=GPa)
#
#
# Indices 1 2 3 4 5 6 
#
# 1 93.4428 48.2159 48.1255 0.0000 -0.0004 0.0000
# 2 48.2159 93.4428 48.1255 0.0000 0.0004 0.0000
# 3 48.1255 48.1255 94.6235 0.0000 0.0000 0.0000
# 4 0.0000 0.0000 0.0000 25.0902 0.0000 0.0004
# 5 -0.0004 0.0004 0.0000 0.0000 25.0902 0.0000
# 6 0.0000 0.0000 0.0000 0.0004 0.0000 22.6134
#
#
#
# Elastic Compliance Matrix: (Units=1/GPa)
#
#
# Indices 1 2 3 4 5 6 
#
# 1 0.016449 -0.005662 -0.005486 0.000000 0.000000 0.000000
# 2 -0.005662 0.016449 -0.005486 0.000000 0.000000 0.000000
# 3 -0.005486 -0.005486 0.016149 0.000000 0.000000 0.000000
# 4 0.000000 0.000000 0.000000 0.039856 0.000000 -0.000001
# 5 0.000000 0.000000 0.000000 0.000000 0.039856 0.000000
# 6 0.000000 0.000000 0.000000 -0.000001 0.000000 0.044222
#
#
# Mechanical properties :
#
#
# Convention : Reuss Voigt Hill
#
# Bulk Modulus (GPa) = 63.38064 63.38255 63.38159
# Shear Modulus (GPa) = 23.63975 23.69491 23.66733
#
# Velocity S-wave (km/s) = 3.68842 3.69272 3.69057
# Velocity P-wave (km/s) = 7.39014 7.39308 7.39161
#
# Compressibility (1/GPa) = 0.01577769
#
# Stress axis : x y z
#
# Youngs Moduli (GPa) = 60.79467 60.79467 61.92420
#
# Poissons Ratio (x) = 0.34422 0.33973
# Poissons Ratio (y) = 0.34422 0.33973
# Poissons Ratio (z) = 0.33353 0.33353
#
# Static dielectric constant tensor:
#      x y z
#    x 3.226730 0.000000 0.000000 
#    y 0.000000 3.226730 0.000000 
#    z 0.000000 0.000000 3.414830 
# 
# 
# High freq. dielectric constant tensor:
#      x y z
#    x 1.678220 0.000000 0.000000 
#    y 0.000000 1.678220 0.000000 
#    z 0.000000 0.000000 1.685370 
# 
# From -- ./inp_files/4399.got.cif
#   From: 2010.03.12/outbox.cif.g09.slc.cpg/sg187_3_cif.got.tgz:4399.got - 2010.04.01 11:58:23.
