data_PCOD8327214
_publ_section_title
;
Structure prediction by ZEFSAII (Michael W. Deem and Ramdas Pophale) SiO2 
 PCOD8327214
Probable space group: P -6 M 2
;
_chemical_formula_sum "Si O2"
_cell_formula_units_Z 72
_cell_length_a 12.374532
_cell_length_b 12.374532
_cell_length_c 30.952347
_cell_angle_alpha 90.000000
_cell_angle_beta 90.000000
_cell_angle_gamma 120.000000
_cell_volume 4104.703421
_symmetry_space_group_name_H-M "P -6 M 2"
_symmetry_group_IT_number 187
_symmetry_cell_setting 'hexagonal'
loop_
_space_group_symop_operation_xyz
x,y,z
-x+y,-x,-z
-y,x-y,z
x,y,-z
-x+y,-x,z
-y,x-y,-z
-y,-x,-z
-x+y,y,-z
x,x-y,-z
-x+y,y,z
x,x-y,z
-y,-x,z
loop_
_atom_site_type_symbol
_atom_site_label
_atom_site_fract_x
_atom_site_fract_y
_atom_site_fract_z
Si Si1 0.334803 0.921391 0.500000
Si Si2 0.664881 0.585315 0.416244
Si Si3 0.332549 0.919498 0.000000
Si Si4 0.251369 0.252913 0.248641
Si Si5 0.080885 0.666685 0.332130
Si Si6 0.081735 0.413863 0.166057
Si Si7 0.746817 0.748007 0.082737
O O1 0.203861 0.796140 0.500000
O O2 0.442427 0.884854 0.500000
O O3 0.343925 0.002058 0.458424
O O4 0.797703 0.595406 0.413921
O O5 0.559676 0.440325 0.417474
O O6 0.648708 0.654535 0.375398
O O7 0.327984 0.991144 0.957719
O O8 0.222580 0.777421 0.000000
O O9 0.459726 0.919452 0.000000
O O10 0.262278 0.131139 0.244688
O O11 0.310831 0.319929 0.293500
O O12 0.329484 0.345669 0.210246
O O13 0.106768 0.213536 0.245392
O O14 0.088000 0.544000 0.321988
O O15 0.220687 0.779314 0.337428
O O16 0.226187 0.452373 0.165582
O O17 0.073454 0.536727 0.161450
O O18 0.008180 0.324334 0.126544
O O19 0.871446 0.742891 0.081115
O O20 0.782667 0.891334 0.080566
#
# Coordination Sequence:
#
# PCOD8327214 Si02
#       7
#     6  12   6  12  12  12  12
#     4  10  20  34  54  78 104 134 168 210 256 302
#     4  10  20  34  53  76 103 135 170 208 250 299
#     4  10  20  34  54  78 104 134 168 210 256 302
#     4  10  20  34  53  76 103 135 170 209 252 300
#     4  10  20  34  54  78 104 134 168 210 256 302
#     4  10  20  34  54  78 104 134 168 210 256 302
#     4  10  20  34  54  78 104 134 168 209 254 301
#
# _framework density 17.540852000000001
#
# number of rings (size 3 to 8) (size 9 to 14) (size 15 to 20)
#    0.000    2.000    0.000    4.000    0.000    0.000 
#    0.000    8.333    0.000   18.000    0.000    0.000 
#    0.000    0.000    0.000    0.000    0.000    0.000 
#
# Total GULP energy -893106.061713 kJ/mol
# GULP energy per Si atom -12404.250857 kJ/mol
# Density = 1.750093 g / cm^3
# Si number density = 17.540852 Si / 1000 Ang^3
#
#
#
# Elastic Constant Matrix: (Units=GPa)
#
#
# Indices 1 2 3 4 5 6 
#
# 1 82.6356 47.0967 20.5722 0.0000 0.0006 0.0000
# 2 47.0967 82.6356 20.5722 0.0000 -0.0006 0.0000
# 3 20.5722 20.5722 94.5231 0.0000 0.0000 0.0000
# 4 0.0000 0.0000 0.0000 15.2893 0.0000 -0.0006
# 5 0.0006 -0.0006 0.0000 0.0000 15.2893 0.0000
# 6 0.0000 0.0000 0.0000 -0.0006 0.0000 17.7694
#
#
#
# Elastic Compliance Matrix: (Units=1/GPa)
#
#
# Indices 1 2 3 4 5 6 
#
# 1 0.018209 -0.009929 -0.001802 0.000000 -0.000001 0.000000
# 2 -0.009929 0.018209 -0.001802 0.000000 0.000001 0.000000
# 3 -0.001802 -0.001802 0.011364 0.000000 0.000000 0.000000
# 4 0.000000 0.000000 0.000000 0.065405 0.000000 0.000002
# 5 -0.000001 0.000001 0.000000 0.000000 0.065405 0.000000
# 6 0.000000 0.000000 0.000000 0.000002 0.000000 0.056276
#
#
# Mechanical properties :
#
#
# Convention : Reuss Voigt Hill
#
# Bulk Modulus (GPa) = 48.27385 48.47517 48.37451
# Shear Modulus (GPa) = 18.59840 21.10648 19.85244
#
# Velocity S-wave (km/s) = 3.25974 3.47259 3.36785
# Velocity P-wave (km/s) = 6.46130 6.61620 6.53921
#
# Compressibility (1/GPa) = 0.02071515
#
# Stress axis : x y z
#
# Youngs Moduli (GPa) = 54.91807 54.91807 87.99869
#
# Poissons Ratio (x) = 0.54530 0.15857
# Poissons Ratio (y) = 0.54530 0.15857
# Poissons Ratio (z) = 0.09896 0.09896
#
# Static dielectric constant tensor:
#      x y z
#    x 3.165410 0.000000 0.000000 
#    y 0.000000 3.165410 0.000000 
#    z 0.000000 0.000000 3.508470 
# 
# 
# High freq. dielectric constant tensor:
#      x y z
#    x 1.677310 0.000000 0.000000 
#    y 0.000000 1.677310 0.000000 
#    z 0.000000 0.000000 1.702440 
# 
# From -- ./inp_files/4567.got.cif
#   From: 2010.03.12/outbox.cif.g09.slc.cpg/sg187_3_cif.got.tgz:4567.got - 2010.04.01 11:58:23.
