data_PCOD8327595
_publ_section_title
;
Structure prediction by ZEFSAII (Michael W. Deem and Ramdas Pophale) SiO2 
 PCOD8327595
Probable space group: P -6 2 M
;
_chemical_formula_sum "Si O2"
_cell_formula_units_Z 84
_cell_length_a 16.810879
_cell_length_b 16.810879
_cell_length_c 19.266241
_cell_angle_alpha 90.000000
_cell_angle_beta 90.000000
_cell_angle_gamma 120.000000
_cell_volume 4715.290617
_symmetry_space_group_name_H-M "P -6 2 M"
_symmetry_group_IT_number 189
_symmetry_cell_setting 'hexagonal'
loop_
_space_group_symop_operation_xyz
x,y,z
-x+y,-x,-z
-y,x-y,z
x,y,-z
-x+y,-x,z
-y,x-y,-z
x-y,-y,-z
-x,-x+y,-z
y,x,-z
y,x,z
x-y,-y,z
-x,-x+y,z
loop_
_atom_site_type_symbol
_atom_site_label
_atom_site_fract_x
_atom_site_fract_y
_atom_site_fract_z
Si Si1 0.666665 0.512497 0.210566
Si Si2 0.891417 0.445709 0.422218
Si Si3 0.104799 0.714511 0.651847
Si Si4 0.101097 0.379313 0.077252
Si Si5 0.721785 0.101097 0.077252
Si Si6 0.104799 0.390288 0.651847
Si Si7 0.512497 0.845832 0.210566
O O1 0.658888 0.545184 0.133651
O O2 0.699559 0.595396 0.265386
O O3 0.736985 0.473969 0.210215
O O4 0.567152 0.432848 0.233374
O O5 0.850389 0.425194 0.500000
O O6 0.859163 0.510335 0.384108
O O7 0.859163 0.348828 0.384108
O O8 0.000000 0.500000 0.424000
O O9 0.178427 0.821573 0.633043
O O10 0.104164 0.699559 0.734614
O O11 0.000000 0.685745 0.628907
O O12 0.171503 0.343007 0.092870
O O13 0.000000 0.291394 0.083049
O O14 0.117352 0.423661 0.000000
O O15 0.658888 0.113703 0.133651
O O16 0.708606 0.000000 0.083049
O O17 0.693691 0.117352 0.000000
O O18 0.000000 0.314255 0.628907
#
# Coordination Sequence:
#
# PCOD8327595 Si02
#       7
#    12  12  12  12  12  12  12
#     4  10  19  31  48  69  95 126 161 199 240 287
#     4   9  18  34  54  76 103 133 165 203 246 294
#     4  10  20  34  53  76 103 136 172 210 252 299
#     4   9  18  31  46  65  89 119 155 195 239 285
#     4   9  18  31  46  65  89 119 155 195 239 285
#     4  10  20  34  53  76 103 136 172 210 252 299
#     4  10  19  31  48  69  95 126 161 199 240 287
#
# _framework density 17.814382999999999
#
# number of rings (size 3 to 8) (size 9 to 14) (size 15 to 20)
#    0.000    2.429    1.429    1.143    0.000    2.857 
#    0.857    1.429    0.000    2.286    0.000    2.000 
#    0.000    6.857    0.000    7.429    0.000    0.000 
#
# Total GULP energy -1041019.874256 kJ/mol
# GULP energy per Si atom -12393.093741 kJ/mol
# Density = 1.777384 g / cm^3
# Si number density = 17.814383 Si / 1000 Ang^3
#
#
#
# Elastic Constant Matrix: (Units=GPa)
#
#
# Indices 1 2 3 4 5 6 
#
# 1 82.5762 48.6435 17.8204 0.0000 0.0000 0.0000
# 2 48.6435 82.5762 17.8204 0.0000 0.0000 0.0000
# 3 17.8204 17.8204 86.4349 0.0000 0.0000 0.0000
# 4 0.0000 0.0000 0.0000 17.8257 0.0000 0.0000
# 5 0.0000 0.0000 0.0000 0.0000 17.8257 0.0000
# 6 0.0000 0.0000 0.0000 0.0000 0.0000 16.9664
#
#
#
# Elastic Compliance Matrix: (Units=1/GPa)
#
#
# Indices 1 2 3 4 5 6 
#
# 1 0.018771 -0.010699 -0.001664 0.000000 0.000000 0.000000
# 2 -0.010699 0.018771 -0.001664 0.000000 0.000000 0.000000
# 3 -0.001664 -0.001664 0.012256 0.000000 0.000000 0.000000
# 4 0.000000 0.000000 0.000000 0.056099 0.000000 0.000000
# 5 0.000000 0.000000 0.000000 0.000000 0.056099 0.000000
# 6 0.000000 0.000000 0.000000 0.000000 0.000000 0.058940
#
#
# Mechanical properties :
#
#
# Convention : Reuss Voigt Hill
#
# Bulk Modulus (GPa) = 45.98997 46.68400 46.33699
# Shear Modulus (GPa) = 19.51302 21.67708 20.59505
#
# Velocity S-wave (km/s) = 3.31320 3.49209 3.40382
# Velocity P-wave (km/s) = 6.36464 6.52091 6.44325
#
# Compressibility (1/GPa) = 0.02174387
#
# Stress axis : x y z
#
# Youngs Moduli (GPa) = 53.27231 53.27231 81.59466
#
# Poissons Ratio (x) = 0.56994 0.13581
# Poissons Ratio (y) = 0.56994 0.13581
# Poissons Ratio (z) = 0.08867 0.08867
#
# Static dielectric constant tensor:
#      x y z
#    x 3.163480 0.000000 0.000000 
#    y 0.000000 3.163480 0.000000 
#    z 0.000000 0.000000 3.540890 
# 
# 
# High freq. dielectric constant tensor:
#      x y z
#    x 1.664180 0.000000 0.000000 
#    y 0.000000 1.664180 0.000000 
#    z 0.000000 0.000000 1.702580 
# 
# From -- ./inp_files/3466.got.cif
#   From: 2010.03.12/outbox.cif.g09.slc.cpg/sg189_2_cif.got.tgz:3466.got - 2010.04.01 12:03:36.
