data_PCOD8327784
_publ_section_title
;
Structure prediction by ZEFSAII (Michael W. Deem and Ramdas Pophale) SiO2 
 PCOD8327784
Probable space group: P -6 2 M
;
_chemical_formula_sum "Si O2"
_cell_formula_units_Z 72
_cell_length_a 14.889051
_cell_length_b 14.889051
_cell_length_c 19.186733
_cell_angle_alpha 90.000000
_cell_angle_beta 90.000000
_cell_angle_gamma 120.000000
_cell_volume 3683.542616
_symmetry_space_group_name_H-M "P -6 2 M"
_symmetry_group_IT_number 189
_symmetry_cell_setting 'hexagonal'
loop_
_space_group_symop_operation_xyz
x,y,z
-x+y,-x,-z
-y,x-y,z
x,y,-z
-x+y,-x,z
-y,x-y,-z
x-y,-y,-z
-x,-x+y,-z
y,x,-z
y,x,z
x-y,-y,z
-x,-x+y,z
loop_
_atom_site_type_symbol
_atom_site_label
_atom_site_fract_x
_atom_site_fract_y
_atom_site_fract_z
Si Si1 0.686599 0.119819 0.709927
Si Si2 0.260695 0.798629 0.077535
Si Si3 0.122585 0.591909 0.150868
Si Si4 0.765554 0.882886 0.271400
Si Si5 0.787108 0.441452 0.576783
Si Si6 0.114481 0.229054 0.106380
O O1 0.645418 0.162904 0.772758
O O2 0.811298 0.167377 0.706841
O O3 0.645098 0.134695 0.636448
O O4 0.640926 0.000000 0.725137
O O5 0.179801 0.679337 0.093050
O O6 0.350720 0.846102 0.136154
O O7 0.199515 0.860897 0.076807
O O8 0.307374 0.807078 0.000000
O O9 0.000000 0.542627 0.143009
O O10 0.810242 0.810242 0.299977
O O11 0.767382 0.886209 0.188976
O O12 0.837286 0.000000 0.301178
O O13 0.677461 0.440100 0.584111
O O14 0.835492 0.484906 0.500000
O O15 0.195279 0.195279 0.077510
O O16 0.000000 0.144591 0.081059
#
# Coordination Sequence:
#
# PCOD8327784 Si02
#       6
#    12  12  12  12  12  12
#     4  10  20  35  59  89 117 150 192 236 289 342
#     4  12  25  40  60  81 108 153 196 239 298 354
#     4  11  25  43  60  85 116 148 194 250 295 345
#     4   9  17  32  55  85 118 152 189 233 286 346
#     4   8  18  35  57  83 115 155 189 228 285 341
#     4  10  20  36  57  82 111 143 185 237 295 354
#
# _framework density 19.546402
#
# number of rings (size 3 to 8) (size 9 to 14) (size 15 to 20)
#    0.333    1.667    1.667    2.167    2.333    5.000 
#    0.000    0.833    0.000    2.500    0.000    0.000 
#    0.000    1.333    0.000    0.000    0.000    0.000 
#
# Total GULP energy -892328.423657 kJ/mol
# GULP energy per Si atom -12393.450329 kJ/mol
# Density = 1.950191 g / cm^3
# Si number density = 19.546402 Si / 1000 Ang^3
#
#
#
# Elastic Constant Matrix: (Units=GPa)
#
#
# Indices 1 2 3 4 5 6 
#
# 1 89.4899 28.6634 36.9126 0.0000 0.0000 0.0000
# 2 28.6634 89.4899 36.9126 0.0000 0.0000 0.0000
# 3 36.9126 36.9126 91.1416 0.0000 0.0000 0.0000
# 4 0.0000 0.0000 0.0000 19.1498 0.0000 0.0000
# 5 0.0000 0.0000 0.0000 0.0000 19.1498 0.0000
# 6 0.0000 0.0000 0.0000 0.0000 0.0000 30.4133
#
#
#
# Elastic Compliance Matrix: (Units=1/GPa)
#
#
# Indices 1 2 3 4 5 6 
#
# 1 0.013886 -0.002555 -0.004589 0.000000 0.000000 0.000000
# 2 -0.002555 0.013886 -0.004589 0.000000 0.000000 0.000000
# 3 -0.004589 -0.004589 0.014689 0.000000 0.000000 0.000000
# 4 0.000000 0.000000 0.000000 0.052220 0.000000 0.000000
# 5 0.000000 0.000000 0.000000 0.000000 0.052220 0.000000
# 6 0.000000 0.000000 0.000000 0.000000 0.000000 0.032880
#
#
# Mechanical properties :
#
#
# Convention : Reuss Voigt Hill
#
# Bulk Modulus (GPa) = 52.64616 52.78874 52.71745
# Shear Modulus (GPa) = 23.85749 24.91807 24.38778
#
# Velocity S-wave (km/s) = 3.49744 3.57433 3.53609
# Velocity P-wave (km/s) = 6.58041 6.64078 6.61067
#
# Compressibility (1/GPa) = 0.01899474
#
# Stress axis : x y z
#
# Youngs Moduli (GPa) = 72.01718 72.01718 68.07762
#
# Poissons Ratio (x) = 0.18398 0.31241
# Poissons Ratio (y) = 0.18398 0.31241
# Poissons Ratio (z) = 0.33049 0.33049
#
# Static dielectric constant tensor:
#      x y z
#    x 3.615330 0.000000 0.000000 
#    y 0.000000 3.615330 0.000000 
#    z 0.000000 0.000000 3.343180 
# 
# 
# High freq. dielectric constant tensor:
#      x y z
#    x 1.756990 0.000000 0.000000 
#    y 0.000000 1.756990 0.000000 
#    z 0.000000 0.000000 1.737440 
# 
# From -- ./inp_files/3121.got.cif
#   From: 2010.03.12/outbox.cif.g09.slc.cpg/sg189_2_cif.got.tgz:3121.got - 2010.04.01 12:03:36.
