data_PCOD8327154
_publ_section_title
;
Structure prediction by ZEFSAII (Michael W. Deem and Ramdas Pophale) SiO2 
 PCOD8327154
Probable space group: P -6 M 2
;
_chemical_formula_sum "Si O2"
_cell_formula_units_Z 84
_cell_length_a 18.229234
_cell_length_b 18.229234
_cell_length_c 14.592297
_cell_angle_alpha 90.000000
_cell_angle_beta 90.000000
_cell_angle_gamma 120.000000
_cell_volume 4199.437593
_symmetry_space_group_name_H-M "P -6 M 2"
_symmetry_group_IT_number 187
_symmetry_cell_setting 'hexagonal'
loop_
_space_group_symop_operation_xyz
x,y,z
-x+y,-x,-z
-y,x-y,z
x,y,-z
-x+y,-x,z
-y,x-y,-z
-y,-x,-z
-x+y,y,-z
x,x-y,-z
-x+y,y,z
x,x-y,z
-y,-x,z
loop_
_atom_site_type_symbol
_atom_site_label
_atom_site_fract_x
_atom_site_fract_y
_atom_site_fract_z
Si Si1 0.331804 0.492930 0.239236
Si Si2 0.447563 0.142702 0.099837
Si Si3 0.655278 0.700891 0.895804
Si Si4 0.999323 0.163392 0.891828
Si Si5 0.506341 0.335068 0.706127
Si Si6 0.265697 0.365679 0.604579
Si Si7 0.912938 0.250755 0.395041
O O1 0.260115 0.520230 0.239930
O O2 0.423620 0.576381 0.227801
O O3 0.312907 0.427477 0.156902
O O4 0.329862 0.445075 0.333235
O O5 0.403373 0.201687 0.106206
O O6 0.512640 0.168092 0.183440
O O7 0.381630 0.044912 0.109595
O O8 0.493163 0.158305 0.000000
O O9 0.742387 0.775591 0.850776
O O10 0.644544 0.723161 0.000000
O O11 0.908257 0.091744 0.850950
O O12 0.067121 0.134242 0.868939
O O13 0.989182 0.169764 0.000000
O O14 0.527530 0.263765 0.673237
O O15 0.576047 0.423954 0.663241
O O16 0.414981 0.312369 0.669943
O O17 0.290357 0.396199 0.500000
O O18 0.169661 0.339321 0.627621
O O19 0.268783 0.279469 0.623054
O O20 0.898513 0.267490 0.500000
O O21 0.848595 0.151406 0.370413
#
# Coordination Sequence:
#
# PCOD8327154 Si02
#       7
#    12  12  12  12  12  12  12
#     4  11  24  41  59  79 104 135 173 220 275 330
#     4   9  18  32  49  71 100 134 174 221 270 314
#     4  10  20  34  53  76 104 140 180 218 257 308
#     4   9  16  27  46  73 105 140 177 217 260 306
#     4  10  20  33  49  71 101 138 179 221 264 309
#     4   9  19  37  61  87 112 138 170 211 261 314
#     4   9  18  33  54  81 112 144 175 207 248 301
#
# _framework density 20.002678
#
# number of rings (size 3 to 8) (size 9 to 14) (size 15 to 20)
#    0.000    2.429    0.000    2.143    0.000    6.571 
#    0.000    3.571    0.000    3.714    0.000    2.000 
#    0.000    0.000    0.000    0.000    0.000    0.000 
#
# Total GULP energy -1040931.838988 kJ/mol
# GULP energy per Si atom -12392.045702 kJ/mol
# Density = 1.995715 g / cm^3
# Si number density = 20.002678 Si / 1000 Ang^3
#
#
#
# Elastic Constant Matrix: (Units=GPa)
#
#
# Indices 1 2 3 4 5 6 
#
# 1 112.3591 70.1916 35.2602 0.0000 -0.0003 0.0000
# 2 70.1916 112.3591 35.2602 0.0000 0.0003 0.0000
# 3 35.2602 35.2602 70.1861 0.0000 0.0000 0.0000
# 4 0.0000 0.0000 0.0000 18.9066 0.0000 0.0003
# 5 -0.0003 0.0003 0.0000 0.0000 18.9066 0.0000
# 6 0.0000 0.0000 0.0000 0.0003 0.0000 21.0837
#
#
#
# Elastic Compliance Matrix: (Units=1/GPa)
#
#
# Indices 1 2 3 4 5 6 
#
# 1 0.015256 -0.008459 -0.003415 0.000000 0.000000 0.000000
# 2 -0.008459 0.015256 -0.003415 0.000000 0.000000 0.000000
# 3 -0.003415 -0.003415 0.017679 0.000000 0.000000 0.000000
# 4 0.000000 0.000000 0.000000 0.052892 0.000000 -0.000001
# 5 0.000000 0.000000 0.000000 0.000000 0.052892 0.000000
# 6 0.000000 0.000000 0.000000 -0.000001 0.000000 0.047430
#
#
# Mechanical properties :
#
#
# Convention : Reuss Voigt Hill
#
# Bulk Modulus (GPa) = 56.77284 64.03649 60.40466
# Shear Modulus (GPa) = 21.02145 22.05885 21.54015
#
# Velocity S-wave (km/s) = 3.24532 3.32444 3.28512
# Velocity P-wave (km/s) = 6.51821 6.84246 6.68230
#
# Compressibility (1/GPa) = 0.01761406
#
# Stress axis : x y z
#
# Youngs Moduli (GPa) = 65.54795 65.54795 56.56489
#
# Poissons Ratio (x) = 0.55447 0.19315
# Poissons Ratio (y) = 0.55447 0.19315
# Poissons Ratio (z) = 0.22383 0.22383
#
# Static dielectric constant tensor:
#      x y z
#    x 3.565780 0.000000 0.000000 
#    y 0.000000 3.565780 0.000000 
#    z 0.000000 0.000000 3.754150 
# 
# 
# High freq. dielectric constant tensor:
#      x y z
#    x 1.772320 0.000000 0.000000 
#    y 0.000000 1.772320 0.000000 
#    z 0.000000 0.000000 1.771980 
# 
# From -- ./inp_files/2603.got.cif
#   From: 2010.03.12/outbox.cif.g09.slc.cpg/sg187_2_cif.got.tgz:2603.got - 2010.04.01 11:58:23.
