data_PCOD8327223
_publ_section_title
;
Structure prediction by ZEFSAII (Michael W. Deem and Ramdas Pophale) SiO2 
 PCOD8327223
Probable space group: P -6 M 2
;
_chemical_formula_sum "Si O2"
_cell_formula_units_Z 78
_cell_length_a 17.037774
_cell_length_b 17.037774
_cell_length_c 18.356580
_cell_angle_alpha 90.000000
_cell_angle_beta 90.000000
_cell_angle_gamma 120.000000
_cell_volume 4614.749266
_symmetry_space_group_name_H-M "P -6 M 2"
_symmetry_group_IT_number 187
_symmetry_cell_setting 'hexagonal'
loop_
_space_group_symop_operation_xyz
x,y,z
-x+y,-x,-z
-y,x-y,z
x,y,-z
-x+y,-x,z
-y,x-y,-z
-y,-x,-z
-x+y,y,-z
x,x-y,-z
-x+y,y,z
x,x-y,z
-y,-x,z
loop_
_atom_site_type_symbol
_atom_site_label
_atom_site_fract_x
_atom_site_fract_y
_atom_site_fract_z
Si Si1 0.755020 0.695343 0.287540
Si Si2 0.998290 0.179963 0.000000
Si Si3 0.159082 0.492072 0.913415
Si Si4 0.667385 0.151416 0.218524
Si Si5 0.959796 0.573426 0.080642
Si Si6 0.000409 0.183164 0.582536
Si Si7 0.185224 0.000920 0.842986
O O1 0.850859 0.701717 0.282149
O O2 0.678610 0.589712 0.279703
O O3 0.746731 0.736929 0.364312
O O4 0.747539 0.751517 0.219654
O O5 0.987339 0.221859 0.076906
O O6 0.097184 0.194367 0.000000
O O7 0.926955 0.073046 0.000000
O O8 0.236123 0.472246 0.881601
O O9 0.175501 0.587751 0.881478
O O10 0.059833 0.409486 0.891856
O O11 0.165233 0.498823 0.000000
O O12 0.570901 0.141801 0.232546
O O13 0.744054 0.255947 0.225029
O O14 0.677119 0.116345 0.138787
O O15 0.962482 0.481241 0.074627
O O16 0.936611 0.596724 0.000000
O O17 0.002832 0.216416 0.500000
O O18 0.918676 0.081325 0.593585
O O19 0.091503 0.183006 0.602982
O O20 0.167739 0.083870 0.829094
O O21 0.089215 0.910786 0.840876
#
# Coordination Sequence:
#
# PCOD8327223 Si02
#       7
#    12   6  12  12  12  12  12
#     4   9  18  30  43  64  91 117 147 185 230 276
#     4   8  13  20  32  50  75 112 158 196 216 230
#     4   8  12  19  34  56  82 110 139 166 196 245
#     4  10  20  35  52  66  79 102 143 196 253 309
#     4   8  15  28  44  63  86 110 138 183 242 292
#     4   9  16  27  46  73 105 138 166 186 204 236
#     4   9  15  24  38  58  86 121 158 189 213 244
#
# _framework density 16.902327
#
# number of rings (size 3 to 8) (size 9 to 14) (size 15 to 20)
#    0.000    3.231    0.000    2.077    0.000    2.769 
#    1.385    3.077    0.000    1.385    0.000    0.000 
#    0.000    1.231    0.000    4.154    0.000   10.000 
#
# Total GULP energy -966428.505468 kJ/mol
# GULP energy per Si atom -12390.109044 kJ/mol
# Density = 1.686386 g / cm^3
# Si number density = 16.902327 Si / 1000 Ang^3
#
#
#
# Elastic Constant Matrix: (Units=GPa)
#
#
# Indices 1 2 3 4 5 6 
#
# 1 63.4030 32.4789 43.9843 0.0000 0.0002 0.0000
# 2 32.4789 63.4030 43.9843 0.0000 -0.0002 0.0000
# 3 43.9843 43.9843 104.9015 0.0000 0.0000 0.0000
# 4 0.0000 0.0000 0.0000 18.7906 0.0000 -0.0002
# 5 0.0002 -0.0002 0.0000 0.0000 18.7906 0.0000
# 6 0.0000 0.0000 0.0000 -0.0002 0.0000 15.4620
#
#
#
# Elastic Compliance Matrix: (Units=1/GPa)
#
#
# Indices 1 2 3 4 5 6 
#
# 1 0.024644 -0.007694 -0.007107 0.000000 0.000000 0.000000
# 2 -0.007694 0.024644 -0.007107 0.000000 0.000000 0.000000
# 3 -0.007107 -0.007107 0.015493 0.000000 0.000000 0.000000
# 4 0.000000 0.000000 0.000000 0.053218 0.000000 0.000001
# 5 0.000000 0.000000 0.000000 0.000000 0.053218 0.000000
# 6 0.000000 0.000000 0.000000 0.000001 0.000000 0.064674
#
#
# Mechanical properties :
#
#
# Convention : Reuss Voigt Hill
#
# Bulk Modulus (GPa) = 47.69968 52.51142 50.10555
# Shear Modulus (GPa) = 17.44024 18.02600 17.73312
#
# Velocity S-wave (km/s) = 3.21569 3.26924 3.24258
# Velocity P-wave (km/s) = 6.48611 6.73689 6.61268
#
# Compressibility (1/GPa) = 0.02096450
#
# Stress axis : x y z
#
# Youngs Moduli (GPa) = 40.57855 40.57855 64.54727
#
# Poissons Ratio (x) = 0.31220 0.45873
# Poissons Ratio (y) = 0.31220 0.45873
# Poissons Ratio (z) = 0.28839 0.28839
#
# Static dielectric constant tensor:
#      x y z
#    x 3.134400 0.000000 0.000000 
#    y 0.000000 3.134400 0.000000 
#    z 0.000000 0.000000 3.272070 
# 
# 
# High freq. dielectric constant tensor:
#      x y z
#    x 1.640040 0.000000 0.000000 
#    y 0.000000 1.640040 0.000000 
#    z 0.000000 0.000000 1.616980 
# 
# From -- ./inp_files/3178.got.cif
#   From: 2010.03.12/outbox.cif.g09.slc.cpg/sg187_2_cif.got.tgz:3178.got - 2010.04.01 11:58:23.
