data_PCOD8327676
_publ_section_title
;
Structure prediction by ZEFSAII (Michael W. Deem and Ramdas Pophale) SiO2 
 PCOD8327676
Probable space group: P -6 2 M
;
_chemical_formula_sum "Si O2"
_cell_formula_units_Z 72
_cell_length_a 15.112533
_cell_length_b 15.112533
_cell_length_c 21.604617
_cell_angle_alpha 90.000000
_cell_angle_beta 90.000000
_cell_angle_gamma 120.000000
_cell_volume 4273.185320
_symmetry_space_group_name_H-M "P -6 2 M"
_symmetry_group_IT_number 189
_symmetry_cell_setting 'hexagonal'
loop_
_space_group_symop_operation_xyz
x,y,z
-x+y,-x,-z
-y,x-y,z
x,y,-z
-x+y,-x,z
-y,x-y,-z
x-y,-y,-z
-x,-x+y,-z
y,x,-z
y,x,z
x-y,-y,z
-x,-x+y,z
loop_
_atom_site_type_symbol
_atom_site_label
_atom_site_fract_x
_atom_site_fract_y
_atom_site_fract_z
Si Si1 0.699571 0.458005 0.825791
Si Si2 0.796191 0.415807 0.500000
Si Si3 0.117039 0.879668 0.000000
Si Si4 0.669178 0.788624 0.123177
Si Si5 0.240801 0.120678 0.252635
Si Si6 0.763612 0.543386 0.692901
Si Si7 0.563244 0.117801 0.368558
O O1 0.584085 0.363357 0.835023
O O2 0.723672 0.546515 0.874617
O O3 0.706980 0.500853 0.757471
O O4 0.739558 0.291597 0.500000
O O5 0.866874 0.462595 0.440168
O O6 0.143121 0.838127 0.061767
O O7 0.000000 0.846550 0.000000
O O8 0.178324 0.000000 0.000000
O O9 0.708740 0.708740 0.119161
O O10 0.716745 0.861844 0.182538
O O11 0.170114 0.170114 0.264189
O O12 0.334038 0.169174 0.301786
O O13 0.174025 0.000000 0.264287
O O14 0.674970 0.512381 0.642347
O O15 0.828634 0.490259 0.675203
O O16 0.504724 0.000000 0.351232
#
# Coordination Sequence:
#
# PCOD8327676 Si02
#       7
#    12   6   6  12  12  12  12
#     4   9  17  33  54  73 100 141 169 203 248 304
#     4  10  19  36  54  68 104 140 164 218 253 290
#     4  10  19  34  54  74  98 132 171 218 266 316
#     4   9  19  33  51  75 104 131 170 220 265 308
#     4  10  20  34  51  75 106 138 172 214 264 313
#     4  11  19  35  51  80 107 132 171 216 246 310
#     4  12  21  33  55  77 103 138 168 207 263 304
#
# _framework density 16.849257999999999
#
# number of rings (size 3 to 8) (size 9 to 14) (size 15 to 20)
#    0.500    1.333    3.333    2.333    0.000    0.667 
#    0.000    4.167    0.000    1.000    0.000    0.000 
#    0.000    0.000    0.000    7.167    0.000    0.000 
#
# Total GULP energy -892660.196243 kJ/mol
# GULP energy per Si atom -12398.058281 kJ/mol
# Density = 1.681091 g / cm^3
# Si number density = 16.849258 Si / 1000 Ang^3
#
#
#
# Elastic Constant Matrix: (Units=GPa)
#
#
# Indices 1 2 3 4 5 6 
#
# 1 86.0682 24.7919 24.2389 0.0000 0.0000 0.0000
# 2 24.7919 86.0682 24.2389 0.0000 0.0000 0.0000
# 3 24.2389 24.2389 57.4774 0.0000 0.0000 0.0000
# 4 0.0000 0.0000 0.0000 14.1890 0.0000 0.0000
# 5 0.0000 0.0000 0.0000 0.0000 14.1890 0.0000
# 6 0.0000 0.0000 0.0000 0.0000 0.0000 30.6381
#
#
#
# Elastic Compliance Matrix: (Units=1/GPa)
#
#
# Indices 1 2 3 4 5 6 
#
# 1 0.013690 -0.002630 -0.004664 0.000000 0.000000 0.000000
# 2 -0.002630 0.013690 -0.004664 0.000000 0.000000 0.000000
# 3 -0.004664 -0.004664 0.021332 0.000000 0.000000 0.000000
# 4 0.000000 0.000000 0.000000 0.070477 0.000000 0.000000
# 5 0.000000 0.000000 0.000000 0.000000 0.070477 0.000000
# 6 0.000000 0.000000 0.000000 0.000000 0.000000 0.032639
#
#
# Mechanical properties :
#
#
# Convention : Reuss Voigt Hill
#
# Bulk Modulus (GPa) = 40.33005 41.79480 41.06242
# Shear Modulus (GPa) = 19.64742 22.22614 20.93678
#
# Velocity S-wave (km/s) = 3.41848 3.63591 3.52887
# Velocity P-wave (km/s) = 6.29040 6.51808 6.40525
#
# Compressibility (1/GPa) = 0.02479541
#
# Stress axis : x y z
#
# Youngs Moduli (GPa) = 73.04742 73.04742 46.87798
#
# Poissons Ratio (x) = 0.19210 0.21864
# Poissons Ratio (y) = 0.19210 0.21864
# Poissons Ratio (z) = 0.34070 0.34070
#
# Static dielectric constant tensor:
#      x y z
#    x 3.120560 0.000000 0.000000 
#    y 0.000000 3.120560 0.000000 
#    z 0.000000 0.000000 3.152860 
# 
# 
# High freq. dielectric constant tensor:
#      x y z
#    x 1.645930 0.000000 0.000000 
#    y 0.000000 1.645930 0.000000 
#    z 0.000000 0.000000 1.638270 
# 
# From -- ./inp_files/3448.got.cif
#   From: 2010.03.12/outbox.cif.g09.slc.cpg/sg189_2_cif.got.tgz:3448.got - 2010.04.01 12:03:36.
