data_PCOD8327419
_publ_section_title
;
Structure prediction by ZEFSAII (Michael W. Deem and Ramdas Pophale) SiO2 
 PCOD8327419
Probable space group: P -6 C 2
;
_chemical_formula_sum "Si O2"
_cell_formula_units_Z 66
_cell_length_a 11.833058
_cell_length_b 11.833058
_cell_length_c 26.650195
_cell_angle_alpha 90.000000
_cell_angle_beta 90.000000
_cell_angle_gamma 120.000000
_cell_volume 3231.655137
_symmetry_space_group_name_H-M "P -6 C 2"
_symmetry_group_IT_number 188
_symmetry_cell_setting 'hexagonal'
loop_
_space_group_symop_operation_xyz
x,y,z
-x+y,-x,1/2-z
-y,x-y,z
x,y,1/2-z
-x+y,-x,z
-y,x-y,1/2-z
-y,-x,-z
-x+y,y,-z
x,x-y,-z
-x+y,y,1/2+z
x,x-y,1/2+z
-y,-x,1/2+z
loop_
_atom_site_type_symbol
_atom_site_label
_atom_site_fract_x
_atom_site_fract_y
_atom_site_fract_z
Si Si1 0.129299 0.160764 0.750000
Si Si2 0.244297 0.001894 0.987777
Si Si3 0.378706 0.445805 0.193402
Si Si4 0.104052 0.720383 0.829824
Si Si5 0.684496 0.587882 0.603869
Si Si6 0.931691 0.349605 0.080206
O O1 0.201074 0.248964 0.798712
O O2 0.139370 0.027582 0.750000
O O3 0.371455 0.054557 0.023008
O O4 0.147901 0.852100 0.000000
O O5 0.176656 0.088328 0.000000
O O6 0.281350 0.016633 0.929174
O O7 0.339054 0.393849 0.250000
O O8 0.515106 0.580885 0.194284
O O9 0.261556 0.459737 0.168625
O O10 0.389429 0.335436 0.161927
O O11 0.044055 0.696262 0.885671
O O12 0.546509 0.488158 0.579670
O O13 0.789304 0.540401 0.602350
#
# Coordination Sequence:
#
# PCOD8327419 Si02
#       6
#     6  12  12  12  12  12
#     4  10  24  38  58  88 126 164 200 254 308 372
#     4  10  20  38  59  85 115 149 190 243 303 365
#     4  11  21  37  60  85 119 161 209 255 299 363
#     4  11  22  39  60  90 120 165 211 257 311 362
#     4  10  22  37  60  84 116 156 193 247 299 362
#     4  10  22  38  61  87 120 154 203 249 304 372
#
# _framework density 20.422972999999999
#
# number of rings (size 3 to 8) (size 9 to 14) (size 15 to 20)
#    0.182    1.455    1.818    2.545    2.545    0.000 
#    0.000    1.818    0.000    5.091    0.000    0.000 
#    0.000    0.000    0.000    0.000    0.000    0.000 
#
# Total GULP energy -818282.101263 kJ/mol
# GULP energy per Si atom -12398.213656 kJ/mol
# Density = 2.037649 g / cm^3
# Si number density = 20.422973 Si / 1000 Ang^3
#
#
#
# Elastic Constant Matrix: (Units=GPa)
#
#
# Indices 1 2 3 4 5 6 
#
# 1 87.1467 29.3862 25.6211 0.0000 0.0000 0.0000
# 2 29.3862 87.1467 25.6211 0.0000 0.0000 0.0000
# 3 25.6211 25.6211 78.1919 0.0000 0.0000 0.0000
# 4 0.0000 0.0000 0.0000 19.9119 0.0000 0.0000
# 5 0.0000 0.0000 0.0000 0.0000 19.9119 0.0000
# 6 0.0000 0.0000 0.0000 0.0000 0.0000 28.8803
#
#
#
# Elastic Compliance Matrix: (Units=1/GPa)
#
#
# Indices 1 2 3 4 5 6 
#
# 1 0.013669 -0.003644 -0.003285 0.000000 0.000000 0.000000
# 2 -0.003644 0.013669 -0.003285 0.000000 0.000000 0.000000
# 3 -0.003285 -0.003285 0.014942 0.000000 0.000000 0.000000
# 4 0.000000 0.000000 0.000000 0.050221 0.000000 0.000000
# 5 0.000000 0.000000 0.000000 0.000000 0.050221 0.000000
# 6 0.000000 0.000000 0.000000 0.000000 0.000000 0.034626
#
#
# Mechanical properties :
#
#
# Convention : Reuss Voigt Hill
#
# Bulk Modulus (GPa) = 45.76037 45.97133 45.86585
# Shear Modulus (GPa) = 24.38300 25.19794 24.79047
#
# Velocity S-wave (km/s) = 3.45904 3.51636 3.48782
# Velocity P-wave (km/s) = 6.19744 6.24859 6.22307
#
# Compressibility (1/GPa) = 0.02185297
#
# Stress axis : x y z
#
# Youngs Moduli (GPa) = 73.15641 73.15641 66.92570
#
# Poissons Ratio (x) = 0.26655 0.21986
# Poissons Ratio (y) = 0.26655 0.21986
# Poissons Ratio (z) = 0.24033 0.24033
#
# Static dielectric constant tensor:
#      x y z
#    x 3.624720 0.000000 0.000000 
#    y 0.000000 3.624720 0.000000 
#    z 0.000000 0.000000 3.686000 
# 
# 
# High freq. dielectric constant tensor:
#      x y z
#    x 1.795470 0.000000 0.000000 
#    y 0.000000 1.795470 0.000000 
#    z 0.000000 0.000000 1.800920 
# 
# From -- ./inp_files/4480.got.cif
#   From: 2010.03.12/outbox.cif.g09.slc.cpg/sg188_3_cif.got.tgz:4480.got - 2010.04.01 12:01:06.
