data_PCOD8327353
_publ_section_title
;
Structure prediction by ZEFSAII (Michael W. Deem and Ramdas Pophale) SiO2 
 PCOD8327353
Probable space group: P -6 C 2
;
_chemical_formula_sum "Si O2"
_cell_formula_units_Z 56
_cell_length_a 14.414685
_cell_length_b 14.414685
_cell_length_c 17.521546
_cell_angle_alpha 90.000000
_cell_angle_beta 90.000000
_cell_angle_gamma 120.000000
_cell_volume 3152.923021
_symmetry_space_group_name_H-M "P -6 C 2"
_symmetry_group_IT_number 188
_symmetry_cell_setting 'hexagonal'
loop_
_space_group_symop_operation_xyz
x,y,z
-x+y,-x,1/2-z
-y,x-y,z
x,y,1/2-z
-x+y,-x,z
-y,x-y,1/2-z
-y,-x,-z
-x+y,y,-z
x,x-y,-z
-x+y,y,1/2+z
x,x-y,1/2+z
-y,-x,1/2+z
loop_
_atom_site_type_symbol
_atom_site_label
_atom_site_fract_x
_atom_site_fract_y
_atom_site_fract_z
Si Si1 0.994876 0.625772 0.159945
Si Si2 0.769965 0.219276 0.089876
Si Si3 0.225986 0.431291 0.659817
Si Si4 0.333335 0.666667 0.841572
Si Si5 0.419022 0.404541 0.840207
Si Si6 0.666668 0.333335 0.659780
O O1 0.973996 0.622039 0.250000
O O2 0.901656 0.634880 0.115128
O O3 0.004343 0.521560 0.135674
O O4 0.101234 0.737285 0.135924
O O5 0.883933 0.307006 0.120987
O O6 0.676606 0.234770 0.127842
O O7 0.769738 0.230263 0.000000
O O8 0.234950 0.441136 0.750000
O O9 0.270325 0.548206 0.624621
O O10 0.304021 0.387752 0.631766
O O11 0.333334 0.666668 0.750000
O O12 0.422543 0.391332 0.750000
O O13 0.666667 0.333334 0.750000
#
# Coordination Sequence:
#
# PCOD8327353 Si02
#       6
#    12  12  12   4  12   4
#     4  10  19  32  54  81 110 143 179 221 270 319
#     4  12  24  36  51  76 111 148 185 221 268 327
#     4   9  16  28  50  83 114 140 173 213 259 316
#     4   9  12  21  45  81 115 134 157 198 250 308
#     4  10  19  32  54  81 110 143 179 221 270 319
#     4  12  22  35  55  78 106 140 181 228 277 323
#
# _framework density 17.761296999999999
#
# number of rings (size 3 to 8) (size 9 to 14) (size 15 to 20)
#    0.000    1.714    4.286    2.571    0.000    0.000 
#    0.000    1.071    0.000    0.857    0.000    3.000 
#    0.000    0.000    0.000    0.000    0.000    0.000 
#
# Total GULP energy -693995.198413 kJ/mol
# GULP energy per Si atom -12392.771400 kJ/mol
# Density = 1.772087 g / cm^3
# Si number density = 17.761297 Si / 1000 Ang^3
#
#
#
# Elastic Constant Matrix: (Units=GPa)
#
#
# Indices 1 2 3 4 5 6 
#
# 1 101.2485 37.6773 34.1148 0.0000 -0.0004 0.0000
# 2 37.6773 101.2477 34.1138 -0.0005 0.0005 -0.0002
# 3 34.1148 34.1138 62.9971 0.0002 0.0002 -0.0003
# 4 0.0000 -0.0005 0.0002 10.0514 0.0009 -0.0005
# 5 -0.0004 0.0005 0.0002 0.0009 10.0496 -0.0006
# 6 0.0000 -0.0002 -0.0003 -0.0005 -0.0006 31.7842
#
#
#
# Elastic Compliance Matrix: (Units=1/GPa)
#
#
# Indices 1 2 3 4 5 6 
#
# 1 0.012768 -0.002962 -0.005310 0.000000 0.000001 0.000000
# 2 -0.002962 0.012768 -0.005310 0.000001 -0.000001 0.000000
# 3 -0.005310 -0.005310 0.021625 -0.000001 0.000000 0.000000
# 4 0.000000 0.000001 -0.000001 0.099489 -0.000009 0.000001
# 5 0.000001 -0.000001 0.000000 -0.000009 0.099506 0.000002
# 6 0.000000 0.000000 0.000000 0.000001 0.000002 0.031462
#
#
# Mechanical properties :
#
#
# Convention : Reuss Voigt Hill
#
# Bulk Modulus (GPa) = 50.00939 53.03391 51.52165
# Shear Modulus (GPa) = 16.05400 21.01621 18.53510
#
# Velocity S-wave (km/s) = 3.00971 3.44358 3.23393
# Velocity P-wave (km/s) = 6.34786 6.76277 6.55860
#
# Compressibility (1/GPa) = 0.01999624
#
# Stress axis : x y z
#
# Youngs Moduli (GPa) = 78.31908 78.31929 46.24299
#
# Poissons Ratio (x) = 0.23200 0.24556
# Poissons Ratio (y) = 0.23200 0.24555
# Poissons Ratio (z) = 0.41590 0.41588
#
# Static dielectric constant tensor:
#      x y z
#    x 3.412130 0.000000 0.000000 
#    y 0.000000 3.412130 0.000000 
#    z 0.000000 0.000000 2.972820 
# 
# 
# High freq. dielectric constant tensor:
#      x y z
#    x 1.681610 0.000000 0.000000 
#    y 0.000000 1.681610 0.000000 
#    z 0.000000 0.000000 1.654010 
# 
# From -- ./inp_files/3020.got.cif
#   From: 2010.03.12/outbox.cif.g09.slc.cpg/sg188_2_cif.got.tgz:3020.got - 2010.04.01 12:01:06.
