data_PCOD8327120
_publ_section_title
;
Structure prediction by ZEFSAII (Michael W. Deem and Ramdas Pophale) SiO2 
 PCOD8327120
Probable space group: P -6 M 2
;
_chemical_formula_sum "Si O2"
_cell_formula_units_Z 72
_cell_length_a 12.551008
_cell_length_b 12.551008
_cell_length_c 31.410681
_cell_angle_alpha 90.000000
_cell_angle_beta 90.000000
_cell_angle_gamma 120.000000
_cell_volume 4285.141790
_symmetry_space_group_name_H-M "P -6 M 2"
_symmetry_group_IT_number 187
_symmetry_cell_setting 'hexagonal'
loop_
_space_group_symop_operation_xyz
x,y,z
-x+y,-x,-z
-y,x-y,z
x,y,-z
-x+y,-x,z
-y,x-y,-z
-y,-x,-z
-x+y,y,-z
x,x-y,-z
-x+y,y,z
x,x-y,z
-y,-x,z
loop_
_atom_site_type_symbol
_atom_site_label
_atom_site_fract_x
_atom_site_fract_y
_atom_site_fract_z
Si Si1 0.664068 0.082249 0.342246
Si Si2 0.664045 0.582170 0.842346
Si Si3 0.664829 0.580843 0.000000
Si Si4 0.909372 0.573748 0.750018
Si Si5 0.582300 0.916256 0.919722
Si Si6 0.248876 0.998623 0.500000
Si Si7 0.583657 0.915965 0.580136
O O1 0.558963 0.117926 0.350441
O O2 0.795148 0.204853 0.346787
O O3 0.646510 0.019154 0.294908
O O4 0.652637 0.982316 0.376329
O O5 0.794452 0.588904 0.846781
O O6 0.558175 0.441826 0.851331
O O7 0.646343 0.627116 0.794951
O O8 0.653223 0.671300 0.876304
O O9 0.653511 0.647961 0.958554
O O10 0.562350 0.437651 0.000000
O O11 0.796534 0.593068 0.000000
O O12 0.800760 0.601519 0.749976
O O13 0.854704 0.427352 0.750065
O O14 0.440975 0.881949 0.918201
O O15 0.586240 0.793120 0.926084
O O16 0.107031 0.892970 0.500000
O O17 0.318522 0.990225 0.458670
O O18 0.256591 0.128296 0.500000
O O19 0.457348 0.914695 0.573964
O O20 0.553239 0.776620 0.581345
#
# Coordination Sequence:
#
# PCOD8327120 Si02
#       7
#    12  12   6  12  12   6  12
#     4   9  16  27  45  69  96 123 152 190 237 286
#     4   9  16  27  46  71  96 120 149 191 241 287
#     4  10  20  34  54  78 100 118 140 180 234 284
#     4   8  13  22  39  65  94 121 149 184 232 286
#     4  10  20  33  49  68  93 126 161 193 222 261
#     4  10  20  34  52  72  92 114 144 186 234 278
#     4  10  20  33  49  68  93 126 161 193 222 261
#
# _framework density 16.802244999999999
#
# number of rings (size 3 to 8) (size 9 to 14) (size 15 to 20)
#    0.000    2.667    0.000    2.500    0.000    2.667 
#    0.000    4.167    0.000    7.333    0.000    2.333 
#    0.000    0.000    0.000    0.000    0.000    0.000 
#
# Total GULP energy -892151.917362 kJ/mol
# GULP energy per Si atom -12390.998852 kJ/mol
# Density = 1.676400 g / cm^3
# Si number density = 16.802245 Si / 1000 Ang^3
#
#
#
# Elastic Constant Matrix: (Units=GPa)
#
#
# Indices 1 2 3 4 5 6 
#
# 1 80.3617 47.3787 58.5830 0.0000 -0.0002 0.0000
# 2 47.3787 80.3617 58.5830 0.0000 0.0002 0.0000
# 3 58.5830 58.5830 171.5881 0.0000 0.0000 0.0000
# 4 0.0000 0.0000 0.0000 9.2571 0.0000 0.0002
# 5 -0.0002 0.0002 0.0000 0.0000 9.2571 0.0000
# 6 0.0000 0.0000 0.0000 0.0002 0.0000 16.4915
#
#
#
# Elastic Compliance Matrix: (Units=1/GPa)
#
#
# Indices 1 2 3 4 5 6 
#
# 1 0.020858 -0.009461 -0.003891 0.000000 0.000001 0.000000
# 2 -0.009461 0.020858 -0.003891 0.000000 -0.000001 0.000000
# 3 -0.003891 -0.003891 0.008485 0.000000 0.000000 0.000000
# 4 0.000000 0.000000 0.000000 0.108026 0.000000 -0.000001
# 5 0.000001 -0.000001 0.000000 0.000000 0.108026 0.000000
# 6 0.000000 0.000000 0.000000 -0.000001 0.000000 0.060637
#
#
# Mechanical properties :
#
#
# Convention : Reuss Voigt Hill
#
# Bulk Modulus (GPa) = 63.63391 73.48898 68.56144
# Shear Modulus (GPa) = 13.63831 18.18559 15.91195
#
# Velocity S-wave (km/s) = 2.85212 3.29345 3.08070
# Velocity P-wave (km/s) = 6.98574 7.63511 7.31763
#
# Compressibility (1/GPa) = 0.01571489
#
# Stress axis : x y z
#
# Youngs Moduli (GPa) = 47.94302 47.94302 117.85467
#
# Poissons Ratio (x) = 0.45357 0.45861
# Poissons Ratio (y) = 0.45357 0.45861
# Poissons Ratio (z) = 0.18656 0.18656
#
# Static dielectric constant tensor:
#      x y z
#    x 2.893070 0.000000 0.000000 
#    y 0.000000 2.893070 0.000000 
#    z 0.000000 0.000000 3.796350 
# 
# 
# High freq. dielectric constant tensor:
#      x y z
#    x 1.622610 0.000000 0.000000 
#    y 0.000000 1.622610 0.000000 
#    z 0.000000 0.000000 1.678810 
# 
# From -- ./inp_files/4609.got.cif
#   From: 2010.03.12/outbox.cif.g09.slc.cpg/sg187_3_cif.got.tgz:4609.got - 2010.04.01 11:58:23.
