data_PCOD8327897
_publ_section_title
;
Structure prediction by ZEFSAII (Michael W. Deem and Ramdas Pophale) SiO2 
 PCOD8327897
Probable space group: P -6 2 M
;
_chemical_formula_sum "Si O2"
_cell_formula_units_Z 72
_cell_length_a 15.471326
_cell_length_b 15.471326
_cell_length_c 15.430660
_cell_angle_alpha 90.000000
_cell_angle_beta 90.000000
_cell_angle_gamma 120.000000
_cell_volume 3198.675681
_symmetry_space_group_name_H-M "P -6 2 M"
_symmetry_group_IT_number 189
_symmetry_cell_setting 'hexagonal'
loop_
_space_group_symop_operation_xyz
x,y,z
-x+y,-x,-z
-y,x-y,z
x,y,-z
-x+y,-x,z
-y,x-y,-z
x-y,-y,-z
-x,-x+y,-z
y,x,-z
y,x,z
x-y,-y,z
-x,-x+y,z
loop_
_atom_site_type_symbol
_atom_site_label
_atom_site_fract_x
_atom_site_fract_y
_atom_site_fract_z
Si Si1 0.112442 0.853865 0.406530
Si Si2 0.111478 0.558239 0.135115
Si Si3 0.741248 0.216422 0.405215
Si Si4 0.528020 0.112627 0.666407
Si Si5 0.215116 0.789024 0.096363
Si Si6 0.110643 0.230445 0.214799
O O1 0.162798 0.909457 0.500000
O O2 0.119043 0.753293 0.401341
O O3 0.155470 0.911238 0.315892
O O4 0.000000 0.828350 0.411357
O O5 0.106728 0.560353 0.237773
O O6 0.171243 0.671198 0.103664
O O7 0.161613 0.494891 0.105398
O O8 0.000000 0.505918 0.096233
O O9 0.767589 0.266841 0.500000
O O10 0.627426 0.179966 0.387334
O O11 0.823401 0.295405 0.338238
O O12 0.458672 0.000000 0.629247
O O13 0.168235 0.831351 0.166294
O O14 0.190962 0.812537 0.000000
O O15 0.175560 0.175560 0.205183
O O16 0.000000 0.163030 0.173381
#
# Coordination Sequence:
#
# PCOD8327897 Si02
#       6
#    12  12  12  12  12  12
#     4   9  19  37  61  88 120 162 212 265 318 370
#     4  11  24  43  68  95 125 164 211 264 319 379
#     4  11  22  35  54  83 123 166 209 261 317 378
#     4  11  23  39  60  86 119 163 213 263 316 377
#     4  12  26  44  68  98 132 168 209 263 324 387
#     4  11  24  43  67  96 131 172 218 266 318 378
#
# _framework density 22.509316999999999
#
# number of rings (size 3 to 8) (size 9 to 14) (size 15 to 20)
#    0.000    1.167    0.000    6.333    0.000   10.333 
#    0.000    1.667    0.000    2.000    0.000    0.000 
#    0.000    0.000    0.000    0.000    0.000    0.000 
#
# Total GULP energy -891985.985385 kJ/mol
# GULP energy per Si atom -12388.694241 kJ/mol
# Density = 2.245808 g / cm^3
# Si number density = 22.509317 Si / 1000 Ang^3
#
#
#
# Elastic Constant Matrix: (Units=GPa)
#
#
# Indices 1 2 3 4 5 6 
#
# 1 124.3639 51.3917 33.2857 0.0000 0.0000 0.0000
# 2 51.3917 124.3639 33.2857 0.0000 0.0000 0.0000
# 3 33.2857 33.2857 109.9837 0.0000 0.0000 0.0000
# 4 0.0000 0.0000 0.0000 -57.5901 0.0000 0.0000
# 5 0.0000 0.0000 0.0000 0.0000 -57.5900 0.0000
# 6 0.0000 0.0000 0.0000 0.0000 0.0000 36.4861
#
#
#
# Elastic Compliance Matrix: (Units=1/GPa)
#
#
# Indices 1 2 3 4 5 6 
#
# 1 0.010065 -0.003639 -0.001945 0.000000 0.000000 0.000000
# 2 -0.003639 0.010065 -0.001945 0.000000 0.000000 0.000000
# 3 -0.001945 -0.001945 0.010269 0.000000 0.000000 0.000000
# 4 0.000000 0.000000 0.000000 -0.017364 0.000000 0.000000
# 5 0.000000 0.000000 0.000000 0.000000 -0.017364 0.000000
# 6 0.000000 0.000000 0.000000 0.000000 0.000000 0.027408
#
#
# Mechanical properties :
#
#
# Convention : Reuss Voigt Hill
#
# Bulk Modulus (GPa) = 65.17771 66.07086 65.62428
# Shear Modulus (GPa) = 115.60579 0.31110 57.95845
#
# Velocity S-wave (km/s) = 7.17430 0.37217 5.07982
# Velocity P-wave (km/s) = 9.88161 5.44069 7.97644
#
# Compressibility (1/GPa) = 0.01534267
#
# Stress axis : x y z
#
# Youngs Moduli (GPa) = 99.35305 99.35305 97.37595
#
# Poissons Ratio (x) = 0.36152 0.18939
# Poissons Ratio (y) = 0.36152 0.18939
# Poissons Ratio (z) = 0.19323 0.19323
#
# Static dielectric constant tensor:
#      x y z
#    x 4.006580 0.000000 0.000000 
#    y 0.000000 4.006580 0.000000 
#    z 0.000000 0.000000 4.226280 
# 
# 
# High freq. dielectric constant tensor:
#      x y z
#    x 1.888960 0.000000 0.000000 
#    y 0.000000 1.888960 0.000000 
#    z 0.000000 0.000000 1.896430 
# 
# From -- ./inp_files/3104.got.cif
#   From: 2010.03.12/outbox.cif.g09.slc.cpg/sg189_2_cif.got.tgz:3104.got - 2010.04.01 12:03:36.
