data_PCOD8327273
_publ_section_title
;
Structure prediction by ZEFSAII (Michael W. Deem and Ramdas Pophale) SiO2 
 PCOD8327273
Probable space group: P -6 M 2
;
_chemical_formula_sum "Si O2"
_cell_formula_units_Z 84
_cell_length_a 18.084659
_cell_length_b 18.084659
_cell_length_c 13.918943
_cell_angle_alpha 90.000000
_cell_angle_beta 90.000000
_cell_angle_gamma 120.000000
_cell_volume 3942.371408
_symmetry_space_group_name_H-M "P -6 M 2"
_symmetry_group_IT_number 187
_symmetry_cell_setting 'hexagonal'
loop_
_space_group_symop_operation_xyz
x,y,z
-x+y,-x,-z
-y,x-y,z
x,y,-z
-x+y,-x,z
-y,x-y,-z
-y,-x,-z
-x+y,y,-z
x,x-y,-z
-x+y,y,z
x,x-y,z
-y,-x,z
loop_
_atom_site_type_symbol
_atom_site_label
_atom_site_fract_x
_atom_site_fract_y
_atom_site_fract_z
Si Si1 0.623032 0.014221 0.109462
Si Si2 0.529939 0.636617 0.605056
Si Si3 0.226656 0.030051 0.105056
Si Si4 0.835867 0.998862 0.306495
Si Si5 0.666667 0.502593 0.750000
Si Si6 0.347555 0.289698 0.609461
Si Si7 0.170338 0.667805 0.193505
O O1 0.710962 0.016451 0.120256
O O2 0.628756 0.094334 0.165033
O O3 0.552721 0.924031 0.152161
O O4 0.598980 0.020240 0.000000
O O5 0.522913 0.672637 0.500000
O O6 0.464709 0.535292 0.610566
O O7 0.622370 0.650213 0.620255
O O8 0.510727 0.682979 0.691409
O O9 0.262756 0.131378 0.110565
O O10 0.161080 0.983692 0.191408
O O11 0.183610 0.994032 0.000000
O O12 0.813175 0.906588 0.351095
O O13 0.780611 0.037975 0.347838
O O14 0.934520 0.065481 0.328955
O O15 0.744852 0.489704 0.786329
O O16 0.588482 0.411519 0.713672
O O17 0.704579 0.572332 0.665033
O O18 0.353572 0.265644 0.500000
O O19 0.202371 0.601186 0.171049
O O20 0.239922 0.760079 0.148903
#
# Coordination Sequence:
#
# PCOD8327273 Si02
#       7
#    12  12  12  12  12  12  12
#     4  11  23  41  67  94 125 166 212 259 311 372
#     4   9  18  35  61  93 126 159 200 255 317 376
#     4   9  18  35  61  93 126 159 200 255 317 376
#     4  11  23  40  61  89 125 168 216 267 322 379
#     4  12  25  44  69 100 134 168 206 254 313 380
#     4  11  23  41  67  94 125 166 212 259 311 372
#     4  11  23  40  61  89 125 168 216 267 322 379
#
# _framework density 21.306971000000001
#
# number of rings (size 3 to 8) (size 9 to 14) (size 15 to 20)
#    0.000    1.429    2.857    2.143    0.000    7.429 
#    0.000    2.857    0.000    5.143    0.000    0.000 
#    0.000    0.000    0.000    0.000    0.000    0.000 
#
# Total GULP energy -1041059.838998 kJ/mol
# GULP energy per Si atom -12393.569512 kJ/mol
# Density = 2.125848 g / cm^3
# Si number density = 21.306971 Si / 1000 Ang^3
#
#
#
# Elastic Constant Matrix: (Units=GPa)
#
#
# Indices 1 2 3 4 5 6 
#
# 1 111.0565 72.8517 41.9192 0.0000 0.0003 0.0000
# 2 72.8517 111.0565 41.9192 0.0000 -0.0003 0.0000
# 3 41.9192 41.9192 104.0915 0.0000 0.0000 0.0000
# 4 0.0000 0.0000 0.0000 8.6192 0.0000 -0.0003
# 5 0.0003 -0.0003 0.0000 0.0000 8.6192 0.0000
# 6 0.0000 0.0000 0.0000 -0.0003 0.0000 19.1024
#
#
#
# Elastic Compliance Matrix: (Units=1/GPa)
#
#
# Indices 1 2 3 4 5 6 
#
# 1 0.016417 -0.009757 -0.002682 0.000000 -0.000001 0.000000
# 2 -0.009757 0.016417 -0.002682 0.000000 0.000001 0.000000
# 3 -0.002682 -0.002682 0.011767 0.000000 0.000000 0.000000
# 4 0.000000 0.000000 0.000000 0.116021 0.000000 0.000002
# 5 -0.000001 0.000001 0.000000 0.000000 0.116021 0.000000
# 6 0.000000 0.000000 0.000000 0.000002 0.000000 0.052350
#
#
# Mechanical properties :
#
#
# Convention : Reuss Voigt Hill
#
# Bulk Modulus (GPa) = 69.64278 71.06497 70.35387
# Shear Modulus (GPa) = 13.73541 18.56909 16.15225
#
# Velocity S-wave (km/s) = 2.54174 2.95533 2.75630
# Velocity P-wave (km/s) = 6.43198 6.71346 6.57423
#
# Compressibility (1/GPa) = 0.01435899
#
# Stress axis : x y z
#
# Youngs Moduli (GPa) = 60.91063 60.91063 84.98173
#
# Poissons Ratio (x) = 0.59432 0.22794
# Poissons Ratio (y) = 0.59432 0.22794
# Poissons Ratio (z) = 0.16337 0.16337
#
# Static dielectric constant tensor:
#      x y z
#    x 3.774760 0.000000 0.000000 
#    y 0.000000 3.774760 0.000000 
#    z 0.000000 0.000000 4.226670 
# 
# 
# High freq. dielectric constant tensor:
#      x y z
#    x 1.834840 0.000000 0.000000 
#    y 0.000000 1.834840 0.000000 
#    z 0.000000 0.000000 1.837340 
# 
# From -- ./inp_files/2615.got.cif
#   From: 2010.03.12/outbox.cif.g09.slc.cpg/sg187_2_cif.got.tgz:2615.got - 2010.04.01 11:58:23.
