data_PCOD8327296
_publ_section_title
;
Structure prediction by ZEFSAII (Michael W. Deem and Ramdas Pophale) SiO2 
 PCOD8327296
Probable space group: P -6 M 2
;
_chemical_formula_sum "Si O2"
_cell_formula_units_Z 84
_cell_length_a 17.062488
_cell_length_b 17.062488
_cell_length_c 22.437489
_cell_angle_alpha 90.000000
_cell_angle_beta 90.000000
_cell_angle_gamma 120.000000
_cell_volume 5657.044598
_symmetry_space_group_name_H-M "P -6 M 2"
_symmetry_group_IT_number 187
_symmetry_cell_setting 'hexagonal'
loop_
_space_group_symop_operation_xyz
x,y,z
-x+y,-x,-z
-y,x-y,z
x,y,-z
-x+y,-x,z
-y,x-y,-z
-y,-x,-z
-x+y,y,-z
x,x-y,-z
-x+y,y,z
x,x-y,z
-y,-x,z
loop_
_atom_site_type_symbol
_atom_site_label
_atom_site_fract_x
_atom_site_fract_y
_atom_site_fract_z
Si Si1 0.575916 0.972336 0.857976
Si Si2 0.238797 0.297226 0.932697
Si Si3 0.847820 0.333754 0.567468
Si Si4 0.665403 0.154367 0.789962
Si Si5 0.821210 0.821801 0.178170
Si Si6 0.270334 0.909542 0.752200
Si Si7 0.607578 0.572688 0.322984
O O1 0.474561 0.949122 0.872183
O O2 0.616691 0.952762 0.917024
O O3 0.573197 0.908072 0.804197
O O4 0.639180 0.076771 0.839093
O O5 0.163662 0.327323 0.924594
O O6 0.216553 0.215017 0.887991
O O7 0.240474 0.265458 0.000000
O O8 0.881264 0.335736 0.500000
O O9 0.819499 0.409750 0.577157
O O10 0.761597 0.238403 0.582991
O O11 0.929421 0.351761 0.611523
O O12 0.596247 0.192493 0.793403
O O13 0.765804 0.234196 0.803851
O O14 0.661734 0.114837 0.724406
O O15 0.901945 0.803889 0.194751
O O16 0.742600 0.770370 0.226579
O O17 0.857308 0.928654 0.179811
O O18 0.191874 0.808127 0.738457
O O19 0.328632 0.950437 0.692101
O O20 0.501080 0.498921 0.320148
#
# Coordination Sequence:
#
# PCOD8327296 Si02
#       7
#    12  12  12  12  12  12  12
#     4   9  17  28  43  62  80 101 130 161 195 236
#     4   9  18  31  44  58  77 101 127 156 195 240
#     4   9  16  25  38  59  89 122 149 169 191 223
#     4   9  16  25  38  58  84 111 136 161 189 222
#     4   9  17  28  42  60  81 104 129 158 194 236
#     4   9  17  29  44  60  80 106 131 161 206 250
#     4   9  17  27  40  59  82 108 138 170 201 236
#
# _framework density 14.848742
#
# number of rings (size 3 to 8) (size 9 to 14) (size 15 to 20)
#    0.000    3.000    0.000    3.429    0.000    6.857 
#    0.000    1.429    0.000    6.429    0.000    0.000 
#    0.000    1.143    0.000    0.000    0.000    0.000 
#
# Total GULP energy -1041403.662993 kJ/mol
# GULP energy per Si atom -12397.662655 kJ/mol
# Density = 1.481495 g / cm^3
# Si number density = 14.848742 Si / 1000 Ang^3
#
#
#
# Elastic Constant Matrix: (Units=GPa)
#
#
# Indices 1 2 3 4 5 6 
#
# 1 77.0488 43.6403 28.0675 0.0000 0.0000 0.0000
# 2 43.6403 77.0488 28.0675 0.0000 0.0000 0.0000
# 3 28.0675 28.0675 64.4219 0.0000 0.0000 0.0000
# 4 0.0000 0.0000 0.0000 18.4829 0.0000 0.0000
# 5 0.0000 0.0000 0.0000 0.0000 18.4829 0.0000
# 6 0.0000 0.0000 0.0000 0.0000 0.0000 16.7042
#
#
#
# Elastic Compliance Matrix: (Units=1/GPa)
#
#
# Indices 1 2 3 4 5 6 
#
# 1 0.020162 -0.009771 -0.004527 0.000000 0.000000 0.000000
# 2 -0.009771 0.020162 -0.004527 0.000000 0.000000 0.000000
# 3 -0.004527 -0.004527 0.019468 0.000000 0.000000 0.000000
# 4 0.000000 0.000000 0.000000 0.054104 0.000000 0.000000
# 5 0.000000 0.000000 0.000000 0.000000 0.054104 0.000000
# 6 0.000000 0.000000 0.000000 0.000000 0.000000 0.059865
#
#
# Mechanical properties :
#
#
# Convention : Reuss Voigt Hill
#
# Bulk Modulus (GPa) = 45.16480 46.45223 45.80852
# Shear Modulus (GPa) = 18.32198 18.65027 18.48613
#
# Velocity S-wave (km/s) = 3.51651 3.54788 3.53223
# Velocity P-wave (km/s) = 6.85350 6.93792 6.89584
#
# Compressibility (1/GPa) = 0.02214113
#
# Stress axis : x y z
#
# Youngs Moduli (GPa) = 49.59811 49.59811 51.36714
#
# Poissons Ratio (x) = 0.48460 0.23256
# Poissons Ratio (y) = 0.48460 0.23256
# Poissons Ratio (z) = 0.22455 0.22455
#
# Static dielectric constant tensor:
#      x y z
#    x 2.802660 0.000000 0.000000 
#    y 0.000000 2.802660 0.000000 
#    z 0.000000 0.000000 2.826300 
# 
# 
# High freq. dielectric constant tensor:
#      x y z
#    x 1.558050 0.000000 0.000000 
#    y 0.000000 1.558050 0.000000 
#    z 0.000000 0.000000 1.549010 
# 
# From -- ./inp_files/3640.got.cif
#   From: 2010.03.12/outbox.cif.g09.slc.cpg/sg187_2_cif.got.tgz:3640.got - 2010.04.01 11:58:23.
