data_PCOD8327247
_publ_section_title
;
Structure prediction by ZEFSAII (Michael W. Deem and Ramdas Pophale) SiO2 
 PCOD8327247
Probable space group: P -6 M 2
;
_chemical_formula_sum "Si O2"
_cell_formula_units_Z 90
_cell_length_a 27.881515
_cell_length_b 27.881515
_cell_length_c 8.060828
_cell_angle_alpha 90.000000
_cell_angle_beta 90.000000
_cell_angle_gamma 120.000000
_cell_volume 5426.790084
_symmetry_space_group_name_H-M "P -6 M 2"
_symmetry_group_IT_number 187
_symmetry_cell_setting 'hexagonal'
loop_
_space_group_symop_operation_xyz
x,y,z
-x+y,-x,-z
-y,x-y,z
x,y,-z
-x+y,-x,z
-y,x-y,-z
-y,-x,-z
-x+y,y,-z
x,x-y,-z
-x+y,y,z
x,x-y,z
-y,-x,z
loop_
_atom_site_type_symbol
_atom_site_label
_atom_site_fract_x
_atom_site_fract_y
_atom_site_fract_z
Si Si1 0.851749 0.330995 0.808350
Si Si2 0.666181 0.447165 0.500000
Si Si3 0.729133 0.812970 0.189521
Si Si4 0.051327 0.648625 0.187176
Si Si5 0.247858 0.392641 0.691505
Si Si6 0.464367 0.427082 0.311014
Si Si7 0.716896 0.007070 0.685218
Si Si8 0.359560 0.234026 0.192259
O O1 0.813561 0.337866 0.671105
O O2 0.914282 0.382029 0.804107
O O3 0.853434 0.276180 0.758082
O O4 0.829844 0.327023 0.000000
O O5 0.615045 0.384956 0.500000
O O6 0.723043 0.446086 0.500000
O O7 0.751109 0.875555 0.262034
O O8 0.662784 0.779697 0.200667
O O9 0.751581 0.776641 0.283224
O O10 0.747516 0.818183 0.000000
O O11 0.114677 0.687615 0.254139
O O12 0.020235 0.592622 0.292205
O O13 0.016173 0.680287 0.194567
O O14 0.054319 0.632091 0.000000
O O15 0.244395 0.375940 0.500000
O O16 0.211956 0.423912 0.721959
O O17 0.470906 0.413026 0.500000
O O18 0.512825 0.487175 0.258011
O O19 0.693302 0.995078 0.500000
O O20 0.756454 0.072177 0.707297
O O21 0.346041 0.173021 0.240029
O O22 0.350751 0.240368 0.000000
#
# Coordination Sequence:
#
# PCOD8327247 Si02
#       8
#    12   6  12  12  12  12  12  12
#     4  11  23  41  62  83 104 129 164 204 249 311
#     4  12  27  46  66  86 106 128 155 198 258 322
#     4   9  16  26  41  60  85 120 158 191 222 257
#     4  11  20  30  45  66  94 125 160 199 239 285
#     4   9  16  26  41  61  87 121 159 195 229 265
#     4  11  22  36  53  74  99 128 163 204 254 308
#     4  11  20  29  44  66  93 122 155 194 235 280
#     4  10  21  36  52  71  95 124 159 200 248 300
#
# _framework density 16.584389000000002
#
# number of rings (size 3 to 8) (size 9 to 14) (size 15 to 20)
#    0.000    1.600    2.000    6.067    0.933    4.533 
#    0.000    0.000    0.000    0.800    0.000    0.000 
#    0.000    0.000    0.000    0.800    0.000   15.467 
#
# Total GULP energy -1115325.943955 kJ/mol
# GULP energy per Si atom -12392.510488 kJ/mol
# Density = 1.654664 g / cm^3
# Si number density = 16.584389 Si / 1000 Ang^3
#
#
#
# Elastic Constant Matrix: (Units=GPa)
#
#
# Indices 1 2 3 4 5 6 
#
# 1 67.1850 37.8627 24.4712 0.0000 -0.0001 0.0000
# 2 37.8627 67.1850 24.4712 0.0000 0.0001 0.0000
# 3 24.4712 24.4712 70.7440 0.0000 0.0000 0.0000
# 4 0.0000 0.0000 0.0000 19.4468 0.0000 0.0001
# 5 -0.0001 0.0001 0.0000 0.0000 19.4468 0.0000
# 6 0.0000 0.0000 0.0000 0.0001 0.0000 14.6611
#
#
#
# Elastic Compliance Matrix: (Units=1/GPa)
#
#
# Indices 1 2 3 4 5 6 
#
# 1 0.022726 -0.011378 -0.003926 0.000000 0.000000 0.000000
# 2 -0.011378 0.022726 -0.003926 0.000000 0.000000 0.000000
# 3 -0.003926 -0.003926 0.016851 0.000000 0.000000 0.000000
# 4 0.000000 0.000000 0.000000 0.051422 0.000000 0.000000
# 5 0.000000 0.000000 0.000000 0.000000 0.051422 0.000000
# 6 0.000000 0.000000 0.000000 0.000000 0.000000 0.068207
#
#
# Mechanical properties :
#
#
# Convention : Reuss Voigt Hill
#
# Bulk Modulus (GPa) = 41.93595 42.08047 42.00821
# Shear Modulus (GPa) = 17.87236 18.59822 18.23529
#
# Velocity S-wave (km/s) = 3.28634 3.35241 3.31954
# Velocity P-wave (km/s) = 6.30407 6.35716 6.33067
#
# Compressibility (1/GPa) = 0.02384589
#
# Stress axis : x y z
#
# Youngs Moduli (GPa) = 44.00230 44.00230 59.34274
#
# Poissons Ratio (x) = 0.50064 0.23295
# Poissons Ratio (y) = 0.50064 0.23295
# Poissons Ratio (z) = 0.17273 0.17273
#
# Static dielectric constant tensor:
#      x y z
#    x 3.156210 0.000000 0.000000 
#    y 0.000000 3.156210 0.000000 
#    z 0.000000 0.000000 3.275720 
# 
# 
# High freq. dielectric constant tensor:
#      x y z
#    x 1.610580 0.000000 0.000000 
#    y 0.000000 1.610580 0.000000 
#    z 0.000000 0.000000 1.654020 
# 
# From -- ./inp_files/1290.got.cif
#   From: 2010.03.12/outbox.cif.g09.slc.cpg/sg187_1_cif.got.tgz:1290.got - 2010.04.01 11:58:23.
