data_PCOD8327798
_publ_section_title
;
Structure prediction by ZEFSAII (Michael W. Deem and Ramdas Pophale) SiO2 
 PCOD8327798
Probable space group: P -6 2 M
;
_chemical_formula_sum "Si O2"
_cell_formula_units_Z 84
_cell_length_a 14.042287
_cell_length_b 14.042287
_cell_length_c 23.064541
_cell_angle_alpha 90.000000
_cell_angle_beta 90.000000
_cell_angle_gamma 120.000000
_cell_volume 3938.683993
_symmetry_space_group_name_H-M "P -6 2 M"
_symmetry_group_IT_number 189
_symmetry_cell_setting 'hexagonal'
loop_
_space_group_symop_operation_xyz
x,y,z
-x+y,-x,-z
-y,x-y,z
x,y,-z
-x+y,-x,z
-y,x-y,-z
x-y,-y,-z
-x,-x+y,-z
y,x,-z
y,x,z
x-y,-y,z
-x,-x+y,z
loop_
_atom_site_type_symbol
_atom_site_label
_atom_site_fract_x
_atom_site_fract_y
_atom_site_fract_z
Si Si1 0.742228 0.870929 0.634727
Si Si2 0.876367 0.668117 0.934557
Si Si3 0.447176 0.877527 0.665391
Si Si4 0.444663 0.874054 0.063456
Si Si5 0.876146 0.294411 0.152491
Si Si6 0.569108 0.767179 0.276234
Si Si7 0.869169 0.313223 0.564747
O O1 0.828914 0.828914 0.626544
O O2 0.693149 0.846776 0.700198
O O3 0.635549 0.807465 0.592542
O O4 0.803876 0.000000 0.620410
O O5 0.866209 0.550967 0.921509
O O6 0.795683 0.677918 0.889049
O O7 0.000000 0.765778 0.924152
O O8 0.839765 0.673413 0.000000
O O9 0.483901 0.799066 0.695574
O O10 0.357734 0.885840 0.705481
O O11 0.387029 0.832121 0.602666
O O12 0.552382 0.000000 0.659632
O O13 0.354728 0.822236 0.115117
O O14 0.475497 0.000000 0.059582
O O15 0.395834 0.819434 0.000000
O O16 0.797051 0.230107 0.206612
O O17 0.000000 0.378644 0.174102
O O18 0.820764 0.298911 0.500000
O O19 0.000000 0.375097 0.564341
#
# Coordination Sequence:
#
# PCOD8327798 Si02
#       7
#    12  12  12  12  12  12  12
#     4  10  20  36  58  87 125 166 205 248 300 360
#     4   9  19  36  56  80 112 149 193 246 303 366
#     4  10  21  39  60  81 115 158 194 244 306 355
#     4   8  16  33  54  77 109 146 185 238 302 363
#     4  11  22  35  56  83 114 151 198 249 305 366
#     4  11  23  38  56  83 116 154 208 257 303 362
#     4   8  16  34  60  88 118 153 195 242 291 348
#
# _framework density 21.326922
#
# number of rings (size 3 to 8) (size 9 to 14) (size 15 to 20)
#    0.000    2.429    0.000    4.286    2.000    2.286 
#    0.857    2.857    0.000    4.571    0.000    0.000 
#    0.000    0.000    0.000    0.000    0.000    0.000 
#
# Total GULP energy -1040980.248527 kJ/mol
# GULP energy per Si atom -12392.622006 kJ/mol
# Density = 2.127838 g / cm^3
# Si number density = 21.326922 Si / 1000 Ang^3
#
#
#
# Elastic Constant Matrix: (Units=GPa)
#
#
# Indices 1 2 3 4 5 6 
#
# 1 70.9403 12.9777 33.4245 0.0000 0.0000 0.0000
# 2 12.9777 70.9403 33.4245 0.0000 0.0000 0.0000
# 3 33.4245 33.4245 156.5568 0.0000 0.0000 0.0000
# 4 0.0000 0.0000 0.0000 23.2599 0.0000 0.0000
# 5 0.0000 0.0000 0.0000 0.0000 23.2599 0.0000
# 6 0.0000 0.0000 0.0000 0.0000 0.0000 28.9813
#
#
#
# Elastic Compliance Matrix: (Units=1/GPa)
#
#
# Indices 1 2 3 4 5 6 
#
# 1 0.015805 -0.001447 -0.003065 0.000000 0.000000 0.000000
# 2 -0.001447 0.015805 -0.003065 0.000000 0.000000 0.000000
# 3 -0.003065 -0.003065 0.007696 0.000000 0.000000 0.000000
# 4 0.000000 0.000000 0.000000 0.042992 0.000000 0.000000
# 5 0.000000 0.000000 0.000000 0.000000 0.042992 0.000000
# 6 0.000000 0.000000 0.000000 0.000000 0.000000 0.034505
#
#
# Mechanical properties :
#
#
# Convention : Reuss Voigt Hill
#
# Bulk Modulus (GPa) = 41.40577 50.89894 46.15236
# Shear Modulus (GPa) = 27.32188 29.67428 28.49808
#
# Velocity S-wave (km/s) = 3.58313 3.73419 3.65944
# Velocity P-wave (km/s) = 6.04775 6.51998 6.28830
#
# Compressibility (1/GPa) = 0.02415122
#
# Stress axis : x y z
#
# Youngs Moduli (GPa) = 63.26939 63.26939 129.93089
#
# Poissons Ratio (x) = 0.09156 0.39830
# Poissons Ratio (y) = 0.09156 0.39830
# Poissons Ratio (z) = 0.19395 0.19395
#
# Static dielectric constant tensor:
#      x y z
#    x 3.647550 0.000000 0.000000 
#    y 0.000000 3.647550 0.000000 
#    z 0.000000 0.000000 4.035130 
# 
# 
# High freq. dielectric constant tensor:
#      x y z
#    x 1.820210 0.000000 0.000000 
#    y 0.000000 1.820210 0.000000 
#    z 0.000000 0.000000 1.834790 
# 
# From -- ./inp_files/3631.got.cif
#   From: 2010.03.12/outbox.cif.g09.slc.cpg/sg189_2_cif.got.tgz:3631.got - 2010.04.01 12:03:36.
