data_PCOD8327631
_publ_section_title
;
Structure prediction by ZEFSAII (Michael W. Deem and Ramdas Pophale) SiO2 
 PCOD8327631
Probable space group: P -6 2 M
;
_chemical_formula_sum "Si O2"
_cell_formula_units_Z 84
_cell_length_a 13.646062
_cell_length_b 13.646062
_cell_length_c 27.058659
_cell_angle_alpha 90.000000
_cell_angle_beta 90.000000
_cell_angle_gamma 120.000000
_cell_volume 4363.666802
_symmetry_space_group_name_H-M "P -6 2 M"
_symmetry_group_IT_number 189
_symmetry_cell_setting 'hexagonal'
loop_
_space_group_symop_operation_xyz
x,y,z
-x+y,-x,-z
-y,x-y,z
x,y,-z
-x+y,-x,z
-y,x-y,-z
x-y,-y,-z
-x,-x+y,-z
y,x,-z
y,x,z
x-y,-y,z
-x,-x+y,z
loop_
_atom_site_type_symbol
_atom_site_label
_atom_site_fract_x
_atom_site_fract_y
_atom_site_fract_z
Si Si1 0.736381 0.867994 0.943512
Si Si2 0.871265 0.547688 0.558144
Si Si3 0.555918 0.431164 0.189515
Si Si4 0.808343 0.219976 0.853216
Si Si5 0.328782 0.866280 0.282597
Si Si6 0.339287 0.868436 0.394331
Si Si7 0.131168 0.261575 0.763189
O O1 0.812549 0.812549 0.930802
O O2 0.623782 0.812015 0.910003
O O3 0.811211 0.000000 0.932156
O O4 0.694621 0.845566 0.000000
O O5 0.854349 0.546204 0.500000
O O6 0.787069 0.582372 0.584093
O O7 0.841609 0.422853 0.574696
O O8 0.000000 0.638700 0.573433
O O9 0.447976 0.447976 0.196958
O O10 0.513799 0.314408 0.161785
O O11 0.646615 0.535133 0.155759
O O12 0.613658 0.434526 0.243044
O O13 0.849558 0.148351 0.820508
O O14 0.341349 0.831585 0.337848
O O15 0.197046 0.820965 0.269716
O O16 0.391550 0.000000 0.275351
O O17 0.374500 0.000000 0.398028
O O18 0.202227 0.202227 0.747981
O O19 0.000000 0.173492 0.753005
#
# Coordination Sequence:
#
# PCOD8327631 Si02
#       7
#    12  12  12  12  12  12  12
#     4  10  20  35  56  83 112 137 165 208 265 326
#     4  10  21  35  54  82 110 140 183 230 276 328
#     4  10  20  35  52  72 103 134 168 218 260 295
#     4  11  21  35  54  75  99 139 184 217 258 313
#     4   8  18  34  50  74 105 138 175 212 257 314
#     4  10  20  36  57  79 109 145 179 223 279 335
#     4  10  19  32  52  79 111 142 175 215 261 318
#
# _framework density 19.249865
#
# number of rings (size 3 to 8) (size 9 to 14) (size 15 to 20)
#    0.000    2.143    0.000    4.714    0.000    4.286 
#    0.000    3.571    0.000    2.857    0.000    0.000 
#    0.000    0.000    0.000    0.000    0.000    0.000 
#
# Total GULP energy -1041578.760082 kJ/mol
# GULP energy per Si atom -12399.747144 kJ/mol
# Density = 1.920605 g / cm^3
# Si number density = 19.249865 Si / 1000 Ang^3
#
#
#
# Elastic Constant Matrix: (Units=GPa)
#
#
# Indices 1 2 3 4 5 6 
#
# 1 84.3745 30.8142 43.2503 0.0000 0.0000 0.0000
# 2 30.8142 84.3745 43.2503 0.0000 0.0000 0.0000
# 3 43.2503 43.2503 119.1226 0.0000 0.0000 0.0000
# 4 0.0000 0.0000 0.0000 25.7688 0.0000 0.0000
# 5 0.0000 0.0000 0.0000 0.0000 25.7688 0.0000
# 6 0.0000 0.0000 0.0000 0.0000 0.0000 26.7802
#
#
#
# Elastic Compliance Matrix: (Units=1/GPa)
#
#
# Indices 1 2 3 4 5 6 
#
# 1 0.015303 -0.003367 -0.004334 0.000000 0.000000 0.000000
# 2 -0.003367 0.015303 -0.004334 0.000000 0.000000 0.000000
# 3 -0.004334 -0.004334 0.011541 0.000000 0.000000 0.000000
# 4 0.000000 0.000000 0.000000 0.038807 0.000000 0.000000
# 5 0.000000 0.000000 0.000000 0.000000 0.038807 0.000000
# 6 0.000000 0.000000 0.000000 0.000000 0.000000 0.037341
#
#
# Mechanical properties :
#
#
# Convention : Reuss Voigt Hill
#
# Bulk Modulus (GPa) = 55.31371 58.05570 56.68470
# Shear Modulus (GPa) = 26.70981 27.03402 26.87192
#
# Velocity S-wave (km/s) = 3.72900 3.75156 3.74030
# Velocity P-wave (km/s) = 6.88023 6.99930 6.94002
#
# Compressibility (1/GPa) = 0.01807870
#
# Stress axis : x y z
#
# Youngs Moduli (GPa) = 65.34628 65.34628 86.64390
#
# Poissons Ratio (x) = 0.22005 0.37547
# Poissons Ratio (y) = 0.22005 0.37547
# Poissons Ratio (z) = 0.28318 0.28318
#
# Static dielectric constant tensor:
#      x y z
#    x 3.421920 0.000000 0.000000 
#    y 0.000000 3.421920 0.000000 
#    z 0.000000 0.000000 3.532510 
# 
# 
# High freq. dielectric constant tensor:
#      x y z
#    x 1.745510 0.000000 0.000000 
#    y 0.000000 1.745510 0.000000 
#    z 0.000000 0.000000 1.740690 
# 
# From -- ./inp_files/3622.got.cif
#   From: 2010.03.12/outbox.cif.g09.slc.cpg/sg189_2_cif.got.tgz:3622.got - 2010.04.01 12:03:36.
