data_PCOD8327049
_publ_section_title
;
Structure prediction by ZEFSAII (Michael W. Deem and Ramdas Pophale) SiO2 
 PCOD8327049
Probable space group: P -6 M 2
;
_chemical_formula_sum "Si O2"
_cell_formula_units_Z 72
_cell_length_a 23.492965
_cell_length_b 23.492965
_cell_length_c 9.431354
_cell_angle_alpha 90.000000
_cell_angle_beta 90.000000
_cell_angle_gamma 120.000000
_cell_volume 4507.962983
_symmetry_space_group_name_H-M "P -6 M 2"
_symmetry_group_IT_number 187
_symmetry_cell_setting 'hexagonal'
loop_
_space_group_symop_operation_xyz
x,y,z
-x+y,-x,-z
-y,x-y,z
x,y,-z
-x+y,-x,z
-y,x-y,-z
-y,-x,-z
-x+y,y,-z
x,x-y,-z
-x+y,y,z
x,x-y,z
-y,-x,z
loop_
_atom_site_type_symbol
_atom_site_label
_atom_site_fract_x
_atom_site_fract_y
_atom_site_fract_z
Si Si1 0.554901 0.887073 0.164548
Si Si2 0.552555 0.105110 0.666221
Si Si3 0.765384 0.658989 0.162324
Si Si4 0.708033 0.854017 0.340917
Si Si5 0.040922 0.292630 0.162583
Si Si6 0.224131 0.775870 0.338399
Si Si7 0.701655 0.170727 0.665038
Si Si8 0.484220 0.515781 0.166743
O O1 0.631645 0.936020 0.194685
O O2 0.527102 0.820309 0.256979
O O3 0.517804 0.925863 0.210861
O O4 0.541977 0.866139 0.000000
O O5 0.543808 0.087615 0.500000
O O6 0.628422 0.151197 0.709245
O O7 0.518564 0.037127 0.750898
O O8 0.841654 0.683308 0.192183
O O9 0.752802 0.717775 0.201896
O O10 0.718063 0.597114 0.255987
O O11 0.746107 0.637441 0.000000
O O12 0.735525 0.867763 0.500000
O O13 0.734673 0.812016 0.260797
O O14 0.629840 0.814920 0.336598
O O15 0.055720 0.284523 0.000000
O O16 0.237587 0.762414 0.500000
O O17 0.706592 0.159887 0.500000
O O18 0.753401 0.246600 0.707660
O O19 0.492199 0.507802 0.000000
#
# Coordination Sequence:
#
# PCOD8327049 Si02
#       8
#    12   6  12   6  12   6  12   6
#     4   9  17  29  45  65  89 117 148 181 217 264
#     4  10  20  32  46  66  91 119 154 200 248 290
#     4   9  17  29  46  67  90 117 149 182 220 268
#     4   9  17  27  41  63  88 112 141 173 204 244
#     4   9  16  27  43  63  89 118 144 173 215 260
#     4   9  17  29  45  64  86 113 143 174 213 255
#     4   9  18  32  46  62  86 117 154 195 240 286
#     4  10  20  32  48  71  95 120 152 189 233 283
#
# _framework density 15.971736999999999
#
# number of rings (size 3 to 8) (size 9 to 14) (size 15 to 20)
#    0.000    2.833    0.000    1.500    0.000    5.333 
#    0.500    3.333    0.000    0.333    0.000    1.167 
#    0.833    0.000    1.500    0.000    0.500    0.000 
#
# Total GULP energy -892721.588281 kJ/mol
# GULP energy per Si atom -12398.910948 kJ/mol
# Density = 1.593538 g / cm^3
# Si number density = 15.971737 Si / 1000 Ang^3
#
#
#
# Elastic Constant Matrix: (Units=GPa)
#
#
# Indices 1 2 3 4 5 6 
#
# 1 105.1039 67.0649 56.1020 0.0000 0.0000 0.0000
# 2 67.0649 105.1039 56.1020 0.0000 0.0000 0.0000
# 3 56.1020 56.1020 72.4651 0.0000 0.0000 0.0000
# 4 0.0000 0.0000 0.0000 23.2626 0.0000 0.0000
# 5 0.0000 0.0000 0.0000 0.0000 23.2626 0.0000
# 6 0.0000 0.0000 0.0000 0.0000 0.0000 19.0195
#
#
#
# Elastic Compliance Matrix: (Units=1/GPa)
#
#
# Indices 1 2 3 4 5 6 
#
# 1 0.019006 -0.007283 -0.009076 0.000000 0.000000 0.000000
# 2 -0.007283 0.019006 -0.009076 0.000000 0.000000 0.000000
# 3 -0.009076 -0.009076 0.027853 0.000000 0.000000 0.000000
# 4 0.000000 0.000000 0.000000 0.042987 0.000000 0.000000
# 5 0.000000 0.000000 0.000000 0.000000 0.042987 0.000000
# 6 0.000000 0.000000 0.000000 0.000000 0.000000 0.052578
#
#
# Mechanical properties :
#
#
# Convention : Reuss Voigt Hill
#
# Bulk Modulus (GPa) = 66.68782 71.24565 68.96674
# Shear Modulus (GPa) = 19.20968 20.00254 19.60611
#
# Velocity S-wave (km/s) = 3.47180 3.54272 3.50744
# Velocity P-wave (km/s) = 7.61022 7.83828 7.72510
#
# Compressibility (1/GPa) = 0.01499524
#
# Stress axis : x y z
#
# Youngs Moduli (GPa) = 52.61501 52.61501 35.90290
#
# Poissons Ratio (x) = 0.38319 0.32585
# Poissons Ratio (y) = 0.38319 0.32585
# Poissons Ratio (z) = 0.47753 0.47753
#
# Static dielectric constant tensor:
#      x y z
#    x 3.009070 0.000000 0.000000 
#    y 0.000000 3.009070 0.000000 
#    z 0.000000 0.000000 3.111990 
# 
# 
# High freq. dielectric constant tensor:
#      x y z
#    x 1.599890 0.000000 0.000000 
#    y 0.000000 1.599890 0.000000 
#    z 0.000000 0.000000 1.616500 
# 
# From -- ./inp_files/1089.got.cif
#   From: 2010.03.12/outbox.cif.g09.slc.cpg/sg187_1_cif.got.tgz:1089.got - 2010.04.01 11:58:23.
