data_PCOD8327794
_publ_section_title
;
Structure prediction by ZEFSAII (Michael W. Deem and Ramdas Pophale) SiO2 
 PCOD8327794
Probable space group: P -6 2 M
;
_chemical_formula_sum "Si O2"
_cell_formula_units_Z 96
_cell_length_a 17.685586
_cell_length_b 17.685586
_cell_length_c 18.370012
_cell_angle_alpha 90.000000
_cell_angle_beta 90.000000
_cell_angle_gamma 120.000000
_cell_volume 4975.984061
_symmetry_space_group_name_H-M "P -6 2 M"
_symmetry_group_IT_number 189
_symmetry_cell_setting 'hexagonal'
loop_
_space_group_symop_operation_xyz
x,y,z
-x+y,-x,-z
-y,x-y,z
x,y,-z
-x+y,-x,z
-y,x-y,-z
x-y,-y,-z
-x,-x+y,-z
y,x,-z
y,x,z
x-y,-y,z
-x,-x+y,z
loop_
_atom_site_type_symbol
_atom_site_label
_atom_site_fract_x
_atom_site_fract_y
_atom_site_fract_z
Si Si1 0.595025 0.100309 0.694512
Si Si2 0.491709 0.590307 0.164138
Si Si3 0.444427 0.345325 0.918590
Si Si4 0.214485 0.824157 0.163206
Si Si5 0.195598 0.097669 0.154782
Si Si6 0.902607 0.803710 0.671991
Si Si7 0.392454 0.199687 0.328200
Si Si8 0.464527 0.099109 0.584074
O O1 0.568664 0.140667 0.763435
O O2 0.696930 0.146603 0.678367
O O3 0.551383 0.111486 0.622189
O O4 0.563751 0.000000 0.712988
O O5 0.563508 0.563508 0.184308
O O6 0.432033 0.536130 0.096425
O O7 0.544022 0.688907 0.134418
O O8 0.365976 0.365976 0.911020
O O9 0.431904 0.276775 0.856725
O O10 0.446265 0.311651 0.000000
O O11 0.167100 0.873574 0.127462
O O12 0.226510 0.841754 0.249104
O O13 0.161847 0.161847 0.123834
O O14 0.195269 0.100633 0.241293
O O15 0.130759 0.000000 0.126143
O O16 0.839347 0.839347 0.643730
O O17 0.870444 0.705959 0.642840
O O18 0.000000 0.866431 0.641334
O O19 0.438792 0.166538 0.383419
O O20 0.487680 0.121365 0.500000
O O21 0.385506 0.000000 0.595604
#
# Coordination Sequence:
#
# PCOD8327794 Si02
#       8
#    12  12  12  12  12  12  12  12
#     4  10  20  36  58  82 112 149 192 242 295 349
#     4  10  20  36  58  82 112 149 192 242 295 349
#     4  10  22  40  59  81 115 156 193 237 299 361
#     4  11  20  33  57  87 113 147 195 246 287 349
#     4   9  17  28  47  79 118 153 186 229 283 339
#     4   9  17  28  47  79 118 153 186 229 283 339
#     4  11  20  33  57  87 113 147 195 246 287 349
#     4  10  22  40  59  81 115 156 193 237 299 361
#
# _framework density 19.292666000000001
#
# number of rings (size 3 to 8) (size 9 to 14) (size 15 to 20)
#    0.000    2.000    2.500    1.750    0.000    4.000 
#    1.500    1.250    0.000    2.250    0.000    0.000 
#    0.000    2.000    0.000    0.000    0.000    0.000 
#
# Total GULP energy -1190191.592777 kJ/mol
# GULP energy per Si atom -12397.829091 kJ/mol
# Density = 1.924875 g / cm^3
# Si number density = 19.292666 Si / 1000 Ang^3
#
#
#
# Elastic Constant Matrix: (Units=GPa)
#
#
# Indices 1 2 3 4 5 6 
#
# 1 122.9136 60.8860 15.0127 0.0000 0.0000 0.0000
# 2 60.8860 122.9136 15.0127 0.0000 0.0000 0.0000
# 3 15.0127 15.0127 57.4879 0.0000 0.0000 0.0000
# 4 0.0000 0.0000 0.0000 17.7352 0.0000 0.0000
# 5 0.0000 0.0000 0.0000 0.0000 17.7352 0.0000
# 6 0.0000 0.0000 0.0000 0.0000 0.0000 31.0138
#
#
#
# Elastic Compliance Matrix: (Units=1/GPa)
#
#
# Indices 1 2 3 4 5 6 
#
# 1 0.010903 -0.005219 -0.001484 0.000000 0.000000 0.000000
# 2 -0.005219 0.010903 -0.001484 0.000000 0.000000 0.000000
# 3 -0.001484 -0.001484 0.018170 0.000000 0.000000 0.000000
# 4 0.000000 0.000000 0.000000 0.056385 0.000000 0.000000
# 5 0.000000 0.000000 0.000000 0.000000 0.056385 0.000000
# 6 0.000000 0.000000 0.000000 0.000000 0.000000 0.032244
#
#
# Mechanical properties :
#
#
# Convention : Reuss Voigt Hill
#
# Bulk Modulus (GPa) = 42.37308 53.90423 48.13866
# Shear Modulus (GPa) = 23.89708 27.45710 25.67709
#
# Velocity S-wave (km/s) = 3.52328 3.77661 3.65214
# Velocity P-wave (km/s) = 6.20986 6.85696 6.54142
#
# Compressibility (1/GPa) = 0.02359989
#
# Stress axis : x y z
#
# Youngs Moduli (GPa) = 91.72203 91.72203 55.03545
#
# Poissons Ratio (x) = 0.47873 0.08168
# Poissons Ratio (y) = 0.47873 0.08168
# Poissons Ratio (z) = 0.13613 0.13613
#
# Static dielectric constant tensor:
#      x y z
#    x 3.541760 0.000000 0.000000 
#    y 0.000000 3.541760 0.000000 
#    z 0.000000 0.000000 3.172480 
# 
# 
# High freq. dielectric constant tensor:
#      x y z
#    x 1.753380 0.000000 0.000000 
#    y 0.000000 1.753380 0.000000 
#    z 0.000000 0.000000 1.711910 
# 
# From -- ./inp_files/3539.got.cif
#   From: 2010.03.12/outbox.cif.g09.slc.cpg/sg189_2_cif.got.tgz:3539.got - 2010.04.01 12:03:36.
