data_PCOD8327495
_publ_section_title
;
Structure prediction by ZEFSAII (Michael W. Deem and Ramdas Pophale) SiO2 
 PCOD8327495
Probable space group: P -6 2 M
;
_chemical_formula_sum "Si O2"
_cell_formula_units_Z 76
_cell_length_a 19.897163
_cell_length_b 19.897163
_cell_length_c 13.455930
_cell_angle_alpha 90.000000
_cell_angle_beta 90.000000
_cell_angle_gamma 120.000000
_cell_volume 4613.459011
_symmetry_space_group_name_H-M "P -6 2 M"
_symmetry_group_IT_number 189
_symmetry_cell_setting 'hexagonal'
loop_
_space_group_symop_operation_xyz
x,y,z
-x+y,-x,-z
-y,x-y,z
x,y,-z
-x+y,-x,z
-y,x-y,-z
x-y,-y,-z
-x,-x+y,-z
y,x,-z
y,x,z
x-y,-y,z
-x,-x+y,z
loop_
_atom_site_type_symbol
_atom_site_label
_atom_site_fract_x
_atom_site_fract_y
_atom_site_fract_z
Si Si1 0.666667 0.333334 0.882979
Si Si2 0.657202 0.570557 0.117727
Si Si3 0.909856 0.091726 0.733448
Si Si4 0.091470 0.699516 0.794993
Si Si5 0.690088 0.908958 0.609142
Si Si6 0.685918 0.827743 0.886405
Si Si7 0.557951 0.394928 0.881762
O O1 0.595193 0.343175 0.847866
O O2 0.666667 0.333334 0.000000
O O3 0.602297 0.602297 0.156852
O O4 0.743423 0.625645 0.160672
O O5 0.618653 0.481976 0.153507
O O6 0.662835 0.572396 0.000000
O O7 0.865952 0.108635 0.644621
O O8 0.900935 0.132406 0.831849
O O9 0.000000 0.128134 0.705325
O O10 0.872300 0.000000 0.752885
O O11 0.123763 0.742737 0.688224
O O12 0.121261 0.765165 0.879588
O O13 0.117160 0.637017 0.818433
O O14 0.000000 0.656648 0.795927
O O15 0.660014 0.870772 0.500000
O O16 0.725107 0.000000 0.600949
O O17 0.704199 0.819616 0.000000
O O18 0.540458 0.390617 0.000000
#
# Coordination Sequence:
#
# PCOD8327495 Si02
#       7
#     4  12  12  12  12  12  12
#     4   9  18  30  42  60  91 131 163 183 216 267
#     4   9  17  28  42  61  87 121 157 190 225 264
#     4  10  20  32  47  68  93 123 161 203 243 280
#     4  10  19  29  45  69  91 115 150 188 228 274
#     4   8  16  32  50  67  88 112 141 182 233 285
#     4  10  19  31  45  62  91 131 165 190 224 276
#     4  10  18  28  43  66  96 123 149 186 227 267
#
# _framework density 16.473541000000001
#
# number of rings (size 3 to 8) (size 9 to 14) (size 15 to 20)
#    0.000    2.526    0.000    3.947    0.000    6.632 
#    0.000    0.000    0.000    1.895    0.000    9.947 
#    0.000   12.632    0.000    0.000    0.000    0.000 
#
# Total GULP energy -942010.902176 kJ/mol
# GULP energy per Si atom -12394.880292 kJ/mol
# Density = 1.643605 g / cm^3
# Si number density = 16.473541 Si / 1000 Ang^3
#
#
#
# Elastic Constant Matrix: (Units=GPa)
#
#
# Indices 1 2 3 4 5 6 
#
# 1 98.0337 31.6609 27.3429 0.0000 0.0000 0.0000
# 2 31.6609 98.0366 27.3435 0.0001 0.0001 0.0005
# 3 27.3429 27.3435 66.9269 0.0000 0.0000 0.0000
# 4 0.0000 0.0001 0.0000 11.4249 0.0000 -0.0001
# 5 0.0000 0.0001 0.0000 0.0000 11.4250 0.0001
# 6 0.0000 0.0005 0.0000 -0.0001 0.0001 33.1877
#
#
#
# Elastic Compliance Matrix: (Units=1/GPa)
#
#
# Indices 1 2 3 4 5 6 
#
# 1 0.012191 -0.002876 -0.003806 0.000000 0.000000 0.000000
# 2 -0.002876 0.012190 -0.003806 0.000000 0.000000 0.000000
# 3 -0.003806 -0.003806 0.018051 0.000000 0.000000 0.000000
# 4 0.000000 0.000000 0.000000 0.087528 0.000000 0.000000
# 5 0.000000 0.000000 0.000000 0.000000 0.087528 0.000000
# 6 0.000000 0.000000 0.000000 0.000000 0.000000 0.030132
#
#
# Mechanical properties :
#
#
# Convention : Reuss Voigt Hill
#
# Bulk Modulus (GPa) = 46.60130 48.41018 47.50574
# Shear Modulus (GPa) = 18.13264 22.98419 20.55841
#
# Velocity S-wave (km/s) = 3.32130 3.73931 3.53649
# Velocity P-wave (km/s) = 6.56186 6.93496 6.75099
#
# Compressibility (1/GPa) = 0.02145863
#
# Stress axis : x y z
#
# Youngs Moduli (GPa) = 82.02968 82.03198 55.39768
#
# Poissons Ratio (x) = 0.23589 0.21083
# Poissons Ratio (y) = 0.23588 0.21083
# Poissons Ratio (z) = 0.31218 0.31219
#
# Static dielectric constant tensor:
#      x y z
#    x 3.236630 0.000000 0.000000 
#    y 0.000000 3.236620 0.000000 
#    z 0.000000 0.000000 3.014090 
# 
# 
# High freq. dielectric constant tensor:
#      x y z
#    x 1.639050 0.000000 0.000000 
#    y 0.000000 1.639050 0.000000 
#    z 0.000000 0.000000 1.588510 
# 
# From -- ./inp_files/2745.got.cif
#   From: 2010.03.12/outbox.cif.g09.slc.cpg/sg189_2_cif.got.tgz:2745.got - 2010.04.01 12:03:36.
