data_PCOD8327696
_publ_section_title
;
Structure prediction by ZEFSAII (Michael W. Deem and Ramdas Pophale) SiO2 
 PCOD8327696
Probable space group: P -6 2 M
;
_chemical_formula_sum "Si O2"
_cell_formula_units_Z 84
_cell_length_a 26.029571
_cell_length_b 26.029571
_cell_length_c 9.748535
_cell_angle_alpha 90.000000
_cell_angle_beta 90.000000
_cell_angle_gamma 120.000000
_cell_volume 5720.105092
_symmetry_space_group_name_H-M "P -6 2 M"
_symmetry_group_IT_number 189
_symmetry_cell_setting 'hexagonal'
loop_
_space_group_symop_operation_xyz
x,y,z
-x+y,-x,-z
-y,x-y,z
x,y,-z
-x+y,-x,z
-y,x-y,-z
x-y,-y,-z
-x,-x+y,-z
y,x,-z
y,x,z
x-y,-y,z
-x,-x+y,z
loop_
_atom_site_type_symbol
_atom_site_label
_atom_site_fract_x
_atom_site_fract_y
_atom_site_fract_z
Si Si1 0.870706 0.342259 0.662098
Si Si2 0.157571 0.826063 0.653138
Si Si3 0.471960 0.541274 0.160203
Si Si4 0.864947 0.530469 0.156979
Si Si5 0.527131 0.772409 0.652183
Si Si6 0.337511 0.065417 0.336846
Si Si7 0.932353 0.668463 0.158014
O O1 0.879559 0.356847 0.500000
O O2 0.891957 0.401302 0.748386
O O3 0.801209 0.295719 0.694547
O O4 0.910617 0.314824 0.715127
O O5 0.135005 0.828078 0.500000
O O6 0.192621 0.790408 0.651491
O O7 0.203896 0.892000 0.709391
O O8 0.101665 0.796209 0.754065
O O9 0.508229 0.508229 0.201828
O O10 0.403117 0.498397 0.194604
O O11 0.481531 0.558639 0.000000
O O12 0.804233 0.502932 0.245466
O O13 0.906565 0.599584 0.188681
O O14 0.844216 0.519027 0.000000
O O15 0.503393 0.773751 0.500000
O O16 0.338974 0.065052 0.500000
O O17 0.295248 0.000000 0.275549
O O18 0.000000 0.702250 0.205499
O O19 0.925300 0.679996 0.000000
#
# Coordination Sequence:
#
# PCOD8327696 Si02
#       7
#    12  12  12  12  12  12  12
#     4   9  17  29  45  63  82 106 136 168 204 248
#     4   8  14  24  38  57  78  99 126 159 190 219
#     4  10  20  31  42  61  90 116 137 168 210 254
#     4   9  17  29  44  60  79 106 137 166 200 244
#     4   8  15  28  44  61  79  98 126 166 203 235
#     4   8  13  23  40  59  79 105 134 160 188 228
#     4   9  16  26  40  56  76 105 136 161 189 229
#
# _framework density 14.685045000000001
#
# number of rings (size 3 to 8) (size 9 to 14) (size 15 to 20)
#    0.000    3.286    0.000    2.571    0.000    4.000 
#    0.000    2.143    0.000    4.429    0.000    0.000 
#    0.000    0.000    0.000    0.429    0.000    6.571 
#
# Total GULP energy -1041076.460663 kJ/mol
# GULP energy per Si atom -12393.767389 kJ/mol
# Density = 1.465162 g / cm^3
# Si number density = 14.685045 Si / 1000 Ang^3
#
#
#
# Elastic Constant Matrix: (Units=GPa)
#
#
# Indices 1 2 3 4 5 6 
#
# 1 81.4503 36.9425 42.1876 0.0000 0.0000 0.0000
# 2 36.9425 81.4503 42.1876 0.0000 0.0000 0.0000
# 3 42.1876 42.1876 55.9073 0.0000 0.0000 0.0000
# 4 0.0000 0.0000 0.0000 22.6754 0.0000 0.0000
# 5 0.0000 0.0000 0.0000 0.0000 22.6754 0.0000
# 6 0.0000 0.0000 0.0000 0.0000 0.0000 22.2539
#
#
#
# Elastic Compliance Matrix: (Units=1/GPa)
#
#
# Indices 1 2 3 4 5 6 
#
# 1 0.020371 -0.002097 -0.013789 0.000000 0.000000 0.000000
# 2 -0.002097 0.020371 -0.013789 0.000000 0.000000 0.000000
# 3 -0.013789 -0.013789 0.038698 0.000000 0.000000 0.000000
# 4 0.000000 0.000000 0.000000 0.044101 0.000000 0.000000
# 5 0.000000 0.000000 0.000000 0.000000 0.044101 0.000000
# 6 0.000000 0.000000 0.000000 0.000000 0.000000 0.044936
#
#
# Mechanical properties :
#
#
# Convention : Reuss Voigt Hill
#
# Bulk Modulus (GPa) = 49.78173 51.27149 50.52661
# Shear Modulus (GPa) = 17.94530 20.02027 18.98278
#
# Velocity S-wave (km/s) = 3.49952 3.69631 3.59926
# Velocity P-wave (km/s) = 7.09239 7.29430 7.19406
#
# Compressibility (1/GPa) = 0.02008769
#
# Stress axis : x y z
#
# Youngs Moduli (GPa) = 49.08966 49.08966 25.84132
#
# Poissons Ratio (x) = 0.10295 0.35634
# Poissons Ratio (y) = 0.10295 0.35634
# Poissons Ratio (z) = 0.67692 0.67692
#
# Static dielectric constant tensor:
#      x y z
#    x 2.893900 0.000000 0.000000 
#    y 0.000000 2.893900 0.000000 
#    z 0.000000 0.000000 2.852150 
# 
# 
# High freq. dielectric constant tensor:
#      x y z
#    x 1.542780 0.000000 0.000000 
#    y 0.000000 1.542780 0.000000 
#    z 0.000000 0.000000 1.552480 
# 
# From -- ./inp_files/2145.got.cif
#   From: 2010.03.12/outbox.cif.g09.slc.cpg/sg189_2_cif.got.tgz:2145.got - 2010.04.01 12:03:36.
