data_PCOD8327370
_publ_section_title
;
Structure prediction by ZEFSAII (Michael W. Deem and Ramdas Pophale) SiO2 
 PCOD8327370
Probable space group: P -6 C 2
;
_chemical_formula_sum "Si O2"
_cell_formula_units_Z 48
_cell_length_a 12.355301
_cell_length_b 12.355301
_cell_length_c 18.260326
_cell_angle_alpha 90.000000
_cell_angle_beta 90.000000
_cell_angle_gamma 120.000000
_cell_volume 2414.047541
_symmetry_space_group_name_H-M "P -6 C 2"
_symmetry_group_IT_number 188
_symmetry_cell_setting 'hexagonal'
loop_
_space_group_symop_operation_xyz
x,y,z
-x+y,-x,1/2-z
-y,x-y,z
x,y,1/2-z
-x+y,-x,z
-y,x-y,1/2-z
-y,-x,-z
-x+y,y,-z
x,x-y,-z
-x+y,y,1/2+z
x,x-y,1/2+z
-y,-x,1/2+z
loop_
_atom_site_type_symbol
_atom_site_label
_atom_site_fract_x
_atom_site_fract_y
_atom_site_fract_z
Si Si1 0.666668 0.333335 0.662481
Si Si2 0.938920 0.526515 0.336780
Si Si3 0.000000 0.000000 0.086774
Si Si4 0.132929 0.446648 0.334007
Si Si5 0.190063 0.238161 0.165805
Si Si6 0.333335 0.666667 0.586167
O O1 0.666667 0.333334 0.750000
O O2 0.557139 0.200950 0.631989
O O3 0.936808 0.524012 0.250000
O O4 0.018862 0.462571 0.364122
O O5 0.997981 0.669144 0.363753
O O6 0.128555 0.115516 0.116098
O O7 0.000000 0.000000 0.000000
O O8 0.164139 0.492635 0.250000
O O9 0.106345 0.305414 0.340816
O O10 0.254699 0.526903 0.383228
O O11 0.192793 0.199387 0.250000
O O12 0.333334 0.666667 0.500000
#
# Coordination Sequence:
#
# PCOD8327370 Si02
#       6
#     4  12   4  12  12   4
#     4   9  18  30  51  87 121 140 175 231 301 359
#     4   9  18  32  56  88 117 146 181 239 299 347
#     4  12  28  44  58  81 124 167 202 246 301 368
#     4  10  19  36  60  87 119 152 197 251 296 345
#     4  10  21  38  64  90 115 152 202 249 294 353
#     4  12  22  32  52  87 127 161 193 237 298 365
#
# _framework density 19.883617999999998
#
# number of rings (size 3 to 8) (size 9 to 14) (size 15 to 20)
#    0.000    2.000    2.500    1.500    3.500    1.000 
#    0.000    0.000    0.000    0.000    0.000    1.750 
#    0.000    0.000    0.000    0.000    0.000    0.000 
#
# Total GULP energy -595153.179270 kJ/mol
# GULP energy per Si atom -12399.024568 kJ/mol
# Density = 1.983836 g / cm^3
# Si number density = 19.883618 Si / 1000 Ang^3
#
#
#
# Elastic Constant Matrix: (Units=GPa)
#
#
# Indices 1 2 3 4 5 6 
#
# 1 120.0046 57.5492 25.9911 -0.0001 0.0001 0.0001
# 2 57.5492 120.0030 25.9911 -0.0002 0.0002 -0.0002
# 3 25.9911 25.9911 69.6832 0.0001 -0.0003 0.0000
# 4 -0.0001 -0.0002 0.0001 7.5718 0.0002 0.0000
# 5 0.0001 0.0002 -0.0003 0.0002 7.5711 0.0000
# 6 0.0001 -0.0002 0.0000 0.0000 0.0000 31.2274
#
#
#
# Elastic Compliance Matrix: (Units=1/GPa)
#
#
# Indices 1 2 3 4 5 6 
#
# 1 0.011167 -0.004845 -0.002358 0.000000 0.000000 0.000000
# 2 -0.004845 0.011167 -0.002358 0.000000 0.000000 0.000000
# 3 -0.002358 -0.002358 0.016110 0.000000 0.000001 0.000000
# 4 0.000000 0.000000 0.000000 0.132069 -0.000004 0.000000
# 5 0.000000 0.000000 0.000001 -0.000004 0.132080 0.000000
# 6 0.000000 0.000000 0.000000 0.000000 0.000000 0.032023
#
#
# Mechanical properties :
#
#
# Convention : Reuss Voigt Hill
#
# Bulk Modulus (GPa) = 51.75453 58.75039 55.25246
# Shear Modulus (GPa) = 13.88196 22.61802 18.24999
#
# Velocity S-wave (km/s) = 2.64514 3.37637 3.03288
# Velocity P-wave (km/s) = 5.95099 6.69411 6.33346
#
# Compressibility (1/GPa) = 0.01932198
#
# Stress axis : x y z
#
# Youngs Moduli (GPa) = 89.54945 89.54817 62.07383
#
# Poissons Ratio (x) = 0.43382 0.14638
# Poissons Ratio (y) = 0.43383 0.14639
# Poissons Ratio (z) = 0.21118 0.21118
#
# Static dielectric constant tensor:
#      x y z
#    x 3.723020 0.000000 0.000000 
#    y 0.000000 3.723030 0.000000 
#    z 0.000000 0.000000 3.026810 
# 
# 
# High freq. dielectric constant tensor:
#      x y z
#    x 1.782480 0.000000 0.000000 
#    y 0.000000 1.782480 0.000000 
#    z 0.000000 0.000000 1.710680 
# 
# From -- ./inp_files/3602.got.cif
#   From: 2010.03.12/outbox.cif.g09.slc.cpg/sg188_2_cif.got.tgz:3602.got - 2010.04.01 12:01:06.
