data_PCOD8327425
_publ_section_title
;
Structure prediction by ZEFSAII (Michael W. Deem and Ramdas Pophale) SiO2 
 PCOD8327425
Probable space group: P -6 C 2
;
_chemical_formula_sum "Si O2"
_cell_formula_units_Z 58
_cell_length_a 13.708889
_cell_length_b 13.708889
_cell_length_c 15.297410
_cell_angle_alpha 90.000000
_cell_angle_beta 90.000000
_cell_angle_gamma 120.000000
_cell_volume 2489.734621
_symmetry_space_group_name_H-M "P -6 C 2"
_symmetry_group_IT_number 188
_symmetry_cell_setting 'hexagonal'
loop_
_space_group_symop_operation_xyz
x,y,z
-x+y,-x,1/2-z
-y,x-y,z
x,y,1/2-z
-x+y,-x,z
-y,x-y,1/2-z
-y,-x,-z
-x+y,y,-z
x,x-y,-z
-x+y,y,1/2+z
x,x-y,1/2+z
-y,-x,1/2+z
loop_
_atom_site_type_symbol
_atom_site_label
_atom_site_fract_x
_atom_site_fract_y
_atom_site_fract_z
Si Si1 0.456313 0.369595 0.145180
Si Si2 0.858704 0.929352 0.000000
Si Si3 0.436377 0.136361 0.353451
Si Si4 0.333334 0.666668 0.853339
Si Si5 0.070703 0.793024 0.845641
Si Si6 0.557611 0.716807 0.587820
O O1 0.440188 0.374463 0.250000
O O2 0.581513 0.461312 0.113090
O O3 0.442614 0.250884 0.113793
O O4 0.364133 0.387938 0.092549
O O5 0.790062 0.897544 0.089506
O O6 0.935098 0.870196 0.000000
O O7 0.440601 0.137766 0.250000
O O8 0.320770 0.029845 0.386817
O O9 0.333334 0.666668 0.750000
O O10 0.212726 0.574832 0.893195
O O11 0.035973 0.816168 0.750000
O O12 0.187616 0.791790 0.836062
O O13 0.585752 0.792876 0.500000
#
# Coordination Sequence:
#
# PCOD8327425 Si02
#       6
#    12   6  12   4  12  12
#     4  10  20  39  68 104 141 186 235 293 360 430
#     4  10  26  44  64  94 132 176 228 288 354 426
#     4   9  20  37  66 102 140 179 231 291 353 425
#     4  12  25  44  67  99 136 179 241 301 356 436
#     4  11  23  42  67  98 135 181 231 287 353 425
#     4  12  25  42  67  99 140 187 235 291 360 430
#
# _framework density 23.295655
#
# number of rings (size 3 to 8) (size 9 to 14) (size 15 to 20)
#    0.207    1.241    1.034    4.138    2.897    4.138 
#    0.000    0.000    0.000    0.000    0.000    2.897 
#    0.000    0.000    0.000    0.000    0.000    0.414 
#
# Total GULP energy -718802.149120 kJ/mol
# GULP energy per Si atom -12393.140502 kJ/mol
# Density = 2.324263 g / cm^3
# Si number density = 23.295655 Si / 1000 Ang^3
#
#
#
# Elastic Constant Matrix: (Units=GPa)
#
#
# Indices 1 2 3 4 5 6 
#
# 1 173.2144 84.3273 39.0327 0.0002 0.0000 0.0001
# 2 84.3273 173.2150 39.0328 -0.0001 0.0000 -0.0001
# 3 39.0327 39.0328 89.1771 0.0001 -0.0001 0.0000
# 4 0.0002 -0.0001 0.0001 25.4915 0.0000 0.0000
# 5 0.0000 0.0000 -0.0001 0.0000 25.4915 0.0002
# 6 0.0001 -0.0001 0.0000 0.0000 0.0002 44.4434
#
#
#
# Elastic Compliance Matrix: (Units=1/GPa)
#
#
# Indices 1 2 3 4 5 6 
#
# 1 0.007864 -0.003387 -0.001959 0.000000 0.000000 0.000000
# 2 -0.003387 0.007863 -0.001960 0.000000 0.000000 0.000000
# 3 -0.001959 -0.001960 0.012929 0.000000 0.000000 0.000000
# 4 0.000000 0.000000 0.000000 0.039229 0.000000 0.000000
# 5 0.000000 0.000000 0.000000 0.000000 0.039229 0.000000
# 6 0.000000 0.000000 0.000000 0.000000 0.000000 0.022501
#
#
# Mechanical properties :
#
#
# Convention : Reuss Voigt Hill
#
# Bulk Modulus (GPa) = 71.20165 84.48802 77.84483
# Shear Modulus (GPa) = 33.57803 37.29954 35.43879
#
# Velocity S-wave (km/s) = 3.80068 4.00576 3.90457
# Velocity P-wave (km/s) = 7.06335 7.59877 7.33595
#
# Compressibility (1/GPa) = 0.01404462
#
# Stress axis : x y z
#
# Youngs Moduli (GPa) = 127.16958 127.17000 77.34562
#
# Poissons Ratio (x) = 0.43068 0.15156
# Poissons Ratio (y) = 0.43068 0.15156
# Poissons Ratio (z) = 0.24919 0.24919
#
# Static dielectric constant tensor:
#      x y z
#    x 4.380250 0.000000 0.000000 
#    y 0.000000 4.380250 0.000000 
#    z 0.000000 0.000000 3.936340 
# 
# 
# High freq. dielectric constant tensor:
#      x y z
#    x 1.927550 0.000000 0.000000 
#    y 0.000000 1.927550 0.000000 
#    z 0.000000 0.000000 1.907510 
# 
# From -- ./inp_files/2320.got.cif
#   From: 2010.03.12/outbox.cif.g09.slc.cpg/sg188_2_cif.got.tgz:2320.got - 2010.04.01 12:01:06.
