data_PCOD8327282
_publ_section_title
;
Structure prediction by ZEFSAII (Michael W. Deem and Ramdas Pophale) SiO2 
 PCOD8327282
Probable space group: P -6 M 2
;
_chemical_formula_sum "Si O2"
_cell_formula_units_Z 72
_cell_length_a 23.304309
_cell_length_b 23.304309
_cell_length_c 9.409111
_cell_angle_alpha 90.000000
_cell_angle_beta 90.000000
_cell_angle_gamma 120.000000
_cell_volume 4425.391363
_symmetry_space_group_name_H-M "P -6 M 2"
_symmetry_group_IT_number 187
_symmetry_cell_setting 'hexagonal'
loop_
_space_group_symop_operation_xyz
x,y,z
-x+y,-x,-z
-y,x-y,z
x,y,-z
-x+y,-x,z
-y,x-y,-z
-y,-x,-z
-x+y,y,-z
x,x-y,-z
-x+y,y,z
x,x-y,z
-y,-x,z
loop_
_atom_site_type_symbol
_atom_site_label
_atom_site_fract_x
_atom_site_fract_y
_atom_site_fract_z
Si Si1 0.385960 0.257980 0.335336
Si Si2 0.461274 0.794224 0.169516
Si Si3 0.467119 0.062302 0.335386
Si Si4 0.866973 0.999760 0.664877
Si Si5 0.938678 0.741095 0.160848
Si Si6 0.537268 0.598993 0.157108
O O1 0.364631 0.250797 0.500000
O O2 0.405492 0.202746 0.293229
O O3 0.450683 0.329817 0.305012
O O4 0.324809 0.251023 0.242598
O O5 0.391133 0.782266 0.229770
O O6 0.474543 0.737272 0.230899
O O7 0.521909 0.866426 0.216021
O O8 0.457883 0.791880 0.000000
O O9 0.461454 0.045057 0.500000
O O10 0.541496 0.082991 0.280623
O O11 0.410035 0.996575 0.260213
O O12 0.849280 0.999797 0.500000
O O13 0.940592 0.059409 0.697493
O O14 0.812181 0.006011 0.757651
O O15 0.864246 0.932123 0.709329
O O16 0.871266 0.742532 0.161844
O O17 0.962456 0.740395 0.000000
O O18 0.467798 0.532203 0.148310
O O19 0.569633 0.617585 0.000000
#
# Coordination Sequence:
#
# PCOD8327282 Si02
#       6
#    12  12  12  12  12  12
#     4   9  17  30  48  67  86 109 137 169 205 247
#     4   8  12  18  31  53  80 108 138 173 211 247
#     4   9  17  29  46  67  88 109 134 164 199 242
#     4   9  16  26  41  61  86 117 152 187 223 265
#     4   9  17  28  42  62  87 113 143 181 221 256
#     4   8  14  24  38  58  83 109 138 172 207 240
#
# _framework density 16.269748
#
# number of rings (size 3 to 8) (size 9 to 14) (size 15 to 20)
#    0.000    3.333    0.000    1.833    0.000    4.333 
#    0.000    0.000    0.000    2.833    0.000    7.000 
#    0.000    1.333    0.000    8.333    0.000    8.667 
#
# Total GULP energy -892255.319677 kJ/mol
# GULP energy per Si atom -12392.434996 kJ/mol
# Density = 1.623272 g / cm^3
# Si number density = 16.269748 Si / 1000 Ang^3
#
#
#
# Elastic Constant Matrix: (Units=GPa)
#
#
# Indices 1 2 3 4 5 6 
#
# 1 94.6735 53.6343 37.3188 0.0000 0.0001 0.0000
# 2 53.6343 94.6735 37.3188 0.0000 -0.0001 0.0000
# 3 37.3188 37.3188 56.2626 0.0000 0.0000 0.0000
# 4 0.0000 0.0000 0.0000 15.3585 0.0000 -0.0001
# 5 0.0001 -0.0001 0.0000 0.0000 15.3585 0.0000
# 6 0.0000 0.0000 0.0000 -0.0001 0.0000 20.5196
#
#
#
# Elastic Compliance Matrix: (Units=1/GPa)
#
#
# Indices 1 2 3 4 5 6 
#
# 1 0.017244 -0.007123 -0.006713 0.000000 0.000000 0.000000
# 2 -0.007123 0.017244 -0.006713 0.000000 0.000000 0.000000
# 3 -0.006713 -0.006713 0.026680 0.000000 0.000000 0.000000
# 4 0.000000 0.000000 0.000000 0.065110 0.000000 0.000000
# 5 0.000000 0.000000 0.000000 0.000000 0.065110 0.000000
# 6 0.000000 0.000000 0.000000 0.000000 0.000000 0.048734
#
#
# Mechanical properties :
#
#
# Convention : Reuss Voigt Hill
#
# Bulk Modulus (GPa) = 49.82885 55.79481 52.81183
# Shear Modulus (GPa) = 17.36643 18.06984 17.71813
#
# Velocity S-wave (km/s) = 3.27066 3.33624 3.30362
# Velocity P-wave (km/s) = 6.70494 7.01489 6.86166
#
# Compressibility (1/GPa) = 0.02006869
#
# Stress axis : x y z
#
# Youngs Moduli (GPa) = 57.99063 57.99063 37.48150
#
# Poissons Ratio (x) = 0.41306 0.25163
# Poissons Ratio (y) = 0.41306 0.25163
# Poissons Ratio (z) = 0.38932 0.38932
#
# Static dielectric constant tensor:
#      x y z
#    x 3.087100 0.000000 0.000000 
#    y 0.000000 3.087100 0.000000 
#    z 0.000000 0.000000 3.044970 
# 
# 
# High freq. dielectric constant tensor:
#      x y z
#    x 1.606520 0.000000 0.000000 
#    y 0.000000 1.606520 0.000000 
#    z 0.000000 0.000000 1.608720 
# 
# From -- ./inp_files/1002.got.cif
#   From: 2010.03.12/outbox.cif.g09.slc.cpg/sg187_1_cif.got.tgz:1002.got - 2010.04.01 11:58:23.
