data_PCOD8327512
_publ_section_title
;
Structure prediction by ZEFSAII (Michael W. Deem and Ramdas Pophale) SiO2 
 PCOD8327512
Probable space group: P -6 2 M
;
_chemical_formula_sum "Si O2"
_cell_formula_units_Z 78
_cell_length_a 17.937424
_cell_length_b 17.937424
_cell_length_c 16.818731
_cell_angle_alpha 90.000000
_cell_angle_beta 90.000000
_cell_angle_gamma 120.000000
_cell_volume 4686.450176
_symmetry_space_group_name_H-M "P -6 2 M"
_symmetry_group_IT_number 189
_symmetry_cell_setting 'hexagonal'
loop_
_space_group_symop_operation_xyz
x,y,z
-x+y,-x,-z
-y,x-y,z
x,y,-z
-x+y,-x,z
-y,x-y,-z
x-y,-y,-z
-x,-x+y,-z
y,x,-z
y,x,z
x-y,-y,z
-x,-x+y,z
loop_
_atom_site_type_symbol
_atom_site_label
_atom_site_fract_x
_atom_site_fract_y
_atom_site_fract_z
Si Si1 0.099918 0.897324 0.000000
Si Si2 0.747717 0.649041 0.248570
Si Si3 0.902129 0.321425 0.412648
Si Si4 0.180544 0.677133 0.093794
Si Si5 0.588300 0.231170 0.645833
Si Si6 0.900972 0.689034 0.144378
Si Si7 0.348217 0.817057 0.822290
O O1 0.122604 0.858368 0.075702
O O2 0.000000 0.871257 0.000000
O O3 0.158674 0.000000 0.000000
O O4 0.723669 0.723669 0.241613
O O5 0.746831 0.621768 0.340930
O O6 0.844908 0.683924 0.220717
O O7 0.681317 0.568933 0.193543
O O8 0.888356 0.277416 0.500000
O O9 0.848464 0.371375 0.407680
O O10 0.000000 0.394969 0.400371
O O11 0.117342 0.713036 0.116728
O O12 0.275316 0.736956 0.129025
O O13 0.142751 0.580223 0.128230
O O14 0.187138 0.673957 0.000000
O O15 0.687748 0.260760 0.626445
O O16 0.577705 0.212465 0.738690
O O17 0.000000 0.744664 0.169380
#
# Coordination Sequence:
#
# PCOD8327512 Si02
#       7
#     6  12  12  12  12  12  12
#     4  10  19  34  54  76 100 128 166 212 259 306
#     4   9  19  35  55  74  97 129 166 205 249 302
#     4   9  18  32  51  76 103 129 163 208 252 300
#     4  11  19  30  47  69  99 136 172 212 252 286
#     4   9  16  29  49  69  96 131 166 206 248 296
#     4  10  21  35  52  73 100 133 168 207 257 305
#     4  10  18  30  47  70  99 131 172 212 240 288
#
# _framework density 16.643726999999998
#
# number of rings (size 3 to 8) (size 9 to 14) (size 15 to 20)
#    0.308    2.000    2.308    1.308    0.000    1.231 
#    0.000    0.000    0.000    0.769    0.000    0.000 
#    0.000    0.000    0.000    0.000    0.000    0.000 
#
# Total GULP energy -966679.679878 kJ/mol
# GULP energy per Si atom -12393.329229 kJ/mol
# Density = 1.660584 g / cm^3
# Si number density = 16.643727 Si / 1000 Ang^3
#
#
#
# Elastic Constant Matrix: (Units=GPa)
#
#
# Indices 1 2 3 4 5 6 
#
# 1 81.0275 39.5045 42.7023 0.0000 0.0000 0.0000
# 2 39.5045 81.0275 42.7023 0.0000 0.0000 0.0000
# 3 42.7023 42.7023 115.4399 0.0000 0.0000 0.0000
# 4 0.0000 0.0000 0.0000 17.1669 0.0000 0.0000
# 5 0.0000 0.0000 0.0000 0.0000 17.1669 0.0000
# 6 0.0000 0.0000 0.0000 0.0000 0.0000 20.7615
#
#
#
# Elastic Compliance Matrix: (Units=1/GPa)
#
#
# Indices 1 2 3 4 5 6 
#
# 1 0.017663 -0.006420 -0.004159 0.000000 0.000000 0.000000
# 2 -0.006420 0.017663 -0.004159 0.000000 0.000000 0.000000
# 3 -0.004159 -0.004159 0.011739 0.000000 0.000000 0.000000
# 4 0.000000 0.000000 0.000000 0.058252 0.000000 0.000000
# 5 0.000000 0.000000 0.000000 0.000000 0.058252 0.000000
# 6 0.000000 0.000000 0.000000 0.000000 0.000000 0.048166
#
#
# Mechanical properties :
#
#
# Convention : Reuss Voigt Hill
#
# Bulk Modulus (GPa) = 56.84983 58.59034 57.72008
# Shear Modulus (GPa) = 20.23681 21.19145 20.71413
#
# Velocity S-wave (km/s) = 3.49073 3.57212 3.53166
# Velocity P-wave (km/s) = 7.10479 7.23135 7.16835
#
# Compressibility (1/GPa) = 0.01759020
#
# Stress axis : x y z
#
# Youngs Moduli (GPa) = 56.61456 56.61456 85.18261
#
# Poissons Ratio (x) = 0.36345 0.35428
# Poissons Ratio (y) = 0.36345 0.35428
# Poissons Ratio (z) = 0.23547 0.23547
#
# Static dielectric constant tensor:
#      x y z
#    x 3.063770 0.000000 0.000000 
#    y 0.000000 3.063770 0.000000 
#    z 0.000000 0.000000 3.209070 
# 
# 
# High freq. dielectric constant tensor:
#      x y z
#    x 1.628150 0.000000 0.000000 
#    y 0.000000 1.628150 0.000000 
#    z 0.000000 0.000000 1.642860 
# 
# From -- ./inp_files/3237.got.cif
#   From: 2010.03.12/outbox.cif.g09.slc.cpg/sg189_2_cif.got.tgz:3237.got - 2010.04.01 12:03:36.
