data_PCOD8327420
_publ_section_title
;
Structure prediction by ZEFSAII (Michael W. Deem and Ramdas Pophale) SiO2 
 PCOD8327420
Probable space group: P -6 C 2
;
_chemical_formula_sum "Si O2"
_cell_formula_units_Z 74
_cell_length_a 13.908184
_cell_length_b 13.908184
_cell_length_c 23.321928
_cell_angle_alpha 90.000000
_cell_angle_beta 90.000000
_cell_angle_gamma 120.000000
_cell_volume 3906.932762
_symmetry_space_group_name_H-M "P -6 C 2"
_symmetry_group_IT_number 188
_symmetry_cell_setting 'hexagonal'
loop_
_space_group_symop_operation_xyz
x,y,z
-x+y,-x,1/2-z
-y,x-y,z
x,y,1/2-z
-x+y,-x,z
-y,x-y,1/2-z
-y,-x,-z
-x+y,y,-z
x,x-y,-z
-x+y,y,1/2+z
x,x-y,1/2+z
-y,-x,1/2+z
loop_
_atom_site_type_symbol
_atom_site_label
_atom_site_fract_x
_atom_site_fract_y
_atom_site_fract_z
Si Si1 0.260448 0.108448 0.563966
Si Si2 0.872375 0.349988 0.613811
Si Si3 0.000000 0.000000 0.316442
Si Si4 0.114032 0.908031 0.388389
Si Si5 0.666667 0.333333 0.180501
Si Si6 0.595635 0.404366 0.500000
Si Si7 0.178138 0.759045 0.685089
Si Si8 0.081675 0.508690 0.685459
O O1 0.298929 0.149465 0.500000
O O2 0.371525 0.140996 0.599717
O O3 0.201228 0.174581 0.586536
O O4 0.173957 0.975284 0.564530
O O5 0.772872 0.329672 0.656186
O O6 0.879519 0.424571 0.557941
O O7 0.988962 0.419933 0.644468
O O8 0.000000 0.000000 0.250000
O O9 0.082911 0.123562 0.337911
O O10 0.179113 0.852697 0.362034
O O11 0.666667 0.333334 0.250000
O O12 0.540250 0.270125 0.500000
O O13 0.145018 0.773853 0.750000
O O14 0.113077 0.631330 0.666829
O O15 0.309095 0.806483 0.681366
O O16 0.034256 0.483546 0.750000
#
# Coordination Sequence:
#
# PCOD8327420 Si02
#       8
#    12  12   4  12   4   6  12  12
#     4  11  24  39  66  90 122 162 208 258 316 373
#     4  12  23  42  64  93 122 166 211 256 313 373
#     4   9  18  33  55  83 121 162 192 240 310 368
#     4  10  21  39  57  90 124 155 200 258 305 373
#     4  12  27  43  59  88 132 165 202 263 322 372
#     4  10  20  40  62  82 120 162 210 258 292 368
#     4  10  20  38  60  87 120 159 202 247 304 368
#     4  10  22  39  63  91 123 162 209 257 308 374
#
# _framework density 18.94069
#
# number of rings (size 3 to 8) (size 9 to 14) (size 15 to 20)
#    0.162    1.297    3.243    2.595    2.270    1.297 
#    0.000    1.622    0.000    0.000    0.000    0.000 
#    0.000    0.000    0.000    0.000    0.000    0.000 
#
# Total GULP energy -917379.604074 kJ/mol
# GULP energy per Si atom -12397.021677 kJ/mol
# Density = 1.889758 g / cm^3
# Si number density = 18.940690 Si / 1000 Ang^3
#
#
#
# Elastic Constant Matrix: (Units=GPa)
#
#
# Indices 1 2 3 4 5 6 
#
# 1 98.9931 35.0319 45.1780 0.0002 0.0000 0.0005
# 2 35.0319 98.9935 45.1781 -0.0001 0.0000 -0.0003
# 3 45.1780 45.1781 110.6746 0.0000 0.0000 0.0000
# 4 0.0002 -0.0001 0.0000 26.4426 0.0000 0.0000
# 5 0.0000 0.0000 0.0000 0.0000 26.4425 0.0002
# 6 0.0005 -0.0003 0.0000 0.0000 0.0002 31.9810
#
#
#
# Elastic Compliance Matrix: (Units=1/GPa)
#
#
# Indices 1 2 3 4 5 6 
#
# 1 0.012964 -0.002670 -0.004202 0.000000 0.000000 0.000000
# 2 -0.002670 0.012964 -0.004202 0.000000 0.000000 0.000000
# 3 -0.004202 -0.004202 0.012466 0.000000 0.000000 0.000000
# 4 0.000000 0.000000 0.000000 0.037818 0.000000 0.000000
# 5 0.000000 0.000000 0.000000 0.000000 0.037818 0.000000
# 6 0.000000 0.000000 0.000000 0.000000 0.000000 0.031269
#
#
# Mechanical properties :
#
#
# Convention : Reuss Voigt Hill
#
# Bulk Modulus (GPa) = 61.55351 62.15968 61.85659
# Shear Modulus (GPa) = 28.92456 29.19142 29.05799
#
# Velocity S-wave (km/s) = 3.91207 3.93007 3.92108
# Velocity P-wave (km/s) = 7.27834 7.31323 7.29581
#
# Compressibility (1/GPa) = 0.01624603
#
# Stress axis : x y z
#
# Youngs Moduli (GPa) = 77.13445 77.13478 80.21686
#
# Poissons Ratio (x) = 0.20596 0.33709
# Poissons Ratio (y) = 0.20595 0.33709
# Poissons Ratio (z) = 0.32413 0.32413
#
# Static dielectric constant tensor:
#      x y z
#    x -1.760330 -0.001540 0.000010 
#    y -0.001540 -1.759300 0.000010 
#    z 0.000010 0.000010 3.506830 
# 
# 
# High freq. dielectric constant tensor:
#      x y z
#    x 1.739910 0.000000 0.000000 
#    y 0.000000 1.739910 0.000000 
#    z 0.000000 0.000000 1.732270 
# 
# From -- ./inp_files/3821.got.cif
#   From: 2010.03.12/outbox.cif.g09.slc.cpg/sg188_2_cif.got.tgz:3821.got - 2010.04.01 12:01:06.
