data_PCOD8327300
_publ_section_title
;
Structure prediction by ZEFSAII (Michael W. Deem and Ramdas Pophale) SiO2 
 PCOD8327300
Probable space group: P -6 M 2
;
_chemical_formula_sum "Si O2"
_cell_formula_units_Z 60
_cell_length_a 21.213249
_cell_length_b 21.213249
_cell_length_c 9.435402
_cell_angle_alpha 90.000000
_cell_angle_beta 90.000000
_cell_angle_gamma 120.000000
_cell_volume 3677.099818
_symmetry_space_group_name_H-M "P -6 M 2"
_symmetry_group_IT_number 187
_symmetry_cell_setting 'hexagonal'
loop_
_space_group_symop_operation_xyz
x,y,z
-x+y,-x,-z
-y,x-y,z
x,y,-z
-x+y,-x,z
-y,x-y,-z
-y,-x,-z
-x+y,y,-z
x,x-y,-z
-x+y,y,z
x,x-y,z
-y,-x,z
loop_
_atom_site_type_symbol
_atom_site_label
_atom_site_fract_x
_atom_site_fract_y
_atom_site_fract_z
Si Si1 0.382744 0.119799 0.835987
Si Si2 0.503070 0.751535 0.340450
Si Si3 0.283522 0.327464 0.835616
Si Si4 0.162108 0.837893 0.340282
Si Si5 0.128024 0.634242 0.837605
Si Si6 0.523255 0.189336 0.664845
O O1 0.360145 0.180073 0.795991
O O2 0.452415 0.131767 0.748782
O O3 0.316286 0.040622 0.797967
O O4 0.403667 0.124476 0.000000
O O5 0.471483 0.735742 0.500000
O O6 0.589556 0.794778 0.341735
O O7 0.476183 0.800181 0.258955
O O8 0.210775 0.297322 0.742243
O O9 0.343460 0.411146 0.797394
O O10 0.261309 0.321219 0.000000
O O11 0.146254 0.853747 0.500000
O O12 0.095027 0.547514 0.813640
O O13 0.152518 0.655847 0.000000
O O14 0.507569 0.171460 0.500000
O O15 0.590501 0.181002 0.717150
O O16 0.542379 0.271190 0.698599
#
# Coordination Sequence:
#
# PCOD8327300 Si02
#       6
#    12   6  12   6  12  12
#     4   9  18  31  46  67  95 123 150 185 230 276
#     4   9  17  29  43  59  81 107 135 175 225 263
#     4   9  17  30  48  67  90 119 148 180 221 268
#     4   9  17  29  47  69  89 109 139 179 217 257
#     4   9  17  29  44  61  81 110 149 186 218 258
#     4   9  17  29  44  61  84 119 163 206 244 281
#
# _framework density 16.317208000000001
#
# number of rings (size 3 to 8) (size 9 to 14) (size 15 to 20)
#    0.000    3.000    0.000    0.800    0.000    5.600 
#    0.600    2.000    0.000    1.200    0.000    0.000 
#    1.000    0.000    1.800    0.000    0.600    0.000 
#
# Total GULP energy -743899.048711 kJ/mol
# GULP energy per Si atom -12398.317479 kJ/mol
# Density = 1.628007 g / cm^3
# Si number density = 16.317208 Si / 1000 Ang^3
#
#
#
# Elastic Constant Matrix: (Units=GPa)
#
#
# Indices 1 2 3 4 5 6 
#
# 1 87.7518 53.5805 45.7374 0.0000 0.0000 0.0000
# 2 53.5805 87.7518 45.7374 0.0000 0.0000 0.0000
# 3 45.7374 45.7374 72.8686 0.0000 0.0000 0.0000
# 4 0.0000 0.0000 0.0000 20.2445 0.0000 0.0000
# 5 0.0000 0.0000 0.0000 0.0000 20.2445 0.0000
# 6 0.0000 0.0000 0.0000 0.0000 0.0000 17.0857
#
#
#
# Elastic Compliance Matrix: (Units=1/GPa)
#
#
# Indices 1 2 3 4 5 6 
#
# 1 0.020590 -0.008674 -0.007480 0.000000 0.000000 0.000000
# 2 -0.008674 0.020590 -0.007480 0.000000 0.000000 0.000000
# 3 -0.007480 -0.007480 0.023113 0.000000 0.000000 0.000000
# 4 0.000000 0.000000 0.000000 0.049396 0.000000 0.000000
# 5 0.000000 0.000000 0.000000 0.000000 0.049396 0.000000
# 6 0.000000 0.000000 0.000000 0.000000 0.000000 0.058529
#
#
# Mechanical properties :
#
#
# Convention : Reuss Voigt Hill
#
# Bulk Modulus (GPa) = 58.72907 59.83140 59.28023
# Shear Modulus (GPa) = 18.21118 18.40275 18.30696
#
# Velocity S-wave (km/s) = 3.34439 3.36194 3.35317
# Velocity P-wave (km/s) = 7.14027 7.19843 7.16941
#
# Compressibility (1/GPa) = 0.01702734
#
# Stress axis : x y z
#
# Youngs Moduli (GPa) = 48.56622 48.56622 43.26589
#
# Poissons Ratio (x) = 0.42125 0.32362
# Poissons Ratio (y) = 0.42125 0.32362
# Poissons Ratio (z) = 0.36326 0.36326
#
# Static dielectric constant tensor:
#      x y z
#    x 2.957300 0.000000 0.000000 
#    y 0.000000 2.957300 0.000000 
#    z 0.000000 0.000000 3.195330 
# 
# 
# High freq. dielectric constant tensor:
#      x y z
#    x 1.606320 0.000000 0.000000 
#    y 0.000000 1.606320 0.000000 
#    z 0.000000 0.000000 1.630670 
# 
# From -- ./inp_files/678.got.cif
#   From: 2010.03.12/outbox.cif.g09.slc.cpg/sg187_1_cif.got.tgz:678.got - 2010.04.01 11:58:23.
