data_PCOD8327391
_publ_section_title
;
Structure prediction by ZEFSAII (Michael W. Deem and Ramdas Pophale) SiO2 
 PCOD8327391
Probable space group: P -6 C 2
;
_chemical_formula_sum "Si O2"
_cell_formula_units_Z 72
_cell_length_a 23.443332
_cell_length_b 23.443332
_cell_length_c 8.824053
_cell_angle_alpha 90.000000
_cell_angle_beta 90.000000
_cell_angle_gamma 120.000000
_cell_volume 4199.885162
_symmetry_space_group_name_H-M "P -6 C 2"
_symmetry_group_IT_number 188
_symmetry_cell_setting 'hexagonal'
loop_
_space_group_symop_operation_xyz
x,y,z
-x+y,-x,1/2-z
-y,x-y,z
x,y,1/2-z
-x+y,-x,z
-y,x-y,1/2-z
-y,-x,-z
-x+y,y,-z
x,x-y,-z
-x+y,y,1/2+z
x,x-y,1/2+z
-y,-x,1/2+z
loop_
_atom_site_type_symbol
_atom_site_label
_atom_site_fract_x
_atom_site_fract_y
_atom_site_fract_z
Si Si1 0.372735 0.520784 0.086789
Si Si2 0.133502 0.745956 0.068468
Si Si3 0.545271 0.210825 0.927164
Si Si4 0.331478 0.003452 0.428067
Si Si5 0.741547 0.136781 0.426470
Si Si6 0.555148 0.551120 0.582495
O O1 0.352223 0.535508 0.250000
O O2 0.307007 0.461416 0.008307
O O3 0.425630 0.497504 0.110173
O O4 0.408966 0.591035 0.000000
O O5 0.132455 0.746610 0.250000
O O6 0.183289 0.816712 0.000000
O O7 0.061129 0.726770 0.008862
O O8 0.560047 0.223902 0.750000
O O9 0.470106 0.151324 0.955668
O O10 0.594958 0.189916 0.000000
O O11 0.556521 0.278261 0.000000
O O12 0.318052 0.998384 0.250000
O O13 0.401000 0.010021 0.465337
O O14 0.338306 0.070064 0.496227
O O15 0.753366 0.133291 0.250000
O O16 0.806233 0.193768 0.500000
O O17 0.584144 0.548337 0.750000
O O18 0.519807 0.480194 0.500000
#
# Coordination Sequence:
#
# PCOD8327391 Si02
#       6
#    12  12  12  12  12  12
#     4   8  15  26  42  63  88 117 150 186 225 270
#     4  10  20  34  51  74 101 128 160 200 244 294
#     4  10  20  33  50  69  93 124 162 207 255 302
#     4  11  21  33  50  71  96 128 160 195 242 294
#     4  10  21  37  53  70  93 124 163 207 249 295
#     4   9  16  27  42  63  90 119 152 191 231 275
#
# _framework density 17.143326999999999
#
# number of rings (size 3 to 8) (size 9 to 14) (size 15 to 20)
#    0.000    2.333    0.000    4.667    0.000    7.333 
#    0.000    1.667    0.000    0.333    0.000    0.000 
#    0.000    0.000    0.000    0.500    0.000    7.000 
#
# Total GULP energy -892259.567068 kJ/mol
# GULP energy per Si atom -12392.493987 kJ/mol
# Density = 1.710431 g / cm^3
# Si number density = 17.143327 Si / 1000 Ang^3
#
#
#
# Elastic Constant Matrix: (Units=GPa)
#
#
# Indices 1 2 3 4 5 6 
#
# 1 72.3119 43.5163 42.3998 0.0001 0.0000 0.0000
# 2 43.5163 72.3119 42.3998 -0.0001 0.0000 0.0000
# 3 42.3998 42.3998 118.4587 0.0000 0.0000 0.0000
# 4 0.0001 -0.0001 0.0000 22.4057 0.0000 0.0000
# 5 0.0000 0.0000 0.0000 0.0000 22.4057 0.0001
# 6 0.0000 0.0000 0.0000 0.0000 0.0001 14.3978
#
#
#
# Elastic Compliance Matrix: (Units=1/GPa)
#
#
# Indices 1 2 3 4 5 6 
#
# 1 0.023213 -0.011514 -0.004187 0.000000 0.000000 0.000000
# 2 -0.011514 0.023213 -0.004187 0.000000 0.000000 0.000000
# 3 -0.004187 -0.004187 0.011439 0.000000 0.000000 0.000000
# 4 0.000000 0.000000 0.000000 0.044631 0.000000 0.000000
# 5 0.000000 0.000000 0.000000 0.000000 0.044631 0.000000
# 6 0.000000 0.000000 0.000000 0.000000 0.000000 0.069455
#
#
# Mechanical properties :
#
#
# Convention : Reuss Voigt Hill
#
# Bulk Modulus (GPa) = 55.28568 57.74603 56.51586
# Shear Modulus (GPa) = 19.05549 20.82631 19.94090
#
# Velocity S-wave (km/s) = 3.33759 3.48923 3.41425
# Velocity P-wave (km/s) = 6.86817 7.07039 6.97001
#
# Compressibility (1/GPa) = 0.01808787
#
# Stress axis : x y z
#
# Youngs Moduli (GPa) = 43.07864 43.07864 87.41724
#
# Poissons Ratio (x) = 0.49602 0.36606
# Poissons Ratio (y) = 0.49602 0.36606
# Poissons Ratio (z) = 0.18039 0.18039
#
# Static dielectric constant tensor:
#      x y z
#    x 3.048400 0.000000 0.000000 
#    y 0.000000 3.048400 0.000000 
#    z 0.000000 0.000000 3.527710 
# 
# 
# High freq. dielectric constant tensor:
#      x y z
#    x 1.629750 0.000000 0.000000 
#    y 0.000000 1.629750 0.000000 
#    z 0.000000 0.000000 1.678810 
# 
# From -- ./inp_files/1048.got.cif
#   From: 2010.03.12/outbox.cif.g09.slc.cpg/sg188_1_cif.got.tgz:1048.got - 2010.04.01 12:01:06.
