data_PCOD8327933
_publ_section_title
;
Structure prediction by ZEFSAII (Michael W. Deem and Ramdas Pophale) SiO2 
 PCOD8327933
Probable space group: P -6 2 C
;
_chemical_formula_sum "Si O2"
_cell_formula_units_Z 72
_cell_length_a 23.619721
_cell_length_b 23.619721
_cell_length_c 8.684819
_cell_angle_alpha 90.000000
_cell_angle_beta 90.000000
_cell_angle_gamma 120.000000
_cell_volume 4196.052662
_symmetry_space_group_name_H-M "P -6 2 C"
_symmetry_group_IT_number 190
_symmetry_cell_setting 'hexagonal'
loop_
_space_group_symop_operation_xyz
x,y,z
-x+y,-x,1/2-z
-y,x-y,z
x,y,1/2-z
-x+y,-x,z
-y,x-y,1/2-z
x-y,-y,-z
-x,-x+y,-z
y,x,-z
y,x,1/2+z
x-y,-y,1/2+z
-x,-x+y,1/2+z
loop_
_atom_site_type_symbol
_atom_site_label
_atom_site_fract_x
_atom_site_fract_y
_atom_site_fract_z
Si Si1 0.369551 0.071050 0.930790
Si Si2 0.283592 0.354313 0.069911
Si Si3 0.927167 0.410302 0.431834
Si Si4 0.142917 0.071706 0.067003
Si Si5 0.071659 0.593616 0.430425
Si Si6 0.148490 0.863142 0.068298
O O1 0.376259 0.066222 0.750000
O O2 0.333172 0.110009 0.975827
O O3 0.442909 0.106898 0.004027
O O4 0.326460 0.000000 0.000000
O O5 0.281002 0.343348 0.250000
O O6 0.328604 0.432587 0.033475
O O7 0.210810 0.324955 0.005618
O O8 0.313001 0.313001 0.000000
O O9 0.928193 0.409460 0.250000
O O10 0.890772 0.449859 0.490092
O O11 0.000000 0.447634 0.500000
O O12 0.136532 0.069210 0.250000
O O13 0.121631 0.121631 0.000000
O O14 0.217353 0.096288 0.020485
O O15 0.095833 0.000000 0.000000
O O16 0.067681 0.579692 0.250000
O O17 0.000000 0.561302 0.500000
O O18 0.138811 0.868292 0.250000
#
# Coordination Sequence:
#
# PCOD8327933 Si02
#       6
#    12  12  12  12  12  12
#     4  10  19  31  47  66  93 125 158 195 237 286
#     4   9  18  31  47  68  95 126 158 193 234 283
#     4  10  17  26  42  64  91 119 150 183 218 264
#     4  12  25  41  59  77  97 124 164 216 271 324
#     4   9  15  25  42  64  91 120 149 179 217 261
#     4  10  21  36  52  73 100 130 164 202 250 306
#
# _framework density 17.158984
#
# number of rings (size 3 to 8) (size 9 to 14) (size 15 to 20)
#    0.000    2.000    0.000    7.167    0.000    5.333 
#    0.000    0.000    0.000    0.000    0.000    0.000 
#    1.667    0.000    3.000    0.000    1.000    0.000 
#
# Total GULP energy -892275.772973 kJ/mol
# GULP energy per Si atom -12392.719069 kJ/mol
# Density = 1.711993 g / cm^3
# Si number density = 17.158984 Si / 1000 Ang^3
#
#
#
# Elastic Constant Matrix: (Units=GPa)
#
#
# Indices 1 2 3 4 5 6 
#
# 1 87.6988 36.7230 33.4837 0.0000 0.0000 0.0000
# 2 36.7230 87.6988 33.4837 0.0000 0.0000 0.0000
# 3 33.4837 33.4837 93.8575 0.0000 0.0000 0.0000
# 4 0.0000 0.0000 0.0000 21.5711 0.0000 0.0000
# 5 0.0000 0.0000 0.0000 0.0000 21.5711 0.0000
# 6 0.0000 0.0000 0.0000 0.0000 0.0000 25.4879
#
#
#
# Elastic Compliance Matrix: (Units=1/GPa)
#
#
# Indices 1 2 3 4 5 6 
#
# 1 0.014782 -0.004835 -0.003549 0.000000 0.000000 0.000000
# 2 -0.004835 0.014782 -0.003549 0.000000 0.000000 0.000000
# 3 -0.003549 -0.003549 0.013186 0.000000 0.000000 0.000000
# 4 0.000000 0.000000 0.000000 0.046358 0.000000 0.000000
# 5 0.000000 0.000000 0.000000 0.000000 0.046358 0.000000
# 6 0.000000 0.000000 0.000000 0.000000 0.000000 0.039234
#
#
# Mechanical properties :
#
#
# Convention : Reuss Voigt Hill
#
# Bulk Modulus (GPa) = 52.94891 52.95954 52.95423
# Shear Modulus (GPa) = 24.40672 24.76367 24.58519
#
# Velocity S-wave (km/s) = 3.77555 3.80305 3.78933
# Velocity P-wave (km/s) = 7.06620 7.08628 7.07625
#
# Compressibility (1/GPa) = 0.01888613
#
# Stress axis : x y z
#
# Youngs Moduli (GPa) = 67.64909 67.64909 75.83556
#
# Poissons Ratio (x) = 0.32708 0.26911
# Poissons Ratio (y) = 0.32708 0.26911
# Poissons Ratio (z) = 0.24006 0.24006
#
# Static dielectric constant tensor:
#      x y z
#    x 3.650560 0.000000 0.000000 
#    y 0.000000 3.650560 0.000000 
#    z 0.000000 0.000000 3.283250 
# 
# 
# High freq. dielectric constant tensor:
#      x y z
#    x 1.646580 0.000000 0.000000 
#    y 0.000000 1.646580 0.000000 
#    z 0.000000 0.000000 1.675730 
# 
# From -- ./inp_files/1248.got.cif
#   From: 2010.06.25/outbox.cif.g09.slc.cpg/sg190_1_cif.got.tgz:1248.got - 2010.06.28 13:08:06.
