data_PCOD8327103
_publ_section_title
;
Structure prediction by ZEFSAII (Michael W. Deem and Ramdas Pophale) SiO2 
 PCOD8327103
Probable space group: P -6 M 2
;
_chemical_formula_sum "Si O2"
_cell_formula_units_Z 72
_cell_length_a 12.443017
_cell_length_b 12.443017
_cell_length_c 31.105286
_cell_angle_alpha 90.000000
_cell_angle_beta 90.000000
_cell_angle_gamma 120.000000
_cell_volume 4170.769793
_symmetry_space_group_name_H-M "P -6 M 2"
_symmetry_group_IT_number 187
_symmetry_cell_setting 'hexagonal'
loop_
_space_group_symop_operation_xyz
x,y,z
-x+y,-x,-z
-y,x-y,z
x,y,-z
-x+y,-x,z
-y,x-y,-z
-y,-x,-z
-x+y,y,-z
x,x-y,-z
-x+y,y,z
x,x-y,z
-y,-x,z
loop_
_atom_site_type_symbol
_atom_site_label
_atom_site_fract_x
_atom_site_fract_y
_atom_site_fract_z
Si Si1 0.916623 0.331796 0.836231
Si Si2 0.999886 0.250525 0.754403
Si Si3 0.423645 0.335665 0.500000
Si Si4 0.917266 0.331953 0.000000
Si Si5 0.251995 0.250716 0.917874
Si Si6 0.332095 0.415502 0.327279
Si Si7 0.664078 0.583766 0.406872
O O1 0.927639 0.463820 0.840236
O O2 0.772740 0.227261 0.839304
O O3 0.993906 0.317044 0.874505
O O4 0.975800 0.324567 0.791518
O O5 0.125062 0.250124 0.765214
O O6 0.007718 0.318133 0.709893
O O7 0.890479 0.109522 0.751336
O O8 0.570896 0.429105 0.500000
O O9 0.397683 0.198842 0.500000
O O10 0.369010 0.352655 0.545421
O O11 0.986684 0.323611 0.041912
O O12 0.774029 0.225972 0.000000
O O13 0.924167 0.462084 0.000000
O O14 0.214868 0.107434 0.918526
O O15 0.128783 0.257565 0.920677
O O16 0.226008 0.452017 0.328152
O O17 0.461397 0.538604 0.318822
O O18 0.329200 0.350333 0.372278
O O19 0.796860 0.593719 0.401824
O O20 0.559029 0.440972 0.399337
#
# Coordination Sequence:
#
# PCOD8327103 Si02
#       7
#    12  12   6   6  12  12  12
#     4  10  20  34  53  76 102 131 162 198 240 287
#     4  10  20  34  53  75  98 124 156 198 245 291
#     4   8  13  22  39  64  92 118 144 180 230 286
#     4  10  20  34  54  78 104 134 168 208 252 298
#     4  10  20  34  54  78 104 134 168 209 253 296
#     4  10  20  33  48  66  92 127 164 198 232 276
#     4   9  16  27  45  69  94 118 147 187 237 287
#
# _framework density 17.263000999999999
#
# number of rings (size 3 to 8) (size 9 to 14) (size 15 to 20)
#    0.000    2.333    0.000    3.250    0.000    1.333 
#    0.000    4.583    0.000   14.667    0.000    1.167 
#    0.000    0.000    0.000    0.000    0.000    0.000 
#
# Total GULP energy -892630.964381 kJ/mol
# GULP energy per Si atom -12397.652283 kJ/mol
# Density = 1.722371 g / cm^3
# Si number density = 17.263001 Si / 1000 Ang^3
#
#
#
# Elastic Constant Matrix: (Units=GPa)
#
#
# Indices 1 2 3 4 5 6 
#
# 1 91.6062 54.3880 46.2551 0.0000 0.0000 0.0000
# 2 54.3880 91.6062 46.2551 0.0000 0.0000 0.0000
# 3 46.2551 46.2551 125.3306 0.0000 0.0000 0.0000
# 4 0.0000 0.0000 0.0000 18.3930 0.0000 0.0000
# 5 0.0000 0.0000 0.0000 0.0000 18.3930 0.0000
# 6 0.0000 0.0000 0.0000 0.0000 0.0000 18.6091
#
#
#
# Elastic Compliance Matrix: (Units=1/GPa)
#
#
# Indices 1 2 3 4 5 6 
#
# 1 0.017904 -0.008964 -0.003300 0.000000 0.000000 0.000000
# 2 -0.008964 0.017904 -0.003300 0.000000 0.000000 0.000000
# 3 -0.003300 -0.003300 0.010414 0.000000 0.000000 0.000000
# 4 0.000000 0.000000 0.000000 0.054369 0.000000 0.000000
# 5 0.000000 0.000000 0.000000 0.000000 0.054369 0.000000
# 6 0.000000 0.000000 0.000000 0.000000 0.000000 0.053737
#
#
# Mechanical properties :
#
#
# Convention : Reuss Voigt Hill
#
# Bulk Modulus (GPa) = 66.23891 66.92660 66.58275
# Shear Modulus (GPa) = 20.42011 21.85532 21.13771
#
# Velocity S-wave (km/s) = 3.44304 3.56198 3.50301
# Velocity P-wave (km/s) = 7.36612 7.46792 7.41720
#
# Compressibility (1/GPa) = 0.01509687
#
# Stress axis : x y z
#
# Youngs Moduli (GPa) = 55.85189 55.85189 96.02074
#
# Poissons Ratio (x) = 0.50066 0.31683
# Poissons Ratio (y) = 0.50066 0.31683
# Poissons Ratio (z) = 0.18429 0.18429
#
# Static dielectric constant tensor:
#      x y z
#    x 3.061500 0.000000 0.000000 
#    y 0.000000 3.061500 0.000000 
#    z 0.000000 0.000000 3.653300 
# 
# 
# High freq. dielectric constant tensor:
#      x y z
#    x 1.655920 0.000000 0.000000 
#    y 0.000000 1.655920 0.000000 
#    z 0.000000 0.000000 1.692100 
# 
# From -- ./inp_files/4526.got.cif
#   From: 2010.03.12/outbox.cif.g09.slc.cpg/sg187_3_cif.got.tgz:4526.got - 2010.04.01 11:58:23.
