data_PCOD8327522
_publ_section_title
;
Structure prediction by ZEFSAII (Michael W. Deem and Ramdas Pophale) SiO2 
 PCOD8327522
Probable space group: P -6 2 M
;
_chemical_formula_sum "Si O2"
_cell_formula_units_Z 72
_cell_length_a 19.305262
_cell_length_b 19.305262
_cell_length_c 12.438550
_cell_angle_alpha 90.000000
_cell_angle_beta 90.000000
_cell_angle_gamma 120.000000
_cell_volume 4014.687890
_symmetry_space_group_name_H-M "P -6 2 M"
_symmetry_group_IT_number 189
_symmetry_cell_setting 'hexagonal'
loop_
_space_group_symop_operation_xyz
x,y,z
-x+y,-x,-z
-y,x-y,z
x,y,-z
-x+y,-x,z
-y,x-y,-z
x-y,-y,-z
-x,-x+y,-z
y,x,-z
y,x,z
x-y,-y,z
-x,-x+y,z
loop_
_atom_site_type_symbol
_atom_site_label
_atom_site_fract_x
_atom_site_fract_y
_atom_site_fract_z
Si Si1 0.093871 0.411810 0.500000
Si Si2 0.093666 0.341258 0.279574
Si Si3 0.190274 0.489762 0.876258
Si Si4 0.092282 0.812646 0.374176
Si Si5 0.530021 0.365417 0.122973
Si Si6 0.468414 0.903906 0.500000
Si Si7 0.091370 0.659705 0.320130
O O1 0.120440 0.385501 0.393762
O O2 0.134410 0.507606 0.500000
O O3 0.000000 0.373736 0.500000
O O4 0.143499 0.406915 0.188913
O O5 0.114635 0.269025 0.295763
O O6 0.000000 0.302474 0.252612
O O7 0.165212 0.554602 0.841140
O O8 0.285835 0.535797 0.859508
O O9 0.168132 0.465305 0.000000
O O10 0.101115 0.836678 0.500000
O O11 0.124362 0.751093 0.351556
O O12 0.000000 0.778767 0.337527
O O13 0.456842 0.354929 0.195702
O O14 0.509236 0.372976 0.000000
O O15 0.490069 0.868948 0.604716
O O16 0.512631 0.000000 0.500000
O O17 0.000000 0.617190 0.351331
#
# Coordination Sequence:
#
# PCOD8327522 Si02
#       7
#     6  12  12  12  12   6  12
#     4   9  18  29  45  75 109 136 167 215 277 331
#     4  11  21  35  56  81 110 143 181 230 283 337
#     4  10  21  36  53  75 105 149 194 230 273 321
#     4  10  19  34  56  81 108 140 177 219 274 342
#     4  10  20  34  51  70 100 140 183 224 261 308
#     4   9  16  27  44  71 102 130 162 203 254 311
#     4  10  18  30  50  73  96 127 169 213 262 314
#
# _framework density 17.934145999999998
#
# number of rings (size 3 to 8) (size 9 to 14) (size 15 to 20)
#    0.000    2.000    3.333    1.333    0.000    4.000 
#    0.000    1.667    0.000    0.833    0.000    0.000 
#    0.000    0.000    0.000    0.000    0.000    0.000 
#
# Total GULP energy -892112.898585 kJ/mol
# GULP energy per Si atom -12390.456925 kJ/mol
# Density = 1.789333 g / cm^3
# Si number density = 17.934146 Si / 1000 Ang^3
#
#
#
# Elastic Constant Matrix: (Units=GPa)
#
#
# Indices 1 2 3 4 5 6 
#
# 1 62.5784 23.8624 24.9833 0.0000 0.0000 0.0000
# 2 23.8624 62.5784 24.9833 0.0000 0.0000 0.0000
# 3 24.9833 24.9833 79.9712 0.0000 0.0000 0.0000
# 4 0.0000 0.0000 0.0000 24.6571 0.0000 0.0000
# 5 0.0000 0.0000 0.0000 0.0000 24.6571 0.0000
# 6 0.0000 0.0000 0.0000 0.0000 0.0000 19.3580
#
#
#
# Elastic Compliance Matrix: (Units=1/GPa)
#
#
# Indices 1 2 3 4 5 6 
#
# 1 0.019974 -0.005855 -0.004411 0.000000 0.000000 0.000000
# 2 -0.005855 0.019974 -0.004411 0.000000 0.000000 0.000000
# 3 -0.004411 -0.004411 0.015260 0.000000 0.000000 0.000000
# 4 0.000000 0.000000 0.000000 0.040556 0.000000 0.000000
# 5 0.000000 0.000000 0.000000 0.000000 0.040556 0.000000
# 6 0.000000 0.000000 0.000000 0.000000 0.000000 0.051658
#
#
# Mechanical properties :
#
#
# Convention : Reuss Voigt Hill
#
# Bulk Modulus (GPa) = 38.67835 39.19845 38.93840
# Shear Modulus (GPa) = 22.12885 22.48772 22.30828
#
# Velocity S-wave (km/s) = 3.51649 3.54489 3.53072
# Velocity P-wave (km/s) = 6.17263 6.21767 6.19519
#
# Compressibility (1/GPa) = 0.02585426
#
# Stress axis : x y z
#
# Youngs Moduli (GPa) = 50.06612 50.06612 65.52973
#
# Poissons Ratio (x) = 0.29316 0.28902
# Poissons Ratio (y) = 0.29316 0.28902
# Poissons Ratio (z) = 0.22082 0.22082
#
# Static dielectric constant tensor:
#      x y z
#    x 3.274990 0.000000 0.000000 
#    y 0.000000 3.274990 0.000000 
#    z 0.000000 0.000000 3.300470 
# 
# 
# High freq. dielectric constant tensor:
#      x y z
#    x 1.680430 0.000000 0.000000 
#    y 0.000000 1.680430 0.000000 
#    z 0.000000 0.000000 1.691510 
# 
# From -- ./inp_files/2098.got.cif
#   From: 2010.03.12/outbox.cif.g09.slc.cpg/sg189_2_cif.got.tgz:2098.got - 2010.04.01 12:03:36.
