data_PCOD8327635
_publ_section_title
;
Structure prediction by ZEFSAII (Michael W. Deem and Ramdas Pophale) SiO2 
 PCOD8327635
Probable space group: P -6 2 M
;
_chemical_formula_sum "Si O2"
_cell_formula_units_Z 60
_cell_length_a 19.792040
_cell_length_b 19.792040
_cell_length_c 9.529413
_cell_angle_alpha 90.000000
_cell_angle_beta 90.000000
_cell_angle_gamma 120.000000
_cell_volume 3232.793031
_symmetry_space_group_name_H-M "P -6 2 M"
_symmetry_group_IT_number 189
_symmetry_cell_setting 'hexagonal'
loop_
_space_group_symop_operation_xyz
x,y,z
-x+y,-x,-z
-y,x-y,z
x,y,-z
-x+y,-x,z
-y,x-y,-z
x-y,-y,-z
-x,-x+y,-z
y,x,-z
y,x,z
x-y,-y,z
-x,-x+y,z
loop_
_atom_site_type_symbol
_atom_site_label
_atom_site_fract_x
_atom_site_fract_y
_atom_site_fract_z
Si Si1 0.776401 0.000000 0.332920
Si Si2 0.493559 0.696052 0.333817
Si Si3 0.380022 0.380022 0.666686
Si Si4 0.635116 0.161826 0.667073
Si Si5 0.086435 0.372648 0.153165
Si Si6 0.913317 0.126950 0.156560
O O1 0.781171 0.000000 0.500000
O O2 0.698038 0.000000 0.283269
O O3 0.777901 0.925487 0.273782
O O4 0.493056 0.695768 0.500000
O O5 0.480398 0.765191 0.276714
O O6 0.430825 0.610737 0.275881
O O7 0.576945 0.714823 0.281024
O O8 0.383100 0.383100 0.500000
O O9 0.456550 0.378002 0.724614
O O10 0.635124 0.159561 0.500000
O O11 0.083387 0.291583 0.158951
O O12 0.000000 0.359396 0.174050
O O13 0.118914 0.412033 0.000000
O O14 0.000000 0.141755 0.192602
O O15 0.888799 0.089694 0.000000
#
# Coordination Sequence:
#
# PCOD8327635 Si02
#       6
#     6  12   6  12  12  12
#     4  11  21  33  55  83 111 138 171 226 281 315
#     4  10  19  32  53  77 103 139 184 223 266 325
#     4   9  18  31  47  73 111 144 169 212 281 335
#     4   9  18  31  48  74 108 140 175 221 269 325
#     4   9  19  35  54  76 104 135 172 224 274 313
#     4   9  19  37  57  76 102 142 183 213 259 332
#
# _framework density 18.559802999999999
#
# number of rings (size 3 to 8) (size 9 to 14) (size 15 to 20)
#    0.000    2.600    0.000    3.100    1.400    4.800 
#    0.600    3.000    0.000    2.400    0.000    0.000 
#    0.000    0.000    0.000    0.000    0.000    0.000 
#
# Total GULP energy -743603.835325 kJ/mol
# GULP energy per Si atom -12393.397255 kJ/mol
# Density = 1.851756 g / cm^3
# Si number density = 18.559803 Si / 1000 Ang^3
#
#
#
# Elastic Constant Matrix: (Units=GPa)
#
#
# Indices 1 2 3 4 5 6 
#
# 1 120.0585 62.5103 30.1009 0.0000 0.0000 0.0000
# 2 62.5103 120.0585 30.1009 0.0000 0.0000 0.0000
# 3 30.1009 30.1009 34.5958 0.0000 0.0000 0.0000
# 4 0.0000 0.0000 0.0000 20.4339 0.0000 0.0000
# 5 0.0000 0.0000 0.0000 0.0000 20.4339 0.0000
# 6 0.0000 0.0000 0.0000 0.0000 0.0000 28.7741
#
#
#
# Elastic Compliance Matrix: (Units=1/GPa)
#
#
# Indices 1 2 3 4 5 6 
#
# 1 0.012529 -0.004848 -0.006683 0.000000 0.000000 0.000000
# 2 -0.004848 0.012529 -0.006683 0.000000 0.000000 0.000000
# 3 -0.006683 -0.006683 0.040535 0.000000 0.000000 0.000000
# 4 0.000000 0.000000 0.000000 0.048938 0.000000 0.000000
# 5 0.000000 0.000000 0.000000 0.000000 0.048938 0.000000
# 6 0.000000 0.000000 0.000000 0.000000 0.000000 0.034753
#
#
# Mechanical properties :
#
#
# Convention : Reuss Voigt Hill
#
# Bulk Modulus (GPa) = 34.28817 57.79299 46.04058
# Shear Modulus (GPa) = 20.46053 24.06174 22.26114
#
# Velocity S-wave (km/s) = 3.32386 3.60452 3.46703
# Velocity P-wave (km/s) = 5.76587 6.96634 6.39434
#
# Compressibility (1/GPa) = 0.02916457
#
# Stress axis : x y z
#
# Youngs Moduli (GPa) = 79.81515 79.81515 24.67006
#
# Poissons Ratio (x) = 0.38693 0.16487
# Poissons Ratio (y) = 0.38693 0.16487
# Poissons Ratio (z) = 0.53342 0.53342
#
# Static dielectric constant tensor:
#      x y z
#    x 3.848200 0.000000 0.000000 
#    y 0.000000 3.848200 0.000000 
#    z 0.000000 0.000000 3.097410 
# 
# 
# High freq. dielectric constant tensor:
#      x y z
#    x 1.728130 0.000000 0.000000 
#    y 0.000000 1.728130 0.000000 
#    z 0.000000 0.000000 1.682420 
# 
# From -- ./inp_files/902.got.cif
#   From: 2010.03.12/outbox.cif.g09.slc.cpg/sg189_1_cif.got.tgz:902.got - 2010.04.01 12:03:36.
