data_PCOD8327704
_publ_section_title
;
Structure prediction by ZEFSAII (Michael W. Deem and Ramdas Pophale) SiO2 
 PCOD8327704
Probable space group: P -6 2 M
;
_chemical_formula_sum "Si O2"
_cell_formula_units_Z 84
_cell_length_a 19.241050
_cell_length_b 19.241050
_cell_length_c 14.536736
_cell_angle_alpha 90.000000
_cell_angle_beta 90.000000
_cell_angle_gamma 120.000000
_cell_volume 4660.742092
_symmetry_space_group_name_H-M "P -6 2 M"
_symmetry_group_IT_number 189
_symmetry_cell_setting 'hexagonal'
loop_
_space_group_symop_operation_xyz
x,y,z
-x+y,-x,-z
-y,x-y,z
x,y,-z
-x+y,-x,z
-y,x-y,-z
x-y,-y,-z
-x,-x+y,-z
y,x,-z
y,x,z
x-y,-y,z
-x,-x+y,z
loop_
_atom_site_type_symbol
_atom_site_label
_atom_site_fract_x
_atom_site_fract_y
_atom_site_fract_z
Si Si1 0.161720 0.346460 0.769412
Si Si2 0.709329 0.615629 0.398735
Si Si3 0.799819 0.289298 0.894662
Si Si4 0.905550 0.810912 0.106213
Si Si5 0.536095 0.378384 0.895425
Si Si6 0.434817 0.345164 0.731822
Si Si7 0.537653 0.093856 0.394606
O O1 0.109279 0.334028 0.678414
O O2 0.154094 0.408094 0.836982
O O3 0.132977 0.264082 0.824170
O O4 0.250155 0.383558 0.729009
O O5 0.748994 0.621677 0.500000
O O6 0.651590 0.651590 0.409025
O O7 0.651075 0.521135 0.371631
O O8 0.704260 0.240798 0.881079
O O9 0.830638 0.379452 0.861916
O O10 0.822755 0.287015 0.000000
O O11 0.864386 0.864386 0.125245
O O12 0.000000 0.865095 0.126628
O O13 0.891434 0.780724 0.000000
O O14 0.465289 0.375987 0.835171
O O15 0.517912 0.389676 0.000000
O O16 0.375212 0.375212 0.698764
O O17 0.514091 0.380744 0.666389
O O18 0.564772 0.110900 0.500000
O O19 0.490901 0.000000 0.371244
#
# Coordination Sequence:
#
# PCOD8327704 Si02
#       7
#    12  12  12  12  12  12  12
#     4  11  20  31  50  77 106 131 160 209 266 311
#     4   9  18  33  53  75  98 128 166 206 251 302
#     4   9  17  29  45  68  97 131 171 209 245 287
#     4  10  21  38  59  80 102 132 171 215 268 335
#     4   9  17  29  45  63  89 128 168 202 235 278
#     4  10  20  31  44  67  98 131 165 196 234 289
#     4   8  15  30  50  68  90 125 166 202 233 270
#
# _framework density 18.022880000000001
#
# number of rings (size 3 to 8) (size 9 to 14) (size 15 to 20)
#    0.000    2.571    0.000    3.429    0.000    3.143 
#    0.000    0.714    0.000    3.571    0.000    0.000 
#    0.000    1.143    0.000    0.000    0.000    0.000 
#
# Total GULP energy -1041089.447507 kJ/mol
# GULP energy per Si atom -12393.921994 kJ/mol
# Density = 1.798186 g / cm^3
# Si number density = 18.022880 Si / 1000 Ang^3
#
#
#
# Elastic Constant Matrix: (Units=GPa)
#
#
# Indices 1 2 3 4 5 6 
#
# 1 71.4871 26.1255 39.3752 0.0000 0.0000 0.0000
# 2 26.1255 71.4871 39.3752 0.0000 0.0000 0.0000
# 3 39.3752 39.3752 88.9996 0.0000 0.0000 0.0000
# 4 0.0000 0.0000 0.0000 27.5240 0.0000 0.0000
# 5 0.0000 0.0000 0.0000 0.0000 27.5240 0.0000
# 6 0.0000 0.0000 0.0000 0.0000 0.0000 22.6808
#
#
#
# Elastic Compliance Matrix: (Units=1/GPa)
#
#
# Indices 1 2 3 4 5 6 
#
# 1 0.018988 -0.003057 -0.007048 0.000000 0.000000 0.000000
# 2 -0.003057 0.018988 -0.007048 0.000000 0.000000 0.000000
# 3 -0.007048 -0.007048 0.017472 0.000000 0.000000 0.000000
# 4 0.000000 0.000000 0.000000 0.036332 0.000000 0.000000
# 5 0.000000 0.000000 0.000000 0.000000 0.036332 0.000000
# 6 0.000000 0.000000 0.000000 0.000000 0.000000 0.044090
#
#
# Mechanical properties :
#
#
# Convention : Reuss Voigt Hill
#
# Bulk Modulus (GPa) = 47.30018 49.08063 48.19041
# Shear Modulus (GPa) = 23.41307 24.01896 23.71602
#
# Velocity S-wave (km/s) = 3.60818 3.65457 3.63145
# Velocity P-wave (km/s) = 6.60758 6.71560 6.66181
#
# Compressibility (1/GPa) = 0.02114157
#
# Stress axis : x y z
#
# Youngs Moduli (GPa) = 52.66520 52.66520 57.23321
#
# Poissons Ratio (x) = 0.16101 0.40338
# Poissons Ratio (y) = 0.16101 0.40338
# Poissons Ratio (z) = 0.37119 0.37119
#
# Static dielectric constant tensor:
#      x y z
#    x 3.234190 0.000000 0.000000 
#    y 0.000000 3.234190 0.000000 
#    z 0.000000 0.000000 3.399590 
# 
# 
# High freq. dielectric constant tensor:
#      x y z
#    x 1.683390 0.000000 0.000000 
#    y 0.000000 1.683390 0.000000 
#    z 0.000000 0.000000 1.702120 
# 
# From -- ./inp_files/2791.got.cif
#   From: 2010.03.12/outbox.cif.g09.slc.cpg/sg189_2_cif.got.tgz:2791.got - 2010.04.01 12:03:36.
