data_PCOD8327526
_publ_section_title
;
Structure prediction by ZEFSAII (Michael W. Deem and Ramdas Pophale) SiO2 
 PCOD8327526
Probable space group: P -6 2 M
;
_chemical_formula_sum "Si O2"
_cell_formula_units_Z 66
_cell_length_a 20.440629
_cell_length_b 20.440629
_cell_length_c 9.784739
_cell_angle_alpha 90.000000
_cell_angle_beta 90.000000
_cell_angle_gamma 120.000000
_cell_volume 3540.530900
_symmetry_space_group_name_H-M "P -6 2 M"
_symmetry_group_IT_number 189
_symmetry_cell_setting 'hexagonal'
loop_
_space_group_symop_operation_xyz
x,y,z
-x+y,-x,-z
-y,x-y,z
x,y,-z
-x+y,-x,z
-y,x-y,-z
x-y,-y,-z
-x,-x+y,-z
y,x,-z
y,x,z
x-y,-y,z
-x,-x+y,z
loop_
_atom_site_type_symbol
_atom_site_label
_atom_site_fract_x
_atom_site_fract_y
_atom_site_fract_z
Si Si1 0.812590 0.163286 0.343254
Si Si2 0.508624 0.846635 0.761415
Si Si3 0.315471 0.575758 0.000000
Si Si4 0.492845 0.579626 0.652312
Si Si5 0.383831 0.383831 0.143979
Si Si6 0.730298 0.000000 0.345006
Si Si7 0.387698 0.088621 0.157020
O O1 0.838601 0.188579 0.500000
O O2 0.731581 0.157539 0.321732
O O3 0.805875 0.080536 0.313914
O O4 0.872935 0.219213 0.234838
O O5 0.471593 0.775575 0.862684
O O6 0.449357 0.852446 0.660236
O O7 0.536144 0.922970 0.850930
O O8 0.399001 0.650855 0.000000
O O9 0.519293 0.613857 0.500000
O O10 0.512256 0.512256 0.675497
O O11 0.535593 0.645322 0.763604
O O12 0.337389 0.337389 0.270196
O O13 0.344924 0.344924 0.000000
O O14 0.708120 0.000000 0.500000
O O15 0.330113 0.000000 0.160740
O O16 0.406467 0.117828 0.000000
#
# Coordination Sequence:
#
# PCOD8327526 Si02
#       7
#    12  12   6  12   6   6  12
#     4  10  21  36  59  84 112 145 177 224 278 330
#     4  11  21  34  55  74 104 135 178 224 279 326
#     4  10  26  39  46  68 100 144 180 226 271 317
#     4  10  21  36  56  80 106 137 179 229 277 329
#     4  10  18  30  50  80  96 126 170 221 266 323
#     4   8  18  34  52  82 116 140 168 209 270 331
#     4  10  23  39  57  81 111 147 187 231 275 324
#
# _framework density 18.641272000000001
#
# number of rings (size 3 to 8) (size 9 to 14) (size 15 to 20)
#    0.182    1.818    1.818    1.091    5.091    2.545 
#    0.000    0.000    0.000    0.000    0.000    0.000 
#    0.909    0.000    0.545    0.000    0.727    0.000 
#
# Total GULP energy -817657.399349 kJ/mol
# GULP energy per Si atom -12388.748475 kJ/mol
# Density = 1.859884 g / cm^3
# Si number density = 18.641272 Si / 1000 Ang^3
#
#
#
# Elastic Constant Matrix: (Units=GPa)
#
#
# Indices 1 2 3 4 5 6 
#
# 1 53.0321 0.0098 25.5206 0.0000 0.0000 0.0000
# 2 0.0098 53.0321 25.5206 0.0000 0.0000 0.0000
# 3 25.5206 25.5206 109.2405 0.0000 0.0000 0.0000
# 4 0.0000 0.0000 0.0000 27.8222 0.0000 0.0000
# 5 0.0000 0.0000 0.0000 0.0000 27.8222 0.0000
# 6 0.0000 0.0000 0.0000 0.0000 0.0000 26.5112
#
#
#
# Elastic Compliance Matrix: (Units=1/GPa)
#
#
# Indices 1 2 3 4 5 6 
#
# 1 0.021590 0.002730 -0.005682 0.000000 0.000000 0.000000
# 2 0.002730 0.021590 -0.005682 0.000000 0.000000 0.000000
# 3 -0.005682 -0.005682 0.011809 0.000000 0.000000 0.000000
# 4 0.000000 0.000000 0.000000 0.035942 0.000000 0.000000
# 5 0.000000 0.000000 0.000000 0.000000 0.035942 0.000000
# 6 0.000000 0.000000 0.000000 0.000000 0.000000 0.037720
#
#
# Mechanical properties :
#
#
# Convention : Reuss Voigt Hill
#
# Bulk Modulus (GPa) = 26.50914 35.26742 30.88828
# Shear Modulus (GPa) = 25.71557 27.38138 26.54847
#
# Velocity S-wave (km/s) = 3.71819 3.83673 3.77792
# Velocity P-wave (km/s) = 5.71706 6.21187 5.96959
#
# Compressibility (1/GPa) = 0.03772284
#
# Stress axis : x y z
#
# Youngs Moduli (GPa) = 46.31733 46.31733 84.68254
#
# Poissons Ratio (x) = -0.12646 0.48114
# Poissons Ratio (y) = -0.12646 0.48114
# Poissons Ratio (z) = 0.26316 0.26316
#
# Static dielectric constant tensor:
#      x y z
#    x 3.392210 0.000000 0.000000 
#    y 0.000000 3.392210 0.000000 
#    z 0.000000 0.000000 3.526520 
# 
# 
# High freq. dielectric constant tensor:
#      x y z
#    x 1.699170 0.000000 0.000000 
#    y 0.000000 1.699170 0.000000 
#    z 0.000000 0.000000 1.738990 
# 
# From -- ./inp_files/1077.got.cif
#   From: 2010.03.12/outbox.cif.g09.slc.cpg/sg189_1_cif.got.tgz:1077.got - 2010.04.01 12:03:36.
