data_PCOD8327437
_publ_section_title
;
Structure prediction by ZEFSAII (Michael W. Deem and Ramdas Pophale) SiO2 
 PCOD8327437
Probable space group: P -6 C 2
;
_chemical_formula_sum "Si O2"
_cell_formula_units_Z 52
_cell_length_a 14.068583
_cell_length_b 14.068583
_cell_length_c 14.858481
_cell_angle_alpha 90.000000
_cell_angle_beta 90.000000
_cell_angle_gamma 120.000000
_cell_volume 2546.864026
_symmetry_space_group_name_H-M "P -6 C 2"
_symmetry_group_IT_number 188
_symmetry_cell_setting 'hexagonal'
loop_
_space_group_symop_operation_xyz
x,y,z
-x+y,-x,1/2-z
-y,x-y,z
x,y,1/2-z
-x+y,-x,z
-y,x-y,1/2-z
-y,-x,-z
-x+y,y,-z
x,x-y,-z
-x+y,y,1/2+z
x,x-y,1/2+z
-y,-x,1/2+z
loop_
_atom_site_type_symbol
_atom_site_label
_atom_site_fract_x
_atom_site_fract_y
_atom_site_fract_z
Si Si1 0.741580 0.907561 0.750000
Si Si2 0.902719 0.425647 0.146191
Si Si3 0.333334 0.666668 0.357660
Si Si4 0.250987 0.087476 0.750000
Si Si5 0.818647 0.578796 0.402124
Si Si6 0.328747 0.873781 0.150375
O O1 0.811579 0.847757 0.750000
O O2 0.662304 0.876699 0.838945
O O3 0.827013 0.035530 0.750000
O O4 0.915499 0.464004 0.250000
O O5 0.808412 0.299590 0.143234
O O6 0.870156 0.499852 0.086386
O O7 0.015094 0.437892 0.103872
O O8 0.333334 0.666668 0.250000
O O9 0.450568 0.687721 0.396995
O O10 0.319181 0.102621 0.659909
O O11 0.811679 0.623358 0.500000
O O12 0.375354 0.875266 0.250000
#
# Coordination Sequence:
#
# PCOD8327437 Si02
#       6
#     6  12   4   6  12  12
#     4  10  21  37  63  87 119 168 212 266 320 372
#     4  11  19  38  60  88 133 167 205 261 321 393
#     4   9  15  24  48  87 118 149 199 250 302 361
#     4  12  23  43  65  89 127 166 222 270 330 392
#     4  12  24  38  62  99 131 170 211 261 337 406
#     4   8  17  30  53  86 122 153 208 260 303 375
#
# _framework density 20.417266000000001
#
# number of rings (size 3 to 8) (size 9 to 14) (size 15 to 20)
#    0.692    0.923    4.615    1.385    3.231    0.000 
#    0.000    1.154    0.000    0.000    0.000    0.000 
#    0.000    0.000    0.000    0.000    0.000    0.000 
#
# Total GULP energy -644452.545565 kJ/mol
# GULP energy per Si atom -12393.318184 kJ/mol
# Density = 2.037079 g / cm^3
# Si number density = 20.417266 Si / 1000 Ang^3
#
#
#
# Elastic Constant Matrix: (Units=GPa)
#
#
# Indices 1 2 3 4 5 6 
#
# 1 129.9873 43.3411 -2.0954 0.0001 0.0000 0.0000
# 2 43.3411 129.9861 -2.0955 0.0000 0.0000 -0.0003
# 3 -2.0954 -2.0955 52.9929 0.0000 0.0000 0.0000
# 4 0.0001 0.0000 0.0000 7.9514 0.0000 0.0000
# 5 0.0000 0.0000 0.0000 0.0000 7.9514 0.0001
# 6 0.0000 -0.0003 0.0000 0.0000 0.0001 43.3226
#
#
#
# Elastic Compliance Matrix: (Units=1/GPa)
#
#
# Indices 1 2 3 4 5 6 
#
# 1 0.008658 -0.002883 0.000228 0.000000 0.000000 0.000000
# 2 -0.002883 0.008658 0.000228 0.000000 0.000000 0.000000
# 3 0.000228 0.000228 0.018888 0.000000 0.000000 0.000000
# 4 0.000000 0.000000 0.000000 0.125764 0.000000 0.000000
# 5 0.000000 0.000000 0.000000 0.000000 0.125765 0.000000
# 6 0.000000 0.000000 0.000000 0.000000 0.000000 0.023083
#
#
# Mechanical properties :
#
#
# Convention : Reuss Voigt Hill
#
# Bulk Modulus (GPa) = 31.89612 43.47409 37.68511
# Shear Modulus (GPa) = 15.33179 30.09947 22.71563
#
# Velocity S-wave (km/s) = 2.74327 3.84372 3.33914
# Velocity P-wave (km/s) = 5.06854 6.40608 5.77616
#
# Compressibility (1/GPa) = 0.03135177
#
# Stress axis : x y z
#
# Youngs Moduli (GPa) = 115.49933 115.49820 52.94227
#
# Poissons Ratio (x) = 0.33300 -0.01209
# Poissons Ratio (y) = 0.33300 -0.01209
# Poissons Ratio (z) = -0.02637 -0.02638
#
# Static dielectric constant tensor:
#      x y z
#    x 3.742190 0.000000 0.000000 
#    y 0.000000 3.742200 0.000000 
#    z 0.000000 0.000000 3.231840 
# 
# 
# High freq. dielectric constant tensor:
#      x y z
#    x 1.799440 0.000000 0.000000 
#    y 0.000000 1.799440 0.000000 
#    z 0.000000 0.000000 1.755130 
# 
# From -- ./inp_files/2227.got.cif
#   From: 2010.03.12/outbox.cif.g09.slc.cpg/sg188_2_cif.got.tgz:2227.got - 2010.04.01 12:01:06.
