data_PCOD8327543
_publ_section_title
;
Structure prediction by ZEFSAII (Michael W. Deem and Ramdas Pophale) SiO2 
 PCOD8327543
Probable space group: P -6 2 M
;
_chemical_formula_sum "Si O2"
_cell_formula_units_Z 72
_cell_length_a 23.200740
_cell_length_b 23.200740
_cell_length_c 9.067090
_cell_angle_alpha 90.000000
_cell_angle_beta 90.000000
_cell_angle_gamma 120.000000
_cell_volume 4226.707871
_symmetry_space_group_name_H-M "P -6 2 M"
_symmetry_group_IT_number 189
_symmetry_cell_setting 'hexagonal'
loop_
_space_group_symop_operation_xyz
x,y,z
-x+y,-x,-z
-y,x-y,z
x,y,-z
-x+y,-x,z
-y,x-y,-z
x-y,-y,-z
-x,-x+y,-z
y,x,-z
y,x,z
x-y,-y,z
-x,-x+y,z
loop_
_atom_site_type_symbol
_atom_site_label
_atom_site_fract_x
_atom_site_fract_y
_atom_site_fract_z
Si Si1 0.726451 0.206902 0.667681
Si Si2 0.534942 0.404542 0.174210
Si Si3 0.341336 0.076860 0.829214
Si Si4 0.000000 0.596560 0.826290
Si Si5 0.815464 0.144541 0.329454
Si Si6 0.716731 0.000000 0.330529
Si Si7 0.520351 0.661422 0.670753
O O1 0.700687 0.192279 0.500000
O O2 0.664838 0.192741 0.771910
O O3 0.757301 0.160559 0.712965
O O4 0.781810 0.283521 0.689401
O O5 0.469769 0.405448 0.229863
O O6 0.596561 0.467130 0.246312
O O7 0.544196 0.410284 0.000000
O O8 0.308513 0.119584 0.769044
O O9 0.407655 0.093942 0.740812
O O10 0.287256 0.000000 0.805685
O O11 0.359979 0.093920 0.000000
O O12 0.000000 0.660629 0.767513
O O13 0.000000 0.600766 0.000000
O O14 0.835574 0.163416 0.500000
O O15 0.787700 0.066237 0.297683
O O16 0.696438 0.000000 0.500000
O O17 0.523983 0.645581 0.500000
#
# Coordination Sequence:
#
# PCOD8327543 Si02
#       7
#    12  12  12   6  12   6  12
#     4   9  18  35  54  71  94 127 167 211 260 309
#     4  11  22  35  52  75 104 133 169 215 262 313
#     4  10  21  36  54  76 105 139 172 210 254 299
#     4  10  22  34  48  76 108 136 166 207 258 311
#     4   9  18  32  53  79 106 135 168 205 246 296
#     4  10  18  32  54  80 108 138 170 203 244 299
#     4  10  22  38  55  74  97 131 174 217 262 312
#
# _framework density 17.034535000000002
#
# number of rings (size 3 to 8) (size 9 to 14) (size 15 to 20)
#    0.000    2.167    1.667    2.500    1.167    6.000 
#    1.000    0.000    0.000    0.000    0.000    0.000 
#    0.833    0.000    0.500    0.000    0.667    0.000 
#
# Total GULP energy -892906.956337 kJ/mol
# GULP energy per Si atom -12401.485505 kJ/mol
# Density = 1.699576 g / cm^3
# Si number density = 17.034535 Si / 1000 Ang^3
#
#
#
# Elastic Constant Matrix: (Units=GPa)
#
#
# Indices 1 2 3 4 5 6 
#
# 1 81.6844 41.5361 37.7932 0.0000 0.0000 0.0000
# 2 41.5361 81.6844 37.7932 0.0000 0.0000 0.0000
# 3 37.7932 37.7932 73.7268 0.0000 0.0000 0.0000
# 4 0.0000 0.0000 0.0000 28.0759 0.0000 0.0000
# 5 0.0000 0.0000 0.0000 0.0000 28.0759 0.0000
# 6 0.0000 0.0000 0.0000 0.0000 0.0000 20.0741
#
#
#
# Elastic Compliance Matrix: (Units=1/GPa)
#
#
# Indices 1 2 3 4 5 6 
#
# 1 0.018373 -0.006535 -0.006068 0.000000 0.000000 0.000000
# 2 -0.006535 0.018373 -0.006068 0.000000 0.000000 0.000000
# 3 -0.006068 -0.006068 0.019785 0.000000 0.000000 0.000000
# 4 0.000000 0.000000 0.000000 0.035618 0.000000 0.000000
# 5 0.000000 0.000000 0.000000 0.000000 0.035618 0.000000
# 6 0.000000 0.000000 0.000000 0.000000 0.000000 0.049815
#
#
# Mechanical properties :
#
#
# Convention : Reuss Voigt Hill
#
# Bulk Modulus (GPa) = 52.11659 52.37117 52.24388
# Shear Modulus (GPa) = 22.59173 23.24341 22.91757
#
# Velocity S-wave (km/s) = 3.64570 3.69790 3.67189
# Velocity P-wave (km/s) = 6.95576 7.00311 6.97947
#
# Compressibility (1/GPa) = 0.01918775
#
# Stress axis : x y z
#
# Youngs Moduli (GPa) = 54.42829 54.42829 50.54364
#
# Poissons Ratio (x) = 0.35568 0.30671
# Poissons Ratio (y) = 0.35568 0.30671
# Poissons Ratio (z) = 0.33028 0.33028
#
# Static dielectric constant tensor:
#      x y z
#    x 3.155780 0.000000 0.000000 
#    y 0.000000 3.155780 0.000000 
#    z 0.000000 0.000000 3.246140 
# 
# 
# High freq. dielectric constant tensor:
#      x y z
#    x 1.644190 0.000000 0.000000 
#    y 0.000000 1.644190 0.000000 
#    z 0.000000 0.000000 1.666360 
# 
# From -- ./inp_files/1310.got.cif
#   From: 2010.03.12/outbox.cif.g09.slc.cpg/sg189_1_cif.got.tgz:1310.got - 2010.04.01 12:03:36.
