data_PCOD8327844
_publ_section_title
;
Structure prediction by ZEFSAII (Michael W. Deem and Ramdas Pophale) SiO2 
 PCOD8327844
Probable space group: P -6 2 M
;
_chemical_formula_sum "Si O2"
_cell_formula_units_Z 48
_cell_length_a 18.667882
_cell_length_b 18.667882
_cell_length_c 8.527560
_cell_angle_alpha 90.000000
_cell_angle_beta 90.000000
_cell_angle_gamma 120.000000
_cell_volume 2573.626440
_symmetry_space_group_name_H-M "P -6 2 M"
_symmetry_group_IT_number 189
_symmetry_cell_setting 'hexagonal'
loop_
_space_group_symop_operation_xyz
x,y,z
-x+y,-x,-z
-y,x-y,z
x,y,-z
-x+y,-x,z
-y,x-y,-z
x-y,-y,-z
-x,-x+y,-z
y,x,-z
y,x,z
x-y,-y,z
-x,-x+y,z
loop_
_atom_site_type_symbol
_atom_site_label
_atom_site_fract_x
_atom_site_fract_y
_atom_site_fract_z
Si Si1 0.243525 0.905845 0.816942
Si Si2 0.514373 0.330519 0.817035
Si Si3 0.515469 0.177798 0.316873
Si Si4 0.338991 0.244692 0.317419
O O1 0.308964 0.886617 0.733688
O O2 0.151953 0.847737 0.748151
O O3 0.268361 0.000000 0.783091
O O4 0.243683 0.887720 0.000000
O O5 0.577604 0.424841 0.773026
O O6 0.539142 0.270976 0.724936
O O7 0.422548 0.309644 0.770757
O O8 0.518116 0.315612 0.000000
O O9 0.525989 0.170328 0.500000
O O10 0.359902 0.246706 0.500000
O O11 0.269321 0.269321 0.286340
#
# Coordination Sequence:
#
# PCOD8327844 Si02
#       4
#    12  12  12  12
#     4  10  21  37  57  81 107 136 172 213 260 314
#     4  11  21  34  52  75 106 143 183 223 262 305
#     4  11  21  34  52  75 106 143 183 223 262 305
#     4  10  21  37  57  81 107 136 172 213 260 314
#
# _framework density 18.650727
#
# number of rings (size 3 to 8) (size 9 to 14) (size 15 to 20)
#    0.000    1.500    0.000    9.500    0.000    5.000 
#    0.000    0.000    0.000    0.500    0.000    0.000 
#    0.000    0.000    0.000    0.000    0.000    0.000 
#
# Total GULP energy -595430.205004 kJ/mol
# GULP energy per Si atom -12404.795938 kJ/mol
# Density = 1.860828 g / cm^3
# Si number density = 18.650727 Si / 1000 Ang^3
#
#
#
# Elastic Constant Matrix: (Units=GPa)
#
#
# Indices 1 2 3 4 5 6 
#
# 1 98.4129 64.1017 32.8285 0.0000 0.0000 0.0000
# 2 64.1017 98.4129 32.8285 0.0000 0.0000 0.0000
# 3 32.8285 32.8285 94.2485 0.0000 0.0000 0.0000
# 4 0.0000 0.0000 0.0000 29.9977 0.0000 0.0000
# 5 0.0000 0.0000 0.0000 0.0000 29.9977 0.0000
# 6 0.0000 0.0000 0.0000 0.0000 0.0000 17.1556
#
#
#
# Elastic Compliance Matrix: (Units=1/GPa)
#
#
# Indices 1 2 3 4 5 6 
#
# 1 0.018153 -0.010992 -0.002494 0.000000 0.000000 0.000000
# 2 -0.010992 0.018153 -0.002494 0.000000 0.000000 0.000000
# 3 -0.002494 -0.002494 0.012348 0.000000 0.000000 0.000000
# 4 0.000000 0.000000 0.000000 0.033336 0.000000 0.000000
# 5 0.000000 0.000000 0.000000 0.000000 0.033336 0.000000
# 6 0.000000 0.000000 0.000000 0.000000 0.000000 0.058290
#
#
# Mechanical properties :
#
#
# Convention : Reuss Voigt Hill
#
# Bulk Modulus (GPa) = 59.90662 61.17687 60.54174
# Shear Modulus (GPa) = 23.68082 26.18456 24.93269
#
# Velocity S-wave (km/s) = 3.56715 3.75099 3.66022
# Velocity P-wave (km/s) = 7.01114 7.18557 7.09889
#
# Compressibility (1/GPa) = 0.01669265
#
# Stress axis : x y z
#
# Youngs Moduli (GPa) = 55.08725 55.08725 80.98561
#
# Poissons Ratio (x) = 0.60552 0.20200
# Poissons Ratio (y) = 0.60552 0.20200
# Poissons Ratio (z) = 0.13740 0.13740
#
# Static dielectric constant tensor:
#      x y z
#    x 3.328910 0.000000 0.000000 
#    y 0.000000 3.328910 0.000000 
#    z 0.000000 0.000000 3.597500 
# 
# 
# High freq. dielectric constant tensor:
#      x y z
#    x 1.710630 0.000000 0.000000 
#    y 0.000000 1.710630 0.000000 
#    z 0.000000 0.000000 1.747280 
# 
# From -- ./inp_files/548.got.cif
#   From: 2010.03.12/outbox.cif.g09.slc.cpg/sg189_1_cif.got.tgz:548.got - 2010.04.01 12:03:36.
