data_PCOD8327472
_publ_section_title
;
Structure prediction by ZEFSAII (Michael W. Deem and Ramdas Pophale) SiO2 
 PCOD8327472
Probable space group: P -6 C 2
;
_chemical_formula_sum "Si O2"
_cell_formula_units_Z 54
_cell_length_a 15.414882
_cell_length_b 15.414882
_cell_length_c 13.637562
_cell_angle_alpha 90.000000
_cell_angle_beta 90.000000
_cell_angle_gamma 120.000000
_cell_volume 2806.388415
_symmetry_space_group_name_H-M "P -6 C 2"
_symmetry_group_IT_number 188
_symmetry_cell_setting 'hexagonal'
loop_
_space_group_symop_operation_xyz
x,y,z
-x+y,-x,1/2-z
-y,x-y,z
x,y,1/2-z
-x+y,-x,z
-y,x-y,1/2-z
-y,-x,-z
-x+y,y,-z
x,x-y,-z
-x+y,y,1/2+z
x,x-y,1/2+z
-y,-x,1/2+z
loop_
_atom_site_type_symbol
_atom_site_label
_atom_site_fract_x
_atom_site_fract_y
_atom_site_fract_z
Si Si1 0.703800 0.165243 0.633998
Si Si2 0.322899 0.378017 0.638995
Si Si3 0.217463 0.782538 0.000000
Si Si4 0.397160 0.899470 0.637335
Si Si5 0.629445 0.121357 0.366801
O O1 0.706461 0.179145 0.750000
O O2 0.804753 0.259463 0.589967
O O3 0.603731 0.160319 0.591289
O O4 0.695394 0.059719 0.606806
O O5 0.284810 0.354292 0.750000
O O6 0.231372 0.358441 0.569739
O O7 0.403394 0.495656 0.626654
O O8 0.187318 0.684062 0.066872
O O9 0.359569 0.875252 0.750000
O O10 0.412972 0.007354 0.601650
O O11 0.624149 0.122874 0.250000
#
# Coordination Sequence:
#
# PCOD8327472 Si02
#       5
#    12  12   6  12  12
#     4   8  13  24  46  75 106 135 159 186 227 285
#     4   9  19  34  49  70  99 126 161 209 246 284
#     4  12  20  32  50  62  86 132 170 200 250 292
#     4   9  19  34  49  70  99 126 161 209 246 284
#     4   8  13  24  46  75 106 135 159 186 227 285
#
# _framework density 19.241814000000002
#
# number of rings (size 3 to 8) (size 9 to 14) (size 15 to 20)
#    0.000    3.111    0.000    4.444    0.000    1.778 
#    5.333    1.111    0.000    0.000    0.000    3.111 
#    8.889    0.000    8.000    0.000    0.000    0.889 
#
# Total GULP energy -669154.800703 kJ/mol
# GULP energy per Si atom -12391.755569 kJ/mol
# Density = 1.919802 g / cm^3
# Si number density = 19.241814 Si / 1000 Ang^3
#
#
#
# Elastic Constant Matrix: (Units=GPa)
#
#
# Indices 1 2 3 4 5 6 
#
# 1 99.9063 39.8634 35.1025 0.0000 0.0000 0.0000
# 2 39.8634 99.9063 35.1025 0.0000 0.0000 0.0000
# 3 35.1025 35.1025 57.2817 0.0000 0.0000 0.0000
# 4 0.0000 0.0000 0.0000 -4.9341 0.0000 0.0000
# 5 0.0000 0.0000 0.0000 0.0000 -4.9341 0.0000
# 6 0.0000 0.0000 0.0000 0.0000 0.0000 30.0215
#
#
#
# Elastic Compliance Matrix: (Units=1/GPa)
#
#
# Indices 1 2 3 4 5 6 
#
# 1 0.013495 -0.003159 -0.006334 0.000000 0.000000 0.000000
# 2 -0.003159 0.013495 -0.006334 0.000000 0.000000 0.000000
# 3 -0.006334 -0.006334 0.025221 0.000000 0.000000 0.000000
# 4 0.000000 0.000000 0.000000 -0.202670 0.000000 0.000000
# 5 0.000000 0.000000 0.000000 0.000000 -0.202670 0.000000
# 6 0.000000 0.000000 0.000000 0.000000 0.000000 0.033309
#
#
# Mechanical properties :
#
#
# Convention : Reuss Voigt Hill
#
# Bulk Modulus (GPa) = 48.64574 53.02567 50.83571
# Shear Modulus (GPa) = -17.77388 13.83238 -1.97075
#
# Velocity S-wave (km/s) = -3.04256 2.68409 -1.01313
# Velocity P-wave (km/s) = 3.60462 6.10107 5.01081
#
# Compressibility (1/GPa) = 0.02055678
#
# Stress axis : x y z
#
# Youngs Moduli (GPa) = 74.09906 74.09906 39.65008
#
# Poissons Ratio (x) = 0.23410 0.25115
# Poissons Ratio (y) = 0.23410 0.25115
# Poissons Ratio (z) = 0.46935 0.46935
#
# Static dielectric constant tensor:
#      x y z
#    x 3.530930 0.000000 0.000000 
#    y 0.000000 3.530930 0.000000 
#    z 0.000000 0.000000 3.739750 
# 
# 
# High freq. dielectric constant tensor:
#      x y z
#    x 1.713460 0.000000 0.000000 
#    y 0.000000 1.713460 0.000000 
#    z 0.000000 0.000000 1.777850 
# 
# From -- ./inp_files/2196.got.cif
#   From: 2010.03.12/outbox.cif.g09.slc.cpg/sg188_2_cif.got.tgz:2196.got - 2010.04.01 12:01:06.
