data_PCOD8327303
_publ_section_title
;
Structure prediction by ZEFSAII (Michael W. Deem and Ramdas Pophale) SiO2 
 PCOD8327303
Probable space group: P -6 C 2
;
_chemical_formula_sum "Si O2"
_cell_formula_units_Z 96
_cell_length_a 18.097184
_cell_length_b 18.097184
_cell_length_c 24.605617
_cell_angle_alpha 90.000000
_cell_angle_beta 90.000000
_cell_angle_gamma 120.000000
_cell_volume 6978.898715
_symmetry_space_group_name_H-M "P -6 C 2"
_symmetry_group_IT_number 188
_symmetry_cell_setting 'hexagonal'
loop_
_space_group_symop_operation_xyz
x,y,z
-x+y,-x,1/2-z
-y,x-y,z
x,y,1/2-z
-x+y,-x,z
-y,x-y,1/2-z
-y,-x,-z
-x+y,y,-z
x,x-y,-z
-x+y,y,1/2+z
x,x-y,1/2+z
-y,-x,1/2+z
loop_
_atom_site_type_symbol
_atom_site_label
_atom_site_fract_x
_atom_site_fract_y
_atom_site_fract_z
Si Si1 0.170835 0.001105 0.186418
Si Si2 0.838443 0.507374 0.811394
Si Si3 0.332054 0.251663 0.882329
Si Si4 0.805587 0.335721 0.971256
Si Si5 0.513509 0.336624 0.150639
Si Si6 0.327483 0.254602 0.118569
Si Si7 0.913578 0.247706 0.997183
Si Si8 0.167564 0.170122 0.186849
O O1 0.189966 0.999974 0.250000
O O2 0.089541 0.913692 0.166910
O O3 0.251935 0.012521 0.152812
O O4 0.151049 0.076387 0.173005
O O5 0.866485 0.541269 0.750000
O O6 0.902214 0.580557 0.853455
O O7 0.741651 0.487410 0.818153
O O8 0.847917 0.423984 0.818332
O O9 0.334309 0.164694 0.886140
O O10 0.323672 0.281894 0.943831
O O11 0.790206 0.343437 0.908299
O O12 0.854683 0.286260 0.982419
O O13 0.713954 0.286047 0.000000
O O14 0.856692 0.428346 0.000000
O O15 0.418504 0.325909 0.143912
O O16 0.302287 0.274090 0.057851
O O17 0.252025 0.243018 0.157761
O O18 0.855408 0.144593 0.000000
O O19 0.183205 0.189455 0.250000
#
# Coordination Sequence:
#
# PCOD8327303 Si02
#       8
#    12  12  12  12  12  12  12  12
#     4   9  16  26  40  58  75  94 120 152 186 221
#     4  11  20  28  36  49  72 101 131 160 188 220
#     4   9  16  27  40  53  70  95 122 151 186 224
#     4  10  16  23  35  49  64  86 122 164 195 220
#     4  10  19  28  36  50  72  99 128 159 191 218
#     4   8  16  27  40  54  71  95 122 150 186 224
#     4   8  14  25  37  49  66  89 118 150 183 220
#     4   9  16  26  41  58  76  95 120 152 185 221
#
# _framework density 13.755751999999999
#
# number of rings (size 3 to 8) (size 9 to 14) (size 15 to 20)
#    0.000    2.750    0.000    5.125    0.000    4.500 
#    0.000    0.625    0.000    0.000    0.000    1.750 
#    0.000    0.000    0.000    0.750    0.000    6.000 
#
# Total GULP energy -1189317.927444 kJ/mol
# GULP energy per Si atom -12388.728411 kJ/mol
# Density = 1.372444 g / cm^3
# Si number density = 13.755752 Si / 1000 Ang^3
#
#
#
# Elastic Constant Matrix: (Units=GPa)
#
#
# Indices 1 2 3 4 5 6 
#
# 1 57.0652 12.5876 29.0214 -0.0006 0.0000 0.0000
# 2 12.5876 57.0652 29.0214 0.0006 0.0000 0.0000
# 3 29.0214 29.0214 88.3347 0.0000 0.0000 0.0000
# 4 -0.0006 0.0006 0.0000 22.6610 0.0000 0.0000
# 5 0.0000 0.0000 0.0000 0.0000 22.6610 -0.0006
# 6 0.0000 0.0000 0.0000 0.0000 -0.0006 22.2388
#
#
#
# Elastic Compliance Matrix: (Units=1/GPa)
#
#
# Indices 1 2 3 4 5 6 
#
# 1 0.021126 -0.001357 -0.006495 0.000001 0.000000 0.000000
# 2 -0.001357 0.021126 -0.006495 -0.000001 0.000000 0.000000
# 3 -0.006495 -0.006495 0.015588 0.000000 0.000000 0.000000
# 4 0.000001 -0.000001 0.000000 0.044129 0.000000 0.000000
# 5 0.000000 0.000000 0.000000 0.000000 0.044129 0.000001
# 6 0.000000 0.000000 0.000000 0.000000 0.000001 0.044966
#
#
# Mechanical properties :
#
#
# Convention : Reuss Voigt Hill
#
# Bulk Modulus (GPa) = 34.30894 38.19177 36.25035
# Shear Modulus (GPa) = 21.78896 22.30115 22.04505
#
# Velocity S-wave (km/s) = 3.98425 4.03081 4.00760
# Velocity P-wave (km/s) = 6.79422 7.03475 6.91553
#
# Compressibility (1/GPa) = 0.02914693
#
# Stress axis : x y z
#
# Youngs Moduli (GPa) = 47.33449 47.33449 64.15079
#
# Poissons Ratio (x) = 0.06423 0.41666
# Poissons Ratio (y) = 0.06423 0.41666
# Poissons Ratio (z) = 0.30744 0.30744
#
# Static dielectric constant tensor:
#      x y z
#    x 1.949980 0.000000 0.000000 
#    y 0.000000 1.949980 0.000000 
#    z 0.000000 0.000000 3.232890 
# 
# 
# High freq. dielectric constant tensor:
#      x y z
#    x 1.485120 0.000000 0.000000 
#    y 0.000000 1.485120 0.000000 
#    z 0.000000 0.000000 1.545910 
# 
# From -- ./inp_files/4131.got.cif
#   From: 2010.03.12/outbox.cif.g09.slc.cpg/sg188_3_cif.got.tgz:4131.got - 2010.04.01 12:01:06.
