data_PCOD8327002
_publ_section_title
;
Structure prediction by ZEFSAII (Michael W. Deem and Ramdas Pophale) SiO2 
 PCOD8327002
Probable space group: P -6 M 2
;
_chemical_formula_sum "Si O2"
_cell_formula_units_Z 42
_cell_length_a 15.837308
_cell_length_b 15.837308
_cell_length_c 11.522458
_cell_angle_alpha 90.000000
_cell_angle_beta 90.000000
_cell_angle_gamma 120.000000
_cell_volume 2502.871143
_symmetry_space_group_name_H-M "P -6 M 2"
_symmetry_group_IT_number 187
_symmetry_cell_setting 'hexagonal'
loop_
_space_group_symop_operation_xyz
x,y,z
-x+y,-x,-z
-y,x-y,z
x,y,-z
-x+y,-x,z
-y,x-y,-z
-y,-x,-z
-x+y,y,-z
x,x-y,-z
-x+y,y,z
x,x-y,z
-y,-x,z
loop_
_atom_site_type_symbol
_atom_site_label
_atom_site_fract_x
_atom_site_fract_y
_atom_site_fract_z
Si Si1 0.503970 0.007940 0.862959
Si Si2 0.211180 0.605590 0.136575
Si Si3 0.469829 0.138668 0.500000
Si Si4 0.807796 0.999977 0.868154
Si Si5 0.708520 0.097778 0.747622
O O1 0.614617 0.070357 0.823262
O O2 0.448684 0.897367 0.807155
O O3 0.500422 0.000843 0.000000
O O4 0.278023 0.556046 0.170694
O O5 0.195391 0.597696 0.000000
O O6 0.561883 0.123765 0.500000
O O7 0.507654 0.253827 0.500000
O O8 0.403448 0.086782 0.388388
O O9 0.921636 0.078365 0.857180
O O10 0.744755 0.022620 0.778621
O O11 0.792036 0.896018 0.832201
O O12 0.771834 0.999030 0.000000
O O13 0.791836 0.208165 0.779283
#
# Coordination Sequence:
#
# PCOD8327002 Si02
#       5
#     6   6   6  12  12
#     4  11  20  31  51  75 107 144 167 209 280 329
#     4   7  14  30  49  73 101 129 172 219 246 295
#     4  10  19  36  57  72  92 132 184 232 261 301
#     4   9  17  31  52  78 109 142 174 208 252 313
#     4  10  21  35  51  75 104 133 176 224 263 312
#
# _framework density 16.780728
#
# number of rings (size 3 to 8) (size 9 to 14) (size 15 to 20)
#    0.286    2.286    1.429    1.286    0.000    4.000 
#    0.857    3.571    0.000    0.000    0.000    3.000 
#    0.000    0.000    0.000    0.000    0.000    0.000 
#
# Total GULP energy -520522.383863 kJ/mol
# GULP energy per Si atom -12393.390092 kJ/mol
# Density = 1.674253 g / cm^3
# Si number density = 16.780728 Si / 1000 Ang^3
#
#
#
# Elastic Constant Matrix: (Units=GPa)
#
#
# Indices 1 2 3 4 5 6 
#
# 1 119.1875 72.8154 59.3294 0.0000 -0.0002 0.0000
# 2 72.8154 119.1875 59.3294 0.0000 0.0002 0.0000
# 3 59.3294 59.3294 92.9391 0.0000 0.0000 0.0000
# 4 0.0000 0.0000 0.0000 5.3174 0.0000 0.0002
# 5 -0.0002 0.0002 0.0000 0.0000 5.3174 0.0000
# 6 0.0000 0.0000 0.0000 0.0002 0.0000 23.1860
#
#
#
# Elastic Compliance Matrix: (Units=1/GPa)
#
#
# Indices 1 2 3 4 5 6 
#
# 1 0.015083 -0.006481 -0.005491 0.000000 0.000001 0.000000
# 2 -0.006481 0.015083 -0.005491 0.000000 -0.000001 0.000000
# 3 -0.005491 -0.005491 0.017770 0.000000 0.000000 0.000000
# 4 0.000000 0.000000 0.000000 0.188060 0.000000 -0.000002
# 5 0.000001 -0.000001 0.000000 0.000000 0.188060 0.000000
# 6 0.000000 0.000000 0.000000 -0.000002 0.000000 0.043129
#
#
# Mechanical properties :
#
#
# Convention : Reuss Voigt Hill
#
# Bulk Modulus (GPa) = 76.86650 79.36252 78.11451
# Shear Modulus (GPa) = 9.87262 16.08684 12.97973
#
# Velocity S-wave (km/s) = 2.42819 3.09957 2.78419
# Velocity P-wave (km/s) = 7.33262 7.75927 7.54896
#
# Compressibility (1/GPa) = 0.01300957
#
# Stress axis : x y z
#
# Youngs Moduli (GPa) = 66.29873 66.29873 56.27324
#
# Poissons Ratio (x) = 0.42971 0.30900
# Poissons Ratio (y) = 0.42971 0.30900
# Poissons Ratio (z) = 0.36405 0.36405
#
# Static dielectric constant tensor:
#      x y z
#    x 3.315290 0.000000 0.000000 
#    y 0.000000 3.315290 0.000000 
#    z 0.000000 0.000000 3.036840 
# 
# 
# High freq. dielectric constant tensor:
#      x y z
#    x 1.648260 0.000000 0.000000 
#    y 0.000000 1.648260 0.000000 
#    z 0.000000 0.000000 1.623370 
# 
# From -- ./inp_files/1408.got.cif
#   From: 2010.03.12/outbox.cif.g09.slc.cpg/sg187_1_cif.got.tgz:1408.got - 2010.04.01 11:58:23.
