data_PCOD8327278
_publ_section_title
;
Structure prediction by ZEFSAII (Michael W. Deem and Ramdas Pophale) SiO2 
 PCOD8327278
Probable space group: P -6 M 2
;
_chemical_formula_sum "Si O2"
_cell_formula_units_Z 48
_cell_length_a 22.832384
_cell_length_b 22.832384
_cell_length_c 9.425069
_cell_angle_alpha 90.000000
_cell_angle_beta 90.000000
_cell_angle_gamma 120.000000
_cell_volume 4255.177587
_symmetry_space_group_name_H-M "P -6 M 2"
_symmetry_group_IT_number 187
_symmetry_cell_setting 'hexagonal'
loop_
_space_group_symop_operation_xyz
x,y,z
-x+y,-x,-z
-y,x-y,z
x,y,-z
-x+y,-x,z
-y,x-y,-z
-y,-x,-z
-x+y,y,-z
x,x-y,-z
-x+y,y,z
x,x-y,z
-y,-x,z
loop_
_atom_site_type_symbol
_atom_site_label
_atom_site_fract_x
_atom_site_fract_y
_atom_site_fract_z
Si Si1 0.124048 0.736357 0.658542
Si Si2 0.333601 0.797358 0.330957
Si Si3 0.999854 0.135097 0.664396
Si Si4 0.062010 0.798459 0.840099
O O1 0.092778 0.718193 0.500000
O O2 0.192515 0.807486 0.653184
O O3 0.142155 0.680127 0.715713
O O4 0.070091 0.739671 0.763171
O O5 0.332485 0.793944 0.500000
O O6 0.405810 0.811620 0.270473
O O7 0.274641 0.725360 0.271223
O O8 0.000693 0.153739 0.500000
O O9 0.930459 0.069542 0.708419
O O10 0.059868 0.119736 0.697734
O O11 0.006955 0.197406 0.756704
O O12 0.132888 0.867113 0.838639
O O13 0.036465 0.775094 0.000000
#
# Coordination Sequence:
#
# PCOD8327278 Si02
#       4
#    12  12  12  12
#     4   8  13  21  32  44  57  74  96 120 145 174
#     4   8  12  17  27  44  63  79  95 119 152 186
#     4   9  16  25  36  48  61  76  93 114 143 180
#     4   9  16  24  33  44  57  74  96 120 144 170
#
# _framework density 11.280374999999999
#
# number of rings (size 3 to 8) (size 9 to 14) (size 15 to 20)
#    0.000    3.500    0.000    2.750    0.000    5.500 
#    0.000    0.000    0.000    2.250    0.000    0.000 
#    0.000    2.000    0.000    0.000    0.000    0.000 
#
# Total GULP energy -594855.041451 kJ/mol
# GULP energy per Si atom -12392.813364 kJ/mol
# Density = 1.125470 g / cm^3
# Si number density = 11.280375 Si / 1000 Ang^3
#
#
#
# Elastic Constant Matrix: (Units=GPa)
#
#
# Indices 1 2 3 4 5 6 
#
# 1 63.6472 40.7783 34.4767 0.0000 0.0001 0.0000
# 2 40.7783 63.6472 34.4767 0.0000 -0.0001 0.0000
# 3 34.4767 34.4767 55.9876 0.0000 0.0000 0.0000
# 4 0.0000 0.0000 0.0000 6.7103 0.0000 -0.0001
# 5 0.0001 -0.0001 0.0000 0.0000 6.7103 0.0000
# 6 0.0000 0.0000 0.0000 -0.0001 0.0000 11.4345
#
#
#
# Elastic Compliance Matrix: (Units=1/GPa)
#
#
# Indices 1 2 3 4 5 6 
#
# 1 0.029933 -0.013795 -0.009938 0.000000 0.000000 0.000000
# 2 -0.013795 0.029933 -0.009938 0.000000 0.000000 0.000000
# 3 -0.009938 -0.009938 0.030100 0.000000 0.000000 0.000000
# 4 0.000000 0.000000 0.000000 0.149024 0.000000 0.000001
# 5 0.000000 0.000000 0.000000 0.000000 0.149024 0.000000
# 6 0.000000 0.000000 0.000000 0.000001 0.000000 0.087455
#
#
# Mechanical properties :
#
#
# Convention : Reuss Voigt Hill
#
# Bulk Modulus (GPa) = 44.19767 44.74949 44.47358
# Shear Modulus (GPa) = 9.08512 9.87438 9.47975
#
# Velocity S-wave (km/s) = 2.84102 2.96186 2.90207
# Velocity P-wave (km/s) = 7.07304 7.17308 7.12324
#
# Compressibility (1/GPa) = 0.02262563
#
# Stress axis : x y z
#
# Youngs Moduli (GPa) = 33.40807 33.40807 33.22218
#
# Poissons Ratio (x) = 0.46085 0.33016
# Poissons Ratio (y) = 0.46085 0.33016
# Poissons Ratio (z) = 0.33200 0.33200
#
# Static dielectric constant tensor:
#      x y z
#    x 2.339790 0.000000 0.000000 
#    y 0.000000 2.339790 0.000000 
#    z 0.000000 0.000000 2.370920 
# 
# 
# High freq. dielectric constant tensor:
#      x y z
#    x 1.395810 0.000000 0.000000 
#    y 0.000000 1.395810 0.000000 
#    z 0.000000 0.000000 1.416650 
# 
# From -- ./inp_files/508.got.cif
#   From: 2010.03.12/outbox.cif.g09.slc.cpg/sg187_1_cif.got.tgz:508.got - 2010.04.01 11:58:23.
