data_PCOD8327903
_publ_section_title
;
Structure prediction by ZEFSAII (Michael W. Deem and Ramdas Pophale) SiO2 
 PCOD8327903
Probable space group: P -6 2 M
;
_chemical_formula_sum "Si O2"
_cell_formula_units_Z 40
_cell_length_a 12.715710
_cell_length_b 12.715710
_cell_length_c 14.741948
_cell_angle_alpha 90.000000
_cell_angle_beta 90.000000
_cell_angle_gamma 120.000000
_cell_volume 2064.271117
_symmetry_space_group_name_H-M "P -6 2 M"
_symmetry_group_IT_number 189
_symmetry_cell_setting 'hexagonal'
loop_
_space_group_symop_operation_xyz
x,y,z
-x+y,-x,-z
-y,x-y,z
x,y,-z
-x+y,-x,z
-y,x-y,-z
x-y,-y,-z
-x,-x+y,-z
y,x,-z
y,x,z
x-y,-y,z
-x,-x+y,z
loop_
_atom_site_type_symbol
_atom_site_label
_atom_site_fract_x
_atom_site_fract_y
_atom_site_fract_z
Si Si1 0.860075 0.138905 0.274304
Si Si2 0.264825 0.512036 0.602469
Si Si3 0.666668 0.333334 0.893096
Si Si4 0.595783 0.862535 0.896885
O O1 0.781304 0.183012 0.329208
O O2 0.842213 0.151765 0.166959
O O3 0.000000 0.219461 0.300502
O O4 0.815294 0.000000 0.299412
O O5 0.409761 0.605892 0.617392
O O6 0.241674 0.460496 0.500000
O O7 0.776010 0.460799 0.857853
O O8 0.666667 0.333334 0.000000
O O9 0.620870 0.000000 0.892552
O O10 0.610991 0.827876 0.000000
#
# Coordination Sequence:
#
# PCOD8327903 Si02
#       4
#    12  12   4  12
#     4  11  24  39  59  86 120 160 201 242 288 346
#     4   8  19  41  64  90 117 145 189 243 298 354
#     4   9  18  33  54  81 112 143 187 249 303 345
#     4   9  20  37  55  81 117 156 198 242 291 348
#
# _framework density 19.377300999999999
#
# number of rings (size 3 to 8) (size 9 to 14) (size 15 to 20)
#    0.600    2.100    0.000    0.300    4.200    4.200 
#    0.000    6.000    0.000    3.600    0.000    0.000 
#    0.000    0.000    0.000    0.000    0.000    0.000 
#
# Total GULP energy -495755.362500 kJ/mol
# GULP energy per Si atom -12393.884062 kJ/mol
# Density = 1.933320 g / cm^3
# Si number density = 19.377301 Si / 1000 Ang^3
#
#
#
# Elastic Constant Matrix: (Units=GPa)
#
#
# Indices 1 2 3 4 5 6 
#
# 1 73.5017 24.6246 23.2785 0.0000 0.0000 -0.0001
# 2 24.6246 73.5024 23.2785 -0.0001 0.0000 0.0001
# 3 23.2785 23.2785 75.8756 0.0000 0.0000 0.0000
# 4 0.0000 -0.0001 0.0000 20.7062 0.0000 0.0000
# 5 0.0000 0.0000 0.0000 0.0000 20.7061 0.0000
# 6 -0.0001 0.0001 0.0000 0.0000 0.0000 24.4389
#
#
#
# Elastic Compliance Matrix: (Units=1/GPa)
#
#
# Indices 1 2 3 4 5 6 
#
# 1 0.016193 -0.004266 -0.003659 0.000000 0.000000 0.000000
# 2 -0.004266 0.016193 -0.003659 0.000000 0.000000 0.000000
# 3 -0.003659 -0.003659 0.015425 0.000000 0.000000 0.000000
# 4 0.000000 0.000000 0.000000 0.048295 0.000000 0.000000
# 5 0.000000 0.000000 0.000000 0.000000 0.048295 0.000000
# 6 0.000000 0.000000 0.000000 0.000000 0.000000 0.040918
#
#
# Mechanical properties :
#
#
# Convention : Reuss Voigt Hill
#
# Bulk Modulus (GPa) = 40.58104 40.58253 40.58179
# Shear Modulus (GPa) = 23.07313 23.28344 23.17829
#
# Velocity S-wave (km/s) = 3.45444 3.47015 3.46230
# Velocity P-wave (km/s) = 6.07445 6.08644 6.08044
#
# Compressibility (1/GPa) = 0.02464205
#
# Stress axis : x y z
#
# Youngs Moduli (GPa) = 61.75404 61.75469 64.83089
#
# Poissons Ratio (x) = 0.26345 0.23723
# Poissons Ratio (y) = 0.26345 0.23723
# Poissons Ratio (z) = 0.22597 0.22597
#
# Static dielectric constant tensor:
#      x y z
#    x 3.391490 0.000000 0.000000 
#    y 0.000000 3.391480 0.000000 
#    z 0.000000 0.000000 3.532080 
# 
# 
# High freq. dielectric constant tensor:
#      x y z
#    x 1.739360 0.000000 0.000000 
#    y 0.000000 1.739360 0.000000 
#    z 0.000000 0.000000 1.760280 
# 
# From -- ./inp_files/2938.got.cif
#   From: 2010.03.12/outbox.cif.g09.slc.cpg/sg189_2_cif.got.tgz:2938.got - 2010.04.01 12:03:36.
