data_PCOD8327724
_publ_section_title
;
Structure prediction by ZEFSAII (Michael W. Deem and Ramdas Pophale) SiO2 
 PCOD8327724
Probable space group: P -6 2 M
;
_chemical_formula_sum "Si O2"
_cell_formula_units_Z 60
_cell_length_a 20.573708
_cell_length_b 20.573708
_cell_length_c 9.871071
_cell_angle_alpha 90.000000
_cell_angle_beta 90.000000
_cell_angle_gamma 120.000000
_cell_volume 3618.428961
_symmetry_space_group_name_H-M "P -6 2 M"
_symmetry_group_IT_number 189
_symmetry_cell_setting 'hexagonal'
loop_
_space_group_symop_operation_xyz
x,y,z
-x+y,-x,-z
-y,x-y,z
x,y,-z
-x+y,-x,z
-y,x-y,-z
x-y,-y,-z
-x,-x+y,-z
y,x,-z
y,x,z
x-y,-y,z
-x,-x+y,z
loop_
_atom_site_type_symbol
_atom_site_label
_atom_site_fract_x
_atom_site_fract_y
_atom_site_fract_z
Si Si1 0.000000 0.200755 0.843477
Si Si2 0.150285 0.350144 0.157152
Si Si3 0.000000 0.082835 0.648310
Si Si4 0.630539 0.543671 0.844235
Si Si5 0.714897 0.087269 0.341835
Si Si6 0.480610 0.911002 0.350509
O O1 0.927376 0.205094 0.803205
O O2 0.000000 0.133650 0.766432
O O3 0.000000 0.182973 0.000000
O O4 0.139279 0.420911 0.187289
O O5 0.213382 0.350337 0.250432
O O6 0.170968 0.348907 0.000000
O O7 0.000000 0.116915 0.500000
O O8 0.073892 0.073892 0.661213
O O9 0.603274 0.603274 0.809099
O O10 0.587311 0.467831 0.755985
O O11 0.613034 0.519514 0.000000
O O12 0.736957 0.100716 0.500000
O O13 0.654359 0.113309 0.308040
O O14 0.681945 0.000000 0.304812
O O15 0.447826 0.879204 0.500000
O O16 0.523189 0.000000 0.354672
#
# Coordination Sequence:
#
# PCOD8327724 Si02
#       6
#     6  12   6  12  12  12
#     4  10  20  34  50  70 100 133 166 211 262 307
#     4  10  20  33  49  72 104 135 166 208 255 303
#     4   8  18  36  52  66  88 121 168 221 266 309
#     4   9  16  29  49  72  98 126 154 191 242 291
#     4   9  19  35  51  71 101 135 168 208 256 300
#     4   8  15  29  49  71  95 120 151 192 236 287
#
# _framework density 16.581782
#
# number of rings (size 3 to 8) (size 9 to 14) (size 15 to 20)
#    0.200    2.800    1.000    1.200    0.000    4.000 
#    0.000    6.000    0.000    0.800    0.000    0.000 
#    0.000    0.000    0.000    0.000    0.000    0.000 
#
# Total GULP energy -743694.653413 kJ/mol
# GULP energy per Si atom -12394.910890 kJ/mol
# Density = 1.654404 g / cm^3
# Si number density = 16.581782 Si / 1000 Ang^3
#
#
#
# Elastic Constant Matrix: (Units=GPa)
#
#
# Indices 1 2 3 4 5 6 
#
# 1 93.8842 54.8193 68.1479 0.0000 0.0000 0.0000
# 2 54.8193 93.8842 68.1479 0.0000 0.0000 0.0000
# 3 68.1479 68.1479 91.3685 0.0000 0.0000 0.0000
# 4 0.0000 0.0000 0.0000 21.2176 0.0000 0.0000
# 5 0.0000 0.0000 0.0000 0.0000 21.2176 0.0000
# 6 0.0000 0.0000 0.0000 0.0000 0.0000 19.5324
#
#
#
# Elastic Compliance Matrix: (Units=1/GPa)
#
#
# Indices 1 2 3 4 5 6 
#
# 1 0.023427 -0.002171 -0.015854 0.000000 0.000000 0.000000
# 2 -0.002171 0.023427 -0.015854 0.000000 0.000000 0.000000
# 3 -0.015854 -0.015854 0.034594 0.000000 0.000000 0.000000
# 4 0.000000 0.000000 0.000000 0.047131 0.000000 0.000000
# 5 0.000000 0.000000 0.000000 0.000000 0.047131 0.000000
# 6 0.000000 0.000000 0.000000 0.000000 0.000000 0.051197
#
#
# Mechanical properties :
#
#
# Convention : Reuss Voigt Hill
#
# Bulk Modulus (GPa) = 73.04372 73.48523 73.26448
# Shear Modulus (GPa) = 16.70969 18.26166 17.48567
#
# Velocity S-wave (km/s) = 3.17789 3.32220 3.25085
# Velocity P-wave (km/s) = 7.59023 7.68954 7.64005
#
# Compressibility (1/GPa) = 0.01369043
#
# Stress axis : x y z
#
# Youngs Moduli (GPa) = 42.68561 42.68561 28.90673
#
# Poissons Ratio (x) = 0.09269 0.45828
# Poissons Ratio (y) = 0.09269 0.45828
# Poissons Ratio (z) = 0.67673 0.67673
#
# Static dielectric constant tensor:
#      x y z
#    x 3.012130 0.000000 0.000000 
#    y 0.000000 3.012130 0.000000 
#    z 0.000000 0.000000 3.188950 
# 
# 
# High freq. dielectric constant tensor:
#      x y z
#    x 1.622810 0.000000 0.000000 
#    y 0.000000 1.622810 0.000000 
#    z 0.000000 0.000000 1.642310 
# 
# From -- ./inp_files/907.got.cif
#   From: 2010.03.12/outbox.cif.g09.slc.cpg/sg189_1_cif.got.tgz:907.got - 2010.04.01 12:03:36.
