data_PCOD8327847
_publ_section_title
;
Structure prediction by ZEFSAII (Michael W. Deem and Ramdas Pophale) SiO2 
 PCOD8327847
Probable space group: P -6 2 M
;
_chemical_formula_sum "Si O2"
_cell_formula_units_Z 84
_cell_length_a 14.631906
_cell_length_b 14.631906
_cell_length_c 21.940259
_cell_angle_alpha 90.000000
_cell_angle_beta 90.000000
_cell_angle_gamma 120.000000
_cell_volume 4067.936702
_symmetry_space_group_name_H-M "P -6 2 M"
_symmetry_group_IT_number 189
_symmetry_cell_setting 'hexagonal'
loop_
_space_group_symop_operation_xyz
x,y,z
-x+y,-x,-z
-y,x-y,z
x,y,-z
-x+y,-x,z
-y,x-y,-z
x-y,-y,-z
-x,-x+y,-z
y,x,-z
y,x,z
x-y,-y,z
-x,-x+y,z
loop_
_atom_site_type_symbol
_atom_site_label
_atom_site_fract_x
_atom_site_fract_y
_atom_site_fract_z
Si Si1 0.768850 0.558256 0.769204
Si Si2 0.119034 0.880093 0.430255
Si Si3 0.879275 0.449926 0.429900
Si Si4 0.582916 0.875454 0.067363
Si Si5 0.786948 0.237597 0.370334
Si Si6 0.876892 0.453331 0.173357
Si Si7 0.124055 0.249754 0.151112
O O1 0.730444 0.543858 0.699970
O O2 0.852021 0.516918 0.775278
O O3 0.670691 0.486526 0.813617
O O4 0.825318 0.681984 0.787283
O O5 0.137156 0.858999 0.500000
O O6 0.142406 0.806830 0.386764
O O7 0.000000 0.852923 0.419723
O O8 0.194193 0.000000 0.411288
O O9 0.846295 0.448028 0.500000
O O10 0.865124 0.337524 0.411248
O O11 0.801533 0.467294 0.386047
O O12 0.000000 0.539844 0.420062
O O13 0.478655 0.839918 0.108591
O O14 0.664137 0.843505 0.097212
O O15 0.642644 0.000000 0.062267
O O16 0.549736 0.823885 0.000000
O O17 0.000000 0.492416 0.174602
O O18 0.174628 0.174628 0.158081
O O19 0.000000 0.177654 0.137211
#
# Coordination Sequence:
#
# PCOD8327847 Si02
#       7
#    12  12  12  12  12  12  12
#     4  11  23  38  58  85 113 153 203 242 289 352
#     4  10  21  38  59  82 109 144 188 240 297 353
#     4  11  24  41  61  86 115 147 184 233 301 370
#     4   8  16  34  60  87 114 149 193 238 285 334
#     4  12  24  38  59  85 115 149 191 241 289 352
#     4  10  21  39  60  82 116 153 189 243 297 342
#     4  10  21  37  58  87 126 167 204 244 291 346
#
# _framework density 20.649287999999999
#
# number of rings (size 3 to 8) (size 9 to 14) (size 15 to 20)
#    0.000    1.714    0.000    5.571    0.000    8.857 
#    0.000    2.857    0.000    6.000    0.000    0.000 
#    0.000    0.000    0.000    0.000    0.000    0.000 
#
# Total GULP energy -1041673.653855 kJ/mol
# GULP energy per Si atom -12400.876832 kJ/mol
# Density = 2.060229 g / cm^3
# Si number density = 20.649288 Si / 1000 Ang^3
#
#
#
# Elastic Constant Matrix: (Units=GPa)
#
#
# Indices 1 2 3 4 5 6 
#
# 1 94.9279 26.3598 51.2608 0.0000 0.0000 0.0000
# 2 26.3598 94.9279 51.2608 0.0000 0.0000 0.0000
# 3 51.2608 51.2608 126.2431 0.0000 0.0000 0.0000
# 4 0.0000 0.0000 0.0000 20.5168 0.0000 0.0000
# 5 0.0000 0.0000 0.0000 0.0000 20.5168 0.0000
# 6 0.0000 0.0000 0.0000 0.0000 0.0000 34.2840
#
#
#
# Elastic Compliance Matrix: (Units=1/GPa)
#
#
# Indices 1 2 3 4 5 6 
#
# 1 0.013569 -0.001015 -0.005097 0.000000 0.000000 0.000000
# 2 -0.001015 0.013569 -0.005097 0.000000 0.000000 0.000000
# 3 -0.005097 -0.005097 0.012061 0.000000 0.000000 0.000000
# 4 0.000000 0.000000 0.000000 0.048741 0.000000 0.000000
# 5 0.000000 0.000000 0.000000 0.000000 0.048741 0.000000
# 6 0.000000 0.000000 0.000000 0.000000 0.000000 0.029168
#
#
# Mechanical properties :
#
#
# Convention : Reuss Voigt Hill
#
# Bulk Modulus (GPa) = 59.60024 63.76238 61.68131
# Shear Modulus (GPa) = 25.79176 27.54468 26.66822
#
# Velocity S-wave (km/s) = 3.53801 3.65626 3.59762
# Velocity P-wave (km/s) = 6.75394 6.98356 6.86971
#
# Compressibility (1/GPa) = 0.01677846
#
# Stress axis : x y z
#
# Youngs Moduli (GPa) = 73.69859 73.69859 82.91357
#
# Poissons Ratio (x) = 0.07482 0.42264
# Poissons Ratio (y) = 0.07482 0.42264
# Poissons Ratio (z) = 0.37567 0.37567
#
# Static dielectric constant tensor:
#      x y z
#    x 3.625660 0.000000 0.000000 
#    y 0.000000 3.625660 0.000000 
#    z 0.000000 0.000000 3.825830 
# 
# 
# High freq. dielectric constant tensor:
#      x y z
#    x 1.809870 0.000000 0.000000 
#    y 0.000000 1.809870 0.000000 
#    z 0.000000 0.000000 1.796260 
# 
# From -- ./inp_files/3589.got.cif
#   From: 2010.03.12/outbox.cif.g09.slc.cpg/sg189_2_cif.got.tgz:3589.got - 2010.04.01 12:03:36.
