data_PCOD8327753
_publ_section_title
;
Structure prediction by ZEFSAII (Michael W. Deem and Ramdas Pophale) SiO2 
 PCOD8327753
Probable space group: P -6 2 M
;
_chemical_formula_sum "Si O2"
_cell_formula_units_Z 48
_cell_length_a 19.954612
_cell_length_b 19.954612
_cell_length_c 7.493372
_cell_angle_alpha 90.000000
_cell_angle_beta 90.000000
_cell_angle_gamma 120.000000
_cell_volume 2584.011846
_symmetry_space_group_name_H-M "P -6 2 M"
_symmetry_group_IT_number 189
_symmetry_cell_setting 'hexagonal'
loop_
_space_group_symop_operation_xyz
x,y,z
-x+y,-x,-z
-y,x-y,z
x,y,-z
-x+y,-x,z
-y,x-y,-z
x-y,-y,-z
-x,-x+y,-z
y,x,-z
y,x,z
x-y,-y,z
-x,-x+y,z
loop_
_atom_site_type_symbol
_atom_site_label
_atom_site_fract_x
_atom_site_fract_y
_atom_site_fract_z
Si Si1 0.086591 0.912979 0.211969
Si Si2 0.535573 0.444249 0.500000
Si Si3 0.910421 0.566307 0.203193
Si Si4 0.405579 0.092271 0.500000
Si Si5 0.836158 0.185673 0.791369
O O1 0.133396 0.871543 0.275850
O O2 0.000000 0.866581 0.290989
O O3 0.128891 0.000000 0.288040
O O4 0.083260 0.913547 0.000000
O O5 0.495374 0.495374 0.500000
O O6 0.509751 0.390289 0.324552
O O7 0.627282 0.502100 0.500000
O O8 0.861435 0.607095 0.250507
O O9 0.000000 0.628500 0.241254
O O10 0.897853 0.537531 0.000000
O O11 0.388164 0.123947 0.319969
O O12 0.355942 0.000000 0.500000
O O13 0.853242 0.206903 0.000000
#
# Coordination Sequence:
#
# PCOD8327753 Si02
#       5
#    12   6  12   6  12
#     4   9  16  27  45  71 106 149 193 232 268 306
#     4   9  19  34  52  75 100 126 159 202 255 315
#     4   9  17  32  56  83 106 129 164 213 267 320
#     4  11  23  36  51  75 107 142 178 214 258 315
#     4  10  20  34  54  79 107 140 179 224 269 312
#
# _framework density 18.575766000000002
#
# number of rings (size 3 to 8) (size 9 to 14) (size 15 to 20)
#    0.000    2.500    0.000    2.500    0.000    6.500 
#    0.000    4.375    0.000    4.000    0.000    1.750 
#    0.000    0.000    0.000    0.000    0.000    0.000 
#
# Total GULP energy -595224.158041 kJ/mol
# GULP energy per Si atom -12400.503293 kJ/mol
# Density = 1.853349 g / cm^3
# Si number density = 18.575766 Si / 1000 Ang^3
#
#
#
# Elastic Constant Matrix: (Units=GPa)
#
#
# Indices 1 2 3 4 5 6 
#
# 1 141.6944 77.6214 59.6707 0.0000 0.0000 0.0000
# 2 77.6214 141.6944 59.6707 0.0000 0.0000 0.0000
# 3 59.6707 59.6707 91.9527 0.0000 0.0000 0.0000
# 4 0.0000 0.0000 0.0000 22.3994 0.0000 0.0000
# 5 0.0000 0.0000 0.0000 0.0000 22.3994 0.0000
# 6 0.0000 0.0000 0.0000 0.0000 0.0000 32.0365
#
#
#
# Elastic Compliance Matrix: (Units=1/GPa)
#
#
# Indices 1 2 3 4 5 6 
#
# 1 0.011328 -0.004279 -0.004574 0.000000 0.000000 0.000000
# 2 -0.004279 0.011328 -0.004574 0.000000 0.000000 0.000000
# 3 -0.004574 -0.004574 0.016812 0.000000 0.000000 0.000000
# 4 0.000000 0.000000 0.000000 0.044644 0.000000 0.000000
# 5 0.000000 0.000000 0.000000 0.000000 0.044644 0.000000
# 6 0.000000 0.000000 0.000000 0.000000 0.000000 0.031214
#
#
# Mechanical properties :
#
#
# Convention : Reuss Voigt Hill
#
# Bulk Modulus (GPa) = 79.28542 85.47414 82.37978
# Shear Modulus (GPa) = 26.17404 27.25897 26.71651
#
# Velocity S-wave (km/s) = 3.75779 3.83488 3.79653
# Velocity P-wave (km/s) = 7.84875 8.10692 7.97888
#
# Compressibility (1/GPa) = 0.01261266
#
# Stress axis : x y z
#
# Youngs Moduli (GPa) = 88.27756 88.27756 59.48269
#
# Poissons Ratio (x) = 0.37777 0.27208
# Poissons Ratio (y) = 0.37777 0.27208
# Poissons Ratio (z) = 0.40379 0.40379
#
# Static dielectric constant tensor:
#      x y z
#    x 3.443370 0.000000 0.000000 
#    y 0.000000 3.443370 0.000000 
#    z 0.000000 0.000000 3.350160 
# 
# 
# High freq. dielectric constant tensor:
#      x y z
#    x 1.710830 0.000000 0.000000 
#    y 0.000000 1.710830 0.000000 
#    z 0.000000 0.000000 1.723230 
# 
# From -- ./inp_files/647.got.cif
#   From: 2010.03.12/outbox.cif.g09.slc.cpg/sg189_1_cif.got.tgz:647.got - 2010.04.01 12:03:36.
