data_PCOD8327759
_publ_section_title
;
Structure prediction by ZEFSAII (Michael W. Deem and Ramdas Pophale) SiO2 
 PCOD8327759
Probable space group: P -6 2 M
;
_chemical_formula_sum "Si O2"
_cell_formula_units_Z 30
_cell_length_a 15.912439
_cell_length_b 15.912439
_cell_length_c 7.852132
_cell_angle_alpha 90.000000
_cell_angle_beta 90.000000
_cell_angle_gamma 120.000000
_cell_volume 1721.835775
_symmetry_space_group_name_H-M "P -6 2 M"
_symmetry_group_IT_number 189
_symmetry_cell_setting 'hexagonal'
loop_
_space_group_symop_operation_xyz
x,y,z
-x+y,-x,-z
-y,x-y,z
x,y,-z
-x+y,-x,z
-y,x-y,-z
x-y,-y,-z
-x,-x+y,-z
y,x,-z
y,x,z
x-y,-y,z
-x,-x+y,z
loop_
_atom_site_type_symbol
_atom_site_label
_atom_site_fract_x
_atom_site_fract_y
_atom_site_fract_z
Si Si1 0.342479 0.110447 0.311021
Si Si2 0.114432 0.885888 0.000000
Si Si3 0.451410 0.695674 0.805889
O O1 0.305699 0.118120 0.500000
O O2 0.294628 0.146509 0.169678
O O3 0.458878 0.176308 0.313013
O O4 0.314274 0.000000 0.270761
O O5 0.000000 0.831751 0.000000
O O6 0.153802 0.000000 0.000000
O O7 0.412762 0.772135 0.772168
O O8 0.486628 0.704163 0.000000
#
# Coordination Sequence:
#
# PCOD8327759 Si02
#       3
#    12   6  12
#     4  10  20  34  55  82 109 141 180 220 265 317
#     4  10  21  38  58  78 104 138 175 220 272 324
#     4   8  16  31  54  78 104 144 183 216 260 307
#
# _framework density 17.423264
#
# number of rings (size 3 to 8) (size 9 to 14) (size 15 to 20)
#    0.800    2.000    2.000    0.200    0.000    2.400 
#    0.000    2.000    0.000    2.400    0.000    0.000 
#    0.000    0.000    0.000    0.000    0.000    0.000 
#
# Total GULP energy -371700.216224 kJ/mol
# GULP energy per Si atom -12390.007207 kJ/mol
# Density = 1.738361 g / cm^3
# Si number density = 17.423264 Si / 1000 Ang^3
#
#
#
# Elastic Constant Matrix: (Units=GPa)
#
#
# Indices 1 2 3 4 5 6 
#
# 1 82.2347 39.3326 40.8992 0.0000 0.0000 0.0000
# 2 39.3326 82.2347 40.8992 0.0000 0.0000 0.0000
# 3 40.8992 40.8992 114.6400 0.0000 0.0000 0.0000
# 4 0.0000 0.0000 0.0000 16.7543 0.0000 0.0000
# 5 0.0000 0.0000 0.0000 0.0000 16.7543 0.0000
# 6 0.0000 0.0000 0.0000 0.0000 0.0000 21.4511
#
#
#
# Elastic Compliance Matrix: (Units=1/GPa)
#
#
# Indices 1 2 3 4 5 6 
#
# 1 0.017067 -0.006242 -0.003862 0.000000 0.000000 0.000000
# 2 -0.006242 0.017067 -0.003862 0.000000 0.000000 0.000000
# 3 -0.003862 -0.003862 0.011478 0.000000 0.000000 0.000000
# 4 0.000000 0.000000 0.000000 0.059686 0.000000 0.000000
# 5 0.000000 0.000000 0.000000 0.000000 0.059686 0.000000
# 6 0.000000 0.000000 0.000000 0.000000 0.000000 0.046618
#
#
# Mechanical properties :
#
#
# Convention : Reuss Voigt Hill
#
# Bulk Modulus (GPa) = 56.56055 57.93017 57.24536
# Shear Modulus (GPa) = 20.37272 21.52384 20.94828
#
# Velocity S-wave (km/s) = 3.42319 3.51857 3.47121
# Velocity P-wave (km/s) = 6.93955 7.05890 6.99948
#
# Compressibility (1/GPa) = 0.01768017
#
# Stress axis : x y z
#
# Youngs Moduli (GPa) = 58.59404 58.59404 87.12033
#
# Poissons Ratio (x) = 0.36576 0.33643
# Poissons Ratio (y) = 0.36576 0.33643
# Poissons Ratio (z) = 0.22627 0.22627
#
# Static dielectric constant tensor:
#      x y z
#    x 2.995620 0.000000 0.000000 
#    y 0.000000 2.995620 0.000000 
#    z 0.000000 0.000000 3.312650 
# 
# 
# High freq. dielectric constant tensor:
#      x y z
#    x 1.651710 0.000000 0.000000 
#    y 0.000000 1.651710 0.000000 
#    z 0.000000 0.000000 1.684560 
# 
# From -- ./inp_files/284.got.cif
#   From: 2010.03.12/outbox.cif.g09.slc.cpg/sg189_1_cif.got.tgz:284.got - 2010.04.01 12:03:36.
