data_PCOD8327371
_publ_section_title
;
Structure prediction by ZEFSAII (Michael W. Deem and Ramdas Pophale) SiO2 
 PCOD8327371
Probable space group: P -6 C 2
;
_chemical_formula_sum "Si O2"
_cell_formula_units_Z 72
_cell_length_a 15.268129
_cell_length_b 15.268129
_cell_length_c 16.954668
_cell_angle_alpha 90.000000
_cell_angle_beta 90.000000
_cell_angle_gamma 120.000000
_cell_volume 3422.879126
_symmetry_space_group_name_H-M "P -6 C 2"
_symmetry_group_IT_number 188
_symmetry_cell_setting 'hexagonal'
loop_
_space_group_symop_operation_xyz
x,y,z
-x+y,-x,1/2-z
-y,x-y,z
x,y,1/2-z
-x+y,-x,z
-y,x-y,1/2-z
-y,-x,-z
-x+y,y,-z
x,x-y,-z
-x+y,y,1/2+z
x,x-y,1/2+z
-y,-x,1/2+z
loop_
_atom_site_type_symbol
_atom_site_label
_atom_site_fract_x
_atom_site_fract_y
_atom_site_fract_z
Si Si1 0.223741 0.106983 0.842841
Si Si2 0.771477 0.213548 0.092896
Si Si3 0.214270 0.434362 0.655986
Si Si4 0.786201 0.897914 0.592424
Si Si5 0.566661 0.447651 0.343201
Si Si6 0.108865 0.550870 0.343277
O O1 0.232148 0.119337 0.750000
O O2 0.332052 0.129984 0.875919
O O3 0.194926 0.186785 0.877721
O O4 0.137552 0.994666 0.865275
O O5 0.847282 0.319871 0.132596
O O6 0.658848 0.186378 0.114850
O O7 0.781315 0.218686 0.000000
O O8 0.205476 0.417424 0.750000
O O9 0.148484 0.328818 0.612809
O O10 0.328493 0.486492 0.624064
O O11 0.171764 0.506254 0.627382
O O12 0.805341 0.902671 0.500000
O O13 0.559412 0.430798 0.250000
O O14 0.497809 0.492727 0.373921
O O15 0.111560 0.547594 0.250000
#
# Coordination Sequence:
#
# PCOD8327371 Si02
#       6
#    12  12  12  12  12  12
#     4  12  25  44  67  92 122 164 210 255 310 382
#     4  12  25  42  63  92 126 163 207 265 322 367
#     4  10  19  37  62  91 124 163 206 251 300 359
#     4  12  25  42  63  93 127 161 202 257 315 371
#     4  11  22  39  61  89 123 165 209 251 303 375
#     4   9  19  34  60  91 120 154 200 249 294 348
#
# _framework density 21.034922000000002
#
# number of rings (size 3 to 8) (size 9 to 14) (size 15 to 20)
#    0.000    1.000    0.000    8.000    0.000    4.000 
#    0.000    2.500    0.000    0.000    0.000    0.000 
#    0.000    0.000    0.000    0.000    0.000    0.000 
#
# Total GULP energy -893342.917434 kJ/mol
# GULP energy per Si atom -12407.540520 kJ/mol
# Density = 2.098705 g / cm^3
# Si number density = 21.034922 Si / 1000 Ang^3
#
#
#
# Elastic Constant Matrix: (Units=GPa)
#
#
# Indices 1 2 3 4 5 6 
#
# 1 114.7742 17.8956 34.9621 0.0000 0.0000 0.0000
# 2 17.8956 114.7742 34.9621 0.0000 0.0000 0.0000
# 3 34.9621 34.9621 108.5749 0.0000 0.0000 0.0000
# 4 0.0000 0.0000 0.0000 18.4097 0.0000 0.0000
# 5 0.0000 0.0000 0.0000 0.0000 18.4097 0.0000
# 6 0.0000 0.0000 0.0000 0.0000 0.0000 48.4393
#
#
#
# Elastic Compliance Matrix: (Units=1/GPa)
#
#
# Indices 1 2 3 4 5 6 
#
# 1 0.009700 -0.000622 -0.002923 0.000000 0.000000 0.000000
# 2 -0.000622 0.009700 -0.002923 0.000000 0.000000 0.000000
# 3 -0.002923 -0.002923 0.011093 0.000000 0.000000 0.000000
# 4 0.000000 0.000000 0.000000 0.054319 0.000000 0.000000
# 5 0.000000 0.000000 0.000000 0.000000 0.054319 0.000000
# 6 0.000000 0.000000 0.000000 0.000000 0.000000 0.020644
#
#
# Mechanical properties :
#
#
# Convention : Reuss Voigt Hill
#
# Bulk Modulus (GPa) = 56.95977 57.08475 57.02226
# Shear Modulus (GPa) = 28.00097 33.73864 30.86981
#
# Velocity S-wave (km/s) = 3.65247 4.00926 3.83502
# Velocity P-wave (km/s) = 6.70260 6.97347 6.83937
#
# Compressibility (1/GPa) = 0.01755625
#
# Stress axis : x y z
#
# Youngs Moduli (GPa) = 103.09050 103.09050 90.14806
#
# Poissons Ratio (x) = 0.06412 0.26353
# Poissons Ratio (y) = 0.06412 0.26353
# Poissons Ratio (z) = 0.30136 0.30136
#
# Static dielectric constant tensor:
#      x y z
#    x 3.676050 0.000000 0.000000 
#    y 0.000000 3.676050 0.000000 
#    z 0.000000 0.000000 3.697740 
# 
# 
# High freq. dielectric constant tensor:
#      x y z
#    x 1.840570 0.000000 0.000000 
#    y 0.000000 1.840570 0.000000 
#    z 0.000000 0.000000 1.813810 
# 
# From -- ./inp_files/3187.got.cif
#   From: 2010.03.12/outbox.cif.g09.slc.cpg/sg188_2_cif.got.tgz:3187.got - 2010.04.01 12:01:06.
