data_PCOD8327661
_publ_section_title
;
Structure prediction by ZEFSAII (Michael W. Deem and Ramdas Pophale) SiO2 
 PCOD8327661
Probable space group: P -6 2 M
;
_chemical_formula_sum "Si O2"
_cell_formula_units_Z 96
_cell_length_a 15.429119
_cell_length_b 15.429119
_cell_length_c 23.951983
_cell_angle_alpha 90.000000
_cell_angle_beta 90.000000
_cell_angle_gamma 120.000000
_cell_volume 4938.037273
_symmetry_space_group_name_H-M "P -6 2 M"
_symmetry_group_IT_number 189
_symmetry_cell_setting 'hexagonal'
loop_
_space_group_symop_operation_xyz
x,y,z
-x+y,-x,-z
-y,x-y,z
x,y,-z
-x+y,-x,z
-y,x-y,-z
x-y,-y,-z
-x,-x+y,-z
y,x,-z
y,x,z
x-y,-y,z
-x,-x+y,z
loop_
_atom_site_type_symbol
_atom_site_label
_atom_site_fract_x
_atom_site_fract_y
_atom_site_fract_z
Si Si1 0.366651 0.253615 0.823880
Si Si2 0.610290 0.726434 0.250204
Si Si3 0.808676 0.559026 0.064295
Si Si4 0.523264 0.109599 0.064165
Si Si5 0.886022 0.771404 0.435221
Si Si6 0.582984 0.118690 0.364590
Si Si7 0.759632 0.566482 0.372854
Si Si8 0.535917 0.420446 0.761133
O O1 0.293505 0.293505 0.805071
O O2 0.330266 0.148755 0.792470
O O3 0.358307 0.240096 0.891251
O O4 0.483363 0.327423 0.804314
O O5 0.678290 0.678290 0.266108
O O6 0.585944 0.766618 0.306399
O O7 0.508444 0.644310 0.218268
O O8 0.822786 0.463890 0.071484
O O9 0.698847 0.528711 0.086302
O O10 0.831447 0.599039 0.000000
O O11 0.477796 0.000000 0.094400
O O12 0.495971 0.088717 0.000000
O O13 0.879123 0.743457 0.500000
O O14 0.856595 0.856595 0.425238
O O15 0.807042 0.672728 0.402777
O O16 0.000000 0.814829 0.413423
O O17 0.504879 0.148576 0.390840
O O18 0.691449 0.177088 0.393587
O O19 0.607984 0.159421 0.301076
O O20 0.536642 0.000000 0.370878
O O21 0.459110 0.459110 0.755171
#
# Coordination Sequence:
#
# PCOD8327661 Si02
#       8
#    12  12  12  12  12  12  12  12
#     4  11  22  35  53  78 108 142 184 231 284 341
#     4  10  21  37  57  80 111 147 188 236 288 344
#     4  10  21  35  51  74 105 143 186 229 285 349
#     4   9  18  34  54  74 101 138 180 228 278 334
#     4  10  21  38  61  89 120 156 201 253 305 356
#     4  10  19  33  54  81 114 149 187 234 280 335
#     4  11  20  36  59  85 117 157 199 237 292 349
#     4   8  17  34  50  73 105 136 172 219 272 328
#
# _framework density 19.440923000000002
#
# number of rings (size 3 to 8) (size 9 to 14) (size 15 to 20)
#    0.000    2.125    1.250    3.250    1.750    3.250 
#    0.750    0.625    0.000    2.500    0.000    0.000 
#    0.000    0.000    0.000    0.000    0.000    0.000 
#
# Total GULP energy -1189636.981562 kJ/mol
# GULP energy per Si atom -12392.051891 kJ/mol
# Density = 1.939667 g / cm^3
# Si number density = 19.440923 Si / 1000 Ang^3
#
#
#
# Elastic Constant Matrix: (Units=GPa)
#
#
# Indices 1 2 3 4 5 6 
#
# 1 102.0292 40.5970 18.1685 0.0000 0.0000 0.0000
# 2 40.5970 102.0292 18.1685 0.0000 0.0000 0.0000
# 3 18.1685 18.1685 42.0749 0.0000 0.0000 0.0000
# 4 0.0000 0.0000 0.0000 19.5036 0.0000 0.0000
# 5 0.0000 0.0000 0.0000 0.0000 19.5036 0.0000
# 6 0.0000 0.0000 0.0000 0.0000 0.0000 30.7161
#
#
#
# Elastic Compliance Matrix: (Units=1/GPa)
#
#
# Indices 1 2 3 4 5 6 
#
# 1 0.012078 -0.004200 -0.003402 0.000000 0.000000 0.000000
# 2 -0.004200 0.012078 -0.003402 0.000000 0.000000 0.000000
# 3 -0.003402 -0.003402 0.026705 0.000000 0.000000 0.000000
# 4 0.000000 0.000000 0.000000 0.051272 0.000000 0.000000
# 5 0.000000 0.000000 0.000000 0.000000 0.051272 0.000000
# 6 0.000000 0.000000 0.000000 0.000000 0.000000 0.032556
#
#
# Mechanical properties :
#
#
# Convention : Reuss Voigt Hill
#
# Bulk Modulus (GPa) = 34.65753 44.44457 39.55105
# Shear Modulus (GPa) = 22.97924 25.22462 24.10193
#
# Velocity S-wave (km/s) = 3.44176 3.60599 3.52483
# Velocity P-wave (km/s) = 5.80173 6.34417 6.07901
#
# Compressibility (1/GPa) = 0.02885376
#
# Stress axis : x y z
#
# Youngs Moduli (GPa) = 82.79468 82.79468 37.44613
#
# Poissons Ratio (x) = 0.34774 0.12739
# Poissons Ratio (y) = 0.34774 0.12739
# Poissons Ratio (z) = 0.28165 0.28165
#
# Static dielectric constant tensor:
#      x y z
#    x 3.652030 0.000000 0.000000 
#    y 0.000000 3.652030 0.000000 
#    z 0.000000 0.000000 3.422410 
# 
# 
# High freq. dielectric constant tensor:
#      x y z
#    x 1.748910 0.000000 0.000000 
#    y 0.000000 1.748910 0.000000 
#    z 0.000000 0.000000 1.735980 
# 
# From -- ./inp_files/3724.got.cif
#   From: 2010.03.12/outbox.cif.g09.slc.cpg/sg189_2_cif.got.tgz:3724.got - 2010.04.01 12:03:36.
