data_PCOD8327744
_publ_section_title
;
Structure prediction by ZEFSAII (Michael W. Deem and Ramdas Pophale) SiO2 
 PCOD8327744
Probable space group: P -6 2 M
;
_chemical_formula_sum "Si O2"
_cell_formula_units_Z 52
_cell_length_a 13.454046
_cell_length_b 13.454046
_cell_length_c 17.039052
_cell_angle_alpha 90.000000
_cell_angle_beta 90.000000
_cell_angle_gamma 120.000000
_cell_volume 2671.049131
_symmetry_space_group_name_H-M "P -6 2 M"
_symmetry_group_IT_number 189
_symmetry_cell_setting 'hexagonal'
loop_
_space_group_symop_operation_xyz
x,y,z
-x+y,-x,-z
-y,x-y,z
x,y,-z
-x+y,-x,z
-y,x-y,-z
x-y,-y,-z
-x,-x+y,-z
y,x,-z
y,x,z
x-y,-y,z
-x,-x+y,z
loop_
_atom_site_type_symbol
_atom_site_label
_atom_site_fract_x
_atom_site_fract_y
_atom_site_fract_z
Si Si1 0.333334 0.666667 0.092496
Si Si2 0.736642 0.867790 0.262775
Si Si3 0.433453 0.875481 0.650408
Si Si4 0.865363 0.525275 0.188302
Si Si5 0.407125 0.214809 0.411593
O O1 0.448098 0.782753 0.118894
O O2 0.333334 0.666668 0.000000
O O3 0.789418 0.789418 0.235030
O O4 0.626930 0.838490 0.208876
O O5 0.699457 0.842301 0.354026
O O6 0.833448 0.000000 0.253915
O O7 0.440817 0.832462 0.737198
O O8 0.313385 0.793936 0.609744
O O9 0.541515 0.892027 0.598584
O O10 0.444387 0.000000 0.656606
O O11 0.000000 0.580670 0.165569
O O12 0.364022 0.173947 0.500000
#
# Coordination Sequence:
#
# PCOD8327744 Si02
#       5
#     4  12  12  12  12
#     4  12  24  36  60  96 127 152 172 204 267 336
#     4  10  21  37  57  78 103 142 191 240 285 333
#     4  10  20  34  52  70  94 135 182 224 262 310
#     4   9  20  39  59  81 112 148 187 227 266 319
#     4  11  21  31  46  72 104 138 179 230 289 341
#
# _framework density 19.468008000000001
#
# number of rings (size 3 to 8) (size 9 to 14) (size 15 to 20)
#    0.000    1.846    0.000    6.923    0.000    7.846 
#    0.000    0.000    0.000    1.385    0.000    0.000 
#    0.000    1.846    0.000    0.000    0.000    0.000 
#
# Total GULP energy -644665.291354 kJ/mol
# GULP energy per Si atom -12397.409449 kJ/mol
# Density = 1.942370 g / cm^3
# Si number density = 19.468008 Si / 1000 Ang^3
#
#
#
# Elastic Constant Matrix: (Units=GPa)
#
#
# Indices 1 2 3 4 5 6 
#
# 1 99.0346 41.4353 47.3413 0.0000 0.0001 0.0000
# 2 41.4353 99.0351 47.3414 0.0000 0.0001 0.0001
# 3 47.3413 47.3414 119.6710 0.0001 0.0001 0.0000
# 4 0.0000 0.0000 0.0001 14.2442 0.0000 0.0000
# 5 0.0001 0.0001 0.0001 0.0000 14.2442 0.0000
# 6 0.0000 0.0001 0.0000 0.0000 0.0000 28.7998
#
#
#
# Elastic Compliance Matrix: (Units=1/GPa)
#
#
# Indices 1 2 3 4 5 6 
#
# 1 0.013534 -0.003827 -0.003840 0.000000 0.000000 0.000000
# 2 -0.003827 0.013534 -0.003840 0.000000 0.000000 0.000000
# 3 -0.003840 -0.003840 0.011395 0.000000 0.000000 0.000000
# 4 0.000000 0.000000 0.000000 0.070204 0.000000 0.000000
# 5 0.000000 0.000000 0.000000 0.000000 0.070204 0.000000
# 6 0.000000 0.000000 0.000000 0.000000 0.000000 0.034722
#
#
# Mechanical properties :
#
#
# Convention : Reuss Voigt Hill
#
# Bulk Modulus (GPa) = 64.73096 65.55299 65.14197
# Shear Modulus (GPa) = 20.68187 23.56583 22.12385
#
# Velocity S-wave (km/s) = 3.26291 3.48298 3.37474
# Velocity P-wave (km/s) = 6.89330 7.06542 6.97989
#
# Compressibility (1/GPa) = 0.01544856
#
# Stress axis : x y z
#
# Youngs Moduli (GPa) = 73.88598 73.88635 87.76091
#
# Poissons Ratio (x) = 0.28276 0.33702
# Poissons Ratio (y) = 0.28276 0.33702
# Poissons Ratio (z) = 0.28374 0.28374
#
# Static dielectric constant tensor:
#      x y z
#    x 3.581450 0.000000 0.000000 
#    y 0.000000 3.581450 0.000000 
#    z 0.000000 0.000000 3.101510 
# 
# 
# High freq. dielectric constant tensor:
#      x y z
#    x 1.767350 0.000000 0.000000 
#    y 0.000000 1.767350 0.000000 
#    z 0.000000 0.000000 1.706860 
# 
# From -- ./inp_files/2444.got.cif
#   From: 2010.03.12/outbox.cif.g09.slc.cpg/sg189_2_cif.got.tgz:2444.got - 2010.04.01 12:03:36.
