data_PCOD8327884
_publ_section_title
;
Structure prediction by ZEFSAII (Michael W. Deem and Ramdas Pophale) SiO2 
 PCOD8327884
Probable space group: P -6 2 M
;
_chemical_formula_sum "Si O2"
_cell_formula_units_Z 48
_cell_length_a 15.063190
_cell_length_b 15.063190
_cell_length_c 14.507845
_cell_angle_alpha 90.000000
_cell_angle_beta 90.000000
_cell_angle_gamma 120.000000
_cell_volume 2850.804574
_symmetry_space_group_name_H-M "P -6 2 M"
_symmetry_group_IT_number 189
_symmetry_cell_setting 'hexagonal'
loop_
_space_group_symop_operation_xyz
x,y,z
-x+y,-x,-z
-y,x-y,z
x,y,-z
-x+y,-x,z
-y,x-y,-z
x-y,-y,-z
-x,-x+y,-z
y,x,-z
y,x,z
x-y,-y,z
-x,-x+y,z
loop_
_atom_site_type_symbol
_atom_site_label
_atom_site_fract_x
_atom_site_fract_y
_atom_site_fract_z
Si Si1 0.538387 0.292075 0.603776
Si Si2 0.649757 0.766904 0.106829
Si Si3 0.880731 0.435454 0.899426
Si Si4 0.292855 0.412872 0.767120
O O1 0.589223 0.219453 0.618205
O O2 0.494859 0.277995 0.500000
O O3 0.443242 0.261201 0.671574
O O4 0.735607 0.735607 0.127423
O O5 0.537286 0.673908 0.131818
O O6 0.666734 0.859287 0.174083
O O7 0.656141 0.799274 0.000000
O O8 0.835474 0.481116 0.825181
O O9 0.000000 0.515146 0.908936
O O10 0.829557 0.426775 0.000000
O O11 0.359612 0.359612 0.745274
#
# Coordination Sequence:
#
# PCOD8327884 Si02
#       4
#    12  12  12  12
#     4   8  17  33  49  65  94 130 159 190 234 290
#     4   9  18  32  46  62  93 133 162 189 235 291
#     4   8  15  27  41  61  90 119 150 191 236 284
#     4  11  19  27  47  74  95 119 159 207 244 277
#
# _framework density 16.837353
#
# number of rings (size 3 to 8) (size 9 to 14) (size 15 to 20)
#    0.500    2.500    0.000    3.750    0.000    2.000 
#    1.500    0.000    0.000    2.750    0.000    0.000 
#    0.000    0.000    0.000    0.000    0.000    0.000 
#
# Total GULP energy -594777.326699 kJ/mol
# GULP energy per Si atom -12391.194306 kJ/mol
# Density = 1.679903 g / cm^3
# Si number density = 16.837353 Si / 1000 Ang^3
#
#
#
# Elastic Constant Matrix: (Units=GPa)
#
#
# Indices 1 2 3 4 5 6 
#
# 1 40.8806 8.4332 29.7615 0.0000 0.0000 0.0000
# 2 8.4332 40.8806 29.7615 0.0000 0.0000 0.0000
# 3 29.7615 29.7615 100.0256 0.0000 0.0000 0.0000
# 4 0.0000 0.0000 0.0000 19.4501 0.0000 0.0000
# 5 0.0000 0.0000 0.0000 0.0000 19.4501 0.0000
# 6 0.0000 0.0000 0.0000 0.0000 0.0000 16.2237
#
#
#
# Elastic Compliance Matrix: (Units=1/GPa)
#
#
# Indices 1 2 3 4 5 6 
#
# 1 0.031231 0.000412 -0.009415 0.000000 0.000000 0.000000
# 2 0.000412 0.031231 -0.009415 0.000000 0.000000 0.000000
# 3 -0.009415 -0.009415 0.015600 0.000000 0.000000 0.000000
# 4 0.000000 0.000000 0.000000 0.051414 0.000000 0.000000
# 5 0.000000 0.000000 0.000000 0.000000 0.051414 0.000000
# 6 0.000000 0.000000 0.000000 0.000000 0.000000 0.061638
#
#
# Mechanical properties :
#
#
# Convention : Reuss Voigt Hill
#
# Bulk Modulus (GPa) = 24.25698 35.29991 29.77845
# Shear Modulus (GPa) = 17.05875 18.61348 17.83612
#
# Velocity S-wave (km/s) = 3.18645 3.32849 3.25825
# Velocity P-wave (km/s) = 5.28923 5.98185 5.64617
#
# Compressibility (1/GPa) = 0.04122525
#
# Stress axis : x y z
#
# Youngs Moduli (GPa) = 32.01981 32.01981 64.10263
#
# Poissons Ratio (x) = -0.01318 0.60351
# Poissons Ratio (y) = -0.01318 0.60351
# Poissons Ratio (z) = 0.30146 0.30146
#
# Static dielectric constant tensor:
#      x y z
#    x 2.841190 0.000000 0.000000 
#    y 0.000000 2.841190 0.000000 
#    z 0.000000 0.000000 3.186960 
# 
# 
# High freq. dielectric constant tensor:
#      x y z
#    x 1.614970 0.000000 0.000000 
#    y 0.000000 1.614970 0.000000 
#    z 0.000000 0.000000 1.647790 
# 
# From -- ./inp_files/1736.got.cif
#   From: 2010.03.12/outbox.cif.g09.slc.cpg/sg189_1_cif.got.tgz:1736.got - 2010.04.01 12:03:36.
