data_PCOD8327948
_publ_section_title
;
Structure prediction by ZEFSAII (Michael W. Deem and Ramdas Pophale) SiO2 
 PCOD8327948
Probable space group: P -6 2 C
;
_chemical_formula_sum "Si O2"
_cell_formula_units_Z 52
_cell_length_a 13.520395
_cell_length_b 13.520395
_cell_length_c 17.858435
_cell_angle_alpha 90.000000
_cell_angle_beta 90.000000
_cell_angle_gamma 120.000000
_cell_volume 2827.175630
_symmetry_space_group_name_H-M "P -6 2 C"
_symmetry_group_IT_number 190
_symmetry_cell_setting 'hexagonal'
loop_
_space_group_symop_operation_xyz
x,y,z
-x+y,-x,1/2-z
-y,x-y,z
x,y,1/2-z
-x+y,-x,z
-y,x-y,1/2-z
x-y,-y,-z
-x,-x+y,-z
y,x,-z
y,x,1/2+z
x-y,-y,1/2+z
-x,-x+y,1/2+z
loop_
_atom_site_type_symbol
_atom_site_label
_atom_site_fract_x
_atom_site_fract_y
_atom_site_fract_z
Si Si1 0.865217 0.108975 0.549500
Si Si2 0.695937 0.021830 0.163646
Si Si3 0.424185 0.918581 0.837966
Si Si4 0.088149 0.310108 0.593887
Si Si5 0.333335 0.666667 0.661266
O O1 0.769091 0.074952 0.611781
O O2 0.859184 0.197901 0.490466
O O3 0.988279 0.175508 0.591369
O O4 0.847384 0.000000 0.500000
O O5 0.691923 0.987722 0.250000
O O6 0.580856 0.023444 0.141922
O O7 0.811715 0.143334 0.152164
O O8 0.408200 0.927483 0.750000
O O9 0.355493 0.969857 0.882404
O O10 0.363786 0.789663 0.868146
O O11 0.333334 0.666668 0.750000
#
# Coordination Sequence:
#
# PCOD8327948 Si02
#       5
#    12  12  12  12   4
#     4   9  21  40  54  76 116 158 197 244 287 337
#     4  10  20  35  57  87 119 151 193 245 295 348
#     4  10  18  31  57  89 119 144 184 241 297 350
#     4  10  19  37  57  81 111 160 194 239 293 351
#     4   9  15  27  48  81 120 144 169 230 295 336
#
# _framework density 18.392914000000001
#
# number of rings (size 3 to 8) (size 9 to 14) (size 15 to 20)
#    0.000    2.308    2.308    0.692    0.000    1.846 
#   48.462    0.000    0.000    0.923    0.000    0.000 
#    0.000    0.000    0.000    0.000    0.000    0.000 
#
# Total GULP energy -644208.591763 kJ/mol
# GULP energy per Si atom -12388.626765 kJ/mol
# Density = 1.835105 g / cm^3
# Si number density = 18.392914 Si / 1000 Ang^3
#
#
#
# Elastic Constant Matrix: (Units=GPa)
#
#
# Indices 1 2 3 4 5 6 
#
# 1 107.5037 47.5093 58.4098 0.0000 0.0000 -0.0001
# 2 47.5093 107.5033 58.4094 0.0000 0.0000 -0.0001
# 3 58.4098 58.4094 92.6414 0.0000 0.0000 0.0001
# 4 0.0000 0.0000 0.0000 34.0324 0.0000 0.0000
# 5 0.0000 0.0000 0.0000 0.0000 34.0325 0.0000
# 6 -0.0001 -0.0001 0.0001 0.0000 0.0000 29.9968
#
#
#
# Elastic Compliance Matrix: (Units=1/GPa)
#
#
# Indices 1 2 3 4 5 6 
#
# 1 0.014480 -0.002189 -0.007750 0.000000 0.000000 0.000000
# 2 -0.002189 0.014480 -0.007749 0.000000 0.000000 0.000000
# 3 -0.007750 -0.007749 0.020566 0.000000 0.000000 0.000000
# 4 0.000000 0.000000 0.000000 0.029384 0.000000 0.000000
# 5 0.000000 0.000000 0.000000 0.000000 0.029384 0.000000
# 6 0.000000 0.000000 0.000000 0.000000 0.000000 0.033337
#
#
# Mechanical properties :
#
#
# Convention : Reuss Voigt Hill
#
# Bulk Modulus (GPa) = 70.66790 70.70060 70.68425
# Shear Modulus (GPa) = 27.51456 29.16699 28.34078
#
# Velocity S-wave (km/s) = 3.87193 3.98650 3.92963
# Velocity P-wave (km/s) = 7.64812 7.72736 7.68784
#
# Compressibility (1/GPa) = 0.01415070
#
# Stress axis : x y z
#
# Youngs Moduli (GPa) = 69.06206 69.06217 48.62338
#
# Poissons Ratio (x) = 0.15115 0.37681
# Poissons Ratio (y) = 0.15115 0.37680
# Poissons Ratio (z) = 0.53520 0.53519
#
# Static dielectric constant tensor:
#      x y z
#    x 3.382390 0.000000 0.000000 
#    y 0.000000 3.382400 0.000000 
#    z 0.000000 0.000000 3.343530 
# 
# 
# High freq. dielectric constant tensor:
#      x y z
#    x 1.699470 0.000000 0.000000 
#    y 0.000000 1.699470 0.000000 
#    z 0.000000 0.000000 1.706680 
# 
# From -- ./inp_files/2699.got.cif
#   From: 2010.06.25/outbox.cif.g09.slc.cpg/sg190_2_cif.got.tgz:2699.got - 2010.06.28 13:08:06.
