data_PCOD8327182
_publ_section_title
;
Structure prediction by ZEFSAII (Michael W. Deem and Ramdas Pophale) SiO2 
 PCOD8327182
Probable space group: P -6 M 2
;
_chemical_formula_sum "Si O2"
_cell_formula_units_Z 66
_cell_length_a 12.463131
_cell_length_b 12.463131
_cell_length_c 28.070130
_cell_angle_alpha 90.000000
_cell_angle_beta 90.000000
_cell_angle_gamma 120.000000
_cell_volume 3775.977306
_symmetry_space_group_name_H-M "P -6 M 2"
_symmetry_group_IT_number 187
_symmetry_cell_setting 'hexagonal'
loop_
_space_group_symop_operation_xyz
x,y,z
-x+y,-x,-z
-y,x-y,z
x,y,-z
-x+y,-x,z
-y,x-y,-z
-y,-x,-z
-x+y,y,-z
x,x-y,-z
-x+y,y,z
x,x-y,z
-y,-x,z
loop_
_atom_site_type_symbol
_atom_site_label
_atom_site_fract_x
_atom_site_fract_y
_atom_site_fract_z
Si Si1 0.250647 0.998806 0.000000
Si Si2 0.083506 0.668113 0.090416
Si Si3 0.667091 0.086829 0.445806
Si Si4 0.668181 0.583552 0.728834
Si Si5 0.999968 0.749615 0.819068
Si Si6 0.999192 0.248532 0.639811
O O1 0.320687 0.991643 0.953520
O O2 0.255667 0.127834 0.000000
O O3 0.108125 0.891876 0.000000
O O4 0.074313 0.537157 0.087648
O O5 0.226703 0.773298 0.087841
O O6 0.021115 0.675764 0.139015
O O7 0.667818 0.044777 0.500000
O O8 0.535820 0.071639 0.431974
O O9 0.769651 0.230350 0.438241
O O10 0.695968 0.000627 0.412022
O O11 0.770827 0.541653 0.730950
O O12 0.535111 0.464890 0.735668
O O13 0.689742 0.680986 0.769972
O O14 0.672488 0.646681 0.678653
O O15 0.110699 0.889302 0.815042
O O16 0.876859 0.753717 0.830580
O O17 0.131125 0.262250 0.649355
O O18 0.895744 0.104256 0.643239
#
# Coordination Sequence:
#
# PCOD8327182 Si02
#       6
#     6  12  12  12  12  12
#     4  10  20  34  54  78 104 134 168 210 256 302
#     4  10  20  34  53  76 103 135 170 208 249 295
#     4   9  17  30  50  75 100 126 158 199 246 293
#     4  10  20  34  53  76 101 129 162 202 248 296
#     4  10  20  34  54  78 104 134 167 205 247 293
#     4  10  20  33  50  72  99 131 165 202 244 291
#
# _framework density 17.478919000000001
#
# number of rings (size 3 to 8) (size 9 to 14) (size 15 to 20)
#    0.000    2.182    0.000    3.455    0.000    1.091 
#    0.000    6.364    0.000   14.909    0.000    0.000 
#    0.000    0.000    0.000    0.000    0.000    0.000 
#
# Total GULP energy -818635.927788 kJ/mol
# GULP energy per Si atom -12403.574663 kJ/mol
# Density = 1.743914 g / cm^3
# Si number density = 17.478919 Si / 1000 Ang^3
#
#
#
# Elastic Constant Matrix: (Units=GPa)
#
#
# Indices 1 2 3 4 5 6 
#
# 1 99.3848 58.0510 38.9832 0.0000 0.0002 0.0000
# 2 58.0510 99.3848 38.9832 0.0000 -0.0002 0.0000
# 3 38.9832 38.9832 99.6075 0.0000 0.0000 0.0000
# 4 0.0000 0.0000 0.0000 20.5447 0.0000 -0.0002
# 5 0.0002 -0.0002 0.0000 0.0000 20.5447 0.0000
# 6 0.0000 0.0000 0.0000 -0.0002 0.0000 20.6669
#
#
#
# Elastic Compliance Matrix: (Units=1/GPa)
#
#
# Indices 1 2 3 4 5 6 
#
# 1 0.016036 -0.008157 -0.003084 0.000000 0.000000 0.000000
# 2 -0.008157 0.016036 -0.003084 0.000000 0.000000 0.000000
# 3 -0.003084 -0.003084 0.012453 0.000000 0.000000 0.000000
# 4 0.000000 0.000000 0.000000 0.048674 0.000000 0.000000
# 5 0.000000 0.000000 0.000000 0.000000 0.048674 0.000000
# 6 0.000000 0.000000 0.000000 0.000000 0.000000 0.048387
#
#
# Mechanical properties :
#
#
# Convention : Reuss Voigt Hill
#
# Bulk Modulus (GPa) = 62.98589 63.37907 63.18248
# Shear Modulus (GPa) = 22.30141 23.17524 22.73833
#
# Velocity S-wave (km/s) = 3.57585 3.64524 3.61071
# Velocity P-wave (km/s) = 7.29127 7.35228 7.32184
#
# Compressibility (1/GPa) = 0.01587657
#
# Stress axis : x y z
#
# Youngs Moduli (GPa) = 62.35944 62.35944 80.30195
#
# Poissons Ratio (x) = 0.50868 0.24761
# Poissons Ratio (y) = 0.50868 0.24761
# Poissons Ratio (z) = 0.19229 0.19229
#
# Static dielectric constant tensor:
#      x y z
#    x 3.114200 0.000000 0.000000 
#    y 0.000000 3.114200 0.000000 
#    z 0.000000 0.000000 3.513930 
# 
# 
# High freq. dielectric constant tensor:
#      x y z
#    x 1.669760 0.000000 0.000000 
#    y 0.000000 1.669760 0.000000 
#    z 0.000000 0.000000 1.696040 
# 
# From -- ./inp_files/4415.got.cif
#   From: 2010.03.12/outbox.cif.g09.slc.cpg/sg187_3_cif.got.tgz:4415.got - 2010.04.01 11:58:23.
