data_PCOD8327087
_publ_section_title
;
Structure prediction by ZEFSAII (Michael W. Deem and Ramdas Pophale) SiO2 
 PCOD8327087
Probable space group: P -6 M 2
;
_chemical_formula_sum "Si O2"
_cell_formula_units_Z 84
_cell_length_a 12.882630
_cell_length_b 12.882630
_cell_length_c 36.084343
_cell_angle_alpha 90.000000
_cell_angle_beta 90.000000
_cell_angle_gamma 120.000000
_cell_volume 5186.310349
_symmetry_space_group_name_H-M "P -6 M 2"
_symmetry_group_IT_number 187
_symmetry_cell_setting 'hexagonal'
loop_
_space_group_symop_operation_xyz
x,y,z
-x+y,-x,-z
-y,x-y,z
x,y,-z
-x+y,-x,z
-y,x-y,-z
-y,-x,-z
-x+y,y,-z
x,x-y,-z
-x+y,y,z
x,x-y,z
-y,-x,z
loop_
_atom_site_type_symbol
_atom_site_label
_atom_site_fract_x
_atom_site_fract_y
_atom_site_fract_z
Si Si1 0.666926 0.090768 0.251566
Si Si2 0.332882 0.905501 0.314831
Si Si3 0.331116 0.426263 0.039127
Si Si4 0.331316 0.421418 0.880319
Si Si5 0.333023 0.426930 0.398683
Si Si6 0.244597 0.243494 0.184561
Si Si7 0.000983 0.241401 0.541367
O O1 0.547090 0.094179 0.241861
O O2 0.774507 0.225494 0.256673
O O3 0.692368 0.021961 0.219241
O O4 0.653617 0.019159 0.289269
O O5 0.432766 0.865532 0.311877
O O6 0.207099 0.792902 0.302148
O O7 0.325348 0.944973 0.356706
O O8 0.235284 0.470567 0.039806
O O9 0.459799 0.540202 0.037719
O O10 0.321338 0.361618 0.078586
O O11 0.313700 0.352070 0.000000
O O12 0.228093 0.456185 0.874842
O O13 0.459074 0.540927 0.874346
O O14 0.314242 0.320145 0.851430
O O15 0.227782 0.455564 0.406513
O O16 0.454753 0.545248 0.406595
O O17 0.329056 0.331093 0.427741
O O18 0.218551 0.109276 0.178991
O O19 0.119560 0.239119 0.191084
O O20 0.011280 0.294860 0.500000
O O21 0.106605 0.213209 0.548867
O O22 0.879794 0.120207 0.546487
#
# Coordination Sequence:
#
# PCOD8327087 Si02
#       7
#    12  12  12  12  12  12  12
#     4  10  20  33  49  68  90 115 143 178 220 264
#     4   9  17  30  48  69  92 118 147 178 213 255
#     4   8  12  18  31  54  84 114 139 164 200 249
#     4   9  16  26  42  65  91 115 139 171 213 259
#     4   9  17  29  46  68  93 119 146 178 217 260
#     4  10  20  33  48  64  84 113 148 184 219 257
#     4   9  17  29  45  64  86 114 148 185 222 258
#
# _framework density 16.196484999999999
#
# number of rings (size 3 to 8) (size 9 to 14) (size 15 to 20)
#    0.000    2.857    0.000    1.857    0.000    4.286 
#    0.000    0.000    0.000    6.714    0.000    0.000 
#    0.000    1.143    0.000    0.000    0.000    0.000 
#
# Total GULP energy -1040842.847398 kJ/mol
# GULP energy per Si atom -12390.986279 kJ/mol
# Density = 1.615962 g / cm^3
# Si number density = 16.196485 Si / 1000 Ang^3
#
#
#
# Elastic Constant Matrix: (Units=GPa)
#
#
# Indices 1 2 3 4 5 6 
#
# 1 77.0773 41.4711 59.4796 0.0000 -0.0004 0.0000
# 2 41.4711 77.0773 59.4796 0.0000 0.0004 0.0000
# 3 59.4796 59.4796 134.0012 0.0000 0.0000 0.0000
# 4 0.0000 0.0000 0.0000 22.5465 0.0000 0.0004
# 5 -0.0004 0.0004 0.0000 0.0000 22.5465 0.0000
# 6 0.0000 0.0000 0.0000 0.0004 0.0000 17.8031
#
#
#
# Elastic Compliance Matrix: (Units=1/GPa)
#
#
# Indices 1 2 3 4 5 6 
#
# 1 0.021648 -0.006437 -0.006751 0.000000 0.000001 0.000000
# 2 -0.006437 0.021648 -0.006751 0.000000 -0.000001 0.000000
# 3 -0.006751 -0.006751 0.013456 0.000000 0.000000 0.000000
# 4 0.000000 0.000000 0.000000 0.044353 0.000000 -0.000001
# 5 0.000001 -0.000001 0.000000 0.000000 0.044353 0.000000
# 6 0.000000 0.000000 0.000000 -0.000001 0.000000 0.056170
#
#
# Mechanical properties :
#
#
# Convention : Reuss Voigt Hill
#
# Bulk Modulus (GPa) = 59.27364 67.66849 63.47107
# Shear Modulus (GPa) = 20.23218 21.09424 20.66321
#
# Velocity S-wave (km/s) = 3.53820 3.61279 3.57569
# Velocity P-wave (km/s) = 7.30533 7.69892 7.50471
#
# Compressibility (1/GPa) = 0.01687091
#
# Stress axis : x y z
#
# Youngs Moduli (GPa) = 46.19449 46.19449 74.31550
#
# Poissons Ratio (x) = 0.29737 0.50173
# Poissons Ratio (y) = 0.29737 0.50173
# Poissons Ratio (z) = 0.31188 0.31188
#
# Static dielectric constant tensor:
#      x y z
#    x 2.896920 0.000000 0.000000 
#    y 0.000000 2.896920 0.000000 
#    z 0.000000 0.000000 3.583780 
# 
# 
# High freq. dielectric constant tensor:
#      x y z
#    x 1.602980 0.000000 0.000000 
#    y 0.000000 1.602980 0.000000 
#    z 0.000000 0.000000 1.644960 
# 
# From -- ./inp_files/4642.got.cif
#   From: 2010.03.12/outbox.cif.g09.slc.cpg/sg187_3_cif.got.tgz:4642.got - 2010.04.01 11:58:23.
