data_PCOD8327619
_publ_section_title
;
Structure prediction by ZEFSAII (Michael W. Deem and Ramdas Pophale) SiO2 
 PCOD8327619
Probable space group: P -6 2 M
;
_chemical_formula_sum "Si O2"
_cell_formula_units_Z 82
_cell_length_a 20.952527
_cell_length_b 20.952527
_cell_length_c 12.582770
_cell_angle_alpha 90.000000
_cell_angle_beta 90.000000
_cell_angle_gamma 120.000000
_cell_volume 4783.873729
_symmetry_space_group_name_H-M "P -6 2 M"
_symmetry_group_IT_number 189
_symmetry_cell_setting 'hexagonal'
loop_
_space_group_symop_operation_xyz
x,y,z
-x+y,-x,-z
-y,x-y,z
x,y,-z
-x+y,-x,z
-y,x-y,-z
x-y,-y,-z
-x,-x+y,-z
y,x,-z
y,x,z
x-y,-y,z
-x,-x+y,z
loop_
_atom_site_type_symbol
_atom_site_label
_atom_site_fract_x
_atom_site_fract_y
_atom_site_fract_z
Si Si1 0.791043 0.439312 0.235809
Si Si2 0.485656 0.694531 0.125191
Si Si3 0.666668 0.333334 0.375969
Si Si4 0.084514 0.548776 0.379078
Si Si5 0.914594 0.088032 0.230929
Si Si6 0.714182 0.801787 0.381456
Si Si7 0.584753 0.669853 0.723192
Si Si8 0.834163 0.915904 0.000000
O O1 0.770667 0.492418 0.169090
O O2 0.781317 0.374434 0.157158
O O3 0.736328 0.407791 0.335409
O O4 0.871539 0.483353 0.290405
O O5 0.551246 0.684112 0.171016
O O6 0.494040 0.699444 0.000000
O O7 0.666667 0.333334 0.500000
O O8 0.110417 0.575665 0.500000
O O9 0.096734 0.479661 0.357846
O O10 0.000000 0.526012 0.364036
O O11 0.882139 0.124359 0.311225
O O12 0.000000 0.115248 0.256401
O O13 0.868590 0.000000 0.242775
O O14 0.907164 0.115864 0.111760
O O15 0.706226 0.825760 0.500000
O O16 0.758910 0.758910 0.382508
O O17 0.633412 0.747846 0.334960
O O18 0.633379 0.633379 0.758286
O O19 0.905132 0.905132 0.000000
O O20 0.859271 0.000000 0.000000
#
# Coordination Sequence:
#
# PCOD8327619 Si02
#       8
#    12  12   4  12  12  12  12   6
#     4   9  18  29  45  71  99 126 160 191 227 284
#     4  10  19  32  50  71  98 133 162 193 236 279
#     4   9  15  24  40  65 100 129 150 189 235 272
#     4   9  16  28  48  71  96 125 155 194 242 289
#     4   9  16  26  42  65  92 122 156 196 244 295
#     4   9  17  30  46  64  90 123 157 195 242 296
#     4   9  18  32  49  72  97 125 164 201 237 286
#     4   8  13  22  36  56  82 112 146 182 226 280
#
# _framework density 17.140920000000001
#
# number of rings (size 3 to 8) (size 9 to 14) (size 15 to 20)
#    0.000    2.927    0.000    1.829    0.000    3.512 
#    1.317    2.195    0.000    3.073    0.000    0.000 
#    0.000    0.000    0.000    0.000    0.000    0.000 
#
# Total GULP energy -1016239.210848 kJ/mol
# GULP energy per Si atom -12393.161108 kJ/mol
# Density = 1.710191 g / cm^3
# Si number density = 17.140920 Si / 1000 Ang^3
#
#
#
# Elastic Constant Matrix: (Units=GPa)
#
#
# Indices 1 2 3 4 5 6 
#
# 1 63.4235 23.3203 47.2330 0.0000 -0.0001 0.0000
# 2 23.3203 63.4238 47.2331 0.0000 -0.0001 0.0000
# 3 47.2330 47.2331 154.2561 0.0000 -0.0001 0.0001
# 4 0.0000 0.0000 0.0000 22.3463 0.0000 0.0000
# 5 -0.0001 -0.0001 -0.0001 0.0000 22.3462 0.0000
# 6 0.0000 0.0000 0.0001 0.0000 0.0000 20.0516
#
#
#
# Elastic Compliance Matrix: (Units=1/GPa)
#
#
# Indices 1 2 3 4 5 6 
#
# 1 0.021116 -0.003820 -0.005296 0.000000 0.000000 0.000000
# 2 -0.003820 0.021115 -0.005296 0.000000 0.000000 0.000000
# 3 -0.005296 -0.005296 0.009726 0.000000 0.000000 0.000000
# 4 0.000000 0.000000 0.000000 0.044750 0.000000 0.000000
# 5 0.000000 0.000000 0.000000 0.000000 0.044750 0.000000
# 6 0.000000 0.000000 0.000000 0.000000 0.000000 0.049871
#
#
# Mechanical properties :
#
#
# Convention : Reuss Voigt Hill
#
# Bulk Modulus (GPa) = 43.22746 57.40847 50.31796
# Shear Modulus (GPa) = 21.94295 23.83660 22.88978
#
# Velocity S-wave (km/s) = 3.58180 3.73315 3.65826
# Velocity P-wave (km/s) = 6.50994 7.22127 6.87481
#
# Compressibility (1/GPa) = 0.02313345
#
# Stress axis : x y z
#
# Youngs Moduli (GPa) = 47.35845 47.35863 102.81817
#
# Poissons Ratio (x) = 0.18091 0.54451
# Poissons Ratio (y) = 0.18091 0.54451
# Poissons Ratio (z) = 0.25080 0.25081
#
# Static dielectric constant tensor:
#      x y z
#    x 3.065340 0.000000 0.000000 
#    y 0.000000 3.065340 0.000000 
#    z 0.000000 0.000000 3.388940 
# 
# 
# High freq. dielectric constant tensor:
#      x y z
#    x 1.635900 0.000000 0.000000 
#    y 0.000000 1.635900 0.000000 
#    z 0.000000 0.000000 1.669680 
# 
# From -- ./inp_files/2173.got.cif
#   From: 2010.03.12/outbox.cif.g09.slc.cpg/sg189_2_cif.got.tgz:2173.got - 2010.04.01 12:03:36.
