data_PCOD8327176
_publ_section_title
;
Structure prediction by ZEFSAII (Michael W. Deem and Ramdas Pophale) SiO2 
 PCOD8327176
Probable space group: P -6 M 2
;
_chemical_formula_sum "Si O2"
_cell_formula_units_Z 66
_cell_length_a 12.488243
_cell_length_b 12.488243
_cell_length_c 28.042358
_cell_angle_alpha 90.000000
_cell_angle_beta 90.000000
_cell_angle_gamma 120.000000
_cell_volume 3787.458149
_symmetry_space_group_name_H-M "P -6 M 2"
_symmetry_group_IT_number 187
_symmetry_cell_setting 'hexagonal'
loop_
_space_group_symop_operation_xyz
x,y,z
-x+y,-x,-z
-y,x-y,z
x,y,-z
-x+y,-x,z
-y,x-y,-z
-y,-x,-z
-x+y,y,-z
x,x-y,-z
-x+y,y,z
x,x-y,z
-y,-x,z
loop_
_atom_site_type_symbol
_atom_site_label
_atom_site_fract_x
_atom_site_fract_y
_atom_site_fract_z
Si Si1 0.333727 0.915581 0.639862
Si Si2 0.999815 0.250759 0.909424
Si Si3 0.415805 0.331858 0.000000
Si Si4 0.418319 0.083413 0.728839
Si Si5 0.753900 0.754113 0.554059
Si Si6 0.583872 0.666393 0.819276
O O1 0.439820 0.879639 0.639670
O O2 0.206125 0.793876 0.652374
O O3 0.330700 0.970471 0.588317
O O4 0.358664 0.018658 0.678974
O O5 0.886839 0.113162 0.904932
O O6 0.121342 0.242684 0.918000
O O7 0.006627 0.323853 0.861730
O O8 0.985038 0.322703 0.953611
O O9 0.537305 0.462695 0.000000
O O10 0.453823 0.226912 0.000000
O O11 0.562551 0.125102 0.730834
O O12 0.404003 0.202002 0.735049
O O13 0.343418 0.987853 0.770534
O O14 0.710725 0.709234 0.500000
O O15 0.795334 0.897667 0.560004
O O16 0.869546 0.739091 0.568449
O O17 0.560340 0.780170 0.815020
O O18 0.454267 0.545734 0.829766
#
# Coordination Sequence:
#
# PCOD8327176 Si02
#       6
#    12  12   6  12  12  12
#     4  10  20  33  50  72  99 131 165 201 242 290
#     4  10  20  34  53  76 103 135 170 209 252 298
#     4  10  20  34  52  74 100 130 166 208 254 302
#     4  10  20  34  52  73  97 126 162 204 249 295
#     4   9  17  30  49  72  97 126 161 202 247 293
#     4  10  20  34  53  76 103 135 169 205 245 292
#
# _framework density 17.425934999999999
#
# number of rings (size 3 to 8) (size 9 to 14) (size 15 to 20)
#    0.000    2.182    0.000    3.455    0.000    1.091 
#    0.000    2.727    0.000   14.909    0.000    0.000 
#    0.000    0.000    0.000    0.000    0.000    0.000 
#
# Total GULP energy -818625.938777 kJ/mol
# GULP energy per Si atom -12403.423315 kJ/mol
# Density = 1.738627 g / cm^3
# Si number density = 17.425935 Si / 1000 Ang^3
#
#
#
# Elastic Constant Matrix: (Units=GPa)
#
#
# Indices 1 2 3 4 5 6 
#
# 1 87.6224 45.5770 44.4300 0.0000 0.0013 0.0000
# 2 45.5770 87.6224 44.4300 0.0000 -0.0013 0.0000
# 3 44.4300 44.4300 105.4644 0.0000 0.0000 0.0000
# 4 0.0000 0.0000 0.0000 17.7807 0.0000 -0.0013
# 5 0.0013 -0.0013 0.0000 0.0000 17.7807 0.0000
# 6 0.0000 0.0000 0.0000 -0.0013 0.0000 21.0227
#
#
#
# Elastic Compliance Matrix: (Units=1/GPa)
#
#
# Indices 1 2 3 4 5 6 
#
# 1 0.017113 -0.006671 -0.004399 0.000000 -0.000002 0.000000
# 2 -0.006671 0.017113 -0.004399 0.000000 0.000002 0.000000
# 3 -0.004399 -0.004399 0.013188 0.000000 0.000000 0.000000
# 4 0.000000 0.000000 0.000000 0.056241 0.000000 0.000004
# 5 -0.000002 0.000002 0.000000 0.000000 0.056241 0.000000
# 6 0.000000 0.000000 0.000000 0.000004 0.000000 0.047568
#
#
# Mechanical properties :
#
#
# Convention : Reuss Voigt Hill
#
# Bulk Modulus (GPa) = 60.69258 61.06480 60.87869
# Shear Modulus (GPa) = 20.50072 21.06830 20.78451
#
# Velocity S-wave (km/s) = 3.43366 3.48087 3.45735
# Velocity P-wave (km/s) = 7.11509 7.16057 7.13787
#
# Compressibility (1/GPa) = 0.01647648
#
# Stress axis : x y z
#
# Youngs Moduli (GPa) = 58.43499 58.43499 75.82430
#
# Poissons Ratio (x) = 0.38981 0.33356
# Poissons Ratio (y) = 0.38981 0.33356
# Poissons Ratio (z) = 0.25706 0.25706
#
# Static dielectric constant tensor:
#      x y z
#    x 3.189640 0.000000 0.000000 
#    y 0.000000 3.189640 0.000000 
#    z 0.000000 0.000000 3.422980 
# 
# 
# High freq. dielectric constant tensor:
#      x y z
#    x 1.675810 0.000000 0.000000 
#    y 0.000000 1.675810 0.000000 
#    z 0.000000 0.000000 1.689100 
# 
# From -- ./inp_files/4492.got.cif
#   From: 2010.03.12/outbox.cif.g09.slc.cpg/sg187_3_cif.got.tgz:4492.got - 2010.04.01 11:58:23.
