data_PCOD8327568
_publ_section_title
;
Structure prediction by ZEFSAII (Michael W. Deem and Ramdas Pophale) SiO2 
 PCOD8327568
Probable space group: P -6 2 M
;
_chemical_formula_sum "Si O2"
_cell_formula_units_Z 68
_cell_length_a 22.434260
_cell_length_b 22.434260
_cell_length_c 9.185096
_cell_angle_alpha 90.000000
_cell_angle_beta 90.000000
_cell_angle_gamma 120.000000
_cell_volume 4003.481528
_symmetry_space_group_name_H-M "P -6 2 M"
_symmetry_group_IT_number 189
_symmetry_cell_setting 'hexagonal'
loop_
_space_group_symop_operation_xyz
x,y,z
-x+y,-x,-z
-y,x-y,z
x,y,-z
-x+y,-x,z
-y,x-y,-z
x-y,-y,-z
-x,-x+y,-z
y,x,-z
y,x,z
x-y,-y,z
-x,-x+y,z
loop_
_atom_site_type_symbol
_atom_site_label
_atom_site_fract_x
_atom_site_fract_y
_atom_site_fract_z
Si Si1 0.080083 0.385895 0.661639
Si Si2 0.865256 0.865256 0.828166
Si Si3 0.467378 0.385357 0.664570
Si Si4 0.728332 0.079496 0.832136
Si Si5 0.000000 0.000000 0.825495
Si Si6 0.169539 0.885873 0.829068
Si Si7 0.499634 0.082203 0.164384
O O1 0.113535 0.400095 0.500000
O O2 0.090890 0.330169 0.744902
O O3 0.112451 0.456762 0.753119
O O4 0.000000 0.358451 0.645299
O O5 0.795375 0.863326 0.776855
O O6 0.932236 0.932236 0.763222
O O7 0.871065 0.871065 0.000000
O O8 0.484817 0.375129 0.500000
O O9 0.426308 0.426308 0.668838
O O10 0.420778 0.310718 0.737806
O O11 0.538118 0.427731 0.753492
O O12 0.807710 0.116495 0.788148
O O13 0.699049 0.000000 0.797252
O O14 0.717851 0.091476 0.000000
O O15 0.000000 0.000000 0.000000
O O16 0.186607 0.896485 0.000000
O O17 0.458046 0.000000 0.162960
O O18 0.514052 0.110887 0.000000
#
# Coordination Sequence:
#
# PCOD8327568 Si02
#       7
#    12   6  12  12   2  12  12
#     4  10  19  30  44  65  93 124 157 193 238 295
#     4   9  18  30  47  69  95 124 163 222 287 341
#     4   9  16  27  43  65  93 122 151 182 219 268
#     4   9  18  30  45  65  92 125 163 205 253 308
#     4   9  18  30  48  75  97 116 163 234 295 341
#     4  10  19  31  47  67  93 126 164 211 266 322
#     4   9  16  26  44  67  93 122 149 177 214 264
#
# _framework density 16.985215
#
# number of rings (size 3 to 8) (size 9 to 14) (size 15 to 20)
#    0.000    2.647    0.882    1.588    1.235    5.647 
#    0.000    0.000    0.000    0.000    0.000    1.853 
#    1.765    0.000    3.176    0.000    3.176    0.000 
#
# Total GULP energy -843052.593292 kJ/mol
# GULP energy per Si atom -12397.832254 kJ/mol
# Density = 1.694656 g / cm^3
# Si number density = 16.985215 Si / 1000 Ang^3
#
#
#
# Elastic Constant Matrix: (Units=GPa)
#
#
# Indices 1 2 3 4 5 6 
#
# 1 96.8179 51.0161 48.5155 0.0000 0.0000 0.0000
# 2 51.0161 96.8179 48.5155 0.0000 0.0000 0.0000
# 3 48.5155 48.5155 99.4235 0.0000 0.0000 0.0000
# 4 0.0000 0.0000 0.0000 14.4594 0.0000 0.0000
# 5 0.0000 0.0000 0.0000 0.0000 14.4594 0.0000
# 6 0.0000 0.0000 0.0000 0.0000 0.0000 22.9009
#
#
#
# Elastic Compliance Matrix: (Units=1/GPa)
#
#
# Indices 1 2 3 4 5 6 
#
# 1 0.015892 -0.005941 -0.004856 0.000000 0.000000 0.000000
# 2 -0.005941 0.015892 -0.004856 0.000000 0.000000 0.000000
# 3 -0.004856 -0.004856 0.014797 0.000000 0.000000 0.000000
# 4 0.000000 0.000000 0.000000 0.069159 0.000000 0.000000
# 5 0.000000 0.000000 0.000000 0.000000 0.069159 0.000000
# 6 0.000000 0.000000 0.000000 0.000000 0.000000 0.043666
#
#
# Mechanical properties :
#
#
# Convention : Reuss Voigt Hill
#
# Bulk Modulus (GPa) = 65.46150 65.46151 65.46150
# Shear Modulus (GPa) = 18.87043 20.03142 19.45092
#
# Velocity S-wave (km/s) = 3.33677 3.43788 3.38770
# Velocity P-wave (km/s) = 7.31227 7.37446 7.34343
#
# Compressibility (1/GPa) = 0.01527616
#
# Stress axis : x y z
#
# Youngs Moduli (GPa) = 62.92312 62.92312 67.58022
#
# Poissons Ratio (x) = 0.37381 0.32818
# Poissons Ratio (y) = 0.37381 0.32818
# Poissons Ratio (z) = 0.30556 0.30556
#
# Static dielectric constant tensor:
#      x y z
#    x 3.108370 0.000000 0.000000 
#    y 0.000000 3.108370 0.000000 
#    z 0.000000 0.000000 3.273090 
# 
# 
# High freq. dielectric constant tensor:
#      x y z
#    x 1.631170 0.000000 0.000000 
#    y 0.000000 1.631170 0.000000 
#    z 0.000000 0.000000 1.654030 
# 
# From -- ./inp_files/1072.got.cif
#   From: 2010.03.12/outbox.cif.g09.slc.cpg/sg189_1_cif.got.tgz:1072.got - 2010.04.01 12:03:36.
