data_PCOD8327125
_publ_section_title
;
Structure prediction by ZEFSAII (Michael W. Deem and Ramdas Pophale) SiO2 
 PCOD8327125
Probable space group: P -6 M 2
;
_chemical_formula_sum "Si O2"
_cell_formula_units_Z 72
_cell_length_a 12.443978
_cell_length_b 12.443978
_cell_length_c 31.088822
_cell_angle_alpha 90.000000
_cell_angle_beta 90.000000
_cell_angle_gamma 120.000000
_cell_volume 4169.206127
_symmetry_space_group_name_H-M "P -6 M 2"
_symmetry_group_IT_number 187
_symmetry_cell_setting 'hexagonal'
loop_
_space_group_symop_operation_xyz
x,y,z
-x+y,-x,-z
-y,x-y,z
x,y,-z
-x+y,-x,z
-y,x-y,-z
-y,-x,-z
-x+y,y,-z
x,x-y,-z
-x+y,y,z
x,x-y,z
-y,-x,z
loop_
_atom_site_type_symbol
_atom_site_label
_atom_site_fract_x
_atom_site_fract_y
_atom_site_fract_z
Si Si1 0.667128 0.584168 0.172544
Si Si2 0.251059 0.001676 0.254323
Si Si3 0.997686 0.242282 0.000000
Si Si4 0.748020 0.998788 0.500000
Si Si5 0.332999 0.414493 0.417885
Si Si6 0.666927 0.585403 0.663684
Si Si7 0.253501 0.002713 0.093284
O O1 0.773426 0.546851 0.172015
O O2 0.537768 0.462233 0.181259
O O3 0.691550 0.683018 0.209489
O O4 0.660177 0.644450 0.127471
O O5 0.209778 0.104889 0.256669
O O6 0.345254 0.019639 0.292243
O O7 0.131387 0.868613 0.258975
O O8 0.979315 0.295978 0.045395
O O9 0.135422 0.270843 0.000000
O O10 0.905470 0.094531 0.000000
O O11 0.871513 0.128488 0.500000
O O12 0.783690 0.891845 0.500000
O O13 0.670374 0.991389 0.458120
O O14 0.219637 0.439273 0.414727
O O15 0.455272 0.544729 0.424346
O O16 0.336833 0.345975 0.374891
O O17 0.787605 0.575210 0.655275
O O18 0.551957 0.448044 0.666552
O O19 0.129500 0.870501 0.097900
O O20 0.217533 0.108767 0.102196
#
# Coordination Sequence:
#
# PCOD8327125 Si02
#       7
#    12  12   6   6  12  12  12
#     4  10  20  33  49  68  93 126 162 198 234 278
#     4  10  20  34  53  76 100 124 153 194 244 294
#     4   8  13  22  39  66  96 122 148 182 230 284
#     4  10  20  34  52  74 100 130 166 208 254 300
#     4  10  20  34  53  76 103 135 170 208 249 294
#     4  10  20  34  53  76 103 135 169 204 240 283
#     4   9  16  27  46  71  97 122 150 189 237 286
#
# _framework density 17.269475
#
# number of rings (size 3 to 8) (size 9 to 14) (size 15 to 20)
#    0.000    2.333    0.000    3.250    0.000    1.333 
#    0.000    4.583    0.000   14.667    0.000    1.167 
#    0.000    0.000    0.000    0.000    0.000    0.000 
#
# Total GULP energy -892642.127991 kJ/mol
# GULP energy per Si atom -12397.807333 kJ/mol
# Density = 1.723017 g / cm^3
# Si number density = 17.269475 Si / 1000 Ang^3
#
#
#
# Elastic Constant Matrix: (Units=GPa)
#
#
# Indices 1 2 3 4 5 6 
#
# 1 69.4409 35.1578 38.0089 0.0000 -0.0002 0.0000
# 2 35.1578 69.4409 38.0089 0.0000 0.0002 0.0000
# 3 38.0089 38.0089 126.3128 0.0000 0.0000 0.0000
# 4 0.0000 0.0000 0.0000 23.9960 0.0000 0.0002
# 5 -0.0002 0.0002 0.0000 0.0000 23.9960 0.0000
# 6 0.0000 0.0000 0.0000 0.0002 0.0000 17.1415
#
#
#
# Elastic Compliance Matrix: (Units=1/GPa)
#
#
# Indices 1 2 3 4 5 6 
#
# 1 0.020703 -0.008466 -0.003682 0.000000 0.000000 0.000000
# 2 -0.008466 0.020703 -0.003682 0.000000 0.000000 0.000000
# 3 -0.003682 -0.003682 0.010133 0.000000 0.000000 0.000000
# 4 0.000000 0.000000 0.000000 0.041674 0.000000 0.000000
# 5 0.000000 0.000000 0.000000 0.000000 0.041674 0.000000
# 6 0.000000 0.000000 0.000000 0.000000 0.000000 0.058338
#
#
# Mechanical properties :
#
#
# Convention : Reuss Voigt Hill
#
# Bulk Modulus (GPa) = 50.30883 54.17177 52.24030
# Shear Modulus (GPa) = 21.59739 23.29465 22.44602
#
# Velocity S-wave (km/s) = 3.54023 3.67671 3.60912
# Velocity P-wave (km/s) = 6.77539 7.03284 6.90532
#
# Compressibility (1/GPa) = 0.01987722
#
# Stress axis : x y z
#
# Youngs Moduli (GPa) = 48.30313 48.30313 98.68951
#
# Poissons Ratio (x) = 0.40895 0.36338
# Poissons Ratio (y) = 0.40895 0.36338
# Poissons Ratio (z) = 0.17785 0.17785
#
# Static dielectric constant tensor:
#      x y z
#    x 3.056100 0.000000 0.000000 
#    y 0.000000 3.056100 0.000000 
#    z 0.000000 0.000000 3.644010 
# 
# 
# High freq. dielectric constant tensor:
#      x y z
#    x 1.655290 0.000000 0.000000 
#    y 0.000000 1.655290 0.000000 
#    z 0.000000 0.000000 1.692730 
# 
# From -- ./inp_files/4588.got.cif
#   From: 2010.03.12/outbox.cif.g09.slc.cpg/sg187_3_cif.got.tgz:4588.got - 2010.04.01 11:58:23.
