data_PCOD8327893
_publ_section_title
;
Structure prediction by ZEFSAII (Michael W. Deem and Ramdas Pophale) SiO2 
 PCOD8327893
Probable space group: P -6 2 M
;
_chemical_formula_sum "Si O2"
_cell_formula_units_Z 32
_cell_length_a 14.749775
_cell_length_b 14.749775
_cell_length_c 9.000963
_cell_angle_alpha 90.000000
_cell_angle_beta 90.000000
_cell_angle_gamma 120.000000
_cell_volume 1695.861571
_symmetry_space_group_name_H-M "P -6 2 M"
_symmetry_group_IT_number 189
_symmetry_cell_setting 'hexagonal'
loop_
_space_group_symop_operation_xyz
x,y,z
-x+y,-x,-z
-y,x-y,z
x,y,-z
-x+y,-x,z
-y,x-y,-z
x-y,-y,-z
-x,-x+y,-z
y,x,-z
y,x,z
x-y,-y,z
-x,-x+y,z
loop_
_atom_site_type_symbol
_atom_site_label
_atom_site_fract_x
_atom_site_fract_y
_atom_site_fract_z
Si Si1 0.000000 0.000000 0.175826
Si Si2 0.204054 0.204054 0.176436
Si Si3 0.120341 0.332366 0.674141
Si Si4 0.540587 0.232493 0.832493
O O1 0.898576 0.000000 0.236949
O O2 0.000000 0.000000 0.000000
O O3 0.197300 0.301867 0.240492
O O4 0.212288 0.212288 0.000000
O O5 0.131876 0.323221 0.500000
O O6 0.158711 0.452183 0.716262
O O7 0.000000 0.259526 0.725134
O O8 0.643938 0.221099 0.809060
O O9 0.497243 0.198376 0.000000
#
# Coordination Sequence:
#
# PCOD8327893 Si02
#       4
#     2   6  12  12
#     4   9  18  33  55  80 103 144 193 239 286 330
#     4  11  21  37  59  82 111 150 199 243 286 342
#     4  11  23  37  56  87 122 155 190 233 293 353
#     4   8  18  39  62  83 109 146 194 242 284 329
#
# _framework density 18.869464000000001
#
# number of rings (size 3 to 8) (size 9 to 14) (size 15 to 20)
#    0.750    1.500    1.875    1.688    0.000    3.750 
#    3.375    0.000    0.000    0.000    0.000    0.000 
#    0.000    0.000    0.000    0.000    0.000    0.000 
#
# Total GULP energy -396654.445188 kJ/mol
# GULP energy per Si atom -12395.451412 kJ/mol
# Density = 1.882652 g / cm^3
# Si number density = 18.869464 Si / 1000 Ang^3
#
#
#
# Elastic Constant Matrix: (Units=GPa)
#
#
# Indices 1 2 3 4 5 6 
#
# 1 71.1417 24.9125 40.3464 0.0000 0.0000 0.0000
# 2 24.9125 71.1417 40.3464 0.0000 0.0000 0.0000
# 3 40.3464 40.3464 89.1259 0.0000 0.0000 0.0000
# 4 0.0000 0.0000 0.0000 31.0870 0.0000 0.0000
# 5 0.0000 0.0000 0.0000 0.0000 31.0870 0.0000
# 6 0.0000 0.0000 0.0000 0.0000 0.0000 23.1146
#
#
#
# Elastic Compliance Matrix: (Units=1/GPa)
#
#
# Indices 1 2 3 4 5 6 
#
# 1 0.019215 -0.002416 -0.007605 0.000000 0.000000 0.000000
# 2 -0.002416 0.019215 -0.007605 0.000000 0.000000 0.000000
# 3 -0.007605 -0.007605 0.018105 0.000000 0.000000 0.000000
# 4 0.000000 0.000000 0.000000 0.032168 0.000000 0.000000
# 5 0.000000 0.000000 0.000000 0.000000 0.032168 0.000000
# 6 0.000000 0.000000 0.000000 0.000000 0.000000 0.043263
#
#
# Mechanical properties :
#
#
# Convention : Reuss Voigt Hill
#
# Bulk Modulus (GPa) = 46.98224 49.17999 48.08112
# Shear Modulus (GPa) = 24.21525 25.44464 24.82994
#
# Velocity S-wave (km/s) = 3.58621 3.67612 3.63144
# Velocity P-wave (km/s) = 6.48849 6.64367 6.56653
#
# Compressibility (1/GPa) = 0.02128464
#
# Stress axis : x y z
#
# Youngs Moduli (GPa) = 52.04143 52.04143 55.23184
#
# Poissons Ratio (x) = 0.12573 0.42004
# Poissons Ratio (y) = 0.12573 0.42004
# Poissons Ratio (z) = 0.39577 0.39577
#
# Static dielectric constant tensor:
#      x y z
#    x 3.280440 0.000000 0.000000 
#    y 0.000000 3.280440 0.000000 
#    z 0.000000 0.000000 3.224590 
# 
# 
# High freq. dielectric constant tensor:
#      x y z
#    x 1.721110 0.000000 0.000000 
#    y 0.000000 1.721110 0.000000 
#    z 0.000000 0.000000 1.729170 
# 
# From -- ./inp_files/396.got.cif
#   From: 2010.03.12/outbox.cif.g09.slc.cpg/sg189_1_cif.got.tgz:396.got - 2010.04.01 12:03:36.
