data_PCOD8327818
_publ_section_title
;
Structure prediction by ZEFSAII (Michael W. Deem and Ramdas Pophale) SiO2 
 PCOD8327818
Probable space group: P -6 2 M
;
_chemical_formula_sum "Si O2"
_cell_formula_units_Z 72
_cell_length_a 14.684579
_cell_length_b 14.684579
_cell_length_c 16.974883
_cell_angle_alpha 90.000000
_cell_angle_beta 90.000000
_cell_angle_gamma 120.000000
_cell_volume 3170.008460
_symmetry_space_group_name_H-M "P -6 2 M"
_symmetry_group_IT_number 189
_symmetry_cell_setting 'hexagonal'
loop_
_space_group_symop_operation_xyz
x,y,z
-x+y,-x,-z
-y,x-y,z
x,y,-z
-x+y,-x,z
-y,x-y,-z
x-y,-y,-z
-x,-x+y,-z
y,x,-z
y,x,z
x-y,-y,z
-x,-x+y,z
loop_
_atom_site_type_symbol
_atom_site_label
_atom_site_fract_x
_atom_site_fract_y
_atom_site_fract_z
Si Si1 0.233758 0.116421 0.624558
Si Si2 0.722078 0.187670 0.837186
Si Si3 0.397655 0.881058 0.910446
Si Si4 0.876308 0.478500 0.671880
Si Si5 0.234614 0.118081 0.808799
Si Si6 0.193428 0.463603 0.412831
O O1 0.199235 0.199235 0.594169
O O2 0.257798 0.130934 0.716688
O O3 0.337686 0.130953 0.583520
O O4 0.138676 0.000000 0.605871
O O5 0.798935 0.311707 0.850149
O O6 0.634358 0.137775 0.905119
O O7 0.660500 0.167170 0.754819
O O8 0.794652 0.135759 0.848999
O O9 0.433368 0.000000 0.883787
O O10 0.356026 0.861800 0.000000
O O11 0.814102 0.499734 0.603817
O O12 0.854187 0.360527 0.654743
O O13 0.000000 0.560848 0.667206
O O14 0.141371 0.141371 0.830245
O O15 0.199335 0.000000 0.837928
O O16 0.184441 0.503567 0.500000
#
# Coordination Sequence:
#
# PCOD8327818 Si02
#       6
#    12  12  12  12  12  12
#     4  10  21  39  63  93 128 167 214 269 334 403
#     4  12  23  42  69  98 133 175 226 277 329 397
#     4  11  25  44  68 102 142 181 219 266 329 399
#     4  12  26  45  68  97 131 172 226 287 343 396
#     4  10  20  37  63  98 135 171 214 268 331 394
#     4  12  26  44  65  91 129 177 229 282 343 413
#
# _framework density 22.712872000000001
#
# number of rings (size 3 to 8) (size 9 to 14) (size 15 to 20)
#    0.000    0.833    1.667    6.000    0.000    4.667 
#    0.000    0.000    0.000    1.000    0.000    0.000 
#    0.000    8.000    0.000    0.000    0.000    0.000 
#
# Total GULP energy -892714.959429 kJ/mol
# GULP energy per Si atom -12398.818881 kJ/mol
# Density = 2.266118 g / cm^3
# Si number density = 22.712872 Si / 1000 Ang^3
#
#
#
# Elastic Constant Matrix: (Units=GPa)
#
#
# Indices 1 2 3 4 5 6 
#
# 1 131.2688 44.6524 43.1268 0.0000 0.0000 0.0000
# 2 44.6524 131.2688 43.1268 0.0000 0.0000 0.0000
# 3 43.1268 43.1268 56.7437 0.0000 0.0000 0.0000
# 4 0.0000 0.0000 0.0000 15.3604 0.0000 0.0000
# 5 0.0000 0.0000 0.0000 0.0000 15.3604 0.0000
# 6 0.0000 0.0000 0.0000 0.0000 0.0000 43.3082
#
#
#
# Elastic Compliance Matrix: (Units=1/GPa)
#
#
# Indices 1 2 3 4 5 6 
#
# 1 0.010303 -0.001242 -0.006886 0.000000 0.000000 0.000000
# 2 -0.001242 0.010303 -0.006886 0.000000 0.000000 0.000000
# 3 -0.006886 -0.006886 0.028091 0.000000 0.000000 0.000000
# 4 0.000000 0.000000 0.000000 0.065102 0.000000 0.000000
# 5 0.000000 0.000000 0.000000 0.000000 0.065102 0.000000
# 6 0.000000 0.000000 0.000000 0.000000 0.000000 0.023090
#
#
# Mechanical properties :
#
#
# Convention : Reuss Voigt Hill
#
# Bulk Modulus (GPa) = 53.57144 64.56593 59.06868
# Shear Modulus (GPa) = 20.98688 27.36416 24.17552
#
# Velocity S-wave (km/s) = 3.04305 3.47477 3.26605
# Velocity P-wave (km/s) = 5.99870 6.67738 6.34712
#
# Compressibility (1/GPa) = 0.01866666
#
# Stress axis : x y z
#
# Youngs Moduli (GPa) = 97.05952 97.05952 35.59877
#
# Poissons Ratio (x) = 0.12057 0.24515
# Poissons Ratio (y) = 0.12057 0.24515
# Poissons Ratio (z) = 0.66839 0.66839
#
# Static dielectric constant tensor:
#      x y z
#    x 4.218500 0.000000 0.000000 
#    y 0.000000 4.218500 0.000000 
#    z 0.000000 0.000000 3.835780 
# 
# 
# High freq. dielectric constant tensor:
#      x y z
#    x 1.907220 0.000000 0.000000 
#    y 0.000000 1.907220 0.000000 
#    z 0.000000 0.000000 1.872540 
# 
# From -- ./inp_files/3122.got.cif
#   From: 2010.03.12/outbox.cif.g09.slc.cpg/sg189_2_cif.got.tgz:3122.got - 2010.04.01 12:03:36.
