data_PCOD8327508
_publ_section_title
;
Structure prediction by ZEFSAII (Michael W. Deem and Ramdas Pophale) SiO2 
 PCOD8327508
Probable space group: P -6 2 M
;
_chemical_formula_sum "Si O2"
_cell_formula_units_Z 48
_cell_length_a 18.987905
_cell_length_b 18.987905
_cell_length_c 9.228859
_cell_angle_alpha 90.000000
_cell_angle_beta 90.000000
_cell_angle_gamma 120.000000
_cell_volume 2881.593680
_symmetry_space_group_name_H-M "P -6 2 M"
_symmetry_group_IT_number 189
_symmetry_cell_setting 'hexagonal'
loop_
_space_group_symop_operation_xyz
x,y,z
-x+y,-x,-z
-y,x-y,z
x,y,-z
-x+y,-x,z
-y,x-y,-z
x-y,-y,-z
-x,-x+y,-z
y,x,-z
y,x,z
x-y,-y,z
-x,-x+y,z
loop_
_atom_site_type_symbol
_atom_site_label
_atom_site_fract_x
_atom_site_fract_y
_atom_site_fract_z
Si Si1 0.909681 0.754117 0.333866
Si Si2 0.836217 0.836217 0.837935
Si Si3 0.160055 0.408330 0.329738
Si Si4 0.288357 0.725184 0.837517
Si Si5 0.330984 0.000000 0.836221
O O1 0.895491 0.768274 0.500000
O O2 0.903166 0.822575 0.242467
O O3 0.842448 0.663039 0.287208
O O4 0.000000 0.767288 0.309092
O O5 0.752485 0.752485 0.836656
O O6 0.866776 0.866776 0.000000
O O7 0.146345 0.410566 0.500000
O O8 0.236937 0.492445 0.280445
O O9 0.080142 0.397394 0.247919
O O10 0.241433 0.626822 0.817030
O O11 0.272531 0.746605 0.000000
O O12 0.361195 0.000000 0.000000
#
# Coordination Sequence:
#
# PCOD8327508 Si02
#       5
#    12   6  12  12   6
#     4   9  18  32  48  67  95 132 166 196 243 302
#     4   9  17  29  45  67  91 117 158 205 240 275
#     4  10  18  29  50  76  99 124 164 211 248 288
#     4   8  17  33  52  71  94 127 165 198 238 299
#     4   9  17  29  47  69  95 127 156 191 242 293
#
# _framework density 16.657450000000001
#
# number of rings (size 3 to 8) (size 9 to 14) (size 15 to 20)
#    0.500    2.500    0.000    1.500    0.000    5.500 
#    0.750    0.000    2.750    0.000    0.000    0.000 
#    0.000    0.000    0.000    0.000    0.000    0.000 
#
# Total GULP energy -594905.687290 kJ/mol
# GULP energy per Si atom -12393.868485 kJ/mol
# Density = 1.661954 g / cm^3
# Si number density = 16.657450 Si / 1000 Ang^3
#
#
#
# Elastic Constant Matrix: (Units=GPa)
#
#
# Indices 1 2 3 4 5 6 
#
# 1 75.8132 38.4781 43.0984 0.0000 0.0000 0.0000
# 2 38.4781 75.8132 43.0984 0.0000 0.0000 0.0000
# 3 43.0984 43.0984 98.1787 0.0000 0.0000 0.0000
# 4 0.0000 0.0000 0.0000 28.1068 0.0000 0.0000
# 5 0.0000 0.0000 0.0000 0.0000 28.1068 0.0000
# 6 0.0000 0.0000 0.0000 0.0000 0.0000 18.6675
#
#
#
# Elastic Compliance Matrix: (Units=1/GPa)
#
#
# Indices 1 2 3 4 5 6 
#
# 1 0.019932 -0.006852 -0.005742 0.000000 0.000000 0.000000
# 2 -0.006852 0.019932 -0.005742 0.000000 0.000000 0.000000
# 3 -0.005742 -0.005742 0.015227 0.000000 0.000000 0.000000
# 4 0.000000 0.000000 0.000000 0.035579 0.000000 0.000000
# 5 0.000000 0.000000 0.000000 0.000000 0.035579 0.000000
# 6 0.000000 0.000000 0.000000 0.000000 0.000000 0.053569
#
#
# Mechanical properties :
#
#
# Convention : Reuss Voigt Hill
#
# Bulk Modulus (GPa) = 54.29116 55.46168 54.87642
# Shear Modulus (GPa) = 22.45890 23.31821 22.88855
#
# Velocity S-wave (km/s) = 3.67588 3.74554 3.71087
# Velocity P-wave (km/s) = 7.11896 7.21617 7.16773
#
# Compressibility (1/GPa) = 0.01841920
#
# Stress axis : x y z
#
# Youngs Moduli (GPa) = 50.16999 50.16999 65.67445
#
# Poissons Ratio (x) = 0.34378 0.37709
# Poissons Ratio (y) = 0.34378 0.37709
# Poissons Ratio (z) = 0.28807 0.28807
#
# Static dielectric constant tensor:
#      x y z
#    x 2.923370 0.000000 0.000000 
#    y 0.000000 2.923370 0.000000 
#    z 0.000000 0.000000 3.201340 
# 
# 
# High freq. dielectric constant tensor:
#      x y z
#    x 1.618720 0.000000 0.000000 
#    y 0.000000 1.618720 0.000000 
#    z 0.000000 0.000000 1.651750 
# 
# From -- ./inp_files/796.got.cif
#   From: 2010.03.12/outbox.cif.g09.slc.cpg/sg189_1_cif.got.tgz:796.got - 2010.04.01 12:03:36.
