data_PCOD8327914
_publ_section_title
;
Structure prediction by ZEFSAII (Michael W. Deem and Ramdas Pophale) SiO2 
 PCOD8327914
Probable space group: P -6 2 M
;
_chemical_formula_sum "Si O2"
_cell_formula_units_Z 72
_cell_length_a 24.141182
_cell_length_b 24.141182
_cell_length_c 9.404783
_cell_angle_alpha 90.000000
_cell_angle_beta 90.000000
_cell_angle_gamma 120.000000
_cell_volume 4746.751228
_symmetry_space_group_name_H-M "P -6 2 M"
_symmetry_group_IT_number 189
_symmetry_cell_setting 'hexagonal'
loop_
_space_group_symop_operation_xyz
x,y,z
-x+y,-x,-z
-y,x-y,z
x,y,-z
-x+y,-x,z
-y,x-y,-z
x-y,-y,-z
-x,-x+y,-z
y,x,-z
y,x,z
x-y,-y,z
-x,-x+y,z
loop_
_atom_site_type_symbol
_atom_site_label
_atom_site_fract_x
_atom_site_fract_y
_atom_site_fract_z
Si Si1 0.700231 0.075749 0.160158
Si Si2 0.296333 0.924081 0.158850
Si Si3 0.733083 0.804617 0.335491
Si Si4 0.194530 0.266697 0.335818
Si Si5 0.402964 0.479372 0.660740
Si Si6 0.581688 0.505599 0.839773
O O1 0.766277 0.095424 0.239494
O O2 0.662215 0.103484 0.248537
O O3 0.657458 0.000000 0.153918
O O4 0.714270 0.104092 0.000000
O O5 0.235140 0.899107 0.260377
O O6 0.345084 0.899837 0.208976
O O7 0.334374 0.000000 0.161499
O O8 0.271789 0.898974 0.000000
O O9 0.719550 0.788292 0.500000
O O10 0.784445 0.784445 0.279944
O O11 0.760972 0.880067 0.306459
O O12 0.211889 0.287492 0.500000
O O13 0.211566 0.211566 0.296768
O O14 0.386144 0.488839 0.500000
O O15 0.440592 0.440592 0.660477
O O16 0.445871 0.549113 0.732275
O O17 0.541960 0.541960 0.838241
O O18 0.580994 0.480889 0.000000
#
# Coordination Sequence:
#
# PCOD8327914 Si02
#       6
#    12  12  12  12  12  12
#     4   9  16  25  37  53  73  97 126 159 192 229
#     4   8  14  24  37  53  74 100 128 157 190 229
#     4   9  17  28  42  59  77  98 127 165 210 261
#     4   9  17  29  43  57  75 100 129 164 209 261
#     4   9  15  21  31  49  73 101 130 155 178 206
#     4   8  13  21  32  47  70 100 130 155 177 203
#
# _framework density 15.168269
#
# number of rings (size 3 to 8) (size 9 to 14) (size 15 to 20)
#    0.000    3.333    0.000    2.000    0.000    5.333 
#    0.000    3.333    0.000    0.333    0.000    2.333 
#    0.000    0.000    0.000    9.333    0.000   25.333 
#
# Total GULP energy -892178.030139 kJ/mol
# GULP energy per Si atom -12391.361530 kJ/mol
# Density = 1.513375 g / cm^3
# Si number density = 15.168269 Si / 1000 Ang^3
#
#
#
# Elastic Constant Matrix: (Units=GPa)
#
#
# Indices 1 2 3 4 5 6 
#
# 1 70.1296 40.1556 40.7505 0.0000 0.0000 0.0000
# 2 40.1556 70.1296 40.7505 0.0000 0.0000 0.0000
# 3 40.7505 40.7505 87.6145 0.0000 0.0000 0.0000
# 4 0.0000 0.0000 0.0000 16.2846 0.0000 0.0000
# 5 0.0000 0.0000 0.0000 0.0000 16.2846 0.0000
# 6 0.0000 0.0000 0.0000 0.0000 0.0000 14.9870
#
#
#
# Elastic Compliance Matrix: (Units=1/GPa)
#
#
# Indices 1 2 3 4 5 6 
#
# 1 0.023589 -0.009773 -0.006426 0.000000 0.000000 0.000000
# 2 -0.009773 0.023589 -0.006426 0.000000 0.000000 0.000000
# 3 -0.006426 -0.006426 0.017391 0.000000 0.000000 0.000000
# 4 0.000000 0.000000 0.000000 0.061408 0.000000 0.000000
# 5 0.000000 0.000000 0.000000 0.000000 0.061408 0.000000
# 6 0.000000 0.000000 0.000000 0.000000 0.000000 0.066725
#
#
# Mechanical properties :
#
#
# Convention : Reuss Voigt Hill
#
# Bulk Modulus (GPa) = 51.76119 52.35410 52.05765
# Shear Modulus (GPa) = 16.35052 16.59235 16.47144
#
# Velocity S-wave (km/s) = 3.28677 3.31098 3.29890
# Velocity P-wave (km/s) = 6.97155 7.01479 6.99320
#
# Compressibility (1/GPa) = 0.01931950
#
# Stress axis : x y z
#
# Youngs Moduli (GPa) = 42.39208 42.39208 57.49980
#
# Poissons Ratio (x) = 0.41430 0.36950
# Poissons Ratio (y) = 0.41430 0.36950
# Poissons Ratio (z) = 0.27242 0.27242
#
# Static dielectric constant tensor:
#      x y z
#    x 2.765470 0.000000 0.000000 
#    y 0.000000 2.765470 0.000000 
#    z 0.000000 0.000000 3.132880 
# 
# 
# High freq. dielectric constant tensor:
#      x y z
#    x 1.542620 0.000000 0.000000 
#    y 0.000000 1.542620 0.000000 
#    z 0.000000 0.000000 1.590130 
# 
# From -- ./inp_files/1256.got.cif
#   From: 2010.03.12/outbox.cif.g09.slc.cpg/sg189_1_cif.got.tgz:1256.got - 2010.04.01 12:03:36.
