data_PCOD8327946
_publ_section_title
;
Structure prediction by ZEFSAII (Michael W. Deem and Ramdas Pophale) SiO2 
 PCOD8327946
Probable space group: P -6 2 C
;
_chemical_formula_sum "Si O2"
_cell_formula_units_Z 78
_cell_length_a 24.400162
_cell_length_b 24.400162
_cell_length_c 8.220965
_cell_angle_alpha 90.000000
_cell_angle_beta 90.000000
_cell_angle_gamma 120.000000
_cell_volume 4238.760225
_symmetry_space_group_name_H-M "P -6 2 C"
_symmetry_group_IT_number 190
_symmetry_cell_setting 'hexagonal'
loop_
_space_group_symop_operation_xyz
x,y,z
-x+y,-x,1/2-z
-y,x-y,z
x,y,1/2-z
-x+y,-x,z
-y,x-y,1/2-z
x-y,-y,-z
-x,-x+y,-z
y,x,-z
y,x,1/2+z
x-y,-y,1/2+z
-x,-x+y,1/2+z
loop_
_atom_site_type_symbol
_atom_site_label
_atom_site_fract_x
_atom_site_fract_y
_atom_site_fract_z
Si Si1 0.066808 0.709891 0.062224
Si Si2 0.382913 0.069005 0.056595
Si Si3 0.811189 0.624951 0.067987
Si Si4 0.068097 0.588904 0.442219
Si Si5 0.260511 0.522839 0.568764
Si Si6 0.479259 0.620432 0.441293
Si Si7 0.726244 0.409821 0.750000
O O1 0.059423 0.697156 0.250000
O O2 0.081441 0.656677 0.984723
O O3 0.122447 0.781485 0.027815
O O4 0.000000 0.700232 0.000000
O O5 0.390731 0.074336 0.250000
O O6 0.361630 0.119158 0.993869
O O7 0.449366 0.085276 0.977388
O O8 0.329198 0.000000 0.000000
O O9 0.826836 0.651206 0.250000
O O10 0.786085 0.550816 0.060595
O O11 0.070048 0.590563 0.250000
O O12 0.119649 0.570267 0.502532
O O13 0.000000 0.533983 0.500000
O O14 0.289804 0.549172 0.750000
O O15 0.203273 0.536608 0.543348
O O16 0.310013 0.552619 0.417692
O O17 0.473758 0.629437 0.250000
O O18 0.735788 0.348968 0.750000
#
# Coordination Sequence:
#
# PCOD8327946 Si02
#       7
#    12  12  12  12  12  12   6
#     4  10  20  34  52  74 101 133 171 215 262 317
#     4  10  20  33  50  76 107 137 175 216 261 317
#     4   9  20  36  54  77 103 135 172 216 259 316
#     4   9  19  31  44  68  96 124 160 205 254 307
#     4  10  21  38  56  76 100 129 174 216 268 328
#     4  10  18  31  51  73 102 133 167 212 265 319
#     4  10  24  40  54  72  96 130 168 228 264 324
#
# _framework density 18.401606000000001
#
# number of rings (size 3 to 8) (size 9 to 14) (size 15 to 20)
#    0.154    2.154    0.769    2.769    1.077    6.154 
#    0.000    1.538    0.000    0.000    0.000    0.000 
#    0.000    0.000    0.000    0.462    0.000    7.385 
#
# Total GULP energy -966684.444744 kJ/mol
# GULP energy per Si atom -12393.390317 kJ/mol
# Density = 1.835972 g / cm^3
# Si number density = 18.401606 Si / 1000 Ang^3
#
#
#
# Elastic Constant Matrix: (Units=GPa)
#
#
# Indices 1 2 3 4 5 6 
#
# 1 66.8647 28.0596 16.7125 0.0000 0.0000 0.0000
# 2 28.0596 66.8647 16.7125 0.0000 0.0000 0.0000
# 3 16.7125 16.7125 73.6713 0.0000 0.0000 0.0000
# 4 0.0000 0.0000 0.0000 19.9138 0.0000 0.0000
# 5 0.0000 0.0000 0.0000 0.0000 19.9138 0.0000
# 6 0.0000 0.0000 0.0000 0.0000 0.0000 19.4026
#
#
#
# Elastic Compliance Matrix: (Units=1/GPa)
#
#
# Indices 1 2 3 4 5 6 
#
# 1 0.018610 -0.007160 -0.002597 0.000000 0.000000 0.000000
# 2 -0.007160 0.018610 -0.002597 0.000000 0.000000 0.000000
# 3 -0.002597 -0.002597 0.014752 0.000000 0.000000 0.000000
# 4 0.000000 0.000000 0.000000 0.050216 0.000000 0.000000
# 5 0.000000 0.000000 0.000000 0.000000 0.050216 0.000000
# 6 0.000000 0.000000 0.000000 0.000000 0.000000 0.051540
#
#
# Mechanical properties :
#
#
# Convention : Reuss Voigt Hill
#
# Bulk Modulus (GPa) = 36.68166 36.70778 36.69472
# Shear Modulus (GPa) = 21.03132 21.57377 21.30255
#
# Velocity S-wave (km/s) = 3.38436 3.42773 3.40611
# Velocity P-wave (km/s) = 5.93709 5.97136 5.95425
#
# Compressibility (1/GPa) = 0.02726158
#
# Stress axis : x y z
#
# Youngs Moduli (GPa) = 53.73591 53.73591 67.78644
#
# Poissons Ratio (x) = 0.38476 0.17606
# Poissons Ratio (y) = 0.38476 0.17606
# Poissons Ratio (z) = 0.13957 0.13957
#
# Static dielectric constant tensor:
#      x y z
#    x 3.307620 0.000000 0.000000 
#    y 0.000000 3.307620 0.000000 
#    z 0.000000 0.000000 3.439720 
# 
# 
# High freq. dielectric constant tensor:
#      x y z
#    x 1.685780 0.000000 0.000000 
#    y 0.000000 1.685780 0.000000 
#    z 0.000000 0.000000 1.719040 
# 
# From -- ./inp_files/1331.got.cif
#   From: 2010.06.25/outbox.cif.g09.slc.cpg/sg190_1_cif.got.tgz:1331.got - 2010.06.28 13:08:06.
