data_PCOD8327801
_publ_section_title
;
Structure prediction by ZEFSAII (Michael W. Deem and Ramdas Pophale) SiO2 
 PCOD8327801
Probable space group: P -6 2 M
;
_chemical_formula_sum "Si O2"
_cell_formula_units_Z 84
_cell_length_a 15.085219
_cell_length_b 15.085219
_cell_length_c 22.470037
_cell_angle_alpha 90.000000
_cell_angle_beta 90.000000
_cell_angle_gamma 120.000000
_cell_volume 4428.306354
_symmetry_space_group_name_H-M "P -6 2 M"
_symmetry_group_IT_number 189
_symmetry_cell_setting 'hexagonal'
loop_
_space_group_symop_operation_xyz
x,y,z
-x+y,-x,-z
-y,x-y,z
x,y,-z
-x+y,-x,z
-y,x-y,-z
x-y,-y,-z
-x,-x+y,-z
y,x,-z
y,x,z
x-y,-y,z
-x,-x+y,z
loop_
_atom_site_type_symbol
_atom_site_label
_atom_site_fract_x
_atom_site_fract_y
_atom_site_fract_z
Si Si1 0.881890 0.602659 0.747030
Si Si2 0.115233 0.883569 0.430434
Si Si3 0.881387 0.432288 0.431085
Si Si4 0.626761 0.879936 0.067212
Si Si5 0.767293 0.215314 0.378399
Si Si6 0.776876 0.449415 0.149781
Si Si7 0.119854 0.237093 0.168406
O O1 0.809033 0.552083 0.690749
O O2 0.846528 0.513842 0.795373
O O3 0.869881 0.695329 0.773352
O O4 0.000000 0.643216 0.729846
O O5 0.122820 0.867951 0.500000
O O6 0.189087 0.853773 0.396781
O O7 0.000000 0.813739 0.406891
O O8 0.149479 0.000000 0.415432
O O9 0.859400 0.399443 0.500000
O O10 0.811787 0.335426 0.389439
O O11 0.851707 0.518574 0.417940
O O12 0.000000 0.476615 0.415879
O O13 0.509196 0.826569 0.088547
O O14 0.691614 0.847053 0.109671
O O15 0.670682 0.000000 0.072454
O O16 0.632116 0.846234 0.000000
O O17 0.660829 0.431492 0.151927
O O18 0.147551 0.147551 0.161274
O O19 0.000000 0.188720 0.176799
#
# Coordination Sequence:
#
# PCOD8327801 Si02
#       7
#    12  12  12  12  12  12  12
#     4  10  22  40  59  82 116 152 191 236 294 354
#     4  10  20  36  59  86 116 149 187 234 292 358
#     4  11  24  40  59  86 116 149 192 242 300 362
#     4   9  18  35  57  83 120 160 193 235 294 349
#     4  12  24  39  62  84 114 154 196 243 298 359
#     4   9  20  35  59  83 109 147 191 239 283 330
#     4   9  18  34  56  83 116 157 201 246 292 347
#
# _framework density 18.968876999999999
#
# number of rings (size 3 to 8) (size 9 to 14) (size 15 to 20)
#    0.286    1.714    0.000    4.857    2.000    4.857 
#    0.000    5.714    0.000    2.571    0.000    0.000 
#    0.000    0.000    0.000    0.000    0.000    0.000 
#
# Total GULP energy -1041731.368956 kJ/mol
# GULP energy per Si atom -12401.563916 kJ/mol
# Density = 1.892570 g / cm^3
# Si number density = 18.968877 Si / 1000 Ang^3
#
#
#
# Elastic Constant Matrix: (Units=GPa)
#
#
# Indices 1 2 3 4 5 6 
#
# 1 77.6965 16.5147 37.9565 0.0000 0.0000 0.0000
# 2 16.5147 77.6965 37.9565 0.0000 0.0000 0.0000
# 3 37.9565 37.9565 88.5917 0.0000 0.0000 0.0000
# 4 0.0000 0.0000 0.0000 23.2377 0.0000 0.0000
# 5 0.0000 0.0000 0.0000 0.0000 23.2377 0.0000
# 6 0.0000 0.0000 0.0000 0.0000 0.0000 30.5909
#
#
#
# Elastic Compliance Matrix: (Units=1/GPa)
#
#
# Indices 1 2 3 4 5 6 
#
# 1 0.016278 -0.000067 -0.006945 0.000000 0.000000 0.000000
# 2 -0.000067 0.016278 -0.006945 0.000000 0.000000 0.000000
# 3 -0.006945 -0.006945 0.017239 0.000000 0.000000 0.000000
# 4 0.000000 0.000000 0.000000 0.043034 0.000000 0.000000
# 5 0.000000 0.000000 0.000000 0.000000 0.043034 0.000000
# 6 0.000000 0.000000 0.000000 0.000000 0.000000 0.032689
#
#
# Mechanical properties :
#
#
# Convention : Reuss Voigt Hill
#
# Bulk Modulus (GPa) = 45.70547 47.64890 46.67719
# Shear Modulus (GPa) = 24.53867 25.51707 25.02787
#
# Velocity S-wave (km/s) = 3.60061 3.67169 3.63632
# Velocity P-wave (km/s) = 6.43686 6.56880 6.50316
#
# Compressibility (1/GPa) = 0.02187922
#
# Stress axis : x y z
#
# Youngs Moduli (GPa) = 61.43329 61.43329 58.00736
#
# Poissons Ratio (x) = 0.00411 0.40289
# Poissons Ratio (y) = 0.00411 0.40289
# Poissons Ratio (z) = 0.42668 0.42668
#
# Static dielectric constant tensor:
#      x y z
#    x 3.420320 0.000000 0.000000 
#    y 0.000000 3.420320 0.000000 
#    z 0.000000 0.000000 3.558360 
# 
# 
# High freq. dielectric constant tensor:
#      x y z
#    x 1.737140 0.000000 0.000000 
#    y 0.000000 1.737140 0.000000 
#    z 0.000000 0.000000 1.733490 
# 
# From -- ./inp_files/3588.got.cif
#   From: 2010.03.12/outbox.cif.g09.slc.cpg/sg189_2_cif.got.tgz:3588.got - 2010.04.01 12:03:36.
