data_PCOD8327314
_publ_section_title
;
Structure prediction by ZEFSAII (Michael W. Deem and Ramdas Pophale) SiO2 
 PCOD8327314
Probable space group: P -6 C 2
;
_chemical_formula_sum "Si O2"
_cell_formula_units_Z 72
_cell_length_a 24.033900
_cell_length_b 24.033900
_cell_length_c 8.500567
_cell_angle_alpha 90.000000
_cell_angle_beta 90.000000
_cell_angle_gamma 120.000000
_cell_volume 4252.330644
_symmetry_space_group_name_H-M "P -6 C 2"
_symmetry_group_IT_number 188
_symmetry_cell_setting 'hexagonal'
loop_
_space_group_symop_operation_xyz
x,y,z
-x+y,-x,1/2-z
-y,x-y,z
x,y,1/2-z
-x+y,-x,z
-y,x-y,1/2-z
-y,-x,-z
-x+y,y,-z
x,x-y,-z
-x+y,y,1/2+z
x,x-y,1/2+z
-y,-x,1/2+z
loop_
_atom_site_type_symbol
_atom_site_label
_atom_site_fract_x
_atom_site_fract_y
_atom_site_fract_z
Si Si1 0.070278 0.475475 0.936186
Si Si2 0.957288 0.804845 0.564157
Si Si3 0.189908 0.264187 0.064738
Si Si4 0.774959 0.663144 0.566272
Si Si5 0.216658 0.549402 0.565647
Si Si6 0.005339 0.336313 0.433695
O O1 0.061070 0.467891 0.750000
O O2 0.143818 0.500880 0.987019
O O3 0.047725 0.523863 0.000000
O O4 0.026672 0.408402 0.020768
O O5 0.948271 0.793438 0.750000
O O6 0.921680 0.843359 0.500000
O O7 0.923904 0.738560 0.468414
O O8 0.032022 0.838198 0.517500
O O9 0.182806 0.255463 0.250000
O O10 0.146653 0.293305 0.000000
O O11 0.263919 0.313079 0.023252
O O12 0.763850 0.649619 0.750000
O O13 0.815088 0.630176 0.500000
O O14 0.706124 0.636273 0.481815
O O15 0.222856 0.554507 0.750000
O O16 0.261195 0.522389 0.500000
O O17 0.240704 0.620352 0.500000
O O18 0.013165 0.329212 0.250000
#
# Coordination Sequence:
#
# PCOD8327314 Si02
#       6
#    12  12  12  12  12  12
#     4  10  21  37  53  71  94 126 164 204 246 298
#     4  10  17  28  45  66  89 117 150 185 225 274
#     4  11  21  34  49  69  95 124 158 201 248 297
#     4  10  17  28  46  70  97 123 151 185 222 266
#     4  10  20  33  50  68  89 114 150 198 253 307
#     4  11  21  34  51  72  97 128 161 197 240 290
#
# _framework density 16.931891
#
# number of rings (size 3 to 8) (size 9 to 14) (size 15 to 20)
#    0.000    1.667    0.000   10.167    0.000    2.667 
#    0.000    1.667    0.000    0.333    0.000    2.333 
#    0.000    0.000    0.000    0.500    0.000    7.000 
#
# Total GULP energy -892678.178498 kJ/mol
# GULP energy per Si atom -12398.308035 kJ/mol
# Density = 1.689335 g / cm^3
# Si number density = 16.931891 Si / 1000 Ang^3
#
#
#
# Elastic Constant Matrix: (Units=GPa)
#
#
# Indices 1 2 3 4 5 6 
#
# 1 82.8956 50.0008 28.1358 0.0001 0.0000 0.0000
# 2 50.0008 82.8956 28.1358 -0.0001 0.0000 0.0000
# 3 28.1358 28.1358 98.0808 0.0000 0.0000 0.0000
# 4 0.0001 -0.0001 0.0000 26.0578 0.0000 0.0000
# 5 0.0000 0.0000 0.0000 0.0000 26.0578 0.0001
# 6 0.0000 0.0000 0.0000 0.0000 0.0001 16.4474
#
#
#
# Elastic Compliance Matrix: (Units=1/GPa)
#
#
# Indices 1 2 3 4 5 6 
#
# 1 0.019482 -0.010917 -0.002457 0.000000 0.000000 0.000000
# 2 -0.010917 0.019482 -0.002457 0.000000 0.000000 0.000000
# 3 -0.002457 -0.002457 0.011605 0.000000 0.000000 0.000000
# 4 0.000000 0.000000 0.000000 0.038376 0.000000 0.000000
# 5 0.000000 0.000000 0.000000 0.000000 0.038376 0.000000
# 6 0.000000 0.000000 0.000000 0.000000 0.000000 0.060800
#
#
# Mechanical properties :
#
#
# Convention : Reuss Voigt Hill
#
# Bulk Modulus (GPa) = 52.88942 52.93522 52.91232
# Shear Modulus (GPa) = 22.11530 24.21925 23.16728
#
# Velocity S-wave (km/s) = 3.61797 3.78616 3.70302
# Velocity P-wave (km/s) = 6.98264 7.10245 7.04280
#
# Compressibility (1/GPa) = 0.01890737
#
# Stress axis : x y z
#
# Youngs Moduli (GPa) = 51.32822 51.32822 86.16739
#
# Poissons Ratio (x) = 0.56037 0.21171
# Poissons Ratio (y) = 0.56037 0.21171
# Poissons Ratio (z) = 0.12611 0.12611
#
# Static dielectric constant tensor:
#      x y z
#    x 3.238420 0.000000 0.000000 
#    y 0.000000 3.238420 0.000000 
#    z 0.000000 0.000000 3.268490 
# 
# 
# High freq. dielectric constant tensor:
#      x y z
#    x 1.625540 0.000000 0.000000 
#    y 0.000000 1.625540 0.000000 
#    z 0.000000 0.000000 1.678030 
# 
# From -- ./inp_files/1025.got.cif
#   From: 2010.03.12/outbox.cif.g09.slc.cpg/sg188_1_cif.got.tgz:1025.got - 2010.04.01 12:01:06.
