data_PCOD8327900
_publ_section_title
;
Structure prediction by ZEFSAII (Michael W. Deem and Ramdas Pophale) SiO2 
 PCOD8327900
Probable space group: P -6 2 M
;
_chemical_formula_sum "Si O2"
_cell_formula_units_Z 60
_cell_length_a 15.131121
_cell_length_b 15.131121
_cell_length_c 13.600188
_cell_angle_alpha 90.000000
_cell_angle_beta 90.000000
_cell_angle_gamma 120.000000
_cell_volume 2696.607586
_symmetry_space_group_name_H-M "P -6 2 M"
_symmetry_group_IT_number 189
_symmetry_cell_setting 'hexagonal'
loop_
_space_group_symop_operation_xyz
x,y,z
-x+y,-x,-z
-y,x-y,z
x,y,-z
-x+y,-x,z
-y,x-y,-z
x-y,-y,-z
-x,-x+y,-z
y,x,-z
y,x,z
x-y,-y,z
-x,-x+y,z
loop_
_atom_site_type_symbol
_atom_site_label
_atom_site_fract_x
_atom_site_fract_y
_atom_site_fract_z
Si Si1 0.707376 0.888414 0.608990
Si Si2 0.332680 0.882613 0.391156
Si Si3 0.783178 0.549247 0.887440
Si Si4 0.550780 0.118800 0.801977
Si Si5 0.226319 0.112935 0.815173
O O1 0.747283 0.879399 0.500000
O O2 0.594980 0.789286 0.623674
O O3 0.777558 0.885863 0.696140
O O4 0.712747 0.000000 0.615755
O O5 0.366019 0.866980 0.500000
O O6 0.394306 0.856885 0.311137
O O7 0.358208 0.000000 0.378061
O O8 0.846752 0.514945 0.818442
O O9 0.662237 0.477786 0.874403
O O10 0.811786 0.661722 0.855348
O O11 0.812330 0.545859 0.000000
O O12 0.480814 0.000000 0.826965
O O13 0.186396 0.186396 0.856474
O O14 0.153004 0.000000 0.855655
#
# Coordination Sequence:
#
# PCOD8327900 Si02
#       5
#    12  12  12  12  12
#     4   9  17  31  57  95 136 178 221 262 310 378
#     4   9  17  34  63  95 129 171 215 260 317 386
#     4  12  26  44  68  96 125 162 219 283 339 399
#     4  11  24  45  70  97 129 167 211 267 337 401
#     4  11  23  40  62  94 135 179 223 270 327 395
#
# _framework density 22.250178999999999
#
# number of rings (size 3 to 8) (size 9 to 14) (size 15 to 20)
#    0.000    1.600    2.000    3.000    0.000    5.200 
#    0.000    2.000    0.000    7.600    0.000    2.800 
#    0.000    0.000    0.000    0.000    0.000    0.000 
#
# Total GULP energy -743683.503924 kJ/mol
# GULP energy per Si atom -12394.725065 kJ/mol
# Density = 2.219954 g / cm^3
# Si number density = 22.250179 Si / 1000 Ang^3
#
#
#
# Elastic Constant Matrix: (Units=GPa)
#
#
# Indices 1 2 3 4 5 6 
#
# 1 87.4490 17.0640 42.1013 0.0000 0.0000 0.0000
# 2 17.0640 87.4490 42.1013 0.0000 0.0000 0.0000
# 3 42.1013 42.1013 119.5495 0.0000 0.0000 0.0000
# 4 0.0000 0.0000 0.0000 19.5893 0.0000 0.0000
# 5 0.0000 0.0000 0.0000 0.0000 19.5893 0.0000
# 6 0.0000 0.0000 0.0000 0.0000 0.0000 35.1925
#
#
#
# Elastic Compliance Matrix: (Units=1/GPa)
#
#
# Indices 1 2 3 4 5 6 
#
# 1 0.013783 -0.000425 -0.004704 0.000000 0.000000 0.000000
# 2 -0.000425 0.013783 -0.004704 0.000000 0.000000 0.000000
# 3 -0.004704 -0.004704 0.011678 0.000000 0.000000 0.000000
# 4 0.000000 0.000000 0.000000 0.051048 0.000000 0.000000
# 5 0.000000 0.000000 0.000000 0.000000 0.051048 0.000000
# 6 0.000000 0.000000 0.000000 0.000000 0.000000 0.028415
#
#
# Mechanical properties :
#
#
# Convention : Reuss Voigt Hill
#
# Bulk Modulus (GPa) = 51.07928 55.22007 53.14968
# Shear Modulus (GPa) = 25.51694 27.75295 26.63495
#
# Velocity S-wave (km/s) = 3.39015 3.53556 3.46362
# Velocity P-wave (km/s) = 6.19118 6.44505 6.31939
#
# Compressibility (1/GPa) = 0.01957741
#
# Stress axis : x y z
#
# Youngs Moduli (GPa) = 72.55346 72.55346 85.62986
#
# Poissons Ratio (x) = 0.03081 0.40283
# Poissons Ratio (y) = 0.03081 0.40283
# Poissons Ratio (z) = 0.34132 0.34132
#
# Static dielectric constant tensor:
#      x y z
#    x 3.816390 0.000000 0.000000 
#    y 0.000000 3.816390 0.000000 
#    z 0.000000 0.000000 4.154220 
# 
# 
# High freq. dielectric constant tensor:
#      x y z
#    x 1.859820 0.000000 0.000000 
#    y 0.000000 1.859820 0.000000 
#    z 0.000000 0.000000 1.885380 
# 
# From -- ./inp_files/2538.got.cif
#   From: 2010.03.12/outbox.cif.g09.slc.cpg/sg189_2_cif.got.tgz:2538.got - 2010.04.01 12:03:36.
