data_PCOD8327459
_publ_section_title
;
Structure prediction by ZEFSAII (Michael W. Deem and Ramdas Pophale) SiO2 
 PCOD8327459
Probable space group: P -6 C 2
;
_chemical_formula_sum "Si O2"
_cell_formula_units_Z 58
_cell_length_a 13.912647
_cell_length_b 13.912647
_cell_length_c 15.112180
_cell_angle_alpha 90.000000
_cell_angle_beta 90.000000
_cell_angle_gamma 120.000000
_cell_volume 2533.245511
_symmetry_space_group_name_H-M "P -6 C 2"
_symmetry_group_IT_number 188
_symmetry_cell_setting 'hexagonal'
loop_
_space_group_symop_operation_xyz
x,y,z
-x+y,-x,1/2-z
-y,x-y,z
x,y,1/2-z
-x+y,-x,z
-y,x-y,1/2-z
-y,-x,-z
-x+y,y,-z
x,x-y,-z
-x+y,y,1/2+z
x,x-y,1/2+z
-y,-x,1/2+z
loop_
_atom_site_type_symbol
_atom_site_label
_atom_site_fract_x
_atom_site_fract_y
_atom_site_fract_z
Si Si1 0.666668 0.333335 0.354233
Si Si2 0.191004 0.600229 0.750000
Si Si3 0.425712 0.268591 0.355030
Si Si4 0.185601 0.814400 0.000000
Si Si5 0.237672 0.045660 0.429386
Si Si6 0.400914 0.928603 0.913579
Si Si7 0.118886 0.996889 0.250000
O O1 0.666667 0.333334 0.250000
O O2 0.550326 0.315218 0.388538
O O3 0.273515 0.733338 0.750000
O O4 0.110191 0.562656 0.835237
O O5 0.409688 0.246225 0.250000
O O6 0.355498 0.152319 0.406329
O O7 0.390155 0.356656 0.383492
O O8 0.175090 0.724299 0.071957
O O9 0.243512 0.942457 0.030808
O O10 0.177672 0.088836 0.500000
O O11 0.174406 0.992565 0.339478
O O12 0.477887 0.955774 0.000000
O O13 0.112570 0.109933 0.250000
#
# Coordination Sequence:
#
# PCOD8327459 Si02
#       7
#     4   6  12   6  12  12   6
#     4   9  24  45  73 110 142 190 251 325 370 443
#     4  10  24  48  75 107 144 198 253 320 378 449
#     4  11  24  48  76 107 151 198 254 316 381 458
#     4  12  28  44  74 110 154 200 242 318 376 458
#     4  12  24  45  69 108 149 190 251 300 375 451
#     4  12  26  47  76 111 150 200 256 315 384 454
#     4  10  24  38  67  95 138 202 239 290 366 439
#
# _framework density 22.895530999999998
#
# number of rings (size 3 to 8) (size 9 to 14) (size 15 to 20)
#    0.414    0.414    4.138    2.483    2.897    0.828 
#    1.241    2.069    0.000    0.000    0.000    0.000 
#    0.000    0.000    0.000    0.000    0.000    0.000 
#
# Total GULP energy -718817.931584 kJ/mol
# GULP energy per Si atom -12393.412614 kJ/mol
# Density = 2.284342 g / cm^3
# Si number density = 22.895531 Si / 1000 Ang^3
#
#
#
# Elastic Constant Matrix: (Units=GPa)
#
#
# Indices 1 2 3 4 5 6 
#
# 1 85.0325 8.1530 14.8683 -0.0004 -0.0001 0.0001
# 2 8.1530 85.0330 14.8684 0.0004 0.0000 0.0002
# 3 14.8683 14.8684 126.1577 0.0001 0.0000 0.0000
# 4 -0.0004 0.0004 0.0001 54.1253 0.0001 0.0000
# 5 -0.0001 0.0000 0.0000 0.0001 54.1254 -0.0002
# 6 0.0001 0.0002 0.0000 0.0000 -0.0002 38.4397
#
#
#
# Elastic Compliance Matrix: (Units=1/GPa)
#
#
# Indices 1 2 3 4 5 6 
#
# 1 0.012079 -0.000928 -0.001314 0.000000 0.000000 0.000000
# 2 -0.000928 0.012079 -0.001314 0.000000 0.000000 0.000000
# 3 -0.001314 -0.001314 0.008236 0.000000 0.000000 0.000000
# 4 0.000000 0.000000 0.000000 0.018476 0.000000 0.000000
# 5 0.000000 0.000000 0.000000 0.000000 0.018476 0.000000
# 6 0.000000 0.000000 0.000000 0.000000 0.000000 0.026015
#
#
# Mechanical properties :
#
#
# Convention : Reuss Voigt Hill
#
# Bulk Modulus (GPa) = 39.55549 41.33364 40.44457
# Shear Modulus (GPa) = 45.08541 46.56032 45.82286
#
# Velocity S-wave (km/s) = 4.44236 4.51444 4.47854
# Velocity P-wave (km/s) = 6.60505 6.72799 6.66681
#
# Compressibility (1/GPa) = 0.02528094
#
# Stress axis : x y z
#
# Youngs Moduli (GPa) = 82.78821 82.78876 121.41305
#
# Poissons Ratio (x) = 0.07686 0.15956
# Poissons Ratio (y) = 0.07686 0.15956
# Poissons Ratio (z) = 0.10880 0.10880
#
# Static dielectric constant tensor:
#      x y z
#    x 4.040350 0.000000 0.000000 
#    y 0.000000 4.040350 0.000000 
#    z 0.000000 0.000000 4.263310 
# 
# 
# High freq. dielectric constant tensor:
#      x y z
#    x 1.899200 0.000000 0.000000 
#    y 0.000000 1.899200 0.000000 
#    z 0.000000 0.000000 1.922520 
# 
# From -- ./inp_files/2365.got.cif
#   From: 2010.03.12/outbox.cif.g09.slc.cpg/sg188_2_cif.got.tgz:2365.got - 2010.04.01 12:01:06.
