data_PCOD8327212
_publ_section_title
;
Structure prediction by ZEFSAII (Michael W. Deem and Ramdas Pophale) SiO2 
 PCOD8327212
Probable space group: P -6 M 2
;
_chemical_formula_sum "Si O2"
_cell_formula_units_Z 38
_cell_length_a 11.551262
_cell_length_b 11.551262
_cell_length_c 16.854919
_cell_angle_alpha 90.000000
_cell_angle_beta 90.000000
_cell_angle_gamma 120.000000
_cell_volume 1947.673567
_symmetry_space_group_name_H-M "P -6 M 2"
_symmetry_group_IT_number 187
_symmetry_cell_setting 'hexagonal'
loop_
_space_group_symop_operation_xyz
x,y,z
-x+y,-x,-z
-y,x-y,z
x,y,-z
-x+y,-x,z
-y,x-y,-z
-y,-x,-z
-x+y,y,-z
x,x-y,-z
-x+y,y,z
x,x-y,z
-y,-x,z
loop_
_atom_site_type_symbol
_atom_site_label
_atom_site_fract_x
_atom_site_fract_y
_atom_site_fract_z
Si Si1 0.483961 0.516040 0.405878
Si Si2 0.333334 0.666667 0.406090
Si Si3 0.605176 0.668430 0.000000
Si Si4 0.930832 0.330259 0.161368
Si Si5 0.999812 0.266527 0.676147
O O1 0.489918 0.510083 0.500000
O O2 0.408229 0.591772 0.373638
O O3 0.634183 0.598907 0.372453
O O4 0.333334 0.666667 0.500000
O O5 0.688388 0.675603 0.078008
O O6 0.467089 0.532912 0.000000
O O7 0.573537 0.786769 0.000000
O O8 0.957392 0.478696 0.173238
O O9 0.772482 0.227519 0.164644
O O10 0.006213 0.298434 0.230564
O O11 0.883481 0.116520 0.657394
O O12 0.140825 0.281649 0.649085
#
# Coordination Sequence:
#
# PCOD8327212 Si02
#       5
#     6   2   6  12  12
#     4  11  22  40  64  89 117 152 198 251 304 360
#     4   9  18  36  66  90 111 142 194 256 294 348
#     4  10  20  34  52  78 112 150 192 240 292 346
#     4  10  20  35  57  84 116 153 195 244 295 351
#     4  11  23  40  62  90 124 161 201 247 302 362
#
# _framework density 19.510456000000001
#
# number of rings (size 3 to 8) (size 9 to 14) (size 15 to 20)
#    0.000    1.579    3.158    2.211    0.000    0.632 
#    0.947    1.579    0.000    6.316    0.000    0.000 
#    0.000    0.000    0.000    0.000    0.000    0.000 
#
# Total GULP energy -471309.050299 kJ/mol
# GULP energy per Si atom -12402.869745 kJ/mol
# Density = 1.946605 g / cm^3
# Si number density = 19.510456 Si / 1000 Ang^3
#
#
#
# Elastic Constant Matrix: (Units=GPa)
#
#
# Indices 1 2 3 4 5 6 
#
# 1 81.9619 22.6103 36.2388 0.0000 0.0004 -0.0001
# 2 22.6103 81.9617 36.2388 0.0000 -0.0004 0.0000
# 3 36.2388 36.2388 103.5569 0.0000 0.0000 0.0000
# 4 0.0000 0.0000 0.0000 21.9437 0.0000 -0.0004
# 5 0.0004 -0.0004 0.0000 0.0000 21.9437 0.0000
# 6 -0.0001 0.0000 0.0000 -0.0004 0.0000 29.6758
#
#
#
# Elastic Compliance Matrix: (Units=1/GPa)
#
#
# Indices 1 2 3 4 5 6 
#
# 1 0.014737 -0.002112 -0.004418 0.000000 0.000000 0.000000
# 2 -0.002112 0.014737 -0.004418 0.000000 0.000000 0.000000
# 3 -0.004418 -0.004418 0.012749 0.000000 0.000000 0.000000
# 4 0.000000 0.000000 0.000000 0.045571 0.000000 0.000001
# 5 0.000000 0.000000 0.000000 0.000000 0.045571 0.000000
# 6 0.000000 0.000000 0.000000 0.000001 0.000000 0.033698
#
#
# Mechanical properties :
#
#
# Convention : Reuss Voigt Hill
#
# Bulk Modulus (GPa) = 49.19705 50.85068 50.02387
# Shear Modulus (GPa) = 25.54500 26.20549 25.87524
#
# Velocity S-wave (km/s) = 3.62235 3.66888 3.64569
# Velocity P-wave (km/s) = 6.53955 6.63833 6.58912
#
# Compressibility (1/GPa) = 0.02032642
#
# Stress axis : x y z
#
# Youngs Moduli (GPa) = 67.85748 67.85733 78.44027
#
# Poissons Ratio (x) = 0.14331 0.34654
# Poissons Ratio (y) = 0.14331 0.34654
# Poissons Ratio (z) = 0.29979 0.29979
#
# Static dielectric constant tensor:
#      x y z
#    x 3.433190 0.000000 0.000000 
#    y 0.000000 3.433200 0.000000 
#    z 0.000000 0.000000 3.636860 
# 
# 
# High freq. dielectric constant tensor:
#      x y z
#    x 1.756150 0.000000 0.000000 
#    y 0.000000 1.756150 0.000000 
#    z 0.000000 0.000000 1.763820 
# 
# From -- ./inp_files/2870.got.cif
#   From: 2010.03.12/outbox.cif.g09.slc.cpg/sg187_2_cif.got.tgz:2870.got - 2010.04.01 11:58:23.
