data_PCOD8327552
_publ_section_title
;
Structure prediction by ZEFSAII (Michael W. Deem and Ramdas Pophale) SiO2 
 PCOD8327552
Probable space group: P -6 2 M
;
_chemical_formula_sum "Si O2"
_cell_formula_units_Z 60
_cell_length_a 17.825672
_cell_length_b 17.825672
_cell_length_c 11.612919
_cell_angle_alpha 90.000000
_cell_angle_beta 90.000000
_cell_angle_gamma 120.000000
_cell_volume 3195.684165
_symmetry_space_group_name_H-M "P -6 2 M"
_symmetry_group_IT_number 189
_symmetry_cell_setting 'hexagonal'
loop_
_space_group_symop_operation_xyz
x,y,z
-x+y,-x,-z
-y,x-y,z
x,y,-z
-x+y,-x,z
-y,x-y,-z
x-y,-y,-z
-x,-x+y,-z
y,x,-z
y,x,z
x-y,-y,z
-x,-x+y,z
loop_
_atom_site_type_symbol
_atom_site_label
_atom_site_fract_x
_atom_site_fract_y
_atom_site_fract_z
Si Si1 0.395181 0.856335 0.000000
Si Si2 0.475192 0.096496 0.246189
Si Si3 0.101849 0.203553 0.367797
Si Si4 0.200656 0.737456 0.000000
Si Si5 0.618331 0.819804 0.757182
Si Si6 0.897479 0.519966 0.627870
O O1 0.396991 0.910540 0.110380
O O2 0.302681 0.767172 0.000000
O O3 0.479439 0.845572 0.000000
O O4 0.433508 0.153921 0.281217
O O5 0.570004 0.140645 0.304414
O O6 0.412073 0.000000 0.293653
O O7 0.119962 0.238694 0.500000
O O8 0.143883 0.143883 0.345069
O O9 0.140930 0.281186 0.274924
O O10 0.000000 0.146026 0.344651
O O11 0.172008 0.774341 0.107951
O O12 0.583689 0.871681 0.686086
O O13 0.859113 0.498952 0.500000
O O14 0.000000 0.566493 0.628056
#
# Coordination Sequence:
#
# PCOD8327552 Si02
#       6
#     6  12  12   6  12  12
#     4  10  18  36  56  81 110 146 190 235 282 329
#     4  10  21  36  56  80 110 147 187 231 282 335
#     4  10  21  39  64  91 119 152 193 243 300 363
#     4  10  21  34  58  85 113 152 201 247 288 335
#     4  11  21  37  58  86 116 150 195 243 288 344
#     4  10  21  37  55  78 112 150 188 233 285 341
#
# _framework density 18.775323
#
# number of rings (size 3 to 8) (size 9 to 14) (size 15 to 20)
#    0.000    1.800    2.000    2.500    0.000    4.000 
#    1.200    5.500    0.000    0.000    0.000    1.400 
#    0.000    0.000    0.000    0.000    0.000    0.000 
#
# Total GULP energy -743951.537599 kJ/mol
# GULP energy per Si atom -12399.192293 kJ/mol
# Density = 1.873259 g / cm^3
# Si number density = 18.775323 Si / 1000 Ang^3
#
#
#
# Elastic Constant Matrix: (Units=GPa)
#
#
# Indices 1 2 3 4 5 6 
#
# 1 94.6433 32.8411 36.8583 0.0000 0.0000 0.0000
# 2 32.8411 94.6433 36.8583 0.0000 0.0000 0.0000
# 3 36.8583 36.8583 112.4243 0.0000 0.0000 0.0000
# 4 0.0000 0.0000 0.0000 55.1004 0.0000 0.0000
# 5 0.0000 0.0000 0.0000 0.0000 55.1004 0.0000
# 6 0.0000 0.0000 0.0000 0.0000 0.0000 30.9011
#
#
#
# Elastic Compliance Matrix: (Units=1/GPa)
#
#
# Indices 1 2 3 4 5 6 
#
# 1 0.012930 -0.003251 -0.003173 0.000000 0.000000 0.000000
# 2 -0.003251 0.012930 -0.003173 0.000000 0.000000 0.000000
# 3 -0.003173 -0.003173 0.010976 0.000000 0.000000 0.000000
# 4 0.000000 0.000000 0.000000 0.018149 0.000000 0.000000
# 5 0.000000 0.000000 0.000000 0.000000 0.018149 0.000000
# 6 0.000000 0.000000 0.000000 0.000000 0.000000 0.032361
#
#
# Mechanical properties :
#
#
# Convention : Reuss Voigt Hill
#
# Bulk Modulus (GPa) = 56.68759 57.20293 56.94526
# Shear Modulus (GPa) = 38.29399 41.23060 39.76229
#
# Velocity S-wave (km/s) = 4.52108 4.69123 4.60694
# Velocity P-wave (km/s) = 7.58365 7.73801 7.66122
#
# Compressibility (1/GPa) = 0.01764054
#
# Stress axis : x y z
#
# Youngs Moduli (GPa) = 77.34054 77.34054 91.11140
#
# Poissons Ratio (x) = 0.25142 0.28912
# Poissons Ratio (y) = 0.25142 0.28912
# Poissons Ratio (z) = 0.24542 0.24542
#
# Static dielectric constant tensor:
#      x y z
#    x 3.426540 0.000000 0.000000 
#    y 0.000000 3.426540 0.000000 
#    z 0.000000 0.000000 3.658350 
# 
# 
# High freq. dielectric constant tensor:
#      x y z
#    x 1.730940 0.000000 0.000000 
#    y 0.000000 1.730940 0.000000 
#    z 0.000000 0.000000 1.730360 
# 
# From -- ./inp_files/1938.got.cif
#   From: 2010.03.12/outbox.cif.g09.slc.cpg/sg189_1_cif.got.tgz:1938.got - 2010.04.01 12:03:36.
