data_PCOD8327012
_publ_section_title
;
Structure prediction by ZEFSAII (Michael W. Deem and Ramdas Pophale) SiO2 
 PCOD8327012
Probable space group: P -6 M 2
;
_chemical_formula_sum "Si O2"
_cell_formula_units_Z 60
_cell_length_a 12.632265
_cell_length_b 12.632265
_cell_length_c 26.176202
_cell_angle_alpha 90.000000
_cell_angle_beta 90.000000
_cell_angle_gamma 120.000000
_cell_volume 3617.426540
_symmetry_space_group_name_H-M "P -6 M 2"
_symmetry_group_IT_number 187
_symmetry_cell_setting 'hexagonal'
loop_
_space_group_symop_operation_xyz
x,y,z
-x+y,-x,-z
-y,x-y,z
x,y,-z
-x+y,-x,z
-y,x-y,-z
-y,-x,-z
-x+y,y,-z
x,x-y,-z
-x+y,y,z
x,x-y,z
-y,-x,z
loop_
_atom_site_type_symbol
_atom_site_label
_atom_site_fract_x
_atom_site_fract_y
_atom_site_fract_z
Si Si1 0.249242 0.002788 0.408341
Si Si2 0.248767 0.246804 0.813010
Si Si3 0.001687 0.248519 0.000000
Si Si4 0.666267 0.084118 0.500000
Si Si5 0.998044 0.238223 0.702262
Si Si6 0.332232 0.913536 0.905065
O O1 0.126535 0.873466 0.412587
O O2 0.214815 0.107408 0.419694
O O3 0.345335 0.009470 0.449791
O O4 0.312843 0.023952 0.351516
O O5 0.247859 0.123930 0.829985
O O6 0.310634 0.291977 0.756220
O O7 0.330625 0.354884 0.851764
O O8 0.108930 0.217859 0.813073
O O9 0.012091 0.326570 0.950316
O O10 0.871549 0.128452 0.000000
O O11 0.104890 0.209780 0.000000
O O12 0.780672 0.219329 0.500000
O O13 0.547412 0.094824 0.500000
O O14 0.907759 0.092242 0.704108
O O15 0.134800 0.269599 0.699554
O O16 0.461124 0.922247 0.911845
O O17 0.227920 0.772081 0.906670
#
# Coordination Sequence:
#
# PCOD8327012 Si02
#       6
#    12  12   6   6  12  12
#     4   9  16  27  46  71  95 114 136 175 228 281
#     4   9  16  27  46  71  97 122 148 182 225 272
#     4  10  20  34  54  78 100 118 140 180 234 286
#     4  10  20  32  44  58  80 114 154 190 220 254
#     4   8  13  22  39  66  96 120 140 168 217 277
#     4  10  20  33  49  68  92 124 160 194 223 254
#
# _framework density 16.586378
#
# number of rings (size 3 to 8) (size 9 to 14) (size 15 to 20)
#    0.000    2.800    0.000    2.200    0.000    3.200 
#    0.000    5.000    0.000    7.200    0.000    0.000 
#    0.000    0.000    0.000    0.000    0.000    0.000 
#
# Total GULP energy -743322.307569 kJ/mol
# GULP energy per Si atom -12388.705126 kJ/mol
# Density = 1.654863 g / cm^3
# Si number density = 16.586378 Si / 1000 Ang^3
#
#
#
# Elastic Constant Matrix: (Units=GPa)
#
#
# Indices 1 2 3 4 5 6 
#
# 1 78.3283 41.1474 53.1638 0.0000 0.0000 0.0000
# 2 41.1474 78.3283 53.1638 0.0000 0.0000 0.0000
# 3 53.1638 53.1638 158.5142 0.0000 0.0000 0.0000
# 4 0.0000 0.0000 0.0000 12.3876 0.0000 0.0000
# 5 0.0000 0.0000 0.0000 0.0000 12.3876 0.0000
# 6 0.0000 0.0000 0.0000 0.0000 0.0000 18.5905
#
#
#
# Elastic Compliance Matrix: (Units=1/GPa)
#
#
# Indices 1 2 3 4 5 6 
#
# 1 0.019413 -0.007482 -0.004002 0.000000 0.000000 0.000000
# 2 -0.007482 0.019413 -0.004002 0.000000 0.000000 0.000000
# 3 -0.004002 -0.004002 0.008993 0.000000 0.000000 0.000000
# 4 0.000000 0.000000 0.000000 0.080726 0.000000 0.000000
# 5 0.000000 0.000000 0.000000 0.000000 0.080726 0.000000
# 6 0.000000 0.000000 0.000000 0.000000 0.000000 0.053791
#
#
# Mechanical properties :
#
#
# Convention : Reuss Voigt Hill
#
# Bulk Modulus (GPa) = 59.35170 67.79120 63.57145
# Shear Modulus (GPa) = 16.68616 19.85284 18.26950
#
# Velocity S-wave (km/s) = 3.17522 3.46343 3.32245
# Velocity P-wave (km/s) = 7.02166 7.54680 7.28896
#
# Compressibility (1/GPa) = 0.01684872
#
# Stress axis : x y z
#
# Youngs Moduli (GPa) = 51.51110 51.51110 111.20094
#
# Poissons Ratio (x) = 0.38542 0.44498
# Poissons Ratio (y) = 0.38542 0.44498
# Poissons Ratio (z) = 0.20612 0.20612
#
# Static dielectric constant tensor:
#      x y z
#    x 2.777610 0.000000 0.000000 
#    y 0.000000 2.777610 0.000000 
#    z 0.000000 0.000000 3.829140 
# 
# 
# High freq. dielectric constant tensor:
#      x y z
#    x 1.604380 0.000000 0.000000 
#    y 0.000000 1.604380 0.000000 
#    z 0.000000 0.000000 1.672640 
# 
# From -- ./inp_files/4164.got.cif
#   From: 2010.03.12/outbox.cif.g09.slc.cpg/sg187_3_cif.got.tgz:4164.got - 2010.04.01 11:58:23.
