data_PCOD8327302
_publ_section_title
;
Structure prediction by ZEFSAII (Michael W. Deem and Ramdas Pophale) SiO2 
 PCOD8327302
Probable space group: P -6 C 2
;
_chemical_formula_sum "Si O2"
_cell_formula_units_Z 72
_cell_length_a 24.235762
_cell_length_b 24.235762
_cell_length_c 8.854480
_cell_angle_alpha 90.000000
_cell_angle_beta 90.000000
_cell_angle_gamma 120.000000
_cell_volume 4504.089907
_symmetry_space_group_name_H-M "P -6 C 2"
_symmetry_group_IT_number 188
_symmetry_cell_setting 'hexagonal'
loop_
_space_group_symop_operation_xyz
x,y,z
-x+y,-x,1/2-z
-y,x-y,z
x,y,1/2-z
-x+y,-x,z
-y,x-y,1/2-z
-y,-x,-z
-x+y,y,-z
x,x-y,-z
-x+y,y,1/2+z
x,x-y,1/2+z
-y,-x,1/2+z
loop_
_atom_site_type_symbol
_atom_site_label
_atom_site_fract_x
_atom_site_fract_y
_atom_site_fract_z
Si Si1 0.926612 0.740676 0.571098
Si Si2 0.928919 0.409585 0.429118
Si Si3 0.633654 0.708887 0.916666
Si Si4 0.067067 0.481031 0.928583
Si Si5 0.184022 0.928226 0.425809
Si Si6 0.923934 0.626793 0.420341
O O1 0.921131 0.738443 0.750000
O O2 0.883976 0.767952 0.500000
O O3 0.900991 0.669425 0.509835
O O4 0.999298 0.787686 0.517786
O O5 0.921179 0.405787 0.250000
O O6 0.895760 0.447880 0.500000
O O7 0.896559 0.338001 0.496909
O O8 0.002536 0.446978 0.475379
O O9 0.641703 0.738984 0.750000
O O10 0.558291 0.662949 0.955983
O O11 0.662630 0.662517 0.920098
O O12 0.670211 0.767179 0.031924
O O13 0.053128 0.481656 0.750000
O O14 0.105914 0.552957 0.000000
O O15 0.173871 0.922949 0.250000
O O16 0.115333 0.884668 0.500000
O O17 0.897185 0.615814 0.250000
#
# Coordination Sequence:
#
# PCOD8327302 Si02
#       6
#    12  12  12  12  12  12
#     4  10  20  33  49  69  88 111 141 177 223 278
#     4  10  16  22  33  51  77 109 143 174 200 231
#     4   8  15  26  39  56  80 108 138 170 206 246
#     4   9  15  22  33  51  76 108 141 171 199 228
#     4  10  20  32  48  67  86 109 140 177 223 276
#     4   9  16  27  41  58  81 109 139 173 209 249
#
# _framework density 15.985473000000001
#
# number of rings (size 3 to 8) (size 9 to 14) (size 15 to 20)
#    0.000    2.667    0.000    5.500    0.000    6.667 
#    0.000    0.000    0.000    0.333    0.000    0.000 
#    0.000    0.000    0.000    1.000    0.000   15.667 
#
# Total GULP energy -892145.872302 kJ/mol
# GULP energy per Si atom -12390.914893 kJ/mol
# Density = 1.594909 g / cm^3
# Si number density = 15.985473 Si / 1000 Ang^3
#
#
#
# Elastic Constant Matrix: (Units=GPa)
#
#
# Indices 1 2 3 4 5 6 
#
# 1 71.3472 41.8095 37.5062 -0.0001 0.0000 0.0000
# 2 41.8095 71.3472 37.5062 0.0001 0.0000 0.0000
# 3 37.5062 37.5062 98.2942 0.0000 0.0000 0.0000
# 4 -0.0001 0.0001 0.0000 23.7796 0.0000 0.0000
# 5 0.0000 0.0000 0.0000 0.0000 23.7796 -0.0001
# 6 0.0000 0.0000 0.0000 0.0000 -0.0001 14.7688
#
#
#
# Elastic Compliance Matrix: (Units=1/GPa)
#
#
# Indices 1 2 3 4 5 6 
#
# 1 0.022842 -0.011013 -0.004514 0.000000 0.000000 0.000000
# 2 -0.011013 0.022842 -0.004514 0.000000 0.000000 0.000000
# 3 -0.004514 -0.004514 0.013618 0.000000 0.000000 0.000000
# 4 0.000000 0.000000 0.000000 0.042053 0.000000 0.000000
# 5 0.000000 0.000000 0.000000 0.000000 0.042053 0.000000
# 6 0.000000 0.000000 0.000000 0.000000 0.000000 0.067710
#
#
# Mechanical properties :
#
#
# Convention : Reuss Voigt Hill
#
# Bulk Modulus (GPa) = 52.02355 52.73694 52.38025
# Shear Modulus (GPa) = 19.40942 20.74338 20.07640
#
# Velocity S-wave (km/s) = 3.48831 3.60618 3.54773
# Velocity P-wave (km/s) = 6.98851 7.09941 7.04418
#
# Compressibility (1/GPa) = 0.01922206
#
# Stress axis : x y z
#
# Youngs Moduli (GPa) = 43.77840 43.77840 73.43101
#
# Poissons Ratio (x) = 0.48212 0.33145
# Poissons Ratio (y) = 0.48212 0.33145
# Poissons Ratio (z) = 0.19761 0.19761
#
# Static dielectric constant tensor:
#      x y z
#    x 3.049930 0.000000 0.000000 
#    y 0.000000 3.049930 0.000000 
#    z 0.000000 0.000000 3.139570 
# 
# 
# High freq. dielectric constant tensor:
#      x y z
#    x 1.576960 0.000000 0.000000 
#    y 0.000000 1.576960 0.000000 
#    z 0.000000 0.000000 1.631840 
# 
# From -- ./inp_files/982.got.cif
#   From: 2010.03.12/outbox.cif.g09.slc.cpg/sg188_1_cif.got.tgz:982.got - 2010.04.01 12:01:06.
