data_PCOD8327203
_publ_section_title
;
Structure prediction by ZEFSAII (Michael W. Deem and Ramdas Pophale) SiO2 
 PCOD8327203
Probable space group: P -6 M 2
;
_chemical_formula_sum "Si O2"
_cell_formula_units_Z 72
_cell_length_a 12.414046
_cell_length_b 12.414046
_cell_length_c 30.824433
_cell_angle_alpha 90.000000
_cell_angle_beta 90.000000
_cell_angle_gamma 120.000000
_cell_volume 4113.887670
_symmetry_space_group_name_H-M "P -6 M 2"
_symmetry_group_IT_number 187
_symmetry_cell_setting 'hexagonal'
loop_
_space_group_symop_operation_xyz
x,y,z
-x+y,-x,-z
-y,x-y,z
x,y,-z
-x+y,-x,z
-y,x-y,-z
-y,-x,-z
-x+y,y,-z
x,x-y,-z
-x+y,y,z
x,x-y,z
-y,-x,z
loop_
_atom_site_type_symbol
_atom_site_label
_atom_site_fract_x
_atom_site_fract_y
_atom_site_fract_z
Si Si1 0.664794 0.584211 0.583430
Si Si2 0.334694 0.920444 0.500000
Si Si3 0.583933 0.665261 0.917448
Si Si4 0.333409 0.918389 0.332354
Si Si5 0.251574 0.999809 0.751353
Si Si6 0.665771 0.585209 0.000000
Si Si7 0.666520 0.082180 0.834293
O O1 0.797444 0.594888 0.584672
O O2 0.560354 0.439647 0.581294
O O3 0.657033 0.657000 0.541899
O O4 0.649428 0.649697 0.625553
O O5 0.204622 0.795379 0.500000
O O6 0.442317 0.884634 0.500000
O O7 0.592477 0.796239 0.919393
O O8 0.440493 0.559508 0.920467
O O9 0.645163 0.656502 0.873068
O O10 0.660487 0.656248 0.957550
O O11 0.452187 0.904373 0.322900
O O12 0.217702 0.782299 0.339930
O O13 0.313522 0.987819 0.292320
O O14 0.226698 0.113349 0.746312
O O15 0.345144 0.019799 0.790074
O O16 0.122079 0.877922 0.761528
O O17 0.556923 0.443078 0.000000
O O18 0.793506 0.587011 0.000000
O O19 0.556002 0.112003 0.830223
O O20 0.790654 0.209347 0.844378
#
# Coordination Sequence:
#
# PCOD8327203 Si02
#       7
#    12   6  12  12  12   6  12
#     4  10  20  34  53  76 102 132 166 205 249 297
#     4  10  20  34  54  78 104 134 168 208 252 298
#     4  10  20  34  53  76 102 132 166 205 249 297
#     4  10  20  34  53  76 102 132 167 209 255 301
#     4  10  20  34  52  74 102 136 172 208 248 298
#     4  10  20  34  54  78 104 134 168 208 252 298
#     4  10  20  34  53  76 102 132 167 209 255 301
#
# _framework density 17.501691999999998
#
# number of rings (size 3 to 8) (size 9 to 14) (size 15 to 20)
#    0.000    2.000    0.000    4.000    0.000    0.000 
#    0.000    5.000    0.000   22.000    0.000    0.000 
#    0.000    0.000    0.000    0.000    0.000    0.000 
#
# Total GULP energy -893110.866143 kJ/mol
# GULP energy per Si atom -12404.317585 kJ/mol
# Density = 1.746186 g / cm^3
# Si number density = 17.501692 Si / 1000 Ang^3
#
#
#
# Elastic Constant Matrix: (Units=GPa)
#
#
# Indices 1 2 3 4 5 6 
#
# 1 81.1516 41.6945 34.6377 0.0000 -0.0001 0.0000
# 2 41.6945 81.1516 34.6377 0.0000 0.0001 0.0000
# 3 34.6377 34.6377 79.9984 0.0000 0.0000 0.0000
# 4 0.0000 0.0000 0.0000 18.0648 0.0000 0.0001
# 5 -0.0001 0.0001 0.0000 0.0000 18.0648 0.0000
# 6 0.0000 0.0000 0.0000 0.0001 0.0000 19.7286
#
#
#
# Elastic Compliance Matrix: (Units=1/GPa)
#
#
# Indices 1 2 3 4 5 6 
#
# 1 0.018057 -0.007287 -0.004663 0.000000 0.000000 0.000000
# 2 -0.007287 0.018057 -0.004663 0.000000 0.000000 0.000000
# 3 -0.004663 -0.004663 0.016538 0.000000 0.000000 0.000000
# 4 0.000000 0.000000 0.000000 0.055356 0.000000 0.000000
# 5 0.000000 0.000000 0.000000 0.000000 0.055356 0.000000
# 6 0.000000 0.000000 0.000000 0.000000 0.000000 0.050688
#
#
# Mechanical properties :
#
#
# Convention : Reuss Voigt Hill
#
# Bulk Modulus (GPa) = 51.47856 51.58237 51.53046
# Shear Modulus (GPa) = 19.70409 19.92710 19.81560
#
# Velocity S-wave (km/s) = 3.35899 3.37795 3.36848
# Velocity P-wave (km/s) = 6.67241 6.68960 6.68101
#
# Compressibility (1/GPa) = 0.01942556
#
# Stress axis : x y z
#
# Youngs Moduli (GPa) = 55.38044 55.38044 60.46555
#
# Poissons Ratio (x) = 0.40356 0.28196
# Poissons Ratio (y) = 0.40356 0.28196
# Poissons Ratio (z) = 0.25825 0.25825
#
# Static dielectric constant tensor:
#      x y z
#    x 3.235120 0.000000 0.000000 
#    y 0.000000 3.235120 0.000000 
#    z 0.000000 0.000000 3.452370 
# 
# 
# High freq. dielectric constant tensor:
#      x y z
#    x 1.681950 0.000000 0.000000 
#    y 0.000000 1.681950 0.000000 
#    z 0.000000 0.000000 1.697120 
# 
# From -- ./inp_files/4531.got.cif
#   From: 2010.03.12/outbox.cif.g09.slc.cpg/sg187_3_cif.got.tgz:4531.got - 2010.04.01 11:58:23.
