data_PCOD8327898
_publ_section_title
;
Structure prediction by ZEFSAII (Michael W. Deem and Ramdas Pophale) SiO2 
 PCOD8327898
Probable space group: P -6 2 M
;
_chemical_formula_sum "Si O2"
_cell_formula_units_Z 60
_cell_length_a 15.039036
_cell_length_b 15.039036
_cell_length_c 13.752853
_cell_angle_alpha 90.000000
_cell_angle_beta 90.000000
_cell_angle_gamma 120.000000
_cell_volume 2693.788103
_symmetry_space_group_name_H-M "P -6 2 M"
_symmetry_group_IT_number 189
_symmetry_cell_setting 'hexagonal'
loop_
_space_group_symop_operation_xyz
x,y,z
-x+y,-x,-z
-y,x-y,z
x,y,-z
-x+y,-x,z
-y,x-y,-z
x-y,-y,-z
-x,-x+y,-z
y,x,-z
y,x,z
x-y,-y,z
-x,-x+y,z
loop_
_atom_site_type_symbol
_atom_site_label
_atom_site_fract_x
_atom_site_fract_y
_atom_site_fract_z
Si Si1 0.120511 0.592703 0.200741
Si Si2 0.878535 0.571015 0.607607
Si Si3 0.886121 0.112529 0.114822
Si Si4 0.114058 0.228702 0.614458
Si Si5 0.454033 0.196398 0.886926
O O1 0.154103 0.636874 0.310728
O O2 0.187753 0.681240 0.123405
O O3 0.147907 0.504331 0.182339
O O4 0.000000 0.550390 0.182877
O O5 0.834110 0.522746 0.500000
O O6 0.840616 0.650783 0.640084
O O7 0.000000 0.636342 0.598949
O O8 0.852924 0.191695 0.153526
O O9 0.000000 0.147234 0.151421
O O10 0.809128 0.000000 0.157967
O O11 0.880746 0.109355 0.000000
O O12 0.107728 0.215951 0.500000
O O13 0.158277 0.158277 0.658239
O O14 0.000000 0.190055 0.657885
O O15 0.459036 0.169460 0.000000
#
# Coordination Sequence:
#
# PCOD8327898 Si02
#       5
#    12  12  12  12  12
#     4  11  23  41  65  90 121 162 203 250 312 369
#     4   8  16  33  57  84 116 157 203 249 299 358
#     4   9  17  31  53  82 117 156 196 239 291 355
#     4   8  12  20  40  74 116 161 207 253 301 355
#     4  11  23  38  59  90 122 154 202 256 304 363
#
# _framework density 22.273467
#
# number of rings (size 3 to 8) (size 9 to 14) (size 15 to 20)
#    0.000    2.600    0.000    3.800    0.000    4.800 
#    0.000    3.000    0.000    0.000    0.000    2.800 
#    0.000    0.000    0.000    0.800    0.000   32.400 
#
# Total GULP energy -743627.891308 kJ/mol
# GULP energy per Si atom -12393.798188 kJ/mol
# Density = 2.222277 g / cm^3
# Si number density = 22.273467 Si / 1000 Ang^3
#
#
#
# Elastic Constant Matrix: (Units=GPa)
#
#
# Indices 1 2 3 4 5 6 
#
# 1 104.1592 83.8719 42.5079 0.0000 0.0000 0.0000
# 2 83.8719 104.1592 42.5079 0.0000 0.0000 0.0000
# 3 42.5079 42.5079 119.4418 0.0000 0.0000 0.0000
# 4 0.0000 0.0000 0.0000 -25.8626 0.0000 0.0000
# 5 0.0000 0.0000 0.0000 0.0000 -25.8626 0.0000
# 6 0.0000 0.0000 0.0000 0.0000 0.0000 10.1437
#
#
#
# Elastic Compliance Matrix: (Units=1/GPa)
#
#
# Indices 1 2 3 4 5 6 
#
# 1 0.027815 -0.021477 -0.002256 0.000000 0.000000 0.000000
# 2 -0.021477 0.027815 -0.002256 0.000000 0.000000 0.000000
# 3 -0.002256 -0.002256 0.009978 0.000000 0.000000 0.000000
# 4 0.000000 0.000000 0.000000 -0.038666 0.000000 0.000000
# 5 0.000000 0.000000 0.000000 0.000000 -0.038666 0.000000
# 6 0.000000 0.000000 0.000000 0.000000 0.000000 0.098584
#
#
# Mechanical properties :
#
#
# Convention : Reuss Voigt Hill
#
# Bulk Modulus (GPa) = 73.35994 73.94840 73.65417
# Shear Modulus (GPa) = 34.87230 2.27517 18.57374
#
# Velocity S-wave (km/s) = 3.96111 1.01178 2.89086
# Velocity P-wave (km/s) = 7.34357 5.88534 6.65452
#
# Compressibility (1/GPa) = 0.01363142
#
# Stress axis : x y z
#
# Youngs Moduli (GPa) = 35.95179 35.95179 100.22234
#
# Poissons Ratio (x) = 0.77213 0.22607
# Poissons Ratio (y) = 0.77213 0.22607
# Poissons Ratio (z) = 0.08110 0.08110
#
# Static dielectric constant tensor:
#      x y z
#    x 4.064480 0.000000 0.000000 
#    y 0.000000 4.064480 0.000000 
#    z 0.000000 0.000000 4.127730 
# 
# 
# High freq. dielectric constant tensor:
#      x y z
#    x 1.863050 0.000000 0.000000 
#    y 0.000000 1.863050 0.000000 
#    z 0.000000 0.000000 1.884300 
# 
# From -- ./inp_files/2513.got.cif
#   From: 2010.03.12/outbox.cif.g09.slc.cpg/sg189_2_cif.got.tgz:2513.got - 2010.04.01 12:03:36.
