data_PCOD8327373
_publ_section_title
;
Structure prediction by ZEFSAII (Michael W. Deem and Ramdas Pophale) SiO2 
 PCOD8327373
Probable space group: P -6 C 2
;
_chemical_formula_sum "Si O2"
_cell_formula_units_Z 48
_cell_length_a 11.881736
_cell_length_b 11.881736
_cell_length_c 25.187413
_cell_angle_alpha 90.000000
_cell_angle_beta 90.000000
_cell_angle_gamma 120.000000
_cell_volume 3079.455922
_symmetry_space_group_name_H-M "P -6 C 2"
_symmetry_group_IT_number 188
_symmetry_cell_setting 'hexagonal'
loop_
_space_group_symop_operation_xyz
x,y,z
-x+y,-x,1/2-z
-y,x-y,z
x,y,1/2-z
-x+y,-x,z
-y,x-y,1/2-z
-y,-x,-z
-x+y,y,-z
x,x-y,-z
-x+y,y,1/2+z
x,x-y,1/2+z
-y,-x,1/2+z
loop_
_atom_site_type_symbol
_atom_site_label
_atom_site_fract_x
_atom_site_fract_y
_atom_site_fract_z
Si Si1 0.923549 0.460632 0.309381
Si Si2 0.165817 0.081862 0.560221
Si Si3 0.903201 0.834136 0.750000
Si Si4 0.360709 0.182562 0.346109
Si Si5 0.168882 0.595827 0.250000
O O1 0.859053 0.426152 0.250000
O O2 0.901229 0.332144 0.338804
O O3 0.864135 0.530422 0.344512
O O4 0.079050 0.555759 0.302706
O O5 0.217980 0.108990 0.500000
O O6 0.291096 0.142591 0.597314
O O7 0.074357 0.146850 0.569929
O O8 0.848681 0.746133 0.698560
O O9 0.852661 0.938702 0.750000
O O10 0.268909 0.750540 0.250000
#
# Coordination Sequence:
#
# PCOD8327373 Si02
#       5
#    12  12   6  12   6
#     4  10  21  31  47  68 107 145 161 211 239 304
#     4   8  18  37  58  83 104 123 161 232 298 308
#     4  10  20  28  48  84 100 118 176 242 264 314
#     4  12  19  34  50  76 102 144 178 198 269 312
#     4   8  18  34  38  60 100 144 162 192 242 292
#
# _framework density 15.58717
#
# number of rings (size 3 to 8) (size 9 to 14) (size 15 to 20)
#    1.750    0.500    2.500    2.000    0.000    6.000 
#    0.000    1.250    0.000    0.000    0.000    0.000 
#    0.000    0.000    0.000    0.000    0.000    0.000 
#
# Total GULP energy -594691.922228 kJ/mol
# GULP energy per Si atom -12389.415046 kJ/mol
# Density = 1.555169 g / cm^3
# Si number density = 15.587170 Si / 1000 Ang^3
#
#
#
# Elastic Constant Matrix: (Units=GPa)
#
#
# Indices 1 2 3 4 5 6 
#
# 1 70.9402 9.0010 32.3181 0.0000 0.0000 0.0000
# 2 9.0010 70.9402 32.3181 0.0000 0.0000 0.0000
# 3 32.3181 32.3181 100.5531 0.0000 0.0000 0.0000
# 4 0.0000 0.0000 0.0000 0.0051 0.0000 0.0000
# 5 0.0000 0.0000 0.0000 0.0000 0.0051 0.0000
# 6 0.0000 0.0000 0.0000 0.0000 0.0000 30.9696
#
#
#
# Elastic Compliance Matrix: (Units=1/GPa)
#
#
# Indices 1 2 3 4 5 6 
#
# 1 0.016523 0.000378 -0.005432 0.000007 0.000000 0.000000
# 2 0.000378 0.016523 -0.005432 -0.000007 0.000000 0.000000
# 3 -0.005432 -0.005432 0.013437 0.000000 0.000000 0.000000
# 4 0.000007 -0.000007 0.000000195.964921 0.013096 0.000000
# 5 0.000000 0.000000 0.000000 0.013096195.949798 0.000014
# 6 0.000000 0.000000 0.000000 0.000000 0.000014 0.032290
#
#
# Mechanical properties :
#
#
# Convention : Reuss Voigt Hill
#
# Bulk Modulus (GPa) = 39.19891 43.30087 41.24989
# Shear Modulus (GPa) = 0.01275 17.44906 8.73091
#
# Velocity S-wave (km/s) = 0.09056 3.34945 2.36928
# Velocity P-wave (km/s) = 5.02133 6.54206 5.83148
#
# Compressibility (1/GPa) = 0.02551091
#
# Stress axis : x y z
#
# Youngs Moduli (GPa) = 60.52134 60.52134 74.42246
#
# Poissons Ratio (x) = -0.02289 0.40427
# Poissons Ratio (y) = -0.02289 0.40427
# Poissons Ratio (z) = 0.32876 0.32876
#
# Static dielectric constant tensor:
#      x y z
#    x 2.883560 0.000000 0.000000 
#    y 0.000000 2.883560 0.000000 
#    z 0.000000 0.000000 2.748640 
# 
# 
# High freq. dielectric constant tensor:
#      x y z
#    x 1.593440 0.000000 0.000000 
#    y 0.000000 1.593440 0.000000 
#    z 0.000000 0.000000 1.568790 
# 
# From -- ./inp_files/3992.got.cif
#   From: 2010.03.12/outbox.cif.g09.slc.cpg/sg188_2_cif.got.tgz:3992.got - 2010.04.01 12:01:06.
