data_PCOD8327110
_publ_section_title
;
Structure prediction by ZEFSAII (Michael W. Deem and Ramdas Pophale) SiO2 
 PCOD8327110
Probable space group: P -6 M 2
;
_chemical_formula_sum "Si O2"
_cell_formula_units_Z 60
_cell_length_a 12.681885
_cell_length_b 12.681885
_cell_length_c 26.055061
_cell_angle_alpha 90.000000
_cell_angle_beta 90.000000
_cell_angle_gamma 120.000000
_cell_volume 3629.028236
_symmetry_space_group_name_H-M "P -6 M 2"
_symmetry_group_IT_number 187
_symmetry_cell_setting 'hexagonal'
loop_
_space_group_symop_operation_xyz
x,y,z
-x+y,-x,-z
-y,x-y,z
x,y,-z
-x+y,-x,z
-y,x-y,-z
-y,-x,-z
-x+y,y,-z
x,x-y,-z
-x+y,y,z
x,x-y,z
-y,-x,z
loop_
_atom_site_type_symbol
_atom_site_label
_atom_site_fract_x
_atom_site_fract_y
_atom_site_fract_z
Si Si1 0.755574 0.757838 0.945769
Si Si2 0.247352 0.998241 0.834488
Si Si3 0.912852 0.334536 0.647801
Si Si4 0.575782 0.666388 0.558658
Si Si5 0.085454 0.420000 0.742615
O O1 0.800540 0.900270 0.944651
O O2 0.688903 0.701660 0.891244
O O3 0.871443 0.742886 0.947605
O O4 0.680484 0.700427 0.000000
O O5 0.108794 0.891206 0.826285
O O6 0.334620 0.987977 0.792969
O O7 0.251544 0.125772 0.827830
O O8 0.873522 0.436761 0.648915
O O9 0.795265 0.204736 0.654545
O O10 0.976730 0.336890 0.594078
O O11 0.004948 0.353628 0.693296
O O12 0.615022 0.665954 0.500000
O O13 0.589601 0.794801 0.573995
O O14 0.435504 0.564497 0.567839
O O15 0.211599 0.423197 0.736375
O O16 0.113495 0.556748 0.747847
#
# Coordination Sequence:
#
# PCOD8327110 Si02
#       5
#    12  12  12  12  12
#     4   8  12  18  31  54  84 115 144 174 210 254
#     4   9  16  26  42  65  92 119 145 176 218 268
#     4  10  20  33  49  69  93 120 149 183 225 272
#     4   9  17  30  50  75 100 126 157 193 228 258
#     4  10  20  33  49  67  87 114 149 189 229 267
#
# _framework density 16.533352000000001
#
# number of rings (size 3 to 8) (size 9 to 14) (size 15 to 20)
#    0.000    2.800    0.000    2.200    0.000    3.600 
#    0.000    2.000    0.000    6.600    0.000    0.000 
#    0.000    1.600    0.000    0.000    0.000    0.000 
#
# Total GULP energy -743359.535911 kJ/mol
# GULP energy per Si atom -12389.325599 kJ/mol
# Density = 1.649572 g / cm^3
# Si number density = 16.533352 Si / 1000 Ang^3
#
#
#
# Elastic Constant Matrix: (Units=GPa)
#
#
# Indices 1 2 3 4 5 6 
#
# 1 73.3892 40.6539 52.4264 0.0000 0.0003 0.0000
# 2 40.6539 73.3892 52.4264 0.0000 -0.0003 0.0000
# 3 52.4264 52.4264 140.1585 0.0000 0.0000 0.0000
# 4 0.0000 0.0000 0.0000 20.3725 0.0000 -0.0003
# 5 0.0003 -0.0003 0.0000 0.0000 20.3725 0.0000
# 6 0.0000 0.0000 0.0000 -0.0003 0.0000 16.3676
#
#
#
# Elastic Compliance Matrix: (Units=1/GPa)
#
#
# Indices 1 2 3 4 5 6 
#
# 1 0.021956 -0.008592 -0.004999 0.000000 0.000000 0.000000
# 2 -0.008592 0.021956 -0.004999 0.000000 0.000000 0.000000
# 3 -0.004999 -0.004999 0.010875 0.000000 0.000000 0.000000
# 4 0.000000 0.000000 0.000000 0.049086 0.000000 0.000001
# 5 0.000000 0.000000 0.000000 0.000000 0.049086 0.000000
# 6 0.000000 0.000000 0.000000 0.000001 0.000000 0.061096
#
#
# Mechanical properties :
#
#
# Convention : Reuss Voigt Hill
#
# Bulk Modulus (GPa) = 56.79285 64.21670 60.50478
# Shear Modulus (GPa) = 19.44734 20.85120 20.14927
#
# Velocity S-wave (km/s) = 3.43337 3.55513 3.49478
# Velocity P-wave (km/s) = 7.08113 7.46840 7.27734
#
# Compressibility (1/GPa) = 0.01760785
#
# Stress axis : x y z
#
# Youngs Moduli (GPa) = 45.54463 45.54463 91.95702
#
# Poissons Ratio (x) = 0.39130 0.45971
# Poissons Ratio (y) = 0.39130 0.45971
# Poissons Ratio (z) = 0.22768 0.22768
#
# Static dielectric constant tensor:
#      x y z
#    x 2.857630 0.000000 0.000000 
#    y 0.000000 2.857630 0.000000 
#    z 0.000000 0.000000 3.806690 
# 
# 
# High freq. dielectric constant tensor:
#      x y z
#    x 1.609040 0.000000 0.000000 
#    y 0.000000 1.609040 0.000000 
#    z 0.000000 0.000000 1.667410 
# 
# From -- ./inp_files/4135.got.cif
#   From: 2010.03.12/outbox.cif.g09.slc.cpg/sg187_3_cif.got.tgz:4135.got - 2010.04.01 11:58:23.
