data_PCOD8327228
_publ_section_title
;
Structure prediction by ZEFSAII (Michael W. Deem and Ramdas Pophale) SiO2 
 PCOD8327228
Probable space group: P -6 M 2
;
_chemical_formula_sum "Si O2"
_cell_formula_units_Z 60
_cell_length_a 21.570939
_cell_length_b 21.570939
_cell_length_c 7.514378
_cell_angle_alpha 90.000000
_cell_angle_beta 90.000000
_cell_angle_gamma 120.000000
_cell_volume 3028.041137
_symmetry_space_group_name_H-M "P -6 M 2"
_symmetry_group_IT_number 187
_symmetry_cell_setting 'hexagonal'
loop_
_space_group_symop_operation_xyz
x,y,z
-x+y,-x,-z
-y,x-y,z
x,y,-z
-x+y,-x,z
-y,x-y,-z
-y,-x,-z
-x+y,y,-z
x,x-y,-z
-x+y,y,z
x,x-y,z
-y,-x,z
loop_
_atom_site_type_symbol
_atom_site_label
_atom_site_fract_x
_atom_site_fract_y
_atom_site_fract_z
Si Si1 0.815105 0.333805 0.500000
Si Si2 0.623395 0.743454 0.207138
Si Si3 0.145678 0.002389 0.500000
Si Si4 0.469969 0.665893 0.708042
Si Si5 0.761613 0.019236 0.788639
Si Si6 0.721034 0.585267 0.194844
O O1 0.736319 0.263682 0.500000
O O2 0.806871 0.403436 0.500000
O O3 0.862425 0.335711 0.669542
O O4 0.626100 0.813050 0.297523
O O5 0.546911 0.673603 0.249883
O O6 0.687219 0.734011 0.281863
O O7 0.634615 0.755716 0.000000
O O8 0.117167 0.058584 0.500000
O O9 0.193118 0.017271 0.321820
O O10 0.078055 0.921946 0.500000
O O11 0.457769 0.664289 0.500000
O O12 0.466525 0.733263 0.792904
O O13 0.407622 0.592379 0.794134
O O14 0.755233 0.088283 0.738243
O O15 0.776424 0.017233 0.000000
O O16 0.784018 0.568036 0.176990
O O17 0.684456 0.576675 0.000000
#
# Coordination Sequence:
#
# PCOD8327228 Si02
#       6
#     6  12   6  12  12  12
#     4  10  20  35  55  81 114 151 187 227 279 340
#     4   9  18  32  50  74 102 132 173 224 272 321
#     4  12  26  41  61  89 122 155 187 227 277 336
#     4   9  17  29  46  68  97 135 178 223 271 325
#     4  10  21  39  63  87 112 148 192 235 282 337
#     4   9  18  34  57  83 109 140 185 237 281 327
#
# _framework density 19.814789000000001
#
# number of rings (size 3 to 8) (size 9 to 14) (size 15 to 20)
#    0.000    2.400    0.000    2.200    1.400    4.800 
#    0.000    1.000    0.000    7.200    0.000    0.000 
#    0.000    0.000    0.000    0.000    0.000    0.000 
#
# Total GULP energy -743605.332152 kJ/mol
# GULP energy per Si atom -12393.422203 kJ/mol
# Density = 1.976969 g / cm^3
# Si number density = 19.814789 Si / 1000 Ang^3
#
#
#
# Elastic Constant Matrix: (Units=GPa)
#
#
# Indices 1 2 3 4 5 6 
#
# 1 94.9073 30.3605 38.5093 0.0000 -0.0005 0.0000
# 2 30.3605 94.9073 38.5093 0.0000 0.0005 0.0000
# 3 38.5093 38.5093 85.1251 0.0000 0.0000 0.0000
# 4 0.0000 0.0000 0.0000 18.1736 0.0000 0.0005
# 5 -0.0005 0.0005 0.0000 0.0000 18.1736 0.0000
# 6 0.0000 0.0000 0.0000 0.0005 0.0000 32.2734
#
#
#
# Elastic Compliance Matrix: (Units=1/GPa)
#
#
# Indices 1 2 3 4 5 6 
#
# 1 0.013276 -0.002217 -0.005003 0.000000 0.000000 0.000000
# 2 -0.002217 0.013276 -0.005003 0.000000 0.000000 0.000000
# 3 -0.005003 -0.005003 0.016274 0.000000 0.000000 0.000000
# 4 0.000000 0.000000 0.000000 0.055025 0.000000 -0.000001
# 5 0.000000 0.000000 0.000000 0.000000 0.055025 0.000000
# 6 0.000000 0.000000 0.000000 -0.000001 0.000000 0.030985
#
#
# Mechanical properties :
#
#
# Convention : Reuss Voigt Hill
#
# Bulk Modulus (GPa) = 54.40668 54.41087 54.40877
# Shear Modulus (GPa) = 23.31742 24.89485 24.10613
#
# Velocity S-wave (km/s) = 3.43413 3.54839 3.49172
# Velocity P-wave (km/s) = 6.57583 6.65638 6.61623
#
# Compressibility (1/GPa) = 0.01838010
#
# Stress axis : x y z
#
# Youngs Moduli (GPa) = 75.32556 75.32556 61.44840
#
# Poissons Ratio (x) = 0.16699 0.30742
# Poissons Ratio (y) = 0.16699 0.30742
# Poissons Ratio (z) = 0.37684 0.37684
#
# Static dielectric constant tensor:
#      x y z
#    x 3.638840 0.000000 0.000000 
#    y 0.000000 3.638840 0.000000 
#    z 0.000000 0.000000 3.743010 
# 
# 
# High freq. dielectric constant tensor:
#      x y z
#    x 1.760140 0.000000 0.000000 
#    y 0.000000 1.760140 0.000000 
#    z 0.000000 0.000000 1.774890 
# 
# From -- ./inp_files/658.got.cif
#   From: 2010.03.12/outbox.cif.g09.slc.cpg/sg187_1_cif.got.tgz:658.got - 2010.04.01 11:58:23.
