data_PCOD8327800
_publ_section_title
;
Structure prediction by ZEFSAII (Michael W. Deem and Ramdas Pophale) SiO2 
 PCOD8327800
Probable space group: P -6 2 M
;
_chemical_formula_sum "Si O2"
_cell_formula_units_Z 48
_cell_length_a 18.232033
_cell_length_b 18.232033
_cell_length_c 8.932122
_cell_angle_alpha 90.000000
_cell_angle_beta 90.000000
_cell_angle_gamma 120.000000
_cell_volume 2571.316132
_symmetry_space_group_name_H-M "P -6 2 M"
_symmetry_group_IT_number 189
_symmetry_cell_setting 'hexagonal'
loop_
_space_group_symop_operation_xyz
x,y,z
-x+y,-x,-z
-y,x-y,z
x,y,-z
-x+y,-x,z
-y,x-y,-z
x-y,-y,-z
-x,-x+y,-z
y,x,-z
y,x,z
x-y,-y,z
-x,-x+y,z
loop_
_atom_site_type_symbol
_atom_site_label
_atom_site_fract_x
_atom_site_fract_y
_atom_site_fract_z
Si Si1 0.240084 0.000000 0.174730
Si Si2 0.758702 0.602700 0.324201
Si Si3 0.093477 0.000000 0.333510
Si Si4 0.589388 0.491002 0.826025
Si Si5 0.903607 0.562433 0.672876
O O1 0.231726 0.916362 0.244669
O O2 0.153450 0.000000 0.204503
O O3 0.256922 0.000000 0.000000
O O4 0.749697 0.610443 0.500000
O O5 0.675641 0.519621 0.263971
O O6 0.841741 0.597531 0.283011
O O7 0.129883 0.000000 0.500000
O O8 0.000000 0.916665 0.316798
O O9 0.558032 0.558032 0.793692
O O10 0.520145 0.398280 0.771391
O O11 0.606313 0.486509 0.000000
O O12 0.892855 0.534911 0.500000
O O13 0.000000 0.635502 0.707069
#
# Coordination Sequence:
#
# PCOD8327800 Si02
#       5
#     6  12   6  12  12
#     4  12  24  36  56  88 123 156 197 246 296 352
#     4  11  22  37  60  87 115 155 200 243 287 343
#     4   8  18  38  60  80 109 154 201 244 292 348
#     4  10  20  36  59  85 115 150 186 234 290 346
#     4   9  20  39  61  85 113 148 192 239 286 343
#
# _framework density 18.667484000000002
#
# number of rings (size 3 to 8) (size 9 to 14) (size 15 to 20)
#    0.250    1.750    1.250    2.625    0.000    4.500 
#    1.500    2.500    0.000    0.000    0.000    0.000 
#    0.000    0.000    0.000    0.000    0.000    0.000 
#
# Total GULP energy -595285.305709 kJ/mol
# GULP energy per Si atom -12401.777202 kJ/mol
# Density = 1.862500 g / cm^3
# Si number density = 18.667484 Si / 1000 Ang^3
#
#
#
# Elastic Constant Matrix: (Units=GPa)
#
#
# Indices 1 2 3 4 5 6 
#
# 1 123.9592 71.9035 67.0083 0.0000 0.0000 0.0000
# 2 71.9035 123.9592 67.0083 0.0000 0.0000 0.0000
# 3 67.0083 67.0083 113.6191 0.0000 0.0000 0.0000
# 4 0.0000 0.0000 0.0000 22.6862 0.0000 0.0000
# 5 0.0000 0.0000 0.0000 0.0000 22.6862 0.0000
# 6 0.0000 0.0000 0.0000 0.0000 0.0000 26.0279
#
#
#
# Elastic Compliance Matrix: (Units=1/GPa)
#
#
# Indices 1 2 3 4 5 6 
#
# 1 0.013885 -0.005325 -0.005048 0.000000 0.000000 0.000000
# 2 -0.005325 0.013885 -0.005048 0.000000 0.000000 0.000000
# 3 -0.005048 -0.005048 0.014756 0.000000 0.000000 0.000000
# 4 0.000000 0.000000 0.000000 0.044080 0.000000 0.000000
# 5 0.000000 0.000000 0.000000 0.000000 0.044080 0.000000
# 6 0.000000 0.000000 0.000000 0.000000 0.000000 0.038420
#
#
# Mechanical properties :
#
#
# Convention : Reuss Voigt Hill
#
# Bulk Modulus (GPa) = 85.59822 85.93085 85.76453
# Shear Modulus (GPa) = 24.52865 24.65454 24.59159
#
# Velocity S-wave (km/s) = 3.62881 3.63812 3.63347
# Velocity P-wave (km/s) = 7.96941 7.98625 7.97783
#
# Compressibility (1/GPa) = 0.01168249
#
# Stress axis : x y z
#
# Youngs Moduli (GPa) = 72.02017 72.02017 67.76960
#
# Poissons Ratio (x) = 0.38352 0.34212
# Poissons Ratio (y) = 0.38352 0.34212
# Poissons Ratio (z) = 0.36358 0.36358
#
# Static dielectric constant tensor:
#      x y z
#    x 3.433290 0.000000 0.000000 
#    y 0.000000 3.433290 0.000000 
#    z 0.000000 0.000000 3.491350 
# 
# 
# High freq. dielectric constant tensor:
#      x y z
#    x 1.721310 0.000000 0.000000 
#    y 0.000000 1.721310 0.000000 
#    z 0.000000 0.000000 1.730910 
# 
# From -- ./inp_files/641.got.cif
#   From: 2010.03.12/outbox.cif.g09.slc.cpg/sg189_1_cif.got.tgz:641.got - 2010.04.01 12:03:36.
