data_PCOD8327458
_publ_section_title
;
Structure prediction by ZEFSAII (Michael W. Deem and Ramdas Pophale) SiO2 
 PCOD8327458
Probable space group: P -6 C 2
;
_chemical_formula_sum "Si O2"
_cell_formula_units_Z 72
_cell_length_a 14.244424
_cell_length_b 14.244424
_cell_length_c 16.785414
_cell_angle_alpha 90.000000
_cell_angle_beta 90.000000
_cell_angle_gamma 120.000000
_cell_volume 2949.527664
_symmetry_space_group_name_H-M "P -6 C 2"
_symmetry_group_IT_number 188
_symmetry_cell_setting 'hexagonal'
loop_
_space_group_symop_operation_xyz
x,y,z
-x+y,-x,1/2-z
-y,x-y,z
x,y,1/2-z
-x+y,-x,z
-y,x-y,1/2-z
-y,-x,-z
-x+y,y,-z
x,x-y,-z
-x+y,y,1/2+z
x,x-y,1/2+z
-y,-x,1/2+z
loop_
_atom_site_type_symbol
_atom_site_label
_atom_site_fract_x
_atom_site_fract_y
_atom_site_fract_z
Si Si1 0.189331 0.751469 0.658364
Si Si2 0.461460 0.585290 0.589873
Si Si3 0.751470 0.562138 0.841636
Si Si4 0.191475 0.968463 0.407102
Si Si5 0.538541 0.414712 0.910127
Si Si6 0.223012 0.191475 0.092898
O O1 0.194273 0.783469 0.750000
O O2 0.292672 0.848386 0.611930
O O3 0.193019 0.640935 0.648025
O O4 0.074778 0.727335 0.617709
O O5 0.420715 0.579285 0.500000
O O6 0.500002 0.500001 0.605285
O O7 0.783471 0.589197 0.750000
O O8 0.640936 0.447916 0.851975
O O9 0.848387 0.555714 0.888070
O O10 0.727335 0.652556 0.882291
O O11 0.079200 0.870727 0.369694
O O12 0.208472 0.079200 0.369694
O O13 0.203037 0.000000 0.500000
O O14 0.579286 0.420715 0.000000
#
# Coordination Sequence:
#
# PCOD8327458 Si02
#       6
#    12  12  12  12  12  12
#     4  12  26  45  70 104 145 186 234 296 364 425
#     4  11  26  44  72  99 137 186 236 291 345 425
#     4  12  26  45  70 104 145 186 234 296 364 425
#     4  10  23  41  71 100 139 184 238 294 354 429
#     4  11  26  44  72  99 137 186 236 291 345 425
#     4  10  23  41  71 100 139 184 238 294 354 429
#
# _framework density 24.410689000000001
#
# number of rings (size 3 to 8) (size 9 to 14) (size 15 to 20)
#    0.000    1.000    0.000    5.000   14.000    8.000 
#    0.000    0.000    0.000    2.000    0.000    0.000 
#    0.000    0.000    0.000    0.000    0.000    0.000 
#
# Total GULP energy -892311.277628 kJ/mol
# GULP energy per Si atom -12393.212189 kJ/mol
# Density = 2.435513 g / cm^3
# Si number density = 24.410689 Si / 1000 Ang^3
#
#
#
# Elastic Constant Matrix: (Units=GPa)
#
#
# Indices 1 2 3 4 5 6 
#
# 1 105.2524 16.3162 47.2208 0.0000 0.0000 0.0000
# 2 16.3162 105.2524 47.2208 0.0000 0.0000 0.0000
# 3 47.2208 47.2208 115.8694 0.0000 0.0000 0.0000
# 4 0.0000 0.0000 0.0000 24.5332 0.0000 0.0000
# 5 0.0000 0.0000 0.0000 0.0000 24.5332 0.0000
# 6 0.0000 0.0000 0.0000 0.0000 0.0000 44.4681
#
#
#
# Elastic Compliance Matrix: (Units=1/GPa)
#
#
# Indices 1 2 3 4 5 6 
#
# 1 0.011640 0.000396 -0.004905 0.000000 0.000000 0.000000
# 2 0.000396 0.011640 -0.004905 0.000000 0.000000 0.000000
# 3 -0.004905 -0.004905 0.012629 0.000000 0.000000 0.000000
# 4 0.000000 0.000000 0.000000 0.040761 0.000000 0.000000
# 5 0.000000 0.000000 0.000000 0.000000 0.040761 0.000000
# 6 0.000000 0.000000 0.000000 0.000000 0.000000 0.022488
#
#
# Mechanical properties :
#
#
# Convention : Reuss Voigt Hill
#
# Bulk Modulus (GPa) = 58.54658 60.87665 59.71161
# Shear Modulus (GPa) = 30.40593 33.08131 31.74362
#
# Velocity S-wave (km/s) = 3.53313 3.68529 3.61002
# Velocity P-wave (km/s) = 6.37810 6.56515 6.47230
#
# Compressibility (1/GPa) = 0.01708042
#
# Stress axis : x y z
#
# Youngs Moduli (GPa) = 85.90862 85.90862 79.18554
#
# Poissons Ratio (x) = -0.03404 0.38843
# Poissons Ratio (y) = -0.03404 0.38843
# Poissons Ratio (z) = 0.42141 0.42141
#
# Static dielectric constant tensor:
#      x y z
#    x 4.621050 0.000000 0.000000 
#    y 0.000000 4.621050 0.000000 
#    z 0.000000 0.000000 3.912040 
# 
# 
# High freq. dielectric constant tensor:
#      x y z
#    x 1.985050 0.000000 0.000000 
#    y 0.000000 1.985050 0.000000 
#    z 0.000000 0.000000 1.939040 
# 
# From -- ./inp_files/3200.got.cif
#   From: 2010.03.12/outbox.cif.g09.slc.cpg/sg188_2_cif.got.tgz:3200.got - 2010.04.01 12:01:06.
