data_PCOD8327193
_publ_section_title
;
Structure prediction by ZEFSAII (Michael W. Deem and Ramdas Pophale) SiO2 
 PCOD8327193
Probable space group: P -6 M 2
;
_chemical_formula_sum "Si O2"
_cell_formula_units_Z 72
_cell_length_a 12.432824
_cell_length_b 12.432824
_cell_length_c 30.696076
_cell_angle_alpha 90.000000
_cell_angle_beta 90.000000
_cell_angle_gamma 120.000000
_cell_volume 4109.160121
_symmetry_space_group_name_H-M "P -6 M 2"
_symmetry_group_IT_number 187
_symmetry_cell_setting 'hexagonal'
loop_
_space_group_symop_operation_xyz
x,y,z
-x+y,-x,-z
-y,x-y,z
x,y,-z
-x+y,-x,z
-y,x-y,-z
-y,-x,-z
-x+y,y,-z
x,x-y,-z
-x+y,y,z
x,x-y,z
-y,-x,z
loop_
_atom_site_type_symbol
_atom_site_label
_atom_site_fract_x
_atom_site_fract_y
_atom_site_fract_z
Si Si1 0.081190 0.666516 0.082931
Si Si2 0.668692 0.585393 0.500000
Si Si3 0.665755 0.584738 0.000000
Si Si4 0.999630 0.251381 0.165503
Si Si5 0.082553 0.666711 0.667953
Si Si6 0.917459 0.583889 0.751413
Si Si7 0.748271 0.999740 0.583931
O O1 0.105453 0.552727 0.085346
O O2 0.211649 0.788352 0.076120
O O3 0.014792 0.670105 0.127062
O O4 0.995536 0.655842 0.042544
O O5 0.535009 0.464992 0.500000
O O6 0.771840 0.543679 0.500000
O O7 0.681481 0.666585 0.458033
O O8 0.556965 0.443036 0.000000
O O9 0.793754 0.587508 0.000000
O O10 0.877840 0.122161 0.155843
O O11 0.991523 0.311009 0.210567
O O12 0.113540 0.227079 0.168188
O O13 0.108989 0.554495 0.661778
O O14 0.211221 0.788780 0.678908
O O15 0.987922 0.642832 0.706758
O O16 0.020634 0.680706 0.624477
O O17 0.777957 0.555913 0.746946
O O18 0.913051 0.456526 0.762664
O O19 0.880526 0.119475 0.592811
O O20 0.769899 0.884950 0.576267
#
# Coordination Sequence:
#
# PCOD8327193 Si02
#       7
#    12   6   6  12  12  12  12
#     4  10  20  34  53  76 102 132 166 205 248 294
#     4  10  20  34  52  74 100 130 164 202 244 290
#     4  10  20  34  52  74 100 130 164 202 244 290
#     4  10  20  34  52  74 101 133 168 206 249 298
#     4  10  20  34  52  74 101 133 168 206 249 298
#     4  10  20  34  52  74 100 130 166 208 254 302
#     4  10  20  34  53  76 102 132 166 205 248 294
#
# _framework density 17.521827999999999
#
# number of rings (size 3 to 8) (size 9 to 14) (size 15 to 20)
#    0.000    2.000    0.000    4.000    0.000    0.000 
#    0.000    1.667    0.000   26.000    0.000    0.000 
#    0.000    0.000    0.000    0.000    0.000    0.000 
#
# Total GULP energy -893117.295256 kJ/mol
# GULP energy per Si atom -12404.406879 kJ/mol
# Density = 1.748195 g / cm^3
# Si number density = 17.521828 Si / 1000 Ang^3
#
#
#
# Elastic Constant Matrix: (Units=GPa)
#
#
# Indices 1 2 3 4 5 6 
#
# 1 69.0788 30.2939 36.5042 0.0000 0.0000 0.0000
# 2 30.2939 69.0788 36.5042 0.0000 0.0000 0.0000
# 3 36.5042 36.5042 83.2296 0.0000 0.0000 0.0000
# 4 0.0000 0.0000 0.0000 28.4959 0.0000 0.0000
# 5 0.0000 0.0000 0.0000 0.0000 28.4959 0.0000
# 6 0.0000 0.0000 0.0000 0.0000 0.0000 19.3924
#
#
#
# Elastic Compliance Matrix: (Units=1/GPa)
#
#
# Indices 1 2 3 4 5 6 
#
# 1 0.020315 -0.005468 -0.006512 0.000000 0.000000 0.000000
# 2 -0.005468 0.020315 -0.006512 0.000000 0.000000 0.000000
# 3 -0.006512 -0.006512 0.017727 0.000000 0.000000 0.000000
# 4 0.000000 0.000000 0.000000 0.035093 0.000000 0.000000
# 5 0.000000 0.000000 0.000000 0.000000 0.035093 0.000000
# 6 0.000000 0.000000 0.000000 0.000000 0.000000 0.051567
#
#
# Mechanical properties :
#
#
# Convention : Reuss Voigt Hill
#
# Bulk Modulus (GPa) = 46.78572 47.55465 47.17019
# Shear Modulus (GPa) = 22.29964 23.14915 22.72439
#
# Velocity S-wave (km/s) = 3.57133 3.63872 3.60518
# Velocity P-wave (km/s) = 6.61553 6.69723 6.65650
#
# Compressibility (1/GPa) = 0.02137404
#
# Stress axis : x y z
#
# Youngs Moduli (GPa) = 49.22379 49.22379 56.41019
#
# Poissons Ratio (x) = 0.26915 0.36735
# Poissons Ratio (y) = 0.26915 0.36735
# Poissons Ratio (z) = 0.32055 0.32055
#
# Static dielectric constant tensor:
#      x y z
#    x 3.288260 0.000000 0.000000 
#    y 0.000000 3.288260 0.000000 
#    z 0.000000 0.000000 3.393130 
# 
# 
# High freq. dielectric constant tensor:
#      x y z
#    x 1.687990 0.000000 0.000000 
#    y 0.000000 1.687990 0.000000 
#    z 0.000000 0.000000 1.693890 
# 
# From -- ./inp_files/4568.got.cif
#   From: 2010.03.12/outbox.cif.g09.slc.cpg/sg187_3_cif.got.tgz:4568.got - 2010.04.01 11:58:23.
