data_PCOD8327115
_publ_section_title
;
Structure prediction by ZEFSAII (Michael W. Deem and Ramdas Pophale) SiO2 
 PCOD8327115
Probable space group: P -6 M 2
;
_chemical_formula_sum "Si O2"
_cell_formula_units_Z 66
_cell_length_a 12.460453
_cell_length_b 12.460453
_cell_length_c 28.770504
_cell_angle_alpha 90.000000
_cell_angle_beta 90.000000
_cell_angle_gamma 120.000000
_cell_volume 3868.528176
_symmetry_space_group_name_H-M "P -6 M 2"
_symmetry_group_IT_number 187
_symmetry_cell_setting 'hexagonal'
loop_
_space_group_symop_operation_xyz
x,y,z
-x+y,-x,-z
-y,x-y,z
x,y,-z
-x+y,-x,z
-y,x-y,-z
-y,-x,-z
-x+y,y,-z
x,x-y,-z
-x+y,y,z
x,x-y,z
-y,-x,z
loop_
_atom_site_type_symbol
_atom_site_label
_atom_site_fract_x
_atom_site_fract_y
_atom_site_fract_z
Si Si1 0.331946 0.916989 0.000000
Si Si2 0.331799 0.415700 0.176584
Si Si3 0.250316 0.998676 0.911440
Si Si4 0.664507 0.578316 0.450865
Si Si5 0.665410 0.583937 0.350340
Si Si6 0.750146 0.999245 0.264370
O O1 0.323609 0.986353 0.954691
O O2 0.226055 0.773946 0.000000
O O3 0.461922 0.923844 0.000000
O O4 0.227755 0.455510 0.173134
O O5 0.463962 0.536039 0.171689
O O6 0.315688 0.322161 0.135637
O O7 0.324853 0.350530 0.225231
O O8 0.107108 0.892893 0.912443
O O9 0.257657 0.128829 0.914585
O O10 0.640444 0.632134 0.500000
O O11 0.800367 0.600733 0.454434
O O12 0.568051 0.431950 0.448095
O O13 0.652967 0.635529 0.401574
O O14 0.776483 0.552966 0.350794
O O15 0.540124 0.459877 0.336294
O O16 0.690976 0.690649 0.313792
O O17 0.871887 0.128114 0.253238
O O18 0.787412 0.893706 0.265107
#
# Coordination Sequence:
#
# PCOD8327115 Si02
#       6
#     6  12  12  12  12  12
#     4  10  20  34  54  78 104 134 168 208 250 290
#     4  10  20  34  53  75  98 123 152 191 238 286
#     4  10  20  34  54  78 104 134 167 204 241 279
#     4   8  12  18  31  54  84 115 144 175 215 266
#     4   9  16  26  42  65  92 119 146 180 226 279
#     4  10  20  33  49  67  89 120 157 196 233 271
#
# _framework density 17.060751
#
# number of rings (size 3 to 8) (size 9 to 14) (size 15 to 20)
#    0.000    2.545    0.000    2.909    0.000    2.182 
#    0.000    4.545    0.000   10.727    0.000    0.000 
#    0.000    1.455    0.000    0.000    0.000    0.000 
#
# Total GULP energy -817866.372723 kJ/mol
# GULP energy per Si atom -12391.914738 kJ/mol
# Density = 1.702192 g / cm^3
# Si number density = 17.060751 Si / 1000 Ang^3
#
#
#
# Elastic Constant Matrix: (Units=GPa)
#
#
# Indices 1 2 3 4 5 6 
#
# 1 83.5450 51.9985 46.3965 0.0000 0.0000 0.0000
# 2 51.9985 83.5450 46.3965 0.0000 0.0000 0.0000
# 3 46.3965 46.3965 141.3726 0.0000 0.0000 0.0000
# 4 0.0000 0.0000 0.0000 19.9974 0.0000 0.0000
# 5 0.0000 0.0000 0.0000 0.0000 19.9974 0.0000
# 6 0.0000 0.0000 0.0000 0.0000 0.0000 15.7732
#
#
#
# Elastic Compliance Matrix: (Units=1/GPa)
#
#
# Indices 1 2 3 4 5 6 
#
# 1 0.020607 -0.011092 -0.003123 0.000000 0.000000 0.000000
# 2 -0.011092 0.020607 -0.003123 0.000000 0.000000 0.000000
# 3 -0.003123 -0.003123 0.009123 0.000000 0.000000 0.000000
# 4 0.000000 0.000000 0.000000 0.050006 0.000000 0.000000
# 5 0.000000 0.000000 0.000000 0.000000 0.050006 0.000000
# 6 0.000000 0.000000 0.000000 0.000000 0.000000 0.063399
#
#
# Mechanical properties :
#
#
# Convention : Reuss Voigt Hill
#
# Bulk Modulus (GPa) = 63.84483 66.44949 65.14716
# Shear Modulus (GPa) = 19.71252 22.06502 20.88877
#
# Velocity S-wave (km/s) = 3.40285 3.60018 3.50290
# Velocity P-wave (km/s) = 7.27616 7.50433 7.39113
#
# Compressibility (1/GPa) = 0.01566298
#
# Stress axis : x y z
#
# Youngs Moduli (GPa) = 48.52613 48.52613 109.60961
#
# Poissons Ratio (x) = 0.53824 0.34230
# Poissons Ratio (y) = 0.53824 0.34230
# Poissons Ratio (z) = 0.15154 0.15154
#
# Static dielectric constant tensor:
#      x y z
#    x 2.924290 0.000000 0.000000 
#    y 0.000000 2.924290 0.000000 
#    z 0.000000 0.000000 3.795870 
# 
# 
# High freq. dielectric constant tensor:
#      x y z
#    x 1.634750 0.000000 0.000000 
#    y 0.000000 1.634750 0.000000 
#    z 0.000000 0.000000 1.690770 
# 
# From -- ./inp_files/4401.got.cif
#   From: 2010.03.12/outbox.cif.g09.slc.cpg/sg187_3_cif.got.tgz:4401.got - 2010.04.01 11:58:23.
