data_PCOD8327269
_publ_section_title
;
Structure prediction by ZEFSAII (Michael W. Deem and Ramdas Pophale) SiO2 
 PCOD8327269
Probable space group: P -6 M 2
;
_chemical_formula_sum "Si O2"
_cell_formula_units_Z 38
_cell_length_a 11.501157
_cell_length_b 11.501157
_cell_length_c 17.163542
_cell_angle_alpha 90.000000
_cell_angle_beta 90.000000
_cell_angle_gamma 120.000000
_cell_volume 1966.167951
_symmetry_space_group_name_H-M "P -6 M 2"
_symmetry_group_IT_number 187
_symmetry_cell_setting 'hexagonal'
loop_
_space_group_symop_operation_xyz
x,y,z
-x+y,-x,-z
-y,x-y,z
x,y,-z
-x+y,-x,z
-y,x-y,-z
-y,-x,-z
-x+y,y,-z
x,x-y,-z
-x+y,y,z
x,x-y,z
-y,-x,z
loop_
_atom_site_type_symbol
_atom_site_label
_atom_site_fract_x
_atom_site_fract_y
_atom_site_fract_z
Si Si1 0.303061 0.151531 0.907601
Si Si2 0.000000 0.000000 0.907864
Si Si3 0.331878 0.932877 0.826360
Si Si4 0.397178 0.061133 0.667949
Si Si5 0.934142 0.598151 0.500000
O O1 0.150685 0.075343 0.876359
O O2 0.370638 0.302147 0.874263
O O3 0.316426 0.158213 0.000000
O O4 0.000000 0.000000 0.000000
O O5 0.449532 0.899063 0.840304
O O6 0.193016 0.806985 0.856697
O O7 0.314452 0.954263 0.734954
O O8 0.554283 0.108565 0.676814
O O9 0.380148 0.190074 0.677903
O O10 0.340927 0.989024 0.582530
O O11 0.809743 0.619486 0.500000
O O12 0.880279 0.440140 0.500000
#
# Coordination Sequence:
#
# PCOD8327269 Si02
#       5
#     6   2  12  12   6
#     4  11  22  40  64  87 111 142 186 239 290 342
#     4   9  18  36  66  90 105 130 182 244 282 330
#     4  11  23  39  59  85 119 156 193 232 281 340
#     4   9  16  28  49  78 111 146 186 234 284 335
#     4   8  13  22  41  72 108 144 182 227 281 334
#
# _framework density 19.326934999999999
#
# number of rings (size 3 to 8) (size 9 to 14) (size 15 to 20)
#    0.000    2.211    3.158    0.789    0.000    3.158 
#    0.947    0.789    0.000    1.895    0.000    2.211 
#    0.000    0.000    0.000    0.000    0.000    0.000 
#
# Total GULP energy -470808.930215 kJ/mol
# GULP energy per Si atom -12389.708690 kJ/mol
# Density = 1.928295 g / cm^3
# Si number density = 19.326935 Si / 1000 Ang^3
#
#
#
# Elastic Constant Matrix: (Units=GPa)
#
#
# Indices 1 2 3 4 5 6 
#
# 1 67.1225 28.0418 29.0058 0.0000 0.0001 0.0000
# 2 28.0418 67.1225 29.0058 0.0000 -0.0001 0.0000
# 3 29.0058 29.0058 118.2898 0.0000 0.0000 0.0000
# 4 0.0000 0.0000 0.0000 21.4033 0.0000 -0.0001
# 5 0.0001 -0.0001 0.0000 0.0000 21.4033 0.0000
# 6 0.0000 0.0000 0.0000 -0.0001 0.0000 19.5404
#
#
#
# Elastic Compliance Matrix: (Units=1/GPa)
#
#
# Indices 1 2 3 4 5 6 
#
# 1 0.018971 -0.006617 -0.003030 0.000000 0.000000 0.000000
# 2 -0.006617 0.018971 -0.003030 0.000000 0.000000 0.000000
# 3 -0.003030 -0.003030 0.009940 0.000000 0.000000 0.000000
# 4 0.000000 0.000000 0.000000 0.046722 0.000000 0.000000
# 5 0.000000 0.000000 0.000000 0.000000 0.046722 0.000000
# 6 0.000000 0.000000 0.000000 0.000000 0.000000 0.051176
#
#
# Mechanical properties :
#
#
# Convention : Reuss Voigt Hill
#
# Bulk Modulus (GPa) = 44.38281 47.18239 45.78260
# Shear Modulus (GPa) = 22.18632 23.56814 22.87723
#
# Velocity S-wave (km/s) = 3.39181 3.49584 3.44422
# Velocity P-wave (km/s) = 6.19300 6.38438 6.28942
#
# Compressibility (1/GPa) = 0.02253125
#
# Stress axis : x y z
#
# Youngs Moduli (GPa) = 52.71065 52.71065 100.60802
#
# Poissons Ratio (x) = 0.34876 0.30480
# Poissons Ratio (y) = 0.34876 0.30480
# Poissons Ratio (z) = 0.15969 0.15969
#
# Static dielectric constant tensor:
#      x y z
#    x 3.241950 0.000000 0.000000 
#    y 0.000000 3.241950 0.000000 
#    z 0.000000 0.000000 3.948940 
# 
# 
# High freq. dielectric constant tensor:
#      x y z
#    x 1.726120 0.000000 0.000000 
#    y 0.000000 1.726120 0.000000 
#    z 0.000000 0.000000 1.768310 
# 
# From -- ./inp_files/2875.got.cif
#   From: 2010.03.12/outbox.cif.g09.slc.cpg/sg187_2_cif.got.tgz:2875.got - 2010.04.01 11:58:23.
