data_PCOD8327048
_publ_section_title
;
Structure prediction by ZEFSAII (Michael W. Deem and Ramdas Pophale) SiO2 
 PCOD8327048
Probable space group: P -6 M 2
;
_chemical_formula_sum "Si O2"
_cell_formula_units_Z 66
_cell_length_a 12.762773
_cell_length_b 12.762773
_cell_length_c 27.871787
_cell_angle_alpha 90.000000
_cell_angle_beta 90.000000
_cell_angle_gamma 120.000000
_cell_volume 3931.746745
_symmetry_space_group_name_H-M "P -6 M 2"
_symmetry_group_IT_number 187
_symmetry_cell_setting 'hexagonal'
loop_
_space_group_symop_operation_xyz
x,y,z
-x+y,-x,-z
-y,x-y,z
x,y,-z
-x+y,-x,z
-y,x-y,-z
-y,-x,-z
-x+y,y,-z
x,x-y,-z
-x+y,y,z
x,x-y,z
-y,-x,z
loop_
_atom_site_type_symbol
_atom_site_label
_atom_site_fract_x
_atom_site_fract_y
_atom_site_fract_z
Si Si1 0.247245 0.245317 0.500000
Si Si2 0.668268 0.088845 0.412174
Si Si3 0.578152 0.667436 0.862903
Si Si4 0.757828 0.999435 0.945543
Si Si5 0.241220 0.999879 0.670812
Si Si6 0.759758 0.759938 0.780030
O O1 0.127518 0.255036 0.500000
O O2 0.326174 0.313017 0.546350
O O3 0.209213 0.104607 0.500000
O O4 0.538716 0.077431 0.417908
O O5 0.770325 0.229676 0.415221
O O6 0.673924 0.030652 0.361696
O O7 0.544597 0.772299 0.864796
O O8 0.458187 0.541814 0.862095
O O9 0.651963 0.670347 0.910030
O O10 0.650553 0.675368 0.814784
O O11 0.793200 0.896600 0.936756
O O12 0.713439 0.995550 0.000000
O O13 0.874300 0.125701 0.933308
O O14 0.201546 0.100773 0.664079
O O15 0.280357 0.997435 0.725494
O O16 0.127983 0.872017 0.655294
O O17 0.872046 0.744091 0.794089
O O18 0.800182 0.900091 0.787338
#
# Coordination Sequence:
#
# PCOD8327048 Si02
#       6
#     6  12  12  12  12  12
#     4  10  20  34  54  78 100 122 152 196 248 294
#     4  10  20  33  50  71  97 130 165 198 229 268
#     4  10  20  32  46  65  92 127 163 195 226 266
#     4   9  17  30  50  75  98 118 144 185 238 288
#     4   9  17  30  50  75 100 124 152 192 242 290
#     4   9  17  30  50  75  98 120 150 193 245 292
#
# _framework density 16.786432999999999
#
# number of rings (size 3 to 8) (size 9 to 14) (size 15 to 20)
#    0.000    2.545    0.000    2.364    0.000    3.273 
#    0.000    4.545    0.000    9.091    0.000    0.000 
#    0.000    0.000    0.000    0.000    0.000    0.000 
#
# Total GULP energy -818499.011928 kJ/mol
# GULP energy per Si atom -12401.500181 kJ/mol
# Density = 1.674823 g / cm^3
# Si number density = 16.786433 Si / 1000 Ang^3
#
#
#
# Elastic Constant Matrix: (Units=GPa)
#
#
# Indices 1 2 3 4 5 6 
#
# 1 115.9849 70.1370 68.7588 0.0000 0.0001 0.0000
# 2 70.1370 115.9849 68.7588 0.0000 -0.0001 0.0000
# 3 68.7588 68.7588 123.7429 0.0000 0.0000 0.0000
# 4 0.0000 0.0000 0.0000 20.8623 0.0000 -0.0001
# 5 0.0001 -0.0001 0.0000 0.0000 20.8623 0.0000
# 6 0.0000 0.0000 0.0000 -0.0001 0.0000 22.9239
#
#
#
# Elastic Compliance Matrix: (Units=1/GPa)
#
#
# Indices 1 2 3 4 5 6 
#
# 1 0.015463 -0.006348 -0.005065 0.000000 0.000000 0.000000
# 2 -0.006348 0.015463 -0.005065 0.000000 0.000000 0.000000
# 3 -0.005065 -0.005065 0.013710 0.000000 0.000000 0.000000
# 4 0.000000 0.000000 0.000000 0.047933 0.000000 0.000000
# 5 0.000000 0.000000 0.000000 0.000000 0.047933 0.000000
# 6 0.000000 0.000000 0.000000 0.000000 0.000000 0.043623
#
#
# Mechanical properties :
#
#
# Convention : Reuss Voigt Hill
#
# Bulk Modulus (GPa) = 85.61206 85.66910 85.64058
# Shear Modulus (GPa) = 22.62702 22.80023 22.71363
#
# Velocity S-wave (km/s) = 3.67541 3.68945 3.68243
# Velocity P-wave (km/s) = 8.31402 8.32435 8.31919
#
# Compressibility (1/GPa) = 0.01168060
#
# Stress axis : x y z
#
# Youngs Moduli (GPa) = 64.66991 64.66991 72.94001
#
# Poissons Ratio (x) = 0.41053 0.36943
# Poissons Ratio (y) = 0.41053 0.36943
# Poissons Ratio (z) = 0.32754 0.32754
#
# Static dielectric constant tensor:
#      x y z
#    x 2.944520 0.000000 0.000000 
#    y 0.000000 2.944520 0.000000 
#    z 0.000000 0.000000 3.545070 
# 
# 
# High freq. dielectric constant tensor:
#      x y z
#    x 1.631860 0.000000 0.000000 
#    y 0.000000 1.631860 0.000000 
#    z 0.000000 0.000000 1.667230 
# 
# From -- ./inp_files/4382.got.cif
#   From: 2010.03.12/outbox.cif.g09.slc.cpg/sg187_3_cif.got.tgz:4382.got - 2010.04.01 11:58:23.
