data_PCOD8327427
_publ_section_title
;
Structure prediction by ZEFSAII (Michael W. Deem and Ramdas Pophale) SiO2 
 PCOD8327427
Probable space group: P -6 C 2
;
_chemical_formula_sum "Si O2"
_cell_formula_units_Z 66
_cell_length_a 19.971970
_cell_length_b 19.971970
_cell_length_c 9.468603
_cell_angle_alpha 90.000000
_cell_angle_beta 90.000000
_cell_angle_gamma 120.000000
_cell_volume 3270.832840
_symmetry_space_group_name_H-M "P -6 C 2"
_symmetry_group_IT_number 188
_symmetry_cell_setting 'hexagonal'
loop_
_space_group_symop_operation_xyz
x,y,z
-x+y,-x,1/2-z
-y,x-y,z
x,y,1/2-z
-x+y,-x,z
-y,x-y,1/2-z
-y,-x,-z
-x+y,y,-z
x,x-y,-z
-x+y,y,1/2+z
x,x-y,1/2+z
-y,-x,1/2+z
loop_
_atom_site_type_symbol
_atom_site_label
_atom_site_fract_x
_atom_site_fract_y
_atom_site_fract_z
Si Si1 0.252511 0.126256 0.000000
Si Si2 0.918448 0.627551 0.095398
Si Si3 0.041671 0.201463 0.406893
Si Si4 0.060797 0.360649 0.414097
Si Si5 0.468825 0.665413 0.079341
Si Si6 0.663817 0.456794 0.915471
O O1 0.305587 0.201356 0.093379
O O2 0.198384 0.051057 0.093673
O O3 0.951219 0.627739 0.250000
O O4 0.841985 0.548032 0.063774
O O5 0.984037 0.634757 0.989085
O O6 0.072091 0.205465 0.250000
O O7 0.082309 0.164618 0.500000
O O8 0.071132 0.288786 0.462732
O O9 0.042350 0.354744 0.250000
O O10 0.134844 0.442072 0.453275
O O11 0.453230 0.661206 0.250000
O O12 0.416434 0.583567 0.000000
O O13 0.448738 0.724369 0.000000
O O14 0.653747 0.433298 0.750000
O O15 0.582201 0.417800 0.000000
O O16 0.713191 0.426381 0.000000
#
# Coordination Sequence:
#
# PCOD8327427 Si02
#       6
#     6  12  12  12  12  12
#     4  10  20  40  62  88 118 156 206 250 296 362
#     4  10  21  37  62  90 116 153 202 250 303 357
#     4  10  21  37  60  88 118 153 193 243 296 353
#     4   9  21  39  60  86 118 154 194 242 297 351
#     4  11  23  40  61  87 119 158 199 244 296 356
#     4  11  23  39  58  84 116 157 200 248 302 359
#
# _framework density 20.178346999999999
#
# number of rings (size 3 to 8) (size 9 to 14) (size 15 to 20)
#    0.000    1.818    0.909    2.545    0.000    8.000 
#    0.545    3.636    0.000    0.000    0.000    0.000 
#    0.000    0.000    0.000    0.000    0.000    0.000 
#
# Total GULP energy -818095.288733 kJ/mol
# GULP energy per Si atom -12395.383163 kJ/mol
# Density = 2.013242 g / cm^3
# Si number density = 20.178347 Si / 1000 Ang^3
#
#
#
# Elastic Constant Matrix: (Units=GPa)
#
#
# Indices 1 2 3 4 5 6 
#
# 1 92.5732 43.4774 47.6029 0.0000 0.0000 0.0000
# 2 43.4774 92.5732 47.6029 0.0000 0.0000 0.0000
# 3 47.6029 47.6029 108.8824 0.0000 0.0000 0.0000
# 4 0.0000 0.0000 0.0000 32.5295 0.0000 0.0000
# 5 0.0000 0.0000 0.0000 0.0000 32.5295 0.0000
# 6 0.0000 0.0000 0.0000 0.0000 0.0000 24.5479
#
#
#
# Elastic Compliance Matrix: (Units=1/GPa)
#
#
# Indices 1 2 3 4 5 6 
#
# 1 0.015479 -0.004889 -0.004630 0.000000 0.000000 0.000000
# 2 -0.004889 0.015479 -0.004630 0.000000 0.000000 0.000000
# 3 -0.004630 -0.004630 0.013233 0.000000 0.000000 0.000000
# 4 0.000000 0.000000 0.000000 0.030741 0.000000 0.000000
# 5 0.000000 0.000000 0.000000 0.000000 0.030741 0.000000
# 6 0.000000 0.000000 0.000000 0.000000 0.000000 0.040737
#
#
# Mechanical properties :
#
#
# Convention : Reuss Voigt Hill
#
# Bulk Modulus (GPa) = 62.92050 63.48839 63.20444
# Shear Modulus (GPa) = 27.77681 28.27775 28.02728
#
# Velocity S-wave (km/s) = 3.71423 3.74758 3.73094
# Velocity P-wave (km/s) = 7.04584 7.08927 7.06759
#
# Compressibility (1/GPa) = 0.01589307
#
# Stress axis : x y z
#
# Youngs Moduli (GPa) = 64.60258 64.60258 75.57070
#
# Poissons Ratio (x) = 0.31585 0.34989
# Poissons Ratio (y) = 0.31585 0.34989
# Poissons Ratio (z) = 0.29911 0.29911
#
# Static dielectric constant tensor:
#      x y z
#    x 3.635160 0.000000 0.000000 
#    y 0.000000 3.635160 0.000000 
#    z 0.000000 0.000000 3.675960 
# 
# 
# High freq. dielectric constant tensor:
#      x y z
#    x 1.784720 0.000000 0.000000 
#    y 0.000000 1.784720 0.000000 
#    z 0.000000 0.000000 1.794140 
# 
# From -- ./inp_files/772.got.cif
#   From: 2010.03.12/outbox.cif.g09.slc.cpg/sg188_1_cif.got.tgz:772.got - 2010.04.01 12:01:06.
