data_PCOD8327172
_publ_section_title
;
Structure prediction by ZEFSAII (Michael W. Deem and Ramdas Pophale) SiO2 
 PCOD8327172
Probable space group: P -6 M 2
;
_chemical_formula_sum "Si O2"
_cell_formula_units_Z 66
_cell_length_a 12.653449
_cell_length_b 12.653449
_cell_length_c 28.192183
_cell_angle_alpha 90.000000
_cell_angle_beta 90.000000
_cell_angle_gamma 120.000000
_cell_volume 3909.103556
_symmetry_space_group_name_H-M "P -6 M 2"
_symmetry_group_IT_number 187
_symmetry_cell_setting 'hexagonal'
loop_
_space_group_symop_operation_xyz
x,y,z
-x+y,-x,-z
-y,x-y,z
x,y,-z
-x+y,-x,z
-y,x-y,-z
-y,-x,-z
-x+y,y,-z
x,x-y,-z
-x+y,y,z
x,x-y,z
-y,-x,z
loop_
_atom_site_type_symbol
_atom_site_label
_atom_site_fract_x
_atom_site_fract_y
_atom_site_fract_z
Si Si1 0.911870 0.577812 0.132098
Si Si2 0.247593 0.246205 0.323224
Si Si3 0.911598 0.578478 0.238974
Si Si4 0.245833 0.999195 0.947347
Si Si5 0.913810 0.331420 0.588727
Si Si6 0.752222 0.001811 0.500000
O O1 0.782691 0.565381 0.122648
O O2 0.893536 0.446768 0.123209
O O3 0.958407 0.623598 0.185521
O O4 0.007673 0.668236 0.093259
O O5 0.129116 0.258232 0.330718
O O6 0.308583 0.304569 0.272854
O O7 0.346761 0.322502 0.363111
O O8 0.207913 0.103957 0.325899
O O9 0.769961 0.539922 0.244696
O O10 0.923040 0.461520 0.252757
O O11 0.231805 0.115903 0.939714
O O12 0.298092 0.999557 0.000000
O O13 0.114073 0.885928 0.940211
O O14 0.923812 0.461906 0.585706
O O15 0.771832 0.228169 0.586475
O O16 0.987936 0.316750 0.545749
O O17 0.744596 0.872298 0.500000
O O18 0.893844 0.106157 0.500000
#
# Coordination Sequence:
#
# PCOD8327172 Si02
#       6
#    12  12  12  12  12   6
#     4   9  17  29  46  69  95 121 149 184 230 281
#     4  10  20  33  50  72  99 129 159 194 236 282
#     4   9  17  30  49  71  94 121 153 191 233 277
#     4   9  17  29  45  65  89 118 152 189 229 273
#     4  10  20  34  54  78 102 128 160 202 247 287
#     4  10  20  34  54  78 104 134 166 200 238 284
#
# _framework density 16.883666999999999
#
# number of rings (size 3 to 8) (size 9 to 14) (size 15 to 20)
#    0.000    2.545    0.000    2.364    0.000    3.273 
#    0.000    4.545    0.000   12.364    0.000    0.000 
#    0.000    0.000    0.000    0.000    0.000    0.000 
#
# Total GULP energy -818326.611463 kJ/mol
# GULP energy per Si atom -12398.888052 kJ/mol
# Density = 1.684524 g / cm^3
# Si number density = 16.883667 Si / 1000 Ang^3
#
#
#
# Elastic Constant Matrix: (Units=GPa)
#
#
# Indices 1 2 3 4 5 6 
#
# 1 89.3037 42.2396 49.3200 0.0000 0.0000 0.0000
# 2 42.2396 89.3037 49.3200 0.0000 0.0000 0.0000
# 3 49.3200 49.3200 119.0581 0.0000 0.0000 0.0000
# 4 0.0000 0.0000 0.0000 26.7731 0.0000 0.0000
# 5 0.0000 0.0000 0.0000 0.0000 26.7731 0.0000
# 6 0.0000 0.0000 0.0000 0.0000 0.0000 23.5321
#
#
#
# Elastic Compliance Matrix: (Units=1/GPa)
#
#
# Indices 1 2 3 4 5 6 
#
# 1 0.016138 -0.005110 -0.004568 0.000000 0.000000 0.000000
# 2 -0.005110 0.016138 -0.004568 0.000000 0.000000 0.000000
# 3 -0.004568 -0.004568 0.012184 0.000000 0.000000 0.000000
# 4 0.000000 0.000000 0.000000 0.037351 0.000000 0.000000
# 5 0.000000 0.000000 0.000000 0.000000 0.037351 0.000000
# 6 0.000000 0.000000 0.000000 0.000000 0.000000 0.042495
#
#
# Mechanical properties :
#
#
# Convention : Reuss Voigt Hill
#
# Bulk Modulus (GPa) = 62.63140 64.38051 63.50596
# Shear Modulus (GPa) = 25.57920 25.86804 25.72362
#
# Velocity S-wave (km/s) = 3.89656 3.91849 3.90754
# Velocity P-wave (km/s) = 7.57764 7.66077 7.61932
#
# Compressibility (1/GPa) = 0.01596643
#
# Stress axis : x y z
#
# Youngs Moduli (GPa) = 61.96704 61.96704 82.07462
#
# Poissons Ratio (x) = 0.31665 0.37493
# Poissons Ratio (y) = 0.31665 0.37493
# Poissons Ratio (z) = 0.28308 0.28308
#
# Static dielectric constant tensor:
#      x y z
#    x 2.998300 0.000000 0.000000 
#    y 0.000000 2.998300 0.000000 
#    z 0.000000 0.000000 3.581230 
# 
# 
# High freq. dielectric constant tensor:
#      x y z
#    x 1.635850 0.000000 0.000000 
#    y 0.000000 1.635850 0.000000 
#    z 0.000000 0.000000 1.672700 
# 
# From -- ./inp_files/4402.got.cif
#   From: 2010.03.12/outbox.cif.g09.slc.cpg/sg187_3_cif.got.tgz:4402.got - 2010.04.01 11:58:23.
