data_PCOD8327571
_publ_section_title
;
Structure prediction by ZEFSAII (Michael W. Deem and Ramdas Pophale) SiO2 
 PCOD8327571
Probable space group: P -6 2 M
;
_chemical_formula_sum "Si O2"
_cell_formula_units_Z 84
_cell_length_a 20.329991
_cell_length_b 20.329991
_cell_length_c 14.803809
_cell_angle_alpha 90.000000
_cell_angle_beta 90.000000
_cell_angle_gamma 120.000000
_cell_volume 5298.811590
_symmetry_space_group_name_H-M "P -6 2 M"
_symmetry_group_IT_number 189
_symmetry_cell_setting 'hexagonal'
loop_
_space_group_symop_operation_xyz
x,y,z
-x+y,-x,-z
-y,x-y,z
x,y,-z
-x+y,-x,z
-y,x-y,-z
x-y,-y,-z
-x,-x+y,-z
y,x,-z
y,x,z
x-y,-y,z
-x,-x+y,z
loop_
_atom_site_type_symbol
_atom_site_label
_atom_site_fract_x
_atom_site_fract_y
_atom_site_fract_z
Si Si1 0.915106 0.084068 0.107292
Si Si2 0.661740 0.807906 0.105996
Si Si3 0.087062 0.564389 0.774043
Si Si4 0.409422 0.322131 0.896190
Si Si5 0.459286 0.830917 0.601363
Si Si6 0.419508 0.090123 0.757923
Si Si7 0.202491 0.496047 0.602400
O O1 0.892814 0.144984 0.141933
O O2 0.000000 0.110047 0.139926
O O3 0.858916 0.000000 0.147116
O O4 0.909348 0.080654 0.000000
O O5 0.626556 0.860854 0.126186
O O6 0.620286 0.730974 0.162876
O O7 0.656956 0.786704 0.000000
O O8 0.124704 0.635415 0.842298
O O9 0.099407 0.593979 0.671001
O O10 0.116003 0.504838 0.792085
O O11 0.000000 0.522882 0.797262
O O12 0.349368 0.349368 0.868387
O O13 0.431004 0.339536 0.000000
O O14 0.485514 0.862468 0.500000
O O15 0.489153 0.774280 0.629293
O O16 0.368510 0.790122 0.610381
O O17 0.430830 0.138425 0.666477
O O18 0.371568 0.000000 0.735331
O O19 0.180941 0.465169 0.500000
#
# Coordination Sequence:
#
# PCOD8327571 Si02
#       7
#    12  12  12  12  12  12  12
#     4   9  16  26  41  62  88 116 144 176 218 268
#     4  10  19  30  45  64  87 116 150 186 220 257
#     4   9  18  30  43  61  84 110 141 175 211 252
#     4   9  17  30  47  64  82 108 144 184 223 262
#     4   9  16  27  44  64  84 105 132 168 209 252
#     4  10  20  31  43  62  88 118 149 178 212 256
#     4   9  17  29  46  66  86 109 138 174 216 260
#
# _framework density 15.852612000000001
#
# number of rings (size 3 to 8) (size 9 to 14) (size 15 to 20)
#    0.000    2.714    0.000    2.143    0.000    5.429 
#    0.000    4.286    0.000    0.571    0.000    0.000 
#    0.000    0.000    0.000    0.286    0.000    3.000 
#
# Total GULP energy -1041078.618981 kJ/mol
# GULP energy per Si atom -12393.793083 kJ/mol
# Density = 1.581653 g / cm^3
# Si number density = 15.852612 Si / 1000 Ang^3
#
#
#
# Elastic Constant Matrix: (Units=GPa)
#
#
# Indices 1 2 3 4 5 6 
#
# 1 77.6698 37.6780 40.6131 0.0000 0.0000 0.0000
# 2 37.6780 77.6698 40.6131 0.0000 0.0000 0.0000
# 3 40.6131 40.6131 60.5537 0.0000 0.0000 0.0000
# 4 0.0000 0.0000 0.0000 22.5374 0.0000 0.0000
# 5 0.0000 0.0000 0.0000 0.0000 22.5374 0.0000
# 6 0.0000 0.0000 0.0000 0.0000 0.0000 19.9959
#
#
#
# Elastic Compliance Matrix: (Units=1/GPa)
#
#
# Indices 1 2 3 4 5 6 
#
# 1 0.020717 -0.004288 -0.011019 0.000000 0.000000 0.000000
# 2 -0.004288 0.020717 -0.011019 0.000000 0.000000 0.000000
# 3 -0.011019 -0.011019 0.031294 0.000000 0.000000 0.000000
# 4 0.000000 0.000000 0.000000 0.044371 0.000000 0.000000
# 5 0.000000 0.000000 0.000000 0.000000 0.044371 0.000000
# 6 0.000000 0.000000 0.000000 0.000000 0.000000 0.050010
#
#
# Mechanical properties :
#
#
# Convention : Reuss Voigt Hill
#
# Bulk Modulus (GPa) = 49.80742 50.41130 50.10936
# Shear Modulus (GPa) = 18.46226 19.48010 18.97118
#
# Velocity S-wave (km/s) = 3.41635 3.50926 3.46312
# Velocity P-wave (km/s) = 6.85925 6.94902 6.90428
#
# Compressibility (1/GPa) = 0.02007733
#
# Stress axis : x y z
#
# Youngs Moduli (GPa) = 48.26997 48.26997 31.95458
#
# Poissons Ratio (x) = 0.20700 0.35209
# Poissons Ratio (y) = 0.20700 0.35209
# Poissons Ratio (z) = 0.53186 0.53186
#
# Static dielectric constant tensor:
#      x y z
#    x 3.088900 0.000000 0.000000 
#    y 0.000000 3.088900 0.000000 
#    z 0.000000 0.000000 2.957580 
# 
# 
# High freq. dielectric constant tensor:
#      x y z
#    x 1.608150 0.000000 0.000000 
#    y 0.000000 1.608150 0.000000 
#    z 0.000000 0.000000 1.586360 
# 
# From -- ./inp_files/2126.got.cif
#   From: 2010.03.12/outbox.cif.g09.slc.cpg/sg189_2_cif.got.tgz:2126.got - 2010.04.01 12:03:36.
