data_PCOD8327299
_publ_section_title
;
Structure prediction by ZEFSAII (Michael W. Deem and Ramdas Pophale) SiO2 
 PCOD8327299
Probable space group: P -6 M 2
;
_chemical_formula_sum "Si O2"
_cell_formula_units_Z 60
_cell_length_a 23.288155
_cell_length_b 23.288155
_cell_length_c 7.630161
_cell_angle_alpha 90.000000
_cell_angle_beta 90.000000
_cell_angle_gamma 120.000000
_cell_volume 3583.723541
_symmetry_space_group_name_H-M "P -6 M 2"
_symmetry_group_IT_number 187
_symmetry_cell_setting 'hexagonal'
loop_
_space_group_symop_operation_xyz
x,y,z
-x+y,-x,-z
-y,x-y,z
x,y,-z
-x+y,-x,z
-y,x-y,-z
-y,-x,-z
-x+y,y,-z
x,x-y,-z
-x+y,y,z
x,x-y,z
-y,-x,z
loop_
_atom_site_type_symbol
_atom_site_label
_atom_site_fract_x
_atom_site_fract_y
_atom_site_fract_z
Si Si1 0.482202 0.092969 0.198294
Si Si2 0.821051 0.515180 0.500000
Si Si3 0.260587 0.866314 0.797414
Si Si4 0.329765 0.014476 0.794561
Si Si5 0.772310 0.101030 0.500000
Si Si6 0.205643 0.539513 0.707322
O O1 0.531479 0.062958 0.223036
O O2 0.506886 0.155953 0.325965
O O3 0.406791 0.036343 0.241153
O O4 0.486490 0.118916 0.000000
O O5 0.741047 0.482093 0.500000
O O6 0.853000 0.593302 0.500000
O O7 0.192196 0.807805 0.707911
O O8 0.321125 0.852772 0.768304
O O9 0.284126 0.939378 0.724017
O O10 0.246824 0.867058 0.000000
O O11 0.307310 0.057391 0.677749
O O12 0.318201 0.022567 0.000000
O O13 0.852343 0.147658 0.500000
O O14 0.208087 0.543078 0.500000
O O15 0.275461 0.550922 0.781603
O O16 0.192509 0.596255 0.785605
#
# Coordination Sequence:
#
# PCOD8327299 Si02
#       6
#    12   6  12  12   6  12
#     4   9  17  29  45  65  88 115 148 186 228 271
#     4   9  17  29  45  64  84 107 136 172 216 265
#     4   9  18  31  45  63  89 122 159 196 234 282
#     4   9  18  31  47  68  95 124 152 186 228 271
#     4   9  18  31  48  70  91 111 141 176 212 265
#     4   9  17  28  41  57  79 112 158 212 263 302
#
# _framework density 16.742362
#
# number of rings (size 3 to 8) (size 9 to 14) (size 15 to 20)
#    0.000    3.000    0.000    0.500    1.400    2.800 
#    0.000    6.000    0.000    2.800    0.000    0.000 
#    0.000    0.000    0.000    2.400    0.000   15.600 
#
# Total GULP energy -743518.545989 kJ/mol
# GULP energy per Si atom -12391.975766 kJ/mol
# Density = 1.670426 g / cm^3
# Si number density = 16.742362 Si / 1000 Ang^3
#
#
#
# Elastic Constant Matrix: (Units=GPa)
#
#
# Indices 1 2 3 4 5 6 
#
# 1 92.8329 59.4111 36.0448 0.0000 0.0000 0.0000
# 2 59.4111 92.8329 36.0448 0.0000 0.0000 0.0000
# 3 36.0448 36.0448 68.4284 0.0000 0.0000 0.0000
# 4 0.0000 0.0000 0.0000 16.6550 0.0000 0.0000
# 5 0.0000 0.0000 0.0000 0.0000 16.6550 0.0000
# 6 0.0000 0.0000 0.0000 0.0000 0.0000 16.7109
#
#
#
# Elastic Compliance Matrix: (Units=1/GPa)
#
#
# Indices 1 2 3 4 5 6 
#
# 1 0.019336 -0.010585 -0.004610 0.000000 0.000000 0.000000
# 2 -0.010585 0.019336 -0.004610 0.000000 0.000000 0.000000
# 3 -0.004610 -0.004610 0.019470 0.000000 0.000000 0.000000
# 4 0.000000 0.000000 0.000000 0.060042 0.000000 0.000000
# 5 0.000000 0.000000 0.000000 0.000000 0.060042 0.000000
# 6 0.000000 0.000000 0.000000 0.000000 0.000000 0.059841
#
#
# Mechanical properties :
#
#
# Convention : Reuss Voigt Hill
#
# Bulk Modulus (GPa) = 53.95575 57.45503 55.70539
# Shear Modulus (GPa) = 17.61473 18.17707 17.89590
#
# Velocity S-wave (km/s) = 3.24714 3.29856 3.27295
# Velocity P-wave (km/s) = 6.80849 6.99278 6.90125
#
# Compressibility (1/GPa) = 0.01853371
#
# Stress axis : x y z
#
# Youngs Moduli (GPa) = 51.71732 51.71732 51.36073
#
# Poissons Ratio (x) = 0.54741 0.23676
# Poissons Ratio (y) = 0.54741 0.23676
# Poissons Ratio (z) = 0.23840 0.23840
#
# Static dielectric constant tensor:
#      x y z
#    x 3.210280 0.000000 0.000000 
#    y 0.000000 3.210280 0.000000 
#    z 0.000000 0.000000 3.175150 
# 
# 
# High freq. dielectric constant tensor:
#      x y z
#    x 1.615080 0.000000 0.000000 
#    y 0.000000 1.615080 0.000000 
#    z 0.000000 0.000000 1.652960 
# 
# From -- ./inp_files/707.got.cif
#   From: 2010.03.12/outbox.cif.g09.slc.cpg/sg187_1_cif.got.tgz:707.got - 2010.04.01 11:58:23.
