data_PCOD8327257
_publ_section_title
;
Structure prediction by ZEFSAII (Michael W. Deem and Ramdas Pophale) SiO2 
 PCOD8327257
Probable space group: P -6 M 2
;
_chemical_formula_sum "Si O2"
_cell_formula_units_Z 66
_cell_length_a 22.380010
_cell_length_b 22.380010
_cell_length_c 7.619089
_cell_angle_alpha 90.000000
_cell_angle_beta 90.000000
_cell_angle_gamma 120.000000
_cell_volume 3304.868859
_symmetry_space_group_name_H-M "P -6 M 2"
_symmetry_group_IT_number 187
_symmetry_cell_setting 'hexagonal'
loop_
_space_group_symop_operation_xyz
x,y,z
-x+y,-x,-z
-y,x-y,z
x,y,-z
-x+y,-x,z
-y,x-y,-z
-y,-x,-z
-x+y,y,-z
x,x-y,-z
-x+y,y,z
x,x-y,z
-y,-x,z
loop_
_atom_site_type_symbol
_atom_site_label
_atom_site_fract_x
_atom_site_fract_y
_atom_site_fract_z
Si Si1 0.929279 0.320140 0.290981
Si Si2 0.201085 0.667333 0.206844
Si Si3 0.142193 0.141764 0.000000
Si Si4 0.946569 0.194095 0.699108
Si Si5 0.666799 0.198614 0.708950
Si Si6 0.539972 0.947432 0.295724
O O1 0.927579 0.319243 0.500000
O O2 0.936425 0.255820 0.225224
O O3 0.860844 0.318776 0.218079
O O4 0.994674 0.388656 0.212585
O O5 0.207548 0.603774 0.286386
O O6 0.261400 0.738601 0.288336
O O7 0.127585 0.658728 0.259985
O O8 0.208559 0.668543 0.000000
O O9 0.185066 0.182114 0.826465
O O10 0.126709 0.063355 0.000000
O O11 0.070569 0.141137 0.000000
O O12 0.977046 0.208940 0.500000
O O13 0.871768 0.128233 0.700622
O O14 0.665282 0.196731 0.500000
O O15 0.593729 0.187458 0.780359
O O16 0.727943 0.272058 0.776887
O O17 0.541872 0.962029 0.500000
O O18 0.475613 0.951225 0.209433
#
# Coordination Sequence:
#
# PCOD8327257 Si02
#       6
#    12  12   6  12  12  12
#     4   9  16  28  46  67  95 135 177 212 253 306
#     4   9  17  30  47  65  85 112 147 191 244 300
#     4  10  21  38  60  86 113 140 170 212 264 318
#     4   9  18  34  56  81 109 142 180 219 258 306
#     4   9  15  22  36  63  99 135 172 216 263 308
#     4   9  17  29  45  66  93 125 162 204 249 299
#
# _framework density 19.970535999999999
#
# number of rings (size 3 to 8) (size 9 to 14) (size 15 to 20)
#    0.000    2.909    0.000    1.545    0.000    6.545 
#    1.636    0.909    0.000    5.455    0.000    0.000 
#    0.000    0.000    0.000    1.818    0.364    4.727 
#
# Total GULP energy -818094.012630 kJ/mol
# GULP energy per Si atom -12395.363828 kJ/mol
# Density = 1.992508 g / cm^3
# Si number density = 19.970536 Si / 1000 Ang^3
#
#
#
# Elastic Constant Matrix: (Units=GPa)
#
#
# Indices 1 2 3 4 5 6 
#
# 1 144.3131 74.3358 26.9100 0.0000 -0.0001 0.0000
# 2 74.3358 144.3131 26.9100 0.0000 0.0001 0.0000
# 3 26.9100 26.9100 47.1122 0.0000 0.0000 0.0000
# 4 0.0000 0.0000 0.0000 3.6297 0.0000 0.0001
# 5 -0.0001 0.0001 0.0000 0.0000 3.6297 0.0000
# 6 0.0000 0.0000 0.0000 0.0001 0.0000 34.9886
#
#
#
# Elastic Compliance Matrix: (Units=1/GPa)
#
#
# Indices 1 2 3 4 5 6 
#
# 1 0.009806 -0.004484 -0.003040 0.000000 0.000000 0.000000
# 2 -0.004484 0.009806 -0.003040 0.000000 0.000000 0.000000
# 3 -0.003040 -0.003040 0.024698 0.000000 0.000000 0.000000
# 4 0.000000 0.000000 0.000000 0.275504 0.000000 -0.000001
# 5 0.000000 0.000000 0.000000 0.000000 0.275504 0.000000
# 6 0.000000 0.000000 0.000000 -0.000001 0.000000 0.028581
#
#
# Mechanical properties :
#
#
# Convention : Reuss Voigt Hill
#
# Bulk Modulus (GPa) = 43.13499 65.78336 54.45918
# Shear Modulus (GPa) = 7.65984 22.28844 14.97414
#
# Velocity S-wave (km/s) = 1.96059 3.34438 2.74124
# Velocity P-wave (km/s) = 5.17411 6.92278 6.11131
#
# Compressibility (1/GPa) = 0.02318304
#
# Stress axis : x y z
#
# Youngs Moduli (GPa) = 101.97773 101.97773 40.48834
#
# Poissons Ratio (x) = 0.45730 0.12307
# Poissons Ratio (y) = 0.45730 0.12307
# Poissons Ratio (z) = 0.30999 0.30999
#
# Static dielectric constant tensor:
#      x y z
#    x 3.738100 0.000000 0.000000 
#    y 0.000000 3.738100 0.000000 
#    z 0.000000 0.000000 3.383590 
# 
# 
# High freq. dielectric constant tensor:
#      x y z
#    x 1.773700 0.000000 0.000000 
#    y 0.000000 1.773700 0.000000 
#    z 0.000000 0.000000 1.752860 
# 
# From -- ./inp_files/771.got.cif
#   From: 2010.03.12/outbox.cif.g09.slc.cpg/sg187_1_cif.got.tgz:771.got - 2010.04.01 11:58:23.
