data_PCOD8327493
_publ_section_title
;
Structure prediction by ZEFSAII (Michael W. Deem and Ramdas Pophale) SiO2 
 PCOD8327493
Probable space group: P -6 2 M
;
_chemical_formula_sum "Si O2"
_cell_formula_units_Z 72
_cell_length_a 24.112842
_cell_length_b 24.112842
_cell_length_c 8.833653
_cell_angle_alpha 90.000000
_cell_angle_beta 90.000000
_cell_angle_gamma 120.000000
_cell_volume 4448.030618
_symmetry_space_group_name_H-M "P -6 2 M"
_symmetry_group_IT_number 189
_symmetry_cell_setting 'hexagonal'
loop_
_space_group_symop_operation_xyz
x,y,z
-x+y,-x,-z
-y,x-y,z
x,y,-z
-x+y,-x,z
-y,x-y,-z
x-y,-y,-z
-x,-x+y,-z
y,x,-z
y,x,z
x-y,-y,z
-x,-x+y,z
loop_
_atom_site_type_symbol
_atom_site_label
_atom_site_fract_x
_atom_site_fract_y
_atom_site_fract_z
Si Si1 0.857117 0.927817 0.819898
Si Si2 0.193195 0.264824 0.820134
Si Si3 0.261509 0.740376 0.680197
Si Si4 0.595740 0.192402 0.322679
Si Si5 0.854623 0.592172 0.179254
Si Si6 0.072603 0.601603 0.323053
O O1 0.880559 0.880559 0.752058
O O2 0.784619 0.905170 0.765067
O O3 0.904717 0.000000 0.762635
O O4 0.858990 0.926841 0.000000
O O5 0.240771 0.240771 0.757896
O O6 0.215851 0.335890 0.759847
O O7 0.195960 0.265555 0.000000
O O8 0.257728 0.743373 0.500000
O O9 0.333253 0.785276 0.746274
O O10 0.237188 0.668028 0.736940
O O11 0.215479 0.764036 0.749868
O O12 0.596100 0.202752 0.500000
O O13 0.572119 0.118334 0.281585
O O14 0.905560 0.571500 0.230267
O O15 0.849074 0.587685 0.000000
O O16 0.079864 0.619538 0.500000
O O17 0.000000 0.549357 0.279892
#
# Coordination Sequence:
#
# PCOD8327493 Si02
#       6
#    12  12  12  12  12  12
#     4   8  12  18  30  49  72  98 129 165 202 237
#     4   8  14  23  34  50  74 104 135 164 196 237
#     4   9  16  28  45  63  82 105 135 169 204 243
#     4   8  14  25  43  63  80 102 131 164 203 244
#     4  10  18  27  40  59  84 113 140 165 199 244
#     4   9  17  29  45  65  86 107 136 174 210 245
#
# _framework density 16.186938999999999
#
# number of rings (size 3 to 8) (size 9 to 14) (size 15 to 20)
#    0.000    3.333    0.000    3.500    0.000    3.000 
#    0.000    3.333    0.000    1.000    0.000    0.000 
#    0.000    2.000    0.000    2.000    0.000   19.667 
#
# Total GULP energy -892180.189341 kJ/mol
# GULP energy per Si atom -12391.391519 kJ/mol
# Density = 1.615010 g / cm^3
# Si number density = 16.186939 Si / 1000 Ang^3
#
#
#
# Elastic Constant Matrix: (Units=GPa)
#
#
# Indices 1 2 3 4 5 6 
#
# 1 147.5298 86.7238 19.2864 0.0000 0.0000 0.0000
# 2 86.7238 147.5298 19.2864 0.0000 0.0000 0.0000
# 3 19.2864 19.2864 20.4132 0.0000 0.0000 0.0000
# 4 0.0000 0.0000 0.0000 14.2977 0.0000 0.0000
# 5 0.0000 0.0000 0.0000 0.0000 14.2977 0.0000
# 6 0.0000 0.0000 0.0000 0.0000 0.0000 30.4030
#
#
#
# Elastic Compliance Matrix: (Units=1/GPa)
#
#
# Indices 1 2 3 4 5 6 
#
# 1 0.010751 -0.005695 -0.004776 0.000000 0.000000 0.000000
# 2 -0.005695 0.010751 -0.004776 0.000000 0.000000 0.000000
# 3 -0.004776 -0.004776 0.058013 0.000000 0.000000 0.000000
# 4 0.000000 0.000000 0.000000 0.069942 0.000000 0.000000
# 5 0.000000 0.000000 0.000000 0.000000 0.069942 0.000000
# 6 0.000000 0.000000 0.000000 0.000000 0.000000 0.032891
#
#
# Mechanical properties :
#
#
# Convention : Reuss Voigt Hill
#
# Bulk Modulus (GPa) = 20.40033 62.89623 41.64828
# Shear Modulus (GPa) = 16.71545 24.47806 20.59676
#
# Velocity S-wave (km/s) = 3.21697 3.89293 3.57098
# Velocity P-wave (km/s) = 5.14090 7.69072 6.54125
#
# Compressibility (1/GPa) = 0.04901882
#
# Stress axis : x y z
#
# Youngs Moduli (GPa) = 93.01847 93.01847 17.23739
#
# Poissons Ratio (x) = 0.52976 0.08233
# Poissons Ratio (y) = 0.52976 0.08233
# Poissons Ratio (z) = 0.44429 0.44429
#
# Static dielectric constant tensor:
#      x y z
#    x 3.302700 0.000000 0.000000 
#    y 0.000000 3.302700 0.000000 
#    z 0.000000 0.000000 2.629880 
# 
# 
# High freq. dielectric constant tensor:
#      x y z
#    x 1.617310 0.000000 0.000000 
#    y 0.000000 1.617310 0.000000 
#    z 0.000000 0.000000 1.577940 
# 
# From -- ./inp_files/1290.got.cif
#   From: 2010.03.12/outbox.cif.g09.slc.cpg/sg189_1_cif.got.tgz:1290.got - 2010.04.01 12:03:36.
