data_PCOD8327876
_publ_section_title
;
Structure prediction by ZEFSAII (Michael W. Deem and Ramdas Pophale) SiO2 
 PCOD8327876
Probable space group: P -6 2 M
;
_chemical_formula_sum "Si O2"
_cell_formula_units_Z 84
_cell_length_a 14.054884
_cell_length_b 14.054884
_cell_length_c 23.129358
_cell_angle_alpha 90.000000
_cell_angle_beta 90.000000
_cell_angle_gamma 120.000000
_cell_volume 3956.842294
_symmetry_space_group_name_H-M "P -6 2 M"
_symmetry_group_IT_number 189
_symmetry_cell_setting 'hexagonal'
loop_
_space_group_symop_operation_xyz
x,y,z
-x+y,-x,-z
-y,x-y,z
x,y,-z
-x+y,-x,z
-y,x-y,-z
x-y,-y,-z
-x,-x+y,-z
y,x,-z
y,x,z
x-y,-y,z
-x,-x+y,z
loop_
_atom_site_type_symbol
_atom_site_label
_atom_site_fract_x
_atom_site_fract_y
_atom_site_fract_z
Si Si1 0.577322 0.766267 0.766536
Si Si2 0.416221 0.196972 0.436117
Si Si3 0.522762 0.875625 0.066177
Si Si4 0.871721 0.749559 0.667366
Si Si5 0.461078 0.877417 0.729916
Si Si6 0.125256 0.439982 0.108233
Si Si7 0.454494 0.878798 0.600062
O O1 0.681454 0.810946 0.724696
O O2 0.539245 0.856878 0.773536
O O3 0.468009 0.667677 0.738404
O O4 0.600033 0.725983 0.826840
O O5 0.375591 0.144435 0.500000
O O6 0.318251 0.136066 0.390865
O O7 0.526674 0.198308 0.416016
O O8 0.460278 0.326733 0.440912
O O9 0.567179 0.790318 0.075648
O O10 0.415833 0.849762 0.104969
O O11 0.621617 0.000000 0.078933
O O12 0.483755 0.865186 0.000000
O O13 0.854350 0.854350 0.666080
O O14 0.000000 0.788564 0.670057
O O15 0.487386 0.859723 0.664387
O O16 0.485455 0.000000 0.741787
O O17 0.000000 0.358191 0.083812
O O18 0.471977 0.000000 0.593358
#
# Coordination Sequence:
#
# PCOD8327876 Si02
#       7
#    12  12  12  12  12  12  12
#     4  12  23  39  63  93 130 163 199 253 312 378
#     4  12  25  41  64  92 123 156 197 254 321 395
#     4  10  22  41  65  95 134 178 224 273 322 376
#     4  12  26  45  65  86 116 161 217 273 328 383
#     4  11  21  37  61  87 117 156 197 239 300 376
#     4  11  23  39  63  99 138 178 222 271 327 388
#     4  11  22  40  62  87 117 151 191 240 302 377
#
# _framework density 21.229049
#
# number of rings (size 3 to 8) (size 9 to 14) (size 15 to 20)
#    0.000    0.714    2.857    5.286    0.000    6.000 
#    0.000    0.000    0.000    1.143    0.000    0.000 
#    0.000    0.000    0.000    0.000    0.000    0.000 
#
# Total GULP energy -1041287.743941 kJ/mol
# GULP energy per Si atom -12396.282666 kJ/mol
# Density = 2.118073 g / cm^3
# Si number density = 21.229049 Si / 1000 Ang^3
#
#
#
# Elastic Constant Matrix: (Units=GPa)
#
#
# Indices 1 2 3 4 5 6 
#
# 1 103.0074 31.9851 36.8760 0.0000 0.0000 0.0000
# 2 31.9851 103.0074 36.8760 0.0000 0.0000 0.0000
# 3 36.8760 36.8760 91.3735 0.0000 0.0000 0.0000
# 4 0.0000 0.0000 0.0000 21.9054 0.0000 0.0000
# 5 0.0000 0.0000 0.0000 0.0000 21.9054 0.0000
# 6 0.0000 0.0000 0.0000 0.0000 0.0000 35.5111
#
#
#
# Elastic Compliance Matrix: (Units=1/GPa)
#
#
# Indices 1 2 3 4 5 6 
#
# 1 0.011792 -0.002288 -0.003835 0.000000 0.000000 0.000000
# 2 -0.002288 0.011792 -0.003835 0.000000 0.000000 0.000000
# 3 -0.003835 -0.003835 0.014040 0.000000 0.000000 0.000000
# 4 0.000000 0.000000 0.000000 0.045651 0.000000 0.000000
# 5 0.000000 0.000000 0.000000 0.000000 0.045651 0.000000
# 6 0.000000 0.000000 0.000000 0.000000 0.000000 0.028160
#
#
# Mechanical properties :
#
#
# Convention : Reuss Voigt Hill
#
# Bulk Modulus (GPa) = 56.48091 56.54026 56.51058
# Shear Modulus (GPa) = 27.33669 28.64113 27.98891
#
# Velocity S-wave (km/s) = 3.59235 3.67706 3.63495
# Velocity P-wave (km/s) = 6.62343 6.68722 6.65540
#
# Compressibility (1/GPa) = 0.01770510
#
# Stress axis : x y z
#
# Youngs Moduli (GPa) = 84.80595 84.80595 71.22666
#
# Poissons Ratio (x) = 0.19408 0.27317
# Poissons Ratio (y) = 0.19408 0.27317
# Poissons Ratio (z) = 0.32525 0.32525
#
# Static dielectric constant tensor:
#      x y z
#    x 3.738610 0.000000 0.000000 
#    y 0.000000 3.738610 0.000000 
#    z 0.000000 0.000000 3.803880 
# 
# 
# High freq. dielectric constant tensor:
#      x y z
#    x 1.830590 0.000000 0.000000 
#    y 0.000000 1.830590 0.000000 
#    z 0.000000 0.000000 1.828770 
# 
# From -- ./inp_files/3610.got.cif
#   From: 2010.03.12/outbox.cif.g09.slc.cpg/sg189_2_cif.got.tgz:3610.got - 2010.04.01 12:03:36.
