data_PCOD8327843
_publ_section_title
;
Structure prediction by ZEFSAII (Michael W. Deem and Ramdas Pophale) SiO2 
 PCOD8327843
Probable space group: P -6 2 M
;
_chemical_formula_sum "Si O2"
_cell_formula_units_Z 48
_cell_length_a 17.760578
_cell_length_b 17.760578
_cell_length_c 9.468348
_cell_angle_alpha 90.000000
_cell_angle_beta 90.000000
_cell_angle_gamma 120.000000
_cell_volume 2586.539017
_symmetry_space_group_name_H-M "P -6 2 M"
_symmetry_group_IT_number 189
_symmetry_cell_setting 'hexagonal'
loop_
_space_group_symop_operation_xyz
x,y,z
-x+y,-x,-z
-y,x-y,z
x,y,-z
-x+y,-x,z
-y,x-y,-z
x-y,-y,-z
-x,-x+y,-z
y,x,-z
y,x,z
x-y,-y,z
-x,-x+y,z
loop_
_atom_site_type_symbol
_atom_site_label
_atom_site_fract_x
_atom_site_fract_y
_atom_site_fract_z
Si Si1 0.000000 0.390355 0.156923
Si Si2 0.720803 0.190552 0.338924
Si Si3 0.212552 0.000000 0.156454
Si Si4 0.384223 0.852137 0.339839
Si Si5 0.101134 0.809363 0.831928
O O1 0.084362 0.459539 0.235215
O O2 0.000000 0.301560 0.153387
O O3 0.000000 0.424210 0.000000
O O4 0.727408 0.164386 0.500000
O O5 0.762370 0.294119 0.326071
O O6 0.621819 0.154406 0.292243
O O7 0.764542 0.150700 0.238816
O O8 0.231767 0.091282 0.228010
O O9 0.177817 0.000000 0.000000
O O10 0.397435 0.887276 0.500000
O O11 0.000000 0.755635 0.791974
O O12 0.116715 0.811513 0.000000
#
# Coordination Sequence:
#
# PCOD8327843 Si02
#       5
#     6  12   6  12  12
#     4  11  21  35  57  81 110 147 186 230 279 331
#     4  10  21  37  58  81 112 149 187 230 276 327
#     4   9  18  37  59  81 110 143 182 230 283 335
#     4  10  21  37  56  81 111 147 190 231 274 329
#     4  10  21  38  59  83 113 147 185 233 285 337
#
# _framework density 18.557617
#
# number of rings (size 3 to 8) (size 9 to 14) (size 15 to 20)
#    0.000    2.000    2.500    0.875    1.750    3.500 
#    0.750    0.625    0.000    3.000    0.000    0.000 
#    0.000    0.000    0.000    0.000    0.000    0.000 
#
# Total GULP energy -594948.685092 kJ/mol
# GULP energy per Si atom -12394.764273 kJ/mol
# Density = 1.851538 g / cm^3
# Si number density = 18.557617 Si / 1000 Ang^3
#
#
#
# Elastic Constant Matrix: (Units=GPa)
#
#
# Indices 1 2 3 4 5 6 
#
# 1 131.5692 4.4882 27.9360 0.0000 0.0000 0.0000
# 2 4.4882 131.5692 27.9360 0.0000 0.0000 0.0000
# 3 27.9360 27.9360 55.9181 0.0000 0.0000 0.0000
# 4 0.0000 0.0000 0.0000 24.9985 0.0000 0.0000
# 5 0.0000 0.0000 0.0000 0.0000 24.9985 0.0000
# 6 0.0000 0.0000 0.0000 0.0000 0.0000 63.5405
#
#
#
# Elastic Compliance Matrix: (Units=1/GPa)
#
#
# Indices 1 2 3 4 5 6 
#
# 1 0.008558 0.000689 -0.004620 0.000000 0.000000 0.000000
# 2 0.000689 0.008558 -0.004620 0.000000 0.000000 0.000000
# 3 -0.004620 -0.004620 0.022499 0.000000 0.000000 0.000000
# 4 0.000000 0.000000 0.000000 0.040002 0.000000 0.000000
# 5 0.000000 0.000000 0.000000 0.000000 0.040002 0.000000
# 6 0.000000 0.000000 0.000000 0.000000 0.000000 0.015738
#
#
# Mechanical properties :
#
#
# Convention : Reuss Voigt Hill
#
# Bulk Modulus (GPa) = 44.41608 48.86409 46.64009
# Shear Modulus (GPa) = 31.25716 39.95390 35.60553
#
# Velocity S-wave (km/s) = 4.10851 4.64504 4.38499
# Velocity P-wave (km/s) = 6.81855 7.42676 7.12914
#
# Compressibility (1/GPa) = 0.02251437
#
# Stress axis : x y z
#
# Youngs Moduli (GPa) = 116.85043 116.85043 44.44615
#
# Poissons Ratio (x) = -0.08050 0.20533
# Poissons Ratio (y) = -0.08050 0.20533
# Poissons Ratio (z) = 0.53981 0.53981
#
# Static dielectric constant tensor:
#      x y z
#    x 3.541010 0.000000 0.000000 
#    y 0.000000 3.541010 0.000000 
#    z 0.000000 0.000000 3.364350 
# 
# 
# High freq. dielectric constant tensor:
#      x y z
#    x 1.727360 0.000000 0.000000 
#    y 0.000000 1.727360 0.000000 
#    z 0.000000 0.000000 1.702450 
# 
# From -- ./inp_files/626.got.cif
#   From: 2010.03.12/outbox.cif.g09.slc.cpg/sg189_1_cif.got.tgz:626.got - 2010.04.01 12:03:36.
