data_PCOD8327021
_publ_section_title
;
Structure prediction by ZEFSAII (Michael W. Deem and Ramdas Pophale) SiO2 
 PCOD8327021
Probable space group: P -6 M 2
;
_chemical_formula_sum "Si O2"
_cell_formula_units_Z 66
_cell_length_a 13.065598
_cell_length_b 13.065598
_cell_length_c 27.980544
_cell_angle_alpha 90.000000
_cell_angle_beta 90.000000
_cell_angle_gamma 120.000000
_cell_volume 4136.617539
_symmetry_space_group_name_H-M "P -6 M 2"
_symmetry_group_IT_number 187
_symmetry_cell_setting 'hexagonal'
loop_
_space_group_symop_operation_xyz
x,y,z
-x+y,-x,-z
-y,x-y,z
x,y,-z
-x+y,-x,z
-y,x-y,-z
-y,-x,-z
-x+y,y,-z
x,x-y,-z
-x+y,y,z
x,x-y,z
-y,-x,z
loop_
_atom_site_type_symbol
_atom_site_label
_atom_site_fract_x
_atom_site_fract_y
_atom_site_fract_z
Si Si1 0.430141 0.097422 0.372802
Si Si2 0.091329 0.425263 0.184624
Si Si3 0.002140 0.232058 0.000000
Si Si4 0.002842 0.241792 0.103956
Si Si5 0.902682 0.569060 0.263694
Si Si6 0.095750 0.429419 0.446088
O O1 0.560324 0.120648 0.382540
O O2 0.431580 0.215790 0.386010
O O3 0.390919 0.059104 0.318204
O O4 0.337421 0.998266 0.408346
O O5 0.218974 0.437947 0.190285
O O6 0.108170 0.554085 0.176380
O O7 0.018209 0.343292 0.140119
O O8 0.016151 0.363171 0.231943
O O9 0.019543 0.300230 0.949555
O O10 0.870603 0.129398 0.000000
O O11 0.089063 0.178125 0.000000
O O12 0.875265 0.124735 0.110453
O O13 0.103168 0.206335 0.113559
O O14 0.792052 0.584103 0.248680
O O15 0.863926 0.431963 0.256607
O O16 0.049014 0.388071 0.500000
O O17 0.214934 0.429868 0.436269
O O18 0.121961 0.560981 0.436600
#
# Coordination Sequence:
#
# PCOD8327021 Si02
#       6
#    12  12   6  12  12  12
#     4   9  17  29  46  68  92 115 139 172 218 269
#     4  10  20  32  45  62  88 121 153 183 215 254
#     4   8  13  22  39  64  90 112 136 172 220 266
#     4   9  16  27  45  68  91 113 140 178 223 266
#     4   9  17  30  48  68  88 111 141 179 222 266
#     4   9  17  29  45  65  89 118 152 188 222 253
#
# _framework density 15.955064999999999
#
# number of rings (size 3 to 8) (size 9 to 14) (size 15 to 20)
#    0.000    2.909    0.000    1.545    0.000    4.727 
#    0.000    0.455    0.000    4.364    0.000    1.273 
#    0.000    0.000    0.000    0.000    0.000    0.000 
#
# Total GULP energy -817987.551830 kJ/mol
# GULP energy per Si atom -12393.750785 kJ/mol
# Density = 1.591875 g / cm^3
# Si number density = 15.955065 Si / 1000 Ang^3
#
#
#
# Elastic Constant Matrix: (Units=GPa)
#
#
# Indices 1 2 3 4 5 6 
#
# 1 85.2961 43.8833 63.1382 0.0000 -0.0001 0.0000
# 2 43.8833 85.2961 63.1382 0.0000 0.0001 0.0000
# 3 63.1382 63.1382 119.3523 0.0000 0.0000 0.0000
# 4 0.0000 0.0000 0.0000 25.4803 0.0000 0.0001
# 5 -0.0001 0.0001 0.0000 0.0000 25.4803 0.0000
# 6 0.0000 0.0000 0.0000 0.0001 0.0000 20.7064
#
#
#
# Elastic Compliance Matrix: (Units=1/GPa)
#
#
# Indices 1 2 3 4 5 6 
#
# 1 0.020089 -0.004058 -0.008481 0.000000 0.000000 0.000000
# 2 -0.004058 0.020089 -0.008481 0.000000 0.000000 0.000000
# 3 -0.008481 -0.008481 0.017351 0.000000 0.000000 0.000000
# 4 0.000000 0.000000 0.000000 0.039246 0.000000 0.000000
# 5 0.000000 0.000000 0.000000 0.000000 0.039246 0.000000
# 6 0.000000 0.000000 0.000000 0.000000 0.000000 0.048294
#
#
# Mechanical properties :
#
#
# Convention : Reuss Voigt Hill
#
# Bulk Modulus (GPa) = 64.55317 70.02931 67.29124
# Shear Modulus (GPa) = 21.59661 22.31906 21.95784
#
# Velocity S-wave (km/s) = 3.68311 3.74420 3.71378
# Velocity P-wave (km/s) = 7.65730 7.91700 7.78823
#
# Compressibility (1/GPa) = 0.01549111
#
# Stress axis : x y z
#
# Youngs Moduli (GPa) = 49.77809 49.77809 57.63306
#
# Poissons Ratio (x) = 0.20200 0.48876
# Poissons Ratio (y) = 0.20200 0.48876
# Poissons Ratio (z) = 0.42215 0.42215
#
# Static dielectric constant tensor:
#      x y z
#    x 2.894490 0.000000 0.000000 
#    y 0.000000 2.894490 0.000000 
#    z 0.000000 0.000000 3.381210 
# 
# 
# High freq. dielectric constant tensor:
#      x y z
#    x 1.597340 0.000000 0.000000 
#    y 0.000000 1.597340 0.000000 
#    z 0.000000 0.000000 1.628280 
# 
# From -- ./inp_files/4485.got.cif
#   From: 2010.03.12/outbox.cif.g09.slc.cpg/sg187_3_cif.got.tgz:4485.got - 2010.04.01 11:58:23.
