data_PCOD8327116
_publ_section_title
;
Structure prediction by ZEFSAII (Michael W. Deem and Ramdas Pophale) SiO2 
 PCOD8327116
Probable space group: P -6 M 2
;
_chemical_formula_sum "Si O2"
_cell_formula_units_Z 54
_cell_length_a 12.494477
_cell_length_b 12.494477
_cell_length_c 23.641132
_cell_angle_alpha 90.000000
_cell_angle_beta 90.000000
_cell_angle_gamma 120.000000
_cell_volume 3196.208215
_symmetry_space_group_name_H-M "P -6 M 2"
_symmetry_group_IT_number 187
_symmetry_cell_setting 'hexagonal'
loop_
_space_group_symop_operation_xyz
x,y,z
-x+y,-x,-z
-y,x-y,z
x,y,-z
-x+y,-x,z
-y,x-y,-z
-y,-x,-z
-x+y,y,-z
x,x-y,-z
-x+y,y,z
x,x-y,z
-y,-x,z
loop_
_atom_site_type_symbol
_atom_site_label
_atom_site_fract_x
_atom_site_fract_y
_atom_site_fract_z
Si Si1 0.250463 0.998683 0.317725
Si Si2 0.415443 0.083402 0.000000
Si Si3 0.417145 0.084659 0.786353
Si Si4 0.998462 0.249057 0.893101
Si Si5 0.244407 0.997845 0.440207
O O1 0.125944 0.874057 0.301037
O O2 0.301686 0.986976 0.380222
O O3 0.220491 0.110246 0.316874
O O4 0.356914 0.022978 0.273475
O O5 0.338284 0.013872 0.055207
O O6 0.538827 0.077653 0.000000
O O7 0.451599 0.225800 0.000000
O O8 0.537124 0.074248 0.796534
O O9 0.456195 0.228098 0.787787
O O10 0.319399 0.009584 0.834970
O O11 0.129490 0.258979 0.896872
O O12 0.894144 0.105857 0.896352
O O13 0.298304 0.974120 0.500000
O O14 0.098566 0.901435 0.436844
O O15 0.266065 0.133033 0.444516
#
# Coordination Sequence:
#
# PCOD8327116 Si02
#       5
#    12   6  12  12  12
#     4   9  16  26  43  67  93 119 146 182 229 279
#     4  10  20  34  54  78 104 134 166 198 226 256
#     4  10  20  33  49  67  89 120 157 196 233 271
#     4  10  20  34  54  78 102 126 152 189 237 285
#     4   8  12  18  31  55  87 118 144 172 214 271
#
# _framework density 16.895019000000001
#
# number of rings (size 3 to 8) (size 9 to 14) (size 15 to 20)
#    0.000    2.667    0.000    2.667    0.000    2.667 
#    0.000    5.556    0.000   11.333    0.000    0.000 
#    0.000    1.778    0.000    0.000    0.000    0.000 
#
# Total GULP energy -669012.303169 kJ/mol
# GULP energy per Si atom -12389.116725 kJ/mol
# Density = 1.685657 g / cm^3
# Si number density = 16.895019 Si / 1000 Ang^3
#
#
#
# Elastic Constant Matrix: (Units=GPa)
#
#
# Indices 1 2 3 4 5 6 
#
# 1 81.2303 52.2050 47.5267 0.0000 -0.0001 0.0000
# 2 52.2050 81.2303 47.5267 0.0000 0.0001 0.0000
# 3 47.5267 47.5267 152.1255 0.0000 0.0000 0.0000
# 4 0.0000 0.0000 0.0000 12.5886 0.0000 0.0001
# 5 -0.0001 0.0001 0.0000 0.0000 12.5886 0.0000
# 6 0.0000 0.0000 0.0000 0.0001 0.0000 14.5127
#
#
#
# Elastic Compliance Matrix: (Units=1/GPa)
#
#
# Indices 1 2 3 4 5 6 
#
# 1 0.022046 -0.012407 -0.003012 0.000000 0.000000 0.000000
# 2 -0.012407 0.022046 -0.003012 0.000000 0.000000 0.000000
# 3 -0.003012 -0.003012 0.008455 0.000000 0.000000 0.000000
# 4 0.000000 0.000000 0.000000 0.079437 0.000000 0.000000
# 5 0.000000 0.000000 0.000000 0.000000 0.079437 0.000000
# 6 0.000000 0.000000 0.000000 0.000000 0.000000 0.068905
#
#
# Mechanical properties :
#
#
# Convention : Reuss Voigt Hill
#
# Bulk Modulus (GPa) = 63.74253 67.67811 65.71032
# Shear Modulus (GPa) = 15.50792 19.09315 17.30054
#
# Velocity S-wave (km/s) = 3.03297 3.36535 3.20347
# Velocity P-wave (km/s) = 7.07642 7.43275 7.25677
#
# Compressibility (1/GPa) = 0.01568811
#
# Stress axis : x y z
#
# Youngs Moduli (GPa) = 45.35943 45.35943 118.26967
#
# Poissons Ratio (x) = 0.56275 0.35618
# Poissons Ratio (y) = 0.56275 0.35618
# Poissons Ratio (z) = 0.13660 0.13660
#
# Static dielectric constant tensor:
#      x y z
#    x 2.816380 0.000000 0.000000 
#    y 0.000000 2.816380 0.000000 
#    z 0.000000 0.000000 3.910350 
# 
# 
# High freq. dielectric constant tensor:
#      x y z
#    x 1.617970 0.000000 0.000000 
#    y 0.000000 1.617970 0.000000 
#    z 0.000000 0.000000 1.688630 
# 
# From -- ./inp_files/3861.got.cif
#   From: 2010.03.12/outbox.cif.g09.slc.cpg/sg187_2_cif.got.tgz:3861.got - 2010.04.01 11:58:23.
