data_PCOD8327791
_publ_section_title
;
Structure prediction by ZEFSAII (Michael W. Deem and Ramdas Pophale) SiO2 
 PCOD8327791
Probable space group: P -6 2 M
;
_chemical_formula_sum "Si O2"
_cell_formula_units_Z 63
_cell_length_a 24.667113
_cell_length_b 24.667113
_cell_length_c 7.647229
_cell_angle_alpha 90.000000
_cell_angle_beta 90.000000
_cell_angle_gamma 120.000000
_cell_volume 4029.687553
_symmetry_space_group_name_H-M "P -6 2 M"
_symmetry_group_IT_number 189
_symmetry_cell_setting 'hexagonal'
loop_
_space_group_symop_operation_xyz
x,y,z
-x+y,-x,-z
-y,x-y,z
x,y,-z
-x+y,-x,z
-y,x-y,-z
x-y,-y,-z
-x,-x+y,-z
y,x,-z
y,x,z
x-y,-y,z
-x,-x+y,z
loop_
_atom_site_type_symbol
_atom_site_label
_atom_site_fract_x
_atom_site_fract_y
_atom_site_fract_z
Si Si1 0.927171 0.794848 0.799806
Si Si2 0.668205 0.598561 0.000000
Si Si3 0.591242 0.074404 0.805778
Si Si4 0.074635 0.473492 0.308005
Si Si5 0.925986 0.714230 0.500000
Si Si6 0.824270 0.824270 0.702726
Si Si7 0.332405 0.407221 0.500000
Si Si8 0.000000 0.263207 0.000000
O O1 0.903764 0.734519 0.674755
O O2 0.890816 0.831129 0.748122
O O3 0.000000 0.843975 0.770251
O O4 0.913111 0.771037 0.000000
O O5 0.660835 0.559004 0.175897
O O6 0.730416 0.667562 0.000000
O O7 0.606979 0.606979 0.000000
O O8 0.544572 0.099487 0.753055
O O9 0.649231 0.100137 0.671676
O O10 0.553454 0.000000 0.799340
O O11 0.618140 0.098393 0.000000
O O12 0.102109 0.474326 0.500000
O O13 0.000000 0.435760 0.317220
O O14 0.896980 0.639492 0.500000
O O15 0.000000 0.746853 0.500000
O O16 0.806363 0.806363 0.500000
O O17 0.770885 0.770885 0.822669
O O18 0.368407 0.368407 0.500000
#
# Coordination Sequence:
#
# PCOD8327791 Si02
#       8
#    12   6  12  12   6   6   6   3
#     4  10  20  36  57  75  90 113 139 171 236 320
#     4   8  16  26  36  52  81 105 140 185 210 250
#     4   9  14  19  30  48  74 108 145 176 216 244
#     4   9  13  19  33  49  70 107 145 178 214 246
#     4   9  18  31  47  67  89 110 144 174 218 282
#     4  12  22  36  58  74  96 116 138 182 243 312
#     4   9  16  24  33  55  83 107 138 186 210 248
#     4  10  22  34  44  70  92 112 150 184 230 276
#
# _framework density 15.633965999999999
#
# number of rings (size 3 to 8) (size 9 to 14) (size 15 to 20)
#    0.286    2.286    3.810    0.000    0.000    1.524 
#    0.571    3.810    0.000    0.000    0.000    0.000 
#    0.000    0.000    0.000    0.000    0.000    0.000 
#
# Total GULP energy -780683.709542 kJ/mol
# GULP energy per Si atom -12391.804913 kJ/mol
# Density = 1.559838 g / cm^3
# Si number density = 15.633966 Si / 1000 Ang^3
#
#
#
# Elastic Constant Matrix: (Units=GPa)
#
#
# Indices 1 2 3 4 5 6 
#
# 1 56.3589 25.1437 42.4346 0.0000 0.0000 0.0000
# 2 25.1437 56.3589 42.4346 0.0000 0.0000 0.0000
# 3 42.4346 42.4346 171.9454 0.0000 0.0000 0.0000
# 4 0.0000 0.0000 0.0000 17.9787 0.0000 0.0000
# 5 0.0000 0.0000 0.0000 0.0000 17.9787 0.0000
# 6 0.0000 0.0000 0.0000 0.0000 0.0000 15.6076
#
#
#
# Elastic Compliance Matrix: (Units=1/GPa)
#
#
# Indices 1 2 3 4 5 6 
#
# 1 0.024274 -0.007761 -0.004075 0.000000 0.000000 0.000000
# 2 -0.007761 0.024274 -0.004075 0.000000 0.000000 0.000000
# 3 -0.004075 -0.004075 0.007827 0.000000 0.000000 0.000000
# 4 0.000000 0.000000 0.000000 0.055621 0.000000 0.000000
# 5 0.000000 0.000000 0.000000 0.000000 0.055621 0.000000
# 6 0.000000 0.000000 0.000000 0.000000 0.000000 0.064071
#
#
# Mechanical properties :
#
#
# Convention : Reuss Voigt Hill
#
# Bulk Modulus (GPa) = 40.72911 56.07655 48.40283
# Shear Modulus (GPa) = 18.40279 21.95637 20.17958
#
# Velocity S-wave (km/s) = 3.43462 3.75160 3.59660
# Velocity P-wave (km/s) = 6.46815 7.39677 6.94800
#
# Compressibility (1/GPa) = 0.02455247
#
# Stress axis : x y z
#
# Youngs Moduli (GPa) = 41.19559 41.19559 127.75792
#
# Poissons Ratio (x) = 0.31973 0.52065
# Poissons Ratio (y) = 0.31973 0.52065
# Poissons Ratio (z) = 0.16788 0.16788
#
# Static dielectric constant tensor:
#      x y z
#    x 2.645760 0.000000 0.000000 
#    y 0.000000 2.645760 0.000000 
#    z 0.000000 0.000000 3.423520 
# 
# 
# High freq. dielectric constant tensor:
#      x y z
#    x 1.549310 0.000000 0.000000 
#    y 0.000000 1.549310 0.000000 
#    z 0.000000 0.000000 1.629460 
# 
# From -- ./inp_files/1194.got.cif
#   From: 2010.03.12/outbox.cif.g09.slc.cpg/sg189_1_cif.got.tgz:1194.got - 2010.04.01 12:03:36.
