data_PCOD8327041
_publ_section_title
;
Structure prediction by ZEFSAII (Michael W. Deem and Ramdas Pophale) SiO2 
 PCOD8327041
Probable space group: P -6 M 2
;
_chemical_formula_sum "Si O2"
_cell_formula_units_Z 72
_cell_length_a 12.569576
_cell_length_b 12.569576
_cell_length_c 30.584142
_cell_angle_alpha 90.000000
_cell_angle_beta 90.000000
_cell_angle_gamma 120.000000
_cell_volume 4184.737199
_symmetry_space_group_name_H-M "P -6 M 2"
_symmetry_group_IT_number 187
_symmetry_cell_setting 'hexagonal'
loop_
_space_group_symop_operation_xyz
x,y,z
-x+y,-x,-z
-y,x-y,z
x,y,-z
-x+y,-x,z
-y,x-y,-z
-y,-x,-z
-x+y,y,-z
x,x-y,-z
-x+y,y,z
x,x-y,z
-y,-x,z
loop_
_atom_site_type_symbol
_atom_site_label
_atom_site_fract_x
_atom_site_fract_y
_atom_site_fract_z
Si Si1 0.914808 0.581810 0.164313
Si Si2 0.917236 0.334850 0.000000
Si Si3 0.581357 0.916507 0.917748
Si Si4 0.085224 0.418022 0.500000
Si Si5 0.247320 0.246005 0.246015
Si Si6 0.420955 0.333244 0.577318
Si Si7 0.666464 0.578954 0.323760
O O1 0.788457 0.576914 0.152341
O O2 0.887048 0.443524 0.168865
O O3 0.971351 0.651658 0.209338
O O4 0.012653 0.655086 0.126747
O O5 0.995711 0.343801 0.042364
O O6 0.794581 0.205420 0.000000
O O7 0.880608 0.440304 0.000000
O O8 0.438691 0.877381 0.920404
O O9 0.592249 0.796125 0.920122
O O10 0.214891 0.429782 0.500000
O O11 0.105687 0.552844 0.500000
O O12 0.015745 0.346448 0.456200
O O13 0.204248 0.102124 0.244808
O O14 0.307302 0.304967 0.292596
O O15 0.131059 0.262117 0.237908
O O16 0.414573 0.207287 0.566030
O O17 0.560578 0.439423 0.570269
O O18 0.377907 0.336132 0.626788
O O19 0.769921 0.539842 0.318523
O O20 0.537477 0.462524 0.310392
#
# Coordination Sequence:
#
# PCOD8327041 Si02
#       7
#    12   6  12   6  12  12  12
#     4  10  20  34  54  78 102 128 160 203 252 298
#     4  10  20  34  54  78 104 134 168 210 256 298
#     4  10  20  34  53  76 103 135 169 204 243 291
#     4  10  20  32  46  64  90 126 164 198 232 276
#     4  10  20  33  49  69  96 131 168 202 235 278
#     4   9  17  30  50  75  98 120 150 193 245 292
#     4   9  17  30  50  75 100 124 152 192 242 292
#
# _framework density 17.205380999999999
#
# number of rings (size 3 to 8) (size 9 to 14) (size 15 to 20)
#    0.000    2.333    0.000    3.000    0.000    2.000 
#    0.000    5.000    0.000   10.667    0.000    0.000 
#    0.000    0.000    0.000    0.000    0.000    0.000 
#
# Total GULP energy -892964.110967 kJ/mol
# GULP energy per Si atom -12402.279319 kJ/mol
# Density = 1.716622 g / cm^3
# Si number density = 17.205381 Si / 1000 Ang^3
#
#
#
# Elastic Constant Matrix: (Units=GPa)
#
#
# Indices 1 2 3 4 5 6 
#
# 1 92.2224 46.6741 46.1555 0.0000 0.0001 0.0000
# 2 46.6741 92.2224 46.1555 0.0000 -0.0001 0.0000
# 3 46.1555 46.1555 111.0620 0.0000 0.0000 0.0000
# 4 0.0000 0.0000 0.0000 19.5529 0.0000 -0.0001
# 5 0.0001 -0.0001 0.0000 0.0000 19.5529 0.0000
# 6 0.0000 0.0000 0.0000 -0.0001 0.0000 22.7742
#
#
#
# Elastic Compliance Matrix: (Units=1/GPa)
#
#
# Indices 1 2 3 4 5 6 
#
# 1 0.015951 -0.006004 -0.004134 0.000000 0.000000 0.000000
# 2 -0.006004 0.015951 -0.004134 0.000000 0.000000 0.000000
# 3 -0.004134 -0.004134 0.012440 0.000000 0.000000 0.000000
# 4 0.000000 0.000000 0.000000 0.051143 0.000000 0.000000
# 5 0.000000 0.000000 0.000000 0.000000 0.051143 0.000000
# 6 0.000000 0.000000 0.000000 0.000000 0.000000 0.043909
#
#
# Mechanical properties :
#
#
# Convention : Reuss Voigt Hill
#
# Bulk Modulus (GPa) = 63.29678 63.71963 63.50820
# Shear Modulus (GPa) = 22.28696 22.81079 22.54887
#
# Velocity S-wave (km/s) = 3.60300 3.64510 3.62411
# Velocity P-wave (km/s) = 7.36054 7.40478 7.38269
#
# Compressibility (1/GPa) = 0.01579859
#
# Stress axis : x y z
#
# Youngs Moduli (GPa) = 62.69274 62.69274 80.38694
#
# Poissons Ratio (x) = 0.37640 0.33230
# Poissons Ratio (y) = 0.37640 0.33230
# Poissons Ratio (z) = 0.25916 0.25916
#
# Static dielectric constant tensor:
#      x y z
#    x 3.059480 0.000000 0.000000 
#    y 0.000000 3.059480 0.000000 
#    z 0.000000 0.000000 3.488800 
# 
# 
# High freq. dielectric constant tensor:
#      x y z
#    x 1.656130 0.000000 0.000000 
#    y 0.000000 1.656130 0.000000 
#    z 0.000000 0.000000 1.683990 
# 
# From -- ./inp_files/4548.got.cif
#   From: 2010.03.12/outbox.cif.g09.slc.cpg/sg187_3_cif.got.tgz:4548.got - 2010.04.01 11:58:23.
