data_PCOD8327590
_publ_section_title
;
Structure prediction by ZEFSAII (Michael W. Deem and Ramdas Pophale) SiO2 
 PCOD8327590
Probable space group: P -6 2 M
;
_chemical_formula_sum "Si O2"
_cell_formula_units_Z 72
_cell_length_a 16.141420
_cell_length_b 16.141420
_cell_length_c 18.145466
_cell_angle_alpha 90.000000
_cell_angle_beta 90.000000
_cell_angle_gamma 120.000000
_cell_volume 4094.324250
_symmetry_space_group_name_H-M "P -6 2 M"
_symmetry_group_IT_number 189
_symmetry_cell_setting 'hexagonal'
loop_
_space_group_symop_operation_xyz
x,y,z
-x+y,-x,-z
-y,x-y,z
x,y,-z
-x+y,-x,z
-y,x-y,-z
x-y,-y,-z
-x,-x+y,-z
y,x,-z
y,x,z
x-y,-y,z
-x,-x+y,z
loop_
_atom_site_type_symbol
_atom_site_label
_atom_site_fract_x
_atom_site_fract_y
_atom_site_fract_z
Si Si1 0.111597 0.630626 0.080888
Si Si2 0.609380 0.722482 0.696248
Si Si3 0.635264 0.526422 0.158919
Si Si4 0.247579 0.548937 0.584992
Si Si5 0.781892 0.889427 0.225666
Si Si6 0.660919 0.820934 0.085325
O O1 0.159996 0.583999 0.131994
O O2 0.128976 0.730253 0.112610
O O3 0.000000 0.556224 0.074905
O O4 0.159208 0.649372 0.000000
O O5 0.651871 0.651871 0.680079
O O6 0.535759 0.689360 0.764936
O O7 0.548027 0.725940 0.628379
O O8 0.696013 0.827662 0.717158
O O9 0.561304 0.561304 0.176616
O O10 0.707415 0.592831 0.094899
O O11 0.361737 0.590373 0.601415
O O12 0.226039 0.519367 0.500000
O O13 0.867385 0.867385 0.239609
O O14 0.750696 0.861597 0.140164
O O15 0.818701 0.000000 0.241017
O O16 0.695494 0.844428 0.000000
#
# Coordination Sequence:
#
# PCOD8327590 Si02
#       6
#    12  12  12  12  12  12
#     4   9  17  29  43  59  85 123 161 201 255 307
#     4   9  18  32  52  79 105 135 177 213 247 301
#     4   9  18  31  45  64  92 126 163 202 247 297
#     4   8  17  34  55  79 113 148 169 196 246 298
#     4  10  21  36  53  73  99 132 171 218 271 320
#     4  10  19  31  47  68  93 125 167 218 264 309
#
# _framework density 17.585319999999999
#
# number of rings (size 3 to 8) (size 9 to 14) (size 15 to 20)
#    0.333    2.500    0.000    2.667    0.000    6.000 
#    1.000    2.500    0.000    2.500    0.000    0.000 
#    0.000    1.333    0.000    0.000    0.000    0.000 
#
# Total GULP energy -891992.369408 kJ/mol
# GULP energy per Si atom -12388.782908 kJ/mol
# Density = 1.754530 g / cm^3
# Si number density = 17.585320 Si / 1000 Ang^3
#
#
#
# Elastic Constant Matrix: (Units=GPa)
#
#
# Indices 1 2 3 4 5 6 
#
# 1 80.1704 31.1926 44.4275 0.0000 0.0000 0.0000
# 2 31.1926 80.1704 44.4275 0.0000 0.0000 0.0000
# 3 44.4275 44.4275 86.7493 0.0000 0.0000 0.0000
# 4 0.0000 0.0000 0.0000 19.6643 0.0000 0.0000
# 5 0.0000 0.0000 0.0000 0.0000 19.6643 0.0000
# 6 0.0000 0.0000 0.0000 0.0000 0.0000 24.4889
#
#
#
# Elastic Compliance Matrix: (Units=1/GPa)
#
#
# Indices 1 2 3 4 5 6 
#
# 1 0.017801 -0.002616 -0.007777 0.000000 0.000000 0.000000
# 2 -0.002616 0.017801 -0.007777 0.000000 0.000000 0.000000
# 3 -0.007777 -0.007777 0.019493 0.000000 0.000000 0.000000
# 4 0.000000 0.000000 0.000000 0.050853 0.000000 0.000000
# 5 0.000000 0.000000 0.000000 0.000000 0.050853 0.000000
# 6 0.000000 0.000000 0.000000 0.000000 0.000000 0.040835
#
#
# Mechanical properties :
#
#
# Convention : Reuss Voigt Hill
#
# Bulk Modulus (GPa) = 53.31749 54.13169 53.72459
# Shear Modulus (GPa) = 20.81363 21.23301 21.02332
#
# Velocity S-wave (km/s) = 3.44405 3.47858 3.46136
# Velocity P-wave (km/s) = 6.79709 6.85442 6.82582
#
# Compressibility (1/GPa) = 0.01875557
#
# Stress axis : x y z
#
# Youngs Moduli (GPa) = 56.17689 56.17689 51.30114
#
# Poissons Ratio (x) = 0.14699 0.39894
# Poissons Ratio (y) = 0.14699 0.39894
# Poissons Ratio (z) = 0.43686 0.43686
#
# Static dielectric constant tensor:
#      x y z
#    x 3.193100 0.000000 0.000000 
#    y 0.000000 3.193100 0.000000 
#    z 0.000000 0.000000 3.101240 
# 
# 
# High freq. dielectric constant tensor:
#      x y z
#    x 1.669400 0.000000 0.000000 
#    y 0.000000 1.669400 0.000000 
#    z 0.000000 0.000000 1.657130 
# 
# From -- ./inp_files/3185.got.cif
#   From: 2010.03.12/outbox.cif.g09.slc.cpg/sg189_2_cif.got.tgz:3185.got - 2010.04.01 12:03:36.
