data_PCOD8327304
_publ_section_title
;
Structure prediction by ZEFSAII (Michael W. Deem and Ramdas Pophale) SiO2 
 PCOD8327304
Probable space group: P -6 C 2
;
_chemical_formula_sum "Si O2"
_cell_formula_units_Z 48
_cell_length_a 24.413643
_cell_length_b 24.413643
_cell_length_c 5.325781
_cell_angle_alpha 90.000000
_cell_angle_beta 90.000000
_cell_angle_gamma 120.000000
_cell_volume 2749.027693
_symmetry_space_group_name_H-M "P -6 C 2"
_symmetry_group_IT_number 188
_symmetry_cell_setting 'hexagonal'
loop_
_space_group_symop_operation_xyz
x,y,z
-x+y,-x,1/2-z
-y,x-y,z
x,y,1/2-z
-x+y,-x,z
-y,x-y,1/2-z
-y,-x,-z
-x+y,y,-z
x,x-y,-z
-x+y,y,1/2+z
x,x-y,1/2+z
-y,-x,1/2+z
loop_
_atom_site_type_symbol
_atom_site_label
_atom_site_fract_x
_atom_site_fract_y
_atom_site_fract_z
Si Si1 0.851545 0.641379 0.750000
Si Si2 0.631842 0.960334 0.250000
Si Si3 0.150614 0.341247 0.750000
Si Si4 0.063780 0.502375 0.750000
Si Si5 0.800875 0.874727 0.250000
Si Si6 0.657139 0.036729 0.750000
Si Si7 0.209208 0.072355 0.250000
Si Si8 0.928268 0.479230 0.750000
O O1 0.809255 0.618509 0.500000
O O2 0.892374 0.606993 0.750000
O O3 0.897414 0.716044 0.750000
O O4 0.663267 0.916575 0.250000
O O5 0.554834 0.920414 0.250000
O O6 0.659198 0.001698 0.499756
O O7 0.189141 0.378281 0.500000
O O8 0.148347 0.273644 0.750000
O O9 0.091888 0.545944 0.500000
O O10 0.987504 0.466683 0.750000
O O11 0.832537 0.916269 0.500000
O O12 0.814601 0.817043 0.250000
O O13 0.594448 0.040956 0.750000
O O14 0.186686 0.093343 0.500000
O O15 0.887737 0.443869 0.500000
#
# Coordination Sequence:
#
# PCOD8327304 Si02
#       8
#     6   6   6   6   6   6   6   6
#     4  10  23  38  49  74 102 134 182 219 257 319
#     4  12  21  31  54  80 103 153 182 208 270 315
#     4  10  23  37  47  74 110 137 179 218 260 334
#     4  10  16  30  46  73 115 133 176 216 237 294
#     4  10  21  35  55  76  98 122 155 218 272 330
#     4  12  21  31  56  76 104 149 179 215 258 314
#     4  10  21  38  58  73  93 124 166 220 270 327
#     4  10  16  30  45  76 111 134 173 214 240 287
#
# _framework density 17.460720999999999
#
# number of rings (size 3 to 8) (size 9 to 14) (size 15 to 20)
#    0.000    1.500    5.000    2.250    7.000    0.000 
#    0.000    0.000    0.000    5.000    0.000    0.000 
#    0.000    0.000    0.000   15.000    0.000    0.000 
#
# Total GULP energy -594863.103957 kJ/mol
# GULP energy per Si atom -12392.981332 kJ/mol
# Density = 1.742098 g / cm^3
# Si number density = 17.460721 Si / 1000 Ang^3
#
#
#
# Elastic Constant Matrix: (Units=GPa)
#
#
# Indices 1 2 3 4 5 6 
#
# 1 44.2861 21.5210 24.6977 0.0000 0.0000 0.0000
# 2 21.5210 44.2861 24.6977 0.0000 0.0000 0.0000
# 3 24.6977 24.6977 202.4701 0.0000 0.0000 0.0000
# 4 0.0000 0.0000 0.0000 -3.1721 0.0000 0.0000
# 5 0.0000 0.0000 0.0000 0.0000 -3.1721 0.0000
# 6 0.0000 0.0000 0.0000 0.0000 0.0000 11.3825
#
#
#
# Elastic Compliance Matrix: (Units=1/GPa)
#
#
# Indices 1 2 3 4 5 6 
#
# 1 0.030327 -0.013600 -0.002040 0.000000 0.000000 0.000000
# 2 -0.013600 0.030327 -0.002040 0.000000 0.000000 0.000000
# 3 -0.002040 -0.002040 0.005437 0.000000 0.000000 0.000000
# 4 0.000000 0.000000 0.000000 -0.315244 0.000000 0.000000
# 5 0.000000 0.000000 0.000000 0.000000 -0.315244 -0.000001
# 6 0.000000 0.000000 0.000000 0.000000 -0.000001 0.087854
#
#
# Mechanical properties :
#
#
# Convention : Reuss Voigt Hill
#
# Bulk Modulus (GPa) = 32.54145 48.09721 40.31933
# Shear Modulus (GPa) = -11.60256 15.68271 2.04007
#
# Velocity S-wave (km/s) = -2.58058 3.00020 1.08209
# Velocity P-wave (km/s) = 3.13021 6.29344 4.97019
#
# Compressibility (1/GPa) = 0.03073004
#
# Stress axis : x y z
#
# Youngs Moduli (GPa) = 32.97368 32.97368 183.93179
#
# Poissons Ratio (x) = 0.44843 0.37530
# Poissons Ratio (y) = 0.44843 0.37530
# Poissons Ratio (z) = 0.06728 0.06728
#
# Static dielectric constant tensor:
#      x y z
#    x 2.917810 0.000000 0.000000 
#    y 0.000000 2.917810 0.000000 
#    z 0.000000 0.000000 4.563110 
# 
# 
# High freq. dielectric constant tensor:
#      x y z
#    x 1.632580 0.000000 0.000000 
#    y 0.000000 1.632580 0.000000 
#    z 0.000000 0.000000 1.722520 
# 
# From -- ./inp_files/53.got.cif
#   From: 2010.03.12/outbox.cif.g09.slc.cpg/sg188_1_cif.got.tgz:53.got - 2010.04.01 12:01:06.
