data_PCOD8327579
_publ_section_title
;
Structure prediction by ZEFSAII (Michael W. Deem and Ramdas Pophale) SiO2 
 PCOD8327579
Probable space group: P -6 2 M
;
_chemical_formula_sum "Si O2"
_cell_formula_units_Z 96
_cell_length_a 17.937523
_cell_length_b 17.937523
_cell_length_c 20.472771
_cell_angle_alpha 90.000000
_cell_angle_beta 90.000000
_cell_angle_gamma 120.000000
_cell_volume 5704.692009
_symmetry_space_group_name_H-M "P -6 2 M"
_symmetry_group_IT_number 189
_symmetry_cell_setting 'hexagonal'
loop_
_space_group_symop_operation_xyz
x,y,z
-x+y,-x,-z
-y,x-y,z
x,y,-z
-x+y,-x,z
-y,x-y,-z
x-y,-y,-z
-x,-x+y,-z
y,x,-z
y,x,z
x-y,-y,z
-x,-x+y,z
loop_
_atom_site_type_symbol
_atom_site_label
_atom_site_fract_x
_atom_site_fract_y
_atom_site_fract_z
Si Si1 0.737437 0.097004 0.925897
Si Si2 0.898207 0.366557 0.427665
Si Si3 0.634143 0.898865 0.691066
Si Si4 0.468308 0.101044 0.812254
Si Si5 0.262563 0.902996 0.074103
Si Si6 0.366557 0.468349 0.427665
Si Si7 0.101136 0.365857 0.691066
Si Si8 0.101044 0.632736 0.187745
O O1 0.840000 0.160000 0.916928
O O2 0.687164 0.129262 0.879202
O O3 0.715036 0.000000 0.907596
O O4 0.709084 0.100882 0.000000
O O5 0.866532 0.325870 0.500000
O O6 0.860994 0.430497 0.411034
O O7 0.869329 0.292078 0.374557
O O8 0.000000 0.422865 0.426326
O O9 0.577250 0.869328 0.625443
O O10 0.679107 0.839554 0.695727
O O11 0.567336 0.872045 0.750461
O O12 0.707049 0.000000 0.692118
O O13 0.442098 0.129262 0.879202
O O14 0.432665 0.127957 0.750461
O O15 0.572323 0.144645 0.808874
O O16 0.428458 0.000000 0.811491
O O17 0.284964 0.000000 0.092404
O O18 0.290916 0.899118 0.000000
O O19 0.325870 0.459337 0.500000
O O20 0.422864 0.422864 0.426325
O O21 0.000000 0.292951 0.692119
O O22 0.000000 0.571541 0.188507
#
# Coordination Sequence:
#
# PCOD8327579 Si02
#       8
#    12  12  12  12  12  12  12  12
#     4   9  17  29  46  68  93 122 157 195 231 266
#     4   8  14  26  45  67  88 111 142 181 225 272
#     4  10  19  30  46  68  93 121 155 194 231 267
#     4   9  17  29  46  67  87 108 139 180 225 273
#     4   9  17  29  46  68  93 122 157 195 231 266
#     4   8  14  26  45  67  88 111 142 181 225 272
#     4  10  19  30  46  68  93 121 155 194 231 267
#     4   9  17  29  46  67  87 108 139 180 225 273
#
# _framework density 16.828253
#
# number of rings (size 3 to 8) (size 9 to 14) (size 15 to 20)
#    0.000    3.000    0.000    2.250    0.000    4.000 
#    0.000    2.500    0.000    9.500    0.000    1.750 
#    0.000    6.000    0.000    6.500    0.000    0.000 
#
# Total GULP energy -1189442.516860 kJ/mol
# GULP energy per Si atom -12390.026217 kJ/mol
# Density = 1.678995 g / cm^3
# Si number density = 16.828253 Si / 1000 Ang^3
#
#
#
# Elastic Constant Matrix: (Units=GPa)
#
#
# Indices 1 2 3 4 5 6 
#
# 1 84.2309 48.7870 43.3260 0.0000 0.0000 0.0000
# 2 48.7870 84.2309 43.3260 0.0000 0.0000 0.0000
# 3 43.3260 43.3260 114.0463 0.0000 0.0000 0.0000
# 4 0.0000 0.0000 0.0000 -0.0435 0.0000 0.0000
# 5 0.0000 0.0000 0.0000 0.0000 -0.0435 0.0000
# 6 0.0000 0.0000 0.0000 0.0000 0.0000 17.7220
#
#
#
# Elastic Compliance Matrix: (Units=1/GPa)
#
#
# Indices 1 2 3 4 5 6 
#
# 1 0.019102 -0.009112 -0.003795 0.000000 0.000000 0.000000
# 2 -0.009112 0.019102 -0.003795 0.000000 0.000000 0.000000
# 3 -0.003795 -0.003795 0.011652 0.000000 0.000000 0.000000
# 4 0.000000 0.000000 0.000000-22.994286 -0.000119 0.000000
# 5 0.000000 0.000000 0.000000 -0.000119-22.994149 0.000000
# 6 0.000000 0.000000 0.000000 0.000000 0.000000 0.056427
#
#
# Mechanical properties :
#
#
# Convention : Reuss Voigt Hill
#
# Bulk Modulus (GPa) = 60.78552 61.48736 61.13644
# Shear Modulus (GPa) = -0.10907 13.33161 6.61127
#
# Velocity S-wave (km/s) = -0.25486 2.81769 1.98424
# Velocity P-wave (km/s) = 6.00940 6.87047 6.45431
#
# Compressibility (1/GPa) = 0.01645129
#
# Stress axis : x y z
#
# Youngs Moduli (GPa) = 52.35098 52.35098 85.82239
#
# Poissons Ratio (x) = 0.47701 0.32572
# Poissons Ratio (y) = 0.47701 0.32572
# Poissons Ratio (z) = 0.19868 0.19868
#
# Static dielectric constant tensor:
#      x y z
#    x 3.016130 0.000000 0.000000 
#    y 0.000000 3.016130 0.000000 
#    z 0.000000 0.000000 3.549970 
# 
# 
# High freq. dielectric constant tensor:
#      x y z
#    x 1.618360 0.000000 0.000000 
#    y 0.000000 1.618360 0.000000 
#    z 0.000000 0.000000 1.670150 
# 
# From -- ./inp_files/3512.got.cif
#   From: 2010.03.12/outbox.cif.g09.slc.cpg/sg189_2_cif.got.tgz:3512.got - 2010.04.01 12:03:36.
