data_PCOD8327326
_publ_section_title
;
Structure prediction by ZEFSAII (Michael W. Deem and Ramdas Pophale) SiO2 
 PCOD8327326
Probable space group: P -6 C 2
;
_chemical_formula_sum "Si O2"
_cell_formula_units_Z 46
_cell_length_a 15.600350
_cell_length_b 15.600350
_cell_length_c 14.464716
_cell_angle_alpha 90.000000
_cell_angle_beta 90.000000
_cell_angle_gamma 120.000000
_cell_volume 3048.661644
_symmetry_space_group_name_H-M "P -6 C 2"
_symmetry_group_IT_number 188
_symmetry_cell_setting 'hexagonal'
loop_
_space_group_symop_operation_xyz
x,y,z
-x+y,-x,1/2-z
-y,x-y,z
x,y,1/2-z
-x+y,-x,z
-y,x-y,1/2-z
-y,-x,-z
-x+y,y,-z
x,x-y,-z
-x+y,y,1/2+z
x,x-y,1/2+z
-y,-x,1/2+z
loop_
_atom_site_type_symbol
_atom_site_label
_atom_site_fract_x
_atom_site_fract_y
_atom_site_fract_z
Si Si1 0.863152 0.334044 0.856716
Si Si2 0.309350 0.054652 0.000000
Si Si3 0.863151 0.334044 0.143284
Si Si4 0.000000 0.000000 0.136123
Si Si5 0.088606 0.911395 0.500000
O O1 0.889277 0.337621 0.750000
O O2 0.751390 0.248610 0.878387
O O3 0.873388 0.436694 0.890482
O O4 0.940594 0.313021 0.910289
O O5 0.372427 0.059406 0.089711
O O6 0.205791 0.953798 0.000001
O O7 0.283683 0.141842 0.000000
O O8 0.889277 0.337621 0.250000
O O9 0.055599 0.111194 0.094094
O O10 0.000000 0.000000 0.250000
#
# Coordination Sequence:
#
# PCOD8327326 Si02
#       5
#    12  12  12   4   6
#     4   9  17  28  44  67  94 124 152 178 213 261
#     4  10  18  30  45  61  91 120 151 188 223 263
#     4   9  17  28  44  67  94 124 152 178 213 261
#     4  10  20  34  52  62  82 124 158 196 244 269
#     4  10  20  36  44  68  92 114 158 200 226 282
#
# _framework density 15.088588
#
# number of rings (size 3 to 8) (size 9 to 14) (size 15 to 20)
#    0.000    2.609    2.609    1.304    0.000    4.174 
#    0.000    2.609    0.000    0.000    0.000    0.000 
#   10.435    0.000    0.000    0.000    0.000    0.000 
#
# Total GULP energy -570272.751201 kJ/mol
# GULP energy per Si atom -12397.233722 kJ/mol
# Density = 1.505425 g / cm^3
# Si number density = 15.088588 Si / 1000 Ang^3
#
#
#
# Elastic Constant Matrix: (Units=GPa)
#
#
# Indices 1 2 3 4 5 6 
#
# 1 108.6948 59.6672 45.2397 0.0000 0.0000 0.0000
# 2 59.6672 108.6948 45.2397 0.0000 0.0000 0.0000
# 3 45.2397 45.2397 95.0836 0.0000 0.0000 0.0000
# 4 0.0000 0.0000 0.0000 14.2129 0.0000 0.0000
# 5 0.0000 0.0000 0.0000 0.0000 14.2129 0.0000
# 6 0.0000 0.0000 0.0000 0.0000 0.0000 24.5138
#
#
#
# Elastic Compliance Matrix: (Units=1/GPa)
#
#
# Indices 1 2 3 4 5 6 
#
# 1 0.014188 -0.006208 -0.003797 0.000000 0.000000 0.000000
# 2 -0.006208 0.014188 -0.003797 0.000000 0.000000 0.000000
# 3 -0.003797 -0.003797 0.014130 0.000000 0.000000 0.000000
# 4 0.000000 0.000000 0.000000 0.070359 0.000000 0.000000
# 5 0.000000 0.000000 0.000000 0.000000 0.070359 0.000000
# 6 0.000000 0.000000 0.000000 0.000000 0.000000 0.040793
#
#
# Mechanical properties :
#
#
# Convention : Reuss Voigt Hill
#
# Bulk Modulus (GPa) = 67.10129 68.08514 67.59321
# Shear Modulus (GPa) = 19.48641 21.40968 20.44804
#
# Velocity S-wave (km/s) = 3.59760 3.77096 3.68530
# Velocity P-wave (km/s) = 7.86289 8.01135 7.93747
#
# Compressibility (1/GPa) = 0.01490284
#
# Stress axis : x y z
#
# Youngs Moduli (GPa) = 70.48036 70.48036 70.77140
#
# Poissons Ratio (x) = 0.43757 0.26870
# Poissons Ratio (y) = 0.43757 0.26870
# Poissons Ratio (z) = 0.26760 0.26760
#
# Static dielectric constant tensor:
#      x y z
#    x 2.742500 0.000000 0.000000 
#    y 0.000000 2.742500 0.000000 
#    z 0.000000 0.000000 3.154330 
# 
# 
# High freq. dielectric constant tensor:
#      x y z
#    x 1.552090 0.000000 0.000000 
#    y 0.000000 1.552090 0.000000 
#    z 0.000000 0.000000 1.590560 
# 
# From -- ./inp_files/2119.got.cif
#   From: 2010.03.12/outbox.cif.g09.slc.cpg/sg188_2_cif.got.tgz:2119.got - 2010.04.01 12:01:06.
