data_PCOD8327253
_publ_section_title
;
Structure prediction by ZEFSAII (Michael W. Deem and Ramdas Pophale) SiO2 
 PCOD8327253
Probable space group: P -6 M 2
;
_chemical_formula_sum "Si O2"
_cell_formula_units_Z 60
_cell_length_a 21.096330
_cell_length_b 21.096330
_cell_length_c 8.717272
_cell_angle_alpha 90.000000
_cell_angle_beta 90.000000
_cell_angle_gamma 120.000000
_cell_volume 3359.889925
_symmetry_space_group_name_H-M "P -6 M 2"
_symmetry_group_IT_number 187
_symmetry_cell_setting 'hexagonal'
loop_
_space_group_symop_operation_xyz
x,y,z
-x+y,-x,-z
-y,x-y,z
x,y,-z
-x+y,-x,z
-y,x-y,-z
-y,-x,-z
-x+y,y,-z
x,x-y,-z
-x+y,y,z
x,x-y,z
-y,-x,z
loop_
_atom_site_type_symbol
_atom_site_label
_atom_site_fract_x
_atom_site_fract_y
_atom_site_fract_z
Si Si1 0.540437 0.080874 0.320429
Si Si2 0.214538 0.292863 0.318349
Si Si3 0.697956 0.158301 0.178498
Si Si4 0.301794 0.843061 0.679262
Si Si5 0.917762 0.223577 0.676730
Si Si6 0.459217 0.540784 0.179452
O O1 0.534495 0.068989 0.500000
O O2 0.624787 0.129616 0.274650
O O3 0.499871 0.999741 0.250099
O O4 0.209717 0.291494 0.500000
O O5 0.133427 0.266853 0.250517
O O6 0.269963 0.375445 0.266118
O O7 0.243199 0.239368 0.260528
O O8 0.757229 0.242772 0.221239
O O9 0.732019 0.107500 0.216622
O O10 0.678274 0.151205 0.000000
O O11 0.321421 0.853426 0.500000
O O12 0.241969 0.758032 0.713979
O O13 0.375017 0.869666 0.774041
O O14 0.922048 0.249438 0.500000
O O15 0.862991 0.137010 0.691879
O O16 0.465300 0.534701 0.000000
#
# Coordination Sequence:
#
# PCOD8327253 Si02
#       6
#     6  12  12  12  12   6
#     4  12  24  38  58  80 106 140 182 224 260 312
#     4   8  14  26  46  70  95 125 163 207 249 289
#     4  10  21  37  55  77 106 136 167 210 267 321
#     4   9  18  34  54  74  97 131 177 221 263 313
#     4   9  16  27  47  74 101 131 168 208 250 302
#     4  12  24  36  54  80 110 140 174 220 278 332
#
# _framework density 17.857727000000001
#
# number of rings (size 3 to 8) (size 9 to 14) (size 15 to 20)
#    0.000    2.400    0.000    4.800    0.000    3.200 
#    1.200    0.000    0.000    2.200    0.000    2.800 
#    0.000    0.000    0.000    0.000    0.000    0.200 
#
# Total GULP energy -743727.746199 kJ/mol
# GULP energy per Si atom -12395.462437 kJ/mol
# Density = 1.781708 g / cm^3
# Si number density = 17.857727 Si / 1000 Ang^3
#
#
#
# Elastic Constant Matrix: (Units=GPa)
#
#
# Indices 1 2 3 4 5 6 
#
# 1 128.5968 81.6378 44.2965 0.0000 -0.0002 0.0000
# 2 81.6378 128.5968 44.2965 0.0000 0.0002 0.0000
# 3 44.2965 44.2965 79.5608 0.0000 0.0000 0.0000
# 4 0.0000 0.0000 0.0000 15.1740 0.0000 0.0002
# 5 -0.0002 0.0002 0.0000 0.0000 15.1740 0.0000
# 6 0.0000 0.0000 0.0000 0.0002 0.0000 23.4795
#
#
#
# Elastic Compliance Matrix: (Units=1/GPa)
#
#
# Indices 1 2 3 4 5 6 
#
# 1 0.013755 -0.007540 -0.003460 0.000000 0.000000 0.000000
# 2 -0.007540 0.013755 -0.003460 0.000000 0.000000 0.000000
# 3 -0.003460 -0.003460 0.016422 0.000000 0.000000 0.000000
# 4 0.000000 0.000000 0.000000 0.065902 0.000000 -0.000001
# 5 0.000000 0.000000 0.000000 0.000000 0.065902 0.000000
# 6 0.000000 0.000000 0.000000 -0.000001 0.000000 0.042590
#
#
# Mechanical properties :
#
#
# Convention : Reuss Voigt Hill
#
# Bulk Modulus (GPa) = 66.61839 75.24620 70.93230
# Shear Modulus (GPa) = 19.82156 21.86710 20.84433
#
# Velocity S-wave (km/s) = 3.33524 3.50311 3.42020
# Velocity P-wave (km/s) = 7.22619 7.65443 7.44339
#
# Compressibility (1/GPa) = 0.01501087
#
# Stress axis : x y z
#
# Youngs Moduli (GPa) = 72.70126 72.70126 60.89422
#
# Poissons Ratio (x) = 0.54818 0.21070
# Poissons Ratio (y) = 0.54818 0.21070
# Poissons Ratio (z) = 0.25155 0.25155
#
# Static dielectric constant tensor:
#      x y z
#    x 3.617700 0.000000 0.000000 
#    y 0.000000 3.617700 0.000000 
#    z 0.000000 0.000000 3.123610 
# 
# 
# High freq. dielectric constant tensor:
#      x y z
#    x 1.691110 0.000000 0.000000 
#    y 0.000000 1.691110 0.000000 
#    z 0.000000 0.000000 1.672830 
# 
# From -- ./inp_files/667.got.cif
#   From: 2010.03.12/outbox.cif.g09.slc.cpg/sg187_1_cif.got.tgz:667.got - 2010.04.01 11:58:23.
