data_PCOD8327066
_publ_section_title
;
Structure prediction by ZEFSAII (Michael W. Deem and Ramdas Pophale) SiO2 
 PCOD8327066
Probable space group: P -6 M 2
;
_chemical_formula_sum "Si O2"
_cell_formula_units_Z 48
_cell_length_a 12.748464
_cell_length_b 12.748464
_cell_length_c 20.227921
_cell_angle_alpha 90.000000
_cell_angle_beta 90.000000
_cell_angle_gamma 120.000000
_cell_volume 2847.066455
_symmetry_space_group_name_H-M "P -6 M 2"
_symmetry_group_IT_number 187
_symmetry_cell_setting 'hexagonal'
loop_
_space_group_symop_operation_xyz
x,y,z
-x+y,-x,-z
-y,x-y,z
x,y,-z
-x+y,-x,z
-y,x-y,-z
-y,-x,-z
-x+y,y,-z
x,x-y,-z
-x+y,y,z
x,x-y,z
-y,-x,z
loop_
_atom_site_type_symbol
_atom_site_label
_atom_site_fract_x
_atom_site_fract_y
_atom_site_fract_z
Si Si1 0.333320 0.425112 0.613838
Si Si2 0.666796 0.578738 0.879177
Si Si3 0.574156 0.907900 0.764319
Si Si4 0.666236 0.087999 0.500000
Si Si5 0.755385 0.753382 0.000000
O O1 0.207858 0.415715 0.594798
O O2 0.436744 0.563257 0.602463
O O3 0.333170 0.383942 0.689152
O O4 0.352871 0.336999 0.565761
O O5 0.775007 0.550013 0.874285
O O6 0.545232 0.454769 0.895717
O O7 0.658210 0.636286 0.810142
O O8 0.688618 0.674352 0.936070
O O9 0.433341 0.866682 0.773549
O O10 0.590312 0.795156 0.784389
O O11 0.789797 0.210204 0.500000
O O12 0.559213 0.118426 0.500000
O O13 0.742752 0.871376 0.000000
O O14 0.896557 0.793113 0.000000
#
# Coordination Sequence:
#
# PCOD8327066 Si02
#       5
#    12  12  12   6   6
#     4   9  17  30  50  74  96 119 151 195 244 288
#     4  10  20  33  50  72  99 131 164 196 230 273
#     4   9  17  30  49  73  99 125 154 192 240 288
#     4  10  20  32  46  66  94 128 162 194 232 280
#     4  10  20  34  52  72  94 122 158 200 242 282
#
# _framework density 16.859459999999999
#
# number of rings (size 3 to 8) (size 9 to 14) (size 15 to 20)
#    0.000    2.500    0.000    2.500    0.000    3.000 
#    0.000    2.500    0.000    9.000    0.000    0.000 
#    0.000    0.000    0.000    0.000    0.000    0.000 
#
# Total GULP energy -595274.751383 kJ/mol
# GULP energy per Si atom -12401.557320 kJ/mol
# Density = 1.682109 g / cm^3
# Si number density = 16.859460 Si / 1000 Ang^3
#
#
#
# Elastic Constant Matrix: (Units=GPa)
#
#
# Indices 1 2 3 4 5 6 
#
# 1 114.1325 65.8330 67.7769 0.0000 -0.0004 0.0000
# 2 65.8330 114.1325 67.7769 0.0000 0.0004 0.0000
# 3 67.7769 67.7769 117.2171 0.0000 0.0000 0.0000
# 4 0.0000 0.0000 0.0000 25.3462 0.0000 0.0004
# 5 -0.0004 0.0004 0.0000 0.0000 25.3462 0.0000
# 6 0.0000 0.0000 0.0000 0.0004 0.0000 24.1498
#
#
#
# Elastic Compliance Matrix: (Units=1/GPa)
#
#
# Indices 1 2 3 4 5 6 
#
# 1 0.015274 -0.005430 -0.005692 0.000000 0.000000 0.000000
# 2 -0.005430 0.015274 -0.005692 0.000000 0.000000 0.000000
# 3 -0.005692 -0.005692 0.015113 0.000000 0.000000 0.000000
# 4 0.000000 0.000000 0.000000 0.039454 0.000000 -0.000001
# 5 0.000000 0.000000 0.000000 0.000000 0.039454 0.000000
# 6 0.000000 0.000000 0.000000 -0.000001 0.000000 0.041408
#
#
# Mechanical properties :
#
#
# Convention : Reuss Voigt Hill
#
# Bulk Modulus (GPa) = 83.10031 83.13952 83.11992
# Shear Modulus (GPa) = 24.55602 24.57479 24.56540
#
# Velocity S-wave (km/s) = 3.82057 3.82203 3.82130
# Velocity P-wave (km/s) = 8.29815 8.30045 8.29930
#
# Compressibility (1/GPa) = 0.01203365
#
# Stress axis : x y z
#
# Youngs Moduli (GPa) = 65.47075 65.47075 66.16619
#
# Poissons Ratio (x) = 0.35551 0.37661
# Poissons Ratio (y) = 0.35551 0.37661
# Poissons Ratio (z) = 0.37265 0.37265
#
# Static dielectric constant tensor:
#      x y z
#    x 3.032950 0.000000 0.000000 
#    y 0.000000 3.032950 0.000000 
#    z 0.000000 0.000000 3.456780 
# 
# 
# High freq. dielectric constant tensor:
#      x y z
#    x 1.642840 0.000000 0.000000 
#    y 0.000000 1.642840 0.000000 
#    z 0.000000 0.000000 1.665180 
# 
# From -- ./inp_files/3383.got.cif
#   From: 2010.03.12/outbox.cif.g09.slc.cpg/sg187_2_cif.got.tgz:3383.got - 2010.04.01 11:58:23.
