data_PCOD8327025
_publ_section_title
;
Structure prediction by ZEFSAII (Michael W. Deem and Ramdas Pophale) SiO2 
 PCOD8327025
Probable space group: P -6 M 2
;
_chemical_formula_sum "Si O2"
_cell_formula_units_Z 66
_cell_length_a 13.277433
_cell_length_b 13.277433
_cell_length_c 27.316535
_cell_angle_alpha 90.000000
_cell_angle_beta 90.000000
_cell_angle_gamma 120.000000
_cell_volume 4170.464980
_symmetry_space_group_name_H-M "P -6 M 2"
_symmetry_group_IT_number 187
_symmetry_cell_setting 'hexagonal'
loop_
_space_group_symop_operation_xyz
x,y,z
-x+y,-x,-z
-y,x-y,z
x,y,-z
-x+y,-x,z
-y,x-y,-z
-y,-x,-z
-x+y,y,-z
x,x-y,-z
-x+y,y,z
x,x-y,z
-y,-x,z
loop_
_atom_site_type_symbol
_atom_site_label
_atom_site_fract_x
_atom_site_fract_y
_atom_site_fract_z
Si Si1 0.232513 0.999528 0.872654
Si Si2 0.101960 0.435308 0.690217
Si Si3 0.232646 0.232202 0.761154
Si Si4 0.100309 0.666694 0.577796
Si Si5 0.666648 0.100714 0.944109
Si Si6 0.428833 0.335492 0.500000
O O1 0.203437 0.101719 0.881154
O O2 0.272007 0.999947 0.816879
O O3 0.333098 0.011536 0.908535
O O4 0.119243 0.880758 0.886651
O O5 0.233348 0.466695 0.700565
O O6 0.091696 0.545848 0.704177
O O7 0.067960 0.397565 0.634095
O O8 0.012581 0.332564 0.724977
O O9 0.239496 0.119748 0.747107
O O10 0.100907 0.201813 0.753010
O O11 0.135283 0.567642 0.569156
O O12 0.210173 0.789828 0.561457
O O13 0.985421 0.637416 0.547145
O O14 0.547443 0.094886 0.930794
O O15 0.768518 0.231483 0.934419
O O16 0.668699 0.063387 0.000000
O O17 0.564517 0.435484 0.500000
O O18 0.419260 0.209630 0.500000
#
# Coordination Sequence:
#
# PCOD8327025 Si02
#       6
#    12  12  12  12  12   6
#     4   9  17  29  45  65  88 114 145 182 222 259
#     4   9  17  29  46  68  92 116 143 179 223 265
#     4   9  17  29  45  64  87 117 151 184 216 254
#     4   9  17  30  49  71  91 112 142 183 227 264
#     4   9  17  29  45  64  85 110 140 174 213 258
#     4  10  20  32  46  64  88 118 148 176 208 252
#
# _framework density 15.825573
#
# number of rings (size 3 to 8) (size 9 to 14) (size 15 to 20)
#    0.000    2.909    0.000    1.273    0.000    5.455 
#    0.000    0.909    0.000    3.273    0.000    0.000 
#    0.000    0.000    0.000    0.000    0.000    0.000 
#
# Total GULP energy -818399.681242 kJ/mol
# GULP energy per Si atom -12399.995170 kJ/mol
# Density = 1.578955 g / cm^3
# Si number density = 15.825573 Si / 1000 Ang^3
#
#
#
# Elastic Constant Matrix: (Units=GPa)
#
#
# Indices 1 2 3 4 5 6 
#
# 1 108.7546 63.2393 68.5819 0.0000 -0.0002 0.0000
# 2 63.2393 108.7546 68.5819 0.0000 0.0002 0.0000
# 3 68.5819 68.5819 100.1242 0.0000 0.0000 0.0000
# 4 0.0000 0.0000 0.0000 27.5275 0.0000 0.0002
# 5 -0.0002 0.0002 0.0000 0.0000 27.5275 0.0000
# 6 0.0000 0.0000 0.0000 0.0002 0.0000 22.7576
#
#
#
# Elastic Compliance Matrix: (Units=1/GPa)
#
#
# Indices 1 2 3 4 5 6 
#
# 1 0.017392 -0.004578 -0.008777 0.000000 0.000000 0.000000
# 2 -0.004578 0.017392 -0.008777 0.000000 0.000000 0.000000
# 3 -0.008777 -0.008777 0.022012 0.000000 0.000000 0.000000
# 4 0.000000 0.000000 0.000000 0.036327 0.000000 0.000000
# 5 0.000000 0.000000 0.000000 0.000000 0.036327 0.000000
# 6 0.000000 0.000000 0.000000 0.000000 0.000000 0.043941
#
#
# Mechanical properties :
#
#
# Convention : Reuss Voigt Hill
#
# Bulk Modulus (GPa) = 79.80209 79.82662 79.81435
# Shear Modulus (GPa) = 22.53937 23.37785 22.95861
#
# Velocity S-wave (km/s) = 3.77800 3.84763 3.81298
# Velocity P-wave (km/s) = 8.34066 8.38392 8.36231
#
# Compressibility (1/GPa) = 0.01253100
#
# Stress axis : x y z
#
# Youngs Moduli (GPa) = 57.49695 57.49695 45.43062
#
# Poissons Ratio (x) = 0.26325 0.39875
# Poissons Ratio (y) = 0.26325 0.39875
# Poissons Ratio (z) = 0.50465 0.50465
#
# Static dielectric constant tensor:
#      x y z
#    x 2.907420 0.000000 0.000000 
#    y 0.000000 2.907420 0.000000 
#    z 0.000000 0.000000 3.152170 
# 
# 
# High freq. dielectric constant tensor:
#      x y z
#    x 1.597120 0.000000 0.000000 
#    y 0.000000 1.597120 0.000000 
#    z 0.000000 0.000000 1.615840 
# 
# From -- ./inp_files/4466.got.cif
#   From: 2010.03.12/outbox.cif.g09.slc.cpg/sg187_3_cif.got.tgz:4466.got - 2010.04.01 11:58:23.
