data_PCOD8327249
_publ_section_title
;
Structure prediction by ZEFSAII (Michael W. Deem and Ramdas Pophale) SiO2 
 PCOD8327249
Probable space group: P -6 M 2
;
_chemical_formula_sum "Si O2"
_cell_formula_units_Z 44
_cell_length_a 17.319056
_cell_length_b 17.319056
_cell_length_c 8.735267
_cell_angle_alpha 90.000000
_cell_angle_beta 90.000000
_cell_angle_gamma 120.000000
_cell_volume 2269.108427
_symmetry_space_group_name_H-M "P -6 M 2"
_symmetry_group_IT_number 187
_symmetry_cell_setting 'hexagonal'
loop_
_space_group_symop_operation_xyz
x,y,z
-x+y,-x,-z
-y,x-y,z
x,y,-z
-x+y,-x,z
-y,x-y,-z
-y,-x,-z
-x+y,y,-z
x,x-y,-z
-x+y,y,z
x,x-y,z
-y,-x,z
loop_
_atom_site_type_symbol
_atom_site_label
_atom_site_fract_x
_atom_site_fract_y
_atom_site_fract_z
Si Si1 0.333589 0.493664 0.326902
Si Si2 0.799155 0.899578 0.318231
Si Si3 0.000000 0.000000 0.318633
Si Si4 0.775289 0.725830 0.182204
Si Si5 0.975816 0.571322 0.821628
O O1 0.331483 0.459045 0.500000
O O2 0.236303 0.472605 0.275536
O O3 0.400410 0.599591 0.319280
O O4 0.364087 0.443811 0.209736
O O5 0.792412 0.896206 0.500000
O O6 0.753990 0.798781 0.255513
O O7 0.900068 0.950034 0.255363
O O8 0.000000 0.000000 0.500000
O O9 0.869838 0.739675 0.241120
O O10 0.698273 0.625903 0.236375
O O11 0.774495 0.734317 0.000000
O O12 0.944036 0.472018 0.747301
O O13 0.959772 0.556141 0.000000
#
# Coordination Sequence:
#
# PCOD8327249 Si02
#       5
#    12   6   2  12  12
#     4   9  17  29  45  66  93 126 163 201 241 284
#     4  11  21  35  53  77 111 147 183 221 265 314
#     4   9  18  33  49  71 109 147 175 215 259 300
#     4  10  21  36  54  77 104 138 178 218 265 321
#     4   9  19  35  52  70  96 130 167 211 259 305
#
# _framework density 19.390875000000001
#
# number of rings (size 3 to 8) (size 9 to 14) (size 15 to 20)
#    0.000    2.455    1.364    0.682    1.909    2.727 
#    0.000    0.000    0.000    2.182    0.000    3.818 
#    0.000    0.000    0.000    6.273    0.000    7.636 
#
# Total GULP energy -545099.012701 kJ/mol
# GULP energy per Si atom -12388.613925 kJ/mol
# Density = 1.934674 g / cm^3
# Si number density = 19.390875 Si / 1000 Ang^3
#
#
#
# Elastic Constant Matrix: (Units=GPa)
#
#
# Indices 1 2 3 4 5 6 
#
# 1 99.1050 39.0577 16.3123 0.0000 0.0000 0.0000
# 2 39.0577 99.1050 16.3123 0.0000 0.0000 0.0000
# 3 16.3123 16.3123 20.0678 0.0000 0.0000 0.0000
# 4 0.0000 0.0000 0.0000 16.9409 0.0000 0.0000
# 5 0.0000 0.0000 0.0000 0.0000 16.9409 0.0000
# 6 0.0000 0.0000 0.0000 0.0000 0.0000 30.0236
#
#
#
# Elastic Compliance Matrix: (Units=1/GPa)
#
#
# Indices 1 2 3 4 5 6 
#
# 1 0.012805 -0.003848 -0.007281 0.000000 0.000000 0.000000
# 2 -0.003848 0.012805 -0.007281 0.000000 0.000000 0.000000
# 3 -0.007281 -0.007281 0.061668 0.000000 0.000000 0.000000
# 4 0.000000 0.000000 0.000000 0.059029 0.000000 0.000000
# 5 0.000000 0.000000 0.000000 0.000000 0.059029 0.000000
# 6 0.000000 0.000000 0.000000 0.000000 0.000000 0.033307
#
#
# Mechanical properties :
#
#
# Convention : Reuss Voigt Hill
#
# Bulk Modulus (GPa) = 19.81826 40.18249 30.00038
# Shear Modulus (GPa) = 17.10676 22.55413 19.83045
#
# Velocity S-wave (km/s) = 2.97342 3.41417 3.20139
# Velocity P-wave (km/s) = 4.69371 6.02573 5.40094
#
# Compressibility (1/GPa) = 0.05045851
#
# Stress axis : x y z
#
# Youngs Moduli (GPa) = 78.09255 78.09255 16.21593
#
# Poissons Ratio (x) = 0.30052 0.11807
# Poissons Ratio (y) = 0.30052 0.11807
# Poissons Ratio (z) = 0.56858 0.56858
#
# Static dielectric constant tensor:
#      x y z
#    x 3.773440 0.000000 0.000000 
#    y 0.000000 3.773440 0.000000 
#    z 0.000000 0.000000 3.252810 
# 
# 
# High freq. dielectric constant tensor:
#      x y z
#    x 1.746620 0.000000 0.000000 
#    y 0.000000 1.746620 0.000000 
#    z 0.000000 0.000000 1.730370 
# 
# From -- ./inp_files/366.got.cif
#   From: 2010.03.12/outbox.cif.g09.slc.cpg/sg187_1_cif.got.tgz:366.got - 2010.04.01 11:58:23.
