data_PCOD8327555
_publ_section_title
;
Structure prediction by ZEFSAII (Michael W. Deem and Ramdas Pophale) SiO2 
 PCOD8327555
Probable space group: P -6 2 M
;
_chemical_formula_sum "Si O2"
_cell_formula_units_Z 60
_cell_length_a 19.756858
_cell_length_b 19.756858
_cell_length_c 9.167567
_cell_angle_alpha 90.000000
_cell_angle_beta 90.000000
_cell_angle_gamma 120.000000
_cell_volume 3098.992186
_symmetry_space_group_name_H-M "P -6 2 M"
_symmetry_group_IT_number 189
_symmetry_cell_setting 'hexagonal'
loop_
_space_group_symop_operation_xyz
x,y,z
-x+y,-x,-z
-y,x-y,z
x,y,-z
-x+y,-x,z
-y,x-y,-z
x-y,-y,-z
-x,-x+y,-z
y,x,-z
y,x,z
x-y,-y,z
-x,-x+y,z
loop_
_atom_site_type_symbol
_atom_site_label
_atom_site_fract_x
_atom_site_fract_y
_atom_site_fract_z
Si Si1 0.164384 0.421807 0.669883
Si Si2 0.910271 0.153613 0.668411
Si Si3 0.849163 0.509722 0.666916
Si Si4 0.000000 0.811489 0.827367
Si Si5 0.583196 0.493393 0.170958
Si Si6 0.000000 0.673273 0.333718
O O1 0.146432 0.424846 0.500000
O O2 0.142220 0.334063 0.712962
O O3 0.255647 0.481233 0.705263
O O4 0.111213 0.445037 0.762819
O O5 0.896058 0.127870 0.500000
O O6 0.000000 0.216412 0.699601
O O7 0.886373 0.077142 0.764828
O O8 0.845788 0.483702 0.500000
O O9 0.851807 0.444436 0.766112
O O10 0.925228 0.591290 0.698081
O O11 0.000000 0.733886 0.779254
O O12 0.000000 0.817455 0.000000
O O13 0.521379 0.521379 0.211312
O O14 0.593302 0.490663 0.000000
O O15 0.000000 0.701184 0.500000
#
# Coordination Sequence:
#
# PCOD8327555 Si02
#       6
#    12  12  12   6  12   6
#     4  10  21  39  64  90 114 148 198 249 292 339
#     4  10  21  40  65  89 115 152 202 251 292 342
#     4  10  20  37  64  90 113 147 194 249 292 336
#     4  12  24  36  58  90 126 159 188 235 298 362
#     4  11  24  39  57  86 124 159 191 232 289 358
#     4  10  18  36  64  90 116 145 192 247 290 338
#
# _framework density 19.361132999999999
#
# number of rings (size 3 to 8) (size 9 to 14) (size 15 to 20)
#    0.000    1.600    3.000    2.100    0.000    4.800 
#    1.800    0.000    0.000    0.000    0.000    0.000 
#    0.000    0.000    0.000    0.000    0.000    0.000 
#
# Total GULP energy -744211.123815 kJ/mol
# GULP energy per Si atom -12403.518730 kJ/mol
# Density = 1.931707 g / cm^3
# Si number density = 19.361133 Si / 1000 Ang^3
#
#
#
# Elastic Constant Matrix: (Units=GPa)
#
#
# Indices 1 2 3 4 5 6 
#
# 1 93.6219 24.3021 50.8791 0.0000 0.0000 0.0000
# 2 24.3021 93.6219 50.8791 0.0000 0.0000 0.0000
# 3 50.8791 50.8791 97.7845 0.0000 0.0000 0.0000
# 4 0.0000 0.0000 0.0000 24.0867 0.0000 0.0000
# 5 0.0000 0.0000 0.0000 0.0000 24.0867 0.0000
# 6 0.0000 0.0000 0.0000 0.0000 0.0000 34.6599
#
#
#
# Elastic Compliance Matrix: (Units=1/GPa)
#
#
# Indices 1 2 3 4 5 6 
#
# 1 0.014908 0.000482 -0.008008 0.000000 0.000000 0.000000
# 2 0.000482 0.014908 -0.008008 0.000000 0.000000 0.000000
# 3 -0.008008 -0.008008 0.018560 0.000000 0.000000 0.000000
# 4 0.000000 0.000000 0.000000 0.041517 0.000000 0.000000
# 5 0.000000 0.000000 0.000000 0.000000 0.041517 0.000000
# 6 0.000000 0.000000 0.000000 0.000000 0.000000 0.028852
#
#
# Mechanical properties :
#
#
# Convention : Reuss Voigt Hill
#
# Bulk Modulus (GPa) = 57.77387 59.68321 58.72854
# Shear Modulus (GPa) = 25.36818 27.16451 26.26634
#
# Velocity S-wave (km/s) = 3.62368 3.74979 3.68727
# Velocity P-wave (km/s) = 6.88571 7.04564 6.96614
#
# Compressibility (1/GPa) = 0.01730886
#
# Stress axis : x y z
#
# Youngs Moduli (GPa) = 67.07832 67.07832 53.88017
#
# Poissons Ratio (x) = -0.03234 0.43146
# Poissons Ratio (y) = -0.03234 0.43146
# Poissons Ratio (z) = 0.53714 0.53714
#
# Static dielectric constant tensor:
#      x y z
#    x 3.485690 0.000000 0.000000 
#    y 0.000000 3.485690 0.000000 
#    z 0.000000 0.000000 3.394810 
# 
# 
# High freq. dielectric constant tensor:
#      x y z
#    x 1.754990 0.000000 0.000000 
#    y 0.000000 1.754990 0.000000 
#    z 0.000000 0.000000 1.740740 
# 
# From -- ./inp_files/912.got.cif
#   From: 2010.03.12/outbox.cif.g09.slc.cpg/sg189_1_cif.got.tgz:912.got - 2010.04.01 12:03:36.
