data_PCOD8327941
_publ_section_title
;
Structure prediction by ZEFSAII (Michael W. Deem and Ramdas Pophale) SiO2 
 PCOD8327941
Probable space group: P -6 2 C
;
_chemical_formula_sum "Si O2"
_cell_formula_units_Z 78
_cell_length_a 19.306707
_cell_length_b 19.306707
_cell_length_c 13.115068
_cell_angle_alpha 90.000000
_cell_angle_beta 90.000000
_cell_angle_gamma 120.000000
_cell_volume 4233.675719
_symmetry_space_group_name_H-M "P -6 2 C"
_symmetry_group_IT_number 190
_symmetry_cell_setting 'hexagonal'
loop_
_space_group_symop_operation_xyz
x,y,z
-x+y,-x,1/2-z
-y,x-y,z
x,y,1/2-z
-x+y,-x,z
-y,x-y,1/2-z
x-y,-y,-z
-x,-x+y,-z
y,x,-z
y,x,1/2+z
x-y,-y,1/2+z
-x,-x+y,1/2+z
loop_
_atom_site_type_symbol
_atom_site_label
_atom_site_fract_x
_atom_site_fract_y
_atom_site_fract_z
Si Si1 0.707129 0.122316 0.866140
Si Si2 0.191294 0.500855 0.553582
Si Si3 0.277714 0.000000 0.500000
Si Si4 0.357089 0.304294 0.132457
Si Si5 0.670460 0.808179 0.868898
Si Si6 0.165399 0.643775 0.552985
Si Si7 0.275663 0.867163 0.134211
O O1 0.675620 0.113355 0.750000
O O2 0.803033 0.180335 0.870588
O O3 0.688263 0.036742 0.914892
O O4 0.657153 0.152352 0.933717
O O5 0.142195 0.414776 0.609785
O O6 0.161751 0.561878 0.584725
O O7 0.284095 0.537391 0.582717
O O8 0.174532 0.489914 0.431646
O O9 0.200599 0.937937 0.566621
O O10 0.298476 0.951478 0.416714
O O11 0.334224 0.292053 0.250000
O O12 0.330277 0.216353 0.086421
O O13 0.452415 0.357515 0.119412
O O14 0.690991 0.815844 0.750000
O O15 0.307658 0.881751 0.250000
#
# Coordination Sequence:
#
# PCOD8327941 Si02
#       7
#    12  12   6  12  12  12  12
#     4   9  18  33  52  73  95 123 160 201 244 281
#     4   9  19  31  46  67  91 127 168 197 246 287
#     4  10  18  30  48  70  92 124 156 180 232 290
#     4   9  18  33  52  73  95 123 160 201 244 281
#     4   9  18  33  50  68  97 126 156 200 240 288
#     4  10  18  31  48  66  94 125 162 206 238 281
#     4   9  18  33  50  68  97 126 156 200 240 288
#
# _framework density 18.423707
#
# number of rings (size 3 to 8) (size 9 to 14) (size 15 to 20)
#    0.000    2.769    0.000    2.154    0.000    1.231 
#   11.077    0.000    0.000    3.692    0.000    0.000 
#    6.154    0.000    5.538    0.000    0.000    0.000 
#
# Total GULP energy -966321.684843 kJ/mol
# GULP energy per Si atom -12388.739549 kJ/mol
# Density = 1.838177 g / cm^3
# Si number density = 18.423707 Si / 1000 Ang^3
#
#
#
# Elastic Constant Matrix: (Units=GPa)
#
#
# Indices 1 2 3 4 5 6 
#
# 1 76.8299 49.5249 3.5196 0.0000 0.0000 0.0000
# 2 49.5249 76.8299 3.5196 0.0000 0.0000 0.0000
# 3 3.5196 3.5196 38.6346 0.0000 0.0000 0.0000
# 4 0.0000 0.0000 0.0000 20.7888 0.0000 0.0000
# 5 0.0000 0.0000 0.0000 0.0000 20.7888 0.0000
# 6 0.0000 0.0000 0.0000 0.0000 0.0000 13.6525
#
#
#
# Elastic Compliance Matrix: (Units=1/GPa)
#
#
# Indices 1 2 3 4 5 6 
#
# 1 0.022289 -0.014334 -0.000725 0.000000 0.000000 0.000000
# 2 -0.014334 0.022289 -0.000725 0.000000 0.000000 0.000000
# 3 -0.000725 -0.000725 0.026016 0.000000 0.000000 0.000000
# 4 0.000000 0.000000 0.000000 0.048103 0.000000 0.000000
# 5 0.000000 0.000000 0.000000 0.000000 0.048103 0.000000
# 6 0.000000 0.000000 0.000000 0.000000 0.000000 0.073247
#
#
# Mechanical properties :
#
#
# Convention : Reuss Voigt Hill
#
# Bulk Modulus (GPa) = 25.62389 33.93586 29.77988
# Shear Modulus (GPa) = 17.56716 20.09470 18.83093
#
# Velocity S-wave (km/s) = 3.09124 3.30615 3.20050
# Velocity P-wave (km/s) = 5.16521 5.74751 5.46412
#
# Compressibility (1/GPa) = 0.03902609
#
# Stress axis : x y z
#
# Youngs Moduli (GPa) = 44.86528 44.86528 38.43853
#
# Poissons Ratio (x) = 0.64312 0.02786
# Poissons Ratio (y) = 0.64312 0.02786
# Poissons Ratio (z) = 0.03251 0.03251
#
# Static dielectric constant tensor:
#      x y z
#    x 3.308020 0.000000 0.000000 
#    y 0.000000 3.308020 0.000000 
#    z 0.000000 0.000000 3.620960 
# 
# 
# High freq. dielectric constant tensor:
#      x y z
#    x 1.690050 0.000000 0.000000 
#    y 0.000000 1.690050 0.000000 
#    z 0.000000 0.000000 1.732980 
# 
# From -- ./inp_files/3053.got.cif
#   From: 2010.06.25/outbox.cif.g09.slc.cpg/sg190_2_cif.got.tgz:3053.got - 2010.06.28 13:08:06.
