data_PCOD8327953
_publ_section_title
;
Structure prediction by ZEFSAII (Michael W. Deem and Ramdas Pophale) SiO2 
 PCOD8327953
Probable space group: P -6 2 C
;
_chemical_formula_sum "Si O2"
_cell_formula_units_Z 34
_cell_length_a 8.399606
_cell_length_b 8.399606
_cell_length_c 28.489241
_cell_angle_alpha 90.000000
_cell_angle_beta 90.000000
_cell_angle_gamma 120.000000
_cell_volume 1740.721691
_symmetry_space_group_name_H-M "P -6 2 C"
_symmetry_group_IT_number 190
_symmetry_cell_setting 'hexagonal'
loop_
_space_group_symop_operation_xyz
x,y,z
-x+y,-x,1/2-z
-y,x-y,z
x,y,1/2-z
-x+y,-x,z
-y,x-y,1/2-z
x-y,-y,-z
-x,-x+y,-z
y,x,-z
y,x,1/2+z
x-y,-y,1/2+z
-x,-x+y,1/2+z
loop_
_atom_site_type_symbol
_atom_site_label
_atom_site_fract_x
_atom_site_fract_y
_atom_site_fract_z
Si Si1 0.624316 0.997893 0.152324
Si Si2 0.003770 0.299816 0.881516
Si Si3 0.898690 0.476663 0.250000
Si Si4 0.000000 0.000000 0.555313
O O1 0.686317 0.847556 0.149904
O O2 0.804963 0.195625 0.146448
O O3 0.473578 0.970145 0.111578
O O4 0.533095 0.978114 0.203323
O O5 0.014030 0.191950 0.927741
O O6 0.796287 0.254788 0.250000
O O7 0.000000 0.000000 0.500000
#
# Coordination Sequence:
#
# PCOD8327953 Si02
#       4
#    12  12   6   4
#     4  11  20  36  56  87 118 167 198 246 298 343
#     4  10  21  37  60  86 123 155 198 246 307 357
#     4  10  18  32  56  80 120 160 214 244 284 348
#     4   9  21  42  66  91 116 151 198 255 312 381
#
# _framework density 19.532126999999999
#
# number of rings (size 3 to 8) (size 9 to 14) (size 15 to 20)
#    0.353    1.412    3.529    2.118    0.000    2.824 
#    0.000    7.059    0.000    0.000    0.000    0.000 
#    0.000    0.000    0.000    0.000    0.000    0.000 
#
# Total GULP energy -421207.230746 kJ/mol
# GULP energy per Si atom -12388.447963 kJ/mol
# Density = 1.948767 g / cm^3
# Si number density = 19.532127 Si / 1000 Ang^3
#
#
#
# Elastic Constant Matrix: (Units=GPa)
#
#
# Indices 1 2 3 4 5 6 
#
# 1 95.1562 13.0688 35.7768 0.0000 0.0000 0.0000
# 2 13.0688 95.1562 35.7768 0.0000 0.0000 0.0000
# 3 35.7768 35.7768 111.8050 0.0000 0.0000 0.0000
# 4 0.0000 0.0000 0.0000 18.8532 0.0000 0.0000
# 5 0.0000 0.0000 0.0000 0.0000 18.8532 0.0000
# 6 0.0000 0.0000 0.0000 0.0000 0.0000 41.0437
#
#
#
# Elastic Compliance Matrix: (Units=1/GPa)
#
#
# Indices 1 2 3 4 5 6 
#
# 1 0.011951 -0.000231 -0.003750 0.000000 0.000000 0.000000
# 2 -0.000231 0.011951 -0.003750 0.000000 0.000000 0.000000
# 3 -0.003750 -0.003750 0.011344 0.000000 0.000000 0.000000
# 4 0.000000 0.000000 0.000000 0.053041 0.000000 0.000000
# 5 0.000000 0.000000 0.000000 0.000000 0.053041 0.000000
# 6 0.000000 0.000000 0.000000 0.000000 0.000000 0.024364
#
#
# Mechanical properties :
#
#
# Convention : Reuss Voigt Hill
#
# Bulk Modulus (GPa) = 50.54973 52.37359 51.46166
# Shear Modulus (GPa) = 26.63111 30.24967 28.44039
#
# Velocity S-wave (km/s) = 3.69650 3.93964 3.82000
# Velocity P-wave (km/s) = 6.64495 6.89686 6.77207
#
# Compressibility (1/GPa) = 0.01978250
#
# Stress axis : x y z
#
# Youngs Moduli (GPa) = 83.67648 83.67648 88.15095
#
# Poissons Ratio (x) = 0.01936 0.33058
# Poissons Ratio (y) = 0.01936 0.33058
# Poissons Ratio (z) = 0.31380 0.31380
#
# Static dielectric constant tensor:
#      x y z
#    x 3.719000 0.000000 0.000000 
#    y 0.000000 3.719000 0.000000 
#    z 0.000000 0.000000 3.062490 
# 
# 
# High freq. dielectric constant tensor:
#      x y z
#    x 1.770010 0.000000 0.000000 
#    y 0.000000 1.770010 0.000000 
#    z 0.000000 0.000000 1.706290 
# 
# From -- ./inp_files/4810.got.cif
#   From: 2010.06.25/outbox.cif.g09.slc.cpg/sg190_3_cif.got.tgz:4810.got - 2010.06.28 13:08:06.
