data_PCOD8327583
_publ_section_title
;
Structure prediction by ZEFSAII (Michael W. Deem and Ramdas Pophale) SiO2 
 PCOD8327583
Probable space group: P -6 2 M
;
_chemical_formula_sum "Si O2"
_cell_formula_units_Z 76
_cell_length_a 19.314336
_cell_length_b 19.314336
_cell_length_c 13.007882
_cell_angle_alpha 90.000000
_cell_angle_beta 90.000000
_cell_angle_gamma 120.000000
_cell_volume 4202.394166
_symmetry_space_group_name_H-M "P -6 2 M"
_symmetry_group_IT_number 189
_symmetry_cell_setting 'hexagonal'
loop_
_space_group_symop_operation_xyz
x,y,z
-x+y,-x,-z
-y,x-y,z
x,y,-z
-x+y,-x,z
-y,x-y,-z
x-y,-y,-z
-x,-x+y,-z
y,x,-z
y,x,z
x-y,-y,z
-x,-x+y,z
loop_
_atom_site_type_symbol
_atom_site_label
_atom_site_fract_x
_atom_site_fract_y
_atom_site_fract_z
Si Si1 0.416825 0.322517 0.116360
Si Si2 0.241222 0.912054 0.617249
Si Si3 0.195731 0.636345 0.740462
Si Si4 0.333335 0.666667 0.878752
Si Si5 0.091338 0.184703 0.689876
Si Si6 0.201753 0.505957 0.623168
Si Si7 0.737416 0.906035 0.110845
O O1 0.373042 0.373042 0.122993
O O2 0.480966 0.356177 0.207817
O O3 0.355457 0.228411 0.139955
O O4 0.451928 0.330135 0.000000
O O5 0.266670 0.920990 0.500000
O O6 0.146305 0.881888 0.622882
O O7 0.264993 0.850149 0.665379
O O8 0.290700 0.000000 0.670900
O O9 0.243875 0.629986 0.837044
O O10 0.162894 0.556365 0.671014
O O11 0.250561 0.708896 0.664675
O O12 0.333334 0.666668 0.000000
O O13 0.148730 0.148730 0.663237
O O14 0.099014 0.214637 0.807201
O O15 0.000000 0.116686 0.668565
O O16 0.203955 0.511858 0.500000
O O17 0.776287 0.000000 0.102436
O O18 0.743356 0.871100 0.000000
#
# Coordination Sequence:
#
# PCOD8327583 Si02
#       7
#    12  12  12   4  12  12  12
#     4   9  17  30  49  73 100 128 160 201 247 296
#     4   9  19  35  52  69  93 129 167 201 246 307
#     4  10  19  30  50  74  95 126 162 200 250 302
#     4   9  18  30  43  65  97 126 156 192 229 278
#     4  10  19  31  49  73 100 129 166 212 256 298
#     4  10  20  34  51  72  99 129 164 209 257 306
#     4   8  15  28  45  66  95 130 161 190 233 288
#
# _framework density 18.084928999999999
#
# number of rings (size 3 to 8) (size 9 to 14) (size 15 to 20)
#    0.000    2.684    0.000    3.316    0.000    1.263 
#    0.000    0.000    0.000    5.211    0.000    0.000 
#    0.000    0.000    0.000    0.000    0.000    0.000 
#
# Total GULP energy -941694.333536 kJ/mol
# GULP energy per Si atom -12390.714915 kJ/mol
# Density = 1.804377 g / cm^3
# Si number density = 18.084929 Si / 1000 Ang^3
#
#
#
# Elastic Constant Matrix: (Units=GPa)
#
#
# Indices 1 2 3 4 5 6 
#
# 1 77.1558 36.4113 21.1897 0.0000 0.0000 0.0000
# 2 36.4113 77.1558 21.1898 0.0000 0.0000 0.0000
# 3 21.1897 21.1898 70.9314 0.0000 0.0000 0.0000
# 4 0.0000 0.0000 0.0000 26.0743 0.0000 0.0000
# 5 0.0000 0.0000 0.0000 0.0000 26.0742 0.0000
# 6 0.0000 0.0000 0.0000 0.0000 0.0000 20.3722
#
#
#
# Elastic Compliance Matrix: (Units=1/GPa)
#
#
# Indices 1 2 3 4 5 6 
#
# 1 0.017227 -0.007317 -0.002960 0.000000 0.000000 0.000000
# 2 -0.007317 0.017227 -0.002961 0.000000 0.000000 0.000000
# 3 -0.002960 -0.002961 0.015867 0.000000 0.000000 0.000000
# 4 0.000000 0.000000 0.000000 0.038352 0.000000 0.000000
# 5 0.000000 0.000000 0.000000 0.000000 0.038352 0.000000
# 6 0.000000 0.000000 0.000000 0.000000 0.000000 0.049086
#
#
# Mechanical properties :
#
#
# Convention : Reuss Voigt Hill
#
# Bulk Modulus (GPa) = 41.93720 42.53605 42.23663
# Shear Modulus (GPa) = 23.74913 24.26765 24.00839
#
# Velocity S-wave (km/s) = 3.62774 3.66713 3.64749
# Velocity P-wave (km/s) = 6.38645 6.44218 6.41437
#
# Compressibility (1/GPa) = 0.02384518
#
# Stress axis : x y z
#
# Youngs Moduli (GPa) = 58.04963 58.04958 63.02407
#
# Poissons Ratio (x) = 0.42472 0.18658
# Poissons Ratio (y) = 0.42472 0.18659
# Poissons Ratio (z) = 0.17186 0.17186
#
# Static dielectric constant tensor:
#      x y z
#    x 3.340690 0.000000 0.000000 
#    y 0.000000 3.340690 0.000000 
#    z 0.000000 0.000000 3.559720 
# 
# 
# High freq. dielectric constant tensor:
#      x y z
#    x 1.690280 0.000000 0.000000 
#    y 0.000000 1.690280 0.000000 
#    z 0.000000 0.000000 1.698470 
# 
# From -- ./inp_files/2716.got.cif
#   From: 2010.03.12/outbox.cif.g09.slc.cpg/sg189_2_cif.got.tgz:2716.got - 2010.04.01 12:03:36.
