data_PCOD8327167
_publ_section_title
;
Structure prediction by ZEFSAII (Michael W. Deem and Ramdas Pophale) SiO2 
 PCOD8327167
Probable space group: P -6 M 2
;
_chemical_formula_sum "Si O2"
_cell_formula_units_Z 60
_cell_length_a 12.846108
_cell_length_b 12.846108
_cell_length_c 25.650577
_cell_angle_alpha 90.000000
_cell_angle_beta 90.000000
_cell_angle_gamma 120.000000
_cell_volume 3665.818076
_symmetry_space_group_name_H-M "P -6 M 2"
_symmetry_group_IT_number 187
_symmetry_cell_setting 'hexagonal'
loop_
_space_group_symop_operation_xyz
x,y,z
-x+y,-x,-z
-y,x-y,z
x,y,-z
-x+y,-x,z
-y,x-y,-z
-y,-x,-z
-x+y,y,-z
x,x-y,-z
-x+y,y,z
x,x-y,z
-y,-x,z
loop_
_atom_site_type_symbol
_atom_site_label
_atom_site_fract_x
_atom_site_fract_y
_atom_site_fract_z
Si Si1 0.089960 0.420960 0.000000
Si Si2 0.003121 0.758115 0.387418
Si Si3 0.666814 0.573244 0.184403
Si Si4 0.665756 0.573796 0.697428
Si Si5 0.762506 0.998051 0.500000
Si Si6 0.244266 0.244250 0.094479
O O1 0.023460 0.340819 0.949945
O O2 0.230466 0.460931 0.000000
O O3 0.077033 0.538517 0.000000
O O4 0.883253 0.766505 0.386525
O O5 0.002503 0.670470 0.342789
O O6 0.020688 0.712284 0.445032
O O7 0.111515 0.888486 0.373978
O O8 0.766180 0.532359 0.178908
O O9 0.539392 0.460609 0.167796
O O10 0.662855 0.614596 0.243370
O O11 0.699192 0.687291 0.148418
O O12 0.777929 0.555857 0.687835
O O13 0.550679 0.449321 0.684118
O O14 0.815726 0.907863 0.500000
O O15 0.867897 0.132104 0.500000
O O16 0.240229 0.120115 0.080912
O O17 0.108685 0.217369 0.099286
#
# Coordination Sequence:
#
# PCOD8327167 Si02
#       6
#     6  12  12  12   6  12
#     4  10  20  34  52  72  94 122 158 198 232 260
#     4   9  16  26  42  64  88 113 142 179 224 270
#     4   9  17  30  48  68  89 116 152 192 230 265
#     4   9  17  29  45  64  87 117 151 185 221 264
#     4   8  13  22  37  58  84 112 142 176 216 264
#     4  10  20  33  50  72  99 129 156 183 220 270
#
# _framework density 16.367425000000001
#
# number of rings (size 3 to 8) (size 9 to 14) (size 15 to 20)
#    0.000    2.800    0.000    1.900    0.000    4.000 
#    0.000    1.500    0.000    6.000    0.000    1.400 
#    0.000    0.000    0.000    0.000    0.000    0.000 
#
# Total GULP energy -743584.377100 kJ/mol
# GULP energy per Si atom -12393.072952 kJ/mol
# Density = 1.633017 g / cm^3
# Si number density = 16.367425 Si / 1000 Ang^3
#
#
#
# Elastic Constant Matrix: (Units=GPa)
#
#
# Indices 1 2 3 4 5 6 
#
# 1 82.5872 36.6778 56.3201 0.0000 0.0003 0.0000
# 2 36.6778 82.5872 56.3201 0.0000 -0.0003 0.0000
# 3 56.3201 56.3201 122.6220 0.0000 0.0000 0.0000
# 4 0.0000 0.0000 0.0000 24.5677 0.0000 -0.0003
# 5 0.0003 -0.0003 0.0000 0.0000 24.5677 0.0000
# 6 0.0000 0.0000 0.0000 -0.0003 0.0000 22.9547
#
#
#
# Elastic Compliance Matrix: (Units=1/GPa)
#
#
# Indices 1 2 3 4 5 6 
#
# 1 0.018295 -0.003487 -0.006801 0.000000 0.000000 0.000000
# 2 -0.003487 0.018295 -0.006801 0.000000 0.000000 0.000000
# 3 -0.006801 -0.006801 0.014403 0.000000 0.000000 0.000000
# 4 0.000000 0.000000 0.000000 0.040704 0.000000 0.000001
# 5 0.000000 0.000000 0.000000 0.000000 0.040704 0.000000
# 6 0.000000 0.000000 0.000000 0.000001 0.000000 0.043564
#
#
# Mechanical properties :
#
#
# Convention : Reuss Voigt Hill
#
# Bulk Modulus (GPa) = 59.47490 65.15918 62.31704
# Shear Modulus (GPa) = 23.17505 23.64991 23.41248
#
# Velocity S-wave (km/s) = 3.76696 3.80536 3.78621
# Velocity P-wave (km/s) = 7.43883 7.69444 7.56771
#
# Compressibility (1/GPa) = 0.01681382
#
# Stress axis : x y z
#
# Youngs Moduli (GPa) = 54.65915 54.65915 69.43028
#
# Poissons Ratio (x) = 0.19059 0.47223
# Poissons Ratio (y) = 0.19059 0.47223
# Poissons Ratio (z) = 0.37176 0.37176
#
# Static dielectric constant tensor:
#      x y z
#    x 2.932360 0.000000 0.000000 
#    y 0.000000 2.932360 0.000000 
#    z 0.000000 0.000000 3.532500 
# 
# 
# High freq. dielectric constant tensor:
#      x y z
#    x 1.612070 0.000000 0.000000 
#    y 0.000000 1.612070 0.000000 
#    z 0.000000 0.000000 1.649360 
# 
# From -- ./inp_files/4171.got.cif
#   From: 2010.03.12/outbox.cif.g09.slc.cpg/sg187_3_cif.got.tgz:4171.got - 2010.04.01 11:58:23.
