data_PCOD8327716
_publ_section_title
;
Structure prediction by ZEFSAII (Michael W. Deem and Ramdas Pophale) SiO2 
 PCOD8327716
Probable space group: P -6 2 M
;
_chemical_formula_sum "Si O2"
_cell_formula_units_Z 48
_cell_length_a 18.258030
_cell_length_b 18.258030
_cell_length_c 9.237459
_cell_angle_alpha 90.000000
_cell_angle_beta 90.000000
_cell_angle_gamma 120.000000
_cell_volume 2666.803327
_symmetry_space_group_name_H-M "P -6 2 M"
_symmetry_group_IT_number 189
_symmetry_cell_setting 'hexagonal'
loop_
_space_group_symop_operation_xyz
x,y,z
-x+y,-x,-z
-y,x-y,z
x,y,-z
-x+y,-x,z
-y,x-y,-z
x-y,-y,-z
-x,-x+y,-z
y,x,-z
y,x,z
x-y,-y,z
-x,-x+y,z
loop_
_atom_site_type_symbol
_atom_site_label
_atom_site_fract_x
_atom_site_fract_y
_atom_site_fract_z
Si Si1 0.000000 0.093242 0.660127
Si Si2 0.439900 0.343694 0.166725
Si Si3 0.593397 0.754460 0.830100
Si Si4 0.762562 0.762562 0.170409
Si Si5 0.489956 0.587632 0.669732
O O1 0.000000 0.129203 0.500000
O O2 0.000000 0.154142 0.780980
O O3 0.083105 0.083105 0.678186
O O4 0.365725 0.365725 0.197335
O O5 0.404901 0.246193 0.206112
O O6 0.520361 0.399305 0.266714
O O7 0.469198 0.362378 0.000000
O O8 0.680778 0.764377 0.770889
O O9 0.517843 0.676896 0.745199
O O10 0.580941 0.733465 0.000000
O O11 0.762808 0.762808 0.000000
O O12 0.480065 0.595851 0.500000
O O13 0.557851 0.557851 0.704852
#
# Coordination Sequence:
#
# PCOD8327716 Si02
#       5
#     6  12  12   6  12
#     4   8  18  36  52  70 105 152 191 224 271 326
#     4   9  19  36  57  79 107 143 180 222 271 325
#     4  10  20  35  56  84 112 143 181 223 274 326
#     4  10  20  32  54  86 113 140 183 232 271 320
#     4  10  20  35  56  80 107 142 180 222 268 318
#
# _framework density 17.999078000000001
#
# number of rings (size 3 to 8) (size 9 to 14) (size 15 to 20)
#    0.250    2.250    1.250    0.750    0.000    4.500 
#    1.500    2.500    0.000    3.000    0.000    0.000 
#    0.000    0.000    0.000    0.000    0.000    0.000 
#
# Total GULP energy -595197.714730 kJ/mol
# GULP energy per Si atom -12399.952390 kJ/mol
# Density = 1.795811 g / cm^3
# Si number density = 17.999078 Si / 1000 Ang^3
#
#
#
# Elastic Constant Matrix: (Units=GPa)
#
#
# Indices 1 2 3 4 5 6 
#
# 1 123.6993 70.0303 48.5166 0.0000 0.0000 0.0000
# 2 70.0303 123.6993 48.5166 0.0000 0.0000 0.0000
# 3 48.5166 48.5166 56.4460 0.0000 0.0000 0.0000
# 4 0.0000 0.0000 0.0000 21.7986 0.0000 0.0000
# 5 0.0000 0.0000 0.0000 0.0000 21.7986 0.0000
# 6 0.0000 0.0000 0.0000 0.0000 0.0000 26.8345
#
#
#
# Elastic Compliance Matrix: (Units=1/GPa)
#
#
# Indices 1 2 3 4 5 6 
#
# 1 0.013848 -0.004784 -0.007791 0.000000 0.000000 0.000000
# 2 -0.004784 0.013848 -0.007791 0.000000 0.000000 0.000000
# 3 -0.007791 -0.007791 0.031108 0.000000 0.000000 0.000000
# 4 0.000000 0.000000 0.000000 0.045874 0.000000 0.000000
# 5 0.000000 0.000000 0.000000 0.000000 0.045874 0.000000
# 6 0.000000 0.000000 0.000000 0.000000 0.000000 0.037265
#
#
# Mechanical properties :
#
#
# Convention : Reuss Voigt Hill
#
# Bulk Modulus (GPa) = 55.32877 70.88574 63.10726
# Shear Modulus (GPa) = 21.31510 23.20509 22.26009
#
# Velocity S-wave (km/s) = 3.44500 3.59449 3.52054
# Velocity P-wave (km/s) = 6.82866 7.52965 7.18770
#
# Compressibility (1/GPa) = 0.01807378
#
# Stress axis : x y z
#
# Youngs Moduli (GPa) = 72.21091 72.21091 32.14557
#
# Poissons Ratio (x) = 0.34549 0.25043
# Poissons Ratio (y) = 0.34549 0.25043
# Poissons Ratio (z) = 0.56257 0.56257
#
# Static dielectric constant tensor:
#      x y z
#    x 3.261130 0.000000 0.000000 
#    y 0.000000 3.261130 0.000000 
#    z 0.000000 0.000000 3.203310 
# 
# 
# High freq. dielectric constant tensor:
#      x y z
#    x 1.691100 0.000000 0.000000 
#    y 0.000000 1.691100 0.000000 
#    z 0.000000 0.000000 1.693370 
# 
# From -- ./inp_files/663.got.cif
#   From: 2010.03.12/outbox.cif.g09.slc.cpg/sg189_1_cif.got.tgz:663.got - 2010.04.01 12:03:36.
