data_PCOD8327867
_publ_section_title
;
Structure prediction by ZEFSAII (Michael W. Deem and Ramdas Pophale) SiO2 
 PCOD8327867
Probable space group: P -6 2 M
;
_chemical_formula_sum "Si O2"
_cell_formula_units_Z 48
_cell_length_a 18.281103
_cell_length_b 18.281103
_cell_length_c 8.882892
_cell_angle_alpha 90.000000
_cell_angle_beta 90.000000
_cell_angle_gamma 120.000000
_cell_volume 2570.927352
_symmetry_space_group_name_H-M "P -6 2 M"
_symmetry_group_IT_number 189
_symmetry_cell_setting 'hexagonal'
loop_
_space_group_symop_operation_xyz
x,y,z
-x+y,-x,-z
-y,x-y,z
x,y,-z
-x+y,-x,z
-y,x-y,-z
x-y,-y,-z
-x,-x+y,-z
y,x,-z
y,x,z
x-y,-y,z
-x,-x+y,z
loop_
_atom_site_type_symbol
_atom_site_label
_atom_site_fract_x
_atom_site_fract_y
_atom_site_fract_z
Si Si1 0.329514 0.902337 0.675338
Si Si2 0.600759 0.838608 0.825384
Si Si3 0.521096 0.424739 0.170499
Si Si4 0.000000 0.909648 0.322982
Si Si5 0.250094 0.250094 0.678536
O O1 0.308815 0.885006 0.500000
O O2 0.246676 0.842137 0.769149
O O3 0.402089 0.880418 0.716610
O O4 0.361074 0.000000 0.716434
O O5 0.513182 0.838898 0.799879
O O6 0.669389 0.916118 0.731762
O O7 0.625810 0.851372 0.000000
O O8 0.445673 0.445673 0.197240
O O9 0.555358 0.448873 0.000000
O O10 0.000000 0.896547 0.500000
O O11 0.000000 0.830965 0.245654
O O12 0.916832 0.916832 0.278919
O O13 0.249066 0.249066 0.500000
#
# Coordination Sequence:
#
# PCOD8327867 Si02
#       5
#    12  12  12   6   6
#     4  10  22  39  59  86 117 149 190 241 293 344
#     4  11  22  38  59  86 118 155 196 237 287 352
#     4   9  18  37  61  82 109 149 190 231 281 341
#     4   7  14  31  51  73 106 149 190 231 285 336
#     4  11  21  33  57  89 118 153 198 247 291 338
#
# _framework density 18.670304999999999
#
# number of rings (size 3 to 8) (size 9 to 14) (size 15 to 20)
#    0.250    2.000    1.250    1.875    0.000    4.500 
#    1.500    2.500    0.000    2.250    0.000    0.000 
#    0.000    0.000    0.000    0.000    0.000    0.000 
#
# Total GULP energy -594960.547842 kJ/mol
# GULP energy per Si atom -12395.011413 kJ/mol
# Density = 1.862781 g / cm^3
# Si number density = 18.670305 Si / 1000 Ang^3
#
#
#
# Elastic Constant Matrix: (Units=GPa)
#
#
# Indices 1 2 3 4 5 6 
#
# 1 99.0906 47.1518 40.7747 0.0000 0.0000 0.0000
# 2 47.1518 99.0906 40.7747 0.0000 0.0000 0.0000
# 3 40.7747 40.7747 77.0473 0.0000 0.0000 0.0000
# 4 0.0000 0.0000 0.0000 30.8272 0.0000 0.0000
# 5 0.0000 0.0000 0.0000 0.0000 30.8272 0.0000
# 6 0.0000 0.0000 0.0000 0.0000 0.0000 25.9694
#
#
#
# Elastic Compliance Matrix: (Units=1/GPa)
#
#
# Indices 1 2 3 4 5 6 
#
# 1 0.014477 -0.004776 -0.005134 0.000000 0.000000 0.000000
# 2 -0.004776 0.014477 -0.005134 0.000000 0.000000 0.000000
# 3 -0.005134 -0.005134 0.018413 0.000000 0.000000 0.000000
# 4 0.000000 0.000000 0.000000 0.032439 0.000000 0.000000
# 5 0.000000 0.000000 0.000000 0.000000 0.032439 0.000000
# 6 0.000000 0.000000 0.000000 0.000000 0.000000 0.038507
#
#
# Mechanical properties :
#
#
# Convention : Reuss Voigt Hill
#
# Bulk Modulus (GPa) = 57.87332 59.18121 58.52726
# Shear Modulus (GPa) = 26.79543 27.29327 27.04435
#
# Velocity S-wave (km/s) = 3.79250 3.82757 3.81007
# Velocity P-wave (km/s) = 7.08817 7.16244 7.12540
#
# Compressibility (1/GPa) = 0.01727912
#
# Stress axis : x y z
#
# Youngs Moduli (GPa) = 69.07478 69.07478 54.30997
#
# Poissons Ratio (x) = 0.32992 0.27882
# Poissons Ratio (y) = 0.32992 0.27882
# Poissons Ratio (z) = 0.35462 0.35462
#
# Static dielectric constant tensor:
#      x y z
#    x 3.717230 0.000000 0.000000 
#    y 0.000000 3.717230 0.000000 
#    z 0.000000 0.000000 3.361610 
# 
# 
# High freq. dielectric constant tensor:
#      x y z
#    x 1.721930 0.000000 0.000000 
#    y 0.000000 1.721930 0.000000 
#    z 0.000000 0.000000 1.721460 
# 
# From -- ./inp_files/645.got.cif
#   From: 2010.03.12/outbox.cif.g09.slc.cpg/sg189_1_cif.got.tgz:645.got - 2010.04.01 12:03:36.
