data_PCOD8327569
_publ_section_title
;
Structure prediction by ZEFSAII (Michael W. Deem and Ramdas Pophale) SiO2 
 PCOD8327569
Probable space group: P -6 2 M
;
_chemical_formula_sum "Si O2"
_cell_formula_units_Z 52
_cell_length_a 13.170556
_cell_length_b 13.170556
_cell_length_c 21.773606
_cell_angle_alpha 90.000000
_cell_angle_beta 90.000000
_cell_angle_gamma 120.000000
_cell_volume 3270.914637
_symmetry_space_group_name_H-M "P -6 2 M"
_symmetry_group_IT_number 189
_symmetry_cell_setting 'hexagonal'
loop_
_space_group_symop_operation_xyz
x,y,z
-x+y,-x,-z
-y,x-y,z
x,y,-z
-x+y,-x,z
-y,x-y,-z
x-y,-y,-z
-x,-x+y,-z
y,x,-z
y,x,z
x-y,-y,z
-x,-x+y,z
loop_
_atom_site_type_symbol
_atom_site_label
_atom_site_fract_x
_atom_site_fract_y
_atom_site_fract_z
Si Si1 0.681779 0.134071 0.634450
Si Si2 0.333334 0.666668 0.927545
Si Si3 0.135337 0.486974 0.845365
Si Si4 0.658741 0.524326 0.430432
Si Si5 0.692672 0.132572 0.776882
O O1 0.796397 0.208420 0.593379
O O2 0.584212 0.166821 0.614526
O O3 0.713197 0.162832 0.705478
O O4 0.638239 0.000000 0.619050
O O5 0.210663 0.556043 0.905087
O O6 0.333334 0.666668 0.000000
O O7 0.145587 0.582102 0.796160
O O8 0.191079 0.413959 0.814458
O O9 0.000000 0.397839 0.863933
O O10 0.647750 0.478008 0.500000
O O11 0.621865 0.621865 0.426072
O O12 0.664770 0.000000 0.790379
#
# Coordination Sequence:
#
# PCOD8327569 Si02
#       5
#    12   4  12  12  12
#     4  10  19  30  45  64  86 111 141 183 230 271
#     4   9  18  30  45  72 102 123 154 188 205 240
#     4   9  17  30  47  66  94 127 150 177 220 260
#     4  10  20  31  43  61  84 112 146 182 225 280
#     4   9  17  28  44  67  89 113 149 186 222 268
#
# _framework density 15.897693
#
# number of rings (size 3 to 8) (size 9 to 14) (size 15 to 20)
#    0.000    2.538    0.000    3.000    0.000    4.615 
#    0.000    0.000    0.000    0.923    0.000    0.000 
#    0.000    0.000    0.000    0.692    0.000    0.923 
#
# Total GULP energy -644763.087962 kJ/mol
# GULP energy per Si atom -12399.290153 kJ/mol
# Density = 1.586151 g / cm^3
# Si number density = 15.897693 Si / 1000 Ang^3
#
#
#
# Elastic Constant Matrix: (Units=GPa)
#
#
# Indices 1 2 3 4 5 6 
#
# 1 92.7530 51.3305 52.9640 -0.0001 0.0000 0.0000
# 2 51.3305 92.7530 52.9641 -0.0001 0.0000 -0.0001
# 3 52.9640 52.9641 97.4404 -0.0002 0.0000 0.0000
# 4 -0.0001 -0.0001 -0.0002 16.4960 0.0000 0.0000
# 5 0.0000 0.0000 0.0000 0.0000 16.4960 0.0000
# 6 0.0000 -0.0001 0.0000 0.0000 0.0000 20.7112
#
#
#
# Elastic Compliance Matrix: (Units=1/GPa)
#
#
# Indices 1 2 3 4 5 6 
#
# 1 0.017851 -0.006291 -0.006283 0.000000 0.000000 0.000000
# 2 -0.006291 0.017851 -0.006283 0.000000 0.000000 0.000000
# 3 -0.006283 -0.006283 0.017093 0.000000 0.000000 0.000000
# 4 0.000000 0.000000 0.000000 0.060621 0.000000 0.000000
# 5 0.000000 0.000000 0.000000 0.000000 0.060621 0.000000
# 6 0.000000 0.000000 0.000000 0.000000 0.000000 0.048283
#
#
# Mechanical properties :
#
#
# Convention : Reuss Voigt Hill
#
# Bulk Modulus (GPa) = 66.31500 66.38486 66.34993
# Shear Modulus (GPa) = 18.86355 19.11981 18.99168
#
# Velocity S-wave (km/s) = 3.44838 3.47173 3.46008
# Velocity P-wave (km/s) = 7.59337 7.61043 7.60191
#
# Compressibility (1/GPa) = 0.01507954
#
# Stress axis : x y z
#
# Youngs Moduli (GPa) = 56.02030 56.02026 58.50195
#
# Poissons Ratio (x) = 0.35241 0.36759
# Poissons Ratio (y) = 0.35241 0.36759
# Poissons Ratio (z) = 0.35200 0.35200
#
# Static dielectric constant tensor:
#      x y z
#    x 3.019990 0.000000 0.000000 
#    y 0.000000 3.020000 0.000000 
#    z 0.000000 0.000000 2.902860 
# 
# 
# High freq. dielectric constant tensor:
#      x y z
#    x 1.598260 0.000000 0.000000 
#    y 0.000000 1.598260 0.000000 
#    z 0.000000 0.000000 1.606900 
# 
# From -- ./inp_files/3359.got.cif
#   From: 2010.03.12/outbox.cif.g09.slc.cpg/sg189_2_cif.got.tgz:3359.got - 2010.04.01 12:03:36.
