data_PCOD8327417
_publ_section_title
;
Structure prediction by ZEFSAII (Michael W. Deem and Ramdas Pophale) SiO2 
 PCOD8327417
Probable space group: P -6 C 2
;
_chemical_formula_sum "Si O2"
_cell_formula_units_Z 58
_cell_length_a 14.360701
_cell_length_b 14.360701
_cell_length_c 15.525960
_cell_angle_alpha 90.000000
_cell_angle_beta 90.000000
_cell_angle_gamma 120.000000
_cell_volume 2772.939375
_symmetry_space_group_name_H-M "P -6 C 2"
_symmetry_group_IT_number 188
_symmetry_cell_setting 'hexagonal'
loop_
_space_group_symop_operation_xyz
x,y,z
-x+y,-x,1/2-z
-y,x-y,z
x,y,1/2-z
-x+y,-x,z
-y,x-y,1/2-z
-y,-x,-z
-x+y,y,-z
x,x-y,-z
-x+y,y,1/2+z
x,x-y,1/2+z
-y,-x,1/2+z
loop_
_atom_site_type_symbol
_atom_site_label
_atom_site_fract_x
_atom_site_fract_y
_atom_site_fract_z
Si Si1 0.597870 0.195740 0.500000
Si Si2 0.865983 0.103289 0.650739
Si Si3 0.284912 0.444407 0.847427
Si Si4 0.762648 0.863702 0.596561
Si Si5 0.921028 0.562334 0.852391
Si Si6 0.333335 0.666668 0.146262
O O1 0.727818 0.272183 0.500000
O O2 0.582808 0.128176 0.588050
O O3 0.895128 0.123178 0.750000
O O4 0.769047 0.126893 0.629750
O O5 0.972905 0.186681 0.600210
O O6 0.842594 0.984012 0.628911
O O7 0.320056 0.474957 0.750000
O O8 0.161672 0.348133 0.850439
O O9 0.368197 0.411372 0.885552
O O10 0.297168 0.549726 0.893474
O O11 0.727797 0.863899 0.500000
O O12 0.908156 0.530905 0.750000
O O13 0.333334 0.666668 0.250000
#
# Coordination Sequence:
#
# PCOD8327417 Si02
#       6
#     6  12  12  12  12   4
#     4  10  24  42  62  90 116 160 198 262 320 374
#     4  10  20  37  61  87 122 165 212 255 300 367
#     4   9  19  39  62  86 119 162 206 252 299 358
#     4  11  21  34  55  91 128 166 195 251 306 369
#     4   9  20  41  65  89 122 163 208 263 316 372
#     4   9  18  39  64  86 115 153 208 254 292 355
#
# _framework density 20.916433000000001
#
# number of rings (size 3 to 8) (size 9 to 14) (size 15 to 20)
#    0.207    2.069    0.000    4.138    0.000    4.138 
#   11.172    0.000    0.000    0.000    0.000    0.000 
#    0.000    0.000    0.000    0.000    0.000    0.000 
#
# Total GULP energy -718514.210893 kJ/mol
# GULP energy per Si atom -12388.176050 kJ/mol
# Density = 2.086883 g / cm^3
# Si number density = 20.916433 Si / 1000 Ang^3
#
#
#
# Elastic Constant Matrix: (Units=GPa)
#
#
# Indices 1 2 3 4 5 6 
#
# 1 131.4565 66.4349 29.3696 -0.0003 0.0000 -0.0012
# 2 66.4349 131.4547 29.3672 0.0003 0.0001 0.0007
# 3 29.3696 29.3672 74.6007 0.0001 0.0000 -0.0005
# 4 -0.0003 0.0003 0.0001 21.4205 0.0002 -0.0001
# 5 0.0000 0.0001 0.0000 0.0002 21.4199 -0.0002
# 6 -0.0012 0.0007 -0.0005 -0.0001 -0.0002 32.5063
#
#
#
# Elastic Compliance Matrix: (Units=1/GPa)
#
#
# Indices 1 2 3 4 5 6 
#
# 1 0.010551 -0.004829 -0.002253 0.000000 0.000000 0.000000
# 2 -0.004829 0.010551 -0.002252 0.000000 0.000000 0.000000
# 3 -0.002253 -0.002252 0.015178 0.000000 0.000000 0.000000
# 4 0.000000 0.000000 0.000000 0.046684 0.000000 0.000000
# 5 0.000000 0.000000 0.000000 0.000000 0.046685 0.000000
# 6 0.000000 0.000000 0.000000 0.000000 0.000000 0.030763
#
#
# Mechanical properties :
#
#
# Convention : Reuss Voigt Hill
#
# Bulk Modulus (GPa) = 56.78018 65.31728 61.04873
# Shear Modulus (GPa) = 27.03412 29.22537 28.12975
#
# Velocity S-wave (km/s) = 3.59901 3.74203 3.67122
# Velocity P-wave (km/s) = 6.66901 7.06866 6.87174
#
# Compressibility (1/GPa) = 0.01761178
#
# Stress axis : x y z
#
# Youngs Moduli (GPa) = 94.77944 94.77953 65.88372
#
# Poissons Ratio (x) = 0.45768 0.14842
# Poissons Ratio (y) = 0.45768 0.14839
# Poissons Ratio (z) = 0.21352 0.21347
#
# Static dielectric constant tensor:
#      x y z
#    x 0.937680 0.000420 -0.000030 
#    y 0.000420 0.937390 0.000000 
#    z -0.000030 0.000000 3.637370 
# 
# 
# High freq. dielectric constant tensor:
#      x y z
#    x 1.811410 0.000000 0.000000 
#    y 0.000000 1.811410 0.000000 
#    z 0.000000 0.000000 1.810150 
# 
# From -- ./inp_files/2309.got.cif
#   From: 2010.03.12/outbox.cif.g09.slc.cpg/sg188_2_cif.got.tgz:2309.got - 2010.04.01 12:01:06.
