data_PCOD8327292
_publ_section_title
;
Structure prediction by ZEFSAII (Michael W. Deem and Ramdas Pophale) SiO2 
 PCOD8327292
Probable space group: P -6 M 2
;
_chemical_formula_sum "Si O2"
_cell_formula_units_Z 84
_cell_length_a 17.691557
_cell_length_b 17.691557
_cell_length_c 22.889377
_cell_angle_alpha 90.000000
_cell_angle_beta 90.000000
_cell_angle_gamma 120.000000
_cell_volume 6204.356096
_symmetry_space_group_name_H-M "P -6 M 2"
_symmetry_group_IT_number 187
_symmetry_cell_setting 'hexagonal'
loop_
_space_group_symop_operation_xyz
x,y,z
-x+y,-x,-z
-y,x-y,z
x,y,-z
-x+y,-x,z
-y,x-y,-z
-y,-x,-z
-x+y,y,-z
x,x-y,-z
-x+y,y,z
x,x-y,z
-y,-x,z
loop_
_atom_site_type_symbol
_atom_site_label
_atom_site_fract_x
_atom_site_fract_y
_atom_site_fract_z
Si Si1 0.842709 0.333743 0.707064
Si Si2 0.000432 0.173181 0.756972
Si Si3 0.000545 0.826939 0.107231
Si Si4 0.000160 0.175903 0.432874
Si Si5 0.308877 0.065178 0.335879
Si Si6 0.492062 0.158271 0.158061
Si Si7 0.355738 0.088334 0.064673
O O1 0.848064 0.424032 0.688928
O O2 0.744202 0.255799 0.695596
O O3 0.914465 0.323371 0.668624
O O4 0.868177 0.333787 0.774771
O O5 0.089153 0.178306 0.737135
O O6 0.000100 0.193767 0.824627
O O7 0.990593 0.245261 0.720229
O O8 0.923347 0.076654 0.741338
O O9 0.090458 0.909543 0.087027
O O10 0.923576 0.847152 0.092196
O O11 0.990617 0.742920 0.073316
O O12 0.001780 0.202533 0.500000
O O13 0.922523 0.077478 0.421109
O O14 0.985934 0.245055 0.394841
O O15 0.090295 0.180589 0.414916
O O16 0.315835 0.157918 0.333444
O O17 0.580800 0.161600 0.142002
O O18 0.506513 0.253256 0.145038
O O19 0.418672 0.086823 0.114925
O O20 0.352830 0.176415 0.071674
O O21 0.388510 0.080661 0.000000
#
# Coordination Sequence:
#
# PCOD8327292 Si02
#       7
#    12  12  12  12  12  12  12
#     4   9  16  26  40  56  72  91 118 153 190 224
#     4   9  15  22  33  50  72  96 121 149 180 214
#     4   9  16  25  36  49  66  91 124 158 186 210
#     4   9  16  25  37  54  78 108 138 162 180 201
#     4   9  16  24  35  52  73  97 124 153 185 218
#     4   9  16  26  40  56  72  90 114 145 181 222
#     4   9  17  27  36  47  66  91 117 147 183 218
#
# _framework density 13.538875000000001
#
# number of rings (size 3 to 8) (size 9 to 14) (size 15 to 20)
#    0.000    3.000    0.000    2.000    0.000    6.857 
#    0.000    1.429    0.000    2.143    0.000    0.000 
#    0.000    1.143    0.000    3.857    0.000   30.714 
#
# Total GULP energy -1041142.199772 kJ/mol
# GULP energy per Si atom -12394.549997 kJ/mol
# Density = 1.350806 g / cm^3
# Si number density = 13.538875 Si / 1000 Ang^3
#
#
#
# Elastic Constant Matrix: (Units=GPa)
#
#
# Indices 1 2 3 4 5 6 
#
# 1 70.1118 35.8872 34.9387 0.0000 0.0000 0.0000
# 2 35.8872 70.1118 34.9387 0.0000 0.0000 0.0000
# 3 34.9387 34.9387 56.0766 0.0000 0.0000 0.0000
# 4 0.0000 0.0000 0.0000 15.8850 0.0000 0.0000
# 5 0.0000 0.0000 0.0000 0.0000 15.8850 0.0000
# 6 0.0000 0.0000 0.0000 0.0000 0.0000 17.1123
#
#
#
# Elastic Compliance Matrix: (Units=1/GPa)
#
#
# Indices 1 2 3 4 5 6 
#
# 1 0.022614 -0.006604 -0.009975 0.000000 0.000000 0.000000
# 2 -0.006604 0.022614 -0.009975 0.000000 0.000000 0.000000
# 3 -0.009975 -0.009975 0.030263 0.000000 0.000000 0.000000
# 4 0.000000 0.000000 0.000000 0.062952 0.000000 0.000000
# 5 0.000000 0.000000 0.000000 0.000000 0.062952 0.000000
# 6 0.000000 0.000000 0.000000 0.000000 0.000000 0.058438
#
#
# Mechanical properties :
#
#
# Convention : Reuss Voigt Hill
#
# Bulk Modulus (GPa) = 44.67798 45.31437 44.99618
# Shear Modulus (GPa) = 15.60533 15.81216 15.70874
#
# Velocity S-wave (km/s) = 3.39873 3.42117 3.40997
# Velocity P-wave (km/s) = 6.96227 7.01059 6.98647
#
# Compressibility (1/GPa) = 0.02238239
#
# Stress axis : x y z
#
# Youngs Moduli (GPa) = 44.21979 44.21979 33.04403
#
# Poissons Ratio (x) = 0.29205 0.32961
# Poissons Ratio (y) = 0.29205 0.32961
# Poissons Ratio (z) = 0.44109 0.44109
#
# Static dielectric constant tensor:
#      x y z
#    x 2.583490 0.000000 0.000000 
#    y 0.000000 2.583490 0.000000 
#    z 0.000000 0.000000 2.759250 
# 
# 
# High freq. dielectric constant tensor:
#      x y z
#    x 1.486670 0.000000 0.000000 
#    y 0.000000 1.486670 0.000000 
#    z 0.000000 0.000000 1.517750 
# 
# From -- ./inp_files/3690.got.cif
#   From: 2010.03.12/outbox.cif.g09.slc.cpg/sg187_2_cif.got.tgz:3690.got - 2010.04.01 11:58:23.
