data_PCOD8327379
_publ_section_title
;
Structure prediction by ZEFSAII (Michael W. Deem and Ramdas Pophale) SiO2 
 PCOD8327379
Probable space group: P -6 C 2
;
_chemical_formula_sum "Si O2"
_cell_formula_units_Z 72
_cell_length_a 23.834899
_cell_length_b 23.834899
_cell_length_c 8.682756
_cell_angle_alpha 90.000000
_cell_angle_beta 90.000000
_cell_angle_gamma 120.000000
_cell_volume 4271.838843
_symmetry_space_group_name_H-M "P -6 C 2"
_symmetry_group_IT_number 188
_symmetry_cell_setting 'hexagonal'
loop_
_space_group_symop_operation_xyz
x,y,z
-x+y,-x,1/2-z
-y,x-y,z
x,y,1/2-z
-x+y,-x,z
-y,x-y,1/2-z
-y,-x,-z
-x+y,y,-z
x,x-y,-z
-x+y,y,1/2+z
x,x-y,1/2+z
-y,-x,1/2+z
loop_
_atom_site_type_symbol
_atom_site_label
_atom_site_fract_x
_atom_site_fract_y
_atom_site_fract_z
Si Si1 0.447813 0.439870 0.923140
Si Si2 0.811888 0.069634 0.932180
Si Si3 0.145931 0.628791 0.578147
Si Si4 0.119377 0.120013 0.433361
Si Si5 0.331389 0.006252 0.931019
Si Si6 0.257802 0.399953 0.069412
O O1 0.455338 0.420114 0.750000
O O2 0.413891 0.482839 0.920292
O O3 0.518678 0.481323 0.000000
O O4 0.405393 0.375927 0.024901
O O5 0.822079 0.069870 0.750000
O O6 0.859279 0.140722 0.000000
O O7 0.827151 0.017858 0.011647
O O8 0.739246 0.050713 0.972843
O O9 0.173838 0.647039 0.750000
O O10 0.175281 0.587641 0.500000
O O11 0.168241 0.695015 0.486691
O O12 0.116351 0.117030 0.250000
O O13 0.099256 0.049628 0.500000
O O14 0.071235 0.142469 0.500000
O O15 0.326444 0.015575 0.750000
O O16 0.284695 0.931807 0.982732
O O17 0.253103 0.401161 0.250000
O O18 0.186307 0.372614 0.000000
#
# Coordination Sequence:
#
# PCOD8327379 Si02
#       6
#    12  12  12  12  12  12
#     4   9  16  27  45  70  96 122 150 183 222 266
#     4  11  22  37  54  72  95 126 163 202 245 298
#     4   9  16  27  44  64  87 114 147 182 221 269
#     4  11  21  35  52  71  92 117 153 201 256 310
#     4  10  20  34  50  70  96 127 161 198 239 287
#     4  10  20  32  47  67  93 122 155 196 243 290
#
# _framework density 16.854568
#
# number of rings (size 3 to 8) (size 9 to 14) (size 15 to 20)
#    0.000    2.000    0.000    6.167    0.000    6.667 
#    0.000    1.667    0.000    0.333    0.000    2.333 
#    0.000    0.000    0.000    0.500    0.000    7.000 
#
# Total GULP energy -892927.012131 kJ/mol
# GULP energy per Si atom -12401.764057 kJ/mol
# Density = 1.681621 g / cm^3
# Si number density = 16.854568 Si / 1000 Ang^3
#
#
#
# Elastic Constant Matrix: (Units=GPa)
#
#
# Indices 1 2 3 4 5 6 
#
# 1 73.4309 47.2596 34.8500 0.0002 0.0000 0.0000
# 2 47.2596 73.4309 34.8500 -0.0002 0.0000 0.0000
# 3 34.8500 34.8500 119.4710 0.0000 0.0000 0.0000
# 4 0.0002 -0.0002 0.0000 27.0326 0.0000 0.0000
# 5 0.0000 0.0000 0.0000 0.0000 27.0326 0.0002
# 6 0.0000 0.0000 0.0000 0.0000 0.0002 13.0857
#
#
#
# Elastic Compliance Matrix: (Units=1/GPa)
#
#
# Indices 1 2 3 4 5 6 
#
# 1 0.024087 -0.014123 -0.002907 0.000000 0.000000 0.000000
# 2 -0.014123 0.024087 -0.002907 0.000000 0.000000 0.000000
# 3 -0.002907 -0.002907 0.010066 0.000000 0.000000 0.000000
# 4 0.000000 0.000000 0.000000 0.036992 0.000000 0.000000
# 5 0.000000 0.000000 0.000000 0.000000 0.036992 -0.000001
# 6 0.000000 0.000000 0.000000 0.000000 -0.000001 0.076420
#
#
# Mechanical properties :
#
#
# Convention : Reuss Voigt Hill
#
# Bulk Modulus (GPa) = 54.44236 55.58359 55.01297
# Shear Modulus (GPa) = 19.63566 23.38840 21.51203
#
# Velocity S-wave (km/s) = 3.41692 3.72917 3.57646
# Velocity P-wave (km/s) = 6.92376 7.18277 7.05446
#
# Compressibility (1/GPa) = 0.01836805
#
# Stress axis : x y z
#
# Youngs Moduli (GPa) = 41.51617 41.51617 99.34476
#
# Poissons Ratio (x) = 0.58632 0.28876
# Poissons Ratio (y) = 0.58632 0.28876
# Poissons Ratio (z) = 0.12067 0.12067
#
# Static dielectric constant tensor:
#      x y z
#    x 3.049570 0.000000 0.000000 
#    y 0.000000 3.049570 0.000000 
#    z 0.000000 0.000000 3.339720 
# 
# 
# High freq. dielectric constant tensor:
#      x y z
#    x 1.620990 0.000000 0.000000 
#    y 0.000000 1.620990 0.000000 
#    z 0.000000 0.000000 1.673270 
# 
# From -- ./inp_files/1002.got.cif
#   From: 2010.03.12/outbox.cif.g09.slc.cpg/sg188_1_cif.got.tgz:1002.got - 2010.04.01 12:01:06.
