data_PCOD8328246
_publ_section_title
;
Structure prediction by ZEFSAII (Michael W. Deem and Ramdas Pophale) SiO2 
 PCOD8328246
Probable space group: P 6/M M M
;
_chemical_formula_sum "Si O2"
_cell_formula_units_Z 108
_cell_length_a 31.931770
_cell_length_b 31.931770
_cell_length_c 7.982636
_cell_angle_alpha 90.000000
_cell_angle_beta 90.000000
_cell_angle_gamma 120.000000
_cell_volume 7048.925863
_symmetry_space_group_name_H-M "P 6/M M M"
_symmetry_group_IT_number 191
_symmetry_cell_setting 'hexagonal'
loop_
_space_group_symop_operation_xyz
x,y,z
x-y,x,z
-y,x-y,z
-x,-y,z
-x+y,-x,z
y,-x+y,z
x-y,-y,-z
-x,-x+y,-z
y,x,-z
-y,-x,-z
-x+y,y,-z
x,x-y,-z
-x,-y,-z
-x+y,-x,-z
y,-x+y,-z
x,y,-z
x-y,x,-z
-y,x-y,-z
-x+y,y,z
x,x-y,z
-y,-x,z
y,x,z
x-y,-y,z
-x,-x+y,z
loop_
_atom_site_type_symbol
_atom_site_label
_atom_site_fract_x
_atom_site_fract_y
_atom_site_fract_z
Si Si1 0.424751 0.942776 0.000000
Si Si2 0.000000 0.259695 0.189310
Si Si3 0.839960 0.160041 0.200072
Si Si4 0.000000 0.829245 0.313189
Si Si5 0.894486 0.105515 0.808798
Si Si6 0.733221 0.639754 0.193881
Si Si7 0.056244 0.630520 0.688514
O O1 0.393093 0.925588 0.829452
O O2 0.460081 0.920162 0.000000
O O3 0.456275 0.000000 0.000000
O O4 0.000000 0.220889 0.313881
O O5 0.045578 0.310460 0.224836
O O6 0.000000 0.241698 0.000000
O O7 0.867512 0.132489 0.277649
O O8 0.863871 0.215486 0.261307
O O9 0.841835 0.158166 0.000000
O O10 0.951147 0.821622 0.229217
O O11 0.000000 0.846349 0.500000
O O12 0.887859 0.112142 0.000000
O O13 0.688473 0.598976 0.298207
O O14 0.724552 0.624372 0.000000
O O15 0.062668 0.615162 0.500000
O O16 0.000000 0.613916 0.722007
#
# Coordination Sequence:
#
# PCOD8328246 Si02
#       7
#    12  12  12  12  12  24  24
#     4   9  18  32  48  65  88 116 146 188 238 273
#     4  10  18  28  50  68  85 124 159 188 229 289
#     4   9  18  29  47  69  90 121 162 198 231 275
#     4  12  24  36  50  75 101 114 139 191 246 288
#     4  11  21  39  57  70  88 121 157 181 225 297
#     4  10  17  29  45  65  92 123 160 198 235 278
#     4  10  19  29  45  67  88 116 155 195 237 281
#
# _framework density 15.321483000000001
#
# number of rings (size 3 to 8) (size 9 to 14) (size 15 to 20)
#    0.000    1.889    4.444    1.333    0.000    1.333 
#    0.000    2.778    0.000    0.222    0.000    1.556 
#    0.000    0.000    0.000    0.000    0.000    0.000 
#
# Total GULP energy -1338531.256484 kJ/mol
# GULP energy per Si atom -12393.807930 kJ/mol
# Density = 1.528661 g / cm^3
# Si number density = 15.321483 Si / 1000 Ang^3
#
#
#
# Elastic Constant Matrix: (Units=GPa)
#
#
# Indices 1 2 3 4 5 6 
#
# 1 78.6855 44.3098 32.8046 0.0000 0.0000 0.0000
# 2 44.3098 78.6855 32.8046 0.0000 0.0000 0.0000
# 3 32.8046 32.8046 76.7993 0.0000 0.0000 0.0000
# 4 0.0000 0.0000 0.0000 10.7933 0.0000 0.0000
# 5 0.0000 0.0000 0.0000 0.0000 10.7933 0.0000
# 6 0.0000 0.0000 0.0000 0.0000 0.0000 17.1878
#
#
#
# Elastic Compliance Matrix: (Units=1/GPa)
#
#
# Indices 1 2 3 4 5 6 
#
# 1 0.019810 -0.009280 -0.004498 0.000000 0.000000 0.000000
# 2 -0.009280 0.019810 -0.004498 0.000000 0.000000 0.000000
# 3 -0.004498 -0.004498 0.016863 0.000000 0.000000 0.000000
# 4 0.000000 0.000000 0.000000 0.092650 0.000000 0.000000
# 5 0.000000 0.000000 0.000000 0.000000 0.092650 0.000000
# 6 0.000000 0.000000 0.000000 0.000000 0.000000 0.058181
#
#
# Mechanical properties :
#
#
# Convention : Reuss Voigt Hill
#
# Bulk Modulus (GPa) = 50.17124 50.44537 50.30831
# Shear Modulus (GPa) = 14.57051 16.03832 15.30442
#
# Velocity S-wave (km/s) = 3.08715 3.23892 3.16394
# Velocity P-wave (km/s) = 6.74716 6.85445 6.80102
#
# Compressibility (1/GPa) = 0.01993174
#
# Stress axis : x y z
#
# Youngs Moduli (GPa) = 50.47966 50.47966 59.30036
#
# Poissons Ratio (x) = 0.46847 0.26671
# Poissons Ratio (y) = 0.46847 0.26671
# Poissons Ratio (z) = 0.22704 0.22704
#
# Static dielectric constant tensor:
#      x y z
#    x 2.824210 0.000000 0.000000 
#    y 0.000000 2.824210 0.000000 
#    z 0.000000 0.000000 2.945800 
# 
# 
# High freq. dielectric constant tensor:
#      x y z
#    x 1.555180 0.000000 0.000000 
#    y 0.000000 1.555180 0.000000 
#    z 0.000000 0.000000 1.589740 
# 
# From -- ./inp_files/1800.got.cif
#   From: 2010.03.12/outbox.cif.g09.slc.cpg/sg191_1_cif.got.tgz:1800.got - 2010.04.01 12:09:02.
