data_PCOD8328665
_publ_section_title
;
Structure prediction by ZEFSAII (Michael W. Deem and Ramdas Pophale) SiO2 
 PCOD8328665
Probable space group: P 6/M M M
;
_chemical_formula_sum "Si O2"
_cell_formula_units_Z 132
_cell_length_a 18.734771
_cell_length_b 18.734771
_cell_length_c 27.578605
_cell_angle_alpha 90.000000
_cell_angle_beta 90.000000
_cell_angle_gamma 120.000000
_cell_volume 8383.004596
_symmetry_space_group_name_H-M "P 6/M M M"
_symmetry_group_IT_number 191
_symmetry_cell_setting 'hexagonal'
loop_
_space_group_symop_operation_xyz
x,y,z
x-y,x,z
-y,x-y,z
-x,-y,z
-x+y,-x,z
y,-x+y,z
x-y,-y,-z
-x,-x+y,-z
y,x,-z
-y,-x,-z
-x+y,y,-z
x,x-y,-z
-x,-y,-z
-x+y,-x,-z
y,-x+y,-z
x,y,-z
x-y,x,-z
-y,x-y,-z
-x+y,y,z
x,x-y,z
-y,-x,z
y,x,z
x-y,-y,z
-x,-x+y,z
loop_
_atom_site_type_symbol
_atom_site_label
_atom_site_fract_x
_atom_site_fract_y
_atom_site_fract_z
Si Si1 0.905027 0.374309 0.847317
Si Si2 0.498258 0.666044 0.946847
Si Si3 0.906588 0.655941 0.220516
Si Si4 0.499404 0.668381 0.399368
Si Si5 0.538399 0.630325 0.500000
Si Si6 0.347952 0.255101 0.667534
O O1 0.863554 0.431777 0.837948
O O2 0.895349 0.346943 0.903733
O O3 0.868811 0.296473 0.811438
O O4 0.000000 0.427947 0.835156
O O5 0.503888 0.751944 0.937259
O O6 0.403048 0.596953 0.945154
O O7 0.535706 0.664548 0.000000
O O8 0.847607 0.695213 0.212249
O O9 0.902913 0.629551 0.276081
O O10 0.000000 0.723571 0.205131
O O11 0.469758 0.734879 0.392886
O O12 0.422327 0.577674 0.391052
O O13 0.539316 0.680109 0.452543
O O14 0.569144 0.682728 0.360717
O O15 0.617785 0.617785 0.500000
O O16 0.457252 0.542749 0.500000
O O17 0.318911 0.159456 0.654636
O O18 0.275235 0.275235 0.654067
#
# Coordination Sequence:
#
# PCOD8328665 Si02
#       6
#    24  24  24  24  12  24
#     4   9  17  27  39  57  80 106 136 168 201 240
#     4   9  16  25  37  52  71  97 130 167 204 240
#     4   9  17  30  47  65  85 109 138 171 209 254
#     4  10  19  30  44  63  89 120 152 183 215 251
#     4   9  17  28  42  60  82 111 149 189 221 250
#     4   9  18  31  47  66  86 110 139 173 213 255
#
# _framework density 15.746143999999999
#
# number of rings (size 3 to 8) (size 9 to 14) (size 15 to 20)
#    0.000    2.818    0.000    1.727    0.000    2.909 
#    0.000    4.545    0.000    0.727    0.000    2.545 
#    0.000    0.000    0.000    0.000    0.000   18.909 
#
# Total GULP energy -1635793.339309 kJ/mol
# GULP energy per Si atom -12392.373783 kJ/mol
# Density = 1.571031 g / cm^3
# Si number density = 15.746144 Si / 1000 Ang^3
#
#
#
# Elastic Constant Matrix: (Units=GPa)
#
#
# Indices 1 2 3 4 5 6 
#
# 1 75.0882 46.1290 40.3300 0.0000 0.0000 0.0000
# 2 46.1290 75.0882 40.3300 0.0000 0.0000 0.0000
# 3 40.3300 40.3300 76.7345 0.0000 0.0000 0.0000
# 4 0.0000 0.0000 0.0000 22.3388 0.0000 0.0000
# 5 0.0000 0.0000 0.0000 0.0000 22.3388 0.0000
# 6 0.0000 0.0000 0.0000 0.0000 0.0000 14.4796
#
#
#
# Elastic Compliance Matrix: (Units=1/GPa)
#
#
# Indices 1 2 3 4 5 6 
#
# 1 0.023609 -0.010922 -0.006668 0.000000 0.000000 0.000000
# 2 -0.010922 0.023609 -0.006668 0.000000 0.000000 0.000000
# 3 -0.006668 -0.006668 0.020041 0.000000 0.000000 0.000000
# 4 0.000000 0.000000 0.000000 0.044765 0.000000 0.000000
# 5 0.000000 0.000000 0.000000 0.000000 0.044765 0.000000
# 6 0.000000 0.000000 0.000000 0.000000 0.000000 0.069063
#
#
# Mechanical properties :
#
#
# Convention : Reuss Voigt Hill
#
# Bulk Modulus (GPa) = 53.35387 53.38767 53.37077
# Shear Modulus (GPa) = 17.81801 18.50624 18.16212
#
# Velocity S-wave (km/s) = 3.36754 3.43197 3.39991
# Velocity P-wave (km/s) = 7.00556 7.04864 7.02713
#
# Compressibility (1/GPa) = 0.01874278
#
# Stress axis : x y z
#
# Youngs Moduli (GPa) = 42.35689 42.35689 49.89823
#
# Poissons Ratio (x) = 0.46264 0.33271
# Poissons Ratio (y) = 0.46264 0.33271
# Poissons Ratio (z) = 0.28243 0.28243
#
# Static dielectric constant tensor:
#      x y z
#    x 3.006680 0.000000 0.000000 
#    y 0.000000 3.006680 0.000000 
#    z 0.000000 0.000000 3.206360 
# 
# 
# High freq. dielectric constant tensor:
#      x y z
#    x 1.586340 0.000000 0.000000 
#    y 0.000000 1.586340 0.000000 
#    z 0.000000 0.000000 1.614690 
# 
# From -- ./inp_files/10370.got.cif
#   From: 2010.03.12/outbox.cif.g09.slc.cpg/sg191_6_cif.got.tgz:10370.got - 2010.04.01 12:09:02.
