data_PCOD8328709
_publ_section_title
;
Structure prediction by ZEFSAII (Michael W. Deem and Ramdas Pophale) SiO2 
 PCOD8328709
Probable space group: P 6/M M M
;
_chemical_formula_sum "Si O2"
_cell_formula_units_Z 120
_cell_length_a 18.022555
_cell_length_b 18.022555
_cell_length_c 25.320837
_cell_angle_alpha 90.000000
_cell_angle_beta 90.000000
_cell_angle_gamma 120.000000
_cell_volume 7122.646790
_symmetry_space_group_name_H-M "P 6/M M M"
_symmetry_group_IT_number 191
_symmetry_cell_setting 'hexagonal'
loop_
_space_group_symop_operation_xyz
x,y,z
x-y,x,z
-y,x-y,z
-x,-y,z
-x+y,-x,z
y,-x+y,z
x-y,-y,-z
-x,-x+y,-z
y,x,-z
-y,-x,-z
-x+y,y,-z
x,x-y,-z
-x,-y,-z
-x+y,-x,-z
y,-x+y,-z
x,y,-z
x-y,x,-z
-y,x-y,-z
-x+y,y,z
x,x-y,z
-y,-x,z
y,x,z
x-y,-y,z
-x,-x+y,z
loop_
_atom_site_type_symbol
_atom_site_label
_atom_site_fract_x
_atom_site_fract_y
_atom_site_fract_z
Si Si1 0.834246 0.502771 0.411569
Si Si2 0.164549 0.495617 0.888425
Si Si3 0.638311 0.734091 0.500000
Si Si4 0.362774 0.097589 0.799211
Si Si5 0.904988 0.540234 0.000000
Si Si6 0.099813 0.466542 0.298112
O O1 0.735074 0.470148 0.424584
O O2 0.854425 0.427213 0.423134
O O3 0.894302 0.582543 0.448331
O O4 0.851131 0.532479 0.350941
O O5 0.263697 0.527394 0.876035
O O6 0.146551 0.573276 0.880165
O O7 0.103018 0.419466 0.849531
O O8 0.144774 0.458617 0.947808
O O9 0.720303 0.720303 0.500000
O O10 0.671407 0.835704 0.500000
O O11 0.325992 0.162996 0.804724
O O12 0.423472 0.125560 0.748097
O O13 0.284100 0.000000 0.794822
O O14 0.911415 0.455708 0.000000
O O15 0.000000 0.622766 0.000000
O O16 0.126344 0.563172 0.280787
O O17 0.000000 0.412853 0.310657
#
# Coordination Sequence:
#
# PCOD8328709 Si02
#       6
#    24  24  12  24  12  24
#     4  10  19  30  45  67  97 131 164 194 222 254
#     4  10  19  30  45  66  93 124 156 189 224 264
#     4  10  21  35  51  70  91 117 150 190 235 281
#     4  10  20  33  49  68  90 117 150 189 232 277
#     4   9  17  28  42  60  84 119 161 197 225 254
#     4   9  17  29  46  68  93 122 156 191 225 263
#
# _framework density 16.847670000000001
#
# number of rings (size 3 to 8) (size 9 to 14) (size 15 to 20)
#    0.000    2.300    0.000    3.400    0.000    3.600 
#    0.000    2.000    0.000    6.700    0.000    0.000 
#    0.000    0.000    0.000    6.400    0.000   20.800 
#
# Total GULP energy -1487955.942044 kJ/mol
# GULP energy per Si atom -12399.632850 kJ/mol
# Density = 1.680932 g / cm^3
# Si number density = 16.847670 Si / 1000 Ang^3
#
#
#
# Elastic Constant Matrix: (Units=GPa)
#
#
# Indices 1 2 3 4 5 6 
#
# 1 81.4244 46.2792 35.0972 0.0000 0.0000 0.0000
# 2 46.2792 81.4244 35.0972 0.0000 0.0000 0.0000
# 3 35.0972 35.0972 86.7935 0.0000 0.0000 0.0000
# 4 0.0000 0.0000 0.0000 21.8376 0.0000 0.0000
# 5 0.0000 0.0000 0.0000 0.0000 21.8376 0.0000
# 6 0.0000 0.0000 0.0000 0.0000 0.0000 17.5726
#
#
#
# Elastic Compliance Matrix: (Units=1/GPa)
#
#
# Indices 1 2 3 4 5 6 
#
# 1 0.019261 -0.009192 -0.004072 0.000000 0.000000 0.000000
# 2 -0.009192 0.019261 -0.004072 0.000000 0.000000 0.000000
# 3 -0.004072 -0.004072 0.014814 0.000000 0.000000 0.000000
# 4 0.000000 0.000000 0.000000 0.045793 0.000000 0.000000
# 5 0.000000 0.000000 0.000000 0.000000 0.045793 0.000000
# 6 0.000000 0.000000 0.000000 0.000000 0.000000 0.056907
#
#
# Mechanical properties :
#
#
# Convention : Reuss Voigt Hill
#
# Bulk Modulus (GPa) = 53.57440 53.62106 53.59773
# Shear Modulus (GPa) = 20.59979 21.12748 20.86363
#
# Velocity S-wave (km/s) = 3.50052 3.54507 3.52286
# Velocity P-wave (km/s) = 6.94309 6.97515 6.95914
#
# Compressibility (1/GPa) = 0.01866563
#
# Stress axis : x y z
#
# Youngs Moduli (GPa) = 51.91841 51.91841 67.50175
#
# Poissons Ratio (x) = 0.47725 0.27483
# Poissons Ratio (y) = 0.47725 0.27483
# Poissons Ratio (z) = 0.21139 0.21139
#
# Static dielectric constant tensor:
#      x y z
#    x 2.950020 0.000000 0.000000 
#    y 0.000000 2.950020 0.000000 
#    z 0.000000 0.000000 3.367570 
# 
# 
# High freq. dielectric constant tensor:
#      x y z
#    x 1.627040 0.000000 0.000000 
#    y 0.000000 1.627040 0.000000 
#    z 0.000000 0.000000 1.668030 
# 
# From -- ./inp_files/8543.got.cif
#   From: 2010.03.12/outbox.cif.g09.slc.cpg/sg191_5_cif.got.tgz:8543.got - 2010.04.01 12:09:02.
