data_PCOD8328699
_publ_section_title
;
Structure prediction by ZEFSAII (Michael W. Deem and Ramdas Pophale) SiO2 
 PCOD8328699
Probable space group: P 6/M M M
;
_chemical_formula_sum "Si O2"
_cell_formula_units_Z 132
_cell_length_a 17.901860
_cell_length_b 17.901860
_cell_length_c 27.910513
_cell_angle_alpha 90.000000
_cell_angle_beta 90.000000
_cell_angle_gamma 120.000000
_cell_volume 7746.308047
_symmetry_space_group_name_H-M "P 6/M M M"
_symmetry_group_IT_number 191
_symmetry_cell_setting 'hexagonal'
loop_
_space_group_symop_operation_xyz
x,y,z
x-y,x,z
-y,x-y,z
-x,-y,z
-x+y,-x,z
y,-x+y,z
x-y,-y,-z
-x,-x+y,-z
y,x,-z
-y,-x,-z
-x+y,y,-z
x,x-y,-z
-x,-y,-z
-x+y,-x,-z
y,-x+y,-z
x,y,-z
x-y,x,-z
-y,x-y,-z
-x+y,y,z
x,x-y,z
-y,-x,z
y,x,z
x-y,-y,z
-x,-x+y,z
loop_
_atom_site_type_symbol
_atom_site_label
_atom_site_fract_x
_atom_site_fract_y
_atom_site_fract_z
Si Si1 0.633320 0.534150 0.728159
Si Si2 0.902549 0.633694 0.087726
Si Si3 0.531773 0.897921 0.553094
Si Si4 0.099976 0.362576 0.361462
Si Si5 0.331406 0.839399 0.000000
Si Si6 0.503222 0.834513 0.169405
O O1 0.561411 0.438590 0.711016
O O2 0.588470 0.588470 0.743012
O O3 0.699343 0.578924 0.685259
O O4 0.682501 0.529684 0.774949
O O5 0.834052 0.668103 0.084637
O O6 0.884763 0.564995 0.046391
O O7 0.895535 0.586778 0.137993
O O8 0.000000 0.714548 0.083001
O O9 0.544028 0.868685 0.500000
O O10 0.429905 0.859810 0.563459
O O11 0.574066 0.866573 0.592846
O O12 0.577591 0.000000 0.555814
O O13 0.158524 0.317047 0.359161
O O14 0.000000 0.288974 0.365040
O O15 0.262249 0.737751 0.000000
O O16 0.426449 0.852897 0.000000
O O17 0.428312 0.856624 0.158544
O O18 0.469818 0.734909 0.156090
#
# Coordination Sequence:
#
# PCOD8328699 Si02
#       6
#    24  24  24  24  12  24
#     4   9  17  29  46  67  89 115 149 188 228 271
#     4  10  21  35  51  71  94 122 156 196 240 281
#     4   8  14  26  45  67  88 110 137 170 211 261
#     4  10  19  30  45  65  89 117 152 193 233 272
#     4  10  20  33  50  73 102 134 165 194 224 261
#     4  10  19  30  45  67  97 130 160 187 217 258
#
# _framework density 17.040375000000001
#
# number of rings (size 3 to 8) (size 9 to 14) (size 15 to 20)
#    0.000    2.545    0.000    3.273    0.000    5.091 
#    0.000    1.818    0.000    4.364    0.000    0.000 
#    0.000    2.182    0.000   10.364    0.000    0.000 
#
# Total GULP energy -1636261.390663 kJ/mol
# GULP energy per Si atom -12395.919626 kJ/mol
# Density = 1.700159 g / cm^3
# Si number density = 17.040375 Si / 1000 Ang^3
#
#
#
# Elastic Constant Matrix: (Units=GPa)
#
#
# Indices 1 2 3 4 5 6 
#
# 1 91.6246 55.0774 36.8298 0.0000 0.0000 0.0000
# 2 55.0774 91.6246 36.8298 0.0000 0.0000 0.0000
# 3 36.8298 36.8298 81.8395 0.0000 0.0000 0.0000
# 4 0.0000 0.0000 0.0000 17.3606 0.0000 0.0000
# 5 0.0000 0.0000 0.0000 0.0000 17.3606 0.0000
# 6 0.0000 0.0000 0.0000 0.0000 0.0000 18.2736
#
#
#
# Elastic Compliance Matrix: (Units=1/GPa)
#
#
# Indices 1 2 3 4 5 6 
#
# 1 0.018084 -0.009278 -0.003963 0.000000 0.000000 0.000000
# 2 -0.009278 0.018084 -0.003963 0.000000 0.000000 0.000000
# 3 -0.003963 -0.003963 0.015786 0.000000 0.000000 0.000000
# 4 0.000000 0.000000 0.000000 0.057602 0.000000 0.000000
# 5 0.000000 0.000000 0.000000 0.000000 0.057602 0.000000
# 6 0.000000 0.000000 0.000000 0.000000 0.000000 0.054724
#
#
# Mechanical properties :
#
#
# Convention : Reuss Voigt Hill
#
# Bulk Modulus (GPa) = 56.99157 58.06252 57.52705
# Shear Modulus (GPa) = 19.07390 19.68906 19.38148
#
# Velocity S-wave (km/s) = 3.34928 3.40286 3.37617
# Velocity P-wave (km/s) = 6.96236 7.04178 7.00219
#
# Compressibility (1/GPa) = 0.01754645
#
# Stress axis : x y z
#
# Youngs Moduli (GPa) = 55.29709 55.29709 63.34708
#
# Poissons Ratio (x) = 0.51303 0.25105
# Poissons Ratio (y) = 0.51303 0.25105
# Poissons Ratio (z) = 0.21915 0.21915
#
# Static dielectric constant tensor:
#      x y z
#    x 2.997170 0.000000 0.000000 
#    y 0.000000 2.997170 0.000000 
#    z 0.000000 0.000000 3.438950 
# 
# 
# High freq. dielectric constant tensor:
#      x y z
#    x 1.632680 0.000000 0.000000 
#    y 0.000000 1.632680 0.000000 
#    z 0.000000 0.000000 1.676790 
# 
# From -- ./inp_files/9807.got.cif
#   From: 2010.03.12/outbox.cif.g09.slc.cpg/sg191_5_cif.got.tgz:9807.got - 2010.04.01 12:09:02.
