data_PCOD8328096
_publ_section_title
;
Structure prediction by ZEFSAII (Michael W. Deem and Ramdas Pophale) SiO2 
 PCOD8328096
Probable space group: P -6 2 C
;
_chemical_formula_sum "Si O2"
_cell_formula_units_Z 40
_cell_length_a 11.389728
_cell_length_b 11.389728
_cell_length_c 17.455238
_cell_angle_alpha 90.000000
_cell_angle_beta 90.000000
_cell_angle_gamma 120.000000
_cell_volume 1961.024917
_symmetry_space_group_name_H-M "P -6 2 C"
_symmetry_group_IT_number 190
_symmetry_cell_setting 'hexagonal'
loop_
_space_group_symop_operation_xyz
x,y,z
-x+y,-x,1/2-z
-y,x-y,z
x,y,1/2-z
-x+y,-x,z
-y,x-y,1/2-z
x-y,-y,-z
-x,-x+y,-z
y,x,-z
y,x,1/2+z
x-y,-y,1/2+z
-x,-x+y,1/2+z
loop_
_atom_site_type_symbol
_atom_site_label
_atom_site_fract_x
_atom_site_fract_y
_atom_site_fract_z
Si Si1 0.751467 0.755088 0.660023
Si Si2 0.333334 0.666668 0.659009
Si Si3 0.495146 0.971009 0.839509
Si Si4 0.744933 0.997334 0.090319
O O1 0.772467 0.783489 0.750000
O O2 0.636096 0.598853 0.643959
O O3 0.890087 0.784475 0.621768
O O4 0.704627 0.855776 0.625057
O O5 0.333334 0.666668 0.750000
O O6 0.404330 0.585556 0.628179
O O7 0.528609 0.976709 0.750000
O O8 0.637787 0.046646 0.884525
O O9 0.756482 0.000000 0.000000
#
# Coordination Sequence:
#
# PCOD8328096 Si02
#       4
#    12   4  12  12
#     4  11  23  42  67  90 119 164 216 255 292 359
#     4   9  15  33  66  93 105 138 211 263 283 333
#     4  10  20  39  66  90 114 155 209 256 293 357
#     4  12  25  40  61  93 131 161 196 254 320 369
#
# _framework density 20.397496
#
# number of rings (size 3 to 8) (size 9 to 14) (size 15 to 20)
#    0.000    1.200    3.000    4.200    0.000    2.400 
#    1.800    0.000    0.000    0.000    0.000    0.000 
#    0.000    0.000    0.000    0.000    0.000    0.000 
#
# Total GULP energy -496104.577022 kJ/mol
# GULP energy per Si atom -12402.614426 kJ/mol
# Density = 2.035107 g / cm^3
# Si number density = 20.397496 Si / 1000 Ang^3
#
#
#
# Elastic Constant Matrix: (Units=GPa)
#
#
# Indices 1 2 3 4 5 6 
#
# 1 90.6371 20.1211 47.8098 0.0000 0.0000 0.0001
# 2 20.1211 90.6380 47.8097 0.0000 0.0000 0.0000
# 3 47.8098 47.8097 139.9141 0.0000 0.0000 0.0000
# 4 0.0000 0.0000 0.0000 22.8730 0.0001 0.0000
# 5 0.0000 0.0000 0.0000 0.0001 22.8729 0.0000
# 6 0.0001 0.0000 0.0000 0.0000 0.0000 35.2578
#
#
#
# Elastic Compliance Matrix: (Units=1/GPa)
#
#
# Indices 1 2 3 4 5 6 
#
# 1 0.013494 -0.000687 -0.004376 0.000000 0.000000 0.000000
# 2 -0.000687 0.013494 -0.004376 0.000000 0.000000 0.000000
# 3 -0.004376 -0.004376 0.010138 0.000000 0.000000 0.000000
# 4 0.000000 0.000000 0.000000 0.043720 0.000000 0.000000
# 5 0.000000 0.000000 0.000000 0.000000 0.043720 0.000000
# 6 0.000000 0.000000 0.000000 0.000000 0.000000 0.028363
#
#
# Mechanical properties :
#
#
# Convention : Reuss Voigt Hill
#
# Bulk Modulus (GPa) = 54.80448 61.40782 58.10615
# Shear Modulus (GPa) = 28.10746 29.89733 29.00239
#
# Velocity S-wave (km/s) = 3.71615 3.83265 3.77485
# Velocity P-wave (km/s) = 6.73347 7.05383 6.89551
#
# Compressibility (1/GPa) = 0.01824668
#
# Stress axis : x y z
#
# Youngs Moduli (GPa) = 74.10742 74.10838 98.63934
#
# Poissons Ratio (x) = 0.05093 0.43166
# Poissons Ratio (y) = 0.05093 0.43165
# Poissons Ratio (z) = 0.32430 0.32430
#
# Static dielectric constant tensor:
#      x y z
#    x 3.696050 0.000000 0.000000 
#    y 0.000000 3.696040 0.000000 
#    z 0.000000 0.000000 3.481120 
# 
# 
# High freq. dielectric constant tensor:
#      x y z
#    x 1.798760 0.000000 0.000000 
#    y 0.000000 1.798750 0.000000 
#    z 0.000000 0.000000 1.782100 
# 
# From -- ./inp_files/3399.got.cif
#   From: 2010.06.25/outbox.cif.g09.slc.cpg/sg190_2_cif.got.tgz:3399.got - 2010.06.28 13:08:06.
