data_PCOD8328067
_publ_section_title
;
Structure prediction by ZEFSAII (Michael W. Deem and Ramdas Pophale) SiO2 
 PCOD8328067
Probable space group: P -6 2 C
;
_chemical_formula_sum "Si O2"
_cell_formula_units_Z 48
_cell_length_a 18.725136
_cell_length_b 18.725136
_cell_length_c 8.603927
_cell_angle_alpha 90.000000
_cell_angle_beta 90.000000
_cell_angle_gamma 120.000000
_cell_volume 2612.626394
_symmetry_space_group_name_H-M "P -6 2 C"
_symmetry_group_IT_number 190
_symmetry_cell_setting 'hexagonal'
loop_
_space_group_symop_operation_xyz
x,y,z
-x+y,-x,1/2-z
-y,x-y,z
x,y,1/2-z
-x+y,-x,z
-y,x-y,1/2-z
x-y,-y,-z
-x,-x+y,-z
y,x,-z
y,x,1/2+z
x-y,-y,1/2+z
-x,-x+y,1/2+z
loop_
_atom_site_type_symbol
_atom_site_label
_atom_site_fract_x
_atom_site_fract_y
_atom_site_fract_z
Si Si1 0.249798 0.912958 0.434209
Si Si2 0.339145 0.518698 0.066772
Si Si3 0.912833 0.667045 0.568227
Si Si4 0.329120 0.817016 0.567574
O O1 0.261792 0.915659 0.250000
O O2 0.156610 0.845916 0.483318
O O3 0.313499 0.889864 0.512345
O O4 0.266740 0.000000 0.500000
O O5 0.355380 0.531267 0.250000
O O6 0.310856 0.425567 0.012895
O O7 0.421903 0.576887 0.972917
O O8 0.267424 0.538616 0.023602
O O9 0.921910 0.671752 0.750000
O O10 0.000000 0.733829 0.500000
O O11 0.313096 0.801936 0.750000
#
# Coordination Sequence:
#
# PCOD8328067 Si02
#       4
#    12  12  12  12
#     4  10  21  38  57  80 106 137 173 214 264 318
#     4  10  20  35  51  72 106 146 183 223 264 307
#     4   9  20  36  56  79 104 133 169 209 258 312
#     4  11  21  33  51  77 106 142 185 226 265 311
#
# _framework density 18.372316999999999
#
# number of rings (size 3 to 8) (size 9 to 14) (size 15 to 20)
#    0.000    2.000    0.000    5.750    0.000    7.000 
#    0.000    2.500    0.000    0.500    0.000    0.000 
#    0.000    0.000    0.000    0.000    0.000    0.000 
#
# Total GULP energy -595330.397426 kJ/mol
# GULP energy per Si atom -12402.716613 kJ/mol
# Density = 1.833050 g / cm^3
# Si number density = 18.372317 Si / 1000 Ang^3
#
#
#
# Elastic Constant Matrix: (Units=GPa)
#
#
# Indices 1 2 3 4 5 6 
#
# 1 111.4499 75.1877 25.4358 0.0000 0.0000 0.0000
# 2 75.1877 111.4499 25.4358 0.0000 0.0000 0.0000
# 3 25.4358 25.4358 54.3123 0.0000 0.0000 0.0000
# 4 0.0000 0.0000 0.0000 31.1564 0.0000 0.0000
# 5 0.0000 0.0000 0.0000 0.0000 31.1564 0.0000
# 6 0.0000 0.0000 0.0000 0.0000 0.0000 18.1311
#
#
#
# Elastic Compliance Matrix: (Units=1/GPa)
#
#
# Indices 1 2 3 4 5 6 
#
# 1 0.016859 -0.010717 -0.002876 0.000000 0.000000 0.000000
# 2 -0.010717 0.016859 -0.002876 0.000000 0.000000 0.000000
# 3 -0.002876 -0.002876 0.021106 0.000000 0.000000 0.000000
# 4 0.000000 0.000000 0.000000 0.032096 0.000000 0.000000
# 5 0.000000 0.000000 0.000000 0.000000 0.032096 0.000000
# 6 0.000000 0.000000 0.000000 0.000000 0.000000 0.055154
#
#
# Mechanical properties :
#
#
# Convention : Reuss Voigt Hill
#
# Bulk Modulus (GPa) = 45.69452 58.81451 52.25451
# Shear Modulus (GPa) = 23.32016 26.16565 24.74291
#
# Velocity S-wave (km/s) = 3.56660 3.77794 3.67379
# Velocity P-wave (km/s) = 6.47196 7.14930 6.81904
#
# Compressibility (1/GPa) = 0.02188446
#
# Stress axis : x y z
#
# Youngs Moduli (GPa) = 59.31383 59.31383 47.37934
#
# Poissons Ratio (x) = 0.63569 0.13628
# Poissons Ratio (y) = 0.63569 0.13628
# Poissons Ratio (z) = 0.17061 0.17061
#
# Static dielectric constant tensor:
#      x y z
#    x 5.028550 0.000000 0.000000 
#    y 0.000000 5.028550 0.000000 
#    z 0.000000 0.000000 3.362970 
# 
# 
# High freq. dielectric constant tensor:
#      x y z
#    x 1.701470 0.000000 0.000000 
#    y 0.000000 1.701470 0.000000 
#    z 0.000000 0.000000 1.722470 
# 
# From -- ./inp_files/597.got.cif
#   From: 2010.06.25/outbox.cif.g09.slc.cpg/sg190_1_cif.got.tgz:597.got - 2010.06.28 13:08:06.
