data_PCOD8328158
_publ_section_title
;
Structure prediction by ZEFSAII (Michael W. Deem and Ramdas Pophale) SiO2 
 PCOD8328158
Probable space group: P -6 2 C
;
_chemical_formula_sum "Si O2"
_cell_formula_units_Z 60
_cell_length_a 14.987444
_cell_length_b 14.987444
_cell_length_c 13.993638
_cell_angle_alpha 90.000000
_cell_angle_beta 90.000000
_cell_angle_gamma 120.000000
_cell_volume 2722.177334
_symmetry_space_group_name_H-M "P -6 2 C"
_symmetry_group_IT_number 190
_symmetry_cell_setting 'hexagonal'
loop_
_space_group_symop_operation_xyz
x,y,z
-x+y,-x,1/2-z
-y,x-y,z
x,y,1/2-z
-x+y,-x,z
-y,x-y,1/2-z
x-y,-y,-z
-x,-x+y,-z
y,x,-z
y,x,1/2+z
x-y,-y,1/2+z
-x,-x+y,1/2+z
loop_
_atom_site_type_symbol
_atom_site_label
_atom_site_fract_x
_atom_site_fract_y
_atom_site_fract_z
Si Si1 0.462162 0.169820 0.141348
Si Si2 0.490950 0.866447 0.944449
Si Si3 0.204148 0.159124 0.854505
Si Si4 0.948181 0.172604 0.096652
Si Si5 0.343285 0.412724 0.360975
O O1 0.499259 0.185940 0.250000
O O2 0.511390 0.110517 0.086246
O O3 0.519782 0.280158 0.089758
O O4 0.338030 0.105841 0.141255
O O5 0.592211 0.949720 0.888330
O O6 0.497310 0.869832 0.060867
O O7 0.187141 0.195079 0.750000
O O8 0.134399 0.186355 0.924198
O O9 0.325511 0.224452 0.879473
O O10 0.173672 0.040330 0.843635
O O11 0.000000 0.231446 0.000000
O O12 0.362156 0.452858 0.250000
#
# Coordination Sequence:
#
# PCOD8328158 Si02
#       5
#    12  12  12  12  12
#     4  12  24  43  68 102 135 173 228 291 344 405
#     4  11  24  42  71  99 131 172 230 284 343 404
#     4  11  22  41  64  92 131 180 218 268 333 406
#     4  12  25  38  63  99 137 174 225 279 336 410
#     4  10  22  44  69  91 132 182 222 271 344 412
#
# _framework density 22.041180000000001
#
# number of rings (size 3 to 8) (size 9 to 14) (size 15 to 20)
#    0.000    0.800    2.000    6.200    5.600    0.000 
#    0.000    1.000    0.000    0.000    0.000    0.000 
#    0.000    0.000    0.000    0.000    0.000    0.000 
#
# Total GULP energy -743562.296775 kJ/mol
# GULP energy per Si atom -12392.704946 kJ/mol
# Density = 2.199101 g / cm^3
# Si number density = 22.041180 Si / 1000 Ang^3
#
#
#
# Elastic Constant Matrix: (Units=GPa)
#
#
# Indices 1 2 3 4 5 6 
#
# 1 107.2155 44.9670 39.7533 0.0000 0.0000 0.0000
# 2 44.9670 107.2155 39.7533 0.0000 0.0000 0.0000
# 3 39.7533 39.7533 161.2912 0.0000 0.0000 0.0000
# 4 0.0000 0.0000 0.0000 30.0051 0.0000 0.0000
# 5 0.0000 0.0000 0.0000 0.0000 30.0051 0.0000
# 6 0.0000 0.0000 0.0000 0.0000 0.0000 31.1242
#
#
#
# Elastic Compliance Matrix: (Units=1/GPa)
#
#
# Indices 1 2 3 4 5 6 
#
# 1 0.011803 -0.004261 -0.001859 0.000000 0.000000 0.000000
# 2 -0.004261 0.011803 -0.001859 0.000000 0.000000 0.000000
# 3 -0.001859 -0.001859 0.007116 0.000000 0.000000 0.000000
# 4 0.000000 0.000000 0.000000 0.033328 0.000000 0.000000
# 5 0.000000 0.000000 0.000000 0.000000 0.033328 0.000000
# 6 0.000000 0.000000 0.000000 0.000000 0.000000 0.032129
#
#
# Mechanical properties :
#
#
# Convention : Reuss Voigt Hill
#
# Bulk Modulus (GPa) = 67.72741 69.40771 68.56756
# Shear Modulus (GPa) = 33.24742 34.97679 34.11211
#
# Velocity S-wave (km/s) = 3.88806 3.98789 3.93829
# Velocity P-wave (km/s) = 7.13795 7.26380 7.20115
#
# Compressibility (1/GPa) = 0.01476507
#
# Stress axis : x y z
#
# Youngs Moduli (GPa) = 84.72101 84.72101 140.52229
#
# Poissons Ratio (x) = 0.36101 0.26122
# Poissons Ratio (y) = 0.36101 0.26122
# Poissons Ratio (z) = 0.15749 0.15749
#
# Static dielectric constant tensor:
#      x y z
#    x 3.806170 0.000000 0.000000 
#    y 0.000000 3.806170 0.000000 
#    z 0.000000 0.000000 4.077750 
# 
# 
# High freq. dielectric constant tensor:
#      x y z
#    x 1.857040 0.000000 0.000000 
#    y 0.000000 1.857040 0.000000 
#    z 0.000000 0.000000 1.884150 
# 
# From -- ./inp_files/2792.got.cif
#   From: 2010.06.25/outbox.cif.g09.slc.cpg/sg190_2_cif.got.tgz:2792.got - 2010.06.28 13:08:06.
