data_PCOD8328466
_publ_section_title
;
Structure prediction by ZEFSAII (Michael W. Deem and Ramdas Pophale) SiO2 
 PCOD8328466
Probable space group: P 6/M M M
;
_chemical_formula_sum "Si O2"
_cell_formula_units_Z 132
_cell_length_a 18.014684
_cell_length_b 18.014684
_cell_length_c 29.538220
_cell_angle_alpha 90.000000
_cell_angle_beta 90.000000
_cell_angle_gamma 120.000000
_cell_volume 8301.723211
_symmetry_space_group_name_H-M "P 6/M M M"
_symmetry_group_IT_number 191
_symmetry_cell_setting 'hexagonal'
loop_
_space_group_symop_operation_xyz
x,y,z
x-y,x,z
-y,x-y,z
-x,-y,z
-x+y,-x,z
y,-x+y,z
x-y,-y,-z
-x,-x+y,-z
y,x,-z
-y,-x,-z
-x+y,y,-z
x,x-y,-z
-x,-y,-z
-x+y,-x,-z
y,-x+y,-z
x,y,-z
x-y,x,-z
-y,x-y,-z
-x+y,y,z
x,x-y,z
-y,-x,z
y,x,z
x-y,-y,z
-x,-x+y,z
loop_
_atom_site_type_symbol
_atom_site_label
_atom_site_fract_x
_atom_site_fract_y
_atom_site_fract_z
Si Si1 0.495260 0.331216 0.104868
Si Si2 0.632229 0.533913 0.202035
Si Si3 0.641243 0.903378 0.551522
Si Si4 0.099875 0.364913 0.287261
Si Si5 0.588359 0.588359 0.948762
Si Si6 0.531752 0.899340 0.630100
O O1 0.494770 0.247385 0.086850
O O2 0.587935 0.412066 0.095532
O O3 0.474286 0.320380 0.158215
O O4 0.423058 0.339313 0.076904
O O5 0.559931 0.440069 0.219821
O O6 0.586765 0.586765 0.186672
O O7 0.700161 0.582297 0.241223
O O8 0.609942 0.898738 0.500000
O O9 0.679142 0.839571 0.558878
O O10 0.558527 0.873610 0.583152
O O11 0.716221 0.000000 0.563807
O O12 0.161437 0.322873 0.287942
O O13 0.130436 0.433339 0.327873
O O14 0.000000 0.290593 0.291781
O O15 0.500000 0.500000 0.947104
O O16 0.618299 0.618299 0.000000
O O17 0.428126 0.856252 0.631840
O O18 0.571978 0.000000 0.633118
#
# Coordination Sequence:
#
# PCOD8328466 Si02
#       6
#    24  24  24  24  12  24
#     4  10  18  29  45  66  90 117 151 189 226 265
#     4   9  16  28  46  66  88 117 150 182 220 267
#     4   9  17  29  46  67  90 118 154 194 232 270
#     4  10  19  30  46  68  93 121 153 188 224 264
#     4   9  18  32  46  60  84 118 151 183 222 266
#     4   9  17  29  45  65  86 109 141 181 224 270
#
# _framework density 15.900313000000001
#
# number of rings (size 3 to 8) (size 9 to 14) (size 15 to 20)
#    0.000    2.636    0.909    1.818    0.000    2.909 
#    0.000    1.818    0.000    9.091    0.000    1.273 
#    0.000    4.364    0.000    0.455    0.000    1.182 
#
# Total GULP energy -1636235.761349 kJ/mol
# GULP energy per Si atom -12395.725465 kJ/mol
# Density = 1.586412 g / cm^3
# Si number density = 15.900313 Si / 1000 Ang^3
#
#
#
# Elastic Constant Matrix: (Units=GPa)
#
#
# Indices 1 2 3 4 5 6 
#
# 1 90.7418 47.4610 41.0548 0.0000 0.0000 0.0000
# 2 47.4610 90.7418 41.0548 0.0000 0.0000 0.0000
# 3 41.0548 41.0548 82.3480 0.0000 0.0000 0.0000
# 4 0.0000 0.0000 0.0000 12.7976 0.0000 0.0000
# 5 0.0000 0.0000 0.0000 0.0000 12.7976 0.0000
# 6 0.0000 0.0000 0.0000 0.0000 0.0000 21.6404
#
#
#
# Elastic Compliance Matrix: (Units=1/GPa)
#
#
# Indices 1 2 3 4 5 6 
#
# 1 0.016693 -0.006412 -0.005126 0.000000 0.000000 0.000000
# 2 -0.006412 0.016693 -0.005126 0.000000 0.000000 0.000000
# 3 -0.005126 -0.005126 0.017254 0.000000 0.000000 0.000000
# 4 0.000000 0.000000 0.000000 0.078140 0.000000 0.000000
# 5 0.000000 0.000000 0.000000 0.000000 0.078140 0.000000
# 6 0.000000 0.000000 0.000000 0.000000 0.000000 0.046210
#
#
# Mechanical properties :
#
#
# Convention : Reuss Voigt Hill
#
# Bulk Modulus (GPa) = 57.75707 58.10807 57.93257
# Shear Modulus (GPa) = 17.10995 18.39784 17.75389
#
# Velocity S-wave (km/s) = 3.28392 3.40527 3.34514
# Velocity P-wave (km/s) = 7.12616 7.21704 7.17175
#
# Compressibility (1/GPa) = 0.01731390
#
# Stress axis : x y z
#
# Youngs Moduli (GPa) = 59.90548 59.90548 57.95640
#
# Poissons Ratio (x) = 0.38411 0.29706
# Poissons Ratio (y) = 0.38411 0.29706
# Poissons Ratio (z) = 0.30705 0.30705
#
# Static dielectric constant tensor:
#      x y z
#    x 2.901260 0.000000 0.000000 
#    y 0.000000 2.901260 0.000000 
#    z 0.000000 0.000000 3.120780 
# 
# 
# High freq. dielectric constant tensor:
#      x y z
#    x 1.586870 0.000000 0.000000 
#    y 0.000000 1.586870 0.000000 
#    z 0.000000 0.000000 1.622990 
# 
# From -- ./inp_files/10502.got.cif
#   From: 2010.03.12/outbox.cif.g09.slc.cpg/sg191_6_cif.got.tgz:10502.got - 2010.04.01 12:09:02.
