data_PCOD8328566
_publ_section_title
;
Structure prediction by ZEFSAII (Michael W. Deem and Ramdas Pophale) SiO2 
 PCOD8328566
Probable space group: P 6/M M M
;
_chemical_formula_sum "Si O2"
_cell_formula_units_Z 100
_cell_length_a 26.544942
_cell_length_b 26.544942
_cell_length_c 9.353354
_cell_angle_alpha 90.000000
_cell_angle_beta 90.000000
_cell_angle_gamma 120.000000
_cell_volume 5707.705605
_symmetry_space_group_name_H-M "P 6/M M M"
_symmetry_group_IT_number 191
_symmetry_cell_setting 'hexagonal'
loop_
_space_group_symop_operation_xyz
x,y,z
x-y,x,z
-y,x-y,z
-x,-y,z
-x+y,-x,z
y,-x+y,z
x-y,-y,-z
-x,-x+y,-z
y,x,-z
-y,-x,-z
-x+y,y,-z
x,x-y,-z
-x,-y,-z
-x+y,-x,-z
y,-x+y,-z
x,y,-z
x-y,x,-z
-y,x-y,-z
-x+y,y,z
x,x-y,z
-y,-x,z
y,x,z
x-y,-y,z
-x,-x+y,z
loop_
_atom_site_type_symbol
_atom_site_label
_atom_site_fract_x
_atom_site_fract_y
_atom_site_fract_z
Si Si1 0.533262 0.066524 0.829237
Si Si2 0.335522 0.860748 0.830809
Si Si3 0.764443 0.118380 0.164861
Si Si4 0.064313 0.823607 0.666265
Si Si5 0.666667 0.333334 0.328271
Si Si6 0.726773 0.453545 0.830091
O O1 0.599319 0.100282 0.768740
O O2 0.500000 0.000000 0.773143
O O3 0.533752 0.067504 0.000000
O O4 0.295321 0.886852 0.777553
O O5 0.305878 0.793967 0.783320
O O6 0.337786 0.863053 0.000000
O O7 0.815518 0.184483 0.187198
O O8 0.775867 0.073712 0.253258
O O9 0.759263 0.100193 0.000000
O O10 0.071629 0.815699 0.500000
O O11 0.111124 0.888877 0.717317
O O12 0.000000 0.812377 0.701610
O O13 0.666667 0.333334 0.500000
O O14 0.602439 0.301220 0.267128
O O15 0.719513 0.439026 0.000000
#
# Coordination Sequence:
#
# PCOD8328566 Si02
#       6
#    12  24  24  24   4  12
#     4   9  17  26  36  59  95 125 147 179 231 287
#     4   9  16  28  48  70  91 119 158 199 235 281
#     4   9  16  28  47  72  98 118 147 197 246 284
#     4   9  18  32  49  70  97 129 163 195 232 283
#     4  12  25  35  43  69 106 128 157 210 265 308
#     4  10  18  33  55  72  87 122 170 207 242 291
#
# _framework density 17.520174999999998
#
# number of rings (size 3 to 8) (size 9 to 14) (size 15 to 20)
#    0.000    2.760    1.200    1.080    0.000    3.360 
#    0.000    3.600    0.000    0.240    0.000    1.680 
#    0.000    4.800    0.000    6.000    0.000    6.240 
#
# Total GULP energy -1239589.057841 kJ/mol
# GULP energy per Si atom -12395.890578 kJ/mol
# Density = 1.748030 g / cm^3
# Si number density = 17.520175 Si / 1000 Ang^3
#
#
#
# Elastic Constant Matrix: (Units=GPa)
#
#
# Indices 1 2 3 4 5 6 
#
# 1 139.5603 85.8703 31.2810 0.0000 0.0000 0.0000
# 2 85.8703 139.5605 31.2810 0.0000 0.0000 0.0000
# 3 31.2810 31.2810 31.6880 -0.0001 0.0000 0.0000
# 4 0.0000 0.0000 -0.0001 15.4197 0.0000 0.0000
# 5 0.0000 0.0000 0.0000 0.0000 15.4197 0.0000
# 6 0.0000 0.0000 0.0000 0.0000 0.0000 26.8450
#
#
#
# Elastic Compliance Matrix: (Units=1/GPa)
#
#
# Indices 1 2 3 4 5 6 
#
# 1 0.012368 -0.006258 -0.006031 0.000000 0.000000 0.000000
# 2 -0.006258 0.012368 -0.006031 0.000000 0.000000 0.000000
# 3 -0.006031 -0.006031 0.043465 0.000000 0.000000 0.000000
# 4 0.000000 0.000000 0.000000 0.064852 0.000000 0.000000
# 5 0.000000 0.000000 0.000000 0.000000 0.064852 0.000000
# 6 0.000000 0.000000 0.000000 0.000000 0.000000 0.037251
#
#
# Mechanical properties :
#
#
# Convention : Reuss Voigt Hill
#
# Bulk Modulus (GPa) = 31.68599 67.51928 49.60263
# Shear Modulus (GPa) = 17.71065 22.36200 20.03633
#
# Velocity S-wave (km/s) = 3.18287 3.57649 3.38541
# Velocity P-wave (km/s) = 5.62425 7.46168 6.60715
#
# Compressibility (1/GPa) = 0.03155969
#
# Stress axis : x y z
#
# Youngs Moduli (GPa) = 80.85649 80.85660 23.00683
#
# Poissons Ratio (x) = 0.50599 0.13876
# Poissons Ratio (y) = 0.50598 0.13876
# Poissons Ratio (z) = 0.48767 0.48767
#
# Static dielectric constant tensor:
#      x y z
#    x 3.488240 0.000000 0.000000 
#    y 0.000000 3.488240 0.000000 
#    z 0.000000 0.000000 2.851110 
# 
# 
# High freq. dielectric constant tensor:
#      x y z
#    x 1.680100 0.000000 0.000000 
#    y 0.000000 1.680100 0.000000 
#    z 0.000000 0.000000 1.627830 
# 
# From -- ./inp_files/1476.got.cif
#   From: 2010.03.12/outbox.cif.g09.slc.cpg/sg191_1_cif.got.tgz:1476.got - 2010.04.01 12:09:02.
