data_PCOD8328480
_publ_section_title
;
Structure prediction by ZEFSAII (Michael W. Deem and Ramdas Pophale) SiO2 
 PCOD8328480
Probable space group: P 6/M M M
;
_chemical_formula_sum "Si O2"
_cell_formula_units_Z 156
_cell_length_a 21.930671
_cell_length_b 21.930671
_cell_length_c 22.884410
_cell_angle_alpha 90.000000
_cell_angle_beta 90.000000
_cell_angle_gamma 120.000000
_cell_volume 9531.783978
_symmetry_space_group_name_H-M "P 6/M M M"
_symmetry_group_IT_number 191
_symmetry_cell_setting 'hexagonal'
loop_
_space_group_symop_operation_xyz
x,y,z
x-y,x,z
-y,x-y,z
-x,-y,z
-x+y,-x,z
y,-x+y,z
x-y,-y,-z
-x,-x+y,-z
y,x,-z
-y,-x,-z
-x+y,y,-z
x,x-y,-z
-x,-y,-z
-x+y,-x,-z
y,-x+y,-z
x,y,-z
x-y,x,-z
-y,x-y,-z
-x+y,y,z
x,x-y,z
-y,-x,z
y,x,z
x-y,-y,z
-x,-x+y,z
loop_
_atom_site_type_symbol
_atom_site_label
_atom_site_fract_x
_atom_site_fract_y
_atom_site_fract_z
Si Si1 0.782618 0.080202 0.000000
Si Si2 0.333952 0.526093 0.148573
Si Si3 0.705593 0.921181 0.433264
Si Si4 0.920127 0.704752 0.776685
Si Si5 0.697175 0.617114 0.669424
Si Si6 0.621317 0.701539 0.112639
Si Si7 0.807558 0.333947 0.285040
O O1 0.749349 0.095476 0.943863
O O2 0.866789 0.133212 0.000000
O O3 0.767617 0.000000 0.000000
O O4 0.266960 0.533920 0.133528
O O5 0.402772 0.597229 0.128628
O O6 0.331436 0.462428 0.111925
O O7 0.336769 0.511429 0.216866
O O8 0.680098 0.914842 0.500000
O O9 0.733035 0.866518 0.420301
O O10 0.638621 0.904096 0.393534
O O11 0.769783 0.000000 0.419552
O O12 0.868701 0.737401 0.778808
O O13 0.904196 0.659983 0.717992
O O14 0.902668 0.652634 0.830739
O O15 0.000000 0.769147 0.779156
O O16 0.633922 0.633922 0.674349
O O17 0.664010 0.534280 0.677635
O O18 0.637754 0.637754 0.113517
O O19 0.800390 0.400195 0.304038
O O20 0.735325 0.264676 0.300934
#
# Coordination Sequence:
#
# PCOD8328480 Si02
#       7
#    12  24  24  24  24  24  24
#     4  10  20  34  53  74  97 125 159 195 234 282
#     4  10  19  31  48  69  96 127 159 193 232 281
#     4   9  17  29  46  68  94 124 157 192 231 277
#     4  10  18  29  46  68  93 118 148 186 229 273
#     4  10  19  30  47  71  95 120 151 191 236 277
#     4  10  20  33  50  72  94 121 155 195 238 278
#     4  10  19  30  46  68  96 127 157 191 232 281
#
# _framework density 16.366296999999999
#
# number of rings (size 3 to 8) (size 9 to 14) (size 15 to 20)
#    0.000    2.154    1.538    3.077    0.000    1.846 
#    0.000    1.923    0.000    2.231    0.000    4.308 
#    0.000    8.615    0.000    0.154    0.000    0.923 
#
# Total GULP energy -1934620.884509 kJ/mol
# GULP energy per Si atom -12401.415926 kJ/mol
# Density = 1.632905 g / cm^3
# Si number density = 16.366297 Si / 1000 Ang^3
#
#
#
# Elastic Constant Matrix: (Units=GPa)
#
#
# Indices 1 2 3 4 5 6 
#
# 1 118.2845 81.8617 35.9333 0.0000 0.0000 0.0000
# 2 81.8617 118.2845 35.9333 0.0000 0.0000 0.0000
# 3 35.9333 35.9333 69.4022 0.0000 0.0000 0.0000
# 4 0.0000 0.0000 0.0000 29.1421 0.0000 0.0000
# 5 0.0000 0.0000 0.0000 0.0000 29.1421 0.0000
# 6 0.0000 0.0000 0.0000 0.0000 0.0000 18.2114
#
#
#
# Elastic Compliance Matrix: (Units=1/GPa)
#
#
# Indices 1 2 3 4 5 6 
#
# 1 0.016796 -0.010659 -0.003178 0.000000 0.000000 0.000000
# 2 -0.010659 0.016796 -0.003178 0.000000 0.000000 0.000000
# 3 -0.003178 -0.003178 0.017699 0.000000 0.000000 0.000000
# 4 0.000000 0.000000 0.000000 0.034315 0.000000 0.000000
# 5 0.000000 0.000000 0.000000 0.000000 0.034315 0.000000
# 6 0.000000 0.000000 0.000000 0.000000 0.000000 0.054911
#
#
# Mechanical properties :
#
#
# Convention : Reuss Voigt Hill
#
# Bulk Modulus (GPa) = 57.92608 68.15862 63.04235
# Shear Modulus (GPa) = 23.29755 25.44863 24.37309
#
# Velocity S-wave (km/s) = 3.77703 3.94755 3.86323
# Velocity P-wave (km/s) = 7.38185 7.90656 7.64870
#
# Compressibility (1/GPa) = 0.01726338
#
# Stress axis : x y z
#
# Youngs Moduli (GPa) = 59.53678 59.53678 56.49961
#
# Poissons Ratio (x) = 0.63460 0.17954
# Poissons Ratio (y) = 0.63460 0.17954
# Poissons Ratio (z) = 0.18919 0.18919
#
# Static dielectric constant tensor:
#      x y z
#    x 3.086030 0.000000 0.000000 
#    y 0.000000 3.086030 0.000000 
#    z 0.000000 0.000000 3.192710 
# 
# 
# High freq. dielectric constant tensor:
#      x y z
#    x 1.624780 0.000000 0.000000 
#    y 0.000000 1.624780 0.000000 
#    z 0.000000 0.000000 1.622530 
# 
# From -- ./inp_files/7713.got.cif
#   From: 2010.03.12/outbox.cif.g09.slc.cpg/sg191_4_cif.got.tgz:7713.got - 2010.04.01 12:09:02.
