data_PCOD8328715
_publ_section_title
;
Structure prediction by ZEFSAII (Michael W. Deem and Ramdas Pophale) SiO2 
 PCOD8328715
Probable space group: P 6/M M M
;
_chemical_formula_sum "Si O2"
_cell_formula_units_Z 120
_cell_length_a 18.190904
_cell_length_b 18.190904
_cell_length_c 25.111125
_cell_angle_alpha 90.000000
_cell_angle_beta 90.000000
_cell_angle_gamma 120.000000
_cell_volume 7196.235468
_symmetry_space_group_name_H-M "P 6/M M M"
_symmetry_group_IT_number 191
_symmetry_cell_setting 'hexagonal'
loop_
_space_group_symop_operation_xyz
x,y,z
x-y,x,z
-y,x-y,z
-x,-y,z
-x+y,-x,z
y,-x+y,z
x-y,-y,-z
-x,-x+y,-z
y,x,-z
-y,-x,-z
-x+y,y,-z
x,x-y,-z
-x,-y,-z
-x+y,-x,-z
y,-x+y,-z
x,y,-z
x-y,x,-z
-y,x-y,-z
-x+y,y,z
x,x-y,z
-y,-x,z
y,x,z
x-y,-y,z
-x,-x+y,z
loop_
_atom_site_type_symbol
_atom_site_label
_atom_site_fract_x
_atom_site_fract_y
_atom_site_fract_z
Si Si1 0.668772 0.502226 0.237260
Si Si2 0.666543 0.165244 0.938892
Si Si3 0.099033 0.466879 0.350572
Si Si4 0.905118 0.648249 0.560193
Si Si5 0.361617 0.265625 0.851479
O O1 0.735008 0.470016 0.224712
O O2 0.573627 0.426374 0.227099
O O3 0.682533 0.534845 0.297862
O O4 0.687549 0.580262 0.199367
O O5 0.576427 0.152854 0.920087
O O6 0.736143 0.263858 0.930803
O O7 0.690676 0.106666 0.904279
O O8 0.662549 0.137431 0.000000
O O9 0.125357 0.562679 0.365587
O O10 0.125972 0.431283 0.400660
O O11 0.000000 0.411246 0.338323
O O12 0.900338 0.614660 0.500000
O O13 0.843939 0.687877 0.567188
O O14 0.000000 0.722443 0.574123
O O15 0.328968 0.164484 0.850588
O O16 0.281273 0.281273 0.850813
#
# Coordination Sequence:
#
# PCOD8328715 Si02
#       5
#    24  24  24  24  24
#     4  10  19  30  45  66  94 126 156 183 211 248
#     4   9  17  29  46  69  98 131 163 191 218 252
#     4   9  17  28  43  64  88 115 149 187 222 255
#     4   9  17  29  45  64  86 113 146 184 225 269
#     4  10  21  35  50  68  90 117 149 187 231 275
#
# _framework density 16.675386
#
# number of rings (size 3 to 8) (size 9 to 14) (size 15 to 20)
#    0.000    2.600    0.000    2.200    0.000    4.000 
#    0.000    5.000    0.000    0.800    0.000    1.400 
#    0.000    0.000    0.000   11.400    0.000    4.400 
#
# Total GULP energy -1487774.620844 kJ/mol
# GULP energy per Si atom -12398.121840 kJ/mol
# Density = 1.663743 g / cm^3
# Si number density = 16.675386 Si / 1000 Ang^3
#
#
#
# Elastic Constant Matrix: (Units=GPa)
#
#
# Indices 1 2 3 4 5 6 
#
# 1 87.2128 51.2541 44.0283 0.0000 0.0000 0.0000
# 2 51.2541 87.2128 44.0283 0.0000 0.0000 0.0000
# 3 44.0283 44.0283 86.9337 0.0000 0.0000 0.0000
# 4 0.0000 0.0000 0.0000 21.8007 0.0000 0.0000
# 5 0.0000 0.0000 0.0000 0.0000 21.8007 0.0000
# 6 0.0000 0.0000 0.0000 0.0000 0.0000 17.9793
#
#
#
# Elastic Compliance Matrix: (Units=1/GPa)
#
#
# Indices 1 2 3 4 5 6 
#
# 1 0.019231 -0.008578 -0.005395 0.000000 0.000000 0.000000
# 2 -0.008578 0.019231 -0.005395 0.000000 0.000000 0.000000
# 3 -0.005395 -0.005395 0.016968 0.000000 0.000000 0.000000
# 4 0.000000 0.000000 0.000000 0.045870 0.000000 0.000000
# 5 0.000000 0.000000 0.000000 0.000000 0.045870 0.000000
# 6 0.000000 0.000000 0.000000 0.000000 0.000000 0.055619
#
#
# Mechanical properties :
#
#
# Convention : Reuss Voigt Hill
#
# Bulk Modulus (GPa) = 59.90598 59.99786 59.95192
# Shear Modulus (GPa) = 20.23534 20.45273 20.34403
#
# Velocity S-wave (km/s) = 3.48729 3.50597 3.49664
# Velocity P-wave (km/s) = 7.22618 7.24204 7.23412
#
# Compressibility (1/GPa) = 0.01669282
#
# Stress axis : x y z
#
# Youngs Moduli (GPa) = 51.99834 51.99834 58.93440
#
# Poissons Ratio (x) = 0.44606 0.31797
# Poissons Ratio (y) = 0.44606 0.31797
# Poissons Ratio (z) = 0.28055 0.28055
#
# Static dielectric constant tensor:
#      x y z
#    x 3.003020 0.000000 0.000000 
#    y 0.000000 3.003020 0.000000 
#    z 0.000000 0.000000 3.333600 
# 
# 
# High freq. dielectric constant tensor:
#      x y z
#    x 1.622190 0.000000 0.000000 
#    y 0.000000 1.622190 0.000000 
#    z 0.000000 0.000000 1.658070 
# 
# From -- ./inp_files/10242.got.cif
#   From: 2010.03.12/outbox.cif.g09.slc.cpg/sg191_6_cif.got.tgz:10242.got - 2010.04.01 12:09:02.
