data_PCOD8328333
_publ_section_title
;
Structure prediction by ZEFSAII (Michael W. Deem and Ramdas Pophale) SiO2 
 PCOD8328333
Probable space group: P 6/M M M
;
_chemical_formula_sum "Si O2"
_cell_formula_units_Z 132
_cell_length_a 18.361701
_cell_length_b 18.361701
_cell_length_c 28.144488
_cell_angle_alpha 90.000000
_cell_angle_beta 90.000000
_cell_angle_gamma 120.000000
_cell_volume 8217.690988
_symmetry_space_group_name_H-M "P 6/M M M"
_symmetry_group_IT_number 191
_symmetry_cell_setting 'hexagonal'
loop_
_space_group_symop_operation_xyz
x,y,z
x-y,x,z
-y,x-y,z
-x,-y,z
-x+y,-x,z
y,-x+y,z
x-y,-y,-z
-x,-x+y,-z
y,x,-z
-y,-x,-z
-x+y,y,-z
x,x-y,-z
-x,-y,-z
-x+y,-x,-z
y,-x+y,-z
x,y,-z
x-y,x,-z
-y,x-y,-z
-x+y,y,z
x,x-y,z
-y,-x,z
y,x,z
x-y,-y,z
-x,-x+y,z
loop_
_atom_site_type_symbol
_atom_site_label
_atom_site_fract_x
_atom_site_fract_y
_atom_site_fract_z
Si Si1 0.369466 0.900600 0.266917
Si Si2 0.901584 0.369064 0.097306
Si Si3 0.900364 0.262988 0.183466
Si Si4 0.900207 0.369651 0.372606
Si Si5 0.498898 0.668708 0.000000
Si Si6 0.745831 0.094388 0.553843
O O1 0.432270 0.864540 0.254011
O O2 0.294123 0.872387 0.229900
O O3 0.331091 0.870104 0.319758
O O4 0.425013 0.000000 0.265585
O O5 0.863432 0.431716 0.105919
O O6 0.876890 0.302806 0.139474
O O7 0.000000 0.425714 0.093831
O O8 0.868864 0.316754 0.048120
O O9 0.839151 0.160850 0.181338
O O10 0.000000 0.290239 0.183799
O O11 0.864598 0.432299 0.384401
O O12 0.867409 0.297160 0.412033
O O13 0.000000 0.421495 0.374538
O O14 0.426971 0.573030 0.000000
O O15 0.461122 0.730561 0.000000
O O16 0.716427 0.096159 0.500000
O O17 0.846468 0.153533 0.558786
O O18 0.721977 0.000000 0.568551
#
# Coordination Sequence:
#
# PCOD8328333 Si02
#       6
#    24  24  24  24  12  24
#     4   8  14  26  44  64  85 108 133 163 202 249
#     4   9  17  29  45  63  82 107 140 177 216 256
#     4  10  19  30  45  65  88 114 146 184 223 261
#     4   8  14  25  42  64  86 106 131 165 205 250
#     4  10  18  27  39  57  84 115 143 167 195 238
#     4   9  17  28  42  61  85 113 146 185 226 264
#
# _framework density 16.062906999999999
#
# number of rings (size 3 to 8) (size 9 to 14) (size 15 to 20)
#    0.000    3.091    0.000    2.545    0.000    4.364 
#    0.000    1.818    0.000    4.727    0.000    1.273 
#    0.000    0.000    0.000    9.091    0.000   23.636 
#
# Total GULP energy -1635313.920721 kJ/mol
# GULP energy per Si atom -12388.741824 kJ/mol
# Density = 1.602635 g / cm^3
# Si number density = 16.062907 Si / 1000 Ang^3
#
#
#
# Elastic Constant Matrix: (Units=GPa)
#
#
# Indices 1 2 3 4 5 6 
#
# 1 56.6610 43.3510 41.6641 0.0000 0.0000 0.0000
# 2 43.3510 56.6610 41.6641 0.0000 0.0000 0.0000
# 3 41.6641 41.6641 108.1523 0.0000 0.0000 0.0000
# 4 0.0000 0.0000 0.0000 5.4122 0.0000 0.0000
# 5 0.0000 0.0000 0.0000 0.0000 5.4122 0.0000
# 6 0.0000 0.0000 0.0000 0.0000 0.0000 6.6550
#
#
#
# Elastic Compliance Matrix: (Units=1/GPa)
#
#
# Indices 1 2 3 4 5 6 
#
# 1 0.044928 -0.030203 -0.005673 0.000000 0.000000 0.000000
# 2 -0.030203 0.044928 -0.005673 0.000000 0.000000 0.000000
# 3 -0.005673 -0.005673 0.013617 0.000000 0.000000 0.000000
# 4 0.000000 0.000000 0.000000 0.184769 0.000000 0.000000
# 5 0.000000 0.000000 0.000000 0.000000 0.184769 0.000000
# 6 0.000000 0.000000 0.000000 0.000000 0.000000 0.150263
#
#
# Mechanical properties :
#
#
# Convention : Reuss Voigt Hill
#
# Bulk Modulus (GPa) = 49.07604 52.75919 50.91761
# Shear Modulus (GPa) = 7.01101 9.81552 8.41326
#
# Velocity S-wave (km/s) = 2.09146 2.47466 2.29108
# Velocity P-wave (km/s) = 6.03747 6.40952 6.22627
#
# Compressibility (1/GPa) = 0.02037654
#
# Stress axis : x y z
#
# Youngs Moduli (GPa) = 22.25765 22.25765 73.43838
#
# Poissons Ratio (x) = 0.67225 0.41659
# Poissons Ratio (y) = 0.67225 0.41659
# Poissons Ratio (z) = 0.12626 0.12626
#
# Static dielectric constant tensor:
#      x y z
#    x 2.867520 0.000000 0.000000 
#    y 0.000000 2.867520 0.000000 
#    z 0.000000 0.000000 3.475230 
# 
# 
# High freq. dielectric constant tensor:
#      x y z
#    x 1.585630 0.000000 0.000000 
#    y 0.000000 1.585630 0.000000 
#    z 0.000000 0.000000 1.636150 
# 
# From -- ./inp_files/9841.got.cif
#   From: 2010.03.12/outbox.cif.g09.slc.cpg/sg191_5_cif.got.tgz:9841.got - 2010.04.01 12:09:02.
