data_PCOD8328695
_publ_section_title
;
Structure prediction by ZEFSAII (Michael W. Deem and Ramdas Pophale) SiO2 
 PCOD8328695
Probable space group: P 6/M M M
;
_chemical_formula_sum "Si O2"
_cell_formula_units_Z 108
_cell_length_a 18.096153
_cell_length_b 18.096153
_cell_length_c 23.338971
_cell_angle_alpha 90.000000
_cell_angle_beta 90.000000
_cell_angle_gamma 120.000000
_cell_volume 6618.885298
_symmetry_space_group_name_H-M "P 6/M M M"
_symmetry_group_IT_number 191
_symmetry_cell_setting 'hexagonal'
loop_
_space_group_symop_operation_xyz
x,y,z
x-y,x,z
-y,x-y,z
-x,-y,z
-x+y,-x,z
y,-x+y,z
x-y,-y,-z
-x,-x+y,-z
y,x,-z
-y,-x,-z
-x+y,y,-z
x,x-y,-z
-x,-y,-z
-x+y,-x,-z
y,-x+y,-z
x,y,-z
x-y,x,-z
-y,x-y,-z
-x+y,y,z
x,x-y,z
-y,-x,z
y,x,z
x-y,-y,z
-x,-x+y,z
loop_
_atom_site_type_symbol
_atom_site_label
_atom_site_fract_x
_atom_site_fract_y
_atom_site_fract_z
Si Si1 0.503312 0.669058 0.561741
Si Si2 0.634319 0.093905 0.678020
Si Si3 0.467349 0.100278 0.000000
Si Si4 0.669193 0.502410 0.796973
Si Si5 0.732238 0.633539 0.893627
O O1 0.551919 0.682765 0.500000
O O2 0.467157 0.733579 0.566250
O O3 0.425559 0.574442 0.563090
O O4 0.563066 0.684613 0.617190
O O5 0.547932 0.095864 0.670571
O O6 0.686602 0.153957 0.730863
O O7 0.616329 0.000000 0.692857
O O8 0.435851 0.128734 0.944340
O O9 0.570923 0.141846 0.000000
O O10 0.426750 0.000000 0.000000
O O11 0.734867 0.469733 0.812844
O O12 0.572645 0.427356 0.807598
O O13 0.687802 0.583370 0.835467
O O14 0.835217 0.670434 0.892400
O O15 0.710513 0.710513 0.901206
#
# Coordination Sequence:
#
# PCOD8328695 Si02
#       5
#    24  24  12  24  24
#     4   9  16  25  37  52  70  93 123 162 208 255
#     4   9  17  27  38  53  74 102 135 169 206 250
#     4   9  17  30  49  72  96 122 152 183 217 260
#     4  10  19  30  45  65  89 116 146 181 221 265
#     4  10  20  33  50  71  94 122 155 191 230 271
#
# _framework density 16.316946999999999
#
# number of rings (size 3 to 8) (size 9 to 14) (size 15 to 20)
#    0.000    2.556    0.000    2.778    0.000    3.556 
#    0.000    4.444    0.000    3.333    0.000    0.000 
#    0.000    2.667    0.000    0.000    0.000    0.000 
#
# Total GULP energy -1338007.921983 kJ/mol
# GULP energy per Si atom -12388.962241 kJ/mol
# Density = 1.627981 g / cm^3
# Si number density = 16.316947 Si / 1000 Ang^3
#
#
#
# Elastic Constant Matrix: (Units=GPa)
#
#
# Indices 1 2 3 4 5 6 
#
# 1 59.4064 31.9255 25.8124 0.0000 0.0000 0.0000
# 2 31.9255 59.4064 25.8124 0.0000 0.0000 0.0000
# 3 25.8124 25.8124 112.9173 0.0000 0.0000 0.0000
# 4 0.0000 0.0000 0.0000 19.5749 0.0000 0.0000
# 5 0.0000 0.0000 0.0000 0.0000 19.5749 0.0000
# 6 0.0000 0.0000 0.0000 0.0000 0.0000 13.7404
#
#
#
# Elastic Compliance Matrix: (Units=1/GPa)
#
#
# Indices 1 2 3 4 5 6 
#
# 1 0.024481 -0.011908 -0.002874 0.000000 0.000000 0.000000
# 2 -0.011908 0.024481 -0.002874 0.000000 0.000000 0.000000
# 3 -0.002874 -0.002874 0.010170 0.000000 0.000000 0.000000
# 4 0.000000 0.000000 0.000000 0.051086 0.000000 0.000000
# 5 0.000000 0.000000 0.000000 0.000000 0.051086 0.000000
# 6 0.000000 0.000000 0.000000 0.000000 0.000000 0.072778
#
#
# Mechanical properties :
#
#
# Convention : Reuss Voigt Hill
#
# Bulk Modulus (GPa) = 41.98078 44.31454 43.14766
# Shear Modulus (GPa) = 18.02875 20.45671 19.24273
#
# Velocity S-wave (km/s) = 3.32762 3.54462 3.43783
# Velocity P-wave (km/s) = 6.36775 6.63099 6.50070
#
# Compressibility (1/GPa) = 0.02382043
#
# Stress axis : x y z
#
# Youngs Moduli (GPa) = 40.84746 40.84746 98.32706
#
# Poissons Ratio (x) = 0.48639 0.28262
# Poissons Ratio (y) = 0.48639 0.28262
# Poissons Ratio (z) = 0.11741 0.11741
#
# Static dielectric constant tensor:
#      x y z
#    x 2.827760 0.000000 0.000000 
#    y 0.000000 2.827760 0.000000 
#    z 0.000000 0.000000 3.588650 
# 
# 
# High freq. dielectric constant tensor:
#      x y z
#    x 1.588180 0.000000 0.000000 
#    y 0.000000 1.588180 0.000000 
#    z 0.000000 0.000000 1.657760 
# 
# From -- ./inp_files/8374.got.cif
#   From: 2010.03.12/outbox.cif.g09.slc.cpg/sg191_5_cif.got.tgz:8374.got - 2010.04.01 12:09:02.
