data_PCOD8328089
_publ_section_title
;
Structure prediction by ZEFSAII (Michael W. Deem and Ramdas Pophale) SiO2 
 PCOD8328089
Probable space group: P -6 2 C
;
_chemical_formula_sum "Si O2"
_cell_formula_units_Z 76
_cell_length_a 17.067825
_cell_length_b 17.067825
_cell_length_c 14.112974
_cell_angle_alpha 90.000000
_cell_angle_beta 90.000000
_cell_angle_gamma 120.000000
_cell_volume 3560.455283
_symmetry_space_group_name_H-M "P -6 2 C"
_symmetry_group_IT_number 190
_symmetry_cell_setting 'hexagonal'
loop_
_space_group_symop_operation_xyz
x,y,z
-x+y,-x,1/2-z
-y,x-y,z
x,y,1/2-z
-x+y,-x,z
-y,x-y,1/2-z
x-y,-y,-z
-x,-x+y,-z
y,x,-z
y,x,1/2+z
x-y,-y,1/2+z
-x,-x+y,1/2+z
loop_
_atom_site_type_symbol
_atom_site_label
_atom_site_fract_x
_atom_site_fract_y
_atom_site_fract_z
Si Si1 0.892241 0.102166 0.891120
Si Si2 0.903093 0.103822 0.114235
Si Si3 0.215231 0.421084 0.357412
Si Si4 0.348670 0.898545 0.999706
Si Si5 0.598495 0.807594 0.852851
Si Si6 0.666667 0.333334 0.368385
Si Si7 0.349471 0.512881 0.976968
O O1 0.826127 0.138703 0.856955
O O2 0.993780 0.157273 0.849698
O O3 0.857253 0.000610 0.855275
O O4 0.896501 0.110839 0.002849
O O5 0.848190 0.143980 0.165230
O O6 0.238132 0.456400 0.250000
O O7 0.142372 0.445655 0.399348
O O8 0.306361 0.480737 0.418565
O O9 0.283130 0.846309 0.913606
O O10 0.442358 0.898474 0.986868
O O11 0.368306 0.000000 0.000000
O O12 0.550567 0.781387 0.750000
O O13 0.576218 0.878088 0.909322
O O14 0.666667 0.333334 0.250000
O O15 0.575107 0.319942 0.416449
#
# Coordination Sequence:
#
# PCOD8328089 Si02
#       7
#    12  12  12  12  12   4  12
#     4  10  20  38  63  94 129 175 217 267 316 374
#     4  10  20  37  64  94 131 170 220 266 316 381
#     4  11  24  43  65  91 132 177 213 258 321 387
#     4  11  24  42  63  92 127 163 211 264 315 382
#     4  11  23  40  65  95 127 163 205 263 330 381
#     4  12  21  42  73 101 124 153 207 273 331 380
#     4  11  23  42  65  95 124 161 210 266 325 380
#
# _framework density 21.345585
#
# number of rings (size 3 to 8) (size 9 to 14) (size 15 to 20)
#    0.000    1.263    6.316    1.737    0.000    6.947 
#    0.000    0.000    0.000    1.895    0.000    0.000 
#    0.000    0.000    0.000    0.000    0.000    0.000 
#
# Total GULP energy -941632.708069 kJ/mol
# GULP energy per Si atom -12389.904054 kJ/mol
# Density = 2.129700 g / cm^3
# Si number density = 21.345585 Si / 1000 Ang^3
#
#
#
# Elastic Constant Matrix: (Units=GPa)
#
#
# Indices 1 2 3 4 5 6 
#
# 1 88.9775 10.8882 27.8094 0.0000 0.0000 0.0000
# 2 10.8882 88.9777 27.8094 0.0001 0.0000 0.0001
# 3 27.8094 27.8094 169.1030 0.0000 0.0000 0.0000
# 4 0.0000 0.0001 0.0000 1.8345 0.0000 0.0000
# 5 0.0000 0.0000 0.0000 0.0000 1.8346 0.0000
# 6 0.0000 0.0001 0.0000 0.0000 0.0000 39.0447
#
#
#
# Elastic Compliance Matrix: (Units=1/GPa)
#
#
# Indices 1 2 3 4 5 6 
#
# 1 0.011914 -0.000891 -0.001813 0.000000 0.000000 0.000000
# 2 -0.000891 0.011914 -0.001813 0.000000 0.000000 0.000000
# 3 -0.001813 -0.001813 0.006510 0.000000 0.000000 0.000000
# 4 0.000000 0.000000 0.000000 0.545097 -0.000003 0.000000
# 5 0.000000 0.000000 0.000000 -0.000003 0.545069 0.000000
# 6 0.000000 0.000000 0.000000 0.000000 0.000000 0.025612
#
#
# Mechanical properties :
#
#
# Convention : Reuss Voigt Hill
#
# Bulk Modulus (GPa) = 46.93780 53.34134 50.13957
# Shear Modulus (GPa) = 4.30199 27.24619 15.77409
#
# Velocity S-wave (km/s) = 1.42119 3.57659 2.72138
# Velocity P-wave (km/s) = 4.97295 6.48843 5.78057
#
# Compressibility (1/GPa) = 0.02130479
#
# Stress axis : x y z
#
# Youngs Moduli (GPa) = 83.93168 83.93192 153.61496
#
# Poissons Ratio (x) = 0.07482 0.27847
# Poissons Ratio (y) = 0.07482 0.27847
# Poissons Ratio (z) = 0.15215 0.15215
#
# Static dielectric constant tensor:
#      x y z
#    x 3.996960 0.000000 0.000000 
#    y 0.000000 3.996960 0.000000 
#    z 0.000000 0.000000 3.885660 
# 
# 
# High freq. dielectric constant tensor:
#      x y z
#    x 1.836380 0.000000 0.000000 
#    y 0.000000 1.836380 0.000000 
#    z 0.000000 0.000000 1.844610 
# 
# From -- ./inp_files/3100.got.cif
#   From: 2010.06.25/outbox.cif.g09.slc.cpg/sg190_2_cif.got.tgz:3100.got - 2010.06.28 13:08:06.
