data_PCOD8328525
_publ_section_title
;
Structure prediction by ZEFSAII (Michael W. Deem and Ramdas Pophale) SiO2 
 PCOD8328525
Probable space group: P 6/M M M
;
_chemical_formula_sum "Si O2"
_cell_formula_units_Z 96
_cell_length_a 26.706521
_cell_length_b 26.706521
_cell_length_c 9.796453
_cell_angle_alpha 90.000000
_cell_angle_beta 90.000000
_cell_angle_gamma 120.000000
_cell_volume 6051.097144
_symmetry_space_group_name_H-M "P 6/M M M"
_symmetry_group_IT_number 191
_symmetry_cell_setting 'hexagonal'
loop_
_space_group_symop_operation_xyz
x,y,z
x-y,x,z
-y,x-y,z
-x,-y,z
-x+y,-x,z
y,-x+y,z
x-y,-y,-z
-x,-x+y,-z
y,x,-z
-y,-x,-z
-x+y,y,-z
x,x-y,-z
-x,-y,-z
-x+y,-x,-z
y,-x+y,-z
x,y,-z
x-y,x,-z
-y,x-y,-z
-x+y,y,z
x,x-y,z
-y,-x,z
y,x,z
x-y,-y,z
-x,-x+y,z
loop_
_atom_site_type_symbol
_atom_site_label
_atom_site_fract_x
_atom_site_fract_y
_atom_site_fract_z
Si Si1 0.779076 0.676903 0.660726
Si Si2 0.931347 0.344063 0.744491
Si Si3 0.068177 0.588305 0.500000
Si Si4 0.408666 0.477089 0.000000
Si Si5 0.773959 0.000000 0.836053
Si Si6 0.000000 0.890043 0.159921
O O1 0.770609 0.687396 0.500000
O O2 0.835645 0.671289 0.679210
O O3 0.724305 0.619140 0.718552
O O4 0.783119 0.726368 0.759789
O O5 0.911321 0.371772 0.629828
O O6 0.910772 0.363988 0.876036
O O7 0.000000 0.365435 0.744585
O O8 0.098201 0.549101 0.500000
O O9 0.000000 0.547859 0.500000
O O10 0.448786 0.448786 0.000000
O O11 0.452782 0.547219 0.000000
O O12 0.832220 0.000000 0.809075
O O13 0.760412 0.000000 0.000000
O O14 0.943375 0.886750 0.227104
O O15 0.000000 0.900025 0.000000
#
# Coordination Sequence:
#
# PCOD8328525 Si02
#       6
#    24  24  12  12  12  12
#     4  11  23  37  53  74 102 143 186 225 270 321
#     4  10  18  30  49  69  99 136 171 213 250 300
#     4   9  16  26  45  70  94 127 167 200 234 282
#     4   9  18  30  47  74 106 133 163 198 244 296
#     4  11  23  36  55  74  99 129 174 230 272 329
#     4   9  17  31  50  73  96 117 145 198 273 341
#
# _framework density 15.864891
#
# number of rings (size 3 to 8) (size 9 to 14) (size 15 to 20)
#    0.000    2.000    2.500    2.000    1.750    5.000 
#    0.000    0.000    0.000    0.000    0.000    0.000 
#    0.000    6.000    0.000   15.000    0.000    0.000 
#
# Total GULP energy -1189419.332079 kJ/mol
# GULP energy per Si atom -12389.784709 kJ/mol
# Density = 1.582878 g / cm^3
# Si number density = 15.864891 Si / 1000 Ang^3
#
#
#
# Elastic Constant Matrix: (Units=GPa)
#
#
# Indices 1 2 3 4 5 6 
#
# 1 8.5697 159.7816 58.2100 0.0000 0.0000 0.0000
# 2 159.7816 8.5697 58.2100 0.0000 0.0000 0.0000
# 3 58.2100 58.2100 136.0771 0.0000 0.0000 0.0000
# 4 0.0000 0.0000 0.0000 25.7370 0.0000 0.0000
# 5 0.0000 0.0000 0.0000 0.0000 25.7370 0.0000
# 6 0.0000 0.0000 0.0000 0.0000 0.0000 -75.6060
#
#
#
# Elastic Compliance Matrix: (Units=1/GPa)
#
#
# Indices 1 2 3 4 5 6 
#
# 1 0.000911 0.007524 -0.003608 0.000000 0.000000 0.000000
# 2 0.007524 0.000911 -0.003608 0.000000 0.000000 0.000000
# 3 -0.003608 -0.003608 0.010436 0.000000 0.000000 0.000000
# 4 0.000000 0.000000 0.000000 0.038855 0.000000 0.000000
# 5 0.000000 0.000000 0.000000 0.000000 0.038855 0.000000
# 6 0.000000 0.000000 0.000000 0.000000 0.000000 -0.013226
#
#
# Mechanical properties :
#
#
# Convention : Reuss Voigt Hill
#
# Bulk Modulus (GPa) = 77.68235 78.40217 78.04226
# Shear Modulus (GPa) = 62.17618 -13.02542 24.57538
#
# Velocity S-wave (km/s) = 6.26707 -2.86846 3.94006
# Velocity P-wave (km/s) = 10.07171 6.20929 8.36644
#
# Compressibility (1/GPa) = 0.01287294
#
# Stress axis : x y z
#
# Youngs Moduli (GPa) = 1097.68336 1097.68335 95.82318
#
# Poissons Ratio (x) = -8.25924 0.34576
# Poissons Ratio (y) = -8.25924 0.34576
# Poissons Ratio (z) = 3.96084 3.96084
#
# Static dielectric constant tensor:
#      x y z
#    x 3.063180 0.000000 0.000000 
#    y 0.000000 3.063180 0.000000 
#    z 0.000000 0.000000 3.339040 
# 
# 
# High freq. dielectric constant tensor:
#      x y z
#    x 1.591510 0.000000 0.000000 
#    y 0.000000 1.591510 0.000000 
#    z 0.000000 0.000000 1.619220 
# 
# From -- ./inp_files/1613.got.cif
#   From: 2010.03.12/outbox.cif.g09.slc.cpg/sg191_1_cif.got.tgz:1613.got - 2010.04.01 12:09:02.
