data_PCOD8328457
_publ_section_title
;
Structure prediction by ZEFSAII (Michael W. Deem and Ramdas Pophale) SiO2 
 PCOD8328457
Probable space group: P 6/M M M
;
_chemical_formula_sum "Si O2"
_cell_formula_units_Z 84
_cell_length_a 22.444597
_cell_length_b 22.444597
_cell_length_c 12.705193
_cell_angle_alpha 90.000000
_cell_angle_beta 90.000000
_cell_angle_gamma 120.000000
_cell_volume 5542.880583
_symmetry_space_group_name_H-M "P 6/M M M"
_symmetry_group_IT_number 191
_symmetry_cell_setting 'hexagonal'
loop_
_space_group_symop_operation_xyz
x,y,z
x-y,x,z
-y,x-y,z
-x,-y,z
-x+y,-x,z
y,-x+y,z
x-y,-y,-z
-x,-x+y,-z
y,x,-z
-y,-x,-z
-x+y,y,-z
x,x-y,-z
-x,-y,-z
-x+y,-x,-z
y,-x+y,-z
x,y,-z
x-y,x,-z
-y,x-y,-z
-x+y,y,z
x,x-y,z
-y,-x,z
y,x,z
x-y,-y,z
-x,-x+y,z
loop_
_atom_site_type_symbol
_atom_site_label
_atom_site_fract_x
_atom_site_fract_y
_atom_site_fract_z
Si Si1 0.921397 0.391664 0.619268
Si Si2 0.474809 0.666601 0.000000
Si Si3 0.563304 0.851101 0.800599
Si Si4 0.713521 0.790392 0.876622
O O1 0.910214 0.363617 0.500000
O O2 0.902485 0.451243 0.627603
O O3 0.870791 0.330650 0.694183
O O4 0.000000 0.420297 0.654130
O O5 0.517435 0.666524 0.898088
O O6 0.401152 0.598849 0.000000
O O7 0.464530 0.732265 0.000000
O O8 0.551403 0.775702 0.784236
O O9 0.643111 0.905536 0.819745
O O10 0.738399 0.869200 0.843291
O O11 0.772610 0.772610 0.844529
O O12 0.698185 0.780936 0.000000
#
# Coordination Sequence:
#
# PCOD8328457 Si02
#       4
#    24  12  24  24
#     4   9  18  32  47  62  83 112 145 181 220 260
#     4  10  19  30  43  61  86 115 144 178 219 261
#     4  10  18  29  45  65  88 112 143 180 217 260
#     4   9  16  27  43  63  88 115 141 171 209 253
#
# _framework density 15.154574999999999
#
# number of rings (size 3 to 8) (size 9 to 14) (size 15 to 20)
#    0.000    2.571    1.429    2.714    0.000    0.571 
#    0.000    0.000    0.000    4.286    0.000    2.000 
#    0.000    0.000    0.000    0.000    0.000    0.000 
#
# Total GULP energy -1041497.100754 kJ/mol
# GULP energy per Si atom -12398.775009 kJ/mol
# Density = 1.512008 g / cm^3
# Si number density = 15.154575 Si / 1000 Ang^3
#
#
#
# Elastic Constant Matrix: (Units=GPa)
#
#
# Indices 1 2 3 4 5 6 
#
# 1 73.6006 41.5907 40.3502 0.0000 0.0000 0.0000
# 2 41.5907 73.6006 40.3502 0.0000 0.0000 0.0000
# 3 40.3502 40.3502 78.5622 0.0000 0.0000 0.0000
# 4 0.0000 0.0000 0.0000 24.1098 0.0000 0.0000
# 5 0.0000 0.0000 0.0000 0.0000 24.1098 0.0000
# 6 0.0000 0.0000 0.0000 0.0000 0.0000 16.0050
#
#
#
# Elastic Compliance Matrix: (Units=1/GPa)
#
#
# Indices 1 2 3 4 5 6 
#
# 1 0.022400 -0.008840 -0.006965 0.000000 0.000000 0.000000
# 2 -0.008840 0.022400 -0.006965 0.000000 0.000000 0.000000
# 3 -0.006965 -0.006965 0.019883 0.000000 0.000000 0.000000
# 4 0.000000 0.000000 0.000000 0.041477 0.000000 0.000000
# 5 0.000000 0.000000 0.000000 0.000000 0.041477 0.000000
# 6 0.000000 0.000000 0.000000 0.000000 0.000000 0.062481
#
#
# Mechanical properties :
#
#
# Convention : Reuss Voigt Hill
#
# Bulk Modulus (GPa) = 52.23290 52.26064 52.24677
# Shear Modulus (GPa) = 19.08110 19.74305 19.41208
#
# Velocity S-wave (km/s) = 3.55223 3.61332 3.58290
# Velocity P-wave (km/s) = 7.16701 7.20888 7.18798
#
# Compressibility (1/GPa) = 0.01914502
#
# Stress axis : x y z
#
# Youngs Moduli (GPa) = 44.64193 44.64193 50.29377
#
# Poissons Ratio (x) = 0.39463 0.35029
# Poissons Ratio (y) = 0.39463 0.35029
# Poissons Ratio (z) = 0.31092 0.31092
#
# Static dielectric constant tensor:
#      x y z
#    x 2.869020 0.000000 0.000000 
#    y 0.000000 2.869020 0.000000 
#    z 0.000000 0.000000 2.801710 
# 
# 
# High freq. dielectric constant tensor:
#      x y z
#    x 1.574850 0.000000 0.000000 
#    y 0.000000 1.574850 0.000000 
#    z 0.000000 0.000000 1.569830 
# 
# From -- ./inp_files/2396.got.cif
#   From: 2010.03.12/outbox.cif.g09.slc.cpg/sg191_2_cif.got.tgz:2396.got - 2010.04.01 12:09:02.
