data_PCOD8328349
_publ_section_title
;
Structure prediction by ZEFSAII (Michael W. Deem and Ramdas Pophale) SiO2 
 PCOD8328349
Probable space group: P 6/M M M
;
_chemical_formula_sum "Si O2"
_cell_formula_units_Z 112
_cell_length_a 20.758775
_cell_length_b 20.758775
_cell_length_c 20.249008
_cell_angle_alpha 90.000000
_cell_angle_beta 90.000000
_cell_angle_gamma 120.000000
_cell_volume 7556.798239
_symmetry_space_group_name_H-M "P 6/M M M"
_symmetry_group_IT_number 191
_symmetry_cell_setting 'hexagonal'
loop_
_space_group_symop_operation_xyz
x,y,z
x-y,x,z
-y,x-y,z
-x,-y,z
-x+y,-x,z
y,-x+y,z
x-y,-y,-z
-x,-x+y,-z
y,x,-z
-y,-x,-z
-x+y,y,-z
x,x-y,-z
-x,-y,-z
-x+y,-x,-z
y,-x+y,-z
x,y,-z
x-y,x,-z
-y,x-y,-z
-x+y,y,z
x,x-y,z
-y,-x,z
y,x,z
x-y,-y,z
-x,-x+y,z
loop_
_atom_site_type_symbol
_atom_site_label
_atom_site_fract_x
_atom_site_fract_y
_atom_site_fract_z
Si Si1 0.586223 0.413778 0.425652
Si Si2 0.684564 0.915993 0.500000
Si Si3 0.333334 0.666667 0.420233
Si Si4 0.292070 0.857375 0.388457
Si Si5 0.534552 0.917657 0.119025
Si Si6 0.667662 0.181816 0.000000
Si Si7 0.911863 0.383214 0.266439
O O1 0.598769 0.401232 0.500000
O O2 0.625558 0.374443 0.387522
O O3 0.498422 0.372815 0.412861
O O4 0.714149 0.857075 0.500000
O O5 0.637483 0.905745 0.566621
O O6 0.754257 0.000000 0.500000
O O7 0.333334 0.666667 0.500000
O O8 0.229138 0.770863 0.394812
O O9 0.309224 0.881951 0.311948
O O10 0.462635 0.925270 0.109043
O O11 0.533088 0.885918 0.192292
O O12 0.606583 0.000000 0.109565
O O13 0.534195 0.861406 0.064464
O O14 0.735964 0.264037 0.000000
O O15 0.593742 0.187484 0.000000
O O16 0.882298 0.441149 0.286702
O O17 0.000000 0.429012 0.269304
#
# Coordination Sequence:
#
# PCOD8328349 Si02
#       7
#    12  12   4  24  24  12  24
#     4  11  18  28  38  58  82 117 158 190 212 235
#     4  10  22  37  51  68  87 109 135 167 212 262
#     4   9  18  24  42  48  78 120 159 190 206 238
#     4  11  20  29  43  62  87 115 146 181 213 246
#     4   8  15  28  44  58  72  98 136 171 201 238
#     4  10  18  27  41  59  80 101 122 156 205 258
#     4   9  17  29  43  58  78 104 137 177 212 240
#
# _framework density 14.821092
#
# number of rings (size 3 to 8) (size 9 to 14) (size 15 to 20)
#    0.000    2.357    3.214    2.357    0.000    2.143 
#    0.000    0.536    0.000    0.107    0.000    0.000 
#    0.000    0.000    0.000    0.000    0.000    0.000 
#
# Total GULP energy -1387607.191105 kJ/mol
# GULP energy per Si atom -12389.349921 kJ/mol
# Density = 1.478736 g / cm^3
# Si number density = 14.821092 Si / 1000 Ang^3
#
#
#
# Elastic Constant Matrix: (Units=GPa)
#
#
# Indices 1 2 3 4 5 6 
#
# 1 54.1165 27.9447 29.4885 0.0000 0.0000 0.0000
# 2 27.9447 54.1166 29.4885 0.0000 0.0000 0.0000
# 3 29.4885 29.4885 100.6792 0.0000 0.0000 0.0000
# 4 0.0000 0.0000 0.0000 16.1006 0.0000 0.0000
# 5 0.0000 0.0000 0.0000 0.0000 16.1006 0.0000
# 6 0.0000 0.0000 0.0000 0.0000 0.0000 13.0859
#
#
#
# Elastic Compliance Matrix: (Units=1/GPa)
#
#
# Indices 1 2 3 4 5 6 
#
# 1 0.026822 -0.011387 -0.004521 0.000000 0.000000 0.000000
# 2 -0.011387 0.026822 -0.004521 0.000000 0.000000 0.000000
# 3 -0.004521 -0.004521 0.012581 0.000000 0.000000 0.000000
# 4 0.000000 0.000000 0.000000 0.062109 0.000000 0.000000
# 5 0.000000 0.000000 0.000000 0.000000 0.062110 0.000000
# 6 0.000000 0.000000 0.000000 0.000000 0.000000 0.076418
#
#
# Mechanical properties :
#
#
# Convention : Reuss Voigt Hill
#
# Bulk Modulus (GPa) = 39.42037 42.52839 40.97438
# Shear Modulus (GPa) = 15.81400 17.19012 16.50206
#
# Velocity S-wave (km/s) = 3.27003 3.40934 3.34041
# Velocity P-wave (km/s) = 6.39630 6.65244 6.52563
#
# Compressibility (1/GPa) = 0.02536760
#
# Stress axis : x y z
#
# Youngs Moduli (GPa) = 37.28264 37.28274 79.48598
#
# Poissons Ratio (x) = 0.42454 0.35935
# Poissons Ratio (y) = 0.42454 0.35935
# Poissons Ratio (z) = 0.16855 0.16855
#
# Static dielectric constant tensor:
#      x y z
#    x 2.609640 0.000000 0.000000 
#    y 0.000000 2.609640 0.000000 
#    z 0.000000 0.000000 3.198310 
# 
# 
# High freq. dielectric constant tensor:
#      x y z
#    x 1.532440 0.000000 0.000000 
#    y 0.000000 1.532440 0.000000 
#    z 0.000000 0.000000 1.577950 
# 
# From -- ./inp_files/7510.got.cif
#   From: 2010.03.12/outbox.cif.g09.slc.cpg/sg191_4_cif.got.tgz:7510.got - 2010.04.01 12:09:02.
