data_PCOD8328891
_publ_section_title
;
Structure prediction by ZEFSAII (Michael W. Deem and Ramdas Pophale) SiO2 
 PCOD8328891
Probable space group: P 6/M M M
;
_chemical_formula_sum "Si O2"
_cell_formula_units_Z 108
_cell_length_a 17.720522
_cell_length_b 17.720522
_cell_length_c 22.476363
_cell_angle_alpha 90.000000
_cell_angle_beta 90.000000
_cell_angle_gamma 120.000000
_cell_volume 6112.370781
_symmetry_space_group_name_H-M "P 6/M M M"
_symmetry_group_IT_number 191
_symmetry_cell_setting 'hexagonal'
loop_
_space_group_symop_operation_xyz
x,y,z
x-y,x,z
-y,x-y,z
-x,-y,z
-x+y,-x,z
y,-x+y,z
x-y,-y,-z
-x,-x+y,-z
y,x,-z
-y,-x,-z
-x+y,y,-z
x,x-y,-z
-x,-y,-z
-x+y,-x,-z
y,-x+y,-z
x,y,-z
x-y,x,-z
-y,x-y,-z
-x+y,y,z
x,x-y,z
-y,-x,z
y,x,z
x-y,-y,z
-x,-x+y,z
loop_
_atom_site_type_symbol
_atom_site_label
_atom_site_fract_x
_atom_site_fract_y
_atom_site_fract_z
Si Si1 0.635876 0.103810 0.872758
Si Si2 0.802095 0.901048 0.570831
Si Si3 0.095214 0.637115 0.000000
Si Si4 0.733103 0.632901 0.238213
Si Si5 0.464823 0.364400 0.354244
Si Si6 0.801509 0.198492 0.570446
O O1 0.569735 0.139470 0.857333
O O2 0.707434 0.131299 0.821787
O O3 0.580047 0.000000 0.877351
O O4 0.683138 0.142213 0.937371
O O5 0.851064 0.851064 0.595421
O O6 0.803748 0.901874 0.500000
O O7 0.702867 0.851434 0.594248
O O8 0.084918 0.542459 0.000000
O O9 0.000000 0.628062 0.000000
O O10 0.837098 0.674195 0.247235
O O11 0.710710 0.710710 0.235636
O O12 0.682164 0.566398 0.291024
O O13 0.567871 0.432130 0.350066
O O14 0.413644 0.413644 0.372114
O O15 0.447085 0.296634 0.406440
O O16 0.800239 0.199762 0.500000
#
# Coordination Sequence:
#
# PCOD8328891 Si02
#       6
#    24  12  12  24  24  12
#     4   8  13  23  43  70  99 130 163 200 243 293
#     4   9  17  30  51  80 112 142 171 206 251 305
#     4   7  10  18  35  64  99 130 160 196 240 289
#     4  10  19  33  53  75  99 130 170 214 258 304
#     4  10  21  38  58  78 101 131 169 211 254 301
#     4  11  22  37  56  79 106 137 172 209 254 311
#
# _framework density 17.669084999999999
#
# number of rings (size 3 to 8) (size 9 to 14) (size 15 to 20)
#    0.000    2.778    1.111    2.778    0.000    4.889 
#    0.667    1.667    0.000    0.667    0.000    0.000 
#    0.000    0.000    0.000    0.000    0.000   13.111 
#
# Total GULP energy -1338279.335508 kJ/mol
# GULP energy per Si atom -12391.475329 kJ/mol
# Density = 1.762887 g / cm^3
# Si number density = 17.669085 Si / 1000 Ang^3
#
#
#
# Elastic Constant Matrix: (Units=GPa)
#
#
# Indices 1 2 3 4 5 6 
#
# 1 95.7626 59.6873 40.6226 0.0000 0.0000 0.0000
# 2 59.6873 95.7626 40.6226 0.0000 0.0000 0.0000
# 3 40.6226 40.6226 104.2050 0.0000 0.0000 0.0000
# 4 0.0000 0.0000 0.0000 14.9963 0.0000 0.0000
# 5 0.0000 0.0000 0.0000 0.0000 14.9963 0.0000
# 6 0.0000 0.0000 0.0000 0.0000 0.0000 18.0377
#
#
#
# Elastic Compliance Matrix: (Units=1/GPa)
#
#
# Indices 1 2 3 4 5 6 
#
# 1 0.017899 -0.009820 -0.003149 0.000000 0.000000 0.000000
# 2 -0.009820 0.017899 -0.003149 0.000000 0.000000 0.000000
# 3 -0.003149 -0.003149 0.012052 0.000000 0.000000 0.000000
# 4 0.000000 0.000000 0.000000 0.066683 0.000000 0.000000
# 5 0.000000 0.000000 0.000000 0.000000 0.066683 0.000000
# 6 0.000000 0.000000 0.000000 0.000000 0.000000 0.055440
#
#
# Mechanical properties :
#
#
# Convention : Reuss Voigt Hill
#
# Bulk Modulus (GPa) = 64.05270 64.17722 64.11496
# Shear Modulus (GPa) = 18.24156 19.92590 19.08373
#
# Velocity S-wave (km/s) = 3.21658 3.36181 3.29000
# Velocity P-wave (km/s) = 7.07992 7.17423 7.12723
#
# Compressibility (1/GPa) = 0.01561214
#
# Stress axis : x y z
#
# Youngs Moduli (GPa) = 55.86784 55.86784 82.97377
#
# Poissons Ratio (x) = 0.54864 0.26132
# Poissons Ratio (y) = 0.54864 0.26132
# Poissons Ratio (z) = 0.17595 0.17595
#
# Static dielectric constant tensor:
#      x y z
#    x 3.125890 0.000000 0.000000 
#    y 0.000000 3.125890 0.000000 
#    z 0.000000 0.000000 3.526350 
# 
# 
# High freq. dielectric constant tensor:
#      x y z
#    x 1.658680 0.000000 0.000000 
#    y 0.000000 1.658680 0.000000 
#    z 0.000000 0.000000 1.693070 
# 
# From -- ./inp_files/8473.got.cif
#   From: 2010.03.12/outbox.cif.g09.slc.cpg/sg191_5_cif.got.tgz:8473.got - 2010.04.01 12:09:02.
