data_PCOD8328569
_publ_section_title
;
Structure prediction by ZEFSAII (Michael W. Deem and Ramdas Pophale) SiO2 
 PCOD8328569
Probable space group: P 6/M M M
;
_chemical_formula_sum "Si O2"
_cell_formula_units_Z 108
_cell_length_a 31.691753
_cell_length_b 31.691753
_cell_length_c 9.134031
_cell_angle_alpha 90.000000
_cell_angle_beta 90.000000
_cell_angle_gamma 120.000000
_cell_volume 7944.848825
_symmetry_space_group_name_H-M "P 6/M M M"
_symmetry_group_IT_number 191
_symmetry_cell_setting 'hexagonal'
loop_
_space_group_symop_operation_xyz
x,y,z
x-y,x,z
-y,x-y,z
-x,-y,z
-x+y,-x,z
y,-x+y,z
x-y,-y,-z
-x,-x+y,-z
y,x,-z
-y,-x,-z
-x+y,y,-z
x,x-y,-z
-x,-y,-z
-x+y,-x,-z
y,-x+y,-z
x,y,-z
x-y,x,-z
-y,x-y,-z
-x+y,y,z
x,x-y,z
-y,-x,z
y,x,z
x-y,-y,z
-x,-x+y,z
loop_
_atom_site_type_symbol
_atom_site_label
_atom_site_fract_x
_atom_site_fract_y
_atom_site_fract_z
Si Si1 0.526676 0.473325 0.826116
Si Si2 0.355554 0.299045 0.671896
Si Si3 0.054212 0.202450 0.332266
Si Si4 0.800921 0.101966 0.170936
Si Si5 0.438833 0.058009 0.836279
O O1 0.500000 0.500000 0.752006
O O2 0.584355 0.504470 0.782296
O O3 0.523896 0.476105 0.000000
O O4 0.356473 0.292217 0.500000
O O5 0.319234 0.319234 0.714820
O O6 0.339367 0.248020 0.748851
O O7 0.410388 0.336065 0.725628
O O8 0.059250 0.220323 0.500000
O O9 0.091441 0.182882 0.298621
O O10 0.064874 0.247418 0.229865
O O11 0.000000 0.158421 0.299425
O O12 0.842517 0.157484 0.203835
O O13 0.790454 0.092316 0.000000
O O14 0.414249 0.000000 0.838734
O O15 0.437073 0.076758 0.000000
#
# Coordination Sequence:
#
# PCOD8328569 Si02
#       5
#    12  24  24  24  24
#     4   7  10  18  33  51  69  91 121 153 181 207
#     4  10  19  28  38  54  75  97 121 149 183 222
#     4   9  17  29  44  60  77  96 116 139 172 216
#     4  10  20  31  42  56  72  91 118 152 187 222
#     4   8  13  22  36  52  70  94 123 153 182 209
#
# _framework density 13.593714
#
# number of rings (size 3 to 8) (size 9 to 14) (size 15 to 20)
#    0.000    3.000    0.000    3.333    0.000    5.778 
#    0.000    0.556    0.000    3.556    0.000    1.556 
#    0.000    0.000    0.000    5.556    0.000    5.778 
#
# Total GULP energy -1338277.904158 kJ/mol
# GULP energy per Si atom -12391.462076 kJ/mol
# Density = 1.356277 g / cm^3
# Si number density = 13.593714 Si / 1000 Ang^3
#
#
#
# Elastic Constant Matrix: (Units=GPa)
#
#
# Indices 1 2 3 4 5 6 
#
# 1 84.7314 45.9286 38.8425 0.0000 0.0000 0.0000
# 2 45.9286 84.7314 38.8425 0.0000 0.0000 0.0000
# 3 38.8425 38.8425 62.9190 0.0000 0.0000 0.0000
# 4 0.0000 0.0000 0.0000 17.3421 0.0000 0.0000
# 5 0.0000 0.0000 0.0000 0.0000 17.3421 0.0000
# 6 0.0000 0.0000 0.0000 0.0000 0.0000 19.4014
#
#
#
# Elastic Compliance Matrix: (Units=1/GPa)
#
#
# Indices 1 2 3 4 5 6 
#
# 1 0.018931 -0.006840 -0.007465 0.000000 0.000000 0.000000
# 2 -0.006840 0.018931 -0.007465 0.000000 0.000000 0.000000
# 3 -0.007465 -0.007465 0.025110 0.000000 0.000000 0.000000
# 4 0.000000 0.000000 0.000000 0.057663 0.000000 0.000000
# 5 0.000000 0.000000 0.000000 0.000000 0.057663 0.000000
# 6 0.000000 0.000000 0.000000 0.000000 0.000000 0.051543
#
#
# Mechanical properties :
#
#
# Convention : Reuss Voigt Hill
#
# Bulk Modulus (GPa) = 51.45473 53.28985 52.37229
# Shear Modulus (GPa) = 17.86618 18.06834 17.96726
#
# Velocity S-wave (km/s) = 3.62926 3.64973 3.63951
# Velocity P-wave (km/s) = 7.44957 7.55299 7.50146
#
# Compressibility (1/GPa) = 0.01943456
#
# Stress axis : x y z
#
# Youngs Moduli (GPa) = 52.82210 52.82210 39.82492
#
# Poissons Ratio (x) = 0.36130 0.29728
# Poissons Ratio (y) = 0.36130 0.29728
# Poissons Ratio (z) = 0.39430 0.39430
#
# Static dielectric constant tensor:
#      x y z
#    x 2.693280 0.000000 0.000000 
#    y 0.000000 2.693280 0.000000 
#    z 0.000000 0.000000 2.714590 
# 
# 
# High freq. dielectric constant tensor:
#      x y z
#    x 1.491940 0.000000 0.000000 
#    y 0.000000 1.491940 0.000000 
#    z 0.000000 0.000000 1.519430 
# 
# From -- ./inp_files/1735.got.cif
#   From: 2010.03.12/outbox.cif.g09.slc.cpg/sg191_1_cif.got.tgz:1735.got - 2010.04.01 12:09:02.
