data_PCOD8328368
_publ_section_title
;
Structure prediction by ZEFSAII (Michael W. Deem and Ramdas Pophale) SiO2 
 PCOD8328368
Probable space group: P 6/M M M
;
_chemical_formula_sum "Si O2"
_cell_formula_units_Z 84
_cell_length_a 18.042765
_cell_length_b 18.042765
_cell_length_c 16.887132
_cell_angle_alpha 90.000000
_cell_angle_beta 90.000000
_cell_angle_gamma 120.000000
_cell_volume 4760.940074
_symmetry_space_group_name_H-M "P 6/M M M"
_symmetry_group_IT_number 191
_symmetry_cell_setting 'hexagonal'
loop_
_space_group_symop_operation_xyz
x,y,z
x-y,x,z
-y,x-y,z
-x,-y,z
-x+y,-x,z
y,-x+y,z
x-y,-y,-z
-x,-x+y,-z
y,x,-z
-y,-x,-z
-x+y,y,-z
x,x-y,-z
-x,-y,-z
-x+y,-x,-z
y,-x+y,-z
x,y,-z
x-y,x,-z
-y,x-y,-z
-x+y,y,z
x,x-y,z
-y,-x,z
y,x,z
x-y,-y,z
-x,-x+y,z
loop_
_atom_site_type_symbol
_atom_site_label
_atom_site_fract_x
_atom_site_fract_y
_atom_site_fract_z
Si Si1 0.168548 0.168548 0.094249
Si Si2 0.635012 0.540345 0.337988
Si Si3 0.000000 0.337614 0.093799
Si Si4 0.506364 0.669249 0.171227
Si Si5 0.502236 0.832942 0.500000
O O1 0.168893 0.084447 0.126767
O O2 0.253048 0.253048 0.125566
O O3 0.167324 0.167324 0.000000
O O4 0.546173 0.453828 0.347273
O O5 0.618935 0.618935 0.320995
O O6 0.685695 0.531603 0.263967
O O7 0.687055 0.558765 0.420454
O O8 0.916098 0.337937 0.122810
O O9 0.000000 0.338514 0.000000
O O10 0.498814 0.749407 0.139739
O O11 0.416831 0.583170 0.157699
O O12 0.427236 0.854472 0.500000
O O13 0.462685 0.731343 0.500000
#
# Coordination Sequence:
#
# PCOD8328368 Si02
#       5
#    12  24  12  24  12
#     4   9  17  31  53  81 108 131 159 200 254 316
#     4   9  17  31  49  70  97 132 171 211 256 308
#     4  11  23  39  57  76 103 139 177 219 271 330
#     4  11  22  37  56  78 105 138 179 224 269 317
#     4  10  18  27  43  69 102 135 170 211 256 305
#
# _framework density 17.643574999999998
#
# number of rings (size 3 to 8) (size 9 to 14) (size 15 to 20)
#    0.000    2.000    1.429    3.143    0.000    5.143 
#    0.000    2.857    0.000    1.714    0.000    0.000 
#    0.000    0.000    0.000    0.000    0.000    0.000 
#
# Total GULP energy -1041292.511869 kJ/mol
# GULP energy per Si atom -12396.339427 kJ/mol
# Density = 1.760342 g / cm^3
# Si number density = 17.643575 Si / 1000 Ang^3
#
#
#
# Elastic Constant Matrix: (Units=GPa)
#
#
# Indices 1 2 3 4 5 6 
#
# 1 118.7778 63.6061 35.7088 0.0000 0.0000 0.0000
# 2 63.6061 118.7778 35.7088 0.0000 0.0000 0.0000
# 3 35.7088 35.7088 72.4706 0.0000 0.0000 0.0000
# 4 0.0000 0.0000 0.0000 18.6553 0.0000 0.0000
# 5 0.0000 0.0000 0.0000 0.0000 18.6553 0.0000
# 6 0.0000 0.0000 0.0000 0.0000 0.0000 27.5858
#
#
#
# Elastic Compliance Matrix: (Units=1/GPa)
#
#
# Indices 1 2 3 4 5 6 
#
# 1 0.012460 -0.005666 -0.003348 0.000000 0.000000 0.000000
# 2 -0.005666 0.012460 -0.003348 0.000000 0.000000 0.000000
# 3 -0.003348 -0.003348 0.017098 0.000000 0.000000 0.000000
# 4 0.000000 0.000000 0.000000 0.053604 0.000000 0.000000
# 5 0.000000 0.000000 0.000000 0.000000 0.053604 0.000000
# 6 0.000000 0.000000 0.000000 0.000000 0.000000 0.036250
#
#
# Mechanical properties :
#
#
# Convention : Reuss Voigt Hill
#
# Bulk Modulus (GPa) = 57.82014 64.45261 61.13638
# Shear Modulus (GPa) = 23.15224 24.64612 23.89918
#
# Velocity S-wave (km/s) = 3.62639 3.74155 3.68442
# Velocity P-wave (km/s) = 7.09765 7.43473 7.26815
#
# Compressibility (1/GPa) = 0.01729501
#
# Stress axis : x y z
#
# Youngs Moduli (GPa) = 80.26004 80.26004 58.48780
#
# Poissons Ratio (x) = 0.45473 0.19579
# Poissons Ratio (y) = 0.45473 0.19579
# Poissons Ratio (z) = 0.26867 0.26867
#
# Static dielectric constant tensor:
#      x y z
#    x 3.238140 0.000000 0.000000 
#    y 0.000000 3.238140 0.000000 
#    z 0.000000 0.000000 3.382990 
# 
# 
# High freq. dielectric constant tensor:
#      x y z
#    x 1.671200 0.000000 0.000000 
#    y 0.000000 1.671200 0.000000 
#    z 0.000000 0.000000 1.675520 
# 
# From -- ./inp_files/4014.got.cif
#   From: 2010.03.12/outbox.cif.g09.slc.cpg/sg191_3_cif.got.tgz:4014.got - 2010.04.01 12:09:02.
