data_PCOD8328296
_publ_section_title
;
Structure prediction by ZEFSAII (Michael W. Deem and Ramdas Pophale) SiO2 
 PCOD8328296
Probable space group: P 6/M M M
;
_chemical_formula_sum "Si O2"
_cell_formula_units_Z 120
_cell_length_a 20.330014
_cell_length_b 20.330014
_cell_length_c 26.175833
_cell_angle_alpha 90.000000
_cell_angle_beta 90.000000
_cell_angle_gamma 120.000000
_cell_volume 9369.286048
_symmetry_space_group_name_H-M "P 6/M M M"
_symmetry_group_IT_number 191
_symmetry_cell_setting 'hexagonal'
loop_
_space_group_symop_operation_xyz
x,y,z
x-y,x,z
-y,x-y,z
-x,-y,z
-x+y,-x,z
y,-x+y,z
x-y,-y,-z
-x,-x+y,-z
y,x,-z
-y,-x,-z
-x+y,y,-z
x,x-y,-z
-x,-y,-z
-x+y,-x,-z
y,-x+y,-z
x,y,-z
x-y,x,-z
-y,x-y,-z
-x+y,y,z
x,x-y,z
-y,-x,z
y,x,z
x-y,-y,z
-x,-x+y,z
loop_
_atom_site_type_symbol
_atom_site_label
_atom_site_fract_x
_atom_site_fract_y
_atom_site_fract_z
Si Si1 0.535814 0.915414 0.205903
Si Si2 0.184768 0.516979 0.000000
Si Si3 0.489396 0.667033 0.500000
Si Si4 0.379270 0.464612 0.401516
Si Si5 0.820109 0.331621 0.889532
Si Si6 0.510841 0.178038 0.696845
O O1 0.459433 0.918866 0.208088
O O2 0.542662 0.881678 0.151761
O O3 0.535576 0.863376 0.252071
O O4 0.607634 0.000000 0.211387
O O5 0.151955 0.472186 0.946171
O O6 0.275510 0.551019 0.000000
O O7 0.165415 0.582708 0.000000
O O8 0.405955 0.594046 0.500000
O O9 0.479482 0.739741 0.500000
O O10 0.537361 0.668733 0.549287
O O11 0.459594 0.540407 0.402027
O O12 0.392574 0.392574 0.402487
O O13 0.333503 0.461353 0.350778
O O14 0.809417 0.404709 0.889151
O O15 0.739814 0.260187 0.874391
O O16 0.593932 0.187863 0.696821
O O17 0.521239 0.260620 0.693097
#
# Coordination Sequence:
#
# PCOD8328296 Si02
#       6
#    24  12  12  24  24  24
#     4   9  17  27  36  46  63  87 111 134 165 207
#     4   8  13  20  31  47  65  83 102 129 168 212
#     4  10  18  27  39  55  74  93 116 148 183 210
#     4   9  17  28  40  52  68  92 117 138 167 211
#     4   9  15  23  35  50  66  83 106 137 173 208
#     4  10  18  27  39  54  70  86 108 141 180 214
#
# _framework density 12.807805999999999
#
# number of rings (size 3 to 8) (size 9 to 14) (size 15 to 20)
#    0.000    2.800    0.000    2.700    0.000    5.200 
#    0.000    4.500    0.000    3.000    0.000    0.000 
#    0.000    0.000    0.000    0.000    0.000    0.000 
#
# Total GULP energy -1487087.456286 kJ/mol
# GULP energy per Si atom -12392.395469 kJ/mol
# Density = 1.277866 g / cm^3
# Si number density = 12.807806 Si / 1000 Ang^3
#
#
#
# Elastic Constant Matrix: (Units=GPa)
#
#
# Indices 1 2 3 4 5 6 
#
# 1 45.2227 24.3899 35.8862 0.0000 0.0000 0.0000
# 2 24.3899 45.2227 35.8862 0.0000 0.0000 0.0000
# 3 35.8862 35.8862 126.7317 0.0000 0.0000 0.0000
# 4 0.0000 0.0000 0.0000 15.0892 0.0000 0.0000
# 5 0.0000 0.0000 0.0000 0.0000 15.0892 0.0000
# 6 0.0000 0.0000 0.0000 0.0000 0.0000 10.4164
#
#
#
# Elastic Compliance Matrix: (Units=1/GPa)
#
#
# Indices 1 2 3 4 5 6 
#
# 1 0.034145 -0.013856 -0.005745 0.000000 0.000000 0.000000
# 2 -0.013856 0.034145 -0.005745 0.000000 0.000000 0.000000
# 3 -0.005745 -0.005745 0.011144 0.000000 0.000000 0.000000
# 4 0.000000 0.000000 0.000000 0.066273 0.000000 0.000000
# 5 0.000000 0.000000 0.000000 0.000000 0.066273 0.000000
# 6 0.000000 0.000000 0.000000 0.000000 0.000000 0.096002
#
#
# Mechanical properties :
#
#
# Convention : Reuss Voigt Hill
#
# Bulk Modulus (GPa) = 34.79332 45.50022 40.14677
# Shear Modulus (GPa) = 13.57757 16.18662 14.88209
#
# Velocity S-wave (km/s) = 3.25945 3.55887 3.41244
# Velocity P-wave (km/s) = 6.43351 7.24499 6.85127
#
# Compressibility (1/GPa) = 0.02874115
#
# Stress axis : x y z
#
# Youngs Moduli (GPa) = 29.28703 29.28703 89.73206
#
# Poissons Ratio (x) = 0.40581 0.51551
# Poissons Ratio (y) = 0.40581 0.51551
# Poissons Ratio (z) = 0.16825 0.16825
#
# Static dielectric constant tensor:
#      x y z
#    x 2.351050 0.000000 0.000000 
#    y 0.000000 2.351050 0.000000 
#    z 0.000000 0.000000 3.048410 
# 
# 
# High freq. dielectric constant tensor:
#      x y z
#    x 1.444320 0.000000 0.000000 
#    y 0.000000 1.444320 0.000000 
#    z 0.000000 0.000000 1.516400 
# 
# From -- ./inp_files/10322.got.cif
#   From: 2010.03.12/outbox.cif.g09.slc.cpg/sg191_6_cif.got.tgz:10322.got - 2010.04.01 12:09:02.
