data_PCOD8328317
_publ_section_title
;
Structure prediction by ZEFSAII (Michael W. Deem and Ramdas Pophale) SiO2 
 PCOD8328317
Probable space group: P 6/M M M
;
_chemical_formula_sum "Si O2"
_cell_formula_units_Z 144
_cell_length_a 18.755479
_cell_length_b 18.755479
_cell_length_c 30.188011
_cell_angle_alpha 90.000000
_cell_angle_beta 90.000000
_cell_angle_gamma 120.000000
_cell_volume 9196.476207
_symmetry_space_group_name_H-M "P 6/M M M"
_symmetry_group_IT_number 191
_symmetry_cell_setting 'hexagonal'
loop_
_space_group_symop_operation_xyz
x,y,z
x-y,x,z
-y,x-y,z
-x,-y,z
-x+y,-x,z
y,-x+y,z
x-y,-y,-z
-x,-x+y,-z
y,x,-z
-y,-x,-z
-x+y,y,-z
x,x-y,-z
-x,-y,-z
-x+y,-x,-z
y,-x+y,-z
x,y,-z
x-y,x,-z
-y,x-y,-z
-x+y,y,z
x,x-y,z
-y,-x,z
y,x,z
x-y,-y,z
-x,-x+y,z
loop_
_atom_site_type_symbol
_atom_site_label
_atom_site_fract_x
_atom_site_fract_y
_atom_site_fract_z
Si Si1 0.653615 0.907279 0.051576
Si Si2 0.531902 0.903531 0.619278
Si Si3 0.830006 0.498427 0.889588
Si Si4 0.538744 0.630365 0.201732
Si Si5 0.828945 0.331230 0.709642
Si Si6 0.093004 0.346042 0.551078
O O1 0.682283 0.841142 0.064831
O O2 0.570707 0.887844 0.076964
O O3 0.726149 0.000000 0.063454
O O4 0.632004 0.900094 0.000000
O O5 0.434609 0.869218 0.609874
O O6 0.547216 0.865985 0.664085
O O7 0.570736 0.879664 0.578521
O O8 0.576734 0.000000 0.626249
O O9 0.734450 0.468899 0.897788
O O10 0.845275 0.422638 0.898006
O O11 0.852561 0.533325 0.839731
O O12 0.454858 0.545143 0.205692
O O13 0.614861 0.614861 0.194473
O O14 0.554082 0.681481 0.247265
O O15 0.844770 0.422385 0.709864
O O16 0.732440 0.267561 0.711939
O O17 0.097354 0.371256 0.500000
O O18 0.156460 0.312920 0.560904
O O19 0.000000 0.274512 0.563597
#
# Coordination Sequence:
#
# PCOD8328317 Si02
#       6
#    24  24  24  24  24  24
#     4   9  18  32  49  68  89 114 144 178 217 260
#     4   9  17  28  42  60  81 106 137 172 207 244
#     4  10  19  30  44  63  88 117 149 183 217 253
#     4   9  17  28  41  56  75 102 137 177 217 253
#     4  10  18  27  39  55  77 104 134 168 207 251
#     4   9  17  29  45  64  85 109 138 172 210 253
#
# _framework density 15.658172
#
# number of rings (size 3 to 8) (size 9 to 14) (size 15 to 20)
#    0.000    2.667    0.000    2.333    0.000    3.667 
#    0.000    4.167    0.000    1.667    0.000    2.333 
#    0.000    0.000    0.000    0.000    0.000    0.000 
#
# Total GULP energy -1785000.396002 kJ/mol
# GULP energy per Si atom -12395.836083 kJ/mol
# Density = 1.562253 g / cm^3
# Si number density = 15.658172 Si / 1000 Ang^3
#
#
#
# Elastic Constant Matrix: (Units=GPa)
#
#
# Indices 1 2 3 4 5 6 
#
# 1 72.6186 43.2313 41.3525 0.0000 0.0000 0.0000
# 2 43.2313 72.6186 41.3525 0.0000 0.0000 0.0000
# 3 41.3525 41.3525 79.9343 0.0000 0.0000 0.0000
# 4 0.0000 0.0000 0.0000 20.5811 0.0000 0.0000
# 5 0.0000 0.0000 0.0000 0.0000 20.5811 0.0000
# 6 0.0000 0.0000 0.0000 0.0000 0.0000 14.6936
#
#
#
# Elastic Compliance Matrix: (Units=1/GPa)
#
#
# Indices 1 2 3 4 5 6 
#
# 1 0.023857 -0.010171 -0.007081 0.000000 0.000000 0.000000
# 2 -0.010171 0.023857 -0.007081 0.000000 0.000000 0.000000
# 3 -0.007081 -0.007081 0.019836 0.000000 0.000000 0.000000
# 4 0.000000 0.000000 0.000000 0.048588 0.000000 0.000000
# 5 0.000000 0.000000 0.000000 0.000000 0.048588 0.000000
# 6 0.000000 0.000000 0.000000 0.000000 0.000000 0.068057
#
#
# Mechanical properties :
#
#
# Convention : Reuss Voigt Hill
#
# Bulk Modulus (GPa) = 52.94537 53.00492 52.97515
# Shear Modulus (GPa) = 17.37656 17.78684 17.58170
#
# Velocity S-wave (km/s) = 3.33490 3.37404 3.35452
# Velocity P-wave (km/s) = 6.97964 7.00740 6.99353
#
# Compressibility (1/GPa) = 0.01888739
#
# Stress axis : x y z
#
# Youngs Moduli (GPa) = 41.91560 41.91560 50.41286
#
# Poissons Ratio (x) = 0.42632 0.35695
# Poissons Ratio (y) = 0.42632 0.35695
# Poissons Ratio (z) = 0.29678 0.29678
#
# Static dielectric constant tensor:
#      x y z
#    x 2.921040 0.000000 0.000000 
#    y 0.000000 2.921040 0.000000 
#    z 0.000000 0.000000 3.215880 
# 
# 
# High freq. dielectric constant tensor:
#      x y z
#    x 1.581030 0.000000 0.000000 
#    y 0.000000 1.581030 0.000000 
#    z 0.000000 0.000000 1.613550 
# 
# From -- ./inp_files/9948.got.cif
#   From: 2010.03.12/outbox.cif.g09.slc.cpg/sg191_5_cif.got.tgz:9948.got - 2010.04.01 12:09:02.
