data_PCOD8328476
_publ_section_title
;
Structure prediction by ZEFSAII (Michael W. Deem and Ramdas Pophale) SiO2 
 PCOD8328476
Probable space group: P 6/M M M
;
_chemical_formula_sum "Si O2"
_cell_formula_units_Z 192
_cell_length_a 23.277016
_cell_length_b 23.277016
_cell_length_c 24.259392
_cell_angle_alpha 90.000000
_cell_angle_beta 90.000000
_cell_angle_gamma 120.000000
_cell_volume 11383.220647
_symmetry_space_group_name_H-M "P 6/M M M"
_symmetry_group_IT_number 191
_symmetry_cell_setting 'hexagonal'
loop_
_space_group_symop_operation_xyz
x,y,z
x-y,x,z
-y,x-y,z
-x,-y,z
-x+y,-x,z
y,-x+y,z
x-y,-y,-z
-x,-x+y,-z
y,x,-z
-y,-x,-z
-x+y,y,-z
x,x-y,-z
-x,-y,-z
-x+y,-x,-z
y,-x+y,-z
x,y,-z
x-y,x,-z
-y,x-y,-z
-x+y,y,z
x,x-y,z
-y,-x,z
y,x,z
x-y,-y,z
-x,-x+y,z
loop_
_atom_site_type_symbol
_atom_site_label
_atom_site_fract_x
_atom_site_fract_y
_atom_site_fract_z
Si Si1 0.602431 0.524316 0.913947
Si Si2 0.078430 0.600624 0.789595
Si Si3 0.865221 0.265618 0.616906
Si Si4 0.924300 0.207547 0.838633
Si Si5 0.254205 0.378574 0.060510
Si Si6 0.286873 0.364692 0.734977
Si Si7 0.730654 0.802133 0.564784
Si Si8 0.199879 0.533357 0.435622
O O1 0.546961 0.453040 0.939546
O O2 0.575558 0.575558 0.918470
O O3 0.616365 0.512129 0.851649
O O4 0.673073 0.556510 0.943786
O O5 0.099350 0.549675 0.763014
O O6 0.108003 0.667681 0.755312
O O7 0.000000 0.567612 0.791219
O O8 0.795228 0.204773 0.599836
O O9 0.881546 0.256826 0.679617
O O10 0.919759 0.260678 0.579607
O O11 0.857208 0.328825 0.600567
O O12 0.871197 0.128804 0.844851
O O13 0.919711 0.248543 0.890721
O O14 0.908277 0.232320 0.781592
O O15 0.000000 0.221301 0.837344
O O16 0.201241 0.402482 0.072330
O O17 0.240137 0.343341 0.000000
O O18 0.329004 0.329004 0.721239
O O19 0.736199 0.809711 0.500000
O O20 0.741346 0.870673 0.591856
O O21 0.787329 0.787329 0.587656
O O22 0.183419 0.516422 0.500000
O O23 0.273801 0.547601 0.422231
O O24 0.196288 0.598144 0.418674
#
# Coordination Sequence:
#
# PCOD8328476 Si02
#       8
#    24  24  24  24  24  24  24  24
#     4   9  16  28  47  69  91 116 150 193 236 273
#     4   8  14  25  41  61  86 116 148 181 220 264
#     4  10  19  29  43  67  94 119 153 196 239 281
#     4  10  20  34  51  71  96 126 157 191 235 287
#     4  10  20  32  47  70 100 130 159 194 238 288
#     4  10  18  29  46  66  91 124 156 188 227 276
#     4   9  17  30  48  68  91 119 149 182 222 269
#     4   9  17  30  48  68  91 122 163 210 255 294
#
# _framework density 16.866931999999998
#
# number of rings (size 3 to 8) (size 9 to 14) (size 15 to 20)
#    0.000    2.625    1.250    2.375    0.000    3.750 
#    0.000    0.625    0.000    1.625    0.000    5.250 
#    0.000    0.000    0.000    7.125    0.000    2.750 
#
# Total GULP energy -2378507.680012 kJ/mol
# GULP energy per Si atom -12388.060833 kJ/mol
# Density = 1.682854 g / cm^3
# Si number density = 16.866932 Si / 1000 Ang^3
#
#
#
# Elastic Constant Matrix: (Units=GPa)
#
#
# Indices 1 2 3 4 5 6 
#
# 1 89.6146 48.4234 27.9581 0.0000 0.0000 0.0000
# 2 48.4234 89.6146 27.9581 0.0000 0.0000 0.0000
# 3 27.9581 27.9581 51.9839 0.0000 0.0000 0.0000
# 4 0.0000 0.0000 0.0000 15.6963 0.0000 0.0000
# 5 0.0000 0.0000 0.0000 0.0000 15.6963 0.0000
# 6 0.0000 0.0000 0.0000 0.0000 0.0000 20.5956
#
#
#
# Elastic Compliance Matrix: (Units=1/GPa)
#
#
# Indices 1 2 3 4 5 6 
#
# 1 0.016770 -0.007507 -0.004981 0.000000 0.000000 0.000000
# 2 -0.007507 0.016770 -0.004981 0.000000 0.000000 0.000000
# 3 -0.004981 -0.004981 0.024595 0.000000 0.000000 0.000000
# 4 0.000000 0.000000 0.000000 0.063709 0.000000 0.000000
# 5 0.000000 0.000000 0.000000 0.000000 0.063709 0.000000
# 6 0.000000 0.000000 0.000000 0.000000 0.000000 0.048554
#
#
# Mechanical properties :
#
#
# Convention : Reuss Voigt Hill
#
# Bulk Modulus (GPa) = 43.11515 48.87694 45.99605
# Shear Modulus (GPa) = 18.06498 18.85588 18.46043
#
# Velocity S-wave (km/s) = 3.27621 3.34716 3.31187
# Velocity P-wave (km/s) = 6.31893 6.63165 6.47718
#
# Compressibility (1/GPa) = 0.02319370
#
# Stress axis : x y z
#
# Youngs Moduli (GPa) = 59.63160 59.63160 40.65869
#
# Poissons Ratio (x) = 0.44768 0.20254
# Poissons Ratio (y) = 0.44768 0.20254
# Poissons Ratio (z) = 0.29705 0.29705
#
# Static dielectric constant tensor:
#      x y z
#    x 3.195540 0.000000 0.000000 
#    y 0.000000 3.195540 0.000000 
#    z 0.000000 0.000000 3.140850 
# 
# 
# High freq. dielectric constant tensor:
#      x y z
#    x 1.630770 0.000000 0.000000 
#    y 0.000000 1.630770 0.000000 
#    z 0.000000 0.000000 1.650330 
# 
# From -- ./inp_files/8152.got.cif
#   From: 2010.03.12/outbox.cif.g09.slc.cpg/sg191_5_cif.got.tgz:8152.got - 2010.04.01 12:09:02.
