data_PCOD8328854
_publ_section_title
;
Structure prediction by ZEFSAII (Michael W. Deem and Ramdas Pophale) SiO2 
 PCOD8328854
Probable space group: P 6/M M M
;
_chemical_formula_sum "Si O2"
_cell_formula_units_Z 132
_cell_length_a 27.359304
_cell_length_b 27.359304
_cell_length_c 12.715067
_cell_angle_alpha 90.000000
_cell_angle_beta 90.000000
_cell_angle_gamma 120.000000
_cell_volume 8242.507952
_symmetry_space_group_name_H-M "P 6/M M M"
_symmetry_group_IT_number 191
_symmetry_cell_setting 'hexagonal'
loop_
_space_group_symop_operation_xyz
x,y,z
x-y,x,z
-y,x-y,z
-x,-y,z
-x+y,-x,z
y,-x+y,z
x-y,-y,-z
-x,-x+y,-z
y,x,-z
-y,-x,-z
-x+y,y,-z
x,x-y,-z
-x,-y,-z
-x+y,-x,-z
y,-x+y,-z
x,y,-z
x-y,x,-z
-y,x-y,-z
-x+y,y,z
x,x-y,z
-y,-x,z
y,x,z
x-y,-y,z
-x,-x+y,z
loop_
_atom_site_type_symbol
_atom_site_label
_atom_site_fract_x
_atom_site_fract_y
_atom_site_fract_z
Si Si1 0.936945 0.172730 0.622133
Si Si2 0.334244 0.777247 0.000000
Si Si3 0.631675 0.480847 0.791336
Si Si4 0.830321 0.548469 0.618824
Si Si5 0.064478 0.408129 0.883963
Si Si6 0.657440 0.935460 0.303259
O O1 0.931806 0.184603 0.500000
O O2 0.891855 0.108145 0.652376
O O3 0.923434 0.214396 0.688838
O O4 0.000000 0.184430 0.647359
O O5 0.343402 0.812173 0.105195
O O6 0.270567 0.729434 0.000000
O O7 0.375808 0.751616 0.000000
O O8 0.572214 0.427787 0.757141
O O9 0.675024 0.498029 0.694464
O O10 0.623743 0.533367 0.820847
O O11 0.823502 0.525876 0.500000
O O12 0.781663 0.563325 0.647194
O O13 0.891172 0.605033 0.627086
O O14 0.073094 0.362324 0.818569
O O15 0.000000 0.389983 0.895604
O O16 0.091588 0.414257 0.000000
O O17 0.678203 0.000000 0.340631
#
# Coordination Sequence:
#
# PCOD8328854 Si02
#       6
#    24  12  24  24  24  24
#     4   9  16  26  42  64  90 121 158 199 239 279
#     4  10  19  32  49  67  85 105 133 175 223 266
#     4  10  20  33  49  69  90 114 147 186 226 267
#     4  10  20  33  49  68  92 123 155 187 229 282
#     4   9  17  30  47  67  93 122 150 181 217 263
#     4   9  17  28  45  69  95 123 155 190 228 274
#
# _framework density 16.014541999999999
#
# number of rings (size 3 to 8) (size 9 to 14) (size 15 to 20)
#    0.000    2.545    0.909    1.727    0.000    3.273 
#    0.000    0.909    0.000    0.545    0.000    6.364 
#    0.000    0.000    0.000    0.000    0.000    0.000 
#
# Total GULP energy -1636173.058827 kJ/mol
# GULP energy per Si atom -12395.250446 kJ/mol
# Density = 1.597809 g / cm^3
# Si number density = 16.014542 Si / 1000 Ang^3
#
#
#
# Elastic Constant Matrix: (Units=GPa)
#
#
# Indices 1 2 3 4 5 6 
#
# 1 97.3165 56.4459 44.0268 0.0000 0.0000 0.0000
# 2 56.4459 97.3165 44.0268 0.0000 0.0000 0.0000
# 3 44.0268 44.0268 90.5565 0.0000 0.0000 0.0000
# 4 0.0000 0.0000 0.0000 21.6375 0.0000 0.0000
# 5 0.0000 0.0000 0.0000 0.0000 21.6375 0.0000
# 6 0.0000 0.0000 0.0000 0.0000 0.0000 20.4353
#
#
#
# Elastic Compliance Matrix: (Units=1/GPa)
#
#
# Indices 1 2 3 4 5 6 
#
# 1 0.016740 -0.007727 -0.004382 0.000000 0.000000 0.000000
# 2 -0.007727 0.016740 -0.004382 0.000000 0.000000 0.000000
# 3 -0.004382 -0.004382 0.015304 0.000000 0.000000 0.000000
# 4 0.000000 0.000000 0.000000 0.046216 0.000000 0.000000
# 5 0.000000 0.000000 0.000000 0.000000 0.046216 0.000000
# 6 0.000000 0.000000 0.000000 0.000000 0.000000 0.048935
#
#
# Mechanical properties :
#
#
# Convention : Reuss Voigt Hill
#
# Bulk Modulus (GPa) = 63.28386 63.79872 63.54129
# Shear Modulus (GPa) = 21.89139 22.12140 22.00639
#
# Velocity S-wave (km/s) = 3.70127 3.72066 3.71098
# Velocity P-wave (km/s) = 7.60711 7.64083 7.62399
#
# Compressibility (1/GPa) = 0.01580182
#
# Stress axis : x y z
#
# Youngs Moduli (GPa) = 59.73654 59.73654 65.34416
#
# Poissons Ratio (x) = 0.46160 0.28633
# Poissons Ratio (y) = 0.46160 0.28633
# Poissons Ratio (z) = 0.26176 0.26176
#
# Static dielectric constant tensor:
#      x y z
#    x 3.036910 0.000000 0.000000 
#    y 0.000000 3.036910 0.000000 
#    z 0.000000 0.000000 3.106440 
# 
# 
# High freq. dielectric constant tensor:
#      x y z
#    x 1.608890 0.000000 0.000000 
#    y 0.000000 1.608890 0.000000 
#    z 0.000000 0.000000 1.611250 
# 
# From -- ./inp_files/3341.got.cif
#   From: 2010.03.12/outbox.cif.g09.slc.cpg/sg191_2_cif.got.tgz:3341.got - 2010.04.01 12:09:02.
