data_PCOD8328749
_publ_section_title
;
Structure prediction by ZEFSAII (Michael W. Deem and Ramdas Pophale) SiO2 
 PCOD8328749
Probable space group: P 6/M M M
;
_chemical_formula_sum "Si O2"
_cell_formula_units_Z 108
_cell_length_a 17.499876
_cell_length_b 17.499876
_cell_length_c 26.793878
_cell_angle_alpha 90.000000
_cell_angle_beta 90.000000
_cell_angle_gamma 120.000000
_cell_volume 7106.179117
_symmetry_space_group_name_H-M "P 6/M M M"
_symmetry_group_IT_number 191
_symmetry_cell_setting 'hexagonal'
loop_
_space_group_symop_operation_xyz
x,y,z
x-y,x,z
-y,x-y,z
-x,-y,z
-x+y,-x,z
y,-x+y,z
x-y,-y,-z
-x,-x+y,-z
y,x,-z
-y,-x,-z
-x+y,y,-z
x,x-y,-z
-x,-y,-z
-x+y,-x,-z
y,-x+y,-z
x,y,-z
x-y,x,-z
-y,x-y,-z
-x+y,y,z
x,x-y,z
-y,-x,z
y,x,z
x-y,-y,z
-x,-x+y,z
loop_
_atom_site_type_symbol
_atom_site_label
_atom_site_fract_x
_atom_site_fract_y
_atom_site_fract_z
Si Si1 0.332141 0.843996 0.852278
Si Si2 0.590471 0.000000 0.670747
Si Si3 0.486581 0.331720 0.400979
Si Si4 0.632336 0.901306 0.943501
Si Si5 0.624952 0.899097 0.500000
Si Si6 0.590842 0.000000 0.217745
O O1 0.415786 0.831572 0.850554
O O2 0.247794 0.752207 0.838310
O O3 0.327015 0.877293 0.907474
O O4 0.337101 0.913629 0.811393
O O5 0.573949 0.912177 0.642196
O O6 0.500000 0.000000 0.673627
O O7 0.625610 0.000000 0.726458
O O8 0.500706 0.250353 0.387871
O O9 0.581045 0.418956 0.404747
O O10 0.436900 0.318930 0.452769
O O11 0.670161 0.835081 0.933845
O O12 0.711869 0.000000 0.933104
O O13 0.596638 0.891929 0.000000
O O14 0.663843 0.831922 0.500000
O O15 0.705895 0.000000 0.500000
O O16 0.500000 0.000000 0.219154
#
# Coordination Sequence:
#
# PCOD8328749 Si02
#       6
#    24  12  24  24  12  12
#     4  10  19  31  46  65  89 118 151 188 229 272
#     4   9  18  31  46  62  86 119 152 191 232 266
#     4  10  19  30  46  68  95 125 156 188 226 271
#     4   9  17  29  46  68  92 118 147 180 221 270
#     4  10  19  31  49  72  97 124 152 186 227 273
#     4   9  18  32  46  62  84 114 153 192 230 268
#
# _framework density 15.198041
#
# number of rings (size 3 to 8) (size 9 to 14) (size 15 to 20)
#    0.000    2.444    2.222    0.778    0.000    1.778 
#    0.000    2.222    0.000    4.333    0.000    1.556 
#    0.000    0.000    0.000    0.000    0.000   20.222 
#
# Total GULP energy -1338967.087299 kJ/mol
# GULP energy per Si atom -12397.843401 kJ/mol
# Density = 1.516345 g / cm^3
# Si number density = 15.198041 Si / 1000 Ang^3
#
#
#
# Elastic Constant Matrix: (Units=GPa)
#
#
# Indices 1 2 3 4 5 6 
#
# 1 99.7719 59.5742 52.9107 0.0000 0.0000 0.0000
# 2 59.5742 99.7719 52.9107 0.0000 0.0000 0.0000
# 3 52.9107 52.9107 119.9011 0.0000 0.0000 0.0000
# 4 0.0000 0.0000 0.0000 12.2114 0.0000 0.0000
# 5 0.0000 0.0000 0.0000 0.0000 12.2114 0.0000
# 6 0.0000 0.0000 0.0000 0.0000 0.0000 20.0989
#
#
#
# Elastic Compliance Matrix: (Units=1/GPa)
#
#
# Indices 1 2 3 4 5 6 
#
# 1 0.016877 -0.008000 -0.003917 0.000000 0.000000 0.000000
# 2 -0.008000 0.016877 -0.003917 0.000000 0.000000 0.000000
# 3 -0.003917 -0.003917 0.011798 0.000000 0.000000 0.000000
# 4 0.000000 0.000000 0.000000 0.081891 0.000000 0.000000
# 5 0.000000 0.000000 0.000000 0.000000 0.081891 0.000000
# 6 0.000000 0.000000 0.000000 0.000000 0.000000 0.049754
#
#
# Mechanical properties :
#
#
# Convention : Reuss Voigt Hill
#
# Bulk Modulus (GPa) = 72.03355 72.24845 72.14100
# Shear Modulus (GPa) = 16.92711 19.17428 18.05069
#
# Velocity S-wave (km/s) = 3.34094 3.55579 3.45004
# Velocity P-wave (km/s) = 7.89823 8.03115 7.96497
#
# Compressibility (1/GPa) = 0.01388242
#
# Stress axis : x y z
#
# Youngs Moduli (GPa) = 59.25187 59.25187 84.76316
#
# Poissons Ratio (x) = 0.47401 0.33205
# Poissons Ratio (y) = 0.47401 0.33205
# Poissons Ratio (z) = 0.23211 0.23211
#
# Static dielectric constant tensor:
#      x y z
#    x 2.889820 0.000000 0.000000 
#    y 0.000000 2.889820 0.000000 
#    z 0.000000 0.000000 3.166620 
# 
# 
# High freq. dielectric constant tensor:
#      x y z
#    x 1.569110 0.000000 0.000000 
#    y 0.000000 1.569110 0.000000 
#    z 0.000000 0.000000 1.592650 
# 
# From -- ./inp_files/8459.got.cif
#   From: 2010.03.12/outbox.cif.g09.slc.cpg/sg191_5_cif.got.tgz:8459.got - 2010.04.01 12:09:02.
