data_PCOD8328231
_publ_section_title
;
Structure prediction by ZEFSAII (Michael W. Deem and Ramdas Pophale) SiO2 
 PCOD8328231
Probable space group: P 6/M M M
;
_chemical_formula_sum "Si O2"
_cell_formula_units_Z 96
_cell_length_a 32.721195
_cell_length_b 32.721195
_cell_length_c 7.744161
_cell_angle_alpha 90.000000
_cell_angle_beta 90.000000
_cell_angle_gamma 120.000000
_cell_volume 7180.642696
_symmetry_space_group_name_H-M "P 6/M M M"
_symmetry_group_IT_number 191
_symmetry_cell_setting 'hexagonal'
loop_
_space_group_symop_operation_xyz
x,y,z
x-y,x,z
-y,x-y,z
-x,-y,z
-x+y,-x,z
y,-x+y,z
x-y,-y,-z
-x,-x+y,-z
y,x,-z
-y,-x,-z
-x+y,y,-z
x,x-y,-z
-x,-y,-z
-x+y,-x,-z
y,-x+y,-z
x,y,-z
x-y,x,-z
-y,x-y,-z
-x+y,y,z
x,x-y,z
-y,-x,z
y,x,z
x-y,-y,z
-x,-x+y,z
loop_
_atom_site_type_symbol
_atom_site_label
_atom_site_fract_x
_atom_site_fract_y
_atom_site_fract_z
Si Si1 0.947524 0.800561 0.500000
Si Si2 0.944073 0.370602 0.808091
Si Si3 0.056379 0.574165 0.500000
Si Si4 0.088591 0.818702 0.193995
Si Si5 0.716481 0.662673 0.703972
O O1 0.908643 0.817285 0.500000
O O2 0.943564 0.770380 0.669588
O O3 0.000000 0.846384 0.500000
O O4 0.923866 0.392819 0.669808
O O5 0.924564 0.315332 0.772413
O O6 0.000000 0.396729 0.786897
O O7 0.929177 0.377482 0.000000
O O8 0.076479 0.538240 0.500000
O O9 0.000000 0.545424 0.500000
O O10 0.143063 0.856938 0.227562
O O11 0.084550 0.768227 0.217286
O O12 0.072931 0.823353 0.000000
O O13 0.718467 0.661570 0.500000
O O14 0.695242 0.695242 0.767012
#
# Coordination Sequence:
#
# PCOD8328231 Si02
#       5
#    12  24  12  24  24
#     4  10  20  33  47  63  82 102 123 148 180 222
#     4   9  16  25  36  50  68  91 120 151 183 219
#     4   9  16  25  35  48  67  88 114 151 191 227
#     4  10  20  31  43  61  83 104 125 150 183 224
#     4  10  17  26  41  57  74  98 125 153 184 218
#
# _framework density 13.369277
#
# number of rings (size 3 to 8) (size 9 to 14) (size 15 to 20)
#    0.000    2.375    2.500    1.500    0.000    3.500 
#    0.000    2.500    0.000    0.125    0.000    0.000 
#    0.000    0.000    0.000    6.250    0.000    0.000 
#
# Total GULP energy -1190149.221940 kJ/mol
# GULP energy per Si atom -12397.387729 kJ/mol
# Density = 1.333885 g / cm^3
# Si number density = 13.369277 Si / 1000 Ang^3
#
#
#
# Elastic Constant Matrix: (Units=GPa)
#
#
# Indices 1 2 3 4 5 6 
#
# 1 68.6139 32.3078 35.4447 0.0000 0.0000 0.0000
# 2 32.3078 68.6139 35.4447 0.0000 0.0000 0.0000
# 3 35.4447 35.4447 102.9664 0.0000 0.0000 0.0000
# 4 0.0000 0.0000 0.0000 10.4887 0.0000 0.0000
# 5 0.0000 0.0000 0.0000 0.0000 10.4887 0.0000
# 6 0.0000 0.0000 0.0000 0.0000 0.0000 18.1530
#
#
#
# Elastic Compliance Matrix: (Units=1/GPa)
#
#
# Indices 1 2 3 4 5 6 
#
# 1 0.020306 -0.007237 -0.004499 0.000000 0.000000 0.000000
# 2 -0.007237 0.020306 -0.004499 0.000000 0.000000 0.000000
# 3 -0.004499 -0.004499 0.012809 0.000000 0.000000 0.000000
# 4 0.000000 0.000000 0.000000 0.095341 0.000000 0.000000
# 5 0.000000 0.000000 0.000000 0.000000 0.095341 0.000000
# 6 0.000000 0.000000 0.000000 0.000000 0.000000 0.055087
#
#
# Mechanical properties :
#
#
# Convention : Reuss Voigt Hill
#
# Bulk Modulus (GPa) = 47.72896 49.62096 48.67496
# Shear Modulus (GPa) = 14.76480 16.95922 15.86201
#
# Velocity S-wave (km/s) = 3.32683 3.56550 3.44823
# Velocity P-wave (km/s) = 7.10880 7.35844 7.23470
#
# Compressibility (1/GPa) = 0.02095164
#
# Stress axis : x y z
#
# Youngs Moduli (GPa) = 49.24626 49.24626 78.06932
#
# Poissons Ratio (x) = 0.35642 0.35121
# Poissons Ratio (y) = 0.35642 0.35121
# Poissons Ratio (z) = 0.22154 0.22154
#
# Static dielectric constant tensor:
#      x y z
#    x 2.494480 0.000000 0.000000 
#    y 0.000000 2.494480 0.000000 
#    z 0.000000 0.000000 2.939490 
# 
# 
# High freq. dielectric constant tensor:
#      x y z
#    x 1.470050 0.000000 0.000000 
#    y 0.000000 1.470050 0.000000 
#    z 0.000000 0.000000 1.535080 
# 
# From -- ./inp_files/1601.got.cif
#   From: 2010.03.12/outbox.cif.g09.slc.cpg/sg191_1_cif.got.tgz:1601.got - 2010.04.01 12:09:02.
