data_PCOD8328252
_publ_section_title
;
Structure prediction by ZEFSAII (Michael W. Deem and Ramdas Pophale) SiO2 
 PCOD8328252
Probable space group: P 6/M M M
;
_chemical_formula_sum "Si O2"
_cell_formula_units_Z 168
_cell_length_a 22.674688
_cell_length_b 22.674688
_cell_length_c 21.649219
_cell_angle_alpha 90.000000
_cell_angle_beta 90.000000
_cell_angle_gamma 120.000000
_cell_volume 9639.522143
_symmetry_space_group_name_H-M "P 6/M M M"
_symmetry_group_IT_number 191
_symmetry_cell_setting 'hexagonal'
loop_
_space_group_symop_operation_xyz
x,y,z
x-y,x,z
-y,x-y,z
-x,-y,z
-x+y,-x,z
y,-x+y,z
x-y,-y,-z
-x,-x+y,-z
y,x,-z
-y,-x,-z
-x+y,y,-z
x,x-y,-z
-x,-y,-z
-x+y,-x,-z
y,-x+y,-z
x,y,-z
x-y,x,-z
-y,x-y,-z
-x+y,y,z
x,x-y,z
-y,-x,z
y,x,z
x-y,-y,z
-x,-x+y,z
loop_
_atom_site_type_symbol
_atom_site_label
_atom_site_fract_x
_atom_site_fract_y
_atom_site_fract_z
Si Si1 0.074959 0.279172 0.426758
Si Si2 0.138810 0.725622 0.787472
Si Si3 0.393384 0.919220 0.310795
Si Si4 0.788303 0.711959 0.127205
Si Si5 0.462430 0.666269 0.868303
Si Si6 0.919525 0.333344 0.432238
Si Si7 0.360150 0.511816 0.000000
Si Si8 0.250843 0.884828 0.000000
O O1 0.070772 0.271355 0.500000
O O2 0.130353 0.260705 0.399478
O O3 0.099804 0.357465 0.410088
O O4 0.000000 0.227878 0.398279
O O5 0.209059 0.790942 0.765248
O O6 0.108579 0.672738 0.731786
O O7 0.088424 0.749536 0.815548
O O8 0.150062 0.686239 0.843489
O O9 0.446586 0.893171 0.293412
O O10 0.366999 0.894154 0.380783
O O11 0.431715 0.000000 0.306408
O O12 0.868914 0.737827 0.130378
O O13 0.775939 0.775939 0.134279
O O14 0.758668 0.677497 0.061152
O O15 0.440536 0.720268 0.846433
O O16 0.407195 0.592806 0.841654
O O17 0.465856 0.667031 0.941752
O O18 0.887262 0.331832 0.500000
O O19 0.000000 0.376605 0.438861
O O20 0.444147 0.555854 0.000000
O O21 0.328136 0.430143 0.000000
O O22 0.196244 0.803757 0.000000
#
# Coordination Sequence:
#
# PCOD8328252 Si02
#       8
#    24  24  24  24  24  24  12  12
#     4   8  13  22  38  61  89 120 153 190 233 280
#     4  10  20  33  49  67  93 131 167 198 234 280
#     4  10  20  33  49  70  97 125 154 193 241 291
#     4  10  20  34  55  78 100 128 164 206 249 297
#     4  10  18  28  43  63  89 122 163 209 250 284
#     4   8  15  28  45  66  91 118 150 190 237 288
#     4  10  18  27  44  66  95 129 165 212 255 288
#     4  10  17  31  51  72  99 131 168 211 256 299
#
# _framework density 17.428249000000001
#
# number of rings (size 3 to 8) (size 9 to 14) (size 15 to 20)
#    0.000    2.571    1.429    2.714    0.000    0.857 
#    0.000    2.143    0.000    2.429    0.000    1.000 
#    0.000    1.714    0.000    0.000    0.000   18.571 
#
# Total GULP energy -2081456.120880 kJ/mol
# GULP energy per Si atom -12389.619767 kJ/mol
# Density = 1.738858 g / cm^3
# Si number density = 17.428249 Si / 1000 Ang^3
#
#
#
# Elastic Constant Matrix: (Units=GPa)
#
#
# Indices 1 2 3 4 5 6 
#
# 1 90.2362 51.5203 32.1606 0.0000 0.0000 0.0000
# 2 51.5203 90.2362 32.1606 0.0000 0.0000 0.0000
# 3 32.1606 32.1606 80.4471 0.0000 0.0000 0.0000
# 4 0.0000 0.0000 0.0000 18.7654 0.0000 0.0000
# 5 0.0000 0.0000 0.0000 0.0000 18.7654 0.0000
# 6 0.0000 0.0000 0.0000 0.0000 0.0000 19.3579
#
#
#
# Elastic Compliance Matrix: (Units=1/GPa)
#
#
# Indices 1 2 3 4 5 6 
#
# 1 0.017223 -0.008606 -0.003445 0.000000 0.000000 0.000000
# 2 -0.008606 0.017223 -0.003445 0.000000 0.000000 0.000000
# 3 -0.003445 -0.003445 0.015185 0.000000 0.000000 0.000000
# 4 0.000000 0.000000 0.000000 0.053290 0.000000 0.000000
# 5 0.000000 0.000000 0.000000 0.000000 0.053290 0.000000
# 6 0.000000 0.000000 0.000000 0.000000 0.000000 0.051658
#
#
# Mechanical properties :
#
#
# Convention : Reuss Voigt Hill
#
# Bulk Modulus (GPa) = 53.64856 54.73362 54.19109
# Shear Modulus (GPa) = 20.40196 21.04960 20.72578
#
# Velocity S-wave (km/s) = 3.42515 3.47909 3.45223
# Velocity P-wave (km/s) = 6.81847 6.90015 6.85943
#
# Compressibility (1/GPa) = 0.01863983
#
# Stress axis : x y z
#
# Youngs Moduli (GPa) = 58.06068 58.06068 65.85437
#
# Poissons Ratio (x) = 0.49966 0.22687
# Poissons Ratio (y) = 0.49966 0.22687
# Poissons Ratio (z) = 0.20002 0.20002
#
# Static dielectric constant tensor:
#      x y z
#    x 3.237050 0.000000 0.000000 
#    y 0.000000 3.237050 0.000000 
#    z 0.000000 0.000000 3.377820 
# 
# 
# High freq. dielectric constant tensor:
#      x y z
#    x 1.652110 0.000000 0.000000 
#    y 0.000000 1.652110 0.000000 
#    z 0.000000 0.000000 1.662570 
# 
# From -- ./inp_files/8056.got.cif
#   From: 2010.03.12/outbox.cif.g09.slc.cpg/sg191_5_cif.got.tgz:8056.got - 2010.04.01 12:09:02.
