data_PCOD8328437
_publ_section_title
;
Structure prediction by ZEFSAII (Michael W. Deem and Ramdas Pophale) SiO2 
 PCOD8328437
Probable space group: P 6/M M M
;
_chemical_formula_sum "Si O2"
_cell_formula_units_Z 144
_cell_length_a 20.978042
_cell_length_b 20.978042
_cell_length_c 23.674042
_cell_angle_alpha 90.000000
_cell_angle_beta 90.000000
_cell_angle_gamma 120.000000
_cell_volume 9022.625812
_symmetry_space_group_name_H-M "P 6/M M M"
_symmetry_group_IT_number 191
_symmetry_cell_setting 'hexagonal'
loop_
_space_group_symop_operation_xyz
x,y,z
x-y,x,z
-y,x-y,z
-x,-y,z
-x+y,-x,z
y,-x+y,z
x-y,-y,-z
-x,-x+y,-z
y,x,-z
-y,-x,-z
-x+y,y,-z
x,x-y,-z
-x,-y,-z
-x+y,-x,-z
y,-x+y,-z
x,y,-z
x-y,x,-z
-y,x-y,-z
-x+y,y,z
x,x-y,z
-y,-x,z
y,x,z
x-y,-y,z
-x,-x+y,z
loop_
_atom_site_type_symbol
_atom_site_label
_atom_site_fract_x
_atom_site_fract_y
_atom_site_fract_z
Si Si1 0.912902 0.456451 0.062464
Si Si2 0.465276 0.305875 0.370135
Si Si3 0.774248 0.083156 0.678389
Si Si4 0.084384 0.542192 0.433230
Si Si5 0.807430 0.472973 0.248295
Si Si6 0.082001 0.306216 0.808445
Si Si7 0.915239 0.556792 0.152690
O O1 0.886968 0.507436 0.095777
O O2 0.000000 0.500000 0.056102
O O3 0.876496 0.438248 0.000000
O O4 0.480292 0.240146 0.389829
O O5 0.377856 0.273218 0.362483
O O6 0.498868 0.372458 0.414392
O O7 0.503441 0.339286 0.311159
O O8 0.861413 0.138588 0.667804
O O9 0.755646 0.090711 0.743791
O O10 0.754989 0.000000 0.664718
O O11 0.084808 0.542404 0.500000
O O12 0.000000 0.500000 0.410349
O O13 0.748700 0.497399 0.230721
O O14 0.769651 0.384826 0.245223
O O15 0.875211 0.507828 0.206286
O O16 0.139427 0.278854 0.822664
O O17 0.097290 0.373279 0.850289
O O18 0.000000 0.237555 0.818148
O O19 0.000000 0.582793 0.162355
#
# Coordination Sequence:
#
# PCOD8328437 Si02
#       7
#    12  24  24  12  24  24  24
#     4   9  18  31  45  65  93 124 159 195 231 279
#     4  10  20  34  51  71  95 123 158 201 246 295
#     4   9  16  27  45  70  98 125 152 188 236 284
#     4  11  24  39  53  71  95 128 169 209 247 287
#     4  11  20  31  46  69  93 119 146 189 242 292
#     4   9  16  26  42  67  96 122 150 188 235 285
#     4  10  18  28  46  70  92 117 152 193 240 286
#
# _framework density 15.959878
#
# number of rings (size 3 to 8) (size 9 to 14) (size 15 to 20)
#    0.000    2.167    3.333    1.167    0.000    1.000 
#    0.500    0.000    0.000    2.333    0.000    2.333 
#    0.000    0.000    0.000    0.000    0.000    0.000 
#
# Total GULP energy -1784827.559204 kJ/mol
# GULP energy per Si atom -12394.635828 kJ/mol
# Density = 1.592355 g / cm^3
# Si number density = 15.959878 Si / 1000 Ang^3
#
#
#
# Elastic Constant Matrix: (Units=GPa)
#
#
# Indices 1 2 3 4 5 6 
#
# 1 99.8634 55.1554 39.5853 0.0000 0.0000 0.0000
# 2 55.1554 99.8634 39.5853 0.0000 0.0000 0.0000
# 3 39.5853 39.5853 64.3885 0.0000 0.0000 0.0000
# 4 0.0000 0.0000 0.0000 14.7690 0.0000 0.0000
# 5 0.0000 0.0000 0.0000 0.0000 14.7690 0.0000
# 6 0.0000 0.0000 0.0000 0.0000 0.0000 22.3540
#
#
#
# Elastic Compliance Matrix: (Units=1/GPa)
#
#
# Indices 1 2 3 4 5 6 
#
# 1 0.015885 -0.006482 -0.005781 0.000000 0.000000 0.000000
# 2 -0.006482 0.015885 -0.005781 0.000000 0.000000 0.000000
# 3 -0.005781 -0.005781 0.022639 0.000000 0.000000 0.000000
# 4 0.000000 0.000000 0.000000 0.067709 0.000000 0.000000
# 5 0.000000 0.000000 0.000000 0.000000 0.067709 0.000000
# 6 0.000000 0.000000 0.000000 0.000000 0.000000 0.044735
#
#
# Mechanical properties :
#
#
# Convention : Reuss Voigt Hill
#
# Bulk Modulus (GPa) = 54.58100 59.19637 56.88868
# Shear Modulus (GPa) = 18.06629 19.03102 18.54866
#
# Velocity S-wave (km/s) = 3.36814 3.45690 3.41281
# Velocity P-wave (km/s) = 7.02844 7.28731 7.15904
#
# Compressibility (1/GPa) = 0.01832140
#
# Stress axis : x y z
#
# Youngs Moduli (GPa) = 62.95117 62.95117 44.17174
#
# Poissons Ratio (x) = 0.40805 0.25536
# Poissons Ratio (y) = 0.40805 0.25536
# Poissons Ratio (z) = 0.36392 0.36392
#
# Static dielectric constant tensor:
#      x y z
#    x 3.054930 0.000000 0.000000 
#    y 0.000000 3.054930 0.000000 
#    z 0.000000 0.000000 2.849220 
# 
# 
# High freq. dielectric constant tensor:
#      x y z
#    x 1.610440 0.000000 0.000000 
#    y 0.000000 1.610440 0.000000 
#    z 0.000000 0.000000 1.575890 
# 
# From -- ./inp_files/7679.got.cif
#   From: 2010.03.12/outbox.cif.g09.slc.cpg/sg191_4_cif.got.tgz:7679.got - 2010.04.01 12:09:02.
