data_PCOD8328229
_publ_section_title
;
Structure prediction by ZEFSAII (Michael W. Deem and Ramdas Pophale) SiO2 
 PCOD8328229
Probable space group: P 6/M M M
;
_chemical_formula_sum "Si O2"
_cell_formula_units_Z 132
_cell_length_a 31.366985
_cell_length_b 31.366985
_cell_length_c 11.881091
_cell_angle_alpha 90.000000
_cell_angle_beta 90.000000
_cell_angle_gamma 120.000000
_cell_volume 10123.542407
_symmetry_space_group_name_H-M "P 6/M M M"
_symmetry_group_IT_number 191
_symmetry_cell_setting 'hexagonal'
loop_
_space_group_symop_operation_xyz
x,y,z
x-y,x,z
-y,x-y,z
-x,-y,z
-x+y,-x,z
y,-x+y,z
x-y,-y,-z
-x,-x+y,-z
y,x,-z
-y,-x,-z
-x+y,y,-z
x,x-y,-z
-x,-y,-z
-x+y,-x,-z
y,-x+y,-z
x,y,-z
x-y,x,-z
-y,x-y,-z
-x+y,y,z
x,x-y,z
-y,-x,z
y,x,z
x-y,-y,z
-x,-x+y,z
loop_
_atom_site_type_symbol
_atom_site_label
_atom_site_fract_x
_atom_site_fract_y
_atom_site_fract_z
Si Si1 0.814478 0.724010 0.500000
Si Si2 0.722291 0.113784 0.261029
Si Si3 0.274110 0.137055 0.125758
Si Si4 0.528776 0.057551 0.129140
Si Si5 0.378386 0.941598 0.131588
Si Si6 0.055761 0.274833 0.737538
Si Si7 0.804445 0.608890 0.873999
Si Si8 0.392403 0.244197 0.500000
O O1 0.873545 0.747089 0.500000
O O2 0.797376 0.741251 0.390704
O O3 0.790212 0.665729 0.500000
O O4 0.667924 0.084822 0.212425
O O5 0.745716 0.078807 0.250993
O O6 0.753096 0.163478 0.189632
O O7 0.721171 0.129824 0.389793
O O8 0.255292 0.085355 0.188292
O O9 0.332601 0.166301 0.125968
O O10 0.252637 0.126319 0.000000
O O11 0.584079 0.077163 0.176044
O O12 0.500000 0.000000 0.147079
O O13 0.535700 0.071400 0.000000
O O14 0.403008 0.000000 0.146412
O O15 0.364067 0.927914 0.000000
O O16 0.000000 0.248654 0.781742
O O17 0.793764 0.587528 0.000000
O O18 0.415269 0.207635 0.500000
#
# Coordination Sequence:
#
# PCOD8328229 Si02
#       8
#    12  24  12  12  24  24  12  12
#     4   9  15  27  43  54  68  93 126 163 195 222
#     4  10  17  26  39  56  77 102 134 164 197 229
#     4   9  18  29  37  49  73 102 126 147 184 234
#     4   7  12  24  40  55  73  99 128 158 198 242
#     4   9  16  26  40  58  78 100 130 168 204 235
#     4  10  18  27  40  56  73  96 128 163 193 220
#     4   9  16  25  37  53  75 100 126 159 198 236
#     4   9  16  27  39  52  72 107 137 160 189 233
#
# _framework density 13.038914
#
# number of rings (size 3 to 8) (size 9 to 14) (size 15 to 20)
#    0.000    2.818    1.818    2.455    0.000    1.091 
#    0.000    1.364    0.000    0.545    0.000    1.909 
#    0.000    0.000    0.000    0.818    0.000   10.000 
#
# Total GULP energy -1635590.518071 kJ/mol
# GULP energy per Si atom -12390.837258 kJ/mol
# Density = 1.300924 g / cm^3
# Si number density = 13.038914 Si / 1000 Ang^3
#
#
#
# Elastic Constant Matrix: (Units=GPa)
#
#
# Indices 1 2 3 4 5 6 
#
# 1 68.4080 36.0113 40.3020 0.0000 0.0000 0.0000
# 2 36.0113 68.4080 40.3020 0.0000 0.0000 0.0000
# 3 40.3020 40.3020 104.6417 0.0000 0.0000 0.0000
# 4 0.0000 0.0000 0.0000 15.0223 0.0000 0.0000
# 5 0.0000 0.0000 0.0000 0.0000 15.0223 0.0000
# 6 0.0000 0.0000 0.0000 0.0000 0.0000 16.1984
#
#
#
# Elastic Compliance Matrix: (Units=1/GPa)
#
#
# Indices 1 2 3 4 5 6 
#
# 1 0.022248 -0.008619 -0.005249 0.000000 0.000000 0.000000
# 2 -0.008619 0.022248 -0.005249 0.000000 0.000000 0.000000
# 3 -0.005249 -0.005249 0.013600 0.000000 0.000000 0.000000
# 4 0.000000 0.000000 0.000000 0.066568 0.000000 0.000000
# 5 0.000000 0.000000 0.000000 0.000000 0.066568 0.000000
# 6 0.000000 0.000000 0.000000 0.000000 0.000000 0.061735
#
#
# Mechanical properties :
#
#
# Convention : Reuss Voigt Hill
#
# Bulk Modulus (GPa) = 50.35003 52.74315 51.54659
# Shear Modulus (GPa) = 16.78865 17.57142 17.18004
#
# Velocity S-wave (km/s) = 3.59218 3.67497 3.63381
# Velocity P-wave (km/s) = 7.47690 7.65151 7.56471
#
# Compressibility (1/GPa) = 0.01986096
#
# Stress axis : x y z
#
# Youngs Moduli (GPa) = 44.94797 44.94797 73.53148
#
# Poissons Ratio (x) = 0.38742 0.38596
# Poissons Ratio (y) = 0.38742 0.38596
# Poissons Ratio (z) = 0.23593 0.23593
#
# Static dielectric constant tensor:
#      x y z
#    x 2.486400 0.000000 0.000000 
#    y 0.000000 2.486400 0.000000 
#    z 0.000000 0.000000 2.766350 
# 
# 
# High freq. dielectric constant tensor:
#      x y z
#    x 1.467530 0.000000 0.000000 
#    y 0.000000 1.467530 0.000000 
#    z 0.000000 0.000000 1.499740 
# 
# From -- ./inp_files/3539.got.cif
#   From: 2010.03.12/outbox.cif.g09.slc.cpg/sg191_2_cif.got.tgz:3539.got - 2010.04.01 12:09:02.
