data_PCOD8328930
_publ_section_title
;
Structure prediction by ZEFSAII (Michael W. Deem and Ramdas Pophale) SiO2 
 PCOD8328930
Probable space group: P 6/M M M
;
_chemical_formula_sum "Si O2"
_cell_formula_units_Z 144
_cell_length_a 32.127473
_cell_length_b 32.127473
_cell_length_c 9.269263
_cell_angle_alpha 90.000000
_cell_angle_beta 90.000000
_cell_angle_gamma 120.000000
_cell_volume 8285.695540
_symmetry_space_group_name_H-M "P 6/M M M"
_symmetry_group_IT_number 191
_symmetry_cell_setting 'hexagonal'
loop_
_space_group_symop_operation_xyz
x,y,z
x-y,x,z
-y,x-y,z
-x,-y,z
-x+y,-x,z
y,-x+y,z
x-y,-y,-z
-x,-x+y,-z
y,x,-z
-y,-x,-z
-x+y,y,-z
x,x-y,-z
-x,-y,-z
-x+y,-x,-z
y,-x+y,-z
x,y,-z
x-y,x,-z
-y,x-y,-z
-x+y,y,z
x,x-y,z
-y,-x,z
y,x,z
x-y,-y,z
-x,-x+y,z
loop_
_atom_site_type_symbol
_atom_site_label
_atom_site_fract_x
_atom_site_fract_y
_atom_site_fract_z
Si Si1 0.520707 0.807630 0.667433
Si Si2 0.555084 0.945526 0.666722
Si Si3 0.946050 0.147102 0.666781
Si Si4 0.281442 0.900043 0.335244
Si Si5 0.229647 0.944673 0.168521
Si Si6 0.618055 0.140880 0.833871
O O1 0.509245 0.809607 0.500000
O O2 0.511147 0.755574 0.713755
O O3 0.576170 0.846269 0.698548
O O4 0.485110 0.818703 0.758674
O O5 0.539643 0.934127 0.500000
O O6 0.599448 0.936802 0.697251
O O7 0.509463 0.911261 0.762831
O O8 0.571114 0.000000 0.707176
O O9 0.943606 0.159104 0.500000
O O10 0.909028 0.090973 0.700071
O O11 0.930374 0.179000 0.759293
O O12 0.000000 0.159078 0.708007
O O13 0.268733 0.905060 0.500000
O O14 0.248885 0.911149 0.231000
O O15 0.268192 0.000000 0.202462
O O16 0.220704 0.934685 0.000000
O O17 0.578447 0.156894 0.815691
O O18 0.629125 0.136986 0.000000
#
# Coordination Sequence:
#
# PCOD8328930 Si02
#       6
#    24  24  24  24  24  24
#     4   9  19  36  56  76  97 124 161 203 244 288
#     4   9  18  32  50  72  98 132 174 213 244 277
#     4   9  18  33  52  71  91 119 155 193 235 285
#     4   9  17  30  48  70  98 131 166 202 239 279
#     4  10  20  31  44  67  99 132 166 202 236 271
#     4  10  21  35  51  74 103 132 161 196 243 297
#
# _framework density 17.379351
#
# number of rings (size 3 to 8) (size 9 to 14) (size 15 to 20)
#    0.000    2.667    0.000    2.500    0.000    7.667 
#    0.000    3.333    0.000    0.500    0.000    1.167 
#    0.000    0.000    0.000    4.167    0.000    4.333 
#
# Total GULP energy -1785778.918148 kJ/mol
# GULP energy per Si atom -12401.242487 kJ/mol
# Density = 1.733979 g / cm^3
# Si number density = 17.379351 Si / 1000 Ang^3
#
#
#
# Elastic Constant Matrix: (Units=GPa)
#
#
# Indices 1 2 3 4 5 6 
#
# 1 97.9142 66.0432 58.2554 0.0000 0.0000 0.0000
# 2 66.0432 97.9142 58.2554 0.0000 0.0000 0.0000
# 3 58.2554 58.2554 90.5453 0.0000 0.0000 0.0000
# 4 0.0000 0.0000 0.0000 19.1750 0.0000 0.0000
# 5 0.0000 0.0000 0.0000 0.0000 19.1750 0.0000
# 6 0.0000 0.0000 0.0000 0.0000 0.0000 15.9355
#
#
#
# Elastic Compliance Matrix: (Units=1/GPa)
#
#
# Indices 1 2 3 4 5 6 
#
# 1 0.021306 -0.010070 -0.007229 0.000000 0.000000 0.000000
# 2 -0.010070 0.021306 -0.007229 0.000000 0.000000 0.000000
# 3 -0.007229 -0.007229 0.020347 0.000000 0.000000 0.000000
# 4 0.000000 0.000000 0.000000 0.052151 0.000000 0.000000
# 5 0.000000 0.000000 0.000000 0.000000 0.052151 0.000000
# 6 0.000000 0.000000 0.000000 0.000000 0.000000 0.062753
#
#
# Mechanical properties :
#
#
# Convention : Reuss Voigt Hill
#
# Bulk Modulus (GPa) = 71.93118 72.38688 72.15903
# Shear Modulus (GPa) = 17.62384 17.77841 17.70113
#
# Velocity S-wave (km/s) = 3.18790 3.20185 3.19488
# Velocity P-wave (km/s) = 7.41815 7.44383 7.43100
#
# Compressibility (1/GPa) = 0.01390218
#
# Stress axis : x y z
#
# Youngs Moduli (GPa) = 46.93411 46.93411 49.14804
#
# Poissons Ratio (x) = 0.47263 0.35531
# Poissons Ratio (y) = 0.47263 0.35531
# Poissons Ratio (z) = 0.33930 0.33930
#
# Static dielectric constant tensor:
#      x y z
#    x 3.189790 0.000000 0.000000 
#    y 0.000000 3.189790 0.000000 
#    z 0.000000 0.000000 3.225350 
# 
# 
# High freq. dielectric constant tensor:
#      x y z
#    x 1.660010 0.000000 0.000000 
#    y 0.000000 1.660010 0.000000 
#    z 0.000000 0.000000 1.672360 
# 
# From -- ./inp_files/1983.got.cif
#   From: 2010.03.12/outbox.cif.g09.slc.cpg/sg191_1_cif.got.tgz:1983.got - 2010.04.01 12:09:02.
