data_PCOD8328567
_publ_section_title
;
Structure prediction by ZEFSAII (Michael W. Deem and Ramdas Pophale) SiO2 
 PCOD8328567
Probable space group: P 6/M M M
;
_chemical_formula_sum "Si O2"
_cell_formula_units_Z 120
_cell_length_a 17.988526
_cell_length_b 17.988526
_cell_length_c 24.173677
_cell_angle_alpha 90.000000
_cell_angle_beta 90.000000
_cell_angle_gamma 120.000000
_cell_volume 6774.301210
_symmetry_space_group_name_H-M "P 6/M M M"
_symmetry_group_IT_number 191
_symmetry_cell_setting 'hexagonal'
loop_
_space_group_symop_operation_xyz
x,y,z
x-y,x,z
-y,x-y,z
-x,-y,z
-x+y,-x,z
y,-x+y,z
x-y,-y,-z
-x,-x+y,-z
y,x,-z
-y,-x,-z
-x+y,y,-z
x,x-y,-z
-x,-y,-z
-x+y,-x,-z
y,-x+y,-z
x,y,-z
x-y,x,-z
-y,x-y,-z
-x+y,y,z
x,x-y,z
-y,-x,z
y,x,z
x-y,-y,z
-x,-x+y,z
loop_
_atom_site_type_symbol
_atom_site_label
_atom_site_fract_x
_atom_site_fract_y
_atom_site_fract_z
Si Si1 0.194674 0.389348 0.313691
Si Si2 0.466112 0.102262 0.619471
Si Si3 0.391023 0.195512 0.182656
Si Si4 0.464426 0.365157 0.883209
Si Si5 0.902907 0.805814 0.313359
Si Si6 0.458935 0.365379 0.500000
Si Si7 0.493791 0.331898 0.000000
Si Si8 0.902509 0.097492 0.181663
O O1 0.145331 0.437243 0.334339
O O2 0.196300 0.392599 0.248183
O O3 0.145751 0.291502 0.335475
O O4 0.563847 0.127694 0.632436
O O5 0.460054 0.139026 0.558262
O O6 0.405354 0.000000 0.621096
O O7 0.441499 0.148822 0.161960
O O8 0.293075 0.146538 0.160332
O O9 0.565839 0.434162 0.879016
O O10 0.409065 0.409065 0.869097
O O11 0.440000 0.323605 0.944713
O O12 0.854170 0.854170 0.336369
O O13 0.903526 0.807051 0.247490
O O14 0.374066 0.374066 0.500000
O O15 0.540482 0.459519 0.500000
O O16 0.575549 0.424452 0.000000
O O17 0.522627 0.261314 0.000000
O O18 0.000000 0.146688 0.158752
#
# Coordination Sequence:
#
# PCOD8328567 Si02
#       8
#    12  24  12  24  12  12  12  12
#     4  11  22  32  49  76 107 141 181 218 257 313
#     4   9  18  34  54  74 100 135 173 217 269 319
#     4  11  22  36  49  74 109 147 179 217 261 311
#     4  10  21  37  57  79 104 136 177 221 265 313
#     4   9  17  30  48  71  99 132 171 217 264 306
#     4   7  12  27  52  76  95 123 167 217 270 320
#     4  10  18  33  57  84 107 131 166 215 272 315
#     4   9  17  30  50  73  99 132 173 219 263 308
#
# _framework density 17.714003999999999
#
# number of rings (size 3 to 8) (size 9 to 14) (size 15 to 20)
#    0.000    2.500    1.000    3.000    0.000    5.600 
#    1.200    2.000    0.000    0.000    0.000    0.000 
#    0.000    0.000    0.000   11.900    0.000    4.300 
#
# Total GULP energy -1487361.424851 kJ/mol
# GULP energy per Si atom -12394.678540 kJ/mol
# Density = 1.767369 g / cm^3
# Si number density = 17.714004 Si / 1000 Ang^3
#
#
#
# Elastic Constant Matrix: (Units=GPa)
#
#
# Indices 1 2 3 4 5 6 
#
# 1 96.3131 48.2549 44.6638 0.0000 0.0000 0.0000
# 2 48.2549 96.3131 44.6638 0.0000 0.0000 0.0000
# 3 44.6638 44.6638 87.1681 0.0000 0.0000 0.0000
# 4 0.0000 0.0000 0.0000 49.6556 0.0000 0.0000
# 5 0.0000 0.0000 0.0000 0.0000 49.6556 0.0000
# 6 0.0000 0.0000 0.0000 0.0000 0.0000 24.0291
#
#
#
# Elastic Compliance Matrix: (Units=1/GPa)
#
#
# Indices 1 2 3 4 5 6 
#
# 1 0.015465 -0.005343 -0.005186 0.000000 0.000000 0.000000
# 2 -0.005343 0.015465 -0.005186 0.000000 0.000000 0.000000
# 3 -0.005186 -0.005186 0.016787 0.000000 0.000000 0.000000
# 4 0.000000 0.000000 0.000000 0.020139 0.000000 0.000000
# 5 0.000000 0.000000 0.000000 0.000000 0.020139 0.000000
# 6 0.000000 0.000000 0.000000 0.000000 0.000000 0.041616
#
#
# Mechanical properties :
#
#
# Convention : Reuss Voigt Hill
#
# Bulk Modulus (GPa) = 61.40515 61.66217 61.53366
# Shear Modulus (GPa) = 30.03546 34.14886 32.09216
#
# Velocity S-wave (km/s) = 4.12221 4.39542 4.26100
# Velocity P-wave (km/s) = 7.57607 7.78749 7.68251
#
# Compressibility (1/GPa) = 0.01628528
#
# Stress axis : x y z
#
# Youngs Moduli (GPa) = 64.66259 64.66259 59.57060
#
# Poissons Ratio (x) = 0.34550 0.30895
# Poissons Ratio (y) = 0.34550 0.30895
# Poissons Ratio (z) = 0.33536 0.33536
#
# Static dielectric constant tensor:
#      x y z
#    x 3.265970 0.000000 0.000000 
#    y 0.000000 3.265970 0.000000 
#    z 0.000000 0.000000 3.319280 
# 
# 
# High freq. dielectric constant tensor:
#      x y z
#    x 1.679430 0.000000 0.000000 
#    y 0.000000 1.679430 0.000000 
#    z 0.000000 0.000000 1.670010 
# 
# From -- ./inp_files/8664.got.cif
#   From: 2010.03.12/outbox.cif.g09.slc.cpg/sg191_5_cif.got.tgz:8664.got - 2010.04.01 12:09:02.
