data_PCOD8328355
_publ_section_title
;
Structure prediction by ZEFSAII (Michael W. Deem and Ramdas Pophale) SiO2 
 PCOD8328355
Probable space group: P 6/M M M
;
_chemical_formula_sum "Si O2"
_cell_formula_units_Z 168
_cell_length_a 22.597414
_cell_length_b 22.597414
_cell_length_c 25.572790
_cell_angle_alpha 90.000000
_cell_angle_beta 90.000000
_cell_angle_gamma 120.000000
_cell_volume 11309.052716
_symmetry_space_group_name_H-M "P 6/M M M"
_symmetry_group_IT_number 191
_symmetry_cell_setting 'hexagonal'
loop_
_space_group_symop_operation_xyz
x,y,z
x-y,x,z
-y,x-y,z
-x,-y,z
-x+y,-x,z
y,-x+y,z
x-y,-y,-z
-x,-x+y,-z
y,x,-z
-y,-x,-z
-x+y,y,-z
x,x-y,-z
-x,-y,-z
-x+y,-x,-z
y,-x+y,-z
x,y,-z
x-y,x,-z
-y,x-y,-z
-x+y,y,z
x,x-y,z
-y,-x,z
y,x,z
x-y,-y,z
-x,-x+y,z
loop_
_atom_site_type_symbol
_atom_site_label
_atom_site_fract_x
_atom_site_fract_y
_atom_site_fract_z
Si Si1 0.530281 0.609402 0.236735
Si Si2 0.923820 0.717085 0.301993
Si Si3 0.919200 0.328970 0.658178
Si Si4 0.717675 0.793650 0.819055
Si Si5 0.918674 0.392529 0.557357
Si Si6 0.432039 0.284643 0.146367
Si Si7 0.078069 0.470637 0.939432
O O1 0.456523 0.543478 0.232487
O O2 0.589009 0.589009 0.227328
O O3 0.537595 0.643529 0.293505
O O4 0.535087 0.663227 0.194122
O O5 0.873215 0.746430 0.313581
O O6 0.897632 0.647544 0.334520
O O7 0.922241 0.697133 0.241462
O O8 0.000000 0.775195 0.318530
O O9 0.887148 0.336331 0.603599
O O10 0.000000 0.374229 0.655811
O O11 0.749499 0.874750 0.828196
O O12 0.774218 0.774218 0.836644
O O13 0.649810 0.751416 0.852781
O O14 0.894334 0.357415 0.500000
O O15 0.892766 0.446383 0.566094
O O16 0.000000 0.431863 0.559737
O O17 0.455410 0.227705 0.148964
O O18 0.456968 0.325989 0.092400
O O19 0.095516 0.547758 0.928927
O O20 0.000000 0.418966 0.921638
O O21 0.087318 0.459523 0.000000
#
# Coordination Sequence:
#
# PCOD8328355 Si02
#       7
#    24  24  24  24  24  24  24
#     4  10  18  27  42  63  85 108 138 180 220 249
#     4   9  16  26  40  58  81 108 138 173 213 259
#     4   9  15  23  37  58  82 107 137 171 209 253
#     4   9  16  26  40  59  83 109 137 169 209 255
#     4   8  13  21  33  51  78 110 139 165 196 240
#     4  11  20  28  42  63  88 115 141 170 209 256
#     4   9  18  33  52  70  86 107 138 176 213 245
#
# _framework density 14.855354999999999
#
# number of rings (size 3 to 8) (size 9 to 14) (size 15 to 20)
#    0.000    2.714    1.429    3.000    0.000    3.143 
#    0.000    0.000    0.000    3.000    0.000    2.000 
#    0.000    0.000    0.000    0.000    0.000    1.429 
#
# Total GULP energy -2082404.916592 kJ/mol
# GULP energy per Si atom -12395.267361 kJ/mol
# Density = 1.482154 g / cm^3
# Si number density = 14.855355 Si / 1000 Ang^3
#
#
#
# Elastic Constant Matrix: (Units=GPa)
#
#
# Indices 1 2 3 4 5 6 
#
# 1 81.0184 42.8338 42.4883 0.0000 0.0000 0.0000
# 2 42.8338 81.0184 42.4883 0.0000 0.0000 0.0000
# 3 42.4883 42.4883 86.3523 0.0000 0.0000 0.0000
# 4 0.0000 0.0000 0.0000 14.3200 0.0000 0.0000
# 5 0.0000 0.0000 0.0000 0.0000 14.3200 0.0000
# 6 0.0000 0.0000 0.0000 0.0000 0.0000 19.0923
#
#
#
# Elastic Compliance Matrix: (Units=1/GPa)
#
#
# Indices 1 2 3 4 5 6 
#
# 1 0.019189 -0.007000 -0.005997 0.000000 0.000000 0.000000
# 2 -0.007000 0.019189 -0.005997 0.000000 0.000000 0.000000
# 3 -0.005997 -0.005997 0.017482 0.000000 0.000000 0.000000
# 4 0.000000 0.000000 0.000000 0.069832 0.000000 0.000000
# 5 0.000000 0.000000 0.000000 0.000000 0.069832 0.000000
# 6 0.000000 0.000000 0.000000 0.000000 0.000000 0.052377
#
#
# Mechanical properties :
#
#
# Convention : Reuss Voigt Hill
#
# Bulk Modulus (GPa) = 55.95741 56.00108 55.97924
# Shear Modulus (GPa) = 17.13220 17.58504 17.35862
#
# Velocity S-wave (km/s) = 3.39966 3.44430 3.42205
# Velocity P-wave (km/s) = 7.29111 7.32100 7.30607
#
# Compressibility (1/GPa) = 0.01787074
#
# Stress axis : x y z
#
# Youngs Moduli (GPa) = 52.11368 52.11368 57.20059
#
# Poissons Ratio (x) = 0.36478 0.34306
# Poissons Ratio (y) = 0.36478 0.34306
# Poissons Ratio (z) = 0.31255 0.31255
#
# Static dielectric constant tensor:
#      x y z
#    x 2.754240 0.000000 0.000000 
#    y 0.000000 2.754240 0.000000 
#    z 0.000000 0.000000 3.001200 
# 
# 
# High freq. dielectric constant tensor:
#      x y z
#    x 1.544630 0.000000 0.000000 
#    y 0.000000 1.544630 0.000000 
#    z 0.000000 0.000000 1.563160 
# 
# From -- ./inp_files/9163.got.cif
#   From: 2010.03.12/outbox.cif.g09.slc.cpg/sg191_5_cif.got.tgz:9163.got - 2010.04.01 12:09:02.
