data_PCOD8328704
_publ_section_title
;
Structure prediction by ZEFSAII (Michael W. Deem and Ramdas Pophale) SiO2 
 PCOD8328704
Probable space group: P 6/M M M
;
_chemical_formula_sum "Si O2"
_cell_formula_units_Z 144
_cell_length_a 22.707150
_cell_length_b 22.707150
_cell_length_c 18.958539
_cell_angle_alpha 90.000000
_cell_angle_beta 90.000000
_cell_angle_gamma 120.000000
_cell_volume 8465.658703
_symmetry_space_group_name_H-M "P 6/M M M"
_symmetry_group_IT_number 191
_symmetry_cell_setting 'hexagonal'
loop_
_space_group_symop_operation_xyz
x,y,z
x-y,x,z
-y,x-y,z
-x,-y,z
-x+y,-x,z
y,-x+y,z
x-y,-y,-z
-x,-x+y,-z
y,x,-z
-y,-x,-z
-x+y,y,-z
x,x-y,-z
-x,-y,-z
-x+y,-x,-z
y,-x+y,-z
x,y,-z
x-y,x,-z
-y,x-y,-z
-x+y,y,z
x,x-y,z
-y,-x,z
y,x,z
x-y,-y,z
-x,-x+y,z
loop_
_atom_site_type_symbol
_atom_site_label
_atom_site_fract_x
_atom_site_fract_y
_atom_site_fract_z
Si Si1 0.209304 0.923857 0.918886
Si Si2 0.525187 0.605531 0.713119
Si Si3 0.921505 0.332500 0.145812
Si Si4 0.330667 0.919318 0.422376
Si Si5 0.724032 0.798134 0.416617
Si Si6 0.333467 0.797817 0.917506
O O1 0.130929 0.869072 0.901313
O O2 0.257785 0.910703 0.867330
O O3 0.221948 0.000000 0.906490
O O4 0.226681 0.915857 0.000000
O O5 0.445531 0.554470 0.730376
O O6 0.562863 0.562863 0.705608
O O7 0.561643 0.661498 0.774324
O O8 0.530944 0.642311 0.638091
O O9 0.872309 0.344017 0.094899
O O10 0.000000 0.389612 0.130104
O O11 0.331433 0.888849 0.500000
O O12 0.254929 0.900533 0.400021
O O13 0.376571 0.000000 0.426713
O O14 0.734402 0.803191 0.500000
O O15 0.742427 0.871214 0.384381
O O16 0.773754 0.773754 0.382343
O O17 0.396585 0.793169 0.883992
O O18 0.262333 0.737668 0.884856
O O19 0.332449 0.786786 0.000000
#
# Coordination Sequence:
#
# PCOD8328704 Si02
#       6
#    24  24  24  24  24  24
#     4   9  17  30  49  72  98 128 162 200 240 281
#     4   9  17  28  41  59  86 116 141 170 213 265
#     4  10  19  30  45  66  92 121 150 181 223 272
#     4   8  14  25  41  60  80 105 140 178 216 263
#     4   8  13  22  37  56  78 105 138 177 220 266
#     4  10  20  33  48  64  84 112 147 186 223 259
#
# _framework density 17.009899000000001
#
# number of rings (size 3 to 8) (size 9 to 14) (size 15 to 20)
#    0.000    3.000    0.000    2.667    0.000    4.333 
#    0.000    4.167    0.000    0.333    0.000    2.333 
#    0.000    0.000    0.000    0.500    0.000   27.167 
#
# Total GULP energy -1784289.202197 kJ/mol
# GULP energy per Si atom -12390.897237 kJ/mol
# Density = 1.697118 g / cm^3
# Si number density = 17.009899 Si / 1000 Ang^3
#
#
#
# Elastic Constant Matrix: (Units=GPa)
#
#
# Indices 1 2 3 4 5 6 
#
# 1 94.9952 55.7126 35.9413 0.0000 0.0000 0.0000
# 2 55.7126 94.9952 35.9413 0.0000 0.0000 0.0000
# 3 35.9413 35.9413 62.4015 0.0000 0.0000 0.0000
# 4 0.0000 0.0000 0.0000 12.2601 0.0000 0.0000
# 5 0.0000 0.0000 0.0000 0.0000 12.2601 0.0000
# 6 0.0000 0.0000 0.0000 0.0000 0.0000 19.6413
#
#
#
# Elastic Compliance Matrix: (Units=1/GPa)
#
#
# Indices 1 2 3 4 5 6 
#
# 1 0.017303 -0.008154 -0.005269 0.000000 0.000000 0.000000
# 2 -0.008154 0.017303 -0.005269 0.000000 0.000000 0.000000
# 3 -0.005269 -0.005269 0.022095 0.000000 0.000000 0.000000
# 4 0.000000 0.000000 0.000000 0.081565 0.000000 0.000000
# 5 0.000000 0.000000 0.000000 0.000000 0.081565 0.000000
# 6 0.000000 0.000000 0.000000 0.000000 0.000000 0.050913
#
#
# Mechanical properties :
#
#
# Convention : Reuss Voigt Hill
#
# Bulk Modulus (GPa) = 51.77283 56.39806 54.08545
# Shear Modulus (GPa) = 15.89480 17.15206 16.52343
#
# Velocity S-wave (km/s) = 3.06018 3.17891 3.12011
# Velocity P-wave (km/s) = 6.55662 6.83388 6.69669
#
# Compressibility (1/GPa) = 0.01931515
#
# Stress axis : x y z
#
# Youngs Moduli (GPa) = 57.79471 57.79471 45.25869
#
# Poissons Ratio (x) = 0.47126 0.23848
# Poissons Ratio (y) = 0.47126 0.23848
# Poissons Ratio (z) = 0.30454 0.30454
#
# Static dielectric constant tensor:
#      x y z
#    x 3.252750 0.000000 0.000000 
#    y 0.000000 3.252750 0.000000 
#    z 0.000000 0.000000 3.195130 
# 
# 
# High freq. dielectric constant tensor:
#      x y z
#    x 1.636620 0.000000 0.000000 
#    y 0.000000 1.636620 0.000000 
#    z 0.000000 0.000000 1.632730 
# 
# From -- ./inp_files/7632.got.cif
#   From: 2010.03.12/outbox.cif.g09.slc.cpg/sg191_4_cif.got.tgz:7632.got - 2010.04.01 12:09:02.
