data_PCOD8328264
_publ_section_title
;
Structure prediction by ZEFSAII (Michael W. Deem and Ramdas Pophale) SiO2 
 PCOD8328264
Probable space group: P 6/M M M
;
_chemical_formula_sum "Si O2"
_cell_formula_units_Z 168
_cell_length_a 26.083652
_cell_length_b 26.083652
_cell_length_c 18.613190
_cell_angle_alpha 90.000000
_cell_angle_beta 90.000000
_cell_angle_gamma 120.000000
_cell_volume 10967.009937
_symmetry_space_group_name_H-M "P 6/M M M"
_symmetry_group_IT_number 191
_symmetry_cell_setting 'hexagonal'
loop_
_space_group_symop_operation_xyz
x,y,z
x-y,x,z
-y,x-y,z
-x,-y,z
-x+y,-x,z
y,-x+y,z
x-y,-y,-z
-x,-x+y,-z
y,x,-z
-y,-x,-z
-x+y,y,-z
x,x-y,-z
-x,-y,-z
-x+y,-x,-z
y,-x+y,-z
x,y,-z
x-y,x,-z
-y,x-y,-z
-x+y,y,z
x,x-y,z
-y,-x,z
y,x,z
x-y,-y,z
-x,-x+y,z
loop_
_atom_site_type_symbol
_atom_site_label
_atom_site_fract_x
_atom_site_fract_y
_atom_site_fract_z
Si Si1 0.156699 0.725104 0.805202
Si Si2 0.548719 0.333576 0.278443
Si Si3 0.181905 0.480646 0.418884
Si Si4 0.896959 0.678709 0.293462
Si Si5 0.064753 0.362143 0.580007
Si Si6 0.182762 0.934395 0.155271
Si Si7 0.355387 0.287427 0.083203
O O1 0.215106 0.784895 0.830594
O O2 0.173008 0.677431 0.774948
O O3 0.124399 0.739442 0.741882
O O4 0.111861 0.697428 0.872389
O O5 0.565575 0.282787 0.267822
O O6 0.604133 0.395868 0.256964
O O7 0.532202 0.335652 0.361775
O O8 0.187031 0.505438 0.500000
O O9 0.228430 0.456860 0.408060
O O10 0.115816 0.428397 0.402793
O O11 0.841704 0.683408 0.321018
O O12 0.935163 0.684592 0.363533
O O13 0.934326 0.730335 0.236530
O O14 0.074756 0.344509 0.500000
O O15 0.000000 0.356657 0.585108
O O16 0.113792 0.886209 0.143958
O O17 0.221394 0.918587 0.101838
O O18 0.193412 0.000000 0.138919
O O19 0.334600 0.334600 0.103150
O O20 0.371132 0.290438 0.000000
#
# Coordination Sequence:
#
# PCOD8328264 Si02
#       7
#    24  24  24  24  24  24  24
#     4   9  17  29  45  66  90 116 145 173 207 258
#     4  10  19  32  49  69  90 112 142 181 223 262
#     4   9  17  30  46  62  84 115 149 185 226 267
#     4   9  15  26  42  60  82 110 146 182 219 261
#     4  10  18  25  37  59  85 114 148 181 213 255
#     4   9  17  27  41  62  89 119 148 182 222 261
#     4   9  17  29  47  72  97 118 141 173 214 254
#
# _framework density 15.318669
#
# number of rings (size 3 to 8) (size 9 to 14) (size 15 to 20)
#    0.000    2.714    1.429    2.286    0.000    2.857 
#    0.000    0.000    0.000    3.143    0.000    3.000 
#    0.000    1.143    0.000    3.571    0.000    0.000 
#
# Total GULP energy -2082380.506689 kJ/mol
# GULP energy per Si atom -12395.122064 kJ/mol
# Density = 1.528380 g / cm^3
# Si number density = 15.318669 Si / 1000 Ang^3
#
#
#
# Elastic Constant Matrix: (Units=GPa)
#
#
# Indices 1 2 3 4 5 6 
#
# 1 81.4665 45.4917 37.2848 0.0000 0.0000 0.0000
# 2 45.4917 81.4665 37.2848 0.0000 0.0000 0.0000
# 3 37.2848 37.2848 78.4690 0.0000 0.0000 0.0000
# 4 0.0000 0.0000 0.0000 17.8769 0.0000 0.0000
# 5 0.0000 0.0000 0.0000 0.0000 17.8769 0.0000
# 6 0.0000 0.0000 0.0000 0.0000 0.0000 17.9874
#
#
#
# Elastic Compliance Matrix: (Units=1/GPa)
#
#
# Indices 1 2 3 4 5 6 
#
# 1 0.019362 -0.008436 -0.005191 0.000000 0.000000 0.000000
# 2 -0.008436 0.019362 -0.005191 0.000000 0.000000 0.000000
# 3 -0.005191 -0.005191 0.017677 0.000000 0.000000 0.000000
# 4 0.000000 0.000000 0.000000 0.055938 0.000000 0.000000
# 5 0.000000 0.000000 0.000000 0.000000 0.055938 0.000000
# 6 0.000000 0.000000 0.000000 0.000000 0.000000 0.055595
#
#
# Mechanical properties :
#
#
# Convention : Reuss Voigt Hill
#
# Bulk Modulus (GPa) = 53.29569 53.50272 53.39920
# Shear Modulus (GPa) = 18.67323 18.83760 18.75541
#
# Velocity S-wave (km/s) = 3.49518 3.51053 3.50287
# Velocity P-wave (km/s) = 7.15229 7.17176 7.16203
#
# Compressibility (1/GPa) = 0.01876324
#
# Stress axis : x y z
#
# Youngs Moduli (GPa) = 51.64872 51.64872 56.56959
#
# Poissons Ratio (x) = 0.43570 0.29368
# Poissons Ratio (y) = 0.43570 0.29368
# Poissons Ratio (z) = 0.26813 0.26813
#
# Static dielectric constant tensor:
#      x y z
#    x 2.768890 0.000000 0.000000 
#    y 0.000000 2.768890 0.000000 
#    z 0.000000 0.000000 3.018860 
# 
# 
# High freq. dielectric constant tensor:
#      x y z
#    x 1.563520 0.000000 0.000000 
#    y 0.000000 1.563520 0.000000 
#    z 0.000000 0.000000 1.590550 
# 
# From -- ./inp_files/7999.got.cif
#   From: 2010.03.12/outbox.cif.g09.slc.cpg/sg191_4_cif.got.tgz:7999.got - 2010.04.01 12:09:02.
