data_PCOD8328462
_publ_section_title
;
Structure prediction by ZEFSAII (Michael W. Deem and Ramdas Pophale) SiO2 
 PCOD8328462
Probable space group: P 6/M M M
;
_chemical_formula_sum "Si O2"
_cell_formula_units_Z 132
_cell_length_a 18.020680
_cell_length_b 18.020680
_cell_length_c 29.889377
_cell_angle_alpha 90.000000
_cell_angle_beta 90.000000
_cell_angle_gamma 120.000000
_cell_volume 8406.008875
_symmetry_space_group_name_H-M "P 6/M M M"
_symmetry_group_IT_number 191
_symmetry_cell_setting 'hexagonal'
loop_
_space_group_symop_operation_xyz
x,y,z
x-y,x,z
-y,x-y,z
-x,-y,z
-x+y,-x,z
y,-x+y,z
x-y,-y,-z
-x,-x+y,-z
y,x,-z
-y,-x,-z
-x+y,y,-z
x,x-y,-z
-x,-y,-z
-x+y,-x,-z
y,-x+y,-z
x,y,-z
x-y,x,-z
-y,x-y,-z
-x+y,y,z
x,x-y,z
-y,-x,z
y,x,z
x-y,-y,z
-x,-x+y,z
loop_
_atom_site_type_symbol
_atom_site_label
_atom_site_fract_x
_atom_site_fract_y
_atom_site_fract_z
Si Si1 0.331230 0.835725 0.204020
Si Si2 0.101514 0.468420 0.950319
Si Si3 0.735789 0.637709 0.128931
Si Si4 0.162778 0.493395 0.393635
Si Si5 0.588135 0.000000 0.449707
Si Si6 0.364784 0.904961 0.700963
O O1 0.426595 0.853190 0.196461
O O2 0.263203 0.736798 0.193540
O O3 0.316691 0.897899 0.171417
O O4 0.315403 0.855516 0.254502
O O5 0.138092 0.569046 0.938976
O O6 0.132845 0.424574 0.914170
O O7 0.000000 0.421462 0.948877
O O8 0.132581 0.459829 0.000000
O O9 0.838209 0.676417 0.135125
O O10 0.714921 0.714921 0.123444
O O11 0.248756 0.497512 0.411310
O O12 0.174979 0.587490 0.397163
O O13 0.146353 0.459096 0.342708
O O14 0.084455 0.425867 0.424148
O O15 0.500000 0.000000 0.449916
O O16 0.620172 0.000000 0.500000
O O17 0.456779 0.913557 0.699320
O O18 0.376913 0.000000 0.700859
#
# Coordination Sequence:
#
# PCOD8328462 Si02
#       6
#    24  24  24  24  12  24
#     4  10  19  29  43  65  94 124 151 180 215 257
#     4   8  14  26  45  67  89 113 142 175 211 256
#     4  10  20  32  46  65  88 115 149 190 234 277
#     4  10  18  29  45  65  88 116 152 191 226 263
#     4   9  18  32  46  60  84 116 147 183 228 270
#     4   9  16  27  42  60  85 119 154 183 213 251
#
# _framework density 15.703052
#
# number of rings (size 3 to 8) (size 9 to 14) (size 15 to 20)
#    0.000    2.636    0.909    2.545    0.000    2.545 
#    0.000    1.818    0.000    1.636    0.000    0.000 
#    0.000    0.000    0.000    4.818    0.000    1.364 
#
# Total GULP energy -1636236.552260 kJ/mol
# GULP energy per Si atom -12395.731457 kJ/mol
# Density = 1.566731 g / cm^3
# Si number density = 15.703052 Si / 1000 Ang^3
#
#
#
# Elastic Constant Matrix: (Units=GPa)
#
#
# Indices 1 2 3 4 5 6 
#
# 1 69.6509 37.5990 30.6684 0.0000 0.0000 0.0000
# 2 37.5990 69.6509 30.6684 0.0000 0.0000 0.0000
# 3 30.6684 30.6684 107.0914 0.0000 0.0000 0.0000
# 4 0.0000 0.0000 0.0000 14.3940 0.0000 0.0000
# 5 0.0000 0.0000 0.0000 0.0000 14.3940 0.0000
# 6 0.0000 0.0000 0.0000 0.0000 0.0000 16.0260
#
#
#
# Elastic Compliance Matrix: (Units=1/GPa)
#
#
# Indices 1 2 3 4 5 6 
#
# 1 0.021175 -0.010025 -0.003193 0.000000 0.000000 0.000000
# 2 -0.010025 0.021175 -0.003193 0.000000 0.000000 0.000000
# 3 -0.003193 -0.003193 0.011167 0.000000 0.000000 0.000000
# 4 0.000000 0.000000 0.000000 0.069474 0.000000 0.000000
# 5 0.000000 0.000000 0.000000 0.000000 0.069474 0.000000
# 6 0.000000 0.000000 0.000000 0.000000 0.000000 0.062399
#
#
# Mechanical properties :
#
#
# Convention : Reuss Voigt Hill
#
# Bulk Modulus (GPa) = 48.32201 49.36274 48.84238
# Shear Modulus (GPa) = 16.97319 18.79327 17.88323
#
# Velocity S-wave (km/s) = 3.29125 3.46322 3.37833
# Velocity P-wave (km/s) = 6.72921 6.89168 6.81093
#
# Compressibility (1/GPa) = 0.02069450
#
# Stress axis : x y z
#
# Youngs Moduli (GPa) = 47.22598 47.22598 89.55195
#
# Poissons Ratio (x) = 0.47342 0.28595
# Poissons Ratio (y) = 0.47342 0.28595
# Poissons Ratio (z) = 0.15080 0.15080
#
# Static dielectric constant tensor:
#      x y z
#    x 2.730720 0.000000 0.000000 
#    y 0.000000 2.730720 0.000000 
#    z 0.000000 0.000000 3.298060 
# 
# 
# High freq. dielectric constant tensor:
#      x y z
#    x 1.571350 0.000000 0.000000 
#    y 0.000000 1.571350 0.000000 
#    z 0.000000 0.000000 1.618230 
# 
# From -- ./inp_files/10405.got.cif
#   From: 2010.03.12/outbox.cif.g09.slc.cpg/sg191_6_cif.got.tgz:10405.got - 2010.04.01 12:09:02.
