data_PCOD8328639
_publ_section_title
;
Structure prediction by ZEFSAII (Michael W. Deem and Ramdas Pophale) SiO2 
 PCOD8328639
Probable space group: P 6/M M M
;
_chemical_formula_sum "Si O2"
_cell_formula_units_Z 132
_cell_length_a 27.041082
_cell_length_b 27.041082
_cell_length_c 14.406764
_cell_angle_alpha 90.000000
_cell_angle_beta 90.000000
_cell_angle_gamma 120.000000
_cell_volume 9123.158160
_symmetry_space_group_name_H-M "P 6/M M M"
_symmetry_group_IT_number 191
_symmetry_cell_setting 'hexagonal'
loop_
_space_group_symop_operation_xyz
x,y,z
x-y,x,z
-y,x-y,z
-x,-y,z
-x+y,-x,z
y,-x+y,z
x-y,-y,-z
-x,-x+y,-z
y,x,-z
-y,-x,-z
-x+y,y,-z
x,x-y,-z
-x,-y,-z
-x+y,-x,-z
y,-x+y,-z
x,y,-z
x-y,x,-z
-y,x-y,-z
-x+y,y,z
x,x-y,z
-y,-x,z
y,x,z
x-y,-y,z
-x,-x+y,z
loop_
_atom_site_type_symbol
_atom_site_label
_atom_site_fract_x
_atom_site_fract_y
_atom_site_fract_z
Si Si1 0.932661 0.334057 0.601797
Si Si2 0.631159 0.563368 0.794615
Si Si3 0.338738 0.067794 0.895353
Si Si4 0.096532 0.791032 0.603209
Si Si5 0.534075 0.465926 0.105371
Si Si6 0.823711 0.064175 0.215914
O O1 0.911748 0.342989 0.500000
O O2 0.914396 0.361535 0.685313
O O3 0.906714 0.268150 0.626317
O O4 0.000000 0.360889 0.600796
O O5 0.597230 0.597230 0.804898
O O6 0.692948 0.600338 0.843494
O O7 0.595093 0.501970 0.843592
O O8 0.298267 0.086978 0.843914
O O9 0.307526 0.000000 0.895202
O O10 0.349981 0.091911 0.000000
O O11 0.071968 0.789831 0.500000
O O12 0.162962 0.837039 0.610070
O O13 0.061106 0.805768 0.676554
O O14 0.500000 0.500000 0.108714
O O15 0.545116 0.454885 0.000000
O O16 0.891279 0.108721 0.201221
O O17 0.808465 0.000000 0.186228
#
# Coordination Sequence:
#
# PCOD8328639 Si02
#       6
#    24  24  24  24  12  24
#     4   9  15  23  36  52  72 100 130 160 198 241
#     4   9  15  24  36  52  73  98 128 161 194 223
#     4   9  16  26  40  56  74  97 125 158 197 239
#     4   9  16  25  39  59  80 101 127 162 204 252
#     4   9  16  24  35  51  71  97 130 168 199 219
#     4  10  19  30  43  60  80 101 128 165 212 265
#
# _framework density 14.468674999999999
#
# number of rings (size 3 to 8) (size 9 to 14) (size 15 to 20)
#    0.000    2.818    1.818    1.091    0.000    3.636 
#    0.000    0.455    0.000    2.909    0.000    0.000 
#    0.000    0.000    0.000    9.091    0.000    0.000 
#
# Total GULP energy -1635739.937905 kJ/mol
# GULP energy per Si atom -12391.969227 kJ/mol
# Density = 1.443574 g / cm^3
# Si number density = 14.468675 Si / 1000 Ang^3
#
#
#
# Elastic Constant Matrix: (Units=GPa)
#
#
# Indices 1 2 3 4 5 6 
#
# 1 50.3525 30.4404 32.8233 0.0000 0.0000 0.0000
# 2 30.4404 50.3525 32.8233 0.0000 0.0000 0.0000
# 3 32.8233 32.8233 102.2674 0.0000 0.0000 0.0000
# 4 0.0000 0.0000 0.0000 15.5926 0.0000 0.0000
# 5 0.0000 0.0000 0.0000 0.0000 15.5926 0.0000
# 6 0.0000 0.0000 0.0000 0.0000 0.0000 9.9560
#
#
#
# Elastic Compliance Matrix: (Units=1/GPa)
#
#
# Indices 1 2 3 4 5 6 
#
# 1 0.033482 -0.016738 -0.005374 0.000000 0.000000 0.000000
# 2 -0.016738 0.033482 -0.005374 0.000000 0.000000 0.000000
# 3 -0.005374 -0.005374 0.013228 0.000000 0.000000 0.000000
# 4 0.000000 0.000000 0.000000 0.064133 0.000000 0.000000
# 5 0.000000 0.000000 0.000000 0.000000 0.064133 0.000000
# 6 0.000000 0.000000 0.000000 0.000000 0.000000 0.100442
#
#
# Mechanical properties :
#
#
# Convention : Reuss Voigt Hill
#
# Bulk Modulus (GPa) = 39.65180 43.90515 41.77847
# Shear Modulus (GPa) = 13.43075 15.35393 14.39234
#
# Velocity S-wave (km/s) = 3.05005 3.26112 3.15735
# Velocity P-wave (km/s) = 6.31415 6.67763 6.49843
#
# Compressibility (1/GPa) = 0.02521954
#
# Stress axis : x y z
#
# Youngs Moduli (GPa) = 29.86651 29.86651 75.59757
#
# Poissons Ratio (x) = 0.49992 0.40626
# Poissons Ratio (y) = 0.49992 0.40626
# Poissons Ratio (z) = 0.16050 0.16050
#
# Static dielectric constant tensor:
#      x y z
#    x 2.550180 0.000000 0.000000 
#    y 0.000000 2.550180 0.000000 
#    z 0.000000 0.000000 3.244830 
# 
# 
# High freq. dielectric constant tensor:
#      x y z
#    x 1.507430 0.000000 0.000000 
#    y 0.000000 1.507430 0.000000 
#    z 0.000000 0.000000 1.578080 
# 
# From -- ./inp_files/5113.got.cif
#   From: 2010.03.12/outbox.cif.g09.slc.cpg/sg191_3_cif.got.tgz:5113.got - 2010.04.01 12:09:02.
