data_PCOD8328914
_publ_section_title
;
Structure prediction by ZEFSAII (Michael W. Deem and Ramdas Pophale) SiO2 
 PCOD8328914
Probable space group: P 6/M M M
;
_chemical_formula_sum "Si O2"
_cell_formula_units_Z 108
_cell_length_a 33.353036
_cell_length_b 33.353036
_cell_length_c 8.063781
_cell_angle_alpha 90.000000
_cell_angle_beta 90.000000
_cell_angle_gamma 120.000000
_cell_volume 7768.552421
_symmetry_space_group_name_H-M "P 6/M M M"
_symmetry_group_IT_number 191
_symmetry_cell_setting 'hexagonal'
loop_
_space_group_symop_operation_xyz
x,y,z
x-y,x,z
-y,x-y,z
-x,-y,z
-x+y,-x,z
y,-x+y,z
x-y,-y,-z
-x,-x+y,-z
y,x,-z
-y,-x,-z
-x+y,y,-z
x,x-y,-z
-x,-y,-z
-x+y,-x,-z
y,-x+y,-z
x,y,-z
x-y,x,-z
-y,x-y,-z
-x+y,y,z
x,x-y,z
-y,-x,z
y,x,z
x-y,-y,z
-x,-x+y,z
loop_
_atom_site_type_symbol
_atom_site_label
_atom_site_fract_x
_atom_site_fract_y
_atom_site_fract_z
Si Si1 0.051848 0.340851 0.306610
Si Si2 0.573115 0.517911 0.000000
Si Si3 0.099634 0.288456 0.809626
Si Si4 0.050512 0.188990 0.307634
Si Si5 0.944980 0.377750 0.315082
O O1 0.050349 0.331303 0.500000
O O2 0.088195 0.329048 0.222798
O O3 0.070009 0.394873 0.272111
O O4 0.000000 0.309164 0.232229
O O5 0.603666 0.529041 0.831638
O O6 0.547786 0.547786 0.000000
O O7 0.536512 0.463489 0.000000
O O8 0.152798 0.305596 0.756287
O O9 0.064391 0.242453 0.710129
O O10 0.092177 0.274394 0.000000
O O11 0.047210 0.177398 0.500000
O O12 0.090141 0.180281 0.225110
O O13 0.000000 0.155972 0.224997
O O14 0.926345 0.380937 0.500000
O O15 0.000000 0.407526 0.320509
#
# Coordination Sequence:
#
# PCOD8328914 Si02
#       5
#    24  12  24  24  24
#     4   9  17  28  41  55  70  92 122 152 184 223
#     4   9  16  24  36  54  73  96 124 150 184 224
#     4  10  20  29  37  54  76  94 115 145 182 223
#     4   9  17  29  43  56  71  91 113 137 169 216
#     4   8  15  26  37  52  73  94 121 155 186 221
#
# _framework density 13.902203
#
# number of rings (size 3 to 8) (size 9 to 14) (size 15 to 20)
#    0.000    3.000    0.000    2.667    1.556    5.333 
#    0.000    2.222    0.000    0.222    0.000    1.556 
#    0.000    0.000    0.000    5.556    0.000    5.778 
#
# Total GULP energy -1338306.235194 kJ/mol
# GULP energy per Si atom -12391.724400 kJ/mol
# Density = 1.387056 g / cm^3
# Si number density = 13.902203 Si / 1000 Ang^3
#
#
#
# Elastic Constant Matrix: (Units=GPa)
#
#
# Indices 1 2 3 4 5 6 
#
# 1 73.0471 37.7384 33.4363 0.0000 0.0000 0.0000
# 2 37.7384 73.0471 33.4363 0.0000 0.0000 0.0000
# 3 33.4363 33.4363 60.7021 0.0000 0.0000 0.0000
# 4 0.0000 0.0000 0.0000 14.5079 0.0000 0.0000
# 5 0.0000 0.0000 0.0000 0.0000 14.5079 0.0000
# 6 0.0000 0.0000 0.0000 0.0000 0.0000 17.6544
#
#
#
# Elastic Compliance Matrix: (Units=1/GPa)
#
#
# Indices 1 2 3 4 5 6 
#
# 1 0.020922 -0.007400 -0.007449 0.000000 0.000000 0.000000
# 2 -0.007400 0.020922 -0.007449 0.000000 0.000000 0.000000
# 3 -0.007449 -0.007449 0.024680 0.000000 0.000000 0.000000
# 4 0.000000 0.000000 0.000000 0.068928 0.000000 0.000000
# 5 0.000000 0.000000 0.000000 0.000000 0.068928 0.000000
# 6 0.000000 0.000000 0.000000 0.000000 0.000000 0.056643
#
#
# Mechanical properties :
#
#
# Convention : Reuss Voigt Hill
#
# Bulk Modulus (GPa) = 45.59869 46.22426 45.91148
# Shear Modulus (GPa) = 15.97821 16.14640 16.06231
#
# Velocity S-wave (km/s) = 3.39385 3.41167 3.40277
# Velocity P-wave (km/s) = 6.94467 6.98864 6.96669
#
# Compressibility (1/GPa) = 0.02193045
#
# Stress axis : x y z
#
# Youngs Moduli (GPa) = 47.79635 47.79635 40.51918
#
# Poissons Ratio (x) = 0.35367 0.30181
# Poissons Ratio (y) = 0.35367 0.30181
# Poissons Ratio (z) = 0.35602 0.35602
#
# Static dielectric constant tensor:
#      x y z
#    x 2.668750 0.000000 0.000000 
#    y 0.000000 2.668750 0.000000 
#    z 0.000000 0.000000 2.873290 
# 
# 
# High freq. dielectric constant tensor:
#      x y z
#    x 1.494270 0.000000 0.000000 
#    y 0.000000 1.494270 0.000000 
#    z 0.000000 0.000000 1.539500 
# 
# From -- ./inp_files/1728.got.cif
#   From: 2010.03.12/outbox.cif.g09.slc.cpg/sg191_1_cif.got.tgz:1728.got - 2010.04.01 12:09:02.
