data_PCOD8328586
_publ_section_title
;
Structure prediction by ZEFSAII (Michael W. Deem and Ramdas Pophale) SiO2 
 PCOD8328586
Probable space group: P 6/M M M
;
_chemical_formula_sum "Si O2"
_cell_formula_units_Z 144
_cell_length_a 21.196441
_cell_length_b 21.196441
_cell_length_c 26.691788
_cell_angle_alpha 90.000000
_cell_angle_beta 90.000000
_cell_angle_gamma 120.000000
_cell_volume 10385.662174
_symmetry_space_group_name_H-M "P 6/M M M"
_symmetry_group_IT_number 191
_symmetry_cell_setting 'hexagonal'
loop_
_space_group_symop_operation_xyz
x,y,z
x-y,x,z
-y,x-y,z
-x,-y,z
-x+y,-x,z
y,-x+y,z
x-y,-y,-z
-x,-x+y,-z
y,x,-z
-y,-x,-z
-x+y,y,-z
x,x-y,-z
-x,-y,-z
-x+y,-x,-z
y,-x+y,-z
x,y,-z
x-y,x,-z
-y,x-y,-z
-x+y,y,z
x,x-y,z
-y,-x,z
y,x,z
x-y,-y,z
-x,-x+y,z
loop_
_atom_site_type_symbol
_atom_site_label
_atom_site_fract_x
_atom_site_fract_y
_atom_site_fract_z
Si Si1 0.533711 0.615375 0.143813
Si Si2 0.667861 0.196051 0.500000
Si Si3 0.612651 0.530489 0.327299
Si Si4 0.135797 0.412893 0.415189
Si Si5 0.333225 0.520582 0.942677
Si Si6 0.334250 0.816456 0.766333
Si Si7 0.299723 0.078406 0.500000
O O1 0.462646 0.537355 0.148263
O O2 0.604174 0.604174 0.146239
O O3 0.534521 0.653820 0.091408
O O4 0.533245 0.665572 0.188881
O O5 0.716189 0.283812 0.500000
O O6 0.583438 0.166875 0.500000
O O7 0.684683 0.167626 0.449779
O O8 0.547409 0.452592 0.347127
O O9 0.577746 0.577746 0.305759
O O10 0.667881 0.577209 0.371164
O O11 0.657387 0.517062 0.284628
O O12 0.201988 0.403975 0.392943
O O13 0.084318 0.344386 0.449825
O O14 0.257967 0.515933 0.927249
O O15 0.396491 0.603510 0.933665
O O16 0.332068 0.496871 0.000000
O O17 0.399260 0.798520 0.772884
O O18 0.258505 0.741496 0.765958
O O19 0.273745 0.136873 0.500000
O O20 0.227624 0.000000 0.500000
#
# Coordination Sequence:
#
# PCOD8328586 Si02
#       7
#    24  12  24  24  24  24  12
#     4   9  17  28  40  54  73  96 122 152 187 228
#     4   9  16  25  37  53  74 100 128 158 191 223
#     4  10  19  29  41  56  75  99 125 154 189 227
#     4   9  17  28  41  57  76  98 125 155 184 216
#     4   9  16  25  38  56  77 100 126 157 192 227
#     4  10  19  30  43  57  73  94 122 156 193 231
#     4   9  17  29  45  62  79  98 119 145 177 215
#
# _framework density 13.865269
#
# number of rings (size 3 to 8) (size 9 to 14) (size 15 to 20)
#    0.000    2.667    0.000    3.917    0.000    3.000 
#    0.000    3.333    0.000    9.417    0.000    0.000 
#    0.000    0.000    0.000    0.000    0.000    0.000 
#
# Total GULP energy -1784881.522301 kJ/mol
# GULP energy per Si atom -12395.010572 kJ/mol
# Density = 1.383371 g / cm^3
# Si number density = 13.865269 Si / 1000 Ang^3
#
#
#
# Elastic Constant Matrix: (Units=GPa)
#
#
# Indices 1 2 3 4 5 6 
#
# 1 79.7897 45.9908 39.7953 0.0000 0.0000 0.0000
# 2 45.9908 79.7897 39.7953 0.0000 0.0000 0.0000
# 3 39.7953 39.7953 79.1932 0.0000 0.0000 0.0000
# 4 0.0000 0.0000 0.0000 19.9786 0.0000 0.0000
# 5 0.0000 0.0000 0.0000 0.0000 19.9786 0.0000
# 6 0.0000 0.0000 0.0000 0.0000 0.0000 16.8995
#
#
#
# Elastic Compliance Matrix: (Units=1/GPa)
#
#
# Indices 1 2 3 4 5 6 
#
# 1 0.020622 -0.008965 -0.005858 0.000000 0.000000 0.000000
# 2 -0.008965 0.020622 -0.005858 0.000000 0.000000 0.000000
# 3 -0.005858 -0.005858 0.018514 0.000000 0.000000 0.000000
# 4 0.000000 0.000000 0.000000 0.050054 0.000000 0.000000
# 5 0.000000 0.000000 0.000000 0.000000 0.050054 0.000000
# 6 0.000000 0.000000 0.000000 0.000000 0.000000 0.059173
#
#
# Mechanical properties :
#
#
# Convention : Reuss Voigt Hill
#
# Bulk Modulus (GPa) = 54.35524 54.43726 54.39625
# Shear Modulus (GPa) = 18.75946 18.91740 18.83843
#
# Velocity S-wave (km/s) = 3.68228 3.69775 3.69002
# Velocity P-wave (km/s) = 7.57407 7.58801 7.58104
#
# Compressibility (1/GPa) = 0.01839749
#
# Stress axis : x y z
#
# Youngs Moduli (GPa) = 48.49223 48.49223 54.01175
#
# Poissons Ratio (x) = 0.43473 0.31639
# Poissons Ratio (y) = 0.43473 0.31639
# Poissons Ratio (z) = 0.28406 0.28406
#
# Static dielectric constant tensor:
#      x y z
#    x 2.626550 0.000000 0.000000 
#    y 0.000000 2.626550 0.000000 
#    z 0.000000 0.000000 2.700730 
# 
# 
# High freq. dielectric constant tensor:
#      x y z
#    x 1.507470 0.000000 0.000000 
#    y 0.000000 1.507470 0.000000 
#    z 0.000000 0.000000 1.534450 
# 
# From -- ./inp_files/9960.got.cif
#   From: 2010.03.12/outbox.cif.g09.slc.cpg/sg191_5_cif.got.tgz:9960.got - 2010.04.01 12:09:02.
