data_PCOD8328141
_publ_section_title
;
Structure prediction by ZEFSAII (Michael W. Deem and Ramdas Pophale) SiO2 
 PCOD8328141
Probable space group: P -6 2 C
;
_chemical_formula_sum "Si O2"
_cell_formula_units_Z 42
_cell_length_a 8.593672
_cell_length_b 8.593672
_cell_length_c 32.037425
_cell_angle_alpha 90.000000
_cell_angle_beta 90.000000
_cell_angle_gamma 120.000000
_cell_volume 2049.018038
_symmetry_space_group_name_H-M "P -6 2 C"
_symmetry_group_IT_number 190
_symmetry_cell_setting 'hexagonal'
loop_
_space_group_symop_operation_xyz
x,y,z
-x+y,-x,1/2-z
-y,x-y,z
x,y,1/2-z
-x+y,-x,z
-y,x-y,1/2-z
x-y,-y,-z
-x,-x+y,-z
y,x,-z
y,x,1/2+z
x-y,-y,1/2+z
-x,-x+y,1/2+z
loop_
_atom_site_type_symbol
_atom_site_label
_atom_site_fract_x
_atom_site_fract_y
_atom_site_fract_z
Si Si1 0.489628 0.372403 0.250000
Si Si2 0.320393 0.997979 0.951790
Si Si3 0.650437 0.998220 0.080793
Si Si4 0.510954 0.883044 0.330159
O O1 0.701692 0.525348 0.250000
O O2 0.389871 0.388486 0.209681
O O3 0.392423 0.192757 0.931761
O O4 0.475697 0.947115 0.946802
O O5 0.141117 0.856874 0.927766
O O6 0.273440 0.000000 0.000000
O O7 0.606774 0.002233 0.129352
O O8 0.298906 0.823955 0.329722
#
# Coordination Sequence:
#
# PCOD8328141 Si02
#       4
#     6  12  12  12
#     4  10  24  36  68 106 130 162 226 276 330 410
#     4  12  24  42  64  95 136 179 235 295 353 411
#     4  12  25  43  67  99 133 186 235 289 352 422
#     4  10  21  44  68  93 134 182 221 271 349 407
#
# _framework density 20.497624999999999
#
# number of rings (size 3 to 8) (size 9 to 14) (size 15 to 20)
#    0.857    0.000    2.857    5.143    4.000    0.000 
#    0.000    0.000    0.000    4.571    0.000    0.000 
#    0.000    0.000    0.000    0.000    0.000    0.000 
#
# Total GULP energy -520964.624021 kJ/mol
# GULP energy per Si atom -12403.919620 kJ/mol
# Density = 2.045097 g / cm^3
# Si number density = 20.497625 Si / 1000 Ang^3
#
#
#
# Elastic Constant Matrix: (Units=GPa)
#
#
# Indices 1 2 3 4 5 6 
#
# 1 82.9351 15.5770 50.6078 0.0000 0.0000 0.0000
# 2 15.5770 82.9351 50.6078 0.0000 0.0000 0.0000
# 3 50.6078 50.6078 185.6630 0.0000 0.0000 0.0000
# 4 0.0000 0.0000 0.0000 35.6946 0.0000 0.0000
# 5 0.0000 0.0000 0.0000 0.0000 35.6946 0.0000
# 6 0.0000 0.0000 0.0000 0.0000 0.0000 33.6791
#
#
#
# Elastic Compliance Matrix: (Units=1/GPa)
#
#
# Indices 1 2 3 4 5 6 
#
# 1 0.014473 -0.000373 -0.003843 0.000000 0.000000 0.000000
# 2 -0.000373 0.014473 -0.003843 0.000000 0.000000 0.000000
# 3 -0.003843 -0.003843 0.007481 0.000000 0.000000 0.000000
# 4 0.000000 0.000000 0.000000 0.028015 0.000000 0.000000
# 5 0.000000 0.000000 0.000000 0.000000 0.028015 0.000000
# 6 0.000000 0.000000 0.000000 0.000000 0.000000 0.029692
#
#
# Mechanical properties :
#
#
# Convention : Reuss Voigt Hill
#
# Bulk Modulus (GPa) = 49.24240 65.01316 57.12778
# Shear Modulus (GPa) = 34.47355 36.66304 35.56829
#
# Velocity S-wave (km/s) = 4.10546 4.23383 4.17014
# Velocity P-wave (km/s) = 6.82266 7.46235 7.14966
#
# Compressibility (1/GPa) = 0.02030770
#
# Stress axis : x y z
#
# Youngs Moduli (GPa) = 69.09458 69.09458 133.66648
#
# Poissons Ratio (x) = 0.02578 0.51372
# Poissons Ratio (y) = 0.02578 0.51372
# Poissons Ratio (z) = 0.26555 0.26555
#
# Static dielectric constant tensor:
#      x y z
#    x 3.520280 0.000000 0.000000 
#    y 0.000000 3.520280 0.000000 
#    z 0.000000 0.000000 3.660440 
# 
# 
# High freq. dielectric constant tensor:
#      x y z
#    x 1.794070 0.000000 0.000000 
#    y 0.000000 1.794070 0.000000 
#    z 0.000000 0.000000 1.812170 
# 
# From -- ./inp_files/5069.got.cif
#   From: 2010.06.25/outbox.cif.g09.slc.cpg/sg190_3_cif.got.tgz:5069.got - 2010.06.28 13:08:06.
