data_PCOD8328623
_publ_section_title
;
Structure prediction by ZEFSAII (Michael W. Deem and Ramdas Pophale) SiO2 
 PCOD8328623
Probable space group: P 6/M M M
;
_chemical_formula_sum "Si O2"
_cell_formula_units_Z 120
_cell_length_a 17.702316
_cell_length_b 17.702316
_cell_length_c 27.239569
_cell_angle_alpha 90.000000
_cell_angle_beta 90.000000
_cell_angle_gamma 120.000000
_cell_volume 7392.495031
_symmetry_space_group_name_H-M "P 6/M M M"
_symmetry_group_IT_number 191
_symmetry_cell_setting 'hexagonal'
loop_
_space_group_symop_operation_xyz
x,y,z
x-y,x,z
-y,x-y,z
-x,-y,z
-x+y,-x,z
y,-x+y,z
x-y,-y,-z
-x,-x+y,-z
y,x,-z
-y,-x,-z
-x+y,y,-z
x,x-y,-z
-x,-y,-z
-x+y,-x,-z
y,-x+y,-z
x,y,-z
x-y,x,-z
-y,x-y,-z
-x+y,y,z
x,x-y,z
-y,-x,z
y,x,z
x-y,-y,z
-x,-x+y,z
loop_
_atom_site_type_symbol
_atom_site_label
_atom_site_fract_x
_atom_site_fract_y
_atom_site_fract_z
Si Si1 0.505533 0.836440 0.197948
Si Si2 0.364637 0.898344 0.907552
Si Si3 0.000000 0.410478 0.554846
Si Si4 0.631195 0.901346 0.715743
Si Si5 0.364315 0.100300 0.000000
Si Si6 0.331563 0.488738 0.376983
O O1 0.429711 0.859422 0.206551
O O2 0.470883 0.735442 0.211474
O O3 0.537264 0.850844 0.141704
O O4 0.587547 0.897772 0.231948
O O5 0.434143 0.868286 0.921705
O O6 0.299033 0.873809 0.952470
O O7 0.413467 0.000000 0.896515
O O8 0.086878 0.426440 0.582722
O O9 0.000000 0.500000 0.552767
O O10 0.000000 0.375936 0.500000
O O11 0.668801 0.834401 0.713639
O O12 0.555948 0.874883 0.675620
O O13 0.710458 0.000000 0.707353
O O14 0.318161 0.159081 0.000000
O O15 0.289152 0.000000 0.000000
O O16 0.249817 0.499634 0.391928
O O17 0.416821 0.583180 0.374607
#
# Coordination Sequence:
#
# PCOD8328623 Si02
#       6
#    24  24  12  24  12  24
#     4  10  19  29  43  65  96 129 160 190 222 261
#     4   9  17  29  45  65  87 115 150 188 228 271
#     4   9  18  32  48  66  92 126 161 198 238 276
#     4  10  20  33  50  71  94 122 154 192 235 281
#     4  10  19  31  47  64  85 113 150 192 233 277
#     4  10  19  31  48  70  97 128 163 199 237 279
#
# _framework density 16.232679000000001
#
# number of rings (size 3 to 8) (size 9 to 14) (size 15 to 20)
#    0.000    2.300    1.000    2.500    0.000    3.600 
#    0.000    2.000    0.000    4.300    0.000    0.000 
#    0.000    0.000    0.000    6.400    0.000    9.100 
#
# Total GULP energy -1487833.371540 kJ/mol
# GULP energy per Si atom -12398.611430 kJ/mol
# Density = 1.619573 g / cm^3
# Si number density = 16.232679 Si / 1000 Ang^3
#
#
#
# Elastic Constant Matrix: (Units=GPa)
#
#
# Indices 1 2 3 4 5 6 
#
# 1 95.1551 53.7902 42.1144 0.0000 0.0000 0.0000
# 2 53.7902 95.1551 42.1144 0.0000 0.0000 0.0000
# 3 42.1144 42.1144 85.1207 0.0000 0.0000 0.0000
# 4 0.0000 0.0000 0.0000 18.1119 0.0000 0.0000
# 5 0.0000 0.0000 0.0000 0.0000 18.1119 0.0000
# 6 0.0000 0.0000 0.0000 0.0000 0.0000 20.6825
#
#
#
# Elastic Compliance Matrix: (Units=1/GPa)
#
#
# Indices 1 2 3 4 5 6 
#
# 1 0.016749 -0.007427 -0.004612 0.000000 0.000000 0.000000
# 2 -0.007427 0.016749 -0.004612 0.000000 0.000000 0.000000
# 3 -0.004612 -0.004612 0.016312 0.000000 0.000000 0.000000
# 4 0.000000 0.000000 0.000000 0.055212 0.000000 0.000000
# 5 0.000000 0.000000 0.000000 0.000000 0.055212 0.000000
# 6 0.000000 0.000000 0.000000 0.000000 0.000000 0.048350
#
#
# Mechanical properties :
#
#
# Convention : Reuss Voigt Hill
#
# Bulk Modulus (GPa) = 60.57940 61.27429 60.92685
# Shear Modulus (GPa) = 20.21118 20.54206 20.37662
#
# Velocity S-wave (km/s) = 3.53241 3.56121 3.54684
# Velocity P-wave (km/s) = 7.35103 7.39859 7.37485
#
# Compressibility (1/GPa) = 0.01650726
#
# Stress axis : x y z
#
# Youngs Moduli (GPa) = 59.70654 59.70654 61.30499
#
# Poissons Ratio (x) = 0.44341 0.28275
# Poissons Ratio (y) = 0.44341 0.28275
# Poissons Ratio (z) = 0.27538 0.27538
#
# Static dielectric constant tensor:
#      x y z
#    x 2.988160 0.000000 0.000000 
#    y 0.000000 2.988160 0.000000 
#    z 0.000000 0.000000 3.241710 
# 
# 
# High freq. dielectric constant tensor:
#      x y z
#    x 1.606360 0.000000 0.000000 
#    y 0.000000 1.606360 0.000000 
#    z 0.000000 0.000000 1.636440 
# 
# From -- ./inp_files/8626.got.cif
#   From: 2010.03.12/outbox.cif.g09.slc.cpg/sg191_5_cif.got.tgz:8626.got - 2010.04.01 12:09:02.
