data_PCOD8328220
_publ_section_title
;
Structure prediction by ZEFSAII (Michael W. Deem and Ramdas Pophale) SiO2 
 PCOD8328220
Probable space group: P 6/M M M
;
_chemical_formula_sum "Si O2"
_cell_formula_units_Z 108
_cell_length_a 26.605564
_cell_length_b 26.605564
_cell_length_c 11.848892
_cell_angle_alpha 90.000000
_cell_angle_beta 90.000000
_cell_angle_gamma 120.000000
_cell_volume 7263.623286
_symmetry_space_group_name_H-M "P 6/M M M"
_symmetry_group_IT_number 191
_symmetry_cell_setting 'hexagonal'
loop_
_space_group_symop_operation_xyz
x,y,z
x-y,x,z
-y,x-y,z
-x,-y,z
-x+y,-x,z
y,-x+y,z
x-y,-y,-z
-x,-x+y,-z
y,x,-z
-y,-x,-z
-x+y,y,-z
x,x-y,-z
-x,-y,-z
-x+y,-x,-z
y,-x+y,-z
x,y,-z
x-y,x,-z
-y,x-y,-z
-x+y,y,z
x,x-y,z
-y,-x,z
y,x,z
x-y,-y,z
-x,-x+y,z
loop_
_atom_site_type_symbol
_atom_site_label
_atom_site_fract_x
_atom_site_fract_y
_atom_site_fract_z
Si Si1 0.068394 0.661399 0.000000
Si Si2 0.693250 0.788862 0.000000
Si Si3 0.069264 0.534632 0.371396
Si Si4 0.178820 0.243942 0.229613
Si Si5 0.339793 0.068930 0.373551
Si Si6 0.931085 0.563295 0.243294
O O1 0.097525 0.730124 0.000000
O O2 0.087836 0.640519 0.888369
O O3 0.000000 0.636397 0.000000
O O4 0.731484 0.793834 0.107940
O O5 0.675772 0.837886 0.000000
O O6 0.092112 0.546056 0.500000
O O7 0.094041 0.498127 0.306770
O O8 0.000000 0.500000 0.369952
O O9 0.109511 0.219022 0.232656
O O10 0.192093 0.192093 0.259199
O O11 0.208831 0.296732 0.318266
O O12 0.354945 0.094172 0.500000
O O13 0.399393 0.094397 0.302583
O O14 0.308800 0.000000 0.374390
O O15 0.000000 0.597747 0.253217
#
# Coordination Sequence:
#
# PCOD8328220 Si02
#       6
#    12  12  12  24  24  24
#     4  10  16  25  40  56  78 104 136 175 216 252
#     4  10  18  28  44  63  82 104 133 173 221 270
#     4   9  16  25  35  51  77 108 143 177 203 225
#     4  10  19  30  45  63  82 104 133 174 225 280
#     4   9  16  26  40  57  77 103 134 167 207 250
#     4   9  16  24  37  54  76 106 137 173 206 230
#
# _framework density 14.868612000000001
#
# number of rings (size 3 to 8) (size 9 to 14) (size 15 to 20)
#    0.000    2.556    2.222    1.667    0.000    3.556 
#    0.000    2.222    0.000    0.222    0.000    0.000 
#    0.000    2.667    0.000    5.556    0.000    0.000 
#
# Total GULP energy -1338804.158144 kJ/mol
# GULP energy per Si atom -12396.334798 kJ/mol
# Density = 1.483477 g / cm^3
# Si number density = 14.868612 Si / 1000 Ang^3
#
#
#
# Elastic Constant Matrix: (Units=GPa)
#
#
# Indices 1 2 3 4 5 6 
#
# 1 60.4162 29.8346 31.4831 0.0000 0.0000 0.0000
# 2 29.8346 60.4162 31.4831 0.0000 0.0000 0.0000
# 3 31.4831 31.4831 126.2027 0.0000 0.0000 0.0000
# 4 0.0000 0.0000 0.0000 14.6994 0.0000 0.0000
# 5 0.0000 0.0000 0.0000 0.0000 14.6994 0.0000
# 6 0.0000 0.0000 0.0000 0.0000 0.0000 15.2908
#
#
#
# Elastic Compliance Matrix: (Units=1/GPa)
#
#
# Indices 1 2 3 4 5 6 
#
# 1 0.023057 -0.009642 -0.003347 0.000000 0.000000 0.000000
# 2 -0.009642 0.023057 -0.003347 0.000000 0.000000 0.000000
# 3 -0.003347 -0.003347 0.009593 0.000000 0.000000 0.000000
# 4 0.000000 0.000000 0.000000 0.068030 0.000000 0.000000
# 5 0.000000 0.000000 0.000000 0.000000 0.068030 0.000000
# 6 0.000000 0.000000 0.000000 0.000000 0.000000 0.065399
#
#
# Mechanical properties :
#
#
# Convention : Reuss Voigt Hill
#
# Bulk Modulus (GPa) = 43.40790 48.07075 45.73933
# Shear Modulus (GPa) = 16.80577 19.22019 18.01298
#
# Velocity S-wave (km/s) = 3.36562 3.59927 3.48440
# Velocity P-wave (km/s) = 6.66040 7.04795 6.85691
#
# Compressibility (1/GPa) = 0.02303728
#
# Stress axis : x y z
#
# Youngs Moduli (GPa) = 43.37025 43.37025 104.23754
#
# Poissons Ratio (x) = 0.41818 0.34884
# Poissons Ratio (y) = 0.41818 0.34884
# Poissons Ratio (z) = 0.14514 0.14514
#
# Static dielectric constant tensor:
#      x y z
#    x 2.586840 0.000000 0.000000 
#    y 0.000000 2.586840 0.000000 
#    z 0.000000 0.000000 3.213810 
# 
# 
# High freq. dielectric constant tensor:
#      x y z
#    x 1.526140 0.000000 0.000000 
#    y 0.000000 1.526140 0.000000 
#    z 0.000000 0.000000 1.592130 
# 
# From -- ./inp_files/3007.got.cif
#   From: 2010.03.12/outbox.cif.g09.slc.cpg/sg191_2_cif.got.tgz:3007.got - 2010.04.01 12:09:02.
