data_PCOD8328597
_publ_section_title
;
Structure prediction by ZEFSAII (Michael W. Deem and Ramdas Pophale) SiO2 
 PCOD8328597
Probable space group: P 6/M M M
;
_chemical_formula_sum "Si O2"
_cell_formula_units_Z 108
_cell_length_a 18.317171
_cell_length_b 18.317171
_cell_length_c 22.724536
_cell_angle_alpha 90.000000
_cell_angle_beta 90.000000
_cell_angle_gamma 120.000000
_cell_volume 6603.017612
_symmetry_space_group_name_H-M "P 6/M M M"
_symmetry_group_IT_number 191
_symmetry_cell_setting 'hexagonal'
loop_
_space_group_symop_operation_xyz
x,y,z
x-y,x,z
-y,x-y,z
-x,-y,z
-x+y,-x,z
y,-x+y,z
x-y,-y,-z
-x,-x+y,-z
y,x,-z
-y,-x,-z
-x+y,y,-z
x,x-y,-z
-x,-y,-z
-x+y,-x,-z
y,-x+y,-z
x,y,-z
x-y,x,-z
-y,x-y,-z
-x+y,y,z
x,x-y,z
-y,-x,z
y,x,z
x-y,-y,z
-x,-x+y,z
loop_
_atom_site_type_symbol
_atom_site_label
_atom_site_fract_x
_atom_site_fract_y
_atom_site_fract_z
Si Si1 0.836082 0.331583 0.000000
Si Si2 0.350898 0.257374 0.770736
Si Si3 0.500938 0.831869 0.684618
Si Si4 0.260166 0.355785 0.905904
Si Si5 0.094624 0.633947 0.563870
O O1 0.880964 0.320463 0.057450
O O2 0.736836 0.263165 0.000000
O O3 0.848898 0.424449 0.000000
O O4 0.320686 0.160343 0.754952
O O5 0.272387 0.272387 0.759677
O O6 0.428165 0.320856 0.730171
O O7 0.382143 0.278143 0.837851
O O8 0.425050 0.850099 0.691555
O O9 0.469512 0.734756 0.699402
O O10 0.538995 0.849519 0.618382
O O11 0.161550 0.323100 0.921428
O O12 0.282043 0.282043 0.920795
O O13 0.130332 0.678688 0.500000
O O14 0.093459 0.546730 0.564305
O O15 0.000000 0.616686 0.572174
#
# Coordination Sequence:
#
# PCOD8328597 Si02
#       5
#    12  24  24  24  24
#     4  10  20  33  48  67  92 122 155 190 226 259
#     4   9  18  32  49  68  89 114 144 178 218 264
#     4  10  19  29  41  59  85 117 152 187 220 254
#     4   9  18  32  49  69  92 117 145 178 218 263
#     4   8  14  25  40  56  74 100 138 183 226 263
#
# _framework density 16.356157
#
# number of rings (size 3 to 8) (size 9 to 14) (size 15 to 20)
#    0.000    2.889    0.000    2.000    0.000    3.556 
#    0.000    2.222    0.000    4.444    0.000    3.111 
#    0.000    2.667    0.000    0.222    0.000    0.000 
#
# Total GULP energy -1338429.461128 kJ/mol
# GULP energy per Si atom -12392.865381 kJ/mol
# Density = 1.631893 g / cm^3
# Si number density = 16.356157 Si / 1000 Ang^3
#
#
#
# Elastic Constant Matrix: (Units=GPa)
#
#
# Indices 1 2 3 4 5 6 
#
# 1 89.8073 61.7907 46.2152 0.0000 0.0000 0.0000
# 2 61.7907 89.8073 46.2152 0.0000 0.0000 0.0000
# 3 46.2152 46.2152 92.4130 0.0000 0.0000 0.0000
# 4 0.0000 0.0000 0.0000 22.0406 0.0000 0.0000
# 5 0.0000 0.0000 0.0000 0.0000 22.0406 0.0000
# 6 0.0000 0.0000 0.0000 0.0000 0.0000 14.0083
#
#
#
# Elastic Compliance Matrix: (Units=1/GPa)
#
#
# Indices 1 2 3 4 5 6 
#
# 1 0.022592 -0.013102 -0.004746 0.000000 0.000000 0.000000
# 2 -0.013102 0.022592 -0.004746 0.000000 0.000000 0.000000
# 3 -0.004746 -0.004746 0.015568 0.000000 0.000000 0.000000
# 4 0.000000 0.000000 0.000000 0.045371 0.000000 0.000000
# 5 0.000000 0.000000 0.000000 0.000000 0.045371 0.000000
# 6 0.000000 0.000000 0.000000 0.000000 0.000000 0.071386
#
#
# Mechanical properties :
#
#
# Convention : Reuss Voigt Hill
#
# Bulk Modulus (GPa) = 64.25002 64.49665 64.37334
# Shear Modulus (GPa) = 18.29803 19.47166 18.88485
#
# Velocity S-wave (km/s) = 3.34836 3.45408 3.40163
# Velocity P-wave (km/s) = 7.36993 7.44485 7.40748
#
# Compressibility (1/GPa) = 0.01556420
#
# Stress axis : x y z
#
# Youngs Moduli (GPa) = 44.26431 44.26431 64.23525
#
# Poissons Ratio (x) = 0.57993 0.30485
# Poissons Ratio (y) = 0.57993 0.30485
# Poissons Ratio (z) = 0.21007 0.21007
#
# Static dielectric constant tensor:
#      x y z
#    x 2.958940 0.000000 0.000000 
#    y 0.000000 2.958940 0.000000 
#    z 0.000000 0.000000 3.468250 
# 
# 
# High freq. dielectric constant tensor:
#      x y z
#    x 1.607000 0.000000 0.000000 
#    y 0.000000 1.607000 0.000000 
#    z 0.000000 0.000000 1.648320 
# 
# From -- ./inp_files/7310.got.cif
#   From: 2010.03.12/outbox.cif.g09.slc.cpg/sg191_4_cif.got.tgz:7310.got - 2010.04.01 12:09:02.
