data_PCOD8328102
_publ_section_title
;
Structure prediction by ZEFSAII (Michael W. Deem and Ramdas Pophale) SiO2 
 PCOD8328102
Probable space group: P -6 2 C
;
_chemical_formula_sum "Si O2"
_cell_formula_units_Z 40
_cell_length_a 11.468241
_cell_length_b 11.468241
_cell_length_c 16.209098
_cell_angle_alpha 90.000000
_cell_angle_beta 90.000000
_cell_angle_gamma 120.000000
_cell_volume 1846.218513
_symmetry_space_group_name_H-M "P -6 2 C"
_symmetry_group_IT_number 190
_symmetry_cell_setting 'hexagonal'
loop_
_space_group_symop_operation_xyz
x,y,z
-x+y,-x,1/2-z
-y,x-y,z
x,y,1/2-z
-x+y,-x,z
-y,x-y,1/2-z
x-y,-y,-z
-x,-x+y,-z
y,x,-z
y,x,1/2+z
x-y,-y,1/2+z
-x,-x+y,1/2+z
loop_
_atom_site_type_symbol
_atom_site_label
_atom_site_fract_x
_atom_site_fract_y
_atom_site_fract_z
Si Si1 0.000000 0.000000 0.848749
Si Si2 0.947127 0.367447 0.908960
Si Si3 0.895041 0.591853 0.652562
Si Si4 0.851157 0.705939 0.154078
O O1 0.043585 0.147246 0.883630
O O2 0.000000 0.000000 0.750000
O O3 0.824570 0.213722 0.900892
O O4 0.887228 0.451186 0.865146
O O5 0.084875 0.390375 0.866220
O O6 0.000000 0.420099 0.000000
O O7 0.868860 0.602997 0.750000
O O8 0.044945 0.704406 0.621946
O O9 0.871008 0.717792 0.250000
#
# Coordination Sequence:
#
# PCOD8328102 Si02
#       4
#     4  12  12  12
#     4   9  15  33  67  98 121 150 211 281 331 387
#     4  12  27  42  69 100 142 178 230 296 354 417
#     4  11  24  46  73  96 134 188 237 277 347 442
#     4  10  20  40  69  98 126 167 225 282 338 415
#
# _framework density 21.665908000000002
#
# number of rings (size 3 to 8) (size 9 to 14) (size 15 to 20)
#    0.000    1.200    3.000    3.300    4.200    0.000 
#    1.800    0.000    0.000    0.000    0.000    0.000 
#    0.000    0.000    0.000    0.000    0.000    0.000 
#
# Total GULP energy -495635.811046 kJ/mol
# GULP energy per Si atom -12390.895276 kJ/mol
# Density = 2.161660 g / cm^3
# Si number density = 21.665908 Si / 1000 Ang^3
#
#
#
# Elastic Constant Matrix: (Units=GPa)
#
#
# Indices 1 2 3 4 5 6 
#
# 1 106.1512 31.2769 20.9918 0.0000 0.0000 0.0000
# 2 31.2769 106.1512 20.9918 0.0000 0.0000 0.0000
# 3 20.9918 20.9918 47.6893 0.0000 0.0000 0.0000
# 4 0.0000 0.0000 0.0000 22.1484 0.0000 0.0000
# 5 0.0000 0.0000 0.0000 0.0000 22.1484 0.0000
# 6 0.0000 0.0000 0.0000 0.0000 0.0000 37.4372
#
#
#
# Elastic Compliance Matrix: (Units=1/GPa)
#
#
# Indices 1 2 3 4 5 6 
#
# 1 0.010881 -0.002474 -0.003701 0.000000 0.000000 0.000000
# 2 -0.002474 0.010881 -0.003701 0.000000 0.000000 0.000000
# 3 -0.003701 -0.003701 0.024227 0.000000 0.000000 0.000000
# 4 0.000000 0.000000 0.000000 0.045150 0.000000 0.000000
# 5 0.000000 0.000000 0.000000 0.000000 0.045150 0.000000
# 6 0.000000 0.000000 0.000000 0.000000 0.000000 0.026711
#
#
# Mechanical properties :
#
#
# Convention : Reuss Voigt Hill
#
# Bulk Modulus (GPa) = 38.11178 45.16807 41.63993
# Shear Modulus (GPa) = 26.10990 28.79556 27.45273
#
# Velocity S-wave (km/s) = 3.47524 3.64960 3.56349
# Velocity P-wave (km/s) = 5.80792 6.21709 6.01599
#
# Compressibility (1/GPa) = 0.02623861
#
# Stress axis : x y z
#
# Youngs Moduli (GPa) = 91.90012 91.90012 41.27639
#
# Poissons Ratio (x) = 0.22739 0.15275
# Poissons Ratio (y) = 0.22739 0.15275
# Poissons Ratio (z) = 0.34009 0.34009
#
# Static dielectric constant tensor:
#      x y z
#    x 4.113370 0.000000 0.000000 
#    y 0.000000 4.113370 0.000000 
#    z 0.000000 0.000000 3.555450 
# 
# 
# High freq. dielectric constant tensor:
#      x y z
#    x 1.855870 0.000000 0.000000 
#    y 0.000000 1.855870 0.000000 
#    z 0.000000 0.000000 1.826250 
# 
# From -- ./inp_files/3402.got.cif
#   From: 2010.06.25/outbox.cif.g09.slc.cpg/sg190_2_cif.got.tgz:3402.got - 2010.06.28 13:08:06.
