data_PCOD8328304
_publ_section_title
;
Structure prediction by ZEFSAII (Michael W. Deem and Ramdas Pophale) SiO2 
 PCOD8328304
Probable space group: P 6/M M M
;
_chemical_formula_sum "Si O2"
_cell_formula_units_Z 120
_cell_length_a 18.304837
_cell_length_b 18.304837
_cell_length_c 26.254509
_cell_angle_alpha 90.000000
_cell_angle_beta 90.000000
_cell_angle_gamma 120.000000
_cell_volume 7618.443732
_symmetry_space_group_name_H-M "P 6/M M M"
_symmetry_group_IT_number 191
_symmetry_cell_setting 'hexagonal'
loop_
_space_group_symop_operation_xyz
x,y,z
x-y,x,z
-y,x-y,z
-x,-y,z
-x+y,-x,z
y,-x+y,z
x-y,-y,-z
-x,-x+y,-z
y,x,-z
-y,-x,-z
-x+y,y,-z
x,x-y,-z
-x,-y,-z
-x+y,-x,-z
y,-x+y,-z
x,y,-z
x-y,x,-z
-y,x-y,-z
-x+y,y,z
x,x-y,z
-y,-x,z
y,x,z
x-y,-y,z
-x,-x+y,z
loop_
_atom_site_type_symbol
_atom_site_label
_atom_site_fract_x
_atom_site_fract_y
_atom_site_fract_z
Si Si1 0.669274 0.171342 0.500000
Si Si2 0.100404 0.367432 0.094803
Si Si3 0.668957 0.498795 0.293956
Si Si4 0.365772 0.463055 0.602883
Si Si5 0.098622 0.467343 0.000000
Si Si6 0.901277 0.368650 0.810564
O O1 0.727815 0.272185 0.500000
O O2 0.571683 0.143366 0.500000
O O3 0.689062 0.135547 0.448570
O O4 0.164402 0.328804 0.092247
O O5 0.123605 0.423933 0.145273
O O6 0.000000 0.293546 0.092854
O O7 0.124787 0.434090 0.049241
O O8 0.729476 0.458952 0.293003
O O9 0.572306 0.427695 0.294686
O O10 0.688752 0.554464 0.345425
O O11 0.682869 0.552066 0.242490
O O12 0.440243 0.559758 0.603095
O O13 0.397797 0.397797 0.602132
O O14 0.140323 0.570162 0.000000
O O15 0.000000 0.430111 0.000000
O O16 0.862744 0.431372 0.820027
O O17 0.000000 0.426211 0.807533
#
# Coordination Sequence:
#
# PCOD8328304 Si02
#       6
#    12  24  24  24  12  24
#     4  10  18  27  39  55  74  93 116 150 195 240
#     4  10  19  31  48  69  92 119 153 190 226 265
#     4  10  18  27  39  56  79 104 131 164 204 246
#     4   9  17  28  40  52  68  94 127 159 189 226
#     4   9  17  30  49  70  90 114 144 177 213 256
#     4   9  17  29  45  63  83 110 143 177 214 259
#
# _framework density 15.751249
#
# number of rings (size 3 to 8) (size 9 to 14) (size 15 to 20)
#    0.000    2.500    0.000    3.300    0.000    6.000 
#    0.000    2.000    0.000    7.000    0.000    0.000 
#    0.000    2.400    0.000    0.000    0.000    0.000 
#
# Total GULP energy -1486624.392158 kJ/mol
# GULP energy per Si atom -12388.536601 kJ/mol
# Density = 1.571540 g / cm^3
# Si number density = 15.751249 Si / 1000 Ang^3
#
#
#
# Elastic Constant Matrix: (Units=GPa)
#
#
# Indices 1 2 3 4 5 6 
#
# 1 32.9908 35.9828 37.3232 0.0000 0.0000 0.0000
# 2 35.9828 32.9908 37.3232 0.0000 0.0000 0.0000
# 3 37.3232 37.3232 154.6847 0.0000 0.0000 0.0000
# 4 0.0000 0.0000 0.0000 14.4939 0.0000 0.0000
# 5 0.0000 0.0000 0.0000 0.0000 14.4939 0.0000
# 6 0.0000 0.0000 0.0000 0.0000 0.0000 -1.4960
#
#
#
# Elastic Compliance Matrix: (Units=1/GPa)
#
#
# Indices 1 2 3 4 5 6 
#
# 1 -0.157297 0.176919 -0.004735 0.000000 0.000000 0.000000
# 2 0.176919 -0.157297 -0.004735 0.000000 0.000000 0.000000
# 3 -0.004735 -0.004735 0.008750 0.000000 0.000000 0.000000
# 4 0.000000 0.000000 0.000000 0.068995 0.000000 0.000000
# 5 0.000000 0.000000 0.000000 0.000000 0.068995 0.000000
# 6 0.000000 0.000000 0.000000 0.000000 0.000000 -0.668433
#
#
# Mechanical properties :
#
#
# Convention : Reuss Voigt Hill
#
# Bulk Modulus (GPa) = 34.41656 49.10276 41.75966
# Shear Modulus (GPa) = -4.30477 12.83413 4.26468
#
# Velocity S-wave (km/s) = -1.65496 2.85757 1.64724
# Velocity P-wave (km/s) = 4.27149 6.49070 5.49430
#
# Compressibility (1/GPa) = 0.02905578
#
# Stress axis : x y z
#
# Youngs Moduli (GPa) = -6.35740 -6.35740 114.29174
#
# Poissons Ratio (x) = 1.12475 0.54112
# Poissons Ratio (y) = 1.12475 0.54112
# Poissons Ratio (z) = -0.03010 -0.03010
#
# Static dielectric constant tensor:
#      x y z
#    x 2.753610 0.000000 0.000000 
#    y 0.000000 2.753610 0.000000 
#    z 0.000000 0.000000 3.569870 
# 
# 
# High freq. dielectric constant tensor:
#      x y z
#    x 1.565740 0.000000 0.000000 
#    y 0.000000 1.565740 0.000000 
#    z 0.000000 0.000000 1.638380 
# 
# From -- ./inp_files/9581.got.cif
#   From: 2010.03.12/outbox.cif.g09.slc.cpg/sg191_5_cif.got.tgz:9581.got - 2010.04.01 12:09:02.
