data_PCOD8328508
_publ_section_title
;
Structure prediction by ZEFSAII (Michael W. Deem and Ramdas Pophale) SiO2 
 PCOD8328508
Probable space group: P 6/M M M
;
_chemical_formula_sum "Si O2"
_cell_formula_units_Z 168
_cell_length_a 23.076131
_cell_length_b 23.076131
_cell_length_c 20.246520
_cell_angle_alpha 90.000000
_cell_angle_beta 90.000000
_cell_angle_gamma 120.000000
_cell_volume 9336.992500
_symmetry_space_group_name_H-M "P 6/M M M"
_symmetry_group_IT_number 191
_symmetry_cell_setting 'hexagonal'
loop_
_space_group_symop_operation_xyz
x,y,z
x-y,x,z
-y,x-y,z
-x,-y,z
-x+y,-x,z
y,-x+y,z
x-y,-y,-z
-x,-x+y,-z
y,x,-z
-y,-x,-z
-x+y,y,-z
x,x-y,-z
-x,-y,-z
-x+y,-x,-z
y,-x+y,-z
x,y,-z
x-y,x,-z
-y,x-y,-z
-x+y,y,z
x,x-y,z
-y,-x,z
y,x,z
x-y,-y,z
-x,-x+y,z
loop_
_atom_site_type_symbol
_atom_site_label
_atom_site_fract_x
_atom_site_fract_y
_atom_site_fract_z
Si Si1 0.206954 0.283729 0.668614
Si Si2 0.815315 0.313064 0.757127
Si Si3 0.335156 0.801237 0.612020
Si Si4 0.923872 0.607890 0.424710
Si Si5 0.641794 0.925741 0.788796
Si Si6 0.664879 0.203378 0.899017
Si Si7 0.608839 0.872766 0.071961
O O1 0.128748 0.257496 0.652579
O O2 0.223758 0.223758 0.658259
O O3 0.253083 0.346269 0.621549
O O4 0.219749 0.309871 0.744296
O O5 0.766920 0.233081 0.756381
O O6 0.806792 0.345396 0.690858
O O7 0.887986 0.322051 0.764441
O O8 0.797712 0.343782 0.819736
O O9 0.397869 0.795738 0.582796
O O10 0.264902 0.735099 0.591756
O O11 0.338816 0.868913 0.585956
O O12 0.918948 0.626901 0.500000
O O13 0.000000 0.623290 0.410019
O O14 0.652444 0.917157 0.866653
O O15 0.659113 0.000000 0.775164
O O16 0.597059 0.194117 0.931268
O O17 0.726291 0.273710 0.923181
O O18 0.675147 0.142466 0.922476
O O19 0.607012 0.803506 0.078100
O O20 0.638049 0.906804 0.000000
#
# Coordination Sequence:
#
# PCOD8328508 Si02
#       7
#    24  24  24  24  24  24  24
#     4  10  19  33  56  84 111 138 172 213 254 298
#     4   9  17  30  47  67  93 124 158 198 247 302
#     4  11  22  35  53  76 105 139 175 216 264 321
#     4  10  22  39  58  80 105 137 177 220 267 311
#     4  10  18  29  50  75  97 122 160 208 254 298
#     4   9  16  26  42  63  86 112 147 194 246 299
#     4   9  18  31  45  62  89 125 159 192 240 302
#
# _framework density 17.992944999999999
#
# number of rings (size 3 to 8) (size 9 to 14) (size 15 to 20)
#    0.000    2.286    1.429    3.286    0.000    2.286 
#    0.000    2.143    0.000   12.143    0.000    4.000 
#    0.000    0.000    0.000    3.571    0.000    0.000 
#
# Total GULP energy -2081756.210003 kJ/mol
# GULP energy per Si atom -12391.406012 kJ/mol
# Density = 1.795199 g / cm^3
# Si number density = 17.992945 Si / 1000 Ang^3
#
#
#
# Elastic Constant Matrix: (Units=GPa)
#
#
# Indices 1 2 3 4 5 6 
#
# 1 93.5298 53.3695 21.5520 0.0000 0.0000 0.0000
# 2 53.3695 93.5298 21.5520 0.0000 0.0000 0.0000
# 3 21.5520 21.5520 90.8418 0.0000 0.0000 0.0000
# 4 0.0000 0.0000 0.0000 10.8926 0.0000 0.0000
# 5 0.0000 0.0000 0.0000 0.0000 10.8926 0.0000
# 6 0.0000 0.0000 0.0000 0.0000 0.0000 20.0801
#
#
#
# Elastic Compliance Matrix: (Units=1/GPa)
#
#
# Indices 1 2 3 4 5 6 
#
# 1 0.016108 -0.008792 -0.001736 0.000000 0.000000 0.000000
# 2 -0.008792 0.016108 -0.001736 0.000000 0.000000 0.000000
# 3 -0.001736 -0.001736 0.011832 0.000000 0.000000 0.000000
# 4 0.000000 0.000000 0.000000 0.091805 0.000000 0.000000
# 5 0.000000 0.000000 0.000000 0.000000 0.091805 0.000000
# 6 0.000000 0.000000 0.000000 0.000000 0.000000 0.049800
#
#
# Mechanical properties :
#
#
# Convention : Reuss Voigt Hill
#
# Bulk Modulus (GPa) = 51.22487 52.31649 51.77068
# Shear Modulus (GPa) = 16.20776 20.46826 18.33801
#
# Velocity S-wave (km/s) = 3.00456 3.37645 3.19592
# Velocity P-wave (km/s) = 6.36928 6.65881 6.51566
#
# Compressibility (1/GPa) = 0.01952177
#
# Stress axis : x y z
#
# Youngs Moduli (GPa) = 62.07906 62.07906 84.51791
#
# Poissons Ratio (x) = 0.54578 0.14671
# Poissons Ratio (y) = 0.54578 0.14671
# Poissons Ratio (z) = 0.10776 0.10776
#
# Static dielectric constant tensor:
#      x y z
#    x 3.124730 0.000000 0.000000 
#    y 0.000000 3.124730 0.000000 
#    z 0.000000 0.000000 3.660800 
# 
# 
# High freq. dielectric constant tensor:
#      x y z
#    x 1.670180 0.000000 0.000000 
#    y 0.000000 1.670180 0.000000 
#    z 0.000000 0.000000 1.713320 
# 
# From -- ./inp_files/7975.got.cif
#   From: 2010.03.12/outbox.cif.g09.slc.cpg/sg191_4_cif.got.tgz:7975.got - 2010.04.01 12:09:02.
