data_PCOD8328961
_publ_section_title
;
Structure prediction by ZEFSAII (Michael W. Deem and Ramdas Pophale) SiO2 
 PCOD8328961
Probable space group: P 6/M M M
;
_chemical_formula_sum "Si O2"
_cell_formula_units_Z 108
_cell_length_a 17.515513
_cell_length_b 17.515513
_cell_length_c 23.164738
_cell_angle_alpha 90.000000
_cell_angle_beta 90.000000
_cell_angle_gamma 120.000000
_cell_volume 6154.655481
_symmetry_space_group_name_H-M "P 6/M M M"
_symmetry_group_IT_number 191
_symmetry_cell_setting 'hexagonal'
loop_
_space_group_symop_operation_xyz
x,y,z
x-y,x,z
-y,x-y,z
-x,-y,z
-x+y,-x,z
y,-x+y,z
x-y,-y,-z
-x,-x+y,-z
y,x,-z
-y,-x,-z
-x+y,y,-z
x,x-y,-z
-x,-y,-z
-x+y,-x,-z
y,-x+y,-z
x,y,-z
x-y,x,-z
-y,x-y,-z
-x+y,y,z
x,x-y,z
-y,-x,z
y,x,z
x-y,-y,z
-x,-x+y,z
loop_
_atom_site_type_symbol
_atom_site_label
_atom_site_fract_x
_atom_site_fract_y
_atom_site_fract_z
Si Si1 0.636625 0.103917 0.500000
Si Si2 0.371144 0.270848 0.610863
Si Si3 0.667781 0.512430 0.279167
Si Si4 0.895686 0.532478 0.936296
Si Si5 0.100325 0.369055 0.828652
O O1 0.573641 0.147281 0.500000
O O2 0.697026 0.134268 0.556667
O O3 0.575967 0.000000 0.500000
O O4 0.330650 0.165325 0.617493
O O5 0.291251 0.291251 0.602581
O O6 0.426460 0.321883 0.666756
O O7 0.742294 0.484589 0.279174
O O8 0.573380 0.426621 0.282491
O O9 0.672266 0.565540 0.221770
O O10 0.856071 0.428036 0.924766
O O11 0.863777 0.574743 0.887488
O O12 0.000000 0.579009 0.933513
O O13 0.865541 0.546076 0.000000
O O14 0.164558 0.329116 0.815588
O O15 0.000000 0.288958 0.833860
#
# Coordination Sequence:
#
# PCOD8328961 Si02
#       5
#    12  24  24  24  24
#     4   9  17  30  49  72  96 122 154 191 231 280
#     4  10  20  33  50  72  97 127 163 202 241 279
#     4  10  20  33  50  73 100 127 153 184 226 277
#     4   8  14  26  45  68  92 117 146 181 222 271
#     4  10  20  32  47  68  93 122 157 197 238 278
#
# _framework density 17.547691
#
# number of rings (size 3 to 8) (size 9 to 14) (size 15 to 20)
#    0.000    2.556    0.000    3.222    0.000    4.000 
#    0.000    0.000    0.000    4.000    0.000    0.000 
#    0.000    8.000    0.000    5.556    0.000    0.889 
#
# Total GULP energy -1338801.994781 kJ/mol
# GULP energy per Si atom -12396.314766 kJ/mol
# Density = 1.750775 g / cm^3
# Si number density = 17.547691 Si / 1000 Ang^3
#
#
#
# Elastic Constant Matrix: (Units=GPa)
#
#
# Indices 1 2 3 4 5 6 
#
# 1 84.1989 53.3440 29.7042 0.0000 0.0000 0.0000
# 2 53.3440 84.1989 29.7042 0.0000 0.0000 0.0000
# 3 29.7042 29.7042 124.7751 0.0000 0.0000 0.0000
# 4 0.0000 0.0000 0.0000 -24.3928 0.0000 0.0000
# 5 0.0000 0.0000 0.0000 0.0000 -24.3928 0.0000
# 6 0.0000 0.0000 0.0000 0.0000 0.0000 15.4274
#
#
#
# Elastic Compliance Matrix: (Units=1/GPa)
#
#
# Indices 1 2 3 4 5 6 
#
# 1 0.020257 -0.012153 -0.001929 0.000000 0.000000 0.000000
# 2 -0.012153 0.020257 -0.001929 0.000000 0.000000 0.000000
# 3 -0.001929 -0.001929 0.008933 0.000000 0.000000 0.000000
# 4 0.000000 0.000000 0.000000 -0.040996 0.000000 0.000000
# 5 0.000000 0.000000 0.000000 0.000000 -0.040996 0.000000
# 6 0.000000 0.000000 0.000000 0.000000 0.000000 0.064820
#
#
# Mechanical properties :
#
#
# Convention : Reuss Voigt Hill
#
# Bulk Modulus (GPa) = 57.39327 57.63087 57.51207
# Shear Modulus (GPa) = 71.32123 5.35640 38.33882
#
# Velocity S-wave (km/s) = 6.38220 1.74903 4.67929
# Velocity P-wave (km/s) = 9.33209 6.08215 7.87656
#
# Compressibility (1/GPa) = 0.01742365
#
# Stress axis : x y z
#
# Youngs Moduli (GPa) = 49.36621 49.36621 111.94506
#
# Poissons Ratio (x) = 0.59995 0.21596
# Poissons Ratio (y) = 0.59995 0.21596
# Poissons Ratio (z) = 0.09524 0.09524
#
# Static dielectric constant tensor:
#      x y z
#    x 3.044540 0.000000 0.000000 
#    y 0.000000 3.044540 0.000000 
#    z 0.000000 0.000000 3.607160 
# 
# 
# High freq. dielectric constant tensor:
#      x y z
#    x 1.654630 0.000000 0.000000 
#    y 0.000000 1.654630 0.000000 
#    z 0.000000 0.000000 1.702210 
# 
# From -- ./inp_files/7300.got.cif
#   From: 2010.03.12/outbox.cif.g09.slc.cpg/sg191_4_cif.got.tgz:7300.got - 2010.04.01 12:09:02.
