data_PCOD8328813
_publ_section_title
;
Structure prediction by ZEFSAII (Michael W. Deem and Ramdas Pophale) SiO2 
 PCOD8328813
Probable space group: P 6/M M M
;
_chemical_formula_sum "Si O2"
_cell_formula_units_Z 132
_cell_length_a 17.461603
_cell_length_b 17.461603
_cell_length_c 30.144781
_cell_angle_alpha 90.000000
_cell_angle_beta 90.000000
_cell_angle_gamma 120.000000
_cell_volume 7959.961824
_symmetry_space_group_name_H-M "P 6/M M M"
_symmetry_group_IT_number 191
_symmetry_cell_setting 'hexagonal'
loop_
_space_group_symop_operation_xyz
x,y,z
x-y,x,z
-y,x-y,z
-x,-y,z
-x+y,-x,z
y,-x+y,z
x-y,-y,-z
-x,-x+y,-z
y,x,-z
-y,-x,-z
-x+y,y,-z
x,x-y,-z
-x,-y,-z
-x+y,-x,-z
y,-x+y,-z
x,y,-z
x-y,x,-z
-y,x-y,-z
-x+y,y,z
x,x-y,z
-y,-x,z
y,x,z
x-y,-y,z
-x,-x+y,z
loop_
_atom_site_type_symbol
_atom_site_label
_atom_site_fract_x
_atom_site_fract_y
_atom_site_fract_z
Si Si1 0.331595 0.486977 0.387317
Si Si2 0.372395 0.272745 0.300989
Si Si3 0.899251 0.629569 0.867717
Si Si4 0.104601 0.467435 0.951088
Si Si5 0.409108 0.409108 0.549569
Si Si6 0.332082 0.488076 0.215213
O O1 0.249742 0.499484 0.399926
O O2 0.418163 0.581838 0.385851
O O3 0.321052 0.443009 0.339668
O O4 0.337095 0.424131 0.424711
O O5 0.334107 0.167054 0.302369
O O6 0.290603 0.290603 0.306023
O O7 0.421606 0.314293 0.255279
O O8 0.834590 0.669180 0.857059
O O9 0.863770 0.575079 0.913467
O O10 0.891843 0.561908 0.829781
O O11 0.000000 0.709933 0.871059
O O12 0.144537 0.572269 0.942348
O O13 0.000000 0.421074 0.949027
O O14 0.134855 0.453533 0.000000
O O15 0.500000 0.500000 0.547656
O O16 0.374135 0.374135 0.500000
O O17 0.259666 0.519332 0.214392
O O18 0.427811 0.572190 0.220962
#
# Coordination Sequence:
#
# PCOD8328813 Si02
#       6
#    24  24  24  24  12  24
#     4  10  19  31  48  70  97 128 163 201 241 285
#     4  10  20  33  50  72  97 127 161 198 238 280
#     4  10  20  32  46  66  91 120 155 196 240 282
#     4   8  14  26  45  67  89 113 143 180 222 271
#     4   9  18  32  48  66  92 126 161 199 240 280
#     4  10  20  32  48  71 100 130 157 186 224 273
#
# _framework density 16.582995
#
# number of rings (size 3 to 8) (size 9 to 14) (size 15 to 20)
#    0.000    2.455    0.909    2.545    0.000    3.636 
#    0.000    1.818    0.000    1.818    0.000    0.000 
#    0.000    4.364    0.000    4.545    0.000    8.273 
#
# Total GULP energy -1636454.331054 kJ/mol
# GULP energy per Si atom -12397.381296 kJ/mol
# Density = 1.654525 g / cm^3
# Si number density = 16.582995 Si / 1000 Ang^3
#
#
#
# Elastic Constant Matrix: (Units=GPa)
#
#
# Indices 1 2 3 4 5 6 
#
# 1 90.7533 57.0881 33.4063 0.0000 0.0000 0.0000
# 2 57.0881 90.7533 33.4063 0.0000 0.0000 0.0000
# 3 33.4063 33.4063 110.7296 0.0000 0.0000 0.0000
# 4 0.0000 0.0000 0.0000 15.1831 0.0000 0.0000
# 5 0.0000 0.0000 0.0000 0.0000 15.1831 0.0000
# 6 0.0000 0.0000 0.0000 0.0000 0.0000 16.8326
#
#
#
# Elastic Compliance Matrix: (Units=1/GPa)
#
#
# Indices 1 2 3 4 5 6 
#
# 1 0.018768 -0.010936 -0.002363 0.000000 0.000000 0.000000
# 2 -0.010936 0.018768 -0.002363 0.000000 0.000000 0.000000
# 3 -0.002363 -0.002363 0.010457 0.000000 0.000000 0.000000
# 4 0.000000 0.000000 0.000000 0.065863 0.000000 0.000000
# 5 0.000000 0.000000 0.000000 0.000000 0.065863 0.000000
# 6 0.000000 0.000000 0.000000 0.000000 0.000000 0.059408
#
#
# Mechanical properties :
#
#
# Convention : Reuss Voigt Hill
#
# Bulk Modulus (GPa) = 59.99124 60.00419 59.99772
# Shear Modulus (GPa) = 18.11553 20.66214 19.38883
#
# Velocity S-wave (km/s) = 3.30876 3.53368 3.42307
# Velocity P-wave (km/s) = 7.13106 7.27406 7.20291
#
# Compressibility (1/GPa) = 0.01666910
#
# Stress axis : x y z
#
# Youngs Moduli (GPa) = 53.28211 53.28211 95.63261
#
# Poissons Ratio (x) = 0.58270 0.22596
# Poissons Ratio (y) = 0.58270 0.22596
# Poissons Ratio (z) = 0.12589 0.12589
#
# Static dielectric constant tensor:
#      x y z
#    x 2.997380 0.000000 0.000000 
#    y 0.000000 2.997380 0.000000 
#    z 0.000000 0.000000 3.419920 
# 
# 
# High freq. dielectric constant tensor:
#      x y z
#    x 1.618550 0.000000 0.000000 
#    y 0.000000 1.618550 0.000000 
#    z 0.000000 0.000000 1.655860 
# 
# From -- ./inp_files/9765.got.cif
#   From: 2010.03.12/outbox.cif.g09.slc.cpg/sg191_5_cif.got.tgz:9765.got - 2010.04.01 12:09:02.
