data_PCOD8328744
_publ_section_title
;
Structure prediction by ZEFSAII (Michael W. Deem and Ramdas Pophale) SiO2 
 PCOD8328744
Probable space group: P 6/M M M
;
_chemical_formula_sum "Si O2"
_cell_formula_units_Z 132
_cell_length_a 17.783277
_cell_length_b 17.783277
_cell_length_c 30.151281
_cell_angle_alpha 90.000000
_cell_angle_beta 90.000000
_cell_angle_gamma 120.000000
_cell_volume 8257.716836
_symmetry_space_group_name_H-M "P 6/M M M"
_symmetry_group_IT_number 191
_symmetry_cell_setting 'hexagonal'
loop_
_space_group_symop_operation_xyz
x,y,z
x-y,x,z
-y,x-y,z
-x,-y,z
-x+y,-x,z
y,-x+y,z
x-y,-y,-z
-x,-x+y,-z
y,x,-z
-y,-x,-z
-x+y,y,-z
x,x-y,-z
-x,-y,-z
-x+y,-x,-z
y,-x+y,-z
x,y,-z
x-y,x,-z
-y,x-y,-z
-x+y,y,z
x,x-y,z
-y,-x,z
y,x,z
x-y,-y,z
-x,-x+y,z
loop_
_atom_site_type_symbol
_atom_site_label
_atom_site_fract_x
_atom_site_fract_y
_atom_site_fract_z
Si Si1 0.897474 0.532272 0.777931
Si Si2 0.903276 0.259241 0.950534
Si Si3 0.410995 0.410995 0.549505
Si Si4 0.667699 0.511656 0.388267
Si Si5 0.102974 0.468484 0.875717
Si Si6 0.898784 0.630056 0.304686
O O1 0.857967 0.428984 0.768878
O O2 0.868337 0.546662 0.826863
O O3 0.867746 0.576917 0.741259
O O4 0.000000 0.576089 0.776081
O O5 0.844918 0.155083 0.949334
O O6 0.861945 0.296285 0.915299
O O7 0.000000 0.282933 0.937155
O O8 0.901245 0.294495 0.000000
O O9 0.500000 0.500000 0.547595
O O10 0.376365 0.376365 0.500000
O O11 0.428129 0.340600 0.574233
O O12 0.751277 0.502553 0.399337
O O13 0.583497 0.416504 0.386139
O O14 0.676570 0.559466 0.341955
O O15 0.141943 0.570972 0.882883
O O16 0.000000 0.420246 0.878802
O O17 0.835335 0.670669 0.312442
O O18 0.000000 0.706426 0.304391
#
# Coordination Sequence:
#
# PCOD8328744 Si02
#       6
#    24  24  12  24  24  24
#     4   8  14  25  42  63  87 113 139 169 210 261
#     4   9  17  28  42  60  82 109 143 184 227 268
#     4   9  18  32  48  66  92 126 159 191 228 270
#     4  10  19  31  48  70  96 125 158 195 234 276
#     4   8  14  25  41  62  85 107 134 170 212 260
#     4  10  19  30  46  68  93 122 155 192 232 275
#
# _framework density 15.985049
#
# number of rings (size 3 to 8) (size 9 to 14) (size 15 to 20)
#    0.000    3.000    0.909    1.818    0.000    2.182 
#    0.000    1.818    0.000    2.182    0.000    1.273 
#    0.000    0.000    0.000    9.091    0.000   13.000 
#
# Total GULP energy -1635406.349821 kJ/mol
# GULP energy per Si atom -12389.442044 kJ/mol
# Density = 1.594867 g / cm^3
# Si number density = 15.985049 Si / 1000 Ang^3
#
#
#
# Elastic Constant Matrix: (Units=GPa)
#
#
# Indices 1 2 3 4 5 6 
#
# 1 76.7577 42.4670 44.6006 0.0000 0.0000 0.0000
# 2 42.4670 76.7577 44.6006 0.0000 0.0000 0.0000
# 3 44.6006 44.6006 120.0341 0.0000 0.0000 0.0000
# 4 0.0000 0.0000 0.0000 14.1862 0.0000 0.0000
# 5 0.0000 0.0000 0.0000 0.0000 14.1862 0.0000
# 6 0.0000 0.0000 0.0000 0.0000 0.0000 17.1454
#
#
#
# Elastic Compliance Matrix: (Units=1/GPa)
#
#
# Indices 1 2 3 4 5 6 
#
# 1 0.020390 -0.008773 -0.004316 0.000000 0.000000 0.000000
# 2 -0.008773 0.020390 -0.004316 0.000000 0.000000 0.000000
# 3 -0.004316 -0.004316 0.011539 0.000000 0.000000 0.000000
# 4 0.000000 0.000000 0.000000 0.070491 0.000000 0.000000
# 5 0.000000 0.000000 0.000000 0.000000 0.070491 0.000000
# 6 0.000000 0.000000 0.000000 0.000000 0.000000 0.058325
#
#
# Mechanical properties :
#
#
# Convention : Reuss Voigt Hill
#
# Bulk Modulus (GPa) = 57.12075 59.65399 58.38737
# Shear Modulus (GPa) = 17.10738 18.56232 17.83485
#
# Velocity S-wave (km/s) = 3.27496 3.41138 3.34386
# Velocity P-wave (km/s) = 7.07898 7.27436 7.17733
#
# Compressibility (1/GPa) = 0.01750677
#
# Stress axis : x y z
#
# Youngs Moduli (GPa) = 49.04432 49.04432 86.66492
#
# Poissons Ratio (x) = 0.43025 0.37409
# Poissons Ratio (y) = 0.43025 0.37409
# Poissons Ratio (z) = 0.21170 0.21170
#
# Static dielectric constant tensor:
#      x y z
#    x 2.876540 0.000000 0.000000 
#    y 0.000000 2.876540 0.000000 
#    z 0.000000 0.000000 3.408300 
# 
# 
# High freq. dielectric constant tensor:
#      x y z
#    x 1.588110 0.000000 0.000000 
#    y 0.000000 1.588110 0.000000 
#    z 0.000000 0.000000 1.629440 
# 
# From -- ./inp_files/10389.got.cif
#   From: 2010.03.12/outbox.cif.g09.slc.cpg/sg191_6_cif.got.tgz:10389.got - 2010.04.01 12:09:02.
