data_PCOD8328049
_publ_section_title
;
Structure prediction by ZEFSAII (Michael W. Deem and Ramdas Pophale) SiO2 
 PCOD8328049
Probable space group: P -6 2 C
;
_chemical_formula_sum "Si O2"
_cell_formula_units_Z 72
_cell_length_a 23.590038
_cell_length_b 23.590038
_cell_length_c 8.770344
_cell_angle_alpha 90.000000
_cell_angle_beta 90.000000
_cell_angle_gamma 120.000000
_cell_volume 4226.730334
_symmetry_space_group_name_H-M "P -6 2 C"
_symmetry_group_IT_number 190
_symmetry_cell_setting 'hexagonal'
loop_
_space_group_symop_operation_xyz
x,y,z
-x+y,-x,1/2-z
-y,x-y,z
x,y,1/2-z
-x+y,-x,z
-y,x-y,1/2-z
x-y,-y,-z
-x,-x+y,-z
y,x,-z
y,x,1/2+z
x-y,-y,1/2+z
-x,-x+y,1/2+z
loop_
_atom_site_type_symbol
_atom_site_label
_atom_site_fract_x
_atom_site_fract_y
_atom_site_fract_z
Si Si1 0.591830 0.731876 0.924876
Si Si2 0.136224 0.733640 0.928552
Si Si3 0.401675 0.932193 0.072344
Si Si4 0.069210 0.598634 0.069532
Si Si5 0.737194 0.930299 0.431286
Si Si6 0.741382 0.811621 0.569657
O O1 0.579579 0.710488 0.750000
O O2 0.574231 0.788137 0.959551
O O3 0.666946 0.757363 0.970034
O O4 0.543271 0.669160 0.023796
O O5 0.119874 0.728797 0.750000
O O6 0.124952 0.665430 0.994872
O O7 0.089100 0.753826 0.014350
O O8 0.403739 0.942407 0.250000
O O9 0.456746 0.914519 0.021534
O O10 0.414787 0.000000 0.000000
O O11 0.067668 0.606147 0.250000
O O12 0.000000 0.582893 0.000000
O O13 0.739824 0.932556 0.250000
O O14 0.758536 0.879740 0.492642
O O15 0.788674 0.000000 0.500000
O O16 0.751271 0.822044 0.750000
O O17 0.789777 0.789777 0.500000
#
# Coordination Sequence:
#
# PCOD8328049 Si02
#       6
#    12  12  12  12  12  12
#     4   9  19  33  50  72  99 128 161 199 241 287
#     4  10  20  34  51  73  99 129 163 202 245 293
#     4  10  20  32  49  72  99 129 162 198 240 287
#     4  10  20  33  49  72  99 129 162 199 242 290
#     4  11  21  34  52  74 101 133 165 203 246 291
#     4  10  20  34  51  75 103 132 166 203 244 292
#
# _framework density 17.034444000000001
#
# number of rings (size 3 to 8) (size 9 to 14) (size 15 to 20)
#    0.000    2.000    0.000    5.500    0.000    7.333 
#    0.000    0.000    0.000    1.000    0.000    2.333 
#    0.000    0.000    0.000    0.000    0.000    0.000 
#
# Total GULP energy -893061.731024 kJ/mol
# GULP energy per Si atom -12403.635153 kJ/mol
# Density = 1.699567 g / cm^3
# Si number density = 17.034444 Si / 1000 Ang^3
#
#
#
# Elastic Constant Matrix: (Units=GPa)
#
#
# Indices 1 2 3 4 5 6 
#
# 1 109.5831 62.9783 51.5157 0.0000 0.0000 0.0000
# 2 62.9783 109.5831 51.5157 0.0000 0.0000 0.0000
# 3 51.5157 51.5157 102.9177 0.0000 0.0000 0.0000
# 4 0.0000 0.0000 0.0000 32.1264 0.0000 0.0000
# 5 0.0000 0.0000 0.0000 0.0000 32.1264 0.0000
# 6 0.0000 0.0000 0.0000 0.0000 0.0000 23.3024
#
#
#
# Elastic Compliance Matrix: (Units=1/GPa)
#
#
# Indices 1 2 3 4 5 6 
#
# 1 0.014861 -0.006596 -0.004137 0.000000 0.000000 0.000000
# 2 -0.006596 0.014861 -0.004137 0.000000 0.000000 0.000000
# 3 -0.004137 -0.004137 0.013858 0.000000 0.000000 0.000000
# 4 0.000000 0.000000 0.000000 0.031127 0.000000 0.000000
# 5 0.000000 0.000000 0.000000 0.000000 0.031127 0.000000
# 6 0.000000 0.000000 0.000000 0.000000 0.000000 0.042914
#
#
# Mechanical properties :
#
#
# Convention : Reuss Voigt Hill
#
# Bulk Modulus (GPa) = 72.25441 72.67816 72.46628
# Shear Modulus (GPa) = 27.30710 27.91598 27.61154
#
# Velocity S-wave (km/s) = 4.00816 4.05260 4.03044
# Velocity P-wave (km/s) = 7.99557 8.04090 8.01827
#
# Compressibility (1/GPa) = 0.01383999
#
# Stress axis : x y z
#
# Youngs Moduli (GPa) = 67.28963 67.28963 72.15916
#
# Poissons Ratio (x) = 0.44384 0.29854
# Poissons Ratio (y) = 0.44384 0.29854
# Poissons Ratio (z) = 0.27839 0.27839
#
# Static dielectric constant tensor:
#      x y z
#    x 3.192730 0.000000 0.000000 
#    y 0.000000 3.192730 0.000000 
#    z 0.000000 0.000000 3.268790 
# 
# 
# High freq. dielectric constant tensor:
#      x y z
#    x 1.647460 0.000000 0.000000 
#    y 0.000000 1.647460 0.000000 
#    z 0.000000 0.000000 1.674750 
# 
# From -- ./inp_files/1217.got.cif
#   From: 2010.06.25/outbox.cif.g09.slc.cpg/sg190_1_cif.got.tgz:1217.got - 2010.06.28 13:08:06.
