data_PCOD8328652
_publ_section_title
;
Structure prediction by ZEFSAII (Michael W. Deem and Ramdas Pophale) SiO2 
 PCOD8328652
Probable space group: P 6/M M M
;
_chemical_formula_sum "Si O2"
_cell_formula_units_Z 132
_cell_length_a 18.581160
_cell_length_b 18.581160
_cell_length_c 27.912578
_cell_angle_alpha 90.000000
_cell_angle_beta 90.000000
_cell_angle_gamma 120.000000
_cell_volume 8345.958625
_symmetry_space_group_name_H-M "P 6/M M M"
_symmetry_group_IT_number 191
_symmetry_cell_setting 'hexagonal'
loop_
_space_group_symop_operation_xyz
x,y,z
x-y,x,z
-y,x-y,z
-x,-y,z
-x+y,-x,z
y,-x+y,z
x-y,-y,-z
-x,-x+y,-z
y,x,-z
-y,-x,-z
-x+y,y,-z
x,x-y,-z
-x,-y,-z
-x+y,-x,-z
y,-x+y,-z
x,y,-z
x-y,x,-z
-y,x-y,-z
-x+y,y,z
x,x-y,z
-y,-x,z
y,x,z
x-y,-y,z
-x,-x+y,z
loop_
_atom_site_type_symbol
_atom_site_label
_atom_site_fract_x
_atom_site_fract_y
_atom_site_fract_z
Si Si1 0.093011 0.348745 0.812655
Si Si2 0.499069 0.668644 0.254070
Si Si3 0.539482 0.908310 0.352178
Si Si4 0.905174 0.256809 0.923072
Si Si5 0.628819 0.097293 0.000000
Si Si6 0.499749 0.331200 0.448063
O O1 0.159560 0.319119 0.800161
O O2 0.109735 0.428033 0.781602
O O3 0.100786 0.376554 0.867711
O O4 0.000000 0.273071 0.801817
O O5 0.468963 0.734482 0.243298
O O6 0.423820 0.576181 0.245840
O O7 0.533052 0.683738 0.308506
O O8 0.453970 0.907940 0.356948
O O9 0.559455 0.879538 0.402979
O O10 0.614649 0.000000 0.340948
O O11 0.841006 0.158995 0.934274
O O12 0.876847 0.312839 0.952971
O O13 0.000000 0.280282 0.936585
O O14 0.569712 0.139424 0.000000
O O15 0.568583 0.000000 0.000000
O O16 0.454245 0.319616 0.500000
O O17 0.530654 0.265327 0.442779
O O18 0.578912 0.421089 0.446302
#
# Coordination Sequence:
#
# PCOD8328652 Si02
#       6
#    24  24  24  24  12  24
#     4   9  18  31  47  67  90 117 147 180 218 259
#     4  10  19  30  44  62  85 112 142 176 215 259
#     4   9  17  27  38  53  73  98 129 165 203 243
#     4   9  17  30  48  69  92 118 149 182 217 259
#     4   9  17  28  43  64  88 114 146 183 217 250
#     4   9  16  25  37  52  70  93 122 157 198 244
#
# _framework density 15.816038000000001
#
# number of rings (size 3 to 8) (size 9 to 14) (size 15 to 20)
#    0.000    2.818    0.000    1.727    0.000    2.909 
#    0.000    5.455    0.000    1.818    0.000    2.545 
#    0.000    2.182    0.000    0.182    0.000    0.000 
#
# Total GULP energy -1635625.668413 kJ/mol
# GULP energy per Si atom -12391.103549 kJ/mol
# Density = 1.578004 g / cm^3
# Si number density = 15.816038 Si / 1000 Ang^3
#
#
#
# Elastic Constant Matrix: (Units=GPa)
#
#
# Indices 1 2 3 4 5 6 
#
# 1 73.1103 44.7866 41.0535 0.0000 0.0000 0.0000
# 2 44.7866 73.1103 41.0535 0.0000 0.0000 0.0000
# 3 41.0535 41.0535 93.1544 0.0000 0.0000 0.0000
# 4 0.0000 0.0000 0.0000 20.4911 0.0000 0.0000
# 5 0.0000 0.0000 0.0000 0.0000 20.4911 0.0000
# 6 0.0000 0.0000 0.0000 0.0000 0.0000 14.1618
#
#
#
# Elastic Compliance Matrix: (Units=1/GPa)
#
#
# Indices 1 2 3 4 5 6 
#
# 1 0.023772 -0.011534 -0.005393 0.000000 0.000000 0.000000
# 2 -0.011534 0.023772 -0.005393 0.000000 0.000000 0.000000
# 3 -0.005393 -0.005393 0.015489 0.000000 0.000000 0.000000
# 4 0.000000 0.000000 0.000000 0.048802 0.000000 0.000000
# 5 0.000000 0.000000 0.000000 0.000000 0.048802 0.000000
# 6 0.000000 0.000000 0.000000 0.000000 0.000000 0.070612
#
#
# Mechanical properties :
#
#
# Convention : Reuss Voigt Hill
#
# Bulk Modulus (GPa) = 54.37350 54.79583 54.58467
# Shear Modulus (GPa) = 17.72920 18.52756 18.12838
#
# Velocity S-wave (km/s) = 3.35171 3.42635 3.38923
# Velocity P-wave (km/s) = 7.03079 7.09747 7.06421
#
# Compressibility (1/GPa) = 0.01839131
#
# Stress axis : x y z
#
# Youngs Moduli (GPa) = 42.06604 42.06604 64.56341
#
# Poissons Ratio (x) = 0.48519 0.34822
# Poissons Ratio (y) = 0.48519 0.34822
# Poissons Ratio (z) = 0.22688 0.22688
#
# Static dielectric constant tensor:
#      x y z
#    x 2.909850 0.000000 0.000000 
#    y 0.000000 2.909850 0.000000 
#    z 0.000000 0.000000 3.380380 
# 
# 
# High freq. dielectric constant tensor:
#      x y z
#    x 1.578850 0.000000 0.000000 
#    y 0.000000 1.578850 0.000000 
#    z 0.000000 0.000000 1.627800 
# 
# From -- ./inp_files/10448.got.cif
#   From: 2010.03.12/outbox.cif.g09.slc.cpg/sg191_6_cif.got.tgz:10448.got - 2010.04.01 12:09:02.
