data_PCOD8328973
_publ_section_title
;
Structure prediction by ZEFSAII (Michael W. Deem and Ramdas Pophale) SiO2 
 PCOD8328973
Probable space group: P 6/M M M
;
_chemical_formula_sum "Si O2"
_cell_formula_units_Z 144
_cell_length_a 32.099550
_cell_length_b 32.099550
_cell_length_c 8.983161
_cell_angle_alpha 90.000000
_cell_angle_beta 90.000000
_cell_angle_gamma 120.000000
_cell_volume 8015.999904
_symmetry_space_group_name_H-M "P 6/M M M"
_symmetry_group_IT_number 191
_symmetry_cell_setting 'hexagonal'
loop_
_space_group_symop_operation_xyz
x,y,z
x-y,x,z
-y,x-y,z
-x,-y,z
-x+y,-x,z
y,-x+y,z
x-y,-y,-z
-x,-x+y,-z
y,x,-z
-y,-x,-z
-x+y,y,-z
x,x-y,-z
-x,-y,-z
-x+y,-x,-z
y,-x+y,-z
x,y,-z
x-y,x,-z
-y,x-y,-z
-x+y,y,z
x,x-y,z
-y,-x,z
y,x,z
x-y,-y,z
-x,-x+y,z
loop_
_atom_site_type_symbol
_atom_site_label
_atom_site_fract_x
_atom_site_fract_y
_atom_site_fract_z
Si Si1 0.564365 0.618964 0.324578
Si Si2 0.854172 0.800789 0.169560
Si Si3 0.333099 0.762444 0.675027
Si Si4 0.858758 0.380225 0.166913
Si Si5 0.349186 0.054901 0.828210
Si Si6 0.803493 0.100499 0.328792
O O1 0.560249 0.621682 0.500000
O O2 0.578327 0.578327 0.280481
O O3 0.514114 0.606696 0.253008
O O4 0.604602 0.670449 0.266474
O O5 0.910595 0.821189 0.198588
O O6 0.844174 0.844174 0.202489
O O7 0.822215 0.757381 0.279363
O O8 0.840105 0.781858 0.000000
O O9 0.332314 0.770185 0.500000
O O10 0.376479 0.752958 0.718120
O O11 0.283368 0.716633 0.729411
O O12 0.339051 0.810494 0.753220
O O13 0.855755 0.427878 0.164512
O O14 0.860756 0.362856 0.000000
O O15 0.332536 0.091366 0.771580
O O16 0.306650 0.000000 0.804418
O O17 0.364140 0.065350 0.000000
O O18 0.787619 0.089670 0.500000
O O19 0.844461 0.155540 0.304082
#
# Coordination Sequence:
#
# PCOD8328973 Si02
#       6
#    24  24  24  24  24  24
#     4  10  21  37  57  79 102 131 169 212 256 301
#     4   9  17  29  45  65  90 121 157 197 242 292
#     4   9  17  31  53  80 109 141 177 216 257 302
#     4  10  21  36  54  78 109 142 174 212 258 304
#     4  10  20  34  53  75  99 128 161 198 242 293
#     4  10  20  32  47  70  99 128 159 197 240 286
#
# _framework density 17.964072999999999
#
# number of rings (size 3 to 8) (size 9 to 14) (size 15 to 20)
#    0.000    2.333    0.000    2.667    0.000    7.667 
#    0.000    2.500    0.000    6.167    0.000    1.167 
#    0.000    0.000    0.000    4.167    0.000    4.333 
#
# Total GULP energy -1785705.705145 kJ/mol
# GULP energy per Si atom -12400.734064 kJ/mol
# Density = 1.792319 g / cm^3
# Si number density = 17.964073 Si / 1000 Ang^3
#
#
#
# Elastic Constant Matrix: (Units=GPa)
#
#
# Indices 1 2 3 4 5 6 
#
# 1 81.9964 35.5228 37.6607 0.0000 0.0000 0.0000
# 2 35.5228 81.9964 37.6607 0.0000 0.0000 0.0000
# 3 37.6607 37.6607 77.5073 0.0000 0.0000 0.0000
# 4 0.0000 0.0000 0.0000 27.9034 0.0000 0.0000
# 5 0.0000 0.0000 0.0000 0.0000 27.9034 0.0000
# 6 0.0000 0.0000 0.0000 0.0000 0.0000 23.2368
#
#
#
# Elastic Compliance Matrix: (Units=1/GPa)
#
#
# Indices 1 2 3 4 5 6 
#
# 1 0.016938 -0.004580 -0.006005 0.000000 0.000000 0.000000
# 2 -0.004580 0.016938 -0.006005 0.000000 0.000000 0.000000
# 3 -0.006005 -0.006005 0.018737 0.000000 0.000000 0.000000
# 4 0.000000 0.000000 0.000000 0.035838 0.000000 0.000000
# 5 0.000000 0.000000 0.000000 0.000000 0.035838 0.000000
# 6 0.000000 0.000000 0.000000 0.000000 0.000000 0.043035
#
#
# Mechanical properties :
#
#
# Convention : Reuss Voigt Hill
#
# Bulk Modulus (GPa) = 51.45531 51.46539 51.46035
# Shear Modulus (GPa) = 24.15690 24.51910 24.33800
#
# Velocity S-wave (km/s) = 3.67104 3.69846 3.68477
# Velocity P-wave (km/s) = 6.83186 6.85196 6.84192
#
# Compressibility (1/GPa) = 0.01943434
#
# Stress axis : x y z
#
# Youngs Moduli (GPa) = 59.03992 59.03992 53.36954
#
# Poissons Ratio (x) = 0.27040 0.32046
# Poissons Ratio (y) = 0.27040 0.32046
# Poissons Ratio (z) = 0.35451 0.35451
#
# Static dielectric constant tensor:
#      x y z
#    x 3.293680 0.000000 0.000000 
#    y 0.000000 3.293680 0.000000 
#    z 0.000000 0.000000 3.501680 
# 
# 
# High freq. dielectric constant tensor:
#      x y z
#    x 1.686740 0.000000 0.000000 
#    y 0.000000 1.686740 0.000000 
#    z 0.000000 0.000000 1.705690 
# 
# From -- ./inp_files/1956.got.cif
#   From: 2010.03.12/outbox.cif.g09.slc.cpg/sg191_1_cif.got.tgz:1956.got - 2010.04.01 12:09:02.
