data_PCOD8328136
_publ_section_title
;
Structure prediction by ZEFSAII (Michael W. Deem and Ramdas Pophale) SiO2 
 PCOD8328136
Probable space group: P -6 2 C
;
_chemical_formula_sum "Si O2"
_cell_formula_units_Z 58
_cell_length_a 15.826295
_cell_length_b 15.826295
_cell_length_c 13.058675
_cell_angle_alpha 90.000000
_cell_angle_beta 90.000000
_cell_angle_gamma 120.000000
_cell_volume 2832.619617
_symmetry_space_group_name_H-M "P -6 2 C"
_symmetry_group_IT_number 190
_symmetry_cell_setting 'hexagonal'
loop_
_space_group_symop_operation_xyz
x,y,z
-x+y,-x,1/2-z
-y,x-y,z
x,y,1/2-z
-x+y,-x,z
-y,x-y,1/2-z
x-y,-y,-z
-x,-x+y,-z
y,x,-z
y,x,1/2+z
x-y,-y,1/2+z
-x,-x+y,1/2+z
loop_
_atom_site_type_symbol
_atom_site_label
_atom_site_fract_x
_atom_site_fract_y
_atom_site_fract_z
Si Si1 0.888389 0.109010 0.367884
Si Si2 0.000000 0.000000 0.369671
Si Si3 0.855367 0.338732 0.564765
Si Si4 0.382259 0.062004 0.135700
Si Si5 0.671094 0.148574 0.631511
Si Si6 0.000000 0.699193 0.500000
O O1 0.858007 0.077021 0.250000
O O2 0.951322 0.225979 0.378555
O O3 0.792721 0.073660 0.435198
O O4 0.952888 0.063437 0.410527
O O5 0.000000 0.000000 0.250000
O O6 0.859380 0.318113 0.444052
O O7 0.777087 0.242429 0.622100
O O8 0.827782 0.422572 0.576320
O O9 0.958287 0.373194 0.618292
O O10 0.422133 0.099862 0.250000
O O11 0.643599 0.123434 0.750000
O O12 0.668418 0.056622 0.578756
#
# Coordination Sequence:
#
# PCOD8328136 Si02
#       6
#    12   4  12  12  12   6
#     4  10  22  39  61  92 134 178 219 265 316 374
#     4   9  21  37  59  94 136 182 226 262 305 364
#     4  11  24  43  67  96 124 164 214 262 320 385
#     4  10  21  42  67  92 127 170 212 257 315 383
#     4  12  25  43  67  95 126 161 211 271 324 379
#     4  12  24  40  60  98 128 166 210 268 320 392
#
# _framework density 20.475746999999998
#
# number of rings (size 3 to 8) (size 9 to 14) (size 15 to 20)
#    0.000    1.241    2.069    4.138    2.897    0.828 
#    0.000    2.069    0.000    0.000    0.000    0.000 
#    0.000    0.000    0.000    0.000    0.000    0.000 
#
# Total GULP energy -719434.479547 kJ/mol
# GULP energy per Si atom -12404.042751 kJ/mol
# Density = 2.042914 g / cm^3
# Si number density = 20.475747 Si / 1000 Ang^3
#
#
#
# Elastic Constant Matrix: (Units=GPa)
#
#
# Indices 1 2 3 4 5 6 
#
# 1 85.1819 12.0691 36.7331 0.0000 0.0000 0.0000
# 2 12.0691 85.1819 36.7331 0.0000 0.0000 0.0000
# 3 36.7331 36.7331 146.0700 0.0000 0.0000 0.0000
# 4 0.0000 0.0000 0.0000 27.1790 0.0000 0.0000
# 5 0.0000 0.0000 0.0000 0.0000 27.1790 0.0000
# 6 0.0000 0.0000 0.0000 0.0000 0.0000 36.5564
#
#
#
# Elastic Compliance Matrix: (Units=1/GPa)
#
#
# Indices 1 2 3 4 5 6 
#
# 1 0.013186 -0.000492 -0.003192 0.000000 0.000000 0.000000
# 2 -0.000492 0.013186 -0.003192 0.000000 0.000000 0.000000
# 3 -0.003192 -0.003192 0.008452 0.000000 0.000000 0.000000
# 4 0.000000 0.000000 0.000000 0.036793 0.000000 0.000000
# 5 0.000000 0.000000 0.000000 0.000000 0.036793 0.000000
# 6 0.000000 0.000000 0.000000 0.000000 0.000000 0.027355
#
#
# Mechanical properties :
#
#
# Convention : Reuss Voigt Hill
#
# Bulk Modulus (GPa) = 47.45890 54.16717 50.81304
# Shear Modulus (GPa) = 31.94060 33.57612 32.75836
#
# Velocity S-wave (km/s) = 3.95387 4.05384 4.00417
# Velocity P-wave (km/s) = 6.63872 6.95868 6.80058
#
# Compressibility (1/GPa) = 0.02107086
#
# Stress axis : x y z
#
# Youngs Moduli (GPa) = 75.83886 75.83886 118.32084
#
# Poissons Ratio (x) = 0.03729 0.37771
# Poissons Ratio (y) = 0.03729 0.37771
# Poissons Ratio (z) = 0.24210 0.24210
#
# Static dielectric constant tensor:
#      x y z
#    x 3.699520 0.000000 0.000000 
#    y 0.000000 3.699520 0.000000 
#    z 0.000000 0.000000 3.850340 
# 
# 
# High freq. dielectric constant tensor:
#      x y z
#    x 1.798400 0.000000 0.000000 
#    y 0.000000 1.798400 0.000000 
#    z 0.000000 0.000000 1.819830 
# 
# From -- ./inp_files/2880.got.cif
#   From: 2010.06.25/outbox.cif.g09.slc.cpg/sg190_2_cif.got.tgz:2880.got - 2010.06.28 13:08:06.
