data_PCOD8328897
_publ_section_title
;
Structure prediction by ZEFSAII (Michael W. Deem and Ramdas Pophale) SiO2 
 PCOD8328897
Probable space group: P 6/M M M
;
_chemical_formula_sum "Si O2"
_cell_formula_units_Z 100
_cell_length_a 26.525338
_cell_length_b 26.525338
_cell_length_c 9.365778
_cell_angle_alpha 90.000000
_cell_angle_beta 90.000000
_cell_angle_gamma 120.000000
_cell_volume 5706.848511
_symmetry_space_group_name_H-M "P 6/M M M"
_symmetry_group_IT_number 191
_symmetry_cell_setting 'hexagonal'
loop_
_space_group_symop_operation_xyz
x,y,z
x-y,x,z
-y,x-y,z
-x,-y,z
-x+y,-x,z
y,-x+y,z
x-y,-y,-z
-x,-x+y,-z
y,x,-z
-y,-x,-z
-x+y,y,-z
x,x-y,-z
-x,-y,-z
-x+y,-x,-z
y,-x+y,-z
x,y,-z
x-y,x,-z
-y,x-y,-z
-x+y,y,z
x,x-y,z
-y,-x,z
y,x,z
x-y,-y,z
-x,-x+y,z
loop_
_atom_site_type_symbol
_atom_site_label
_atom_site_fract_x
_atom_site_fract_y
_atom_site_fract_z
Si Si1 0.533189 0.066378 0.830321
Si Si2 0.334545 0.862405 0.833244
Si Si3 0.757297 0.126489 0.335490
Si Si4 0.063998 0.825781 0.670169
Si Si5 0.666667 0.333334 0.328887
Si Si6 0.726264 0.452528 0.834146
O O1 0.599549 0.101741 0.774968
O O2 0.500000 0.000000 0.770922
O O3 0.532848 0.065695 0.000000
O O4 0.299215 0.888670 0.755506
O O5 0.305815 0.794379 0.798092
O O6 0.332007 0.872497 0.000000
O O7 0.738874 0.114152 0.500000
O O8 0.806621 0.193380 0.312725
O O9 0.780896 0.084569 0.279850
O O10 0.063832 0.826549 0.500000
O O11 0.109333 0.890668 0.727352
O O12 0.000000 0.805553 0.732587
O O13 0.666667 0.333334 0.500000
O O14 0.601525 0.300763 0.270966
O O15 0.716270 0.432539 0.000000
#
# Coordination Sequence:
#
# PCOD8328897 Si02
#       6
#    12  24  24  24   4  12
#     4   9  19  34  49  68  95 125 157 191 231 281
#     4  10  19  33  54  72  90 123 162 197 234 283
#     4   9  17  29  46  69  97 122 148 193 247 289
#     4   8  14  25  42  65  93 127 163 197 238 288
#     4  12  25  35  49  75 100 122 157 204 253 302
#     4  10  20  35  53  72  95 126 162 201 246 297
#
# _framework density 17.522807
#
# number of rings (size 3 to 8) (size 9 to 14) (size 15 to 20)
#    0.000    2.760    1.200    2.520    0.000    3.840 
#    0.000    0.600    0.000    0.960    0.000    1.680 
#    0.000    0.000    0.000    0.000    0.000    0.000 
#
# Total GULP energy -1239696.179752 kJ/mol
# GULP energy per Si atom -12396.961798 kJ/mol
# Density = 1.748292 g / cm^3
# Si number density = 17.522807 Si / 1000 Ang^3
#
#
#
# Elastic Constant Matrix: (Units=GPa)
#
#
# Indices 1 2 3 4 5 6 
#
# 1 146.1812 91.2188 33.7748 0.0000 0.0000 0.0000
# 2 91.2188 146.1814 33.7748 0.0000 0.0000 0.0000
# 3 33.7748 33.7748 33.8744 0.0000 0.0000 0.0000
# 4 0.0000 0.0000 0.0000 9.8551 0.0000 0.0000
# 5 0.0000 0.0000 0.0000 0.0000 9.8550 0.0000
# 6 0.0000 0.0000 0.0000 0.0000 0.0000 27.4812
#
#
#
# Elastic Compliance Matrix: (Units=1/GPa)
#
#
# Indices 1 2 3 4 5 6 
#
# 1 0.012037 -0.006157 -0.005863 0.000000 0.000000 0.000000
# 2 -0.006157 0.012037 -0.005863 0.000000 0.000000 0.000000
# 3 -0.005863 -0.005863 0.041213 0.000000 0.000000 0.000000
# 4 0.000000 0.000000 0.000000 0.101470 0.000000 0.000000
# 5 0.000000 0.000000 0.000000 0.000000 0.101471 0.000000
# 6 0.000000 0.000000 0.000000 0.000000 0.000000 0.036388
#
#
# Mechanical properties :
#
#
# Convention : Reuss Voigt Hill
#
# Bulk Modulus (GPa) = 33.87425 71.53041 52.70233
# Shear Modulus (GPa) = 14.27654 20.60284 17.43969
#
# Velocity S-wave (km/s) = 2.85746 3.43267 3.15819
# Velocity P-wave (km/s) = 5.50093 7.52469 6.59095
#
# Compressibility (1/GPa) = 0.02952095
#
# Stress axis : x y z
#
# Youngs Moduli (GPa) = 83.07408 83.07417 24.26412
#
# Poissons Ratio (x) = 0.51147 0.14227
# Poissons Ratio (y) = 0.51147 0.14227
# Poissons Ratio (z) = 0.48709 0.48710
#
# Static dielectric constant tensor:
#      x y z
#    x 3.438360 0.000000 0.000000 
#    y 0.000000 3.438350 0.000000 
#    z 0.000000 0.000000 2.827260 
# 
# 
# High freq. dielectric constant tensor:
#      x y z
#    x 1.679430 0.000000 0.000000 
#    y 0.000000 1.679430 0.000000 
#    z 0.000000 0.000000 1.631860 
# 
# From -- ./inp_files/1475.got.cif
#   From: 2010.03.12/outbox.cif.g09.slc.cpg/sg191_1_cif.got.tgz:1475.got - 2010.04.01 12:09:02.
