data_PCOD8328571
_publ_section_title
;
Structure prediction by ZEFSAII (Michael W. Deem and Ramdas Pophale) SiO2 
 PCOD8328571
Probable space group: P 6/M M M
;
_chemical_formula_sum "Si O2"
_cell_formula_units_Z 168
_cell_length_a 22.081804
_cell_length_b 22.081804
_cell_length_c 28.666155
_cell_angle_alpha 90.000000
_cell_angle_beta 90.000000
_cell_angle_gamma 120.000000
_cell_volume 12105.122200
_symmetry_space_group_name_H-M "P 6/M M M"
_symmetry_group_IT_number 191
_symmetry_cell_setting 'hexagonal'
loop_
_space_group_symop_operation_xyz
x,y,z
x-y,x,z
-y,x-y,z
-x,-y,z
-x+y,-x,z
y,-x+y,z
x-y,-y,-z
-x,-x+y,-z
y,x,-z
-y,-x,-z
-x+y,y,-z
x,x-y,-z
-x,-y,-z
-x+y,-x,-z
y,-x+y,-z
x,y,-z
x-y,x,-z
-y,x-y,-z
-x+y,y,z
x,x-y,z
-y,-x,z
y,x,z
x-y,-y,z
-x,-x+y,z
loop_
_atom_site_type_symbol
_atom_site_label
_atom_site_fract_x
_atom_site_fract_y
_atom_site_fract_z
Si Si1 0.474423 0.807559 0.876682
Si Si2 0.849848 0.288426 0.684068
Si Si3 0.291665 0.077945 0.357295
Si Si4 0.120435 0.742331 0.447934
Si Si5 0.194258 0.527531 0.771021
Si Si6 0.081314 0.471907 0.396207
Si Si7 0.922326 0.389265 0.052100
O O1 0.396611 0.793221 0.885845
O O2 0.474458 0.737229 0.888721
O O3 0.497454 0.832373 0.823520
O O4 0.531346 0.867692 0.910204
O O5 0.771452 0.228549 0.670198
O O6 0.901454 0.256916 0.678598
O O7 0.852078 0.314457 0.736888
O O8 0.873809 0.353862 0.649887
O O9 0.261672 0.130836 0.351721
O O10 0.317328 0.079105 0.410229
O O11 0.229829 0.000000 0.345675
O O12 0.093619 0.744926 0.500000
O O13 0.203153 0.796848 0.443088
O O14 0.106759 0.664718 0.438454
O O15 0.276103 0.552205 0.767316
O O16 0.185170 0.592585 0.756336
O O17 0.095100 0.547550 0.411597
O O18 0.000000 0.419617 0.384981
O O19 0.923575 0.461788 0.054972
O O20 0.000000 0.403083 0.063644
O O21 0.899943 0.357476 0.000000
#
# Coordination Sequence:
#
# PCOD8328571 Si02
#       7
#    24  24  24  24  24  24  24
#     4   9  16  25  37  54  75  97 122 155 195 235
#     4   9  16  27  42  56  72  97 127 156 183 212
#     4   9  17  29  45  63  81 100 121 146 177 214
#     4   9  17  29  44  59  75  97 124 153 182 212
#     4   9  16  25  37  53  75 102 129 157 190 227
#     4  10  19  28  39  56  77  98 119 148 187 225
#     4   8  14  25  38  49  65  92 123 153 186 226
#
# _framework density 13.878422
#
# number of rings (size 3 to 8) (size 9 to 14) (size 15 to 20)
#    0.000    3.000    0.000    4.143    0.000    2.857 
#    0.000    2.143    0.000    7.571    0.000    0.000 
#    0.000    0.000    0.000    3.571    0.000    0.000 
#
# Total GULP energy -2082362.510674 kJ/mol
# GULP energy per Si atom -12395.014944 kJ/mol
# Density = 1.384683 g / cm^3
# Si number density = 13.878422 Si / 1000 Ang^3
#
#
#
# Elastic Constant Matrix: (Units=GPa)
#
#
# Indices 1 2 3 4 5 6 
#
# 1 73.1377 39.3150 38.8482 0.0000 0.0000 0.0000
# 2 39.3150 73.1377 38.8482 0.0000 0.0000 0.0000
# 3 38.8482 38.8482 92.0130 0.0000 0.0000 0.0000
# 4 0.0000 0.0000 0.0000 13.6741 0.0000 0.0000
# 5 0.0000 0.0000 0.0000 0.0000 13.6741 0.0000
# 6 0.0000 0.0000 0.0000 0.0000 0.0000 16.9114
#
#
#
# Elastic Compliance Matrix: (Units=1/GPa)
#
#
# Indices 1 2 3 4 5 6 
#
# 1 0.021060 -0.008505 -0.005301 0.000000 0.000000 0.000000
# 2 -0.008505 0.021060 -0.005301 0.000000 0.000000 0.000000
# 3 -0.005301 -0.005301 0.015344 0.000000 0.000000 0.000000
# 4 0.000000 0.000000 0.000000 0.073131 0.000000 0.000000
# 5 0.000000 0.000000 0.000000 0.000000 0.073131 0.000000
# 6 0.000000 0.000000 0.000000 0.000000 0.000000 0.059132
#
#
# Mechanical properties :
#
#
# Convention : Reuss Voigt Hill
#
# Bulk Modulus (GPa) = 51.94526 52.47901 52.21213
# Shear Modulus (GPa) = 16.26070 16.93705 16.59888
#
# Velocity S-wave (km/s) = 3.42666 3.49719 3.46210
# Velocity P-wave (km/s) = 7.29150 7.36224 7.32696
#
# Compressibility (1/GPa) = 0.01925104
#
# Stress axis : x y z
#
# Youngs Moduli (GPa) = 47.48228 47.48228 65.17179
#
# Poissons Ratio (x) = 0.40386 0.34546
# Poissons Ratio (y) = 0.40386 0.34546
# Poissons Ratio (z) = 0.25169 0.25169
#
# Static dielectric constant tensor:
#      x y z
#    x 2.652400 0.000000 0.000000 
#    y 0.000000 2.652400 0.000000 
#    z 0.000000 0.000000 2.852330 
# 
# 
# High freq. dielectric constant tensor:
#      x y z
#    x 1.508740 0.000000 0.000000 
#    y 0.000000 1.508740 0.000000 
#    z 0.000000 0.000000 1.526460 
# 
# From -- ./inp_files/10049.got.cif
#   From: 2010.03.12/outbox.cif.g09.slc.cpg/sg191_6_cif.got.tgz:10049.got - 2010.04.01 12:09:02.
