data_PCOD8328430
_publ_section_title
;
Structure prediction by ZEFSAII (Michael W. Deem and Ramdas Pophale) SiO2 
 PCOD8328430
Probable space group: P 6/M M M
;
_chemical_formula_sum "Si O2"
_cell_formula_units_Z 114
_cell_length_a 20.883901
_cell_length_b 20.883901
_cell_length_c 16.743683
_cell_angle_alpha 90.000000
_cell_angle_beta 90.000000
_cell_angle_gamma 120.000000
_cell_volume 6324.189523
_symmetry_space_group_name_H-M "P 6/M M M"
_symmetry_group_IT_number 191
_symmetry_cell_setting 'hexagonal'
loop_
_space_group_symop_operation_xyz
x,y,z
x-y,x,z
-y,x-y,z
-x,-y,z
-x+y,-x,z
y,-x+y,z
x-y,-y,-z
-x,-x+y,-z
y,x,-z
-y,-x,-z
-x+y,y,-z
x,x-y,-z
-x,-y,-z
-x+y,-x,-z
y,-x+y,-z
x,y,-z
x-y,x,-z
-y,x-y,-z
-x+y,y,z
x,x-y,z
-y,-x,z
y,x,z
x-y,-y,z
-x,-x+y,z
loop_
_atom_site_type_symbol
_atom_site_label
_atom_site_fract_x
_atom_site_fract_y
_atom_site_fract_z
Si Si1 0.838906 0.919453 0.410357
Si Si2 0.085864 0.467785 0.664636
Si Si3 0.222722 0.304578 0.909275
Si Si4 0.301467 0.846267 0.822115
Si Si5 0.542936 0.457065 0.905294
Si Si6 0.150774 0.301547 0.500000
Si Si7 0.322909 0.410083 0.500000
O O1 0.870216 0.870216 0.367278
O O2 0.869945 0.934973 0.500000
O O3 0.749011 0.874506 0.418654
O O4 0.097221 0.548611 0.674313
O O5 0.136192 0.457463 0.729450
O O6 0.116319 0.461269 0.578371
O O7 0.000000 0.406179 0.676493
O O8 0.135373 0.270745 0.896475
O O9 0.239394 0.239394 0.888888
O O10 0.268632 0.371820 0.850477
O O11 0.246019 0.333527 0.000000
O O12 0.240799 0.759202 0.833008
O O13 0.373729 0.868945 0.874252
O O14 0.500000 0.500000 0.874024
O O15 0.543153 0.456848 0.000000
O O16 0.237685 0.350691 0.500000
O O17 0.368612 0.368612 0.500000
#
# Coordination Sequence:
#
# PCOD8328430 Si02
#       7
#    12  24  24  24  12   6  12
#     4   8  13  22  40  66 100 140 174 202 238 300
#     4  10  20  37  59  78 100 133 181 230 270 321
#     4   9  17  30  50  77 109 142 176 215 260 311
#     4  11  22  35  54  81 113 143 178 220 271 324
#     4  11  22  38  62  86 111 148 191 226 263 321
#     4  10  18  28  45  68 106 128 160 212 274 326
#     4  10  21  34  52  77 100 132 174 227 285 324
#
# _framework density 18.026024
#
# number of rings (size 3 to 8) (size 9 to 14) (size 15 to 20)
#    0.316    1.789    1.053    3.579    1.474    4.632 
#    0.632    0.000    0.000    0.211    0.000    1.474 
#    0.000    0.000    0.000    0.000    0.000    0.000 
#
# Total GULP energy -1412969.747857 kJ/mol
# GULP energy per Si atom -12394.471472 kJ/mol
# Density = 1.798500 g / cm^3
# Si number density = 18.026024 Si / 1000 Ang^3
#
#
#
# Elastic Constant Matrix: (Units=GPa)
#
#
# Indices 1 2 3 4 5 6 
#
# 1 107.5952 68.9478 46.3007 0.0000 0.0000 0.0000
# 2 68.9478 107.5952 46.3007 0.0000 0.0000 0.0000
# 3 46.3007 46.3007 100.0006 0.0000 0.0000 0.0000
# 4 0.0000 0.0000 0.0000 16.0246 0.0000 0.0000
# 5 0.0000 0.0000 0.0000 0.0000 16.0246 0.0000
# 6 0.0000 0.0000 0.0000 0.0000 0.0000 19.3237
#
#
#
# Elastic Compliance Matrix: (Units=1/GPa)
#
#
# Indices 1 2 3 4 5 6 
#
# 1 0.016678 -0.009197 -0.003464 0.000000 0.000000 0.000000
# 2 -0.009197 0.016678 -0.003464 0.000000 0.000000 0.000000
# 3 -0.003464 -0.003464 0.013207 0.000000 0.000000 0.000000
# 4 0.000000 0.000000 0.000000 0.062404 0.000000 0.000000
# 5 0.000000 0.000000 0.000000 0.000000 0.062404 0.000000
# 6 0.000000 0.000000 0.000000 0.000000 0.000000 0.051750
#
#
# Mechanical properties :
#
#
# Convention : Reuss Voigt Hill
#
# Bulk Modulus (GPa) = 69.85886 70.92102 70.38994
# Shear Modulus (GPa) = 19.22026 20.51738 19.86882
#
# Velocity S-wave (km/s) = 3.26889 3.37739 3.32359
# Velocity P-wave (km/s) = 7.28602 7.39176 7.33908
#
# Compressibility (1/GPa) = 0.01431458
#
# Stress axis : x y z
#
# Youngs Moduli (GPa) = 59.95892 59.95892 75.71477
#
# Poissons Ratio (x) = 0.55143 0.26226
# Poissons Ratio (y) = 0.55143 0.26226
# Poissons Ratio (z) = 0.20769 0.20769
#
# Static dielectric constant tensor:
#      x y z
#    x 3.342590 0.000000 0.000000 
#    y 0.000000 3.342590 0.000000 
#    z 0.000000 0.000000 3.371150 
# 
# 
# High freq. dielectric constant tensor:
#      x y z
#    x 1.692840 0.000000 0.000000 
#    y 0.000000 1.692840 0.000000 
#    z 0.000000 0.000000 1.686070 
# 
# From -- ./inp_files/4440.got.cif
#   From: 2010.03.12/outbox.cif.g09.slc.cpg/sg191_3_cif.got.tgz:4440.got - 2010.04.01 12:09:02.
