data_PCOD8328924
_publ_section_title
;
Structure prediction by ZEFSAII (Michael W. Deem and Ramdas Pophale) SiO2 
 PCOD8328924
Probable space group: P 6/M M M
;
_chemical_formula_sum "Si O2"
_cell_formula_units_Z 168
_cell_length_a 29.869244
_cell_length_b 29.869244
_cell_length_c 13.046729
_cell_angle_alpha 90.000000
_cell_angle_beta 90.000000
_cell_angle_gamma 120.000000
_cell_volume 10080.468909
_symmetry_space_group_name_H-M "P 6/M M M"
_symmetry_group_IT_number 191
_symmetry_cell_setting 'hexagonal'
loop_
_space_group_symop_operation_xyz
x,y,z
x-y,x,z
-y,x-y,z
-x,-y,z
-x+y,-x,z
y,-x+y,z
x-y,-y,-z
-x,-x+y,-z
y,x,-z
-y,-x,-z
-x+y,y,-z
x,x-y,-z
-x,-y,-z
-x+y,-x,-z
y,-x+y,-z
x,y,-z
x-y,x,-z
-y,x-y,-z
-x+y,y,z
x,x-y,z
-y,-x,z
y,x,z
x-y,-y,z
-x,-x+y,z
loop_
_atom_site_type_symbol
_atom_site_label
_atom_site_fract_x
_atom_site_fract_y
_atom_site_fract_z
Si Si1 0.229862 0.666738 0.379970
Si Si2 0.418464 0.475918 0.114141
Si Si3 0.058775 0.688528 0.383946
Si Si4 0.747020 0.152573 0.113930
Si Si5 0.251886 0.310307 0.197107
Si Si6 0.214899 0.157254 0.118311
Si Si7 0.664866 0.529738 0.731476
O O1 0.220071 0.668603 0.500000
O O2 0.240738 0.620369 0.353902
O O3 0.279622 0.720379 0.344283
O O4 0.178342 0.656313 0.321723
O O5 0.471800 0.528201 0.114198
O O6 0.428976 0.428976 0.142536
O O7 0.382536 0.481331 0.196454
O O8 0.393519 0.466154 0.000000
O O9 0.070321 0.708974 0.500000
O O10 0.066716 0.736691 0.314435
O O11 0.098986 0.669942 0.353570
O O12 0.000000 0.640876 0.372162
O O13 0.807444 0.192557 0.132613
O O14 0.736945 0.094736 0.124179
O O15 0.715405 0.164582 0.197818
O O16 0.730054 0.159008 0.000000
O O17 0.289948 0.289948 0.159555
O O18 0.192940 0.264368 0.188652
O O19 0.195085 0.097542 0.144462
O O20 0.168088 0.168088 0.141938
O O21 0.232407 0.169904 0.000000
#
# Coordination Sequence:
#
# PCOD8328924 Si02
#       7
#    24  24  24  24  24  24  24
#     4  10  21  37  56  75  93 114 145 190 243 292
#     4   9  18  32  49  71 100 130 157 187 224 264
#     4   9  18  31  45  64  94 128 156 183 217 258
#     4  10  20  31  43  63  93 123 147 177 219 263
#     4   9  17  28  44  64  86 118 158 193 223 259
#     4   9  16  26  42  64  89 117 151 192 235 276
#     4  11  19  31  50  73  94 120 155 189 220 265
#
# _framework density 16.665891999999999
#
# number of rings (size 3 to 8) (size 9 to 14) (size 15 to 20)
#    0.000    2.429    0.000    3.571    0.000    3.143 
#    0.000    0.000    0.000    8.714    0.000    7.000 
#    0.000    6.857    0.000    0.000    0.000    0.000 
#
# Total GULP energy -2082703.783373 kJ/mol
# GULP energy per Si atom -12397.046330 kJ/mol
# Density = 1.662796 g / cm^3
# Si number density = 16.665892 Si / 1000 Ang^3
#
#
#
# Elastic Constant Matrix: (Units=GPa)
#
#
# Indices 1 2 3 4 5 6 
#
# 1 97.7737 46.2046 46.6203 0.0000 0.0000 0.0000
# 2 46.2046 97.7737 46.6203 0.0000 0.0000 0.0000
# 3 46.6203 46.6203 88.1608 0.0000 0.0000 0.0000
# 4 0.0000 0.0000 0.0000 24.6291 0.0000 0.0000
# 5 0.0000 0.0000 0.0000 0.0000 24.6291 0.0000
# 6 0.0000 0.0000 0.0000 0.0000 0.0000 25.7845
#
#
#
# Elastic Compliance Matrix: (Units=1/GPa)
#
#
# Indices 1 2 3 4 5 6 
#
# 1 0.014977 -0.004414 -0.005586 0.000000 0.000000 0.000000
# 2 -0.004414 0.014977 -0.005586 0.000000 0.000000 0.000000
# 3 -0.005586 -0.005586 0.017250 0.000000 0.000000 0.000000
# 4 0.000000 0.000000 0.000000 0.040602 0.000000 0.000000
# 5 0.000000 0.000000 0.000000 0.000000 0.040602 0.000000
# 6 0.000000 0.000000 0.000000 0.000000 0.000000 0.038783
#
#
# Mechanical properties :
#
#
# Convention : Reuss Voigt Hill
#
# Bulk Modulus (GPa) = 62.37048 62.51095 62.44072
# Shear Modulus (GPa) = 24.54488 24.62606 24.58547
#
# Velocity S-wave (km/s) = 3.84182 3.84817 3.84500
# Velocity P-wave (km/s) = 7.56206 7.57194 7.56700
#
# Compressibility (1/GPa) = 0.01603323
#
# Stress axis : x y z
#
# Youngs Moduli (GPa) = 66.76840 66.76840 57.96945
#
# Poissons Ratio (x) = 0.29474 0.32380
# Poissons Ratio (y) = 0.29474 0.32380
# Poissons Ratio (z) = 0.37295 0.37295
#
# Static dielectric constant tensor:
#      x y z
#    x 3.154270 0.000000 0.000000 
#    y 0.000000 3.154270 0.000000 
#    z 0.000000 0.000000 3.119490 
# 
# 
# High freq. dielectric constant tensor:
#      x y z
#    x 1.638790 0.000000 0.000000 
#    y 0.000000 1.638790 0.000000 
#    z 0.000000 0.000000 1.633560 
# 
# From -- ./inp_files/3630.got.cif
#   From: 2010.03.12/outbox.cif.g09.slc.cpg/sg191_2_cif.got.tgz:3630.got - 2010.04.01 12:09:02.
