data_PCOD8328572
_publ_section_title
;
Structure prediction by ZEFSAII (Michael W. Deem and Ramdas Pophale) SiO2 
 PCOD8328572
Probable space group: P 6/M M M
;
_chemical_formula_sum "Si O2"
_cell_formula_units_Z 168
_cell_length_a 21.844496
_cell_length_b 21.844496
_cell_length_c 28.244988
_cell_angle_alpha 90.000000
_cell_angle_beta 90.000000
_cell_angle_gamma 120.000000
_cell_volume 11672.290409
_symmetry_space_group_name_H-M "P 6/M M M"
_symmetry_group_IT_number 191
_symmetry_cell_setting 'hexagonal'
loop_
_space_group_symop_operation_xyz
x,y,z
x-y,x,z
-y,x-y,z
-x,-y,z
-x+y,-x,z
y,-x+y,z
x-y,-y,-z
-x,-x+y,-z
y,x,-z
-y,-x,-z
-x+y,y,-z
x,x-y,-z
-x,-y,-z
-x+y,-x,-z
y,-x+y,-z
x,y,-z
x-y,x,-z
-y,x-y,-z
-x+y,y,z
x,x-y,z
-y,-x,z
y,x,z
x-y,-y,z
-x,-x+y,z
loop_
_atom_site_type_symbol
_atom_site_label
_atom_site_fract_x
_atom_site_fract_y
_atom_site_fract_z
Si Si1 0.861188 0.587067 0.289181
Si Si2 0.916594 0.390453 0.946917
Si Si3 0.528846 0.196906 0.787623
Si Si4 0.718841 0.579634 0.865554
Si Si5 0.666993 0.193392 0.446081
Si Si6 0.301092 0.079776 0.791716
Si Si7 0.470760 0.390006 0.632336
O O1 0.800394 0.600788 0.311650
O O2 0.821784 0.515648 0.259791
O O3 0.910836 0.651894 0.254679
O O4 0.906642 0.574915 0.328398
O O5 0.888366 0.444183 0.931395
O O6 0.892334 0.322891 0.913767
O O7 0.000000 0.433804 0.946004
O O8 0.889377 0.362513 0.000000
O O9 0.590235 0.180469 0.778341
O O10 0.558409 0.279205 0.799848
O O11 0.482127 0.148426 0.830585
O O12 0.786391 0.572781 0.877770
O O13 0.743515 0.654178 0.839535
O O14 0.671124 0.171792 0.500000
O O15 0.608281 0.216562 0.440907
O O16 0.740805 0.259196 0.429388
O O17 0.649574 0.127074 0.413321
O O18 0.274866 0.137433 0.791022
O O19 0.234200 0.000000 0.791485
O O20 0.548702 0.451299 0.650526
O O21 0.425943 0.425943 0.616114
#
# Coordination Sequence:
#
# PCOD8328572 Si02
#       7
#    24  24  24  24  24  24  24
#     4   9  17  28  41  57  77 102 132 162 190 222
#     4   9  17  28  41  56  74  98 129 164 198 228
#     4   9  16  25  37  53  74 100 130 163 196 228
#     4   9  17  27  40  58  77 100 128 157 192 231
#     4   9  17  29  44  59  74  95 126 163 199 233
#     4   9  17  29  45  63  82 103 126 153 185 225
#     4  10  19  28  39  56  79 105 129 157 195 235
#
# _framework density 14.393062
#
# number of rings (size 3 to 8) (size 9 to 14) (size 15 to 20)
#    0.000    2.857    0.000    4.571    0.000    1.143 
#    0.000    1.429    0.000   11.857    0.000    0.000 
#    0.000    0.000    0.000    0.000    0.000    0.000 
#
# Total GULP energy -2082041.813934 kJ/mol
# GULP energy per Si atom -12393.106035 kJ/mol
# Density = 1.436030 g / cm^3
# Si number density = 14.393062 Si / 1000 Ang^3
#
#
#
# Elastic Constant Matrix: (Units=GPa)
#
#
# Indices 1 2 3 4 5 6 
#
# 1 77.0403 40.9509 35.5634 0.0000 0.0000 0.0000
# 2 40.9509 77.0403 35.5634 0.0000 0.0000 0.0000
# 3 35.5634 35.5634 74.3501 0.0000 0.0000 0.0000
# 4 0.0000 0.0000 0.0000 15.9164 0.0000 0.0000
# 5 0.0000 0.0000 0.0000 0.0000 15.9164 0.0000
# 6 0.0000 0.0000 0.0000 0.0000 0.0000 18.0447
#
#
#
# Elastic Compliance Matrix: (Units=1/GPa)
#
#
# Indices 1 2 3 4 5 6 
#
# 1 0.019809 -0.007900 -0.005696 0.000000 0.000000 0.000000
# 2 -0.007900 0.019809 -0.005696 0.000000 0.000000 0.000000
# 3 -0.005696 -0.005696 0.018899 0.000000 0.000000 0.000000
# 4 0.000000 0.000000 0.000000 0.062828 0.000000 0.000000
# 5 0.000000 0.000000 0.000000 0.000000 0.062828 0.000000
# 6 0.000000 0.000000 0.000000 0.000000 0.000000 0.055418
#
#
# Mechanical properties :
#
#
# Convention : Reuss Voigt Hill
#
# Bulk Modulus (GPa) = 50.17082 50.28735 50.22909
# Shear Modulus (GPa) = 17.55486 17.73236 17.64361
#
# Velocity S-wave (km/s) = 3.49617 3.51380 3.50500
# Velocity P-wave (km/s) = 7.15758 7.17474 7.16616
#
# Compressibility (1/GPa) = 0.01993190
#
# Stress axis : x y z
#
# Youngs Moduli (GPa) = 50.48211 50.48211 52.91189
#
# Poissons Ratio (x) = 0.39880 0.30141
# Poissons Ratio (y) = 0.39880 0.30141
# Poissons Ratio (z) = 0.28757 0.28757
#
# Static dielectric constant tensor:
#      x y z
#    x 2.701730 0.000000 0.000000 
#    y 0.000000 2.701730 0.000000 
#    z 0.000000 0.000000 2.811620 
# 
# 
# High freq. dielectric constant tensor:
#      x y z
#    x 1.534810 0.000000 0.000000 
#    y 0.000000 1.534810 0.000000 
#    z 0.000000 0.000000 1.544400 
# 
# From -- ./inp_files/10042.got.cif
#   From: 2010.03.12/outbox.cif.g09.slc.cpg/sg191_6_cif.got.tgz:10042.got - 2010.04.01 12:09:02.
