data_PCOD8328544
_publ_section_title
;
Structure prediction by ZEFSAII (Michael W. Deem and Ramdas Pophale) SiO2 
 PCOD8328544
Probable space group: P 6/M M M
;
_chemical_formula_sum "Si O2"
_cell_formula_units_Z 132
_cell_length_a 26.855920
_cell_length_b 26.855920
_cell_length_c 12.232745
_cell_angle_alpha 90.000000
_cell_angle_beta 90.000000
_cell_angle_gamma 120.000000
_cell_volume 7640.725956
_symmetry_space_group_name_H-M "P 6/M M M"
_symmetry_group_IT_number 191
_symmetry_cell_setting 'hexagonal'
loop_
_space_group_symop_operation_xyz
x,y,z
x-y,x,z
-y,x-y,z
-x,-y,z
-x+y,-x,z
y,-x+y,z
x-y,-y,-z
-x,-x+y,-z
y,x,-z
-y,-x,-z
-x+y,y,-z
x,x-y,-z
-x,-y,-z
-x+y,-x,-z
y,-x+y,-z
x,y,-z
x-y,x,-z
-y,x-y,-z
-x+y,y,z
x,x-y,z
-y,-x,z
y,x,z
x-y,-y,z
-x,-x+y,z
loop_
_atom_site_type_symbol
_atom_site_label
_atom_site_fract_x
_atom_site_fract_y
_atom_site_fract_z
Si Si1 0.000000 0.595598 0.872264
Si Si2 0.273984 0.838472 0.625587
Si Si3 0.900327 0.212226 0.716895
Si Si4 0.000000 0.713636 0.874358
Si Si5 0.441386 0.667057 0.872551
Si Si6 0.821978 0.758357 0.500000
Si Si7 0.385011 0.499036 0.243759
O O1 0.053869 0.601125 0.806492
O O2 0.000000 0.654496 0.863882
O O3 0.000000 0.578247 0.000000
O O4 0.270776 0.853158 0.500000
O O5 0.230434 0.769567 0.645046
O O6 0.253464 0.873866 0.699879
O O7 0.341014 0.862235 0.653739
O O8 0.851186 0.148815 0.751068
O O9 0.930394 0.209961 0.605459
O O10 0.944185 0.235757 0.816910
O O11 0.000000 0.730666 0.000000
O O12 0.458441 0.729221 0.821526
O O13 0.380715 0.619286 0.820359
O O14 0.489262 0.649646 0.850455
O O15 0.434289 0.668950 0.000000
O O16 0.814409 0.814409 0.500000
O O17 0.889623 0.779245 0.500000
O O18 0.444412 0.555589 0.279027
#
# Coordination Sequence:
#
# PCOD8328544 Si02
#       7
#    12  24  24  12  24  12  24
#     4  11  23  38  53  72 100 140 184 221 261 308
#     4  10  20  36  57  79 102 128 162 210 270 325
#     4  10  19  34  56  82 109 141 183 224 267 319
#     4  11  22  36  55  79 112 151 180 218 278 327
#     4   9  17  30  49  72  95 120 155 203 258 312
#     4  10  18  30  56  87 111 143 185 231 273 309
#     4  11  22  35  52  72  98 134 172 210 256 312
#
# _framework density 17.275846000000001
#
# number of rings (size 3 to 8) (size 9 to 14) (size 15 to 20)
#    0.000    1.818    3.636    1.545    0.000    2.909 
#    0.000    1.364    0.000    1.545    0.000    0.000 
#    0.000    0.000    0.000    0.000    0.000    8.273 
#
# Total GULP energy -1635973.749843 kJ/mol
# GULP energy per Si atom -12393.740529 kJ/mol
# Density = 1.723653 g / cm^3
# Si number density = 17.275846 Si / 1000 Ang^3
#
#
#
# Elastic Constant Matrix: (Units=GPa)
#
#
# Indices 1 2 3 4 5 6 
#
# 1 109.6710 60.8628 46.2182 0.0000 0.0000 0.0000
# 2 60.8628 109.6710 46.2182 0.0000 0.0000 0.0000
# 3 46.2182 46.2182 94.0072 0.0000 0.0000 0.0000
# 4 0.0000 0.0000 0.0000 26.6648 0.0000 0.0000
# 5 0.0000 0.0000 0.0000 0.0000 26.6648 0.0000
# 6 0.0000 0.0000 0.0000 0.0000 0.0000 24.4041
#
#
#
# Elastic Compliance Matrix: (Units=1/GPa)
#
#
# Indices 1 2 3 4 5 6 
#
# 1 0.014241 -0.006247 -0.003930 0.000000 0.000000 0.000000
# 2 -0.006247 0.014241 -0.003930 0.000000 0.000000 0.000000
# 3 -0.003930 -0.003930 0.014502 0.000000 0.000000 0.000000
# 4 0.000000 0.000000 0.000000 0.037503 0.000000 0.000000
# 5 0.000000 0.000000 0.000000 0.000000 0.037503 0.000000
# 6 0.000000 0.000000 0.000000 0.000000 0.000000 0.040977
#
#
# Mechanical properties :
#
#
# Convention : Reuss Voigt Hill
#
# Bulk Modulus (GPa) = 67.70771 68.88307 68.29539
# Shear Modulus (GPa) = 26.02733 26.21672 26.12203
#
# Velocity S-wave (km/s) = 3.88567 3.89978 3.89273
# Velocity P-wave (km/s) = 7.70769 7.76124 7.73451
#
# Compressibility (1/GPa) = 0.01476937
#
# Stress axis : x y z
#
# Youngs Moduli (GPa) = 70.21791 70.21791 68.95501
#
# Poissons Ratio (x) = 0.43865 0.27102
# Poissons Ratio (y) = 0.43865 0.27102
# Poissons Ratio (z) = 0.27598 0.27598
#
# Static dielectric constant tensor:
#      x y z
#    x 3.316800 0.000000 0.000000 
#    y 0.000000 3.316800 0.000000 
#    z 0.000000 0.000000 3.095180 
# 
# 
# High freq. dielectric constant tensor:
#      x y z
#    x 1.667350 0.000000 0.000000 
#    y 0.000000 1.667350 0.000000 
#    z 0.000000 0.000000 1.651710 
# 
# From -- ./inp_files/3404.got.cif
#   From: 2010.03.12/outbox.cif.g09.slc.cpg/sg191_2_cif.got.tgz:3404.got - 2010.04.01 12:09:02.
