data_PCOD8328040
_publ_section_title
;
Structure prediction by ZEFSAII (Michael W. Deem and Ramdas Pophale) SiO2 
 PCOD8328040
Probable space group: P -6 2 C
;
_chemical_formula_sum "Si O2"
_cell_formula_units_Z 78
_cell_length_a 17.980999
_cell_length_b 17.980999
_cell_length_c 16.900996
_cell_angle_alpha 90.000000
_cell_angle_beta 90.000000
_cell_angle_gamma 120.000000
_cell_volume 4732.281431
_symmetry_space_group_name_H-M "P -6 2 C"
_symmetry_group_IT_number 190
_symmetry_cell_setting 'hexagonal'
loop_
_space_group_symop_operation_xyz
x,y,z
-x+y,-x,1/2-z
-y,x-y,z
x,y,1/2-z
-x+y,-x,z
-y,x-y,1/2-z
x-y,-y,-z
-x,-x+y,-z
y,x,-z
y,x,1/2+z
x-y,-y,1/2+z
-x,-x+y,1/2+z
loop_
_atom_site_type_symbol
_atom_site_label
_atom_site_fract_x
_atom_site_fract_y
_atom_site_fract_z
Si Si1 0.321442 0.826269 0.067700
Si Si2 0.444839 0.713796 0.750000
Si Si3 0.431822 0.172577 0.397105
Si Si4 0.161604 0.657559 0.095183
Si Si5 0.997868 0.395546 0.843309
Si Si6 0.627565 0.917343 0.541074
Si Si7 0.433216 0.442536 0.836225
O O1 0.239444 0.751733 0.113429
O O2 0.396589 0.805457 0.081885
O O3 0.333887 0.914319 0.105112
O O4 0.310147 0.823608 0.973401
O O5 0.374153 0.610389 0.750000
O O6 0.504016 0.738819 0.671290
O O7 0.362054 0.199246 0.429127
O O8 0.377963 0.075341 0.364170
O O9 0.093619 0.622744 0.166682
O O10 0.111652 0.659840 0.017527
O O11 0.975861 0.381040 0.750000
O O12 0.027706 0.493187 0.869574
O O13 0.600044 0.945204 0.618989
O O14 0.711842 0.000000 0.500000
O O15 0.408000 0.456813 0.750000
#
# Coordination Sequence:
#
# PCOD8328040 Si02
#       7
#    12   6  12  12  12  12  12
#     4  10  20  31  50  67  95 133 176 223 262 315
#     4  10  26  32  44  78 106 130 168 232 290 332
#     4  11  21  33  51  68 101 131 173 207 280 330
#     4   9  18  31  44  68  86 125 169 209 249 288
#     4  10  20  33  46  69  95 129 172 220 266 318
#     4   9  19  32  47  67  90 120 161 205 247 312
#     4   9  18  29  47  62  90 121 161 203 254 296
#
# _framework density 16.482538000000002
#
# number of rings (size 3 to 8) (size 9 to 14) (size 15 to 20)
#    0.154    2.154    0.769    1.692    7.538    3.077 
#    0.000    0.000    0.000    1.846    0.000    0.000 
#    0.000    0.000    0.000   91.385    0.000   72.000 
#
# Total GULP energy -966340.807385 kJ/mol
# GULP energy per Si atom -12388.984710 kJ/mol
# Density = 1.644502 g / cm^3
# Si number density = 16.482538 Si / 1000 Ang^3
#
#
#
# Elastic Constant Matrix: (Units=GPa)
#
#
# Indices 1 2 3 4 5 6 
#
# 1 78.1402 35.0525 26.3602 0.0000 0.0000 0.0000
# 2 35.0525 78.1402 26.3602 0.0000 0.0000 0.0000
# 3 26.3602 26.3602 59.8109 0.0000 0.0000 0.0000
# 4 0.0000 0.0000 0.0000 17.6206 0.0000 0.0000
# 5 0.0000 0.0000 0.0000 0.0000 17.6206 0.0000
# 6 0.0000 0.0000 0.0000 0.0000 0.0000 21.5439
#
#
#
# Elastic Compliance Matrix: (Units=1/GPa)
#
#
# Indices 1 2 3 4 5 6 
#
# 1 0.017162 -0.006046 -0.004899 0.000000 0.000000 0.000000
# 2 -0.006046 0.017162 -0.004899 0.000000 0.000000 0.000000
# 3 -0.004899 -0.004899 0.021038 0.000000 0.000000 0.000000
# 4 0.000000 0.000000 0.000000 0.056752 0.000000 0.000000
# 5 0.000000 0.000000 0.000000 0.000000 0.056752 0.000000
# 6 0.000000 0.000000 0.000000 0.000000 0.000000 0.046417
#
#
# Mechanical properties :
#
#
# Convention : Reuss Voigt Hill
#
# Bulk Modulus (GPa) = 42.24134 43.51524 42.87829
# Shear Modulus (GPa) = 19.61835 19.91157 19.76496
#
# Velocity S-wave (km/s) = 3.45374 3.47946 3.46662
# Velocity P-wave (km/s) = 6.44888 6.52689 6.48800
#
# Compressibility (1/GPa) = 0.02367349
#
# Stress axis : x y z
#
# Youngs Moduli (GPa) = 58.26687 58.26687 47.53347
#
# Poissons Ratio (x) = 0.35229 0.23288
# Poissons Ratio (y) = 0.35229 0.23288
# Poissons Ratio (z) = 0.28546 0.28546
#
# Static dielectric constant tensor:
#      x y z
#    x 3.084150 0.000000 0.000000 
#    y 0.000000 3.084150 0.000000 
#    z 0.000000 0.000000 3.187110 
# 
# 
# High freq. dielectric constant tensor:
#      x y z
#    x 1.611050 0.000000 0.000000 
#    y 0.000000 1.611050 0.000000 
#    z 0.000000 0.000000 1.646100 
# 
# From -- ./inp_files/3912.got.cif
#   From: 2010.06.25/outbox.cif.g09.slc.cpg/sg190_2_cif.got.tgz:3912.got - 2010.06.28 13:08:06.
