data_PCOD8328115
_publ_section_title
;
Structure prediction by ZEFSAII (Michael W. Deem and Ramdas Pophale) SiO2 
 PCOD8328115
Probable space group: P -6 2 C
;
_chemical_formula_sum "Si O2"
_cell_formula_units_Z 78
_cell_length_a 24.252431
_cell_length_b 24.252431
_cell_length_c 7.843167
_cell_angle_alpha 90.000000
_cell_angle_beta 90.000000
_cell_angle_gamma 120.000000
_cell_volume 3995.145948
_symmetry_space_group_name_H-M "P -6 2 C"
_symmetry_group_IT_number 190
_symmetry_cell_setting 'hexagonal'
loop_
_space_group_symop_operation_xyz
x,y,z
-x+y,-x,1/2-z
-y,x-y,z
x,y,1/2-z
-x+y,-x,z
-y,x-y,1/2-z
x-y,-y,-z
-x,-x+y,-z
y,x,-z
y,x,1/2+z
x-y,-y,1/2+z
-x,-x+y,1/2+z
loop_
_atom_site_type_symbol
_atom_site_label
_atom_site_fract_x
_atom_site_fract_y
_atom_site_fract_z
Si Si1 0.406202 0.150079 0.450598
Si Si2 0.804877 0.733434 0.450456
Si Si3 0.257038 0.605435 0.250000
Si Si4 0.838506 0.374054 0.452435
Si Si5 0.811610 0.069832 0.050060
Si Si6 0.927409 0.517584 0.050774
Si Si7 0.269130 0.399446 0.546951
O O1 0.399960 0.151250 0.250000
O O2 0.337926 0.095135 0.524327
O O3 0.461651 0.135173 0.500672
O O4 0.422016 0.219914 0.518034
O O5 0.805377 0.729174 0.250000
O O6 0.783304 0.783304 0.500000
O O7 0.876332 0.757103 0.521708
O O8 0.278146 0.680270 0.250000
O O9 0.221465 0.576344 0.427599
O O10 0.820268 0.369187 0.250000
O O11 0.892310 0.444408 0.508150
O O12 0.813380 0.076110 0.250000
O O13 0.756780 0.083857 0.981134
O O14 0.797517 0.000000 0.000000
O O15 0.921423 0.520568 0.250000
O O16 0.894271 0.555062 0.966541
O O17 0.000000 0.549344 0.000000
O O18 0.273551 0.402407 0.750000
#
# Coordination Sequence:
#
# PCOD8328115 Si02
#       7
#    12  12   6  12  12  12  12
#     4   8  16  33  56  78 102 141 184 224 271 333
#     4   9  18  33  52  78 109 141 181 226 269 323
#     4  10  26  42  58  90 118 142 198 254 296 346
#     4  10  22  40  61  82 114 157 194 234 298 354
#     4   9  17  30  50  74 105 137 168 213 266 318
#     4  10  21  34  53  80 106 145 185 222 278 340
#     4   8  15  29  51  76 103 132 173 219 266 325
#
# _framework density 19.523693999999999
#
# number of rings (size 3 to 8) (size 9 to 14) (size 15 to 20)
#    0.154    2.769    0.000    2.308    3.231    1.846 
#    1.385    0.000    1.692    0.308    0.000    0.000 
#    0.000    0.000    0.000    0.000    0.000    0.000 
#
# Total GULP energy -966368.595192 kJ/mol
# GULP energy per Si atom -12389.340964 kJ/mol
# Density = 1.947926 g / cm^3
# Si number density = 19.523694 Si / 1000 Ang^3
#
#
#
# Elastic Constant Matrix: (Units=GPa)
#
#
# Indices 1 2 3 4 5 6 
#
# 1 161.3565 100.5518 18.0513 0.0000 0.0000 0.0000
# 2 100.5518 161.3565 18.0513 0.0000 0.0000 0.0000
# 3 18.0513 18.0513 29.2232 0.0000 0.0000 0.0000
# 4 0.0000 0.0000 0.0000 18.8752 0.0000 0.0000
# 5 0.0000 0.0000 0.0000 0.0000 18.8752 0.0000
# 6 0.0000 0.0000 0.0000 0.0000 0.0000 30.4023
#
#
#
# Elastic Compliance Matrix: (Units=1/GPa)
#
#
# Indices 1 2 3 4 5 6 
#
# 1 0.010310 -0.006136 -0.002578 0.000000 0.000000 0.000000
# 2 -0.006136 0.010310 -0.002578 0.000000 0.000000 0.000000
# 3 -0.002578 -0.002578 0.037404 0.000000 0.000000 0.000000
# 4 0.000000 0.000000 0.000000 0.052980 0.000000 0.000000
# 5 0.000000 0.000000 0.000000 0.000000 0.052980 0.000000
# 6 0.000000 0.000000 0.000000 0.000000 0.000000 0.032892
#
#
# Mechanical properties :
#
#
# Convention : Reuss Voigt Hill
#
# Bulk Modulus (GPa) = 28.21724 69.47166 48.84445
# Shear Modulus (GPa) = 21.61945 27.98264 24.80104
#
# Velocity S-wave (km/s) = 3.33129 3.78996 3.56800
# Velocity P-wave (km/s) = 5.41118 7.40353 6.48433
#
# Compressibility (1/GPa) = 0.03543932
#
# Stress axis : x y z
#
# Youngs Moduli (GPa) = 96.99506 96.99506 26.73490
#
# Poissons Ratio (x) = 0.59519 0.06892
# Poissons Ratio (y) = 0.59519 0.06892
# Poissons Ratio (z) = 0.25005 0.25005
#
# Static dielectric constant tensor:
#      x y z
#    x 2.707190 0.000000 0.000000 
#    y 0.000000 2.707190 0.000000 
#    z 0.000000 0.000000 3.231570 
# 
# 
# High freq. dielectric constant tensor:
#      x y z
#    x 1.756700 0.000000 0.000000 
#    y 0.000000 1.756700 0.000000 
#    z 0.000000 0.000000 1.735680 
# 
# From -- ./inp_files/1351.got.cif
#   From: 2010.06.25/outbox.cif.g09.slc.cpg/sg190_1_cif.got.tgz:1351.got - 2010.06.28 13:08:06.
