data_PCOD8328414
_publ_section_title
;
Structure prediction by ZEFSAII (Michael W. Deem and Ramdas Pophale) SiO2 
 PCOD8328414
Probable space group: P 6/M M M
;
_chemical_formula_sum "Si O2"
_cell_formula_units_Z 192
_cell_length_a 24.604191
_cell_length_b 24.604191
_cell_length_c 22.253458
_cell_angle_alpha 90.000000
_cell_angle_beta 90.000000
_cell_angle_gamma 120.000000
_cell_volume 11666.653983
_symmetry_space_group_name_H-M "P 6/M M M"
_symmetry_group_IT_number 191
_symmetry_cell_setting 'hexagonal'
loop_
_space_group_symop_operation_xyz
x,y,z
x-y,x,z
-y,x-y,z
-x,-y,z
-x+y,-x,z
y,-x+y,z
x-y,-y,-z
-x,-x+y,-z
y,x,-z
-y,-x,-z
-x+y,y,-z
x,x-y,-z
-x,-y,-z
-x+y,-x,-z
y,-x+y,-z
x,y,-z
x-y,x,-z
-y,x-y,-z
-x+y,y,z
x,x-y,z
-y,-x,z
y,x,z
x-y,-y,z
-x,-x+y,z
loop_
_atom_site_type_symbol
_atom_site_label
_atom_site_fract_x
_atom_site_fract_y
_atom_site_fract_z
Si Si1 0.074459 0.476802 0.432614
Si Si2 0.152231 0.637297 0.067209
Si Si3 0.927568 0.304659 0.111543
Si Si4 0.257825 0.069216 0.069713
Si Si5 0.264551 0.070677 0.429687
Si Si6 0.268820 0.411345 0.767455
Si Si7 0.301348 0.926685 0.643211
Si Si8 0.546149 0.212994 0.189978
O O1 0.100908 0.481005 0.500000
O O2 0.094511 0.547256 0.409430
O O3 0.100567 0.442313 0.389505
O O4 0.000000 0.435283 0.434643
O O5 0.123220 0.561610 0.073335
O O6 0.100597 0.657451 0.077906
O O7 0.205006 0.671761 0.118147
O O8 0.180827 0.658972 0.000000
O O9 0.910333 0.241030 0.076355
O O10 0.906915 0.285451 0.179822
O O11 0.000000 0.352884 0.111483
O O12 0.245311 0.122656 0.099126
O O13 0.212740 0.000000 0.099358
O O14 0.242309 0.064960 0.000000
O O15 0.278771 0.074462 0.500000
O O16 0.244287 0.122144 0.411327
O O17 0.328965 0.086692 0.397442
O O18 0.208893 0.000000 0.412431
O O19 0.198212 0.396423 0.776738
O O20 0.274684 0.384399 0.704657
O O21 0.317310 0.485473 0.770910
O O22 0.344744 0.000000 0.657103
O O23 0.597913 0.195825 0.210393
O O24 0.570262 0.285131 0.204821
#
# Coordination Sequence:
#
# PCOD8328414 Si02
#       8
#    24  24  24  24  24  24  24  24
#     4   8  14  25  41  62  88 116 145 176 209 246
#     4   9  18  31  45  64  90 115 140 174 218 266
#     4  10  19  31  46  63  84 113 148 180 211 253
#     4   9  17  29  46  67  88 110 139 177 219 263
#     4   9  17  29  46  68  93 121 153 189 228 270
#     4  10  20  32  44  60  85 114 142 177 220 260
#     4  10  18  28  44  65  89 118 149 180 216 262
#     4   9  18  32  48  63  80 107 144 185 225 262
#
# _framework density 16.457160999999999
#
# number of rings (size 3 to 8) (size 9 to 14) (size 15 to 20)
#    0.000    2.750    0.000    2.375    0.000    3.750 
#    0.000    0.625    0.000    3.250    0.000    1.750 
#    0.000    0.000    0.000    0.000    0.000   32.625 
#
# Total GULP energy -2379406.030764 kJ/mol
# GULP energy per Si atom -12392.739744 kJ/mol
# Density = 1.641970 g / cm^3
# Si number density = 16.457161 Si / 1000 Ang^3
#
#
#
# Elastic Constant Matrix: (Units=GPa)
#
#
# Indices 1 2 3 4 5 6 
#
# 1 71.5111 44.5382 10.6288 0.0000 0.0000 0.0000
# 2 44.5382 71.5111 10.6288 0.0000 0.0000 0.0000
# 3 10.6288 10.6288 41.3867 0.0000 0.0000 0.0000
# 4 0.0000 0.0000 0.0000 16.1812 0.0000 0.0000
# 5 0.0000 0.0000 0.0000 0.0000 16.1812 0.0000
# 6 0.0000 0.0000 0.0000 0.0000 0.0000 13.4864
#
#
#
# Elastic Compliance Matrix: (Units=1/GPa)
#
#
# Indices 1 2 3 4 5 6 
#
# 1 0.023058 -0.014016 -0.002322 0.000000 0.000000 0.000000
# 2 -0.014016 0.023058 -0.002322 0.000000 0.000000 0.000000
# 3 -0.002322 -0.002322 0.025355 0.000000 0.000000 0.000000
# 4 0.000000 0.000000 0.000000 0.061800 0.000000 0.000000
# 5 0.000000 0.000000 0.000000 0.000000 0.061800 0.000000
# 6 0.000000 0.000000 0.000000 0.000000 0.000000 0.074149
#
#
# Mechanical properties :
#
#
# Convention : Reuss Voigt Hill
#
# Bulk Modulus (GPa) = 29.28173 35.11116 32.19645
# Shear Modulus (GPa) = 15.72696 17.07729 16.40213
#
# Velocity S-wave (km/s) = 3.09468 3.22480 3.16041
# Velocity P-wave (km/s) = 5.53179 5.93692 5.73793
#
# Compressibility (1/GPa) = 0.03415099
#
# Stress axis : x y z
#
# Youngs Moduli (GPa) = 43.36827 43.36827 39.43974
#
# Poissons Ratio (x) = 0.60785 0.09159
# Poissons Ratio (y) = 0.60785 0.09159
# Poissons Ratio (z) = 0.10071 0.10071
#
# Static dielectric constant tensor:
#      x y z
#    x 3.170340 0.000000 0.000000 
#    y 0.000000 3.170340 0.000000 
#    z 0.000000 0.000000 2.998500 
# 
# 
# High freq. dielectric constant tensor:
#      x y z
#    x 1.624480 0.000000 0.000000 
#    y 0.000000 1.624480 0.000000 
#    z 0.000000 0.000000 1.621390 
# 
# From -- ./inp_files/8117.got.cif
#   From: 2010.03.12/outbox.cif.g09.slc.cpg/sg191_5_cif.got.tgz:8117.got - 2010.04.01 12:09:02.
