data_PCOD8328677
_publ_section_title
;
Structure prediction by ZEFSAII (Michael W. Deem and Ramdas Pophale) SiO2 
 PCOD8328677
Probable space group: P 6/M M M
;
_chemical_formula_sum "Si O2"
_cell_formula_units_Z 168
_cell_length_a 17.971126
_cell_length_b 17.971126
_cell_length_c 35.477806
_cell_angle_alpha 90.000000
_cell_angle_beta 90.000000
_cell_angle_gamma 120.000000
_cell_volume 9922.885146
_symmetry_space_group_name_H-M "P 6/M M M"
_symmetry_group_IT_number 191
_symmetry_cell_setting 'hexagonal'
loop_
_space_group_symop_operation_xyz
x,y,z
x-y,x,z
-y,x-y,z
-x,-y,z
-x+y,-x,z
y,-x+y,z
x-y,-y,-z
-x,-x+y,-z
y,x,-z
-y,-x,-z
-x+y,y,-z
x,x-y,-z
-x,-y,-z
-x+y,-x,-z
y,-x+y,-z
x,y,-z
x-y,x,-z
-y,x-y,-z
-x+y,y,z
x,x-y,z
-y,-x,z
y,x,z
x-y,-y,z
-x,-x+y,z
loop_
_atom_site_type_symbol
_atom_site_label
_atom_site_fract_x
_atom_site_fract_y
_atom_site_fract_z
Si Si1 0.635033 0.733460 0.106761
Si Si2 0.905629 0.259913 0.457495
Si Si3 0.100910 0.467527 0.175888
Si Si4 0.496369 0.333504 0.043175
Si Si5 0.100474 0.732849 0.753175
Si Si6 0.503656 0.668573 0.601340
Si Si7 0.533454 0.899920 0.681406
O O1 0.673830 0.836915 0.105499
O O2 0.712083 0.712083 0.112971
O O3 0.564268 0.695721 0.139875
O O4 0.586894 0.689332 0.067996
O O5 0.890764 0.282598 0.500000
O O6 0.838722 0.161279 0.447404
O O7 0.896756 0.323273 0.428707
O O8 0.000000 0.271959 0.453164
O O9 0.143241 0.571621 0.175823
O O10 0.126505 0.436509 0.213495
O O11 0.000000 0.426975 0.174110
O O12 0.524933 0.262467 0.048789
O O13 0.575124 0.424877 0.055972
O O14 0.471176 0.336814 0.000000
O O15 0.163307 0.836694 0.755310
O O16 0.121673 0.700258 0.714924
O O17 0.000000 0.707673 0.755693
O O18 0.472974 0.736487 0.591798
O O19 0.426759 0.573242 0.597239
O O20 0.540647 0.686116 0.643719
O O21 0.433838 0.867675 0.691867
O O22 0.581529 0.000000 0.673114
#
# Coordination Sequence:
#
# PCOD8328677 Si02
#       7
#    24  24  24  24  24  24  24
#     4  10  20  33  49  69  93 122 157 196 236 276
#     4   9  18  32  49  68  89 114 145 182 224 268
#     4   9  17  30  49  71  93 117 145 178 218 266
#     4   9  17  29  46  69  97 127 156 186 223 270
#     4  10  19  31  48  69  93 122 157 195 233 273
#     4  10  19  30  44  64  92 124 156 188 222 260
#     4   9  17  29  46  67  89 115 149 189 231 274
#
# _framework density 16.93056
#
# number of rings (size 3 to 8) (size 9 to 14) (size 15 to 20)
#    0.000    2.571    0.000    2.429    0.000    4.571 
#    0.000    1.429    0.000    8.143    0.000    1.000 
#    0.000    3.429    0.000    8.143    0.000    3.143 
#
# Total GULP energy -2082604.016468 kJ/mol
# GULP energy per Si atom -12396.452479 kJ/mol
# Density = 1.689203 g / cm^3
# Si number density = 16.930560 Si / 1000 Ang^3
#
#
#
# Elastic Constant Matrix: (Units=GPa)
#
#
# Indices 1 2 3 4 5 6 
#
# 1 83.5552 48.5814 41.9175 0.0000 0.0000 0.0000
# 2 48.5814 83.5552 41.9175 0.0000 0.0000 0.0000
# 3 41.9175 41.9175 90.7758 0.0000 0.0000 0.0000
# 4 0.0000 0.0000 0.0000 19.7488 0.0000 0.0000
# 5 0.0000 0.0000 0.0000 0.0000 19.7488 0.0000
# 6 0.0000 0.0000 0.0000 0.0000 0.0000 17.4869
#
#
#
# Elastic Compliance Matrix: (Units=1/GPa)
#
#
# Indices 1 2 3 4 5 6 
#
# 1 0.019648 -0.008944 -0.004943 0.000000 0.000000 0.000000
# 2 -0.008944 0.019648 -0.004943 0.000000 0.000000 0.000000
# 3 -0.004943 -0.004943 0.015581 0.000000 0.000000 0.000000
# 4 0.000000 0.000000 0.000000 0.050636 0.000000 0.000000
# 5 0.000000 0.000000 0.000000 0.000000 0.050636 0.000000
# 6 0.000000 0.000000 0.000000 0.000000 0.000000 0.057186
#
#
# Mechanical properties :
#
#
# Convention : Reuss Voigt Hill
#
# Bulk Modulus (GPa) = 58.07937 58.07985 58.07961
# Shear Modulus (GPa) = 19.47536 19.76154 19.61845
#
# Velocity S-wave (km/s) = 3.39530 3.42015 3.40775
# Velocity P-wave (km/s) = 7.05334 7.06936 7.06136
#
# Compressibility (1/GPa) = 0.01721782
#
# Stress axis : x y z
#
# Youngs Moduli (GPa) = 50.89484 50.89484 64.18095
#
# Poissons Ratio (x) = 0.45523 0.31723
# Poissons Ratio (y) = 0.45523 0.31723
# Poissons Ratio (z) = 0.25156 0.25156
#
# Static dielectric constant tensor:
#      x y z
#    x 3.037910 0.000000 0.000000 
#    y 0.000000 3.037910 0.000000 
#    z 0.000000 0.000000 3.377410 
# 
# 
# High freq. dielectric constant tensor:
#      x y z
#    x 1.632660 0.000000 0.000000 
#    y 0.000000 1.632660 0.000000 
#    z 0.000000 0.000000 1.669800 
# 
# From -- ./inp_files/10746.got.cif
#   From: 2010.03.12/outbox.cif.g09.slc.cpg/sg191_6_cif.got.tgz:10746.got - 2010.04.01 12:09:02.
