data_PCOD8328993
_publ_section_title
;
Structure prediction by ZEFSAII (Michael W. Deem and Ramdas Pophale) SiO2 
 PCOD8328993
Probable space group: P 6/M M M
;
_chemical_formula_sum "Si O2"
_cell_formula_units_Z 120
_cell_length_a 26.058090
_cell_length_b 26.058090
_cell_length_c 12.980735
_cell_angle_alpha 90.000000
_cell_angle_beta 90.000000
_cell_angle_gamma 120.000000
_cell_volume 7633.348229
_symmetry_space_group_name_H-M "P 6/M M M"
_symmetry_group_IT_number 191
_symmetry_cell_setting 'hexagonal'
loop_
_space_group_symop_operation_xyz
x,y,z
x-y,x,z
-y,x-y,z
-x,-y,z
-x+y,-x,z
y,-x+y,z
x-y,-y,-z
-x,-x+y,-z
y,x,-z
-y,-x,-z
-x+y,y,-z
x,x-y,-z
-x,-y,-z
-x+y,-x,-z
y,-x+y,-z
x,y,-z
x-y,x,-z
-y,x-y,-z
-x+y,y,z
x,x-y,z
-y,-x,z
y,x,z
x-y,-y,z
-x,-x+y,z
loop_
_atom_site_type_symbol
_atom_site_label
_atom_site_fract_x
_atom_site_fract_y
_atom_site_fract_z
Si Si1 0.877331 0.754661 0.884515
Si Si2 0.776906 0.000000 0.875648
Si Si3 0.559876 0.881526 0.799838
Si Si4 0.000000 0.338594 0.119048
Si Si5 0.779545 0.445848 0.879608
Si Si6 0.406501 0.930827 0.618451
Si Si7 0.192749 0.385498 0.879890
O O1 0.835989 0.777741 0.832084
O O2 0.842153 0.684306 0.885828
O O3 0.889662 0.779323 0.000000
O O4 0.718569 0.000000 0.830213
O O5 0.775332 0.000000 0.000000
O O6 0.599019 0.944331 0.852701
O O7 0.497621 0.845698 0.857589
O O8 0.545791 0.891883 0.682879
O O9 0.594137 0.845178 0.812070
O O10 0.000000 0.327506 0.000000
O O11 0.730143 0.460286 0.833191
O O12 0.770370 0.385185 0.829251
O O13 0.770431 0.437008 0.000000
O O14 0.389217 0.913679 0.500000
O O15 0.458417 0.916834 0.650671
O O16 0.429656 0.000000 0.636505
O O17 0.205267 0.410533 0.000000
#
# Coordination Sequence:
#
# PCOD8328993 Si02
#       7
#    12  12  24  12  24  24  12
#     4   9  16  26  40  60  89 128 169 200 233 278
#     4   9  16  26  40  59  88 128 168 203 232 276
#     4  12  20  32  50  75  97 127 163 199 250 296
#     4  11  20  28  44  72 106 134 158 192 237 305
#     4  10  20  33  48  66  93 130 167 195 226 280
#     4   9  19  37  57  74  94 124 165 211 257 303
#     4  11  20  30  47  71 106 141 159 186 238 303
#
# _framework density 15.720492999999999
#
# number of rings (size 3 to 8) (size 9 to 14) (size 15 to 20)
#    0.000    1.800    4.000    3.200    0.000    0.800 
#    0.000    0.500    0.000    2.600    0.000    1.400 
#    0.000    0.000    0.000    0.000    0.000    0.000 
#
# Total GULP energy -1486934.479788 kJ/mol
# GULP energy per Si atom -12391.120665 kJ/mol
# Density = 1.568471 g / cm^3
# Si number density = 15.720493 Si / 1000 Ang^3
#
#
#
# Elastic Constant Matrix: (Units=GPa)
#
#
# Indices 1 2 3 4 5 6 
#
# 1 118.5564 50.3030 32.7550 0.0000 0.0000 0.0000
# 2 50.3030 118.5564 32.7550 0.0000 0.0000 0.0000
# 3 32.7550 32.7550 44.0645 0.0000 0.0000 0.0000
# 4 0.0000 0.0000 0.0000 12.6170 0.0000 0.0000
# 5 0.0000 0.0000 0.0000 0.0000 12.6170 0.0000
# 6 0.0000 0.0000 0.0000 0.0000 0.0000 34.1267
#
#
#
# Elastic Compliance Matrix: (Units=1/GPa)
#
#
# Indices 1 2 3 4 5 6 
#
# 1 0.011487 -0.003165 -0.006186 0.000000 0.000000 0.000000
# 2 -0.003165 0.011487 -0.006186 0.000000 0.000000 0.000000
# 3 -0.006186 -0.006186 0.031891 0.000000 0.000000 0.000000
# 4 0.000000 0.000000 0.000000 0.079258 0.000000 0.000000
# 5 0.000000 0.000000 0.000000 0.000000 0.079258 0.000000
# 6 0.000000 0.000000 0.000000 0.000000 0.000000 0.029303
#
#
# Mechanical properties :
#
#
# Convention : Reuss Voigt Hill
#
# Bulk Modulus (GPa) = 42.03375 56.97816 49.50595
# Shear Modulus (GPa) = 17.75018 22.89642 20.32330
#
# Velocity S-wave (km/s) = 3.36387 3.82051 3.59944
# Velocity P-wave (km/s) = 6.47176 7.46893 6.98816
#
# Compressibility (1/GPa) = 0.02379041
#
# Stress axis : x y z
#
# Youngs Moduli (GPa) = 87.05757 87.05757 31.35699
#
# Poissons Ratio (x) = 0.27550 0.19398
# Poissons Ratio (y) = 0.27550 0.19398
# Poissons Ratio (z) = 0.53855 0.53855
#
# Static dielectric constant tensor:
#      x y z
#    x 3.199460 0.000000 0.000000 
#    y 0.000000 3.199460 0.000000 
#    z 0.000000 0.000000 2.619780 
# 
# 
# High freq. dielectric constant tensor:
#      x y z
#    x 1.611210 0.000000 0.000000 
#    y 0.000000 1.611210 0.000000 
#    z 0.000000 0.000000 1.545430 
# 
# From -- ./inp_files/3317.got.cif
#   From: 2010.03.12/outbox.cif.g09.slc.cpg/sg191_2_cif.got.tgz:3317.got - 2010.04.01 12:09:02.
