data_PCOD8328185
_publ_section_title
;
Structure prediction by ZEFSAII (Michael W. Deem and Ramdas Pophale) SiO2 
 PCOD8328185
Probable space group: P -6 2 C
;
_chemical_formula_sum "Si O2"
_cell_formula_units_Z 52
_cell_length_a 11.699985
_cell_length_b 11.699985
_cell_length_c 18.642598
_cell_angle_alpha 90.000000
_cell_angle_beta 90.000000
_cell_angle_gamma 120.000000
_cell_volume 2210.078381
_symmetry_space_group_name_H-M "P -6 2 C"
_symmetry_group_IT_number 190
_symmetry_cell_setting 'hexagonal'
loop_
_space_group_symop_operation_xyz
x,y,z
-x+y,-x,1/2-z
-y,x-y,z
x,y,1/2-z
-x+y,-x,z
-y,x-y,1/2-z
x-y,-y,-z
-x,-x+y,-z
y,x,-z
y,x,1/2+z
x-y,-y,1/2+z
-x,-x+y,1/2+z
loop_
_atom_site_type_symbol
_atom_site_label
_atom_site_fract_x
_atom_site_fract_y
_atom_site_fract_z
Si Si1 0.357536 0.532190 0.250000
Si Si2 0.768645 0.846870 0.430164
Si Si3 0.648707 0.000000 0.500000
Si Si4 0.102684 0.377074 0.672170
Si Si5 0.546151 0.940682 0.853987
Si Si6 0.000000 0.000000 0.835614
O O1 0.215718 0.526872 0.250000
O O2 0.372135 0.460175 0.179630
O O3 0.853283 0.853283 0.500000
O O4 0.663800 0.885758 0.459269
O O5 0.705168 0.703914 0.392035
O O6 0.856059 0.953739 0.368917
O O7 0.536838 0.939881 0.559973
O O8 0.042998 0.311094 0.750000
O O9 0.241535 0.382165 0.666555
O O10 0.129343 0.525768 0.673021
O O11 0.000000 0.000000 0.750000
#
# Coordination Sequence:
#
# PCOD8328185 Si02
#       6
#     6  12   6  12  12   4
#     4  10  26  50  76 114 150 194 250 328 390 462
#     4  12  23  44  69 104 145 192 246 316 381 459
#     4  12  28  44  72 106 154 200 250 324 390 470
#     4  12  25  46  76 108 146 200 260 321 388 472
#     4  12  26  48  74 109 153 201 259 318 394 462
#     4  12  22  41  67 108 148 191 235 306 397 455
#
# _framework density 23.528576000000001
#
# number of rings (size 3 to 8) (size 9 to 14) (size 15 to 20)
#    0.231    0.000    6.923    1.154    4.846    0.000 
#    2.077    0.000    0.000    0.000    0.000    0.000 
#    0.000    0.000    0.000    0.000    0.000    0.000 
#
# Total GULP energy -644483.632553 kJ/mol
# GULP energy per Si atom -12393.916011 kJ/mol
# Density = 2.347502 g / cm^3
# Si number density = 23.528576 Si / 1000 Ang^3
#
#
#
# Elastic Constant Matrix: (Units=GPa)
#
#
# Indices 1 2 3 4 5 6 
#
# 1 89.7168 35.7051 42.2629 0.0000 0.0000 0.0000
# 2 35.7051 89.7168 42.2629 0.0000 0.0000 0.0000
# 3 42.2629 42.2629 216.5745 0.0000 0.0000 0.0000
# 4 0.0000 0.0000 0.0000 35.1954 0.0000 0.0000
# 5 0.0000 0.0000 0.0000 0.0000 35.1954 0.0000
# 6 0.0000 0.0000 0.0000 0.0000 0.0000 27.0059
#
#
#
# Elastic Compliance Matrix: (Units=1/GPa)
#
#
# Indices 1 2 3 4 5 6 
#
# 1 0.013847 -0.004667 -0.001791 0.000000 0.000000 0.000000
# 2 -0.004667 0.013847 -0.001791 0.000000 0.000000 0.000000
# 3 -0.001791 -0.001791 0.005317 0.000000 0.000000 0.000000
# 4 0.000000 0.000000 0.000000 0.028413 0.000000 0.000000
# 5 0.000000 0.000000 0.000000 0.000000 0.028413 0.000000
# 6 0.000000 0.000000 0.000000 0.000000 0.000000 0.037029
#
#
# Mechanical properties :
#
#
# Convention : Reuss Voigt Hill
#
# Bulk Modulus (GPa) = 60.56412 70.71891 65.64152
# Shear Modulus (GPa) = 33.58635 37.86447 35.72541
#
# Velocity S-wave (km/s) = 3.78229 4.01596 3.90087
# Velocity P-wave (km/s) = 6.69857 7.18510 6.94610
#
# Compressibility (1/GPa) = 0.01651143
#
# Stress axis : x y z
#
# Youngs Moduli (GPa) = 72.21538 72.21538 188.09221
#
# Poissons Ratio (x) = 0.33703 0.33697
# Poissons Ratio (y) = 0.33703 0.33697
# Poissons Ratio (z) = 0.12937 0.12937
#
# Static dielectric constant tensor:
#      x y z
#    x 4.076880 0.000000 0.000000 
#    y 0.000000 4.076880 0.000000 
#    z 0.000000 0.000000 4.686710 
# 
# 
# High freq. dielectric constant tensor:
#      x y z
#    x 1.918590 0.000000 0.000000 
#    y 0.000000 1.918590 0.000000 
#    z 0.000000 0.000000 1.956590 
# 
# From -- ./inp_files/4251.got.cif
#   From: 2010.06.25/outbox.cif.g09.slc.cpg/sg190_3_cif.got.tgz:4251.got - 2010.06.28 13:08:06.
