data_PCOD8328970
_publ_section_title
;
Structure prediction by ZEFSAII (Michael W. Deem and Ramdas Pophale) SiO2 
 PCOD8328970
Probable space group: P 6/M M M
;
_chemical_formula_sum "Si O2"
_cell_formula_units_Z 132
_cell_length_a 17.340945
_cell_length_b 17.340945
_cell_length_c 29.444576
_cell_angle_alpha 90.000000
_cell_angle_beta 90.000000
_cell_angle_gamma 120.000000
_cell_volume 7667.988593
_symmetry_space_group_name_H-M "P 6/M M M"
_symmetry_group_IT_number 191
_symmetry_cell_setting 'hexagonal'
loop_
_space_group_symop_operation_xyz
x,y,z
x-y,x,z
-y,x-y,z
-x,-y,z
-x+y,-x,z
y,-x+y,z
x-y,-y,-z
-x,-x+y,-z
y,x,-z
-y,-x,-z
-x+y,y,-z
x,x-y,-z
-x,-y,-z
-x+y,-x,-z
y,-x+y,-z
x,y,-z
x-y,x,-z
-y,x-y,-z
-x+y,y,z
x,x-y,z
-y,-x,z
y,x,z
x-y,-y,z
-x,-x+y,z
loop_
_atom_site_type_symbol
_atom_site_label
_atom_site_fract_x
_atom_site_fract_y
_atom_site_fract_z
Si Si1 0.332663 0.843487 0.948842
Si Si2 0.714376 0.105196 0.596347
Si Si3 0.902466 0.269120 0.700176
Si Si4 0.841983 0.332334 0.217982
Si Si5 0.552487 0.104974 0.449146
Si Si6 0.267707 0.363992 0.867368
O O1 0.427523 0.855045 0.938065
O O2 0.259835 0.740165 0.941914
O O3 0.316613 0.903489 0.913546
O O4 0.328718 0.875103 0.000000
O O5 0.818684 0.181317 0.582850
O O6 0.703286 0.110537 0.650032
O O7 0.647434 0.135293 0.574943
O O8 0.684118 0.000000 0.582993
O O9 0.833860 0.166141 0.710908
O O10 0.889813 0.332121 0.735422
O O11 0.000000 0.281170 0.705654
O O12 0.858943 0.429472 0.209992
O O13 0.737135 0.262866 0.221366
O O14 0.884152 0.311022 0.175411
O O15 0.572499 0.144998 0.500000
O O16 0.500000 0.000000 0.450511
O O17 0.163295 0.326590 0.870278
O O18 0.278205 0.278205 0.861553
#
# Coordination Sequence:
#
# PCOD8328970 Si02
#       6
#    24  24  24  24  12  24
#     4   9  17  29  46  68  95 127 159 188 219 260
#     4   9  18  33  52  74 101 134 171 210 254 302
#     4   9  18  31  48  70  95 126 162 200 242 286
#     4  10  20  32  47  69  97 128 158 189 226 270
#     4   9  18  32  50  72 100 132 166 206 247 291
#     4  10  21  35  49  67  91 118 150 189 235 281
#
# _framework density 17.214423
#
# number of rings (size 3 to 8) (size 9 to 14) (size 15 to 20)
#    0.000    2.636    0.000    1.455    1.273    4.000 
#    0.545    2.727    0.000    0.545    0.000    2.545 
#    0.000    4.364    0.000    9.273    0.000    4.727 
#
# Total GULP energy -1635681.269141 kJ/mol
# GULP energy per Si atom -12391.524766 kJ/mol
# Density = 1.717524 g / cm^3
# Si number density = 17.214423 Si / 1000 Ang^3
#
#
#
# Elastic Constant Matrix: (Units=GPa)
#
#
# Indices 1 2 3 4 5 6 
#
# 1 82.9449 62.7143 34.7914 0.0000 0.0000 0.0000
# 2 62.7143 82.9449 34.7914 0.0000 0.0000 0.0000
# 3 34.7914 34.7914 84.5417 0.0000 0.0000 0.0000
# 4 0.0000 0.0000 0.0000 15.1754 0.0000 0.0000
# 5 0.0000 0.0000 0.0000 0.0000 15.1754 0.0000
# 6 0.0000 0.0000 0.0000 0.0000 0.0000 10.1153
#
#
#
# Elastic Compliance Matrix: (Units=1/GPa)
#
#
# Indices 1 2 3 4 5 6 
#
# 1 0.028988 -0.020442 -0.003517 0.000000 0.000000 0.000000
# 2 -0.020442 0.028988 -0.003517 0.000000 0.000000 0.000000
# 3 -0.003517 -0.003517 0.014723 0.000000 0.000000 0.000000
# 4 0.000000 0.000000 0.000000 0.065896 0.000000 0.000000
# 5 0.000000 0.000000 0.000000 0.000000 0.065896 0.000000
# 6 0.000000 0.000000 0.000000 0.000000 0.000000 0.098860
#
#
# Mechanical properties :
#
#
# Convention : Reuss Voigt Hill
#
# Bulk Modulus (GPa) = 56.34789 57.22507 56.78648
# Shear Modulus (GPa) = 13.72804 15.96885 14.84844
#
# Velocity S-wave (km/s) = 2.82702 3.04903 2.94012
# Velocity P-wave (km/s) = 6.59243 6.76093 6.67721
#
# Compressibility (1/GPa) = 0.01774689
#
# Stress axis : x y z
#
# Youngs Moduli (GPa) = 34.49732 34.49732 67.92157
#
# Poissons Ratio (x) = 0.70521 0.23885
# Poissons Ratio (y) = 0.70521 0.23885
# Poissons Ratio (z) = 0.12131 0.12131
#
# Static dielectric constant tensor:
#      x y z
#    x 3.253900 0.000000 0.000000 
#    y 0.000000 3.253900 0.000000 
#    z 0.000000 0.000000 3.475280 
# 
# 
# High freq. dielectric constant tensor:
#      x y z
#    x 1.647750 0.000000 0.000000 
#    y 0.000000 1.647750 0.000000 
#    z 0.000000 0.000000 1.679790 
# 
# From -- ./inp_files/9788.got.cif
#   From: 2010.03.12/outbox.cif.g09.slc.cpg/sg191_5_cif.got.tgz:9788.got - 2010.04.01 12:09:02.
