data_PCOD8328399
_publ_section_title
;
Structure prediction by ZEFSAII (Michael W. Deem and Ramdas Pophale) SiO2 
 PCOD8328399
Probable space group: P 6/M M M
;
_chemical_formula_sum "Si O2"
_cell_formula_units_Z 192
_cell_length_a 22.411956
_cell_length_b 22.411956
_cell_length_c 30.487126
_cell_angle_alpha 90.000000
_cell_angle_beta 90.000000
_cell_angle_gamma 120.000000
_cell_volume 13261.927204
_symmetry_space_group_name_H-M "P 6/M M M"
_symmetry_group_IT_number 191
_symmetry_cell_setting 'hexagonal'
loop_
_space_group_symop_operation_xyz
x,y,z
x-y,x,z
-y,x-y,z
-x,-y,z
-x+y,-x,z
y,-x+y,z
x-y,-y,-z
-x,-x+y,-z
y,x,-z
-y,-x,-z
-x+y,y,-z
x,x-y,-z
-x,-y,-z
-x+y,-x,-z
y,-x+y,-z
x,y,-z
x-y,x,-z
-y,x-y,-z
-x+y,y,z
x,x-y,z
-y,-x,z
y,x,z
x-y,-y,z
-x,-x+y,z
loop_
_atom_site_type_symbol
_atom_site_label
_atom_site_fract_x
_atom_site_fract_y
_atom_site_fract_z
Si Si1 0.147044 0.711644 0.951491
Si Si2 0.287636 0.851339 0.211659
Si Si3 0.608973 0.532975 0.386448
Si Si4 0.529255 0.920577 0.287911
Si Si5 0.208833 0.285609 0.818895
Si Si6 0.333832 0.525571 0.871311
Si Si7 0.528134 0.195202 0.449465
Si Si8 0.923471 0.210442 0.921962
O O1 0.217977 0.782024 0.947515
O O2 0.147711 0.660028 0.915036
O O3 0.087044 0.730087 0.943689
O O4 0.137739 0.678540 0.000000
O O5 0.224428 0.775573 0.218698
O O6 0.331529 0.871225 0.255536
O O7 0.262257 0.905911 0.204359
O O8 0.332356 0.851653 0.170269
O O9 0.537311 0.462690 0.387415
O O10 0.594848 0.594848 0.400126
O O11 0.639332 0.545710 0.337227
O O12 0.661796 0.529173 0.420420
O O13 0.450451 0.900901 0.284383
O O14 0.579147 0.000000 0.274986
O O15 0.130425 0.260850 0.804092
O O16 0.226650 0.226650 0.805443
O O17 0.216524 0.300156 0.870346
O O18 0.266785 0.533570 0.872858
O O19 0.399570 0.600431 0.868120
O O20 0.507857 0.175714 0.500000
O O21 0.604265 0.208531 0.439903
O O22 0.527471 0.263736 0.436032
O O23 0.866332 0.133669 0.938347
O O24 0.000000 0.225283 0.934588
#
# Coordination Sequence:
#
# PCOD8328399 Si02
#       8
#    24  24  24  24  24  24  24  24
#     4   9  17  30  46  62  81 105 132 162 195 229
#     4  10  18  28  43  62  83 107 135 165 197 236
#     4   8  15  27  40  54  74 101 133 168 205 243
#     4   9  17  29  43  58  78 104 134 170 208 242
#     4   9  16  27  44  64  84 104 128 158 188 220
#     4  10  19  31  45  62  83 106 133 166 202 239
#     4   9  16  25  38  56  78 103 131 165 205 247
#     4   9  16  28  46  66  86 107 131 158 188 223
#
# _framework density 14.477534
#
# number of rings (size 3 to 8) (size 9 to 14) (size 15 to 20)
#    0.000    2.875    1.250    1.750    0.000    1.750 
#    0.000    1.250    0.000    2.375    0.000    2.625 
#    0.000    0.000    0.000    3.125    0.000    3.250 
#
# Total GULP energy -2380003.567400 kJ/mol
# GULP energy per Si atom -12395.851914 kJ/mol
# Density = 1.444458 g / cm^3
# Si number density = 14.477534 Si / 1000 Ang^3
#
#
#
# Elastic Constant Matrix: (Units=GPa)
#
#
# Indices 1 2 3 4 5 6 
#
# 1 68.9654 38.7967 43.6906 0.0000 0.0000 0.0000
# 2 38.7967 68.9654 43.6906 0.0000 0.0000 0.0000
# 3 43.6906 43.6906 85.1247 0.0000 0.0000 0.0000
# 4 0.0000 0.0000 0.0000 18.3876 0.0000 0.0000
# 5 0.0000 0.0000 0.0000 0.0000 18.3876 0.0000
# 6 0.0000 0.0000 0.0000 0.0000 0.0000 15.0844
#
#
#
# Elastic Compliance Matrix: (Units=1/GPa)
#
#
# Indices 1 2 3 4 5 6 
#
# 1 0.024521 -0.008626 -0.008158 0.000000 0.000000 0.000000
# 2 -0.008626 0.024521 -0.008158 0.000000 0.000000 0.000000
# 3 -0.008158 -0.008158 0.020122 0.000000 0.000000 0.000000
# 4 0.000000 0.000000 0.000000 0.054384 0.000000 0.000000
# 5 0.000000 0.000000 0.000000 0.000000 0.054384 0.000000
# 6 0.000000 0.000000 0.000000 0.000000 0.000000 0.066294
#
#
# Mechanical properties :
#
#
# Convention : Reuss Voigt Hill
#
# Bulk Modulus (GPa) = 51.86951 52.82348 52.34650
# Shear Modulus (GPa) = 16.63689 16.83044 16.73366
#
# Velocity S-wave (km/s) = 3.39359 3.41328 3.40345
# Velocity P-wave (km/s) = 7.15965 7.21801 7.18889
#
# Compressibility (1/GPa) = 0.01927915
#
# Stress axis : x y z
#
# Youngs Moduli (GPa) = 40.78159 40.78159 49.69729
#
# Poissons Ratio (x) = 0.35178 0.40544
# Poissons Ratio (y) = 0.35178 0.40544
# Poissons Ratio (z) = 0.33270 0.33270
#
# Static dielectric constant tensor:
#      x y z
#    x 2.750870 0.000000 0.000000 
#    y 0.000000 2.750870 0.000000 
#    z 0.000000 0.000000 2.842920 
# 
# 
# High freq. dielectric constant tensor:
#      x y z
#    x 1.534980 0.000000 0.000000 
#    y 0.000000 1.534980 0.000000 
#    z 0.000000 0.000000 1.548320 
# 
# From -- ./inp_files/10160.got.cif
#   From: 2010.03.12/outbox.cif.g09.slc.cpg/sg191_6_cif.got.tgz:10160.got - 2010.04.01 12:09:02.
