data_PCOD8328330
_publ_section_title
;
Structure prediction by ZEFSAII (Michael W. Deem and Ramdas Pophale) SiO2 
 PCOD8328330
Probable space group: P 6/M M M
;
_chemical_formula_sum "Si O2"
_cell_formula_units_Z 132
_cell_length_a 18.562174
_cell_length_b 18.562174
_cell_length_c 28.065987
_cell_angle_alpha 90.000000
_cell_angle_beta 90.000000
_cell_angle_gamma 120.000000
_cell_volume 8374.687882
_symmetry_space_group_name_H-M "P 6/M M M"
_symmetry_group_IT_number 191
_symmetry_cell_setting 'hexagonal'
loop_
_space_group_symop_operation_xyz
x,y,z
x-y,x,z
-y,x-y,z
-x,-y,z
-x+y,-x,z
y,-x+y,z
x-y,-y,-z
-x,-x+y,-z
y,x,-z
-y,-x,-z
-x+y,y,-z
x,x-y,-z
-x,-y,-z
-x+y,-x,-z
y,-x+y,-z
x,y,-z
x-y,x,-z
-y,x-y,-z
-x+y,y,z
x,x-y,z
-y,-x,z
y,x,z
x-y,-y,z
-x,-x+y,z
loop_
_atom_site_type_symbol
_atom_site_label
_atom_site_fract_x
_atom_site_fract_y
_atom_site_fract_z
Si Si1 0.906877 0.651736 0.555056
Si Si2 0.907307 0.368111 0.280146
Si Si3 0.097369 0.629895 0.913561
Si Si4 0.169010 0.668565 0.378650
Si Si5 0.901193 0.636731 0.000000
Si Si6 0.829760 0.498561 0.184271
O O1 0.897727 0.625663 0.500000
O O2 0.840652 0.681303 0.568769
O O3 0.889834 0.571158 0.584849
O O4 0.000000 0.726891 0.566144
O O5 0.906690 0.453345 0.276227
O O6 0.852169 0.316693 0.325048
O O7 0.871833 0.316606 0.231031
O O8 0.000000 0.384657 0.287810
O O9 0.132970 0.566485 0.923955
O O10 0.120789 0.696842 0.955013
O O11 0.132852 0.681593 0.864635
O O12 0.000000 0.574934 0.907949
O O13 0.152539 0.576270 0.386582
O O14 0.265364 0.734637 0.388460
O O15 0.836556 0.673112 0.000000
O O16 0.000000 0.710326 0.000000
O O17 0.731765 0.463529 0.186067
O O18 0.848279 0.424140 0.184735
#
# Coordination Sequence:
#
# PCOD8328330 Si02
#       6
#    24  24  24  24  12  24
#     4   9  18  32  49  68  89 114 144 178 217 260
#     4   9  17  28  41  56  75 103 141 183 221 255
#     4   9  17  29  45  63  83 109 140 173 208 249
#     4  10  19  30  44  63  88 117 149 184 221 259
#     4  10  19  31  47  66  87 111 142 178 217 261
#     4  10  18  27  39  56  80 108 138 171 209 252
#
# _framework density 15.761780999999999
#
# number of rings (size 3 to 8) (size 9 to 14) (size 15 to 20)
#    0.000    2.545    0.000    2.818    0.000    4.727 
#    0.000    2.727    0.000    3.909    0.000    1.273 
#    0.000    0.000    0.000    0.000    0.000    0.000 
#
# Total GULP energy -1636067.356431 kJ/mol
# GULP energy per Si atom -12394.449670 kJ/mol
# Density = 1.572591 g / cm^3
# Si number density = 15.761781 Si / 1000 Ang^3
#
#
#
# Elastic Constant Matrix: (Units=GPa)
#
#
# Indices 1 2 3 4 5 6 
#
# 1 66.5216 40.0206 39.9681 0.0000 0.0000 0.0000
# 2 40.0206 66.5216 39.9681 0.0000 0.0000 0.0000
# 3 39.9681 39.9681 98.5900 0.0000 0.0000 0.0000
# 4 0.0000 0.0000 0.0000 16.5951 0.0000 0.0000
# 5 0.0000 0.0000 0.0000 0.0000 16.5951 0.0000
# 6 0.0000 0.0000 0.0000 0.0000 0.0000 13.2505
#
#
#
# Elastic Compliance Matrix: (Units=1/GPa)
#
#
# Indices 1 2 3 4 5 6 
#
# 1 0.025612 -0.012123 -0.005468 0.000000 0.000000 0.000000
# 2 -0.012123 0.025612 -0.005468 0.000000 0.000000 0.000000
# 3 -0.005468 -0.005468 0.014577 0.000000 0.000000 0.000000
# 4 0.000000 0.000000 0.000000 0.060259 0.000000 0.000000
# 5 0.000000 0.000000 0.000000 0.000000 0.060259 0.000000
# 6 0.000000 0.000000 0.000000 0.000000 0.000000 0.075469
#
#
# Mechanical properties :
#
#
# Convention : Reuss Voigt Hill
#
# Bulk Modulus (GPa) = 50.81060 52.39407 51.60233
# Shear Modulus (GPa) = 15.90003 16.73325 16.31664
#
# Velocity S-wave (km/s) = 3.17956 3.26181 3.22095
# Velocity P-wave (km/s) = 6.76654 6.89197 6.82954
#
# Compressibility (1/GPa) = 0.01968093
#
# Stress axis : x y z
#
# Youngs Moduli (GPa) = 39.04493 39.04493 68.60281
#
# Poissons Ratio (x) = 0.47334 0.37514
# Poissons Ratio (y) = 0.47334 0.37514
# Poissons Ratio (z) = 0.21351 0.21351
#
# Static dielectric constant tensor:
#      x y z
#    x 2.858540 0.000000 0.000000 
#    y 0.000000 2.858540 0.000000 
#    z 0.000000 0.000000 3.325320 
# 
# 
# High freq. dielectric constant tensor:
#      x y z
#    x 1.579700 0.000000 0.000000 
#    y 0.000000 1.579700 0.000000 
#    z 0.000000 0.000000 1.624650 
# 
# From -- ./inp_files/9745.got.cif
#   From: 2010.03.12/outbox.cif.g09.slc.cpg/sg191_5_cif.got.tgz:9745.got - 2010.04.01 12:09:02.
