data_PCOD8328173
_publ_section_title
;
Structure prediction by ZEFSAII (Michael W. Deem and Ramdas Pophale) SiO2 
 PCOD8328173
Probable space group: P -6 2 C
;
_chemical_formula_sum "Si O2"
_cell_formula_units_Z 30
_cell_length_a 7.920917
_cell_length_b 7.920917
_cell_length_c 25.993129
_cell_angle_alpha 90.000000
_cell_angle_beta 90.000000
_cell_angle_gamma 120.000000
_cell_volume 1412.342795
_symmetry_space_group_name_H-M "P -6 2 C"
_symmetry_group_IT_number 190
_symmetry_cell_setting 'hexagonal'
loop_
_space_group_symop_operation_xyz
x,y,z
-x+y,-x,1/2-z
-y,x-y,z
x,y,1/2-z
-x+y,-x,z
-y,x-y,1/2-z
x-y,-y,-z
-x,-x+y,-z
y,x,-z
y,x,1/2+z
x-y,-y,1/2+z
-x,-x+y,1/2+z
loop_
_atom_site_type_symbol
_atom_site_label
_atom_site_fract_x
_atom_site_fract_y
_atom_site_fract_z
Si Si1 0.783227 0.784351 0.350353
Si Si2 0.331706 0.882051 0.250000
Si Si3 0.451045 0.116613 0.449939
O O1 0.668020 0.667021 0.299979
O O2 0.661950 0.666176 0.400063
O O3 0.999024 0.807425 0.350556
O O4 0.524246 0.860034 0.250000
O O5 0.667610 0.141627 0.449859
O O6 0.331672 0.000000 0.500000
#
# Coordination Sequence:
#
# PCOD8328173 Si02
#       3
#    12   6  12
#     4  10  24  41  67  90 131 162 211 259 322 372
#     4  10  24  38  68  88 124 158 206 248 314 376
#     4  10  26  40  64  93 128 169 218 264 323 380
#
# _framework density 21.241301
#
# number of rings (size 3 to 8) (size 9 to 14) (size 15 to 20)
#    2.000    0.000    0.000    1.200   11.200    0.000 
#    0.000    0.000    0.000    0.000    0.000    0.000 
#    0.000    0.000    0.000    0.000    0.000    0.000 
#
# Total GULP energy -371720.449978 kJ/mol
# GULP energy per Si atom -12390.681666 kJ/mol
# Density = 2.119295 g / cm^3
# Si number density = 21.241301 Si / 1000 Ang^3
#
#
#
# Elastic Constant Matrix: (Units=GPa)
#
#
# Indices 1 2 3 4 5 6 
#
# 1 67.2921 27.7447 57.9625 0.0000 0.0000 0.0000
# 2 27.7447 67.2921 57.9625 0.0000 0.0000 0.0000
# 3 57.9625 57.9625 237.9909 0.0000 0.0000 0.0000
# 4 0.0000 0.0000 0.0000 41.9492 0.0000 0.0000
# 5 0.0000 0.0000 0.0000 0.0000 41.9492 0.0000
# 6 0.0000 0.0000 0.0000 0.0000 0.0000 19.7737
#
#
#
# Elastic Compliance Matrix: (Units=1/GPa)
#
#
# Indices 1 2 3 4 5 6 
#
# 1 0.020128 -0.005158 -0.003646 0.000000 0.000000 0.000000
# 2 -0.005158 0.020128 -0.003646 0.000000 0.000000 0.000000
# 3 -0.003646 -0.003646 0.005978 0.000000 0.000000 0.000000
# 4 0.000000 0.000000 0.000000 0.023838 0.000000 0.000000
# 5 0.000000 0.000000 0.000000 0.000000 0.023838 0.000000
# 6 0.000000 0.000000 0.000000 0.000000 0.000000 0.050572
#
#
# Mechanical properties :
#
#
# Convention : Reuss Voigt Hill
#
# Bulk Modulus (GPa) = 46.87518 73.32386 60.09952
# Shear Modulus (GPa) = 28.32970 35.99475 32.16223
#
# Velocity S-wave (km/s) = 3.65596 4.12097 3.89541
# Velocity P-wave (km/s) = 6.31959 7.56556 6.97047
#
# Compressibility (1/GPa) = 0.02133325
#
# Stress axis : x y z
#
# Youngs Moduli (GPa) = 49.68268 49.68268 167.28869
#
# Poissons Ratio (x) = 0.25628 0.60990
# Poissons Ratio (y) = 0.25628 0.60990
# Poissons Ratio (z) = 0.18113 0.18113
#
# Static dielectric constant tensor:
#      x y z
#    x 3.484500 0.000000 0.000000 
#    y 0.000000 3.484500 0.000000 
#    z 0.000000 0.000000 3.694080 
# 
# 
# High freq. dielectric constant tensor:
#      x y z
#    x 1.809750 0.000000 0.000000 
#    y 0.000000 1.809750 0.000000 
#    z 0.000000 0.000000 1.843600 
# 
# From -- ./inp_files/4482.got.cif
#   From: 2010.06.25/outbox.cif.g09.slc.cpg/sg190_3_cif.got.tgz:4482.got - 2010.06.28 13:08:06.
