data_PCOD8328766
_publ_section_title
;
Structure prediction by ZEFSAII (Michael W. Deem and Ramdas Pophale) SiO2 
 PCOD8328766
Probable space group: P 6/M M M
;
_chemical_formula_sum "Si O2"
_cell_formula_units_Z 72
_cell_length_a 26.114594
_cell_length_b 26.114594
_cell_length_c 7.535933
_cell_angle_alpha 90.000000
_cell_angle_beta 90.000000
_cell_angle_gamma 120.000000
_cell_volume 4450.760416
_symmetry_space_group_name_H-M "P 6/M M M"
_symmetry_group_IT_number 191
_symmetry_cell_setting 'hexagonal'
loop_
_space_group_symop_operation_xyz
x,y,z
x-y,x,z
-y,x-y,z
-x,-y,z
-x+y,-x,z
y,-x+y,z
x-y,-y,-z
-x,-x+y,-z
y,x,-z
-y,-x,-z
-x+y,y,-z
x,x-y,-z
-x,-y,-z
-x+y,-x,-z
y,-x+y,-z
x,y,-z
x-y,x,-z
-y,x-y,-z
-x+y,y,z
x,x-y,z
-y,-x,z
y,x,z
x-y,-y,z
-x,-x+y,z
loop_
_atom_site_type_symbol
_atom_site_label
_atom_site_fract_x
_atom_site_fract_y
_atom_site_fract_z
Si Si1 0.263003 0.330560 0.798305
Si Si2 0.667160 0.213524 0.000000
Si Si3 0.750582 0.818239 0.500000
Si Si4 0.544999 0.713728 0.701790
O O1 0.314016 0.314016 0.771374
O O2 0.207758 0.290052 0.673505
O O3 0.292928 0.398819 0.745951
O O4 0.239590 0.319971 0.000000
O O5 0.670552 0.179902 0.825674
O O6 0.718493 0.281508 0.000000
O O7 0.605272 0.210543 0.000000
O O8 0.804058 0.804058 0.500000
O O9 0.778044 0.889022 0.500000
O O10 0.524582 0.694975 0.500000
O O11 0.563186 0.781593 0.738030
#
# Coordination Sequence:
#
# PCOD8328766 Si02
#       4
#    24  12  12  24
#     4  10  19  30  48  76 105 133 162 199 245 295
#     4  10  21  36  53  73  97 127 162 203 249 293
#     4  10  20  32  48  73 105 137 169 207 251 293
#     4  10  19  31  50  74  97 126 163 202 244 294
#
# _framework density 16.177012000000001
#
# number of rings (size 3 to 8) (size 9 to 14) (size 15 to 20)
#    0.000    2.000    3.333    1.167    0.000    2.667 
#    0.000    0.000    0.000    4.167    0.000    2.333 
#    0.000    0.000    0.000    8.333    0.000    0.000 
#
# Total GULP energy -892963.244322 kJ/mol
# GULP energy per Si atom -12402.267282 kJ/mol
# Density = 1.614019 g / cm^3
# Si number density = 16.177012 Si / 1000 Ang^3
#
#
#
# Elastic Constant Matrix: (Units=GPa)
#
#
# Indices 1 2 3 4 5 6 
#
# 1 106.6515 57.7334 50.1707 0.0000 0.0000 0.0000
# 2 57.7334 106.6515 50.1707 0.0000 0.0000 0.0000
# 3 50.1707 50.1707 139.4254 0.0000 0.0000 0.0000
# 4 0.0000 0.0000 0.0000 19.6221 0.0000 0.0000
# 5 0.0000 0.0000 0.0000 0.0000 19.6221 0.0000
# 6 0.0000 0.0000 0.0000 0.0000 0.0000 24.4590
#
#
#
# Elastic Compliance Matrix: (Units=1/GPa)
#
#
# Indices 1 2 3 4 5 6 
#
# 1 0.014119 -0.006323 -0.002805 0.000000 0.000000 0.000000
# 2 -0.006323 0.014119 -0.002805 0.000000 0.000000 0.000000
# 3 -0.002805 -0.002805 0.009191 0.000000 0.000000 0.000000
# 4 0.000000 0.000000 0.000000 0.050963 0.000000 0.000000
# 5 0.000000 0.000000 0.000000 0.000000 0.050963 0.000000
# 6 0.000000 0.000000 0.000000 0.000000 0.000000 0.040885
#
#
# Mechanical properties :
#
#
# Convention : Reuss Voigt Hill
#
# Bulk Modulus (GPa) = 73.73743 74.31976 74.02859
# Shear Modulus (GPa) = 23.96614 25.71754 24.84184
#
# Velocity S-wave (km/s) = 3.85319 3.99150 3.92296
# Velocity P-wave (km/s) = 8.09177 8.20269 8.14742
#
# Compressibility (1/GPa) = 0.01356163
#
# Stress axis : x y z
#
# Youngs Moduli (GPa) = 70.82679 70.82679 108.80090
#
# Poissons Ratio (x) = 0.44787 0.30520
# Poissons Ratio (y) = 0.44787 0.30520
# Poissons Ratio (z) = 0.19868 0.19868
#
# Static dielectric constant tensor:
#      x y z
#    x 2.878560 0.000000 0.000000 
#    y 0.000000 2.878560 0.000000 
#    z 0.000000 0.000000 3.468910 
# 
# 
# High freq. dielectric constant tensor:
#      x y z
#    x 1.602630 0.000000 0.000000 
#    y 0.000000 1.602630 0.000000 
#    z 0.000000 0.000000 1.647950 
# 
# From -- ./inp_files/949.got.cif
#   From: 2010.03.12/outbox.cif.g09.slc.cpg/sg191_1_cif.got.tgz:949.got - 2010.04.01 12:09:02.
