data_PCOD8328545
_publ_section_title
;
Structure prediction by ZEFSAII (Michael W. Deem and Ramdas Pophale) SiO2 
 PCOD8328545
Probable space group: P 6/M M M
;
_chemical_formula_sum "Si O2"
_cell_formula_units_Z 72
_cell_length_a 17.539973
_cell_length_b 17.539973
_cell_length_c 14.774519
_cell_angle_alpha 90.000000
_cell_angle_beta 90.000000
_cell_angle_gamma 120.000000
_cell_volume 3936.423570
_symmetry_space_group_name_H-M "P 6/M M M"
_symmetry_group_IT_number 191
_symmetry_cell_setting 'hexagonal'
loop_
_space_group_symop_operation_xyz
x,y,z
x-y,x,z
-y,x-y,z
-x,-y,z
-x+y,-x,z
y,-x+y,z
x-y,-y,-z
-x,-x+y,-z
y,x,-z
-y,-x,-z
-x+y,y,-z
x,x-y,-z
-x,-y,-z
-x+y,-x,-z
y,-x+y,-z
x,y,-z
x-y,x,-z
-y,x-y,-z
-x+y,y,z
x,x-y,z
-y,-x,z
y,x,z
x-y,-y,z
-x,-x+y,z
loop_
_atom_site_type_symbol
_atom_site_label
_atom_site_fract_x
_atom_site_fract_y
_atom_site_fract_z
Si Si1 0.509635 0.841622 0.500000
Si Si2 0.100571 0.465396 0.307742
Si Si3 0.792797 0.896399 0.395552
Si Si4 0.822112 0.644223 0.244617
Si Si5 0.101602 0.898399 0.893889
O O1 0.427153 0.854306 0.500000
O O2 0.479009 0.739504 0.500000
O O3 0.563288 0.887791 0.590898
O O4 0.145045 0.572523 0.297478
O O5 0.139637 0.422281 0.240237
O O6 0.000000 0.423970 0.283646
O O7 0.851633 0.851633 0.374252
O O8 0.761031 0.880516 0.500000
O O9 0.706652 0.853326 0.332825
O O10 0.851453 0.702906 0.154948
O O11 0.000000 0.852408 0.864121
O O12 0.110995 0.889006 0.000000
#
# Coordination Sequence:
#
# PCOD8328545 Si02
#       5
#    12  24  12  12  12
#     4  10  18  31  47  70  97 137 182 227 272 321
#     4  10  21  35  50  71 103 140 180 227 281 331
#     4  10  21  34  50  74 110 152 190 227 270 329
#     4  12  22  36  55  82 106 144 189 234 276 330
#     4  10  21  38  62  92 124 154 184 223 272 329
#
# _framework density 18.290713
#
# number of rings (size 3 to 8) (size 9 to 14) (size 15 to 20)
#    0.000    1.667    1.667    4.000    2.333    3.333 
#    1.000    1.667    0.000    1.000    0.000    4.667 
#    0.000    0.000    0.000    0.000    0.000    0.000 
#
# Total GULP energy -892500.826885 kJ/mol
# GULP energy per Si atom -12395.844818 kJ/mol
# Density = 1.824908 g / cm^3
# Si number density = 18.290713 Si / 1000 Ang^3
#
#
#
# Elastic Constant Matrix: (Units=GPa)
#
#
# Indices 1 2 3 4 5 6 
#
# 1 94.3086 28.8392 33.7882 0.0000 0.0000 0.0000
# 2 28.8392 94.3086 33.7882 0.0000 0.0000 0.0000
# 3 33.7882 33.7882 53.3155 0.0000 0.0000 0.0000
# 4 0.0000 0.0000 0.0000 24.9461 0.0000 0.0000
# 5 0.0000 0.0000 0.0000 0.0000 24.9461 0.0000
# 6 0.0000 0.0000 0.0000 0.0000 0.0000 32.7347
#
#
#
# Elastic Compliance Matrix: (Units=1/GPa)
#
#
# Indices 1 2 3 4 5 6 
#
# 1 0.013862 -0.001412 -0.007890 0.000000 0.000000 0.000000
# 2 -0.001412 0.013862 -0.007890 0.000000 0.000000 0.000000
# 3 -0.007890 -0.007890 0.028757 0.000000 0.000000 0.000000
# 4 0.000000 0.000000 0.000000 0.040086 0.000000 0.000000
# 5 0.000000 0.000000 0.000000 0.000000 0.040086 0.000000
# 6 0.000000 0.000000 0.000000 0.000000 0.000000 0.030549
#
#
# Mechanical properties :
#
#
# Convention : Reuss Voigt Hill
#
# Bulk Modulus (GPa) = 45.25605 48.30707 46.78156
# Shear Modulus (GPa) = 23.92890 26.22653 25.07772
#
# Velocity S-wave (km/s) = 3.62090 3.79076 3.70680
# Velocity P-wave (km/s) = 6.50212 6.75484 6.62968
#
# Compressibility (1/GPa) = 0.02209650
#
# Stress axis : x y z
#
# Youngs Moduli (GPa) = 72.13911 72.13911 34.77448
#
# Poissons Ratio (x) = 0.10187 0.27437
# Poissons Ratio (y) = 0.10187 0.27437
# Poissons Ratio (z) = 0.56918 0.56918
#
# Static dielectric constant tensor:
#      x y z
#    x 3.434000 0.000000 0.000000 
#    y 0.000000 3.434000 0.000000 
#    z 0.000000 0.000000 3.179310 
# 
# 
# High freq. dielectric constant tensor:
#      x y z
#    x 1.716920 0.000000 0.000000 
#    y 0.000000 1.716920 0.000000 
#    z 0.000000 0.000000 1.663900 
# 
# From -- ./inp_files/3964.got.cif
#   From: 2010.03.12/outbox.cif.g09.slc.cpg/sg191_2_cif.got.tgz:3964.got - 2010.04.01 12:09:02.
