data_PCOD8328842
_publ_section_title
;
Structure prediction by ZEFSAII (Michael W. Deem and Ramdas Pophale) SiO2 
 PCOD8328842
Probable space group: P 6/M M M
;
_chemical_formula_sum "Si O2"
_cell_formula_units_Z 156
_cell_length_a 22.327522
_cell_length_b 22.327522
_cell_length_c 20.612018
_cell_angle_alpha 90.000000
_cell_angle_beta 90.000000
_cell_angle_gamma 120.000000
_cell_volume 8898.815379
_symmetry_space_group_name_H-M "P 6/M M M"
_symmetry_group_IT_number 191
_symmetry_cell_setting 'hexagonal'
loop_
_space_group_symop_operation_xyz
x,y,z
x-y,x,z
-y,x-y,z
-x,-y,z
-x+y,-x,z
y,-x+y,z
x-y,-y,-z
-x,-x+y,-z
y,x,-z
-y,-x,-z
-x+y,y,-z
x,x-y,-z
-x,-y,-z
-x+y,-x,-z
y,-x+y,-z
x,y,-z
x-y,x,-z
-y,x-y,-z
-x+y,y,z
x,x-y,z
-y,-x,z
y,x,z
x-y,-y,z
-x,-x+y,z
loop_
_atom_site_type_symbol
_atom_site_label
_atom_site_fract_x
_atom_site_fract_y
_atom_site_fract_z
Si Si1 0.196788 0.529948 0.873170
Si Si2 0.333208 0.529693 0.278406
Si Si3 0.921420 0.603505 0.925926
Si Si4 0.288377 0.211500 0.685438
Si Si5 0.608029 0.081764 0.500000
Si Si6 0.661632 0.581282 0.365274
Si Si7 0.712674 0.922534 0.165577
O O1 0.261275 0.522550 0.897080
O O2 0.213640 0.606820 0.889674
O O3 0.183485 0.513952 0.797355
O O4 0.128284 0.477127 0.912125
O O5 0.260099 0.520198 0.302543
O O6 0.392277 0.607724 0.294082
O O7 0.351129 0.476751 0.313311
O O8 0.898825 0.646610 0.879826
O O9 0.000000 0.622843 0.910802
O O10 0.913767 0.620971 0.000000
O O11 0.264434 0.132217 0.668228
O O12 0.223991 0.223991 0.671816
O O13 0.353248 0.261796 0.641198
O O14 0.312303 0.229088 0.760197
O O15 0.556693 0.113386 0.500000
O O16 0.656192 0.106765 0.563462
O O17 0.563194 0.000000 0.500000
O O18 0.604195 0.604195 0.353616
O O19 0.743287 0.871644 0.153440
O O20 0.772929 0.000000 0.148534
#
# Coordination Sequence:
#
# PCOD8328842 Si02
#       7
#    24  24  24  24  12  24  24
#     4  10  21  36  53  71  92 121 156 193 232 277
#     4  10  20  34  51  70  94 123 156 193 233 278
#     4  10  21  35  50  70  96 124 153 189 238 290
#     4   9  17  30  49  73 100 128 160 199 242 285
#     4   9  18  32  47  66  97 132 160 188 230 283
#     4  10  19  31  50  74  97 123 157 198 241 283
#     4   9  17  30  49  72  98 128 161 197 237 283
#
# _framework density 17.530424
#
# number of rings (size 3 to 8) (size 9 to 14) (size 15 to 20)
#    0.000    2.385    0.000    2.615    0.000    8.308 
#    0.000    3.846    0.000    1.231    0.000    3.231 
#    0.000    0.000    0.000    3.846    0.000   13.077 
#
# Total GULP energy -1934528.396014 kJ/mol
# GULP energy per Si atom -12400.823051 kJ/mol
# Density = 1.749052 g / cm^3
# Si number density = 17.530424 Si / 1000 Ang^3
#
#
#
# Elastic Constant Matrix: (Units=GPa)
#
#
# Indices 1 2 3 4 5 6 
#
# 1 104.1936 54.9415 44.7310 0.0000 0.0000 0.0000
# 2 54.9415 104.1936 44.7310 0.0000 0.0000 0.0000
# 3 44.7310 44.7310 56.1195 0.0000 0.0000 0.0000
# 4 0.0000 0.0000 0.0000 15.6582 0.0000 0.0000
# 5 0.0000 0.0000 0.0000 0.0000 15.6582 0.0000
# 6 0.0000 0.0000 0.0000 0.0000 0.0000 24.6260
#
#
#
# Elastic Compliance Matrix: (Units=1/GPa)
#
#
# Indices 1 2 3 4 5 6 
#
# 1 0.015845 -0.004459 -0.009075 0.000000 0.000000 0.000000
# 2 -0.004459 0.015845 -0.009075 0.000000 0.000000 0.000000
# 3 -0.009075 -0.009075 0.032286 0.000000 0.000000 0.000000
# 4 0.000000 0.000000 0.000000 0.063864 0.000000 0.000000
# 5 0.000000 0.000000 0.000000 0.000000 0.063864 0.000000
# 6 0.000000 0.000000 0.000000 0.000000 0.000000 0.040607
#
#
# Mechanical properties :
#
#
# Convention : Reuss Voigt Hill
#
# Bulk Modulus (GPa) = 53.31369 61.47928 57.39648
# Shear Modulus (GPa) = 17.61909 19.19538 18.40724
#
# Velocity S-wave (km/s) = 3.17370 3.31263 3.24391
# Velocity P-wave (km/s) = 6.62631 7.05532 6.84418
#
# Compressibility (1/GPa) = 0.01875691
#
# Stress axis : x y z
#
# Youngs Moduli (GPa) = 63.11217 63.11217 30.97281
#
# Poissons Ratio (x) = 0.28141 0.28109
# Poissons Ratio (y) = 0.28141 0.28109
# Poissons Ratio (z) = 0.57276 0.57276
#
# Static dielectric constant tensor:
#      x y z
#    x 3.256090 0.000000 0.000000 
#    y 0.000000 3.256090 0.000000 
#    z 0.000000 0.000000 3.280690 
# 
# 
# High freq. dielectric constant tensor:
#      x y z
#    x 1.671380 0.000000 0.000000 
#    y 0.000000 1.671380 0.000000 
#    z 0.000000 0.000000 1.669010 
# 
# From -- ./inp_files/7745.got.cif
#   From: 2010.03.12/outbox.cif.g09.slc.cpg/sg191_4_cif.got.tgz:7745.got - 2010.04.01 12:09:02.
