data_PCOD8328481
_publ_section_title
;
Structure prediction by ZEFSAII (Michael W. Deem and Ramdas Pophale) SiO2 
 PCOD8328481
Probable space group: P 6/M M M
;
_chemical_formula_sum "Si O2"
_cell_formula_units_Z 144
_cell_length_a 22.201604
_cell_length_b 22.201604
_cell_length_c 20.304072
_cell_angle_alpha 90.000000
_cell_angle_beta 90.000000
_cell_angle_gamma 120.000000
_cell_volume 8667.273091
_symmetry_space_group_name_H-M "P 6/M M M"
_symmetry_group_IT_number 191
_symmetry_cell_setting 'hexagonal'
loop_
_space_group_symop_operation_xyz
x,y,z
x-y,x,z
-y,x-y,z
-x,-y,z
-x+y,-x,z
y,-x+y,z
x-y,-y,-z
-x,-x+y,-z
y,x,-z
-y,-x,-z
-x+y,y,-z
x,x-y,-z
-x,-y,-z
-x+y,-x,-z
y,-x+y,-z
x,y,-z
x-y,x,-z
-y,x-y,-z
-x+y,y,z
x,x-y,z
-y,-x,z
y,x,z
x-y,-y,z
-x,-x+y,z
loop_
_atom_site_type_symbol
_atom_site_label
_atom_site_fract_x
_atom_site_fract_y
_atom_site_fract_z
Si Si1 0.196421 0.666132 0.877461
Si Si2 0.666429 0.195604 0.278557
Si Si3 0.301695 0.920137 0.689183
Si Si4 0.289754 0.077488 0.424766
Si Si5 0.922785 0.214549 0.193196
Si Si6 0.384556 0.121024 0.926965
O O1 0.189372 0.594686 0.903370
O O2 0.271289 0.728712 0.899978
O O3 0.189265 0.666082 0.799480
O O4 0.133237 0.672543 0.909175
O O5 0.599278 0.198556 0.303613
O O6 0.734979 0.265022 0.302733
O O7 0.663953 0.128188 0.310200
O O8 0.262180 0.907084 0.620044
O O9 0.246105 0.898636 0.748129
O O10 0.362289 0.000000 0.697058
O O11 0.315226 0.084758 0.500000
O O12 0.263192 0.131596 0.408853
O O13 0.225556 0.000000 0.410348
O O14 0.867776 0.132225 0.187744
O O15 0.928117 0.255550 0.125792
O O16 0.000000 0.226519 0.206935
O O17 0.390645 0.195323 0.923194
O O18 0.362535 0.087909 0.000000
#
# Coordination Sequence:
#
# PCOD8328481 Si02
#       6
#    24  24  24  24  24  24
#     4   9  16  26  41  62  88 120 156 194 233 274
#     4  10  18  29  46  68  95 125 159 197 237 281
#     4  10  19  31  50  73  96 123 155 194 235 273
#     4   9  17  29  47  72 100 128 157 190 230 276
#     4  10  19  32  50  71  92 116 148 185 225 269
#     4   9  17  29  44  62  86 117 151 186 226 270
#
# _framework density 16.614221000000001
#
# number of rings (size 3 to 8) (size 9 to 14) (size 15 to 20)
#    0.000    2.500    1.667    1.833    0.000    2.333 
#    0.000    0.000    0.000    2.333    0.000    4.667 
#    0.000    5.333    0.000    4.333    0.000    0.000 
#
# Total GULP energy -1785306.833550 kJ/mol
# GULP energy per Si atom -12397.964122 kJ/mol
# Density = 1.657641 g / cm^3
# Si number density = 16.614221 Si / 1000 Ang^3
#
#
#
# Elastic Constant Matrix: (Units=GPa)
#
#
# Indices 1 2 3 4 5 6 
#
# 1 94.0889 52.7005 27.6202 0.0000 0.0000 0.0000
# 2 52.7005 94.0889 27.6202 0.0000 0.0000 0.0000
# 3 27.6202 27.6202 65.7272 0.0000 0.0000 0.0000
# 4 0.0000 0.0000 0.0000 18.2904 0.0000 0.0000
# 5 0.0000 0.0000 0.0000 0.0000 18.2904 0.0000
# 6 0.0000 0.0000 0.0000 0.0000 0.0000 20.6942
#
#
#
# Elastic Compliance Matrix: (Units=1/GPa)
#
#
# Indices 1 2 3 4 5 6 
#
# 1 0.016127 -0.008035 -0.003401 0.000000 0.000000 0.000000
# 2 -0.008035 0.016127 -0.003401 0.000000 0.000000 0.000000
# 3 -0.003401 -0.003401 0.018072 0.000000 0.000000 0.000000
# 4 0.000000 0.000000 0.000000 0.054673 0.000000 0.000000
# 5 0.000000 0.000000 0.000000 0.000000 0.054673 0.000000
# 6 0.000000 0.000000 0.000000 0.000000 0.000000 0.048323
#
#
# Mechanical properties :
#
#
# Convention : Reuss Voigt Hill
#
# Bulk Modulus (GPa) = 48.41536 52.19854 50.30695
# Shear Modulus (GPa) = 20.44559 21.18596 20.81577
#
# Velocity S-wave (km/s) = 3.51181 3.57483 3.54346
# Velocity P-wave (km/s) = 6.75632 6.96602 6.86197
#
# Compressibility (1/GPa) = 0.02065460
#
# Stress axis : x y z
#
# Youngs Moduli (GPa) = 62.00878 62.00878 55.33304
#
# Poissons Ratio (x) = 0.49821 0.18816
# Poissons Ratio (y) = 0.49821 0.18816
# Poissons Ratio (z) = 0.21086 0.21086
#
# Static dielectric constant tensor:
#      x y z
#    x 3.042080 0.000000 0.000000 
#    y 0.000000 3.042080 0.000000 
#    z 0.000000 0.000000 3.153050 
# 
# 
# High freq. dielectric constant tensor:
#      x y z
#    x 1.626320 0.000000 0.000000 
#    y 0.000000 1.626320 0.000000 
#    z 0.000000 0.000000 1.632440 
# 
# From -- ./inp_files/7596.got.cif
#   From: 2010.03.12/outbox.cif.g09.slc.cpg/sg191_4_cif.got.tgz:7596.got - 2010.04.01 12:09:02.
