data_PCOD8328810
_publ_section_title
;
Structure prediction by ZEFSAII (Michael W. Deem and Ramdas Pophale) SiO2 
 PCOD8328810
Probable space group: P 6/M M M
;
_chemical_formula_sum "Si O2"
_cell_formula_units_Z 120
_cell_length_a 17.697813
_cell_length_b 17.697813
_cell_length_c 27.902643
_cell_angle_alpha 90.000000
_cell_angle_beta 90.000000
_cell_angle_gamma 120.000000
_cell_volume 7568.593459
_symmetry_space_group_name_H-M "P 6/M M M"
_symmetry_group_IT_number 191
_symmetry_cell_setting 'hexagonal'
loop_
_space_group_symop_operation_xyz
x,y,z
x-y,x,z
-y,x-y,z
-x,-y,z
-x+y,-x,z
y,-x+y,z
x-y,-y,-z
-x,-x+y,-z
y,x,-z
-y,-x,-z
-x+y,y,-z
x,x-y,-z
-x,-y,-z
-x+y,-x,-z
y,-x+y,-z
x,y,-z
x-y,x,-z
-y,x-y,-z
-x+y,y,z
x,x-y,z
-y,-x,z
y,x,z
x-y,-y,z
-x,-x+y,z
loop_
_atom_site_type_symbol
_atom_site_label
_atom_site_fract_x
_atom_site_fract_y
_atom_site_fract_z
Si Si1 0.668555 0.511264 0.620067
Si Si2 0.331235 0.834308 0.097272
Si Si3 0.589533 0.589533 0.553531
Si Si4 0.369193 0.270773 0.288933
Si Si5 0.898807 0.365128 0.000000
Si Si6 0.510048 0.841232 0.797707
O O1 0.749837 0.499673 0.605200
O O2 0.582911 0.417090 0.622764
O O3 0.660430 0.573523 0.580752
O O4 0.682391 0.556471 0.671305
O O5 0.431278 0.862555 0.093520
O O6 0.270123 0.729878 0.097753
O O7 0.307809 0.870878 0.049267
O O8 0.319580 0.870726 0.148454
O O9 0.500000 0.500000 0.551411
O O10 0.624158 0.624158 0.500000
O O11 0.332532 0.166266 0.288990
O O12 0.289419 0.289419 0.297811
O O13 0.413701 0.315134 0.238708
O O14 0.855613 0.427807 0.000000
O O15 0.000000 0.423017 0.000000
O O16 0.426568 0.853135 0.790640
O O17 0.479992 0.739996 0.788146
#
# Coordination Sequence:
#
# PCOD8328810 Si02
#       6
#    24  24  12  24  12  24
#     4  10  19  31  48  70  97 128 162 197 234 275
#     4   9  16  26  39  55  74 100 135 175 214 252
#     4   9  18  32  48  66  92 126 161 198 236 270
#     4  10  20  33  49  69  92 119 149 184 225 271
#     4   9  17  26  34  46  68  97 132 174 218 258
#     4   9  17  27  41  62  89 118 148 181 218 260
#
# _framework density 15.854993
#
# number of rings (size 3 to 8) (size 9 to 14) (size 15 to 20)
#    0.000    2.600    1.000    1.500    0.000    4.000 
#    0.000    5.000    0.000    1.400    0.000    0.000 
#    0.000    0.000    0.000    0.000    0.000    9.100 
#
# Total GULP energy -1486676.770575 kJ/mol
# GULP energy per Si atom -12388.973088 kJ/mol
# Density = 1.581891 g / cm^3
# Si number density = 15.854993 Si / 1000 Ang^3
#
#
#
# Elastic Constant Matrix: (Units=GPa)
#
#
# Indices 1 2 3 4 5 6 
#
# 1 71.3614 41.2911 36.1424 0.0000 0.0000 0.0000
# 2 41.2911 71.3614 36.1424 0.0000 0.0000 0.0000
# 3 36.1424 36.1424 126.8568 0.0000 0.0000 0.0000
# 4 0.0000 0.0000 0.0000 27.3638 0.0000 0.0000
# 5 0.0000 0.0000 0.0000 0.0000 27.3638 0.0000
# 6 0.0000 0.0000 0.0000 0.0000 0.0000 15.0351
#
#
#
# Elastic Compliance Matrix: (Units=1/GPa)
#
#
# Indices 1 2 3 4 5 6 
#
# 1 0.022059 -0.011196 -0.003095 0.000000 0.000000 0.000000
# 2 -0.011196 0.022059 -0.003095 0.000000 0.000000 0.000000
# 3 -0.003095 -0.003095 0.009646 0.000000 0.000000 0.000000
# 4 0.000000 0.000000 0.000000 0.036545 0.000000 0.000000
# 5 0.000000 0.000000 0.000000 0.000000 0.036545 0.000000
# 6 0.000000 0.000000 0.000000 0.000000 0.000000 0.066511
#
#
# Mechanical properties :
#
#
# Convention : Reuss Voigt Hill
#
# Bulk Modulus (GPa) = 52.65271 55.19238 53.92254
# Shear Modulus (GPa) = 21.32490 24.35278 22.83884
#
# Velocity S-wave (km/s) = 3.67140 3.92340 3.79949
# Velocity P-wave (km/s) = 7.15914 7.44381 7.30286
#
# Compressibility (1/GPa) = 0.01899238
#
# Stress axis : x y z
#
# Youngs Moduli (GPa) = 45.33283 45.33283 103.66558
#
# Poissons Ratio (x) = 0.50756 0.32083
# Poissons Ratio (y) = 0.50756 0.32083
# Poissons Ratio (z) = 0.14030 0.14030
#
# Static dielectric constant tensor:
#      x y z
#    x 2.814790 0.000000 0.000000 
#    y 0.000000 2.814790 0.000000 
#    z 0.000000 0.000000 3.503060 
# 
# 
# High freq. dielectric constant tensor:
#      x y z
#    x 1.573110 0.000000 0.000000 
#    y 0.000000 1.573110 0.000000 
#    z 0.000000 0.000000 1.634840 
# 
# From -- ./inp_files/9660.got.cif
#   From: 2010.03.12/outbox.cif.g09.slc.cpg/sg191_5_cif.got.tgz:9660.got - 2010.04.01 12:09:02.
