data_PCOD8328316
_publ_section_title
;
Structure prediction by ZEFSAII (Michael W. Deem and Ramdas Pophale) SiO2 
 PCOD8328316
Probable space group: P 6/M M M
;
_chemical_formula_sum "Si O2"
_cell_formula_units_Z 120
_cell_length_a 17.792637
_cell_length_b 17.792637
_cell_length_c 25.757533
_cell_angle_alpha 90.000000
_cell_angle_beta 90.000000
_cell_angle_gamma 120.000000
_cell_volume 7061.801952
_symmetry_space_group_name_H-M "P 6/M M M"
_symmetry_group_IT_number 191
_symmetry_cell_setting 'hexagonal'
loop_
_space_group_symop_operation_xyz
x,y,z
x-y,x,z
-y,x-y,z
-x,-y,z
-x+y,-x,z
y,-x+y,z
x-y,-y,-z
-x,-x+y,-z
y,x,-z
-y,-x,-z
-x+y,y,-z
x,x-y,-z
-x,-y,-z
-x+y,-x,-z
y,-x+y,-z
x,y,-z
x-y,x,-z
-y,x-y,-z
-x+y,y,z
x,x-y,z
-y,-x,z
y,x,z
x-y,-y,z
-x,-x+y,z
loop_
_atom_site_type_symbol
_atom_site_label
_atom_site_fract_x
_atom_site_fract_y
_atom_site_fract_z
Si Si1 0.159788 0.491222 0.902890
Si Si2 0.166799 0.497391 0.500000
Si Si3 0.540793 0.637217 0.393477
Si Si4 0.098098 0.368513 0.806494
Si Si5 0.630839 0.901757 0.000000
Si Si6 0.330565 0.495606 0.715700
O O1 0.262148 0.524295 0.905162
O O2 0.145895 0.572948 0.906252
O O3 0.118202 0.440149 0.850110
O O4 0.110504 0.427233 0.950055
O O5 0.270555 0.541110 0.500000
O O6 0.139508 0.569754 0.500000
O O7 0.130194 0.440011 0.447582
O O8 0.449950 0.550051 0.399156
O O9 0.618526 0.618526 0.383646
O O10 0.536703 0.689321 0.343817
O O11 0.166844 0.333688 0.810077
O O12 0.104079 0.414154 0.751620
O O13 0.000000 0.287755 0.812818
O O14 0.665494 0.832747 0.000000
O O15 0.712886 0.000000 0.000000
O O16 0.265668 0.531335 0.730332
O O17 0.429352 0.570649 0.724301
#
# Coordination Sequence:
#
# PCOD8328316 Si02
#       6
#    24  12  24  24  12  24
#     4  10  20  33  50  73 102 134 165 195 228 269
#     4  10  18  27  39  55  76 101 132 174 225 276
#     4   9  17  28  41  56  76 106 144 183 220 261
#     4  10  21  35  51  71  94 122 155 193 236 279
#     4  10  21  35  51  72  97 127 162 202 247 289
#     4  10  19  30  45  66  93 123 154 187 223 265
#
# _framework density 16.992830000000001
#
# number of rings (size 3 to 8) (size 9 to 14) (size 15 to 20)
#    0.000    2.200    0.000    3.500    0.000    5.200 
#    0.000    5.000    0.000    0.300    0.000    0.000 
#    0.000    4.800    0.000    0.000    0.000    0.400 
#
# Total GULP energy -1487501.009400 kJ/mol
# GULP energy per Si atom -12395.841745 kJ/mol
# Density = 1.695415 g / cm^3
# Si number density = 16.992830 Si / 1000 Ang^3
#
#
#
# Elastic Constant Matrix: (Units=GPa)
#
#
# Indices 1 2 3 4 5 6 
#
# 1 83.3577 55.2110 28.2538 0.0000 0.0000 0.0000
# 2 55.2110 83.3577 28.2538 0.0000 0.0000 0.0000
# 3 28.2538 28.2538 105.0455 0.0000 0.0000 0.0000
# 4 0.0000 0.0000 0.0000 -10.6781 0.0000 0.0000
# 5 0.0000 0.0000 0.0000 0.0000 -10.6781 0.0000
# 6 0.0000 0.0000 0.0000 0.0000 0.0000 14.0734
#
#
#
# Elastic Compliance Matrix: (Units=1/GPa)
#
#
# Indices 1 2 3 4 5 6 
#
# 1 0.021817 -0.013711 -0.002180 0.000000 0.000000 0.000000
# 2 -0.013711 0.021817 -0.002180 0.000000 0.000000 0.000000
# 3 -0.002180 -0.002180 0.010692 0.000000 0.000000 0.000000
# 4 0.000000 0.000000 0.000000 -0.093650 0.000000 0.000000
# 5 0.000000 0.000000 0.000000 0.000000 -0.093650 0.000000
# 6 0.000000 0.000000 0.000000 0.000000 0.000000 0.071056
#
#
# Mechanical properties :
#
#
# Convention : Reuss Voigt Hill
#
# Bulk Modulus (GPa) = 54.99582 55.02200 55.00891
# Shear Modulus (GPa) = -253.63759 9.21294 -122.21232
#
# Velocity S-wave (km/s) = -12.23052 2.33097 -8.48976
# Velocity P-wave (km/s) = 12.92335 6.30035 7.97868
#
# Compressibility (1/GPa) = 0.01818320
#
# Stress axis : x y z
#
# Youngs Moduli (GPa) = 45.83600 45.83600 93.52380
#
# Poissons Ratio (x) = 0.62847 0.20390
# Poissons Ratio (y) = 0.62847 0.20390
# Poissons Ratio (z) = 0.09993 0.09993
#
# Static dielectric constant tensor:
#      x y z
#    x 2.976510 0.000000 0.000000 
#    y 0.000000 2.976510 0.000000 
#    z 0.000000 0.000000 3.593260 
# 
# 
# High freq. dielectric constant tensor:
#      x y z
#    x 1.625250 0.000000 0.000000 
#    y 0.000000 1.625250 0.000000 
#    z 0.000000 0.000000 1.684600 
# 
# From -- ./inp_files/8581.got.cif
#   From: 2010.03.12/outbox.cif.g09.slc.cpg/sg191_5_cif.got.tgz:8581.got - 2010.04.01 12:09:02.
