data_PCOD8328949
_publ_section_title
;
Structure prediction by ZEFSAII (Michael W. Deem and Ramdas Pophale) SiO2 
 PCOD8328949
Probable space group: P 6/M M M
;
_chemical_formula_sum "Si O2"
_cell_formula_units_Z 132
_cell_length_a 17.250916
_cell_length_b 17.250916
_cell_length_c 29.537754
_cell_angle_alpha 90.000000
_cell_angle_beta 90.000000
_cell_angle_gamma 120.000000
_cell_volume 7612.589680
_symmetry_space_group_name_H-M "P 6/M M M"
_symmetry_group_IT_number 191
_symmetry_cell_setting 'hexagonal'
loop_
_space_group_symop_operation_xyz
x,y,z
x-y,x,z
-y,x-y,z
-x,-y,z
-x+y,-x,z
y,-x+y,z
x-y,-y,-z
-x,-x+y,-z
y,x,-z
-y,-x,-z
-x+y,y,-z
x,x-y,-z
-x,-y,-z
-x+y,-x,-z
y,-x+y,-z
x,y,-z
x-y,x,-z
-y,x-y,-z
-x+y,y,z
x,x-y,z
-y,-x,z
y,x,z
x-y,-y,z
-x,-x+y,z
loop_
_atom_site_type_symbol
_atom_site_label
_atom_site_fract_x
_atom_site_fract_y
_atom_site_fract_z
Si Si1 0.361051 0.894026 0.950288
Si Si2 0.714057 0.105223 0.596915
Si Si3 0.901471 0.270559 0.700530
Si Si4 0.845453 0.332944 0.215499
Si Si5 0.552779 0.105558 0.550687
Si Si6 0.266136 0.364936 0.867114
O O1 0.426544 0.853087 0.944133
O O2 0.289571 0.858499 0.910034
O O3 0.419354 0.000000 0.946519
O O4 0.314416 0.866196 0.000000
O O5 0.819012 0.180989 0.583937
O O6 0.701049 0.109682 0.650348
O O7 0.647967 0.136171 0.574871
O O8 0.684254 0.000000 0.583445
O O9 0.833942 0.166059 0.709912
O O10 0.883224 0.331161 0.735057
O O11 0.000000 0.284968 0.707763
O O12 0.856128 0.428064 0.207734
O O13 0.742136 0.257865 0.210967
O O14 0.904120 0.321508 0.176963
O O15 0.572921 0.145842 0.500000
O O16 0.500000 0.000000 0.549284
O O17 0.160765 0.321530 0.857652
O O18 0.284536 0.284536 0.877608
#
# Coordination Sequence:
#
# PCOD8328949 Si02
#       6
#    24  24  24  24  12  24
#     4   8  14  26  45  67  89 113 142 177 217 264
#     4   9  18  33  52  74 101 134 171 210 253 299
#     4   9  18  31  48  70  95 126 162 199 238 280
#     4  10  20  32  47  69  96 124 151 183 226 276
#     4   9  18  32  50  72 100 132 166 206 247 291
#     4  10  20  32  46  66  91 118 151 191 234 276
#
# _framework density 17.339697999999999
#
# number of rings (size 3 to 8) (size 9 to 14) (size 15 to 20)
#    0.000    2.818    0.000    1.818    1.273    2.909 
#    0.545    0.000    0.000    0.909    0.000    2.545 
#    0.000    4.364    0.000    9.273    0.000    4.727 
#
# Total GULP energy -1635422.281163 kJ/mol
# GULP energy per Si atom -12389.562736 kJ/mol
# Density = 1.730023 g / cm^3
# Si number density = 17.339698 Si / 1000 Ang^3
#
#
#
# Elastic Constant Matrix: (Units=GPa)
#
#
# Indices 1 2 3 4 5 6 
#
# 1 82.5327 58.1351 32.2465 0.0000 0.0000 0.0000
# 2 58.1351 82.5327 32.2465 0.0000 0.0000 0.0000
# 3 32.2465 32.2465 87.7043 0.0000 0.0000 0.0000
# 4 0.0000 0.0000 0.0000 15.2769 0.0000 0.0000
# 5 0.0000 0.0000 0.0000 0.0000 15.2769 0.0000
# 6 0.0000 0.0000 0.0000 0.0000 0.0000 12.1988
#
#
#
# Elastic Compliance Matrix: (Units=1/GPa)
#
#
# Indices 1 2 3 4 5 6 
#
# 1 0.024769 -0.016219 -0.003144 0.000000 0.000000 0.000000
# 2 -0.016219 0.024769 -0.003144 0.000000 0.000000 0.000000
# 3 -0.003144 -0.003144 0.013714 0.000000 0.000000 0.000000
# 4 0.000000 0.000000 0.000000 0.065458 0.000000 0.000000
# 5 0.000000 0.000000 0.000000 0.000000 0.065458 0.000000
# 6 0.000000 0.000000 0.000000 0.000000 0.000000 0.081975
#
#
# Mechanical properties :
#
#
# Convention : Reuss Voigt Hill
#
# Bulk Modulus (GPa) = 54.82643 55.33621 55.08132
# Shear Modulus (GPa) = 15.27951 17.22661 16.25306
#
# Velocity S-wave (km/s) = 2.97170 3.15537 3.06491
# Velocity P-wave (km/s) = 6.59260 6.72736 6.66032
#
# Compressibility (1/GPa) = 0.01823938
#
# Stress axis : x y z
#
# Youngs Moduli (GPa) = 40.37311 40.37311 72.91998
#
# Poissons Ratio (x) = 0.65480 0.22924
# Poissons Ratio (y) = 0.65480 0.22924
# Poissons Ratio (z) = 0.12692 0.12692
#
# Static dielectric constant tensor:
#      x y z
#    x 3.178190 0.000000 0.000000 
#    y 0.000000 3.178190 0.000000 
#    z 0.000000 0.000000 3.512260 
# 
# 
# High freq. dielectric constant tensor:
#      x y z
#    x 1.649250 0.000000 0.000000 
#    y 0.000000 1.649250 0.000000 
#    z 0.000000 0.000000 1.684350 
# 
# From -- ./inp_files/10463.got.cif
#   From: 2010.03.12/outbox.cif.g09.slc.cpg/sg191_6_cif.got.tgz:10463.got - 2010.04.01 12:09:02.
