data_PCOD8328319
_publ_section_title
;
Structure prediction by ZEFSAII (Michael W. Deem and Ramdas Pophale) SiO2 
 PCOD8328319
Probable space group: P 6/M M M
;
_chemical_formula_sum "Si O2"
_cell_formula_units_Z 132
_cell_length_a 18.945887
_cell_length_b 18.945887
_cell_length_c 27.585915
_cell_angle_alpha 90.000000
_cell_angle_beta 90.000000
_cell_angle_gamma 120.000000
_cell_volume 8575.272126
_symmetry_space_group_name_H-M "P 6/M M M"
_symmetry_group_IT_number 191
_symmetry_cell_setting 'hexagonal'
loop_
_space_group_symop_operation_xyz
x,y,z
x-y,x,z
-y,x-y,z
-x,-y,z
-x+y,-x,z
y,-x+y,z
x-y,-y,-z
-x,-x+y,-z
y,x,-z
-y,-x,-z
-x+y,y,-z
x,x-y,-z
-x,-y,-z
-x+y,-x,-z
y,-x+y,-z
x,y,-z
x-y,x,-z
-y,x-y,-z
-x+y,y,z
x,x-y,z
-y,-x,z
y,x,z
x-y,-y,z
-x,-x+y,z
loop_
_atom_site_type_symbol
_atom_site_label
_atom_site_fract_x
_atom_site_fract_y
_atom_site_fract_z
Si Si1 0.092231 0.748035 0.329805
Si Si2 0.092754 0.342491 0.782260
Si Si3 0.333976 0.504000 0.053313
Si Si4 0.372727 0.468050 0.597677
Si Si5 0.504578 0.331529 0.500000
Si Si6 0.469611 0.375386 0.152084
O O1 0.156823 0.843178 0.341463
O O2 0.095290 0.728713 0.273592
O O3 0.118062 0.690131 0.358140
O O4 0.000000 0.726839 0.343976
O O5 0.152798 0.305596 0.791378
O O6 0.129054 0.426532 0.812778
O O7 0.000000 0.275370 0.797749
O O8 0.248391 0.496781 0.063749
O O9 0.401405 0.598596 0.055065
O O10 0.348654 0.454479 0.095628
O O11 0.335209 0.467571 0.000000
O O12 0.435656 0.564345 0.608540
O O13 0.423695 0.423695 0.589345
O O14 0.319880 0.453436 0.548873
O O15 0.577379 0.422622 0.500000
O O16 0.537513 0.268757 0.500000
O O17 0.567164 0.432837 0.162718
O O18 0.428123 0.428123 0.163170
#
# Coordination Sequence:
#
# PCOD8328319 Si02
#       6
#    24  24  24  24  12  24
#     4   9  17  29  45  64  84 107 136 169 205 245
#     4   9  17  29  45  63  83 107 135 168 205 246
#     4   9  16  25  37  52  71  97 129 163 196 230
#     4   9  17  28  42  60  81 106 136 169 204 240
#     4  10  18  27  39  55  78 107 137 167 199 236
#     4   9  17  27  39  57  79 103 132 164 198 237
#
# _framework density 15.393098
#
# number of rings (size 3 to 8) (size 9 to 14) (size 15 to 20)
#    0.000    2.909    0.000    1.636    0.000    2.909 
#    0.000    5.455    0.000    1.091    0.000    2.545 
#    0.000    0.000    0.000    0.000    0.000   18.909 
#
# Total GULP energy -1635606.083085 kJ/mol
# GULP energy per Si atom -12390.955175 kJ/mol
# Density = 1.535806 g / cm^3
# Si number density = 15.393098 Si / 1000 Ang^3
#
#
#
# Elastic Constant Matrix: (Units=GPa)
#
#
# Indices 1 2 3 4 5 6 
#
# 1 63.7054 35.9286 38.3091 0.0000 0.0000 0.0000
# 2 35.9286 63.7054 38.3091 0.0000 0.0000 0.0000
# 3 38.3091 38.3091 77.3326 0.0000 0.0000 0.0000
# 4 0.0000 0.0000 0.0000 20.2923 0.0000 0.0000
# 5 0.0000 0.0000 0.0000 0.0000 20.2923 0.0000
# 6 0.0000 0.0000 0.0000 0.0000 0.0000 13.8884
#
#
#
# Elastic Compliance Matrix: (Units=1/GPa)
#
#
# Indices 1 2 3 4 5 6 
#
# 1 0.026107 -0.009894 -0.008032 0.000000 0.000000 0.000000
# 2 -0.009894 0.026107 -0.008032 0.000000 0.000000 0.000000
# 3 -0.008032 -0.008032 0.020889 0.000000 0.000000 0.000000
# 4 0.000000 0.000000 0.000000 0.049280 0.000000 0.000000
# 5 0.000000 0.000000 0.000000 0.000000 0.049280 0.000000
# 6 0.000000 0.000000 0.000000 0.000000 0.000000 0.072003
#
#
# Mechanical properties :
#
#
# Convention : Reuss Voigt Hill
#
# Bulk Modulus (GPa) = 47.19621 47.75965 47.47793
# Shear Modulus (GPa) = 16.52112 17.04102 16.78107
#
# Velocity S-wave (km/s) = 3.27965 3.33085 3.30535
# Velocity P-wave (km/s) = 6.71332 6.77398 6.74372
#
# Compressibility (1/GPa) = 0.02118814
#
# Stress axis : x y z
#
# Youngs Moduli (GPa) = 38.30363 38.30363 47.87301
#
# Poissons Ratio (x) = 0.37898 0.38450
# Poissons Ratio (y) = 0.37898 0.38450
# Poissons Ratio (z) = 0.30764 0.30764
#
# Static dielectric constant tensor:
#      x y z
#    x 2.967720 0.000000 0.000000 
#    y 0.000000 2.967720 0.000000 
#    z 0.000000 0.000000 3.143170 
# 
# 
# High freq. dielectric constant tensor:
#      x y z
#    x 1.571460 0.000000 0.000000 
#    y 0.000000 1.571460 0.000000 
#    z 0.000000 0.000000 1.598990 
# 
# From -- ./inp_files/10556.got.cif
#   From: 2010.03.12/outbox.cif.g09.slc.cpg/sg191_6_cif.got.tgz:10556.got - 2010.04.01 12:09:02.
