data_PCOD8328249
_publ_section_title
;
Structure prediction by ZEFSAII (Michael W. Deem and Ramdas Pophale) SiO2 
 PCOD8328249
Probable space group: P 6/M M M
;
_chemical_formula_sum "Si O2"
_cell_formula_units_Z 96
_cell_length_a 23.218083
_cell_length_b 23.218083
_cell_length_c 11.918445
_cell_angle_alpha 90.000000
_cell_angle_beta 90.000000
_cell_angle_gamma 120.000000
_cell_volume 5564.202757
_symmetry_space_group_name_H-M "P 6/M M M"
_symmetry_group_IT_number 191
_symmetry_cell_setting 'hexagonal'
loop_
_space_group_symop_operation_xyz
x,y,z
x-y,x,z
-y,x-y,z
-x,-y,z
-x+y,-x,z
y,-x+y,z
x-y,-y,-z
-x,-x+y,-z
y,x,-z
-y,-x,-z
-x+y,y,-z
x,x-y,-z
-x,-y,-z
-x+y,-x,-z
y,-x+y,-z
x,y,-z
x-y,x,-z
-y,x-y,-z
-x+y,y,z
x,x-y,z
-y,-x,z
y,x,z
x-y,-y,z
-x,-x+y,z
loop_
_atom_site_type_symbol
_atom_site_label
_atom_site_fract_x
_atom_site_fract_y
_atom_site_fract_z
Si Si1 0.280674 0.075738 0.267834
Si Si2 0.728589 0.134722 0.873910
Si Si3 0.691026 0.514261 0.500000
Si Si4 0.661604 0.737954 0.500000
Si Si5 0.335012 0.535024 0.741661
O O1 0.256051 0.128026 0.233986
O O2 0.338028 0.080818 0.185102
O O3 0.311376 0.096112 0.391574
O O4 0.218881 0.000000 0.262125
O O5 0.795755 0.204246 0.873780
O O6 0.673422 0.143567 0.806215
O O7 0.702848 0.110649 0.000000
O O8 0.768225 0.536449 0.500000
O O9 0.691000 0.582743 0.500000
O O10 0.655033 0.471390 0.609530
O O11 0.684862 0.684862 0.500000
O O12 0.272799 0.545598 0.764511
O O13 0.400839 0.599162 0.787958
#
# Coordination Sequence:
#
# PCOD8328249 Si02
#       5
#    24  24  12  12  24
#     4  10  19  32  53  79 105 130 160 199 240 284
#     4   9  18  32  49  69  94 128 169 209 246 285
#     4  10  17  29  48  68  95 129 166 206 250 301
#     4  10  18  29  51  78 101 125 158 201 247 290
#     4  10  19  30  47  70  98 129 165 209 258 307
#
# _framework density 17.253146000000001
#
# number of rings (size 3 to 8) (size 9 to 14) (size 15 to 20)
#    0.000    2.250    2.500    1.750    0.000    1.000 
#    0.000    1.250    0.000    5.500    0.000    1.750 
#    0.000    3.000    0.000    6.250    0.000    0.000 
#
# Total GULP energy -1190223.520832 kJ/mol
# GULP energy per Si atom -12398.161675 kJ/mol
# Density = 1.721388 g / cm^3
# Si number density = 17.253146 Si / 1000 Ang^3
#
#
#
# Elastic Constant Matrix: (Units=GPa)
#
#
# Indices 1 2 3 4 5 6 
#
# 1 82.8742 40.4460 20.8645 0.0000 0.0000 0.0000
# 2 40.4460 82.8742 20.8645 0.0000 0.0000 0.0000
# 3 20.8645 20.8645 109.7509 0.0000 0.0000 0.0000
# 4 0.0000 0.0000 0.0000 9.3203 0.0000 0.0000
# 5 0.0000 0.0000 0.0000 0.0000 9.3203 0.0000
# 6 0.0000 0.0000 0.0000 0.0000 0.0000 21.2141
#
#
#
# Elastic Compliance Matrix: (Units=1/GPa)
#
#
# Indices 1 2 3 4 5 6 
#
# 1 0.016118 -0.007451 -0.001648 0.000000 0.000000 0.000000
# 2 -0.007451 0.016118 -0.001648 0.000000 0.000000 0.000000
# 3 -0.001648 -0.001648 0.009738 0.000000 0.000000 0.000000
# 4 0.000000 0.000000 0.000000 0.107293 0.000000 0.000000
# 5 0.000000 0.000000 0.000000 0.000000 0.107293 0.000000
# 6 0.000000 0.000000 0.000000 0.000000 0.000000 0.047138
#
#
# Mechanical properties :
#
#
# Convention : Reuss Voigt Hill
#
# Bulk Modulus (GPa) = 48.82656 48.87216 48.84936
# Shear Modulus (GPa) = 15.05943 20.85921 17.95932
#
# Velocity S-wave (km/s) = 2.95761 3.48085 3.22985
# Velocity P-wave (km/s) = 6.32652 6.67406 6.50261
#
# Compressibility (1/GPa) = 0.02048066
#
# Stress axis : x y z
#
# Youngs Moduli (GPa) = 62.04298 62.04298 102.69079
#
# Poissons Ratio (x) = 0.46231 0.16919
# Poissons Ratio (y) = 0.46231 0.16919
# Poissons Ratio (z) = 0.10222 0.10222
#
# Static dielectric constant tensor:
#      x y z
#    x 2.968310 0.000000 0.000000 
#    y 0.000000 2.968310 0.000000 
#    z 0.000000 0.000000 3.477210 
# 
# 
# High freq. dielectric constant tensor:
#      x y z
#    x 1.643300 0.000000 0.000000 
#    y 0.000000 1.643300 0.000000 
#    z 0.000000 0.000000 1.673420 
# 
# From -- ./inp_files/2775.got.cif
#   From: 2010.03.12/outbox.cif.g09.slc.cpg/sg191_2_cif.got.tgz:2775.got - 2010.04.01 12:09:02.
