data_PCOD8328421
_publ_section_title
;
Structure prediction by ZEFSAII (Michael W. Deem and Ramdas Pophale) SiO2 
 PCOD8328421
Probable space group: P 6/M M M
;
_chemical_formula_sum "Si O2"
_cell_formula_units_Z 168
_cell_length_a 22.444628
_cell_length_b 22.444628
_cell_length_c 23.942544
_cell_angle_alpha 90.000000
_cell_angle_beta 90.000000
_cell_angle_gamma 120.000000
_cell_volume 10445.416204
_symmetry_space_group_name_H-M "P 6/M M M"
_symmetry_group_IT_number 191
_symmetry_cell_setting 'hexagonal'
loop_
_space_group_symop_operation_xyz
x,y,z
x-y,x,z
-y,x-y,z
-x,-y,z
-x+y,-x,z
y,-x+y,z
x-y,-y,-z
-x,-x+y,-z
y,x,-z
-y,-x,-z
-x+y,y,-z
x,x-y,-z
-x,-y,-z
-x+y,-x,-z
y,-x+y,-z
x,y,-z
x-y,x,-z
-y,x-y,-z
-x+y,y,z
x,x-y,z
-y,-x,z
y,x,z
x-y,-y,z
-x,-x+y,z
loop_
_atom_site_type_symbol
_atom_site_label
_atom_site_fract_x
_atom_site_fract_y
_atom_site_fract_z
Si Si1 0.391715 0.922600 0.437537
Si Si2 0.077673 0.295745 0.145514
Si Si3 0.865975 0.591564 0.234015
Si Si4 0.282924 0.207138 0.437253
Si Si5 0.410557 0.274143 0.640876
Si Si6 0.722289 0.137572 0.061769
Si Si7 0.475276 0.666639 0.848982
O O1 0.363011 0.897776 0.500000
O O2 0.461185 0.922370 0.428294
O O3 0.338811 0.869890 0.392510
O O4 0.405475 0.000000 0.428225
O O5 0.136387 0.272773 0.146152
O O6 0.082087 0.339975 0.200144
O O7 0.086877 0.343514 0.092225
O O8 0.000000 0.229248 0.143481
O O9 0.794570 0.589139 0.235777
O O10 0.893744 0.595950 0.296765
O O11 0.852295 0.521250 0.204109
O O12 0.314114 0.229701 0.500000
O O13 0.252693 0.126347 0.428137
O O14 0.219288 0.219288 0.427882
O O15 0.340305 0.250099 0.391954
O O16 0.431980 0.215990 0.642012
O O17 0.789194 0.210807 0.056869
O O18 0.667017 0.148954 0.096389
O O19 0.692624 0.108275 0.000000
O O20 0.462394 0.731197 0.848915
O O21 0.402857 0.597144 0.847259
#
# Coordination Sequence:
#
# PCOD8328421 Si02
#       7
#    24  24  24  24  24  24  24
#     4   9  18  31  44  59  82 111 140 171 211 262
#     4   9  17  30  48  68  90 116 146 179 214 254
#     4   8  17  31  43  60  87 117 147 179 216 257
#     4   9  17  28  43  65  91 115 138 169 211 255
#     4  10  18  28  45  66  85 107 140 183 225 260
#     4   8  15  28  44  63  89 119 148 179 215 252
#     4   9  16  27  44  65  89 117 149 185 223 260
#
# _framework density 16.08361
#
# number of rings (size 3 to 8) (size 9 to 14) (size 15 to 20)
#    0.000    3.143    0.000    3.143    0.000    4.286 
#    0.000    0.000    0.000    8.286    0.000    5.000 
#    0.000    0.000    0.000   10.714    0.000    3.714 
#
# Total GULP energy -2081677.923245 kJ/mol
# GULP energy per Si atom -12390.940019 kJ/mol
# Density = 1.604700 g / cm^3
# Si number density = 16.083610 Si / 1000 Ang^3
#
#
#
# Elastic Constant Matrix: (Units=GPa)
#
#
# Indices 1 2 3 4 5 6 
#
# 1 77.6707 38.2118 43.9282 0.0000 0.0000 0.0000
# 2 38.2118 77.6707 43.9282 0.0000 0.0000 0.0000
# 3 43.9282 43.9282 143.7299 0.0000 0.0000 0.0000
# 4 0.0000 0.0000 0.0000 9.8102 0.0000 0.0000
# 5 0.0000 0.0000 0.0000 0.0000 9.8102 0.0000
# 6 0.0000 0.0000 0.0000 0.0000 0.0000 19.7295
#
#
#
# Elastic Compliance Matrix: (Units=1/GPa)
#
#
# Indices 1 2 3 4 5 6 
#
# 1 0.018287 -0.007055 -0.003433 0.000000 0.000000 0.000000
# 2 -0.007055 0.018287 -0.003433 0.000000 0.000000 0.000000
# 3 -0.003433 -0.003433 0.009056 0.000000 0.000000 0.000000
# 4 0.000000 0.000000 0.000000 0.101935 0.000000 0.000000
# 5 0.000000 0.000000 0.000000 0.000000 0.101935 0.000000
# 6 0.000000 0.000000 0.000000 0.000000 0.000000 0.050686
#
#
# Mechanical properties :
#
#
# Convention : Reuss Voigt Hill
#
# Bulk Modulus (GPa) = 56.21595 61.24532 58.73063
# Shear Modulus (GPa) = 14.97193 19.40350 17.18772
#
# Velocity S-wave (km/s) = 3.05434 3.47712 3.27256
# Velocity P-wave (km/s) = 6.88962 7.36766 7.13265
#
# Compressibility (1/GPa) = 0.01778855
#
# Stress axis : x y z
#
# Youngs Moduli (GPa) = 54.68242 54.68242 110.42566
#
# Poissons Ratio (x) = 0.38580 0.37908
# Poissons Ratio (y) = 0.38580 0.37908
# Poissons Ratio (z) = 0.18772 0.18772
#
# Static dielectric constant tensor:
#      x y z
#    x 2.859110 0.000000 0.000000 
#    y 0.000000 2.859110 0.000000 
#    z 0.000000 0.000000 3.778570 
# 
# 
# High freq. dielectric constant tensor:
#      x y z
#    x 1.594620 0.000000 0.000000 
#    y 0.000000 1.594620 0.000000 
#    z 0.000000 0.000000 1.629400 
# 
# From -- ./inp_files/9174.got.cif
#   From: 2010.03.12/outbox.cif.g09.slc.cpg/sg191_5_cif.got.tgz:9174.got - 2010.04.01 12:09:02.
