data_PCOD8328754
_publ_section_title
;
Structure prediction by ZEFSAII (Michael W. Deem and Ramdas Pophale) SiO2 
 PCOD8328754
Probable space group: P 6/M M M
;
_chemical_formula_sum "Si O2"
_cell_formula_units_Z 108
_cell_length_a 32.006996
_cell_length_b 32.006996
_cell_length_c 9.023431
_cell_angle_alpha 90.000000
_cell_angle_beta 90.000000
_cell_angle_gamma 120.000000
_cell_volume 8005.568254
_symmetry_space_group_name_H-M "P 6/M M M"
_symmetry_group_IT_number 191
_symmetry_cell_setting 'hexagonal'
loop_
_space_group_symop_operation_xyz
x,y,z
x-y,x,z
-y,x-y,z
-x,-y,z
-x+y,-x,z
y,-x+y,z
x-y,-y,-z
-x,-x+y,-z
y,x,-z
-y,-x,-z
-x+y,y,-z
x,x-y,-z
-x,-y,-z
-x+y,-x,-z
y,-x+y,-z
x,y,-z
x-y,x,-z
-y,x-y,-z
-x+y,y,z
x,x-y,z
-y,-x,z
y,x,z
x-y,-y,z
-x,-x+y,z
loop_
_atom_site_type_symbol
_atom_site_label
_atom_site_fract_x
_atom_site_fract_y
_atom_site_fract_z
Si Si1 0.558086 0.862907 0.675344
Si Si2 0.443490 0.056362 0.827131
Si Si3 0.448100 0.643830 0.669589
Si Si4 0.528533 0.057066 0.666490
Si Si5 0.554637 0.277319 0.166103
Si Si6 0.780109 0.219892 0.169405
O O1 0.567308 0.866845 0.500000
O O2 0.581714 0.915858 0.750028
O O3 0.502138 0.840454 0.721328
O O4 0.579781 0.831338 0.746465
O O5 0.495518 0.073770 0.752743
O O6 0.407322 0.000000 0.800807
O O7 0.452031 0.069140 0.000000
O O8 0.448724 0.657974 0.500000
O O9 0.413873 0.586128 0.696155
O O10 0.425050 0.671077 0.757213
O O11 0.539932 0.079863 0.500000
O O12 0.500000 0.000000 0.654606
O O13 0.497001 0.248501 0.178255
O O14 0.573460 0.286730 0.000000
O O15 0.789405 0.210596 0.000000
#
# Coordination Sequence:
#
# PCOD8328754 Si02
#       6
#    24  24  24  12  12  12
#     4  10  19  30  47  65  81 100 127 157 183 214
#     4  10  20  32  44  61  85 109 130 152 183 222
#     4   9  18  31  44  57  72  91 114 139 170 211
#     4   9  17  29  43  57  76 103 132 159 185 217
#     4   9  17  29  43  57  70  84 105 137 171 203
#     4   9  17  31  47  61  79  98 120 149 185 217
#
# _framework density 13.49061
#
# number of rings (size 3 to 8) (size 9 to 14) (size 15 to 20)
#    0.000    2.556    0.000    2.333    1.556    6.667 
#    0.667    0.000    0.000    0.000    0.000    0.000 
#    0.000    0.000    0.000    0.000    0.000    0.000 
#
# Total GULP energy -1338880.887588 kJ/mol
# GULP energy per Si atom -12397.045255 kJ/mol
# Density = 1.345990 g / cm^3
# Si number density = 13.490610 Si / 1000 Ang^3
#
#
#
# Elastic Constant Matrix: (Units=GPa)
#
#
# Indices 1 2 3 4 5 6 
#
# 1 46.4933 12.3349 29.0558 0.0000 0.0000 0.0000
# 2 12.3349 46.4933 29.0558 0.0000 0.0000 0.0000
# 3 29.0558 29.0558 91.2038 0.0000 0.0000 0.0000
# 4 0.0000 0.0000 0.0000 17.7852 0.0000 0.0000
# 5 0.0000 0.0000 0.0000 0.0000 17.7852 0.0000
# 6 0.0000 0.0000 0.0000 0.0000 0.0000 17.0792
#
#
#
# Elastic Compliance Matrix: (Units=1/GPa)
#
#
# Indices 1 2 3 4 5 6 
#
# 1 0.027040 -0.002235 -0.007902 0.000000 0.000000 0.000000
# 2 -0.002235 0.027040 -0.007902 0.000000 0.000000 0.000000
# 3 -0.007902 -0.007902 0.015999 0.000000 0.000000 0.000000
# 4 0.000000 0.000000 0.000000 0.056227 0.000000 0.000000
# 5 0.000000 0.000000 0.000000 0.000000 0.056227 0.000000
# 6 0.000000 0.000000 0.000000 0.000000 0.000000 0.058551
#
#
# Mechanical properties :
#
#
# Convention : Reuss Voigt Hill
#
# Bulk Modulus (GPa) = 29.41207 36.12037 32.76622
# Shear Modulus (GPa) = 17.33124 18.11285 17.72205
#
# Velocity S-wave (km/s) = 3.58814 3.66816 3.62837
# Velocity P-wave (km/s) = 6.24625 6.69127 6.47259
#
# Compressibility (1/GPa) = 0.03399965
#
# Stress axis : x y z
#
# Youngs Moduli (GPa) = 36.98224 36.98224 62.50208
#
# Poissons Ratio (x) = 0.08267 0.49391
# Poissons Ratio (y) = 0.08267 0.49391
# Poissons Ratio (z) = 0.29224 0.29224
#
# Static dielectric constant tensor:
#      x y z
#    x 2.508410 0.000000 0.000000 
#    y 0.000000 2.508410 0.000000 
#    z 0.000000 0.000000 2.821010 
# 
# 
# High freq. dielectric constant tensor:
#      x y z
#    x 1.474150 0.000000 0.000000 
#    y 0.000000 1.474150 0.000000 
#    z 0.000000 0.000000 1.532970 
# 
# From -- ./inp_files/1786.got.cif
#   From: 2010.03.12/outbox.cif.g09.slc.cpg/sg191_1_cif.got.tgz:1786.got - 2010.04.01 12:09:02.
