data_PCOD8328619
_publ_section_title
;
Structure prediction by ZEFSAII (Michael W. Deem and Ramdas Pophale) SiO2 
 PCOD8328619
Probable space group: P 6/M M M
;
_chemical_formula_sum "Si O2"
_cell_formula_units_Z 168
_cell_length_a 22.461778
_cell_length_b 22.461778
_cell_length_c 25.613782
_cell_angle_alpha 90.000000
_cell_angle_beta 90.000000
_cell_angle_gamma 120.000000
_cell_volume 11191.610880
_symmetry_space_group_name_H-M "P 6/M M M"
_symmetry_group_IT_number 191
_symmetry_cell_setting 'hexagonal'
loop_
_space_group_symop_operation_xyz
x,y,z
x-y,x,z
-y,x-y,z
-x,-y,z
-x+y,-x,z
y,-x+y,z
x-y,-y,-z
-x,-x+y,-z
y,x,-z
-y,-x,-z
-x+y,y,-z
x,x-y,-z
-x,-y,-z
-x+y,-x,-z
y,-x+y,-z
x,y,-z
x-y,x,-z
-y,x-y,-z
-x+y,y,z
x,x-y,z
-y,-x,z
y,x,z
x-y,-y,z
-x,-x+y,z
loop_
_atom_site_type_symbol
_atom_site_label
_atom_site_fract_x
_atom_site_fract_y
_atom_site_fract_z
Si Si1 0.808653 0.334609 0.830848
Si Si2 0.196233 0.665379 0.944891
Si Si3 0.285292 0.209353 0.724372
Si Si4 0.338231 0.920941 0.245914
Si Si5 0.146954 0.716430 0.440523
Si Si6 0.529837 0.608289 0.643738
Si Si7 0.923711 0.207668 0.396523
O O1 0.793461 0.396731 0.820323
O O2 0.737623 0.262378 0.822446
O O3 0.840717 0.340234 0.889438
O O4 0.868756 0.342711 0.793446
O O5 0.223507 0.611754 0.943028
O O6 0.259933 0.740068 0.948075
O O7 0.153015 0.653290 0.000000
O O8 0.263913 0.131957 0.740723
O O9 0.220587 0.220587 0.735472
O O10 0.350345 0.262886 0.758302
O O11 0.306524 0.224067 0.663757
O O12 0.347249 0.899922 0.303853
O O13 0.396843 0.000000 0.233681
O O14 0.139584 0.691270 0.500000
O O15 0.224464 0.775537 0.428045
O O16 0.128104 0.652314 0.403279
O O17 0.094967 0.744919 0.431212
O O18 0.455503 0.544498 0.654034
O O19 0.584456 0.584456 0.628452
O O20 0.872603 0.127398 0.408824
O O21 0.000000 0.223957 0.410774
#
# Coordination Sequence:
#
# PCOD8328619 Si02
#       7
#    24  24  24  24  24  24  24
#     4  10  19  29  43  63  87 114 143 179 222 267
#     4   8  13  22  37  57  80 106 138 176 217 258
#     4   9  16  27  45  66  87 112 142 174 207 245
#     4  10  19  31  46  64  86 114 147 180 214 251
#     4  10  20  32  47  66  85 105 130 164 207 253
#     4  10  20  33  48  65  84 106 134 170 211 251
#     4   9  16  27  43  63  85 108 134 164 199 238
#
# _framework density 15.011244
#
# number of rings (size 3 to 8) (size 9 to 14) (size 15 to 20)
#    0.000    2.571    1.429    1.571    0.000    4.571 
#    0.000    0.714    0.000    1.000    0.000    4.000 
#    0.000    0.000    0.000    3.571    0.000    3.714 
#
# Total GULP energy -2081597.403429 kJ/mol
# GULP energy per Si atom -12390.460735 kJ/mol
# Density = 1.497708 g / cm^3
# Si number density = 15.011244 Si / 1000 Ang^3
#
#
#
# Elastic Constant Matrix: (Units=GPa)
#
#
# Indices 1 2 3 4 5 6 
#
# 1 70.4326 31.5088 39.9732 0.0000 0.0000 0.0000
# 2 31.5088 70.4326 39.9732 0.0000 0.0000 0.0000
# 3 39.9732 39.9732 72.7670 0.0000 0.0000 0.0000
# 4 0.0000 0.0000 0.0000 15.7815 0.0000 0.0000
# 5 0.0000 0.0000 0.0000 0.0000 15.7815 0.0000
# 6 0.0000 0.0000 0.0000 0.0000 0.0000 19.4619
#
#
#
# Elastic Compliance Matrix: (Units=1/GPa)
#
#
# Indices 1 2 3 4 5 6 
#
# 1 0.021463 -0.004229 -0.009467 0.000000 0.000000 0.000000
# 2 -0.004229 0.021463 -0.009467 0.000000 0.000000 0.000000
# 3 -0.009467 -0.009467 0.024144 0.000000 0.000000 0.000000
# 4 0.000000 0.000000 0.000000 0.063365 0.000000 0.000000
# 5 0.000000 0.000000 0.000000 0.000000 0.063365 0.000000
# 6 0.000000 0.000000 0.000000 0.000000 0.000000 0.051382
#
#
# Mechanical properties :
#
#
# Convention : Reuss Voigt Hill
#
# Bulk Modulus (GPa) = 48.20885 48.50473 48.35679
# Shear Modulus (GPa) = 16.75474 17.01678 16.88576
#
# Velocity S-wave (km/s) = 3.34450 3.37055 3.35755
# Velocity P-wave (km/s) = 6.86288 6.89419 6.87856
#
# Compressibility (1/GPa) = 0.02074308
#
# Stress axis : x y z
#
# Youngs Moduli (GPa) = 46.59252 46.59252 41.41844
#
# Poissons Ratio (x) = 0.19702 0.39212
# Poissons Ratio (y) = 0.19702 0.39212
# Poissons Ratio (z) = 0.44110 0.44110
#
# Static dielectric constant tensor:
#      x y z
#    x 2.801360 0.000000 0.000000 
#    y 0.000000 2.801360 0.000000 
#    z 0.000000 0.000000 3.170120 
# 
# 
# High freq. dielectric constant tensor:
#      x y z
#    x 1.556920 0.000000 0.000000 
#    y 0.000000 1.556920 0.000000 
#    z 0.000000 0.000000 1.569030 
# 
# From -- ./inp_files/9168.got.cif
#   From: 2010.03.12/outbox.cif.g09.slc.cpg/sg191_5_cif.got.tgz:9168.got - 2010.04.01 12:09:02.
