data_PCOD8328397
_publ_section_title
;
Structure prediction by ZEFSAII (Michael W. Deem and Ramdas Pophale) SiO2 
 PCOD8328397
Probable space group: P 6/M M M
;
_chemical_formula_sum "Si O2"
_cell_formula_units_Z 180
_cell_length_a 21.193305
_cell_length_b 21.193305
_cell_length_c 31.575335
_cell_angle_alpha 90.000000
_cell_angle_beta 90.000000
_cell_angle_gamma 120.000000
_cell_volume 12282.194629
_symmetry_space_group_name_H-M "P 6/M M M"
_symmetry_group_IT_number 191
_symmetry_cell_setting 'hexagonal'
loop_
_space_group_symop_operation_xyz
x,y,z
x-y,x,z
-y,x-y,z
-x,-y,z
-x+y,-x,z
y,-x+y,z
x-y,-y,-z
-x,-x+y,-z
y,x,-z
-y,-x,-z
-x+y,y,-z
x,x-y,-z
-x,-y,-z
-x+y,-x,-z
y,-x+y,-z
x,y,-z
x-y,x,-z
-y,x-y,-z
-x+y,y,z
x,x-y,z
-y,-x,z
y,x,z
x-y,-y,z
-x,-x+y,z
loop_
_atom_site_type_symbol
_atom_site_label
_atom_site_fract_x
_atom_site_fract_y
_atom_site_fract_z
Si Si1 0.664753 0.187108 0.417191
Si Si2 0.518667 0.334888 0.092011
Si Si3 0.524638 0.334634 0.000000
Si Si4 0.290864 0.918019 0.546895
Si Si5 0.547211 0.699043 0.331449
Si Si6 0.533811 0.615723 0.833225
Si Si7 0.221322 0.918733 0.631375
Si Si8 0.334371 0.517951 0.756599
O O1 0.594252 0.188504 0.433326
O O2 0.731458 0.268543 0.417198
O O3 0.679100 0.137502 0.449402
O O4 0.649873 0.152293 0.370069
O O5 0.516385 0.258193 0.096740
O O6 0.601181 0.398820 0.101649
O O7 0.462811 0.339345 0.124670
O O8 0.493203 0.345562 0.044640
O O9 0.611474 0.388527 0.000000
O O10 0.507202 0.253601 0.000000
O O11 0.255878 0.908235 0.500000
O O12 0.230443 0.901725 0.582517
O O13 0.357855 0.000000 0.553031
O O14 0.544161 0.772081 0.331110
O O15 0.630981 0.720567 0.339262
O O16 0.516031 0.657226 0.287380
O O17 0.462017 0.537984 0.833572
O O18 0.603760 0.603760 0.831785
O O19 0.533105 0.661622 0.792888
O O20 0.138400 0.861601 0.644799
O O21 0.235013 0.000000 0.637254
O O22 0.258545 0.517090 0.760368
O O23 0.398959 0.601042 0.760784
#
# Coordination Sequence:
#
# PCOD8328397 Si02
#       8
#    24  24  12  24  24  24  24  24
#     4  10  19  30  43  59  81 107 132 159 195 240
#     4   9  15  24  38  55  73  92 119 156 198 240
#     4   8  13  20  33  53  73  91 112 147 196 244
#     4   9  18  32  48  63  79 102 133 169 203 231
#     4   8  16  29  43  60  80 102 129 160 192 228
#     4   9  18  29  37  48  71 102 131 158 191 235
#     4   9  17  30  48  68  88 109 134 163 194 229
#     4  10  18  28  43  62  82 103 131 168 209 248
#
# _framework density 14.65536
#
# number of rings (size 3 to 8) (size 9 to 14) (size 15 to 20)
#    0.000    2.933    0.000    2.467    0.000    3.200 
#    0.000    3.667    0.000    5.333    0.000    0.000 
#    0.000    0.000    0.000    3.333    0.000    0.000 
#
# Total GULP energy -2230493.574226 kJ/mol
# GULP energy per Si atom -12391.630968 kJ/mol
# Density = 1.462200 g / cm^3
# Si number density = 14.655360 Si / 1000 Ang^3
#
#
#
# Elastic Constant Matrix: (Units=GPa)
#
#
# Indices 1 2 3 4 5 6 
#
# 1 53.7547 35.0978 16.6529 0.0000 0.0000 0.0000
# 2 35.0978 53.7547 16.6529 0.0000 0.0000 0.0000
# 3 16.6529 16.6529 86.9331 0.0000 0.0000 0.0000
# 4 0.0000 0.0000 0.0000 15.0868 0.0000 0.0000
# 5 0.0000 0.0000 0.0000 0.0000 15.0868 0.0000
# 6 0.0000 0.0000 0.0000 0.0000 0.0000 9.3284
#
#
#
# Elastic Compliance Matrix: (Units=1/GPa)
#
#
# Indices 1 2 3 4 5 6 
#
# 1 0.032862 -0.020737 -0.002323 0.000000 0.000000 0.000000
# 2 -0.020737 0.032862 -0.002323 0.000000 0.000000 0.000000
# 3 -0.002323 -0.002323 0.012393 0.000000 0.000000 0.000000
# 4 0.000000 0.000000 0.000000 0.066283 0.000000 0.000000
# 5 0.000000 0.000000 0.000000 0.000000 0.066283 0.000000
# 6 0.000000 0.000000 0.000000 0.000000 0.000000 0.107199
#
#
# Mechanical properties :
#
#
# Convention : Reuss Voigt Hill
#
# Bulk Modulus (GPa) = 36.55956 36.80554 36.68255
# Shear Modulus (GPa) = 13.23570 16.30299 14.76935
#
# Velocity S-wave (km/s) = 3.00847 3.33892 3.17800
# Velocity P-wave (km/s) = 6.08837 6.32717 6.20892
#
# Compressibility (1/GPa) = 0.02735263
#
# Stress axis : x y z
#
# Youngs Moduli (GPa) = 30.42983 30.42983 80.69080
#
# Poissons Ratio (x) = 0.63103 0.18742
# Poissons Ratio (y) = 0.63103 0.18742
# Poissons Ratio (z) = 0.07068 0.07068
#
# Static dielectric constant tensor:
#      x y z
#    x 2.667690 0.000000 0.000000 
#    y 0.000000 2.667690 0.000000 
#    z 0.000000 0.000000 3.216790 
# 
# 
# High freq. dielectric constant tensor:
#      x y z
#    x 1.530980 0.000000 0.000000 
#    y 0.000000 1.530980 0.000000 
#    z 0.000000 0.000000 1.569130 
# 
# From -- ./inp_files/10834.got.cif
#   From: 2010.03.12/outbox.cif.g09.slc.cpg/sg191_6_cif.got.tgz:10834.got - 2010.04.01 12:09:02.
