data_PCOD8328098
_publ_section_title
;
Structure prediction by ZEFSAII (Michael W. Deem and Ramdas Pophale) SiO2 
 PCOD8328098
Probable space group: P -6 2 C
;
_chemical_formula_sum "Si O2"
_cell_formula_units_Z 40
_cell_length_a 11.424793
_cell_length_b 11.424793
_cell_length_c 15.976057
_cell_angle_alpha 90.000000
_cell_angle_beta 90.000000
_cell_angle_gamma 120.000000
_cell_volume 1805.913369
_symmetry_space_group_name_H-M "P -6 2 C"
_symmetry_group_IT_number 190
_symmetry_cell_setting 'hexagonal'
loop_
_space_group_symop_operation_xyz
x,y,z
-x+y,-x,1/2-z
-y,x-y,z
x,y,1/2-z
-x+y,-x,z
-y,x-y,1/2-z
x-y,-y,-z
-x,-x+y,-z
y,x,-z
y,x,1/2+z
x-y,-y,1/2+z
-x,-x+y,1/2+z
loop_
_atom_site_type_symbol
_atom_site_label
_atom_site_fract_x
_atom_site_fract_y
_atom_site_fract_z
Si Si1 0.666668 0.333334 0.649677
Si Si2 0.060952 0.644822 0.590629
Si Si3 0.409458 0.101774 0.152549
Si Si4 0.631861 0.811052 0.152686
O O1 0.666667 0.333334 0.750000
O O2 0.741629 0.483336 0.611353
O O3 0.057974 0.522774 0.642208
O O4 0.213293 0.771744 0.592826
O O5 0.000000 0.590212 0.500000
O O6 0.970020 0.702647 0.632740
O O7 0.407870 0.140089 0.250000
O O8 0.264641 0.976494 0.121778
O O9 0.613340 0.783535 0.250000
#
# Coordination Sequence:
#
# PCOD8328098 Si02
#       4
#     4  12  12  12
#     4   9  15  30  63  96 120 159 217 290 334 384
#     4  12  27  41  69 101 144 181 229 296 357 419
#     4  11  24  45  72  99 138 185 236 287 351 432
#     4  10  20  39  68  96 129 177 236 289 344 418
#
# _framework density 22.149456000000001
#
# number of rings (size 3 to 8) (size 9 to 14) (size 15 to 20)
#    0.000    1.200    3.000    3.300    4.200    0.000 
#    1.800    0.000    0.000    0.000    0.000    0.000 
#    0.000    0.000    0.000    0.000    0.000    0.000 
#
# Total GULP energy -495818.371072 kJ/mol
# GULP energy per Si atom -12395.459277 kJ/mol
# Density = 2.209904 g / cm^3
# Si number density = 22.149456 Si / 1000 Ang^3
#
#
#
# Elastic Constant Matrix: (Units=GPa)
#
#
# Indices 1 2 3 4 5 6 
#
# 1 109.1523 30.1055 25.5355 0.0000 0.0000 0.0000
# 2 30.1055 109.1528 25.5357 0.0000 0.0000 0.0000
# 3 25.5355 25.5357 51.2355 0.0000 0.0000 0.0001
# 4 0.0000 0.0000 0.0000 26.8770 0.0000 0.0000
# 5 0.0000 0.0000 0.0000 0.0000 26.8770 0.0000
# 6 0.0000 0.0000 0.0001 0.0000 0.0000 39.5234
#
#
#
# Elastic Compliance Matrix: (Units=1/GPa)
#
#
# Indices 1 2 3 4 5 6 
#
# 1 0.010719 -0.001932 -0.004379 0.000000 0.000000 0.000000
# 2 -0.001932 0.010719 -0.004379 0.000000 0.000000 0.000000
# 3 -0.004379 -0.004379 0.023883 0.000000 0.000000 0.000000
# 4 0.000000 0.000000 0.000000 0.037207 0.000000 0.000000
# 5 0.000000 0.000000 0.000000 0.000000 0.037207 0.000000
# 6 0.000000 0.000000 0.000000 0.000000 0.000000 0.025301
#
#
# Mechanical properties :
#
#
# Convention : Reuss Voigt Hill
#
# Bulk Modulus (GPa) = 41.77204 47.98820 44.88012
# Shear Modulus (GPa) = 28.67029 31.21307 29.94168
#
# Velocity S-wave (km/s) = 3.60168 3.75801 3.68067
# Velocity P-wave (km/s) = 6.01633 6.36732 6.19432
#
# Compressibility (1/GPa) = 0.02393946
#
# Stress axis : x y z
#
# Youngs Moduli (GPa) = 93.29344 93.29371 41.87061
#
# Poissons Ratio (x) = 0.18023 0.18337
# Poissons Ratio (y) = 0.18023 0.18337
# Poissons Ratio (z) = 0.40857 0.40857
#
# Static dielectric constant tensor:
#      x y z
#    x 4.092210 0.000000 0.000000 
#    y 0.000000 4.092210 0.000000 
#    z 0.000000 0.000000 3.668620 
# 
# 
# High freq. dielectric constant tensor:
#      x y z
#    x 1.869660 0.000000 0.000000 
#    y 0.000000 1.869660 0.000000 
#    z 0.000000 0.000000 1.852390 
# 
# From -- ./inp_files/3395.got.cif
#   From: 2010.06.25/outbox.cif.g09.slc.cpg/sg190_2_cif.got.tgz:3395.got - 2010.06.28 13:08:06.
