data_PCOD8328952
_publ_section_title
;
Structure prediction by ZEFSAII (Michael W. Deem and Ramdas Pophale) SiO2 
 PCOD8328952
Probable space group: P 6/M M M
;
_chemical_formula_sum "Si O2"
_cell_formula_units_Z 168
_cell_length_a 20.878744
_cell_length_b 20.878744
_cell_length_c 28.818424
_cell_angle_alpha 90.000000
_cell_angle_beta 90.000000
_cell_angle_gamma 120.000000
_cell_volume 10879.516548
_symmetry_space_group_name_H-M "P 6/M M M"
_symmetry_group_IT_number 191
_symmetry_cell_setting 'hexagonal'
loop_
_space_group_symop_operation_xyz
x,y,z
x-y,x,z
-y,x-y,z
-x,-y,z
-x+y,-x,z
y,-x+y,z
x-y,-y,-z
-x,-x+y,-z
y,x,-z
-y,-x,-z
-x+y,y,-z
x,x-y,-z
-x,-y,-z
-x+y,-x,-z
y,-x+y,-z
x,y,-z
x-y,x,-z
-y,x-y,-z
-x+y,y,z
x,x-y,z
-y,-x,z
y,x,z
x-y,-y,z
-x,-x+y,z
loop_
_atom_site_type_symbol
_atom_site_label
_atom_site_fract_x
_atom_site_fract_y
_atom_site_fract_z
Si Si1 0.186566 0.522211 0.694376
Si Si2 0.775903 0.081361 0.273680
Si Si3 0.774867 0.082514 0.447629
Si Si4 0.182036 0.515561 0.864740
Si Si5 0.082421 0.617207 0.051761
Si Si6 0.308911 0.916096 0.637872
Si Si7 0.563930 0.914414 0.223253
O O1 0.254398 0.508796 0.705472
O O2 0.217522 0.608761 0.685661
O O3 0.142131 0.478195 0.648316
O O4 0.129762 0.495799 0.737062
O O5 0.861435 0.138566 0.264787
O O6 0.752093 0.095716 0.323916
O O7 0.727585 0.090595 0.233552
O O8 0.765948 0.000000 0.271627
O O9 0.751152 0.089142 0.500000
O O10 0.861835 0.138166 0.439793
O O11 0.726791 0.101997 0.413109
O O12 0.759750 0.000000 0.437439
O O13 0.257867 0.515734 0.855969
O O14 0.200071 0.600036 0.866170
O O15 0.144320 0.471646 0.912296
O O16 0.122694 0.470710 0.825303
O O17 0.079850 0.539925 0.053813
O O18 0.000000 0.602157 0.064287
O O19 0.104779 0.651451 0.000000
O O20 0.377308 0.000000 0.640775
O O21 0.583940 0.000000 0.222899
#
# Coordination Sequence:
#
# PCOD8328952 Si02
#       7
#    24  24  24  24  24  24  24
#     4  11  21  32  46  64  89 115 138 166 205 259
#     4   9  16  27  43  62  84 108 136 169 205 245
#     4   9  16  26  42  64  88 112 140 176 217 257
#     4  11  21  31  43  60  86 115 141 171 210 258
#     4   8  15  29  47  63  78 101 137 178 213 244
#     4   9  17  29  46  65  83 107 140 178 213 242
#     4  10  20  32  47  64  81 107 143 181 214 243
#
# _framework density 15.441863
#
# number of rings (size 3 to 8) (size 9 to 14) (size 15 to 20)
#    0.000    2.429    0.000    6.286    0.000    2.857 
#    0.000    1.429    0.000    1.571    0.000    3.000 
#    0.000    4.571    0.000    0.143    0.000    0.000 
#
# Total GULP energy -2082520.426766 kJ/mol
# GULP energy per Si atom -12395.954921 kJ/mol
# Density = 1.540672 g / cm^3
# Si number density = 15.441863 Si / 1000 Ang^3
#
#
#
# Elastic Constant Matrix: (Units=GPa)
#
#
# Indices 1 2 3 4 5 6 
#
# 1 79.2419 46.2732 35.4033 0.0000 0.0000 0.0000
# 2 46.2732 79.2419 35.4033 0.0000 0.0000 0.0000
# 3 35.4033 35.4033 88.9264 0.0000 0.0000 0.0000
# 4 0.0000 0.0000 0.0000 17.7885 0.0000 0.0000
# 5 0.0000 0.0000 0.0000 0.0000 17.7885 0.0000
# 6 0.0000 0.0000 0.0000 0.0000 0.0000 16.4843
#
#
#
# Elastic Compliance Matrix: (Units=1/GPa)
#
#
# Indices 1 2 3 4 5 6 
#
# 1 0.020303 -0.010029 -0.004091 0.000000 0.000000 0.000000
# 2 -0.010029 0.020303 -0.004091 0.000000 0.000000 0.000000
# 3 -0.004091 -0.004091 0.014502 0.000000 0.000000 0.000000
# 4 0.000000 0.000000 0.000000 0.056216 0.000000 0.000000
# 5 0.000000 0.000000 0.000000 0.000000 0.056216 0.000000
# 6 0.000000 0.000000 0.000000 0.000000 0.000000 0.060664
#
#
# Mechanical properties :
#
#
# Convention : Reuss Voigt Hill
#
# Bulk Modulus (GPa) = 53.50581 53.50774 53.50678
# Shear Modulus (GPa) = 18.46013 19.10096 18.78055
#
# Velocity S-wave (km/s) = 3.46129 3.52086 3.49120
# Velocity P-wave (km/s) = 7.12033 7.15925 7.13982
#
# Compressibility (1/GPa) = 0.01868956
#
# Stress axis : x y z
#
# Youngs Moduli (GPa) = 49.25304 49.25304 68.95441
#
# Poissons Ratio (x) = 0.49394 0.28206
# Poissons Ratio (y) = 0.49394 0.28206
# Poissons Ratio (z) = 0.20147 0.20147
#
# Static dielectric constant tensor:
#      x y z
#    x 2.883370 0.000000 0.000000 
#    y 0.000000 2.883370 0.000000 
#    z 0.000000 0.000000 3.102570 
# 
# 
# High freq. dielectric constant tensor:
#      x y z
#    x 1.576660 0.000000 0.000000 
#    y 0.000000 1.576660 0.000000 
#    z 0.000000 0.000000 1.590980 
# 
# From -- ./inp_files/10075.got.cif
#   From: 2010.03.12/outbox.cif.g09.slc.cpg/sg191_6_cif.got.tgz:10075.got - 2010.04.01 12:09:02.
