data_PCOD8328468
_publ_section_title
;
Structure prediction by ZEFSAII (Michael W. Deem and Ramdas Pophale) SiO2 
 PCOD8328468
Probable space group: P 6/M M M
;
_chemical_formula_sum "Si O2"
_cell_formula_units_Z 120
_cell_length_a 18.065113
_cell_length_b 18.065113
_cell_length_c 27.045624
_cell_angle_alpha 90.000000
_cell_angle_beta 90.000000
_cell_angle_gamma 120.000000
_cell_volume 7643.794499
_symmetry_space_group_name_H-M "P 6/M M M"
_symmetry_group_IT_number 191
_symmetry_cell_setting 'hexagonal'
loop_
_space_group_symop_operation_xyz
x,y,z
x-y,x,z
-y,x-y,z
-x,-y,z
-x+y,-x,z
y,-x+y,z
x-y,-y,-z
-x,-x+y,-z
y,x,-z
-y,-x,-z
-x+y,y,-z
x,x-y,-z
-x,-y,-z
-x+y,-x,-z
y,-x+y,-z
x,y,-z
x-y,x,-z
-y,x-y,-z
-x+y,y,z
x,x-y,z
-y,-x,z
y,x,z
x-y,-y,z
-x,-x+y,z
loop_
_atom_site_type_symbol
_atom_site_label
_atom_site_fract_x
_atom_site_fract_y
_atom_site_fract_z
Si Si1 0.504668 0.668621 0.614671
Si Si2 0.588078 0.000000 0.555966
Si Si3 0.905183 0.540111 0.000000
Si Si4 0.367385 0.466403 0.278638
Si Si5 0.331096 0.835183 0.895631
Si Si6 0.637617 0.902628 0.187563
O O1 0.505349 0.752675 0.595471
O O2 0.411791 0.588210 0.604792
O O3 0.576218 0.660094 0.583819
O O4 0.526885 0.678976 0.672673
O O5 0.500000 0.000000 0.557902
O O6 0.617898 0.000000 0.500000
O O7 0.855392 0.541154 0.951181
O O8 0.911744 0.455872 0.000000
O O9 0.000000 0.622491 0.000000
O O10 0.439320 0.560681 0.260318
O O11 0.411789 0.411789 0.292982
O O12 0.298121 0.421654 0.235889
O O13 0.426451 0.852901 0.887818
O O14 0.263789 0.736212 0.884243
O O15 0.316323 0.896390 0.859187
O O16 0.673755 0.836878 0.182602
O O17 0.716407 0.000000 0.190790
#
# Coordination Sequence:
#
# PCOD8328468 Si02
#       6
#    24  12  12  24  24  24
#     4  10  18  29  45  66  90 118 153 190 225 262
#     4   9  18  32  46  60  84 118 151 184 226 268
#     4   9  17  28  42  58  80 115 159 197 225 256
#     4   9  16  28  46  67  91 120 149 176 211 260
#     4  10  19  30  44  64  90 121 154 189 226 266
#     4  10  20  32  47  67  90 116 147 184 226 270
#
# _framework density 15.699009
#
# number of rings (size 3 to 8) (size 9 to 14) (size 15 to 20)
#    0.000    2.400    1.000    2.500    0.000    2.400 
#    0.000    1.000    0.000    7.800    0.000    0.000 
#    0.000    0.000    0.000    0.300    0.000   22.100 
#
# Total GULP energy -1487899.457166 kJ/mol
# GULP energy per Si atom -12399.162143 kJ/mol
# Density = 1.566328 g / cm^3
# Si number density = 15.699009 Si / 1000 Ang^3
#
#
#
# Elastic Constant Matrix: (Units=GPa)
#
#
# Indices 1 2 3 4 5 6 
#
# 1 80.3882 41.5078 37.0039 0.0000 0.0000 0.0000
# 2 41.5078 80.3882 37.0039 0.0000 0.0000 0.0000
# 3 37.0039 37.0039 84.8621 0.0000 0.0000 0.0000
# 4 0.0000 0.0000 0.0000 14.9233 0.0000 0.0000
# 5 0.0000 0.0000 0.0000 0.0000 14.9233 0.0000
# 6 0.0000 0.0000 0.0000 0.0000 0.0000 19.4402
#
#
#
# Elastic Compliance Matrix: (Units=1/GPa)
#
#
# Indices 1 2 3 4 5 6 
#
# 1 0.018439 -0.007281 -0.004865 0.000000 0.000000 0.000000
# 2 -0.007281 0.018439 -0.004865 0.000000 0.000000 0.000000
# 3 -0.004865 -0.004865 0.016027 0.000000 0.000000 0.000000
# 4 0.000000 0.000000 0.000000 0.067009 0.000000 0.000000
# 5 0.000000 0.000000 0.000000 0.000000 0.067009 0.000000
# 6 0.000000 0.000000 0.000000 0.000000 0.000000 0.051440
#
#
# Mechanical properties :
#
#
# Convention : Reuss Voigt Hill
#
# Bulk Modulus (GPa) = 52.96330 52.96330 52.96330
# Shear Modulus (GPa) = 17.94174 18.53221 18.23697
#
# Velocity S-wave (km/s) = 3.38429 3.43952 3.41202
# Velocity P-wave (km/s) = 7.00579 7.04157 7.02371
#
# Compressibility (1/GPa) = 0.01888100
#
# Stress axis : x y z
#
# Youngs Moduli (GPa) = 54.23362 54.23362 62.39553
#
# Poissons Ratio (x) = 0.39488 0.30357
# Poissons Ratio (y) = 0.39488 0.30357
# Poissons Ratio (z) = 0.26386 0.26386
#
# Static dielectric constant tensor:
#      x y z
#    x 2.785290 0.000000 0.000000 
#    y 0.000000 2.785290 0.000000 
#    z 0.000000 0.000000 3.123200 
# 
# 
# High freq. dielectric constant tensor:
#      x y z
#    x 1.578340 0.000000 0.000000 
#    y 0.000000 1.578340 0.000000 
#    z 0.000000 0.000000 1.614560 
# 
# From -- ./inp_files/9568.got.cif
#   From: 2010.03.12/outbox.cif.g09.slc.cpg/sg191_5_cif.got.tgz:9568.got - 2010.04.01 12:09:02.
