data_PCOD8328391
_publ_section_title
;
Structure prediction by ZEFSAII (Michael W. Deem and Ramdas Pophale) SiO2 
 PCOD8328391
Probable space group: P 6/M M M
;
_chemical_formula_sum "Si O2"
_cell_formula_units_Z 96
_cell_length_a 32.222816
_cell_length_b 32.222816
_cell_length_c 7.714748
_cell_angle_alpha 90.000000
_cell_angle_beta 90.000000
_cell_angle_gamma 120.000000
_cell_volume 6937.122426
_symmetry_space_group_name_H-M "P 6/M M M"
_symmetry_group_IT_number 191
_symmetry_cell_setting 'hexagonal'
loop_
_space_group_symop_operation_xyz
x,y,z
x-y,x,z
-y,x-y,z
-x,-y,z
-x+y,-x,z
y,-x+y,z
x-y,-y,-z
-x,-x+y,-z
y,x,-z
-y,-x,-z
-x+y,y,-z
x,x-y,-z
-x,-y,-z
-x+y,-x,-z
y,-x+y,-z
x,y,-z
x-y,x,-z
-y,x-y,-z
-x+y,y,z
x,x-y,z
-y,-x,z
y,x,z
x-y,-y,z
-x,-x+y,z
loop_
_atom_site_type_symbol
_atom_site_label
_atom_site_fract_x
_atom_site_fract_y
_atom_site_fract_z
Si Si1 0.792285 0.115088 0.000000
Si Si2 0.519808 0.945588 0.797866
Si Si3 0.563543 0.827832 0.000000
Si Si4 0.679226 0.113936 0.691858
Si Si5 0.324238 0.055889 0.301687
O O1 0.777053 0.082526 0.826682
O O2 0.849846 0.150155 0.000000
O O3 0.767309 0.146943 0.000000
O O4 0.464457 0.928914 0.760338
O O5 0.533265 0.911234 0.694222
O O6 0.553128 0.000000 0.733748
O O7 0.528350 0.941886 0.000000
O O8 0.545487 0.842727 0.828705
O O9 0.540891 0.770446 0.000000
O O10 0.697118 0.135529 0.500000
O O11 0.694341 0.074321 0.734872
O O12 0.315777 0.066084 0.500000
O O13 0.295631 0.000000 0.258487
#
# Coordination Sequence:
#
# PCOD8328391 Si02
#       5
#    12  24  12  24  24
#     4   9  17  27  39  54  71  95 123 153 194 234
#     4   9  17  28  41  58  82 111 139 164 190 223
#     4   9  18  31  42  55  75  97 124 158 194 231
#     4  10  18  28  43  60  77 101 131 161 195 232
#     4   9  17  27  39  56  75  96 126 162 196 229
#
# _framework density 13.838590999999999
#
# number of rings (size 3 to 8) (size 9 to 14) (size 15 to 20)
#    0.000    2.750    1.250    1.875    0.000    3.000 
#    0.000    6.250    0.000    0.000    0.000    0.000 
#    0.000    0.000    0.000    3.000    0.000    6.500 
#
# Total GULP energy -1190213.689622 kJ/mol
# GULP energy per Si atom -12398.059267 kJ/mol
# Density = 1.380709 g / cm^3
# Si number density = 13.838591 Si / 1000 Ang^3
#
#
#
# Elastic Constant Matrix: (Units=GPa)
#
#
# Indices 1 2 3 4 5 6 
#
# 1 64.8547 31.5692 41.0471 0.0000 0.0000 0.0000
# 2 31.5692 64.8547 41.0471 0.0000 0.0000 0.0000
# 3 41.0471 41.0471 97.0279 0.0000 0.0000 0.0000
# 4 0.0000 0.0000 0.0000 13.2286 0.0000 0.0000
# 5 0.0000 0.0000 0.0000 0.0000 13.2286 0.0000
# 6 0.0000 0.0000 0.0000 0.0000 0.0000 16.6427
#
#
#
# Elastic Compliance Matrix: (Units=1/GPa)
#
#
# Indices 1 2 3 4 5 6 
#
# 1 0.023126 -0.006917 -0.006857 0.000000 0.000000 0.000000
# 2 -0.006917 0.023126 -0.006857 0.000000 0.000000 0.000000
# 3 -0.006857 -0.006857 0.016108 0.000000 0.000000 0.000000
# 4 0.000000 0.000000 0.000000 0.075594 0.000000 0.000000
# 5 0.000000 0.000000 0.000000 0.000000 0.075594 0.000000
# 6 0.000000 0.000000 0.000000 0.000000 0.000000 0.060086
#
#
# Mechanical properties :
#
#
# Convention : Reuss Voigt Hill
#
# Bulk Modulus (GPa) = 47.39899 50.45157 48.92528
# Shear Modulus (GPa) = 15.53134 16.15822 15.84478
#
# Velocity S-wave (km/s) = 3.35374 3.42075 3.38741
# Velocity P-wave (km/s) = 7.02299 7.22069 7.12253
#
# Compressibility (1/GPa) = 0.02109749
#
# Stress axis : x y z
#
# Youngs Moduli (GPa) = 43.24127 43.24127 62.08081
#
# Poissons Ratio (x) = 0.29911 0.42569
# Poissons Ratio (y) = 0.29911 0.42569
# Poissons Ratio (z) = 0.29651 0.29651
#
# Static dielectric constant tensor:
#      x y z
#    x 2.563040 0.000000 0.000000 
#    y 0.000000 2.563040 0.000000 
#    z 0.000000 0.000000 2.880890 
# 
# 
# High freq. dielectric constant tensor:
#      x y z
#    x 1.490910 0.000000 0.000000 
#    y 0.000000 1.490910 0.000000 
#    z 0.000000 0.000000 1.546410 
# 
# From -- ./inp_files/1563.got.cif
#   From: 2010.03.12/outbox.cif.g09.slc.cpg/sg191_1_cif.got.tgz:1563.got - 2010.04.01 12:09:02.
