data_PCOD8328533
_publ_section_title
;
Structure prediction by ZEFSAII (Michael W. Deem and Ramdas Pophale) SiO2 
 PCOD8328533
Probable space group: P 6/M M M
;
_chemical_formula_sum "Si O2"
_cell_formula_units_Z 180
_cell_length_a 20.762522
_cell_length_b 20.762522
_cell_length_c 31.225060
_cell_angle_alpha 90.000000
_cell_angle_beta 90.000000
_cell_angle_gamma 120.000000
_cell_volume 11657.196696
_symmetry_space_group_name_H-M "P 6/M M M"
_symmetry_group_IT_number 191
_symmetry_cell_setting 'hexagonal'
loop_
_space_group_symop_operation_xyz
x,y,z
x-y,x,z
-y,x-y,z
-x,-y,z
-x+y,-x,z
y,-x+y,z
x-y,-y,-z
-x,-x+y,-z
y,x,-z
-y,-x,-z
-x+y,y,-z
x,x-y,-z
-x,-y,-z
-x+y,-x,-z
y,-x+y,-z
x,y,-z
x-y,x,-z
-y,x-y,-z
-x+y,y,z
x,x-y,z
-y,-x,z
y,x,z
x-y,-y,z
-x,-x+y,z
loop_
_atom_site_type_symbol
_atom_site_label
_atom_site_fract_x
_atom_site_fract_y
_atom_site_fract_z
Si Si1 0.335499 0.521176 0.364642
Si Si2 0.085924 0.439848 0.713325
Si Si3 0.917002 0.534631 0.125379
Si Si4 0.517396 0.184038 0.951340
Si Si5 0.081489 0.776228 0.328761
Si Si6 0.084359 0.773178 0.500000
Si Si7 0.818510 0.484180 0.204100
Si Si8 0.614401 0.698700 0.413577
O O1 0.255884 0.511767 0.352767
O O2 0.393119 0.606882 0.375298
O O3 0.367246 0.495995 0.325184
O O4 0.330408 0.472574 0.406285
O O5 0.090062 0.365292 0.706530
O O6 0.125252 0.479042 0.756886
O O7 0.000000 0.420160 0.714039
O O8 0.923471 0.461736 0.129254
O O9 0.883036 0.537907 0.079481
O O10 0.862128 0.532453 0.162497
O O11 0.000000 0.606395 0.129598
O O12 0.602108 0.204215 0.944189
O O13 0.513523 0.256762 0.939351
O O14 0.491637 0.158340 0.000000
O O15 0.138697 0.861304 0.318079
O O16 0.096912 0.756669 0.376063
O O17 0.000000 0.766662 0.326404
O O18 0.137944 0.862057 0.500000
O O19 0.101846 0.738788 0.541065
O O20 0.000000 0.756886 0.500000
O O21 0.743870 0.487739 0.211123
O O22 0.796424 0.398212 0.199206
O O23 0.629853 0.629853 0.411817
#
# Coordination Sequence:
#
# PCOD8328533 Si02
#       8
#    24  24  24  24  24  12  24  24
#     4  11  21  33  48  66  90 116 144 176 214 260
#     4  10  20  32  48  66  84 110 141 176 213 250
#     4   9  18  30  42  57  78 105 137 173 211 252
#     4   9  16  26  41  60  81 105 135 172 214 259
#     4   9  16  28  45  65  87 110 139 171 206 245
#     4  10  18  30  49  72  95 117 145 179 218 258
#     4  11  21  32  45  61  84 111 140 173 212 259
#     4   9  18  31  49  69  87 111 143 182 218 249
#
# _framework density 15.441103999999999
#
# number of rings (size 3 to 8) (size 9 to 14) (size 15 to 20)
#    0.000    2.267    0.000    6.000    0.000    3.200 
#    0.000    4.333    0.000    1.400    0.000    0.933 
#    0.000    3.200    0.000    0.000    0.000    0.267 
#
# Total GULP energy -2231691.631994 kJ/mol
# GULP energy per Si atom -12398.286844 kJ/mol
# Density = 1.540596 g / cm^3
# Si number density = 15.441104 Si / 1000 Ang^3
#
#
#
# Elastic Constant Matrix: (Units=GPa)
#
#
# Indices 1 2 3 4 5 6 
#
# 1 82.7241 50.3584 30.6432 0.0000 0.0000 0.0000
# 2 50.3584 82.7241 30.6432 0.0000 0.0000 0.0000
# 3 30.6432 30.6432 78.8499 0.0000 0.0000 0.0000
# 4 0.0000 0.0000 0.0000 16.8195 0.0000 0.0000
# 5 0.0000 0.0000 0.0000 0.0000 16.8195 0.0000
# 6 0.0000 0.0000 0.0000 0.0000 0.0000 16.1828
#
#
#
# Elastic Compliance Matrix: (Units=1/GPa)
#
#
# Indices 1 2 3 4 5 6 
#
# 1 0.020024 -0.010872 -0.003557 0.000000 0.000000 0.000000
# 2 -0.010872 0.020024 -0.003557 0.000000 0.000000 0.000000
# 3 -0.003557 -0.003557 0.015447 0.000000 0.000000 0.000000
# 4 0.000000 0.000000 0.000000 0.059455 0.000000 0.000000
# 5 0.000000 0.000000 0.000000 0.000000 0.059455 0.000000
# 6 0.000000 0.000000 0.000000 0.000000 0.000000 0.061794
#
#
# Mechanical properties :
#
#
# Convention : Reuss Voigt Hill
#
# Bulk Modulus (GPa) = 51.21903 51.95418 51.58660
# Shear Modulus (GPa) = 17.94181 18.80794 18.37487
#
# Velocity S-wave (km/s) = 3.41244 3.49383 3.45338
# Velocity P-wave (km/s) = 6.98347 7.07075 7.02725
#
# Compressibility (1/GPa) = 0.01952399
#
# Stress axis : x y z
#
# Youngs Moduli (GPa) = 49.93883 49.93883 64.73822
#
# Poissons Ratio (x) = 0.54296 0.23026
# Poissons Ratio (y) = 0.54296 0.23026
# Poissons Ratio (z) = 0.17762 0.17762
#
# Static dielectric constant tensor:
#      x y z
#    x 2.901150 0.000000 0.000000 
#    y 0.000000 2.901150 0.000000 
#    z 0.000000 0.000000 3.023910 
# 
# 
# High freq. dielectric constant tensor:
#      x y z
#    x 1.576900 0.000000 0.000000 
#    y 0.000000 1.576900 0.000000 
#    z 0.000000 0.000000 1.592560 
# 
# From -- ./inp_files/10872.got.cif
#   From: 2010.03.12/outbox.cif.g09.slc.cpg/sg191_6_cif.got.tgz:10872.got - 2010.04.01 12:09:02.
