data_PCOD8328773
_publ_section_title
;
Structure prediction by ZEFSAII (Michael W. Deem and Ramdas Pophale) SiO2 
 PCOD8328773
Probable space group: P 6/M M M
;
_chemical_formula_sum "Si O2"
_cell_formula_units_Z 108
_cell_length_a 17.723475
_cell_length_b 17.723475
_cell_length_c 26.909207
_cell_angle_alpha 90.000000
_cell_angle_beta 90.000000
_cell_angle_gamma 120.000000
_cell_volume 7320.306836
_symmetry_space_group_name_H-M "P 6/M M M"
_symmetry_group_IT_number 191
_symmetry_cell_setting 'hexagonal'
loop_
_space_group_symop_operation_xyz
x,y,z
x-y,x,z
-y,x-y,z
-x,-y,z
-x+y,-x,z
y,-x+y,z
x-y,-y,-z
-x,-x+y,-z
y,x,-z
-y,-x,-z
-x+y,y,-z
x,x-y,-z
-x,-y,-z
-x+y,-x,-z
y,-x+y,-z
x,y,-z
x-y,x,-z
-y,x-y,-z
-x+y,y,z
x,x-y,z
-y,-x,z
y,x,z
x-y,-y,z
-x,-x+y,z
loop_
_atom_site_type_symbol
_atom_site_label
_atom_site_fract_x
_atom_site_fract_y
_atom_site_fract_z
Si Si1 0.844592 0.509533 0.392033
Si Si2 0.162640 0.665062 0.500000
Si Si3 0.000000 0.589455 0.786847
Si Si4 0.489534 0.157587 0.855052
Si Si5 0.902014 0.266323 0.943347
Si Si6 0.589989 0.589989 0.324811
O O1 0.756336 0.512672 0.386966
O O2 0.822815 0.411408 0.380467
O O3 0.888321 0.539092 0.447656
O O4 0.914006 0.576947 0.352870
O O5 0.237234 0.762766 0.500000
O O6 0.203580 0.601790 0.500000
O O7 0.913489 0.574175 0.815059
O O8 0.000000 0.500000 0.785524
O O9 0.000000 0.622412 0.731083
O O10 0.584643 0.169285 0.855143
O O11 0.497328 0.248664 0.840150
O O12 0.448698 0.125499 0.909542
O O13 0.836770 0.163231 0.933635
O O14 0.000000 0.287894 0.931037
O O15 0.894867 0.291243 0.000000
O O16 0.500000 0.500000 0.325946
#
# Coordination Sequence:
#
# PCOD8328773 Si02
#       6
#    24  12  12  24  24  12
#     4   9  16  26  40  58  80 107 137 169 206 248
#     4   8  13  21  35  55  78 103 133 167 202 243
#     4   9  18  32  44  56  78 106 137 175 215 250
#     4  10  19  31  46  64  85 111 142 176 213 254
#     4   9  17  29  46  68  92 118 146 175 211 257
#     4   9  18  29  40  56  78 103 135 176 214 244
#
# _framework density 14.75348
#
# number of rings (size 3 to 8) (size 9 to 14) (size 15 to 20)
#    0.000    2.889    1.111    0.556    0.000    3.556 
#    0.000    3.333    0.000    4.222    0.000    1.556 
#    0.000    0.000    0.000    0.333    0.000    2.667 
#
# Total GULP energy -1338194.513789 kJ/mol
# GULP energy per Si atom -12390.689942 kJ/mol
# Density = 1.471990 g / cm^3
# Si number density = 14.753480 Si / 1000 Ang^3
#
#
#
# Elastic Constant Matrix: (Units=GPa)
#
#
# Indices 1 2 3 4 5 6 
#
# 1 79.2303 45.6585 50.0797 0.0000 0.0000 0.0000
# 2 45.6585 79.2303 50.0797 0.0000 0.0000 0.0000
# 3 50.0797 50.0797 116.0166 0.0000 0.0000 0.0000
# 4 0.0000 0.0000 0.0000 18.2350 0.0000 0.0000
# 5 0.0000 0.0000 0.0000 0.0000 18.2350 0.0000
# 6 0.0000 0.0000 0.0000 0.0000 0.0000 16.7859
#
#
#
# Elastic Compliance Matrix: (Units=1/GPa)
#
#
# Indices 1 2 3 4 5 6 
#
# 1 0.021017 -0.008770 -0.005286 0.000000 0.000000 0.000000
# 2 -0.008770 0.021017 -0.005286 0.000000 0.000000 0.000000
# 3 -0.005286 -0.005286 0.013183 0.000000 0.000000 0.000000
# 4 0.000000 0.000000 0.000000 0.054840 0.000000 0.000000
# 5 0.000000 0.000000 0.000000 0.000000 0.054840 0.000000
# 6 0.000000 0.000000 0.000000 0.000000 0.000000 0.059574
#
#
# Mechanical properties :
#
#
# Convention : Reuss Voigt Hill
#
# Bulk Modulus (GPa) = 60.49189 62.90146 61.69668
# Shear Modulus (GPa) = 18.61047 19.22848 18.91948
#
# Velocity S-wave (km/s) = 3.55551 3.61407 3.58491
# Velocity P-wave (km/s) = 7.61225 7.75518 7.68405
#
# Compressibility (1/GPa) = 0.01653114
#
# Stress axis : x y z
#
# Youngs Moduli (GPa) = 47.58093 47.58093 75.85318
#
# Poissons Ratio (x) = 0.41729 0.40099
# Poissons Ratio (y) = 0.41729 0.40099
# Poissons Ratio (z) = 0.25153 0.25153
#
# Static dielectric constant tensor:
#      x y z
#    x 2.706660 0.000000 0.000000 
#    y 0.000000 2.706660 0.000000 
#    z 0.000000 0.000000 3.214400 
# 
# 
# High freq. dielectric constant tensor:
#      x y z
#    x 1.538750 0.000000 0.000000 
#    y 0.000000 1.538750 0.000000 
#    z 0.000000 0.000000 1.578510 
# 
# From -- ./inp_files/8484.got.cif
#   From: 2010.03.12/outbox.cif.g09.slc.cpg/sg191_5_cif.got.tgz:8484.got - 2010.04.01 12:09:02.
