data_PCOD8328975
_publ_section_title
;
Structure prediction by ZEFSAII (Michael W. Deem and Ramdas Pophale) SiO2 
 PCOD8328975
Probable space group: P 6/M M M
;
_chemical_formula_sum "Si O2"
_cell_formula_units_Z 120
_cell_length_a 17.891854
_cell_length_b 17.891854
_cell_length_c 24.247110
_cell_angle_alpha 90.000000
_cell_angle_beta 90.000000
_cell_angle_gamma 120.000000
_cell_volume 6722.043300
_symmetry_space_group_name_H-M "P 6/M M M"
_symmetry_group_IT_number 191
_symmetry_cell_setting 'hexagonal'
loop_
_space_group_symop_operation_xyz
x,y,z
x-y,x,z
-y,x-y,z
-x,-y,z
-x+y,-x,z
y,-x+y,z
x-y,-y,-z
-x,-x+y,-z
y,x,-z
-y,-x,-z
-x+y,y,-z
x,x-y,-z
-x,-y,-z
-x+y,-x,-z
y,-x+y,-z
x,y,-z
x-y,x,-z
-y,x-y,-z
-x+y,y,z
x,x-y,z
-y,-x,z
y,x,z
x-y,-y,z
-x,-x+y,z
loop_
_atom_site_type_symbol
_atom_site_label
_atom_site_fract_x
_atom_site_fract_y
_atom_site_fract_z
Si Si1 0.638968 0.736746 0.841422
Si Si2 0.169205 0.000000 0.565669
Si Si3 0.661047 0.000000 0.565341
Si Si4 0.333396 0.840314 0.376941
Si Si5 0.634113 0.531841 0.061143
Si Si6 0.838020 0.504516 0.250298
O O1 0.679586 0.839793 0.834370
O O2 0.716281 0.716281 0.850346
O O3 0.573557 0.708402 0.893206
O O4 0.585984 0.686379 0.787265
O O5 0.169494 0.084747 0.588653
O O6 0.167830 0.000000 0.500000
O O7 0.253974 0.000000 0.587831
O O8 0.660985 0.084381 0.585626
O O9 0.660370 0.000000 0.500000
O O10 0.413150 0.826300 0.390327
O O11 0.247136 0.752865 0.392207
O O12 0.334861 0.866255 0.313267
O O13 0.569884 0.430117 0.073424
O O14 0.579099 0.579099 0.063928
O O15 0.675243 0.543111 0.000000
O O16 0.738136 0.476272 0.241935
O O17 0.850334 0.425167 0.232440
#
# Coordination Sequence:
#
# PCOD8328975 Si02
#       6
#    24  12  12  24  24  24
#     4  10  20  32  48  72 100 132 171 216 262 305
#     4   9  17  31  53  79 105 133 165 202 245 295
#     4  11  23  37  53  77 107 137 168 209 257 301
#     4  10  21  37  56  77 103 136 173 212 255 306
#     4   8  14  26  45  70 100 132 164 199 243 298
#     4   9  18  32  52  77 104 131 161 198 244 295
#
# _framework density 17.851714999999999
#
# number of rings (size 3 to 8) (size 9 to 14) (size 15 to 20)
#    0.000    2.600    0.000    2.600    1.400    5.600 
#    0.000    0.000    0.000    1.800    0.000    0.000 
#    0.000    0.000    0.000    5.000    0.000    0.000 
#
# Total GULP energy -1487840.542492 kJ/mol
# GULP energy per Si atom -12398.671187 kJ/mol
# Density = 1.781108 g / cm^3
# Si number density = 17.851715 Si / 1000 Ang^3
#
#
#
# Elastic Constant Matrix: (Units=GPa)
#
#
# Indices 1 2 3 4 5 6 
#
# 1 105.1463 55.4239 42.0013 0.0000 0.0000 0.0000
# 2 55.4239 105.1463 42.0013 0.0000 0.0000 0.0000
# 3 42.0013 42.0013 71.1881 0.0000 0.0000 0.0000
# 4 0.0000 0.0000 0.0000 20.5732 0.0000 0.0000
# 5 0.0000 0.0000 0.0000 0.0000 20.5732 0.0000
# 6 0.0000 0.0000 0.0000 0.0000 0.0000 24.8612
#
#
#
# Elastic Compliance Matrix: (Units=1/GPa)
#
#
# Indices 1 2 3 4 5 6 
#
# 1 0.014560 -0.005552 -0.005315 0.000000 0.000000 0.000000
# 2 -0.005552 0.014560 -0.005315 0.000000 0.000000 0.000000
# 3 -0.005315 -0.005315 0.020319 0.000000 0.000000 0.000000
# 4 0.000000 0.000000 0.000000 0.048607 0.000000 0.000000
# 5 0.000000 0.000000 0.000000 0.000000 0.048607 0.000000
# 6 0.000000 0.000000 0.000000 0.000000 0.000000 0.040223
#
#
# Mechanical properties :
#
#
# Convention : Reuss Voigt Hill
#
# Bulk Modulus (GPa) = 58.56229 62.25927 60.41078
# Shear Modulus (GPa) = 22.22900 22.67179 22.45039
#
# Velocity S-wave (km/s) = 3.53257 3.56758 3.55012
# Velocity P-wave (km/s) = 7.03668 7.20567 7.12167
#
# Compressibility (1/GPa) = 0.01707583
#
# Stress axis : x y z
#
# Youngs Moduli (GPa) = 68.68131 68.68131 49.21508
#
# Poissons Ratio (x) = 0.38130 0.26158
# Poissons Ratio (y) = 0.38130 0.26158
# Poissons Ratio (z) = 0.36504 0.36504
#
# Static dielectric constant tensor:
#      x y z
#    x 3.207220 0.000000 0.000000 
#    y 0.000000 3.207220 0.000000 
#    z 0.000000 0.000000 3.387530 
# 
# 
# High freq. dielectric constant tensor:
#      x y z
#    x 1.680290 0.000000 0.000000 
#    y 0.000000 1.680290 0.000000 
#    z 0.000000 0.000000 1.686520 
# 
# From -- ./inp_files/8538.got.cif
#   From: 2010.03.12/outbox.cif.g09.slc.cpg/sg191_5_cif.got.tgz:8538.got - 2010.04.01 12:09:02.
