data_PCOD8328851
_publ_section_title
;
Structure prediction by ZEFSAII (Michael W. Deem and Ramdas Pophale) SiO2 
 PCOD8328851
Probable space group: P 6/M M M
;
_chemical_formula_sum "Si O2"
_cell_formula_units_Z 132
_cell_length_a 28.750641
_cell_length_b 28.750641
_cell_length_c 10.334238
_cell_angle_alpha 90.000000
_cell_angle_beta 90.000000
_cell_angle_gamma 120.000000
_cell_volume 7397.826719
_symmetry_space_group_name_H-M "P 6/M M M"
_symmetry_group_IT_number 191
_symmetry_cell_setting 'hexagonal'
loop_
_space_group_symop_operation_xyz
x,y,z
x-y,x,z
-y,x-y,z
-x,-y,z
-x+y,-x,z
y,-x+y,z
x-y,-y,-z
-x,-x+y,-z
y,x,-z
-y,-x,-z
-x+y,y,-z
x,x-y,-z
-x,-y,-z
-x+y,-x,-z
y,-x+y,-z
x,y,-z
x-y,x,-z
-y,x-y,-z
-x+y,y,z
x,x-y,z
-y,-x,z
y,x,z
x-y,-y,z
-x,-x+y,z
loop_
_atom_site_type_symbol
_atom_site_label
_atom_site_fract_x
_atom_site_fract_y
_atom_site_fract_z
Si Si1 0.333416 0.561944 0.647615
Si Si2 0.415343 0.940805 0.500000
Si Si3 0.388446 0.504321 0.242471
Si Si4 0.060564 0.834817 0.353145
Si Si5 0.320110 0.107236 0.848476
Si Si6 0.608839 0.941043 0.854481
O O1 0.333751 0.543227 0.500000
O O2 0.275012 0.550023 0.689856
O O3 0.374593 0.625408 0.658431
O O4 0.350963 0.530757 0.747009
O O5 0.471524 0.943048 0.500000
O O6 0.382560 0.909388 0.624671
O O7 0.423020 0.000000 0.500000
O O8 0.449816 0.550185 0.208941
O O9 0.364942 0.456270 0.140560
O O10 0.067288 0.817890 0.500000
O O11 0.101682 0.898319 0.332867
O O12 0.071701 0.801505 0.244961
O O13 0.000000 0.823179 0.333147
O O14 0.340888 0.170444 0.827161
O O15 0.366924 0.095263 0.799852
O O16 0.304005 0.092023 0.000000
O O17 0.634097 0.000000 0.784897
O O18 0.628228 0.952862 0.000000
#
# Coordination Sequence:
#
# PCOD8328851 Si02
#       6
#    24  12  24  24  24  24
#     4   9  16  28  47  71  97 122 150 187 234 286
#     4   9  16  28  45  62  84 116 149 182 223 267
#     4  10  19  32  48  68  93 121 156 195 232 281
#     4   9  17  30  49  74 104 136 170 210 254 296
#     4   9  18  34  55  75  97 129 168 208 250 298
#     4  10  21  35  50  69  94 125 160 198 239 282
#
# _framework density 17.843077999999998
#
# number of rings (size 3 to 8) (size 9 to 14) (size 15 to 20)
#    0.000    2.636    0.909    1.273    0.000    4.000 
#    1.636    0.909    0.000    0.182    0.000    1.273 
#    0.000    1.455    0.000    4.545    0.000    4.727 
#
# Total GULP energy -1635436.552878 kJ/mol
# GULP energy per Si atom -12389.670855 kJ/mol
# Density = 1.780247 g / cm^3
# Si number density = 17.843078 Si / 1000 Ang^3
#
#
#
# Elastic Constant Matrix: (Units=GPa)
#
#
# Indices 1 2 3 4 5 6 
#
# 1 119.1774 67.8588 26.0412 0.0000 0.0000 0.0000
# 2 67.8588 119.1774 26.0412 0.0000 0.0000 0.0000
# 3 26.0412 26.0412 44.4184 0.0000 0.0000 0.0000
# 4 0.0000 0.0000 0.0000 21.9671 0.0000 0.0000
# 5 0.0000 0.0000 0.0000 0.0000 21.9671 0.0000
# 6 0.0000 0.0000 0.0000 0.0000 0.0000 25.6593
#
#
#
# Elastic Compliance Matrix: (Units=1/GPa)
#
#
# Indices 1 2 3 4 5 6 
#
# 1 0.012938 -0.006548 -0.003746 0.000000 0.000000 0.000000
# 2 -0.006548 0.012938 -0.003746 0.000000 0.000000 0.000000
# 3 -0.003746 -0.003746 0.026906 0.000000 0.000000 0.000000
# 4 0.000000 0.000000 0.000000 0.045523 0.000000 0.000000
# 5 0.000000 0.000000 0.000000 0.000000 0.045523 0.000000
# 6 0.000000 0.000000 0.000000 0.000000 0.000000 0.038972
#
#
# Mechanical properties :
#
#
# Convention : Reuss Voigt Hill
#
# Bulk Modulus (GPa) = 40.48474 58.07284 49.27879
# Shear Modulus (GPa) = 22.81923 24.77415 23.79669
#
# Velocity S-wave (km/s) = 3.58003 3.73023 3.65590
# Velocity P-wave (km/s) = 6.31089 7.15331 6.74527
#
# Compressibility (1/GPa) = 0.02470066
#
# Stress axis : x y z
#
# Youngs Moduli (GPa) = 77.29222 77.29222 37.16695
#
# Poissons Ratio (x) = 0.50613 0.13923
# Poissons Ratio (y) = 0.50613 0.13923
# Poissons Ratio (z) = 0.28954 0.28954
#
# Static dielectric constant tensor:
#      x y z
#    x 3.306440 0.000000 0.000000 
#    y 0.000000 3.306440 0.000000 
#    z 0.000000 0.000000 3.248540 
# 
# 
# High freq. dielectric constant tensor:
#      x y z
#    x 1.684870 0.000000 0.000000 
#    y 0.000000 1.684870 0.000000 
#    z 0.000000 0.000000 1.669960 
# 
# From -- ./inp_files/3351.got.cif
#   From: 2010.03.12/outbox.cif.g09.slc.cpg/sg191_2_cif.got.tgz:3351.got - 2010.04.01 12:09:02.
