data_PCOD8328260
_publ_section_title
;
Structure prediction by ZEFSAII (Michael W. Deem and Ramdas Pophale) SiO2 
 PCOD8328260
Probable space group: P 6/M M M
;
_chemical_formula_sum "Si O2"
_cell_formula_units_Z 180
_cell_length_a 20.940451
_cell_length_b 20.940451
_cell_length_c 31.733238
_cell_angle_alpha 90.000000
_cell_angle_beta 90.000000
_cell_angle_gamma 120.000000
_cell_volume 12050.833403
_symmetry_space_group_name_H-M "P 6/M M M"
_symmetry_group_IT_number 191
_symmetry_cell_setting 'hexagonal'
loop_
_space_group_symop_operation_xyz
x,y,z
x-y,x,z
-y,x-y,z
-x,-y,z
-x+y,-x,z
y,-x+y,z
x-y,-y,-z
-x,-x+y,-z
y,x,-z
-y,-x,-z
-x+y,y,-z
x,x-y,-z
-x,-y,-z
-x+y,-x,-z
y,-x+y,-z
x,y,-z
x-y,x,-z
-y,x-y,-z
-x+y,y,z
x,x-y,z
-y,-x,z
y,x,z
x-y,-y,z
-x,-x+y,z
loop_
_atom_site_type_symbol
_atom_site_label
_atom_site_fract_x
_atom_site_fract_y
_atom_site_fract_z
Si Si1 0.666725 0.181521 0.254688
Si Si2 0.534673 0.617014 0.575222
Si Si3 0.523062 0.335286 0.103297
Si Si4 0.182994 0.515351 0.500000
Si Si5 0.082269 0.465400 0.669035
Si Si6 0.393741 0.122446 0.954147
Si Si7 0.346618 0.913648 0.175084
Si Si8 0.224916 0.304086 0.126413
O O1 0.597526 0.195051 0.253270
O O2 0.740500 0.259501 0.248368
O O3 0.671526 0.144522 0.298409
O O4 0.658687 0.123113 0.219724
O O5 0.458818 0.541183 0.573451
O O6 0.600652 0.600652 0.564269
O O7 0.532383 0.672507 0.541152
O O8 0.546579 0.651650 0.622140
O O9 0.512359 0.256180 0.116937
O O10 0.608347 0.391654 0.093517
O O11 0.476744 0.327731 0.061242
O O12 0.496867 0.368262 0.140821
O O13 0.264686 0.529371 0.500000
O O14 0.187985 0.593993 0.500000
O O15 0.078812 0.539406 0.670321
O O16 0.000000 0.398054 0.680425
O O17 0.382676 0.191338 0.959751
O O18 0.337085 0.071580 0.918304
O O19 0.380345 0.082549 0.000000
O O20 0.266967 0.902886 0.162853
O O21 0.408848 0.000000 0.176402
O O22 0.139441 0.278881 0.126346
O O23 0.231894 0.231894 0.134931
#
# Coordination Sequence:
#
# PCOD8328260 Si02
#       8
#    24  24  24  12  24  24  24  24
#     4  11  21  31  43  60  84 110 134 162 202 253
#     4   8  14  26  42  56  70  94 132 171 202 235
#     4  10  19  30  44  62  85 110 135 166 207 254
#     4  10  18  25  35  53  78 105 130 162 207 256
#     4   8  15  28  44  59  74  96 130 169 202 235
#     4   8  15  28  43  59  81 108 137 166 191 219
#     4  10  20  33  48  62  77 102 138 177 207 231
#     4   9  17  30  48  68  88 109 134 165 201 239
#
# _framework density 14.936726999999999
#
# number of rings (size 3 to 8) (size 9 to 14) (size 15 to 20)
#    0.000    2.800    0.000    4.133    0.000    3.467 
#    0.000    1.333    0.000    2.533    0.000    3.733 
#    0.000    0.000    0.000    3.333    0.000    0.000 
#
# Total GULP energy -2230483.717400 kJ/mol
# GULP energy per Si atom -12391.576208 kJ/mol
# Density = 1.490273 g / cm^3
# Si number density = 14.936727 Si / 1000 Ang^3
#
#
#
# Elastic Constant Matrix: (Units=GPa)
#
#
# Indices 1 2 3 4 5 6 
#
# 1 62.2895 36.3356 24.9010 0.0000 0.0000 0.0000
# 2 36.3356 62.2895 24.9010 0.0000 0.0000 0.0000
# 3 24.9010 24.9010 77.5508 0.0000 0.0000 0.0000
# 4 0.0000 0.0000 0.0000 14.0918 0.0000 0.0000
# 5 0.0000 0.0000 0.0000 0.0000 14.0918 0.0000
# 6 0.0000 0.0000 0.0000 0.0000 0.0000 12.9770
#
#
#
# Elastic Compliance Matrix: (Units=1/GPa)
#
#
# Indices 1 2 3 4 5 6 
#
# 1 0.025316 -0.013214 -0.003886 0.000000 0.000000 0.000000
# 2 -0.013214 0.025316 -0.003886 0.000000 0.000000 0.000000
# 3 -0.003886 -0.003886 0.015390 0.000000 0.000000 0.000000
# 4 0.000000 0.000000 0.000000 0.070963 0.000000 0.000000
# 5 0.000000 0.000000 0.000000 0.000000 0.070963 0.000000
# 6 0.000000 0.000000 0.000000 0.000000 0.000000 0.077060
#
#
# Mechanical properties :
#
#
# Convention : Reuss Voigt Hill
#
# Bulk Modulus (GPa) = 41.57943 41.60054 41.58999
# Shear Modulus (GPa) = 14.92557 15.96492 15.44525
#
# Velocity S-wave (km/s) = 3.16453 3.27285 3.21915
# Velocity P-wave (km/s) = 6.42260 6.49567 6.45924
#
# Compressibility (1/GPa) = 0.02405035
#
# Stress axis : x y z
#
# Youngs Moduli (GPa) = 39.50116 39.50116 64.97664
#
# Poissons Ratio (x) = 0.52197 0.25248
# Poissons Ratio (y) = 0.52197 0.25248
# Poissons Ratio (z) = 0.15349 0.15349
#
# Static dielectric constant tensor:
#      x y z
#    x 2.698590 0.000000 0.000000 
#    y 0.000000 2.698590 0.000000 
#    z 0.000000 0.000000 3.491340 
# 
# 
# High freq. dielectric constant tensor:
#      x y z
#    x 1.546960 0.000000 0.000000 
#    y 0.000000 1.546960 0.000000 
#    z 0.000000 0.000000 1.578400 
# 
# From -- ./inp_files/10876.got.cif
#   From: 2010.03.12/outbox.cif.g09.slc.cpg/sg191_6_cif.got.tgz:10876.got - 2010.04.01 12:09:02.
