data_PCOD8328297
_publ_section_title
;
Structure prediction by ZEFSAII (Michael W. Deem and Ramdas Pophale) SiO2 
 PCOD8328297
Probable space group: P 6/M M M
;
_chemical_formula_sum "Si O2"
_cell_formula_units_Z 132
_cell_length_a 19.293631
_cell_length_b 19.293631
_cell_length_c 27.727470
_cell_angle_alpha 90.000000
_cell_angle_beta 90.000000
_cell_angle_gamma 120.000000
_cell_volume 8938.585777
_symmetry_space_group_name_H-M "P 6/M M M"
_symmetry_group_IT_number 191
_symmetry_cell_setting 'hexagonal'
loop_
_space_group_symop_operation_xyz
x,y,z
x-y,x,z
-y,x-y,z
-x,-y,z
-x+y,-x,z
y,-x+y,z
x-y,-y,-z
-x,-x+y,-z
y,x,-z
-y,-x,-z
-x+y,y,-z
x,x-y,-z
-x,-y,-z
-x+y,-x,-z
y,-x+y,-z
x,y,-z
x-y,x,-z
-y,x-y,-z
-x+y,y,z
x,x-y,z
-y,-x,z
y,x,z
x-y,-y,z
-x,-x+y,z
loop_
_atom_site_type_symbol
_atom_site_label
_atom_site_fract_x
_atom_site_fract_y
_atom_site_fract_z
Si Si1 0.750500 0.091483 0.056980
Si Si2 0.492987 0.668893 0.594503
Si Si3 0.373605 0.461402 0.312649
Si Si4 0.666483 0.171398 0.889939
Si Si5 0.537556 0.627879 0.500000
Si Si6 0.173311 0.507015 0.218742
O O1 0.841974 0.158027 0.073624
O O2 0.686811 0.115032 0.077577
O O3 0.724874 0.000000 0.073308
O O4 0.744733 0.094231 0.000000
O O5 0.460896 0.730448 0.590800
O O6 0.419606 0.580395 0.594648
O O7 0.541704 0.684459 0.644523
O O8 0.547530 0.679397 0.547978
O O9 0.455498 0.544503 0.313963
O O10 0.388065 0.388065 0.322496
O O11 0.335922 0.448442 0.259192
O O12 0.582129 0.164257 0.905943
O O13 0.735668 0.264333 0.894229
O O14 0.660556 0.139643 0.835205
O O15 0.609032 0.609032 0.500000
O O16 0.451956 0.548045 0.500000
O O17 0.253177 0.506353 0.227355
O O18 0.193729 0.596865 0.227578
#
# Coordination Sequence:
#
# PCOD8328297 Si02
#       6
#    24  24  24  24  12  24
#     4   9  18  32  48  65  85 109 137 170 210 254
#     4  10  18  27  39  54  71  90 116 151 189 225
#     4   9  17  27  37  50  70  96 124 154 191 234
#     4   9  17  28  42  61  86 116 147 177 208 242
#     4   9  17  28  40  52  68  91 114 138 176 224
#     4   9  16  26  40  57  77 101 131 167 204 236
#
# _framework density 14.767436999999999
#
# number of rings (size 3 to 8) (size 9 to 14) (size 15 to 20)
#    0.000    2.818    0.000    1.909    0.000    5.091 
#    0.000    5.455    0.000    1.273    0.000    1.273 
#    0.000    0.000    0.000    0.000    0.000    0.000 
#
# Total GULP energy -1635654.098996 kJ/mol
# GULP energy per Si atom -12391.318932 kJ/mol
# Density = 1.473383 g / cm^3
# Si number density = 14.767437 Si / 1000 Ang^3
#
#
#
# Elastic Constant Matrix: (Units=GPa)
#
#
# Indices 1 2 3 4 5 6 
#
# 1 57.2860 33.9119 28.4860 0.0000 0.0000 0.0000
# 2 33.9119 57.2860 28.4860 0.0000 0.0000 0.0000
# 3 28.4860 28.4860 51.3580 0.0000 0.0000 0.0000
# 4 0.0000 0.0000 0.0000 18.5819 0.0000 0.0000
# 5 0.0000 0.0000 0.0000 0.0000 18.5819 0.0000
# 6 0.0000 0.0000 0.0000 0.0000 0.0000 11.6871
#
#
#
# Elastic Compliance Matrix: (Units=1/GPa)
#
#
# Indices 1 2 3 4 5 6 
#
# 1 0.029781 -0.013002 -0.009307 0.000000 0.000000 0.000000
# 2 -0.013002 0.029781 -0.009307 0.000000 0.000000 0.000000
# 3 -0.009307 -0.009307 0.029795 0.000000 0.000000 0.000000
# 4 0.000000 0.000000 0.000000 0.053816 0.000000 0.000000
# 5 0.000000 0.000000 0.000000 0.000000 0.053816 0.000000
# 6 0.000000 0.000000 0.000000 0.000000 0.000000 0.085565
#
#
# Mechanical properties :
#
#
# Convention : Reuss Voigt Hill
#
# Bulk Modulus (GPa) = 38.27484 38.63306 38.45395
# Shear Modulus (GPa) = 14.10472 14.77327 14.43899
#
# Velocity S-wave (km/s) = 3.09386 3.16633 3.13031
# Velocity P-wave (km/s) = 6.22393 6.29169 6.25790
#
# Compressibility (1/GPa) = 0.02612682
#
# Stress axis : x y z
#
# Youngs Moduli (GPa) = 33.57877 33.57877 33.56264
#
# Poissons Ratio (x) = 0.43658 0.31235
# Poissons Ratio (y) = 0.43658 0.31235
# Poissons Ratio (z) = 0.31250 0.31250
#
# Static dielectric constant tensor:
#      x y z
#    x 2.733390 0.000000 0.000000 
#    y 0.000000 2.733390 0.000000 
#    z 0.000000 0.000000 3.198760 
# 
# 
# High freq. dielectric constant tensor:
#      x y z
#    x 1.533270 0.000000 0.000000 
#    y 0.000000 1.533270 0.000000 
#    z 0.000000 0.000000 1.582070 
# 
# From -- ./inp_files/10374.got.cif
#   From: 2010.03.12/outbox.cif.g09.slc.cpg/sg191_6_cif.got.tgz:10374.got - 2010.04.01 12:09:02.
