data_PCOD8328429
_publ_section_title
;
Structure prediction by ZEFSAII (Michael W. Deem and Ramdas Pophale) SiO2 
 PCOD8328429
Probable space group: P 6/M M M
;
_chemical_formula_sum "Si O2"
_cell_formula_units_Z 168
_cell_length_a 22.724637
_cell_length_b 22.724637
_cell_length_c 20.984628
_cell_angle_alpha 90.000000
_cell_angle_beta 90.000000
_cell_angle_gamma 120.000000
_cell_volume 9384.817155
_symmetry_space_group_name_H-M "P 6/M M M"
_symmetry_group_IT_number 191
_symmetry_cell_setting 'hexagonal'
loop_
_space_group_symop_operation_xyz
x,y,z
x-y,x,z
-y,x-y,z
-x,-y,z
-x+y,-x,z
y,-x+y,z
x-y,-y,-z
-x,-x+y,-z
y,x,-z
-y,-x,-z
-x+y,y,-z
x,x-y,-z
-x,-y,-z
-x+y,-x,-z
y,-x+y,-z
x,y,-z
x-y,x,-z
-y,x-y,-z
-x+y,y,z
x,x-y,z
-y,-x,z
y,x,z
x-y,-y,z
-x,-x+y,z
loop_
_atom_site_type_symbol
_atom_site_label
_atom_site_fract_x
_atom_site_fract_y
_atom_site_fract_z
Si Si1 0.283184 0.207808 0.254224
Si Si2 0.588830 0.921765 0.692094
Si Si3 0.850953 0.283568 0.071170
Si Si4 0.569153 0.852483 0.570034
Si Si5 0.076419 0.792284 0.108358
Si Si6 0.199088 0.926834 0.571945
Si Si7 0.391522 0.921832 0.177638
O O1 0.260317 0.130159 0.270460
O O2 0.219222 0.219222 0.265312
O O3 0.345803 0.257482 0.299600
O O4 0.307858 0.225886 0.181556
O O5 0.543496 0.877469 0.631080
O O6 0.542751 0.895231 0.755229
O O7 0.611535 0.000000 0.679931
O O8 0.776009 0.223992 0.091567
O O9 0.902015 0.253657 0.068262
O O10 0.875550 0.345052 0.120285
O O11 0.849638 0.310263 0.000000
O O12 0.541025 0.859284 0.500000
O O13 0.549403 0.774702 0.579919
O O14 0.649184 0.903100 0.570271
O O15 0.127419 0.872582 0.094870
O O16 0.000000 0.773929 0.090048
O O17 0.181157 0.935013 0.500000
O O18 0.129526 0.870475 0.606762
O O19 0.230702 0.000000 0.607580
O O20 0.457110 0.914220 0.179814
O O21 0.411210 0.000000 0.166170
#
# Coordination Sequence:
#
# PCOD8328429 Si02
#       7
#    24  24  24  24  24  24  24
#     4   9  16  26  42  64  90 123 164 208 253 298
#     4  10  18  28  45  67  92 125 162 200 243 293
#     4  10  20  33  52  78 105 134 169 208 249 292
#     4   9  17  27  41  65  93 118 148 190 241 292
#     4   9  16  27  43  65  95 129 168 213 259 303
#     4   8  13  21  32  47  71 104 141 182 230 283
#     4  10  21  36  53  76 106 137 168 200 239 291
#
# _framework density 17.901254999999999
#
# number of rings (size 3 to 8) (size 9 to 14) (size 15 to 20)
#    0.000    2.714    1.429    2.143    0.000    2.857 
#    0.000    0.714    0.000    1.143    0.000    5.000 
#    0.000    0.000    0.000    8.143    0.000   31.857 
#
# Total GULP energy -2081704.691593 kJ/mol
# GULP energy per Si atom -12391.099355 kJ/mol
# Density = 1.786051 g / cm^3
# Si number density = 17.901255 Si / 1000 Ang^3
#
#
#
# Elastic Constant Matrix: (Units=GPa)
#
#
# Indices 1 2 3 4 5 6 
#
# 1 53.1381 20.0175 32.0511 0.0000 0.0000 0.0000
# 2 20.0175 53.1381 32.0511 0.0000 0.0000 0.0000
# 3 32.0511 32.0511 129.3937 0.0000 0.0000 0.0000
# 4 0.0000 0.0000 0.0000 8.1815 0.0000 0.0000
# 5 0.0000 0.0000 0.0000 0.0000 8.1815 0.0000
# 6 0.0000 0.0000 0.0000 0.0000 0.0000 16.5603
#
#
#
# Elastic Compliance Matrix: (Units=1/GPa)
#
#
# Indices 1 2 3 4 5 6 
#
# 1 0.023826 -0.006367 -0.004325 0.000000 0.000000 0.000000
# 2 -0.006367 0.023826 -0.004325 0.000000 0.000000 0.000000
# 3 -0.004325 -0.004325 0.009871 0.000000 0.000000 0.000000
# 4 0.000000 0.000000 0.000000 0.122227 0.000000 0.000000
# 5 0.000000 0.000000 0.000000 0.000000 0.122227 0.000000
# 6 0.000000 0.000000 0.000000 0.000000 0.000000 0.060385
#
#
# Mechanical properties :
#
#
# Convention : Reuss Voigt Hill
#
# Bulk Modulus (GPa) = 36.37666 44.87881 40.62773
# Shear Modulus (GPa) = 12.45152 16.68800 14.56976
#
# Velocity S-wave (km/s) = 2.64022 3.05655 2.85598
# Velocity P-wave (km/s) = 5.44603 6.13036 5.79830
#
# Compressibility (1/GPa) = 0.02749016
#
# Stress axis : x y z
#
# Youngs Moduli (GPa) = 41.97131 41.97131 101.30907
#
# Poissons Ratio (x) = 0.26723 0.43812
# Poissons Ratio (y) = 0.26723 0.43812
# Poissons Ratio (z) = 0.18151 0.18151
#
# Static dielectric constant tensor:
#      x y z
#    x 3.083580 0.000000 0.000000 
#    y 0.000000 3.083580 0.000000 
#    z 0.000000 0.000000 3.733020 
# 
# 
# High freq. dielectric constant tensor:
#      x y z
#    x 1.653430 0.000000 0.000000 
#    y 0.000000 1.653430 0.000000 
#    z 0.000000 0.000000 1.717370 
# 
# From -- ./inp_files/7941.got.cif
#   From: 2010.03.12/outbox.cif.g09.slc.cpg/sg191_4_cif.got.tgz:7941.got - 2010.04.01 12:09:02.
