data_PCOD8328718
_publ_section_title
;
Structure prediction by ZEFSAII (Michael W. Deem and Ramdas Pophale) SiO2 
 PCOD8328718
Probable space group: P 6/M M M
;
_chemical_formula_sum "Si O2"
_cell_formula_units_Z 120
_cell_length_a 18.187434
_cell_length_b 18.187434
_cell_length_c 25.101507
_cell_angle_alpha 90.000000
_cell_angle_beta 90.000000
_cell_angle_gamma 120.000000
_cell_volume 7190.735067
_symmetry_space_group_name_H-M "P 6/M M M"
_symmetry_group_IT_number 191
_symmetry_cell_setting 'hexagonal'
loop_
_space_group_symop_operation_xyz
x,y,z
x-y,x,z
-y,x-y,z
-x,-y,z
-x+y,-x,z
y,-x+y,z
x-y,-y,-z
-x,-x+y,-z
y,x,-z
-y,-x,-z
-x+y,y,-z
x,x-y,-z
-x,-y,-z
-x+y,-x,-z
y,-x+y,-z
x,y,-z
x-y,x,-z
-y,x-y,-z
-x+y,y,z
x,x-y,z
-y,-x,z
y,x,z
x-y,-y,z
-x,-x+y,z
loop_
_atom_site_type_symbol
_atom_site_label
_atom_site_fract_x
_atom_site_fract_y
_atom_site_fract_z
Si Si1 0.833411 0.502136 0.410967
Si Si2 0.095551 0.357206 0.912988
Si Si3 0.637486 0.733732 0.500000
Si Si4 0.351277 0.094976 0.791665
Si Si5 0.163149 0.668195 0.000000
Si Si6 0.098934 0.466804 0.297392
O O1 0.734953 0.469905 0.423551
O O2 0.852612 0.426306 0.422006
O O3 0.892831 0.581086 0.448234
O O4 0.851758 0.533495 0.350125
O O5 0.162229 0.324457 0.925548
O O6 0.101721 0.385603 0.851622
O O7 0.118003 0.439501 0.947790
O O8 0.000000 0.281482 0.926207
O O9 0.717780 0.717780 0.500000
O O10 0.670009 0.835005 0.500000
O O11 0.310920 0.155460 0.784228
O O12 0.430724 0.126015 0.752384
O O13 0.277299 0.000000 0.778177
O O14 0.262868 0.737133 0.000000
O O15 0.150044 0.575022 0.000000
O O16 0.124289 0.562145 0.281697
O O17 0.000000 0.410627 0.310000
#
# Coordination Sequence:
#
# PCOD8328718 Si02
#       6
#    24  24  12  24  12  24
#     4  10  19  30  45  66  94 126 158 189 220 256
#     4   9  18  31  47  67  90 117 148 184 225 267
#     4  10  21  35  51  70  91 117 148 184 225 269
#     4   9  17  30  47  66  89 117 150 186 225 269
#     4  10  20  33  48  67  92 120 149 180 216 257
#     4   9  17  28  43  64  89 118 153 192 229 263
#
# _framework density 16.688141000000002
#
# number of rings (size 3 to 8) (size 9 to 14) (size 15 to 20)
#    0.000    2.600    0.000    2.100    0.000    3.200 
#    0.000    3.000    0.000    0.900    0.000    2.800 
#    0.000    2.400    0.000    6.600    0.000    4.400 
#
# Total GULP energy -1487695.045653 kJ/mol
# GULP energy per Si atom -12397.458714 kJ/mol
# Density = 1.665016 g / cm^3
# Si number density = 16.688141 Si / 1000 Ang^3
#
#
#
# Elastic Constant Matrix: (Units=GPa)
#
#
# Indices 1 2 3 4 5 6 
#
# 1 99.7210 63.0495 50.7479 0.0000 0.0000 0.0000
# 2 63.0495 99.7210 50.7479 0.0000 0.0000 0.0000
# 3 50.7479 50.7479 88.9412 0.0000 0.0000 0.0000
# 4 0.0000 0.0000 0.0000 23.3624 0.0000 0.0000
# 5 0.0000 0.0000 0.0000 0.0000 23.3624 0.0000
# 6 0.0000 0.0000 0.0000 0.0000 0.0000 18.3358
#
#
#
# Elastic Compliance Matrix: (Units=1/GPa)
#
#
# Indices 1 2 3 4 5 6 
#
# 1 0.018403 -0.008866 -0.005441 0.000000 0.000000 0.000000
# 2 -0.008866 0.018403 -0.005441 0.000000 0.000000 0.000000
# 3 -0.005441 -0.005441 0.017453 0.000000 0.000000 0.000000
# 4 0.000000 0.000000 0.000000 0.042804 0.000000 0.000000
# 5 0.000000 0.000000 0.000000 0.000000 0.042804 0.000000
# 6 0.000000 0.000000 0.000000 0.000000 0.000000 0.054538
#
#
# Mechanical properties :
#
#
# Convention : Reuss Voigt Hill
#
# Bulk Modulus (GPa) = 67.74820 68.60820 68.17820
# Shear Modulus (GPa) = 20.93606 21.26800 21.10203
#
# Velocity S-wave (km/s) = 3.54580 3.57380 3.55983
# Velocity P-wave (km/s) = 7.57947 7.63090 7.60523
#
# Compressibility (1/GPa) = 0.01476054
#
# Stress axis : x y z
#
# Youngs Moduli (GPa) = 54.33944 54.33944 57.29726
#
# Poissons Ratio (x) = 0.48179 0.31178
# Poissons Ratio (y) = 0.48179 0.31178
# Poissons Ratio (z) = 0.29568 0.29568
#
# Static dielectric constant tensor:
#      x y z
#    x 3.072110 0.000000 0.000000 
#    y 0.000000 3.072110 0.000000 
#    z 0.000000 0.000000 3.317230 
# 
# 
# High freq. dielectric constant tensor:
#      x y z
#    x 1.628410 0.000000 0.000000 
#    y 0.000000 1.628410 0.000000 
#    z 0.000000 0.000000 1.658660 
# 
# From -- ./inp_files/8544.got.cif
#   From: 2010.03.12/outbox.cif.g09.slc.cpg/sg191_5_cif.got.tgz:8544.got - 2010.04.01 12:09:02.
