data_PCOD8328186
_publ_section_title
;
Structure prediction by ZEFSAII (Michael W. Deem and Ramdas Pophale) SiO2 
 PCOD8328186
Probable space group: P -6 2 C
;
_chemical_formula_sum "Si O2"
_cell_formula_units_Z 48
_cell_length_a 13.690925
_cell_length_b 13.690925
_cell_length_c 18.964727
_cell_angle_alpha 90.000000
_cell_angle_beta 90.000000
_cell_angle_gamma 120.000000
_cell_volume 3078.525886
_symmetry_space_group_name_H-M "P -6 2 C"
_symmetry_group_IT_number 190
_symmetry_cell_setting 'hexagonal'
loop_
_space_group_symop_operation_xyz
x,y,z
-x+y,-x,1/2-z
-y,x-y,z
x,y,1/2-z
-x+y,-x,z
-y,x-y,1/2-z
x-y,-y,-z
-x,-x+y,-z
y,x,-z
y,x,1/2+z
x-y,-y,1/2+z
-x,-x+y,1/2+z
loop_
_atom_site_type_symbol
_atom_site_label
_atom_site_fract_x
_atom_site_fract_y
_atom_site_fract_z
Si Si1 0.122992 0.667257 0.972600
Si Si2 0.122992 0.455736 0.472600
Si Si3 0.457900 0.664956 0.172223
Si Si4 0.335043 0.542100 0.672223
O O1 0.122992 0.664332 0.887167
O O2 0.208294 0.791706 0.000000
O O3 0.162298 0.581149 0.000000
O O4 0.000000 0.634254 0.000000
O O5 0.122992 0.458660 0.387167
O O6 0.000000 0.365746 0.500000
O O7 0.444580 0.776378 0.164291
O O8 0.506871 0.663778 0.250000
O O9 0.444580 0.668201 0.664291
O O10 0.336221 0.493128 0.750000
#
# Coordination Sequence:
#
# PCOD8328186 Si02
#       4
#    12  12  12  12
#     4  11  19  30  48  70  95 126 160 195 238 287
#     4  11  19  30  48  70  95 126 160 195 238 287
#     4   8  14  27  47  67  95 126 153 196 238 279
#     4   8  14  27  47  67  95 126 153 196 238 279
#
# _framework density 15.591877999999999
#
# number of rings (size 3 to 8) (size 9 to 14) (size 15 to 20)
#    1.000    1.500    5.000    0.500    0.000    0.000 
#    0.000    7.500    0.000    0.500    0.000    0.000 
#    0.000    0.000    0.000    4.500    0.000    0.000 
#
# Total GULP energy -594676.388790 kJ/mol
# GULP energy per Si atom -12389.091433 kJ/mol
# Density = 1.555639 g / cm^3
# Si number density = 15.591878 Si / 1000 Ang^3
#
#
#
# Elastic Constant Matrix: (Units=GPa)
#
#
# Indices 1 2 3 4 5 6 
#
# 1 68.3441 39.4452 47.5499 0.0000 0.0000 0.0000
# 2 39.4452 68.3441 47.5499 0.0000 0.0000 0.0000
# 3 47.5499 47.5499 181.4554 0.0000 0.0000 0.0000
# 4 0.0000 0.0000 0.0000 15.5821 0.0000 0.0000
# 5 0.0000 0.0000 0.0000 0.0000 15.5821 0.0000
# 6 0.0000 0.0000 0.0000 0.0000 0.0000 14.4494
#
#
#
# Elastic Compliance Matrix: (Units=1/GPa)
#
#
# Indices 1 2 3 4 5 6 
#
# 1 0.023335 -0.011268 -0.003162 0.000000 0.000000 0.000000
# 2 -0.011268 0.023335 -0.003162 0.000000 0.000000 0.000000
# 3 -0.003162 -0.003162 0.007168 0.000000 0.000000 0.000000
# 4 0.000000 0.000000 0.000000 0.064176 0.000000 0.000000
# 5 0.000000 0.000000 0.000000 0.000000 0.064176 0.000000
# 6 0.000000 0.000000 0.000000 0.000000 0.000000 0.069207
#
#
# Mechanical properties :
#
#
# Convention : Reuss Voigt Hill
#
# Bulk Modulus (GPa) = 53.60763 65.24820 59.42792
# Shear Modulus (GPa) = 17.07645 21.36265 19.21955
#
# Velocity S-wave (km/s) = 3.31299 3.70552 3.51474
# Velocity P-wave (km/s) = 7.00649 7.76185 7.39382
#
# Compressibility (1/GPa) = 0.01865406
#
# Stress axis : x y z
#
# Youngs Moduli (GPa) = 42.85342 42.85342 139.50329
#
# Poissons Ratio (x) = 0.48288 0.44114
# Poissons Ratio (y) = 0.48288 0.44114
# Poissons Ratio (z) = 0.13551 0.13551
#
# Static dielectric constant tensor:
#      x y z
#    x 2.510920 0.000000 0.000000 
#    y 0.000000 2.510920 0.000000 
#    z 0.000000 0.000000 3.181880 
# 
# 
# High freq. dielectric constant tensor:
#      x y z
#    x 1.546530 0.000000 0.000000 
#    y 0.000000 1.546530 0.000000 
#    z 0.000000 0.000000 1.626680 
# 
# From -- ./inp_files/4135.got.cif
#   From: 2010.06.25/outbox.cif.g09.slc.cpg/sg190_3_cif.got.tgz:4135.got - 2010.06.28 13:08:06.
