data_PCOD8328896
_publ_section_title
;
Structure prediction by ZEFSAII (Michael W. Deem and Ramdas Pophale) SiO2 
 PCOD8328896
Probable space group: P 6/M M M
;
_chemical_formula_sum "Si O2"
_cell_formula_units_Z 112
_cell_length_a 20.805796
_cell_length_b 20.805796
_cell_length_c 16.759674
_cell_angle_alpha 90.000000
_cell_angle_beta 90.000000
_cell_angle_gamma 120.000000
_cell_volume 6282.968325
_symmetry_space_group_name_H-M "P 6/M M M"
_symmetry_group_IT_number 191
_symmetry_cell_setting 'hexagonal'
loop_
_space_group_symop_operation_xyz
x,y,z
x-y,x,z
-y,x-y,z
-x,-y,z
-x+y,-x,z
y,-x+y,z
x-y,-y,-z
-x,-x+y,-z
y,x,-z
-y,-x,-z
-x+y,y,-z
x,x-y,-z
-x,-y,-z
-x+y,-x,-z
y,-x+y,-z
x,y,-z
x-y,x,-z
-y,x-y,-z
-x+y,y,z
x,x-y,z
-y,-x,z
y,x,z
x-y,-y,z
-x,-x+y,z
loop_
_atom_site_type_symbol
_atom_site_label
_atom_site_fract_x
_atom_site_fract_y
_atom_site_fract_z
Si Si1 0.417555 0.835110 0.362765
Si Si2 0.082653 0.770440 0.500000
Si Si3 0.084534 0.682486 0.813593
Si Si4 0.662741 0.831371 0.094477
Si Si5 0.666667 0.333334 0.594651
Si Si6 0.569806 0.859191 0.633526
Si Si7 0.458418 0.916835 0.795136
Si Si8 0.915802 0.831603 0.904983
O O1 0.374056 0.748112 0.371062
O O2 0.367673 0.868359 0.398605
O O3 0.426171 0.852342 0.269495
O O4 0.141751 0.858250 0.500000
O O5 0.091301 0.731215 0.578405
O O6 0.000000 0.758892 0.500000
O O7 0.128563 0.747824 0.875177
O O8 0.114943 0.705219 0.724199
O O9 0.092030 0.612184 0.844956
O O10 0.000000 0.663281 0.814435
O O11 0.747242 0.873621 0.127046
O O12 0.661917 0.830959 0.000000
O O13 0.666667 0.333334 0.500000
O O14 0.546002 0.773001 0.625956
O O15 0.500000 0.000000 0.755625
O O16 0.873653 0.873653 0.872101
O O17 0.916188 0.832376 0.000000
#
# Coordination Sequence:
#
# PCOD8328896 Si02
#       8
#    12  12  24  12   4  24  12  12
#     4  10  20  32  50  72 107 147 187 225 266 302
#     4  10  22  37  57  82 111 143 183 229 273 325
#     4  10  19  35  55  76 106 138 173 218 268 325
#     4  11  22  34  53  80 105 133 172 221 271 324
#     4  12  24  27  45  66 102 150 196 221 259 318
#     4  10  19  33  53  78 109 145 184 223 265 312
#     4   8  18  34  55  76  96 131 178 223 271 325
#     4   9  17  30  48  73 105 138 168 198 244 311
#
# _framework density 17.825969000000001
#
# number of rings (size 3 to 8) (size 9 to 14) (size 15 to 20)
#    0.000    2.143    2.143    1.393    1.500    2.571 
#    0.000    1.071    0.000    2.464    0.000    0.000 
#    0.000    0.000    0.000    0.000    0.000    0.000 
#
# Total GULP energy -1388109.971640 kJ/mol
# GULP energy per Si atom -12393.839033 kJ/mol
# Density = 1.778540 g / cm^3
# Si number density = 17.825969 Si / 1000 Ang^3
#
#
#
# Elastic Constant Matrix: (Units=GPa)
#
#
# Indices 1 2 3 4 5 6 
#
# 1 128.2799 70.7504 36.4790 0.0000 0.0000 0.0001
# 2 70.7504 128.2798 36.4790 0.0000 0.0000 0.0001
# 3 36.4790 36.4790 57.5875 0.0000 0.0000 0.0000
# 4 0.0000 0.0000 0.0000 12.5794 0.0000 0.0000
# 5 0.0000 0.0000 0.0000 0.0000 12.5795 0.0000
# 6 0.0001 0.0001 0.0000 0.0000 0.0000 28.7647
#
#
#
# Elastic Compliance Matrix: (Units=1/GPa)
#
#
# Indices 1 2 3 4 5 6 
#
# 1 0.011963 -0.005419 -0.004145 0.000000 0.000000 0.000000
# 2 -0.005419 0.011963 -0.004145 0.000000 0.000000 0.000000
# 3 -0.004145 -0.004145 0.022617 0.000000 0.000000 0.000000
# 4 0.000000 0.000000 0.000000 0.079495 0.000000 0.000000
# 5 0.000000 0.000000 0.000000 0.000000 0.079495 0.000000
# 6 0.000000 0.000000 0.000000 0.000000 0.000000 0.034765
#
#
# Mechanical properties :
#
#
# Convention : Reuss Voigt Hill
#
# Bulk Modulus (GPa) = 52.29222 66.84045 59.56633
# Shear Modulus (GPa) = 18.24211 22.14731 20.19471
#
# Velocity S-wave (km/s) = 3.20245 3.52862 3.36948
# Velocity P-wave (km/s) = 6.56298 7.36064 6.97323
#
# Compressibility (1/GPa) = 0.01912330
#
# Stress axis : x y z
#
# Youngs Moduli (GPa) = 83.59020 83.59002 44.21544
#
# Poissons Ratio (x) = 0.45300 0.18328
# Poissons Ratio (y) = 0.45300 0.18328
# Poissons Ratio (z) = 0.34650 0.34650
#
# Static dielectric constant tensor:
#      x y z
#    x 3.502120 0.000000 0.000000 
#    y 0.000000 3.502120 0.000000 
#    z 0.000000 0.000000 2.945610 
# 
# 
# High freq. dielectric constant tensor:
#      x y z
#    x 1.699750 0.000000 0.000000 
#    y 0.000000 1.699750 0.000000 
#    z 0.000000 0.000000 1.650030 
# 
# From -- ./inp_files/4463.got.cif
#   From: 2010.03.12/outbox.cif.g09.slc.cpg/sg191_3_cif.got.tgz:4463.got - 2010.04.01 12:09:02.
