data_PCOD8328560
_publ_section_title
;
Structure prediction by ZEFSAII (Michael W. Deem and Ramdas Pophale) SiO2 
 PCOD8328560
Probable space group: P 6/M M M
;
_chemical_formula_sum "Si O2"
_cell_formula_units_Z 96
_cell_length_a 27.647647
_cell_length_b 27.647647
_cell_length_c 9.134921
_cell_angle_alpha 90.000000
_cell_angle_beta 90.000000
_cell_angle_gamma 120.000000
_cell_volume 6047.164450
_symmetry_space_group_name_H-M "P 6/M M M"
_symmetry_group_IT_number 191
_symmetry_cell_setting 'hexagonal'
loop_
_space_group_symop_operation_xyz
x,y,z
x-y,x,z
-y,x-y,z
-x,-y,z
-x+y,-x,z
y,-x+y,z
x-y,-y,-z
-x,-x+y,-z
y,x,-z
-y,-x,-z
-x+y,y,-z
x,x-y,-z
-x,-y,-z
-x+y,-x,-z
y,-x+y,-z
x,y,-z
x-y,x,-z
-y,x-y,-z
-x+y,y,z
x,x-y,z
-y,-x,z
y,x,z
x-y,-y,z
-x,-x+y,z
loop_
_atom_site_type_symbol
_atom_site_label
_atom_site_fract_x
_atom_site_fract_y
_atom_site_fract_z
Si Si1 0.407038 0.101122 0.830110
Si Si2 0.877717 0.755433 0.323296
Si Si3 0.311324 0.000000 0.663280
Si Si4 0.064458 0.586957 0.330008
Si Si5 0.363299 0.181650 0.832670
Si Si6 0.802468 0.802468 0.338597
O O1 0.462710 0.105359 0.760312
O O2 0.404378 0.157091 0.802460
O O3 0.353470 0.053815 0.750665
O O4 0.405393 0.086767 0.000000
O O5 0.875736 0.751472 0.500000
O O6 0.845915 0.691830 0.267016
O O7 0.847896 0.789631 0.262033
O O8 0.254527 0.000000 0.650612
O O9 0.334600 0.000000 0.500000
O O10 0.079230 0.598396 0.500000
O O11 0.074185 0.537093 0.275231
O O12 0.000000 0.570127 0.302260
O O13 0.341841 0.170921 0.000000
O O14 0.825599 0.825599 0.500000
#
# Coordination Sequence:
#
# PCOD8328560 Si02
#       6
#    24  12  12  24  12  12
#     4  11  21  32  46  68  98 130 159 191 232 278
#     4  10  18  32  48  67  88 118 160 198 238 290
#     4  11  19  29  46  68  92 125 161 195 236 277
#     4   9  18  32  49  69  95 126 158 192 227 264
#     4  10  22  34  44  66  99 129 153 190 238 280
#     4   9  18  29  47  67  88 116 155 201 239 284
#
# _framework density 15.875208000000001
#
# number of rings (size 3 to 8) (size 9 to 14) (size 15 to 20)
#    0.000    2.000    3.750    1.875    0.000    1.500 
#    0.000    1.875    0.000    0.250    0.000    1.750 
#    1.250    0.000    0.750    1.125    1.000    1.250 
#
# Total GULP energy -1189844.266861 kJ/mol
# GULP energy per Si atom -12394.211113 kJ/mol
# Density = 1.583908 g / cm^3
# Si number density = 15.875208 Si / 1000 Ang^3
#
#
#
# Elastic Constant Matrix: (Units=GPa)
#
#
# Indices 1 2 3 4 5 6 
#
# 1 113.8635 39.2292 43.0469 0.0000 0.0000 0.0000
# 2 39.2292 113.8635 43.0469 0.0000 0.0000 0.0000
# 3 43.0469 43.0469 71.3443 0.0000 0.0000 0.0000
# 4 0.0000 0.0000 0.0000 19.9462 0.0000 0.0000
# 5 0.0000 0.0000 0.0000 0.0000 19.9462 0.0000
# 6 0.0000 0.0000 0.0000 0.0000 0.0000 37.3171
#
#
#
# Elastic Compliance Matrix: (Units=1/GPa)
#
#
# Indices 1 2 3 4 5 6 
#
# 1 0.011643 -0.001756 -0.005965 0.000000 0.000000 0.000000
# 2 -0.001756 0.011643 -0.005965 0.000000 0.000000 0.000000
# 3 -0.005965 -0.005965 0.021215 0.000000 0.000000 0.000000
# 4 0.000000 0.000000 0.000000 0.050135 0.000000 0.000000
# 5 0.000000 0.000000 0.000000 0.000000 0.050135 0.000000
# 6 0.000000 0.000000 0.000000 0.000000 0.000000 0.026797
#
#
# Mechanical properties :
#
#
# Convention : Reuss Voigt Hill
#
# Bulk Modulus (GPa) = 58.38664 61.07971 59.73318
# Shear Modulus (GPa) = 24.43197 27.02511 25.72854
#
# Velocity S-wave (km/s) = 3.92727 4.13043 4.03013
# Velocity P-wave (km/s) = 7.57779 7.82979 7.70482
#
# Compressibility (1/GPa) = 0.01712721
#
# Stress axis : x y z
#
# Youngs Moduli (GPa) = 85.89102 85.89102 47.13628
#
# Poissons Ratio (x) = 0.15083 0.28118
# Poissons Ratio (y) = 0.15083 0.28118
# Poissons Ratio (z) = 0.51237 0.51237
#
# Static dielectric constant tensor:
#      x y z
#    x 3.044590 0.000000 0.000000 
#    y 0.000000 3.044590 0.000000 
#    z 0.000000 0.000000 3.019580 
# 
# 
# High freq. dielectric constant tensor:
#      x y z
#    x 1.596320 0.000000 0.000000 
#    y 0.000000 1.596320 0.000000 
#    z 0.000000 0.000000 1.605030 
# 
# From -- ./inp_files/1637.got.cif
#   From: 2010.03.12/outbox.cif.g09.slc.cpg/sg191_1_cif.got.tgz:1637.got - 2010.04.01 12:09:02.
