data_PCOD8328606
_publ_section_title
;
Structure prediction by ZEFSAII (Michael W. Deem and Ramdas Pophale) SiO2 
 PCOD8328606
Probable space group: P 6/M M M
;
_chemical_formula_sum "Si O2"
_cell_formula_units_Z 120
_cell_length_a 25.507289
_cell_length_b 25.507289
_cell_length_c 12.872194
_cell_angle_alpha 90.000000
_cell_angle_beta 90.000000
_cell_angle_gamma 120.000000
_cell_volume 7252.902073
_symmetry_space_group_name_H-M "P 6/M M M"
_symmetry_group_IT_number 191
_symmetry_cell_setting 'hexagonal'
loop_
_space_group_symop_operation_xyz
x,y,z
x-y,x,z
-y,x-y,z
-x,-y,z
-x+y,-x,z
y,-x+y,z
x-y,-y,-z
-x,-x+y,-z
y,x,-z
-y,-x,-z
-x+y,y,-z
x,x-y,-z
-x,-y,-z
-x+y,-x,-z
y,-x+y,-z
x,y,-z
x-y,x,-z
-y,x-y,-z
-x+y,y,z
x,x-y,z
-y,-x,z
y,x,z
x-y,-y,z
-x,-x+y,z
loop_
_atom_site_type_symbol
_atom_site_label
_atom_site_fract_x
_atom_site_fract_y
_atom_site_fract_z
Si Si1 0.529032 0.826751 0.115191
Si Si2 0.709891 0.168235 0.500000
Si Si3 0.070292 0.324093 0.500000
Si Si4 0.106010 0.769845 0.114975
Si Si5 0.789647 0.333871 0.310518
Si Si6 0.186706 0.254111 0.302613
O O1 0.531799 0.765900 0.122274
O O2 0.596493 0.882939 0.137209
O O3 0.482126 0.824079 0.201081
O O4 0.507205 0.833333 0.000000
O O5 0.779306 0.220695 0.500000
O O6 0.708633 0.105027 0.500000
O O7 0.675599 0.171789 0.601313
O O8 0.088444 0.299600 0.600661
O O9 0.000000 0.303249 0.500000
O O10 0.169895 0.830106 0.119996
O O11 0.063201 0.773881 0.201537
O O12 0.076978 0.762507 0.000000
O O13 0.787464 0.393732 0.335822
O O14 0.721281 0.278720 0.308124
O O15 0.115205 0.230410 0.288334
O O16 0.196697 0.196697 0.320587
#
# Coordination Sequence:
#
# PCOD8328606 Si02
#       6
#    24  12  12  24  24  24
#     4   8  14  25  41  60  82 111 146 183 226 272
#     4  10  19  31  48  66  86 115 147 180 223 273
#     4  10  20  33  51  74  94 111 138 180 229 279
#     4   8  14  26  44  65  89 116 147 185 228 269
#     4  10  19  29  42  61  87 119 154 190 224 262
#     4  10  19  30  46  69  97 125 150 179 217 261
#
# _framework density 16.545100999999999
#
# number of rings (size 3 to 8) (size 9 to 14) (size 15 to 20)
#    0.000    2.800    0.000    3.800    0.000    4.000 
#    0.000    1.000    0.000    2.600    0.000    0.000 
#    0.000    2.400    0.000   22.200    0.000    1.800 
#
# Total GULP energy -1487442.008633 kJ/mol
# GULP energy per Si atom -12395.350072 kJ/mol
# Density = 1.650744 g / cm^3
# Si number density = 16.545101 Si / 1000 Ang^3
#
#
#
# Elastic Constant Matrix: (Units=GPa)
#
#
# Indices 1 2 3 4 5 6 
#
# 1 73.4697 37.0081 34.5811 0.0000 0.0000 0.0000
# 2 37.0081 73.4697 34.5811 0.0000 0.0000 0.0000
# 3 34.5811 34.5811 114.8926 0.0000 0.0000 0.0000
# 4 0.0000 0.0000 0.0000 14.4831 0.0000 0.0000
# 5 0.0000 0.0000 0.0000 0.0000 14.4831 0.0000
# 6 0.0000 0.0000 0.0000 0.0000 0.0000 18.2308
#
#
#
# Elastic Compliance Matrix: (Units=1/GPa)
#
#
# Indices 1 2 3 4 5 6 
#
# 1 0.019290 -0.008136 -0.003357 0.000000 0.000000 0.000000
# 2 -0.008136 0.019290 -0.003357 0.000000 0.000000 0.000000
# 3 -0.003357 -0.003357 0.010725 0.000000 0.000000 0.000000
# 4 0.000000 0.000000 0.000000 0.069046 0.000000 0.000000
# 5 0.000000 0.000000 0.000000 0.000000 0.069046 0.000000
# 6 0.000000 0.000000 0.000000 0.000000 0.000000 0.054852
#
#
# Mechanical properties :
#
#
# Convention : Reuss Voigt Hill
#
# Bulk Modulus (GPa) = 51.01240 52.68582 51.84911
# Shear Modulus (GPa) = 17.95439 19.81684 18.88562
#
# Velocity S-wave (km/s) = 3.29778 3.46460 3.38222
# Velocity P-wave (km/s) = 6.73793 6.92225 6.83071
#
# Compressibility (1/GPa) = 0.01960308
#
# Stress axis : x y z
#
# Youngs Moduli (GPa) = 51.84139 51.84139 93.24390
#
# Poissons Ratio (x) = 0.42181 0.31301
# Poissons Ratio (y) = 0.42181 0.31301
# Poissons Ratio (z) = 0.17403 0.17403
#
# Static dielectric constant tensor:
#      x y z
#    x 2.835000 0.000000 0.000000 
#    y 0.000000 2.835000 0.000000 
#    z 0.000000 0.000000 3.531210 
# 
# 
# High freq. dielectric constant tensor:
#      x y z
#    x 1.605120 0.000000 0.000000 
#    y 0.000000 1.605120 0.000000 
#    z 0.000000 0.000000 1.661250 
# 
# From -- ./inp_files/3252.got.cif
#   From: 2010.03.12/outbox.cif.g09.slc.cpg/sg191_2_cif.got.tgz:3252.got - 2010.04.01 12:09:02.
