data_PCOD8328509
_publ_section_title
;
Structure prediction by ZEFSAII (Michael W. Deem and Ramdas Pophale) SiO2 
 PCOD8328509
Probable space group: P 6/M M M
;
_chemical_formula_sum "Si O2"
_cell_formula_units_Z 192
_cell_length_a 22.924334
_cell_length_b 22.924334
_cell_length_c 23.509356
_cell_angle_alpha 90.000000
_cell_angle_beta 90.000000
_cell_angle_gamma 120.000000
_cell_volume 10699.532911
_symmetry_space_group_name_H-M "P 6/M M M"
_symmetry_group_IT_number 191
_symmetry_cell_setting 'hexagonal'
loop_
_space_group_symop_operation_xyz
x,y,z
x-y,x,z
-y,x-y,z
-x,-y,z
-x+y,-x,z
y,-x+y,z
x-y,-y,-z
-x,-x+y,-z
y,x,-z
-y,-x,-z
-x+y,y,-z
x,x-y,-z
-x,-y,-z
-x+y,-x,-z
y,-x+y,-z
x,y,-z
x-y,x,-z
-y,x-y,-z
-x+y,y,z
x,x-y,z
-y,-x,z
y,x,z
x-y,-y,z
-x,-x+y,z
loop_
_atom_site_type_symbol
_atom_site_label
_atom_site_fract_x
_atom_site_fract_y
_atom_site_fract_z
Si Si1 0.334578 0.800665 0.620504
Si Si2 0.487495 0.310066 0.256436
Si Si3 0.737331 0.076524 0.256392
Si Si4 0.727962 0.133633 0.936261
Si Si5 0.335733 0.533486 0.134322
Si Si6 0.206144 0.282661 0.139420
Si Si7 0.923122 0.595342 0.566915
Si Si8 0.923753 0.717793 0.375380
O O1 0.394532 0.789063 0.597956
O O2 0.262502 0.737499 0.601728
O O3 0.340897 0.806024 0.688826
O O4 0.345137 0.870229 0.595264
O O5 0.465377 0.232689 0.246809
O O6 0.418253 0.308922 0.267011
O O7 0.525343 0.350839 0.200117
O O8 0.782131 0.102156 0.199819
O O9 0.785647 0.088482 0.309492
O O10 0.682428 0.000000 0.248562
O O11 0.795609 0.204392 0.937295
O O12 0.672350 0.142215 0.901347
O O13 0.742883 0.079518 0.906105
O O14 0.701260 0.108533 0.000000
O O15 0.271535 0.543069 0.127762
O O16 0.400091 0.599910 0.109952
O O17 0.127815 0.255630 0.122885
O O18 0.220090 0.220090 0.141435
O O19 0.912828 0.587270 0.500000
O O20 0.908235 0.653295 0.587170
O O21 0.000000 0.616027 0.583808
O O22 0.871158 0.742315 0.392997
O O23 0.000000 0.778412 0.386045
#
# Coordination Sequence:
#
# PCOD8328509 Si02
#       8
#    24  24  24  24  24  24  24  24
#     4  11  23  37  55  78 107 141 176 214 258 313
#     4  10  18  31  51  73 100 133 170 211 256 303
#     4  10  18  29  51  80 106 130 163 210 261 307
#     4   9  18  32  49  70  97 130 168 210 253 295
#     4  10  19  31  49  72 100 132 169 212 259 307
#     4  10  19  32  53  79 106 134 167 208 252 300
#     4  10  22  39  58  80 103 131 172 222 272 313
#     4  10  19  32  53  80 109 137 168 208 254 304
#
# _framework density 17.944709
#
# number of rings (size 3 to 8) (size 9 to 14) (size 15 to 20)
#    0.000    2.000    2.500    2.125    0.000    2.000 
#    0.000    1.875    0.000    4.000    0.000    0.875 
#    0.000    3.000    0.000    6.250    0.000    0.000 
#
# Total GULP energy -2380437.410850 kJ/mol
# GULP energy per Si atom -12398.111515 kJ/mol
# Density = 1.790387 g / cm^3
# Si number density = 17.944709 Si / 1000 Ang^3
#
#
#
# Elastic Constant Matrix: (Units=GPa)
#
#
# Indices 1 2 3 4 5 6 
#
# 1 97.8816 52.1298 23.0510 0.0000 0.0000 0.0000
# 2 52.1298 97.8816 23.0510 0.0000 0.0000 0.0000
# 3 23.0510 23.0510 80.0199 0.0000 0.0000 0.0000
# 4 0.0000 0.0000 0.0000 16.1392 0.0000 0.0000
# 5 0.0000 0.0000 0.0000 0.0000 16.1392 0.0000
# 6 0.0000 0.0000 0.0000 0.0000 0.0000 22.8759
#
#
#
# Elastic Compliance Matrix: (Units=1/GPa)
#
#
# Indices 1 2 3 4 5 6 
#
# 1 0.014585 -0.007272 -0.002107 0.000000 0.000000 0.000000
# 2 -0.007272 0.014585 -0.002107 0.000000 0.000000 0.000000
# 3 -0.002107 -0.002107 0.013711 0.000000 0.000000 0.000000
# 4 0.000000 0.000000 0.000000 0.061961 0.000000 0.000000
# 5 0.000000 0.000000 0.000000 0.000000 0.061961 0.000000
# 6 0.000000 0.000000 0.000000 0.000000 0.000000 0.043714
#
#
# Mechanical properties :
#
#
# Convention : Reuss Voigt Hill
#
# Bulk Modulus (GPa) = 50.22417 52.47183 51.34800
# Shear Modulus (GPa) = 20.82248 22.86761 21.84504
#
# Velocity S-wave (km/s) = 3.41011 3.57366 3.49284
# Velocity P-wave (km/s) = 6.59956 6.80679 6.70398
#
# Compressibility (1/GPa) = 0.01991073
#
# Stress axis : x y z
#
# Youngs Moduli (GPa) = 68.56195 68.56195 72.93581
#
# Poissons Ratio (x) = 0.49856 0.15366
# Poissons Ratio (y) = 0.49856 0.15366
# Poissons Ratio (z) = 0.14445 0.14445
#
# Static dielectric constant tensor:
#      x y z
#    x 3.156570 0.000000 0.000000 
#    y 0.000000 3.156570 0.000000 
#    z 0.000000 0.000000 3.496420 
# 
# 
# High freq. dielectric constant tensor:
#      x y z
#    x 1.678470 0.000000 0.000000 
#    y 0.000000 1.678470 0.000000 
#    z 0.000000 0.000000 1.699640 
# 
# From -- ./inp_files/8092.got.cif
#   From: 2010.03.12/outbox.cif.g09.slc.cpg/sg191_5_cif.got.tgz:8092.got - 2010.04.01 12:09:02.
