data_PCOD8328723
_publ_section_title
;
Structure prediction by ZEFSAII (Michael W. Deem and Ramdas Pophale) SiO2 
 PCOD8328723
Probable space group: P 6/M M M
;
_chemical_formula_sum "Si O2"
_cell_formula_units_Z 120
_cell_length_a 18.056015
_cell_length_b 18.056015
_cell_length_c 25.315700
_cell_angle_alpha 90.000000
_cell_angle_beta 90.000000
_cell_angle_gamma 120.000000
_cell_volume 7147.668231
_symmetry_space_group_name_H-M "P 6/M M M"
_symmetry_group_IT_number 191
_symmetry_cell_setting 'hexagonal'
loop_
_space_group_symop_operation_xyz
x,y,z
x-y,x,z
-y,x-y,z
-x,-y,z
-x+y,-x,z
y,-x+y,z
x-y,-y,-z
-x,-x+y,-z
y,x,-z
-y,-x,-z
-x+y,y,-z
x,x-y,-z
-x,-y,-z
-x+y,-x,-z
y,-x+y,-z
x,y,-z
x-y,x,-z
-y,x-y,-z
-x+y,y,z
x,x-y,z
-y,-x,z
y,x,z
x-y,-y,z
-x,-x+y,z
loop_
_atom_site_type_symbol
_atom_site_label
_atom_site_fract_x
_atom_site_fract_y
_atom_site_fract_z
Si Si1 0.330975 0.834656 0.611340
Si Si2 0.094893 0.635081 0.500000
Si Si3 0.367365 0.901265 0.902465
Si Si4 0.331514 0.497815 0.210519
Si Si5 0.736872 0.637968 0.000000
Si Si6 0.096057 0.362513 0.701485
O O1 0.426767 0.853533 0.619826
O O2 0.265049 0.734952 0.622569
O O3 0.313991 0.855795 0.552253
O O4 0.314253 0.893129 0.651225
O O5 0.089290 0.544645 0.500000
O O6 0.000000 0.622283 0.500000
O O7 0.439238 0.878475 0.921244
O O8 0.319337 0.848482 0.850640
O O9 0.300159 0.878046 0.949132
O O10 0.411170 0.000000 0.887155
O O11 0.265060 0.530119 0.224260
O O12 0.427063 0.572938 0.223001
O O13 0.310578 0.416329 0.245901
O O14 0.713272 0.713272 0.000000
O O15 0.839817 0.679633 0.000000
O O16 0.164896 0.329791 0.700401
O O17 0.000000 0.281016 0.700667
#
# Coordination Sequence:
#
# PCOD8328723 Si02
#       6
#    24  12  24  24  12  24
#     4  10  19  30  45  66  94 127 161 194 227 265
#     4   9  17  28  42  60  84 119 163 205 237 264
#     4   9  17  29  46  67  90 118 152 189 227 267
#     4  10  19  30  45  67  97 130 161 189 217 252
#     4  10  19  31  47  66  89 117 152 192 233 277
#     4  10  21  35  51  70  91 117 149 188 232 276
#
# _framework density 16.788691
#
# number of rings (size 3 to 8) (size 9 to 14) (size 15 to 20)
#    0.000    2.300    0.000    3.400    0.000    4.400 
#    0.000    3.000    0.000    3.100    0.000    0.000 
#    0.000    0.000    0.000    6.400    0.000   20.800 
#
# Total GULP energy -1487881.934549 kJ/mol
# GULP energy per Si atom -12399.016121 kJ/mol
# Density = 1.675048 g / cm^3
# Si number density = 16.788691 Si / 1000 Ang^3
#
#
#
# Elastic Constant Matrix: (Units=GPa)
#
#
# Indices 1 2 3 4 5 6 
#
# 1 88.1347 51.9854 35.6698 0.0000 0.0000 0.0000
# 2 51.9854 88.1347 35.6698 0.0000 0.0000 0.0000
# 3 35.6698 35.6698 85.1577 0.0000 0.0000 0.0000
# 4 0.0000 0.0000 0.0000 20.5927 0.0000 0.0000
# 5 0.0000 0.0000 0.0000 0.0000 20.5927 0.0000
# 6 0.0000 0.0000 0.0000 0.0000 0.0000 18.0746
#
#
#
# Elastic Compliance Matrix: (Units=1/GPa)
#
#
# Indices 1 2 3 4 5 6 
#
# 1 0.018367 -0.009296 -0.003800 0.000000 0.000000 0.000000
# 2 -0.009296 0.018367 -0.003800 0.000000 0.000000 0.000000
# 3 -0.003800 -0.003800 0.014926 0.000000 0.000000 0.000000
# 4 0.000000 0.000000 0.000000 0.048561 0.000000 0.000000
# 5 0.000000 0.000000 0.000000 0.000000 0.048561 0.000000
# 6 0.000000 0.000000 0.000000 0.000000 0.000000 0.055326
#
#
# Mechanical properties :
#
#
# Convention : Reuss Voigt Hill
#
# Bulk Modulus (GPa) = 55.95994 56.45299 56.20646
# Shear Modulus (GPa) = 20.50396 21.05882 20.78139
#
# Velocity S-wave (km/s) = 3.49850 3.54552 3.52208
# Velocity P-wave (km/s) = 7.05150 7.10349 7.07754
#
# Compressibility (1/GPa) = 0.01786993
#
# Stress axis : x y z
#
# Youngs Moduli (GPa) = 54.44499 54.44499 66.99706
#
# Poissons Ratio (x) = 0.50612 0.25457
# Poissons Ratio (y) = 0.50612 0.25457
# Poissons Ratio (z) = 0.20687 0.20687
#
# Static dielectric constant tensor:
#      x y z
#    x 2.964000 0.000000 0.000000 
#    y 0.000000 2.964000 0.000000 
#    z 0.000000 0.000000 3.366080 
# 
# 
# High freq. dielectric constant tensor:
#      x y z
#    x 1.623880 0.000000 0.000000 
#    y 0.000000 1.623880 0.000000 
#    z 0.000000 0.000000 1.666580 
# 
# From -- ./inp_files/8605.got.cif
#   From: 2010.03.12/outbox.cif.g09.slc.cpg/sg191_5_cif.got.tgz:8605.got - 2010.04.01 12:09:02.
