data_PCOD8328309
_publ_section_title
;
Structure prediction by ZEFSAII (Michael W. Deem and Ramdas Pophale) SiO2 
 PCOD8328309
Probable space group: P 6/M M M
;
_chemical_formula_sum "Si O2"
_cell_formula_units_Z 120
_cell_length_a 18.158342
_cell_length_b 18.158342
_cell_length_c 25.956882
_cell_angle_alpha 90.000000
_cell_angle_beta 90.000000
_cell_angle_gamma 120.000000
_cell_volume 7412.002164
_symmetry_space_group_name_H-M "P 6/M M M"
_symmetry_group_IT_number 191
_symmetry_cell_setting 'hexagonal'
loop_
_space_group_symop_operation_xyz
x,y,z
x-y,x,z
-y,x-y,z
-x,-y,z
-x+y,-x,z
y,-x+y,z
x-y,-y,-z
-x,-x+y,-z
y,x,-z
-y,-x,-z
-x+y,y,-z
x,x-y,-z
-x,-y,-z
-x+y,-x,-z
y,-x+y,-z
x,y,-z
x-y,x,-z
-y,x-y,-z
-x+y,y,z
x,x-y,z
-y,-x,z
y,x,z
x-y,-y,z
-x,-x+y,z
loop_
_atom_site_type_symbol
_atom_site_label
_atom_site_fract_x
_atom_site_fract_y
_atom_site_fract_z
Si Si1 0.500206 0.830895 0.104879
Si Si2 0.540035 0.905633 0.209432
Si Si3 0.365689 0.900747 0.000000
Si Si4 0.366617 0.098734 0.595611
Si Si5 0.532687 0.632577 0.500000
Si Si6 0.833391 0.502426 0.317290
O O1 0.428149 0.856297 0.104209
O O2 0.459133 0.729567 0.106858
O O3 0.557432 0.870539 0.156123
O O4 0.555604 0.865881 0.052380
O O5 0.452640 0.905280 0.203819
O O6 0.533922 0.848852 0.258238
O O7 0.617760 0.000000 0.218704
O O8 0.435142 0.870284 0.000000
O O9 0.407053 0.000000 0.000000
O O10 0.330273 0.165137 0.596592
O O11 0.435588 0.128174 0.549936
O O12 0.417236 0.104953 0.647693
O O13 0.289866 0.000000 0.589203
O O14 0.572946 0.572946 0.500000
O O15 0.429372 0.570629 0.500000
O O16 0.735066 0.470132 0.330475
O O17 0.853597 0.426799 0.327154
#
# Coordination Sequence:
#
# PCOD8328309 Si02
#       6
#    24  24  12  24  12  24
#     4  10  18  27  39  55  75  97 124 162 208 252
#     4   9  17  28  41  56  76 106 142 175 208 250
#     4   9  17  28  40  52  68  93 124 156 192 240
#     4  10  20  33  50  71  94 122 156 194 234 276
#     4   9  17  30  49  72  96 122 152 183 217 262
#     4  10  19  30  45  66  92 120 150 185 225 267
#
# _framework density 16.189959000000002
#
# number of rings (size 3 to 8) (size 9 to 14) (size 15 to 20)
#    0.000    2.400    0.000    3.400    0.000    4.400 
#    0.000    3.000    0.000    3.000    0.000    0.000 
#    0.000    2.400    0.000    0.000    0.000    0.000 
#
# Total GULP energy -1487067.452903 kJ/mol
# GULP energy per Si atom -12392.228774 kJ/mol
# Density = 1.615311 g / cm^3
# Si number density = 16.189959 Si / 1000 Ang^3
#
#
#
# Elastic Constant Matrix: (Units=GPa)
#
#
# Indices 1 2 3 4 5 6 
#
# 1 56.4418 29.8299 26.4762 0.0000 0.0000 0.0000
# 2 29.8299 56.4418 26.4762 0.0000 0.0000 0.0000
# 3 26.4762 26.4762 117.7681 0.0000 0.0000 0.0000
# 4 0.0000 0.0000 0.0000 14.8009 0.0000 0.0000
# 5 0.0000 0.0000 0.0000 0.0000 14.8009 0.0000
# 6 0.0000 0.0000 0.0000 0.0000 0.0000 13.3059
#
#
#
# Elastic Compliance Matrix: (Units=1/GPa)
#
#
# Indices 1 2 3 4 5 6 
#
# 1 0.025512 -0.012065 -0.003023 0.000000 0.000000 0.000000
# 2 -0.012065 0.025512 -0.003023 0.000000 0.000000 0.000000
# 3 -0.003023 -0.003023 0.009851 0.000000 0.000000 0.000000
# 4 0.000000 0.000000 0.000000 0.067563 0.000000 0.000000
# 5 0.000000 0.000000 0.000000 0.000000 0.067563 0.000000
# 6 0.000000 0.000000 0.000000 0.000000 0.000000 0.075155
#
#
# Mechanical properties :
#
#
# Convention : Reuss Voigt Hill
#
# Bulk Modulus (GPa) = 40.56485 44.02403 42.29444
# Shear Modulus (GPa) = 15.84306 18.43951 17.14128
#
# Velocity S-wave (km/s) = 3.13161 3.37849 3.25739
# Velocity P-wave (km/s) = 6.17948 6.51691 6.35044
#
# Compressibility (1/GPa) = 0.02465189
#
# Stress axis : x y z
#
# Youngs Moduli (GPa) = 39.19720 39.19720 101.51735
#
# Poissons Ratio (x) = 0.47292 0.30689
# Poissons Ratio (y) = 0.47292 0.30689
# Poissons Ratio (z) = 0.11850 0.11850
#
# Static dielectric constant tensor:
#      x y z
#    x 2.793790 0.000000 0.000000 
#    y 0.000000 2.793790 0.000000 
#    z 0.000000 0.000000 3.523670 
# 
# 
# High freq. dielectric constant tensor:
#      x y z
#    x 1.584430 0.000000 0.000000 
#    y 0.000000 1.584430 0.000000 
#    z 0.000000 0.000000 1.652840 
# 
# From -- ./inp_files/9548.got.cif
#   From: 2010.03.12/outbox.cif.g09.slc.cpg/sg191_5_cif.got.tgz:9548.got - 2010.04.01 12:09:02.
