data_PCOD8328347
_publ_section_title
;
Structure prediction by ZEFSAII (Michael W. Deem and Ramdas Pophale) SiO2 
 PCOD8328347
Probable space group: P 6/M M M
;
_chemical_formula_sum "Si O2"
_cell_formula_units_Z 168
_cell_length_a 25.424956
_cell_length_b 25.424956
_cell_length_c 19.220409
_cell_angle_alpha 90.000000
_cell_angle_beta 90.000000
_cell_angle_gamma 120.000000
_cell_volume 10760.034819
_symmetry_space_group_name_H-M "P 6/M M M"
_symmetry_group_IT_number 191
_symmetry_cell_setting 'hexagonal'
loop_
_space_group_symop_operation_xyz
x,y,z
x-y,x,z
-y,x-y,z
-x,-y,z
-x+y,-x,z
y,-x+y,z
x-y,-y,-z
-x,-x+y,-z
y,x,-z
-y,-x,-z
-x+y,y,-z
x,x-y,-z
-x,-y,-z
-x+y,-x,-z
y,-x+y,-z
x,y,-z
x-y,x,-z
-y,x-y,-z
-x+y,y,z
x,x-y,z
-y,-x,z
y,x,z
x-y,-y,z
-x,-x+y,z
loop_
_atom_site_type_symbol
_atom_site_label
_atom_site_fract_x
_atom_site_fract_y
_atom_site_fract_z
Si Si1 0.787128 0.333538 0.855090
Si Si2 0.175824 0.473202 0.723874
Si Si3 0.317610 0.069244 0.422776
Si Si4 0.640621 0.930378 0.206736
Si Si5 0.148288 0.728908 0.079382
Si Si6 0.452672 0.287439 0.574809
Si Si7 0.068586 0.814944 0.289347
O O1 0.796224 0.398112 0.877471
O O2 0.717178 0.282823 0.866666
O O3 0.805595 0.336009 0.773882
O O4 0.830861 0.319917 0.902668
O O5 0.225854 0.451708 0.732165
O O6 0.110653 0.417252 0.744935
O O7 0.173561 0.493323 0.643560
O O8 0.298838 0.079977 0.500000
O O9 0.389593 0.104250 0.414038
O O10 0.285009 0.088377 0.365112
O O11 0.299057 0.000000 0.410069
O O12 0.626456 0.907705 0.127113
O O13 0.697804 0.925288 0.232159
O O14 0.655696 0.000000 0.210781
O O15 0.204189 0.795812 0.093936
O O16 0.126375 0.720195 0.000000
O O17 0.482953 0.319702 0.500000
O O18 0.437119 0.218560 0.571423
O O19 0.114836 0.885165 0.270138
O O20 0.000000 0.803241 0.290277
#
# Coordination Sequence:
#
# PCOD8328347 Si02
#       7
#    24  24  24  24  24  24  24
#     4   9  17  29  47  69  90 113 141 174 208 240
#     4   9  16  27  42  60  85 113 142 175 212 256
#     4   9  16  23  33  54  83 111 138 170 212 258
#     4  10  18  27  43  64  85 111 139 169 204 246
#     4   9  18  32  48  65  87 114 139 165 203 250
#     4   9  15  22  35  54  77 107 140 173 209 251
#     4  10  18  27  40  58  82 111 143 179 217 256
#
# _framework density 15.613332
#
# number of rings (size 3 to 8) (size 9 to 14) (size 15 to 20)
#    0.000    2.714    1.429    2.714    0.000    1.429 
#    0.000    0.000    0.000    8.286    0.000    4.000 
#    0.000    1.143    0.000   12.286    0.000    0.571 
#
# Total GULP energy -2081860.289345 kJ/mol
# GULP energy per Si atom -12392.025532 kJ/mol
# Density = 1.557780 g / cm^3
# Si number density = 15.613332 Si / 1000 Ang^3
#
#
#
# Elastic Constant Matrix: (Units=GPa)
#
#
# Indices 1 2 3 4 5 6 
#
# 1 50.7154 18.9297 18.3229 0.0000 0.0000 0.0000
# 2 18.9297 50.7154 18.3229 0.0000 0.0000 0.0000
# 3 18.3229 18.3229 107.6453 0.0000 0.0000 0.0000
# 4 0.0000 0.0000 0.0000 15.0178 0.0000 0.0000
# 5 0.0000 0.0000 0.0000 0.0000 15.0178 0.0000
# 6 0.0000 0.0000 0.0000 0.0000 0.0000 15.8928
#
#
#
# Elastic Compliance Matrix: (Units=1/GPa)
#
#
# Indices 1 2 3 4 5 6 
#
# 1 0.023616 -0.007845 -0.002684 0.000000 0.000000 0.000000
# 2 -0.007845 0.023616 -0.002684 0.000000 0.000000 0.000000
# 3 -0.002684 -0.002684 0.010204 0.000000 0.000000 0.000000
# 4 0.000000 0.000000 0.000000 0.066588 0.000000 0.000000
# 5 0.000000 0.000000 0.000000 0.000000 0.066588 0.000000
# 6 0.000000 0.000000 0.000000 0.000000 0.000000 0.062921
#
#
# Mechanical properties :
#
#
# Convention : Reuss Voigt Hill
#
# Bulk Modulus (GPa) = 32.24996 35.58080 33.91538
# Shear Modulus (GPa) = 17.22383 19.41907 18.32145
#
# Velocity S-wave (km/s) = 3.32497 3.53051 3.42928
# Velocity P-wave (km/s) = 5.95322 6.28152 6.11957
#
# Compressibility (1/GPa) = 0.03100779
#
# Stress axis : x y z
#
# Youngs Moduli (GPa) = 42.34440 42.34440 98.00417
#
# Poissons Ratio (x) = 0.33219 0.26309
# Poissons Ratio (y) = 0.33219 0.26309
# Poissons Ratio (z) = 0.11367 0.11367
#
# Static dielectric constant tensor:
#      x y z
#    x 2.720420 0.000000 0.000000 
#    y 0.000000 2.720420 0.000000 
#    z 0.000000 0.000000 3.306280 
# 
# 
# High freq. dielectric constant tensor:
#      x y z
#    x 1.568070 0.000000 0.000000 
#    y 0.000000 1.568070 0.000000 
#    z 0.000000 0.000000 1.615830 
# 
# From -- ./inp_files/7972.got.cif
#   From: 2010.03.12/outbox.cif.g09.slc.cpg/sg191_4_cif.got.tgz:7972.got - 2010.04.01 12:09:02.
