data_PCOD8328610
_publ_section_title
;
Structure prediction by ZEFSAII (Michael W. Deem and Ramdas Pophale) SiO2 
 PCOD8328610
Probable space group: P 6/M M M
;
_chemical_formula_sum "Si O2"
_cell_formula_units_Z 108
_cell_length_a 17.772053
_cell_length_b 17.772053
_cell_length_c 23.267268
_cell_angle_alpha 90.000000
_cell_angle_beta 90.000000
_cell_angle_gamma 120.000000
_cell_volume 6364.308502
_symmetry_space_group_name_H-M "P 6/M M M"
_symmetry_group_IT_number 191
_symmetry_cell_setting 'hexagonal'
loop_
_space_group_symop_operation_xyz
x,y,z
x-y,x,z
-y,x-y,z
-x,-y,z
-x+y,-x,z
y,-x+y,z
x-y,-y,-z
-x,-x+y,-z
y,x,-z
-y,-x,-z
-x+y,y,-z
x,x-y,-z
-x,-y,-z
-x+y,-x,-z
y,-x+y,-z
x,y,-z
x-y,x,-z
-y,x-y,-z
-x+y,y,z
x,x-y,z
-y,-x,z
y,x,z
x-y,-y,z
-x,-x+y,z
loop_
_atom_site_type_symbol
_atom_site_label
_atom_site_fract_x
_atom_site_fract_y
_atom_site_fract_z
Si Si1 0.102007 0.634622 0.111229
Si Si2 0.540538 0.902649 0.562023
Si Si3 0.897982 0.269731 0.000000
Si Si4 0.505072 0.835486 0.682174
Si Si5 0.098900 0.731909 0.781731
O O1 0.145081 0.572541 0.110361
O O2 0.127690 0.693168 0.054634
O O3 0.133057 0.695728 0.167024
O O4 0.000000 0.573432 0.113767
O O5 0.548542 0.863706 0.500000
O O6 0.452262 0.904524 0.562283
O O7 0.540454 0.847749 0.616717
O O8 0.620873 0.000000 0.568457
O O9 0.835716 0.164285 0.000000
O O10 0.000000 0.296139 0.000000
O O11 0.428914 0.857827 0.689761
O O12 0.471033 0.735517 0.699046
O O13 0.583863 0.898964 0.723229
O O14 0.163790 0.836211 0.778101
O O15 0.000000 0.711159 0.791848
#
# Coordination Sequence:
#
# PCOD8328610 Si02
#       5
#    24  24  12  24  24
#     4   9  17  30  49  71  93 119 152 187 223 267
#     4   8  14  25  40  56  75 105 148 192 228 263
#     4  10  19  31  49  72  97 127 164 204 243 283
#     4  10  19  29  42  62  89 120 153 189 228 268
#     4  10  20  33  50  71  93 119 152 189 228 271
#
# _framework density 16.969636000000001
#
# number of rings (size 3 to 8) (size 9 to 14) (size 15 to 20)
#    0.000    2.667    0.000    3.222    0.000    4.000 
#    0.000    0.000    0.000    9.222    0.000    0.000 
#    0.000    5.333    0.000    0.000    0.000    0.444 
#
# Total GULP energy -1338260.325791 kJ/mol
# GULP energy per Si atom -12391.299313 kJ/mol
# Density = 1.693101 g / cm^3
# Si number density = 16.969636 Si / 1000 Ang^3
#
#
#
# Elastic Constant Matrix: (Units=GPa)
#
#
# Indices 1 2 3 4 5 6 
#
# 1 74.0236 41.3212 28.6961 0.0000 0.0000 0.0000
# 2 41.3212 74.0236 28.6961 0.0000 0.0000 0.0000
# 3 28.6961 28.6961 122.8138 0.0000 0.0000 0.0000
# 4 0.0000 0.0000 0.0000 -2.3182 0.0000 0.0000
# 5 0.0000 0.0000 0.0000 0.0000 -2.3182 0.0000
# 6 0.0000 0.0000 0.0000 0.0000 0.0000 16.3512
#
#
#
# Elastic Compliance Matrix: (Units=1/GPa)
#
#
# Indices 1 2 3 4 5 6 
#
# 1 0.020194 -0.010384 -0.002292 0.000000 0.000000 0.000000
# 2 -0.010384 0.020194 -0.002292 0.000000 0.000000 0.000000
# 3 -0.002292 -0.002292 0.009214 0.000000 0.000000 0.000000
# 4 0.000000 0.000000 0.000000 -0.431378 0.000000 0.000000
# 5 0.000000 0.000000 0.000000 0.000000 -0.431378 0.000000
# 6 0.000000 0.000000 0.000000 0.000000 0.000000 0.061158
#
#
# Mechanical properties :
#
#
# Convention : Reuss Voigt Hill
#
# Bulk Modulus (GPa) = 50.85140 52.03199 51.44170
# Shear Modulus (GPa) = -6.98809 13.81948 3.41570
#
# Velocity S-wave (km/s) = -2.03149 2.85680 1.42028
# Velocity P-wave (km/s) = 4.95263 6.45059 5.75060
#
# Compressibility (1/GPa) = 0.01966514
#
# Stress axis : x y z
#
# Youngs Moduli (GPa) = 49.51845 49.51845 108.53544
#
# Poissons Ratio (x) = 0.51421 0.24879
# Poissons Ratio (y) = 0.51421 0.24879
# Poissons Ratio (z) = 0.11351 0.11351
#
# Static dielectric constant tensor:
#      x y z
#    x 2.916910 0.000000 0.000000 
#    y 0.000000 2.916910 0.000000 
#    z 0.000000 0.000000 3.656410 
# 
# 
# High freq. dielectric constant tensor:
#      x y z
#    x 1.621110 0.000000 0.000000 
#    y 0.000000 1.621110 0.000000 
#    z 0.000000 0.000000 1.681010 
# 
# From -- ./inp_files/8324.got.cif
#   From: 2010.03.12/outbox.cif.g09.slc.cpg/sg191_5_cif.got.tgz:8324.got - 2010.04.01 12:09:02.
