data_PCOD8328777
_publ_section_title
;
Structure prediction by ZEFSAII (Michael W. Deem and Ramdas Pophale) SiO2 
 PCOD8328777
Probable space group: P 6/M M M
;
_chemical_formula_sum "Si O2"
_cell_formula_units_Z 132
_cell_length_a 26.834406
_cell_length_b 26.834406
_cell_length_c 13.509494
_cell_angle_alpha 90.000000
_cell_angle_beta 90.000000
_cell_angle_gamma 120.000000
_cell_volume 8424.685301
_symmetry_space_group_name_H-M "P 6/M M M"
_symmetry_group_IT_number 191
_symmetry_cell_setting 'hexagonal'
loop_
_space_group_symop_operation_xyz
x,y,z
x-y,x,z
-y,x-y,z
-x,-y,z
-x+y,-x,z
y,-x+y,z
x-y,-y,-z
-x,-x+y,-z
y,x,-z
-y,-x,-z
-x+y,y,-z
x,x-y,-z
-x,-y,-z
-x+y,-x,-z
y,-x+y,-z
x,y,-z
x-y,x,-z
-y,x-y,-z
-x+y,y,z
x,x-y,z
-y,-x,z
y,x,z
x-y,-y,z
-x,-x+y,z
loop_
_atom_site_type_symbol
_atom_site_label
_atom_site_fract_x
_atom_site_fract_y
_atom_site_fract_z
Si Si1 0.559063 0.559063 0.390590
Si Si2 0.882870 0.384831 0.292138
Si Si3 0.064871 0.241524 0.886615
Si Si4 0.065961 0.436089 0.887730
Si Si5 0.845196 0.271728 0.385362
Si Si6 0.726417 0.661094 0.236547
O O1 0.500000 0.500000 0.394308
O O2 0.582125 0.582125 0.500000
O O3 0.605816 0.549375 0.334453
O O4 0.867479 0.433740 0.323440
O O5 0.891062 0.384943 0.173814
O O6 0.837293 0.323505 0.338428
O O7 0.109155 0.218310 0.866666
O O8 0.081428 0.294740 0.813824
O O9 0.000000 0.189883 0.865256
O O10 0.069821 0.262829 0.000000
O O11 0.072916 0.383646 0.848830
O O12 0.000000 0.421813 0.878934
O O13 0.087385 0.448821 0.000000
O O14 0.862909 0.284566 0.500000
O O15 0.784264 0.215737 0.371460
O O16 0.892901 0.263024 0.328700
O O17 0.694226 0.694226 0.276814
#
# Coordination Sequence:
#
# PCOD8328777 Si02
#       6
#    12  24  24  24  24  24
#     4   9  16  26  41  63  87 109 138 176 213 253
#     4  10  19  31  46  66  89 116 149 181 217 261
#     4   9  16  26  42  63  86 114 149 187 223 260
#     4   9  16  26  41  64  96 124 143 170 211 261
#     4  10  21  34  47  64  88 117 148 184 226 267
#     4   9  17  29  45  65  89 118 151 180 214 265
#
# _framework density 15.668241
#
# number of rings (size 3 to 8) (size 9 to 14) (size 15 to 20)
#    0.000    2.636    0.909    1.636    1.273    4.000 
#    0.000    0.909    0.000    5.455    0.000    1.273 
#    0.000    0.000    0.000    0.545    0.000    0.727 
#
# Total GULP energy -1636305.000097 kJ/mol
# GULP energy per Si atom -12396.250001 kJ/mol
# Density = 1.563258 g / cm^3
# Si number density = 15.668241 Si / 1000 Ang^3
#
#
#
# Elastic Constant Matrix: (Units=GPa)
#
#
# Indices 1 2 3 4 5 6 
#
# 1 77.6668 42.8134 40.9692 0.0000 0.0000 0.0000
# 2 42.8134 77.6668 40.9692 0.0000 0.0000 0.0000
# 3 40.9692 40.9692 114.4302 0.0000 0.0000 0.0000
# 4 0.0000 0.0000 0.0000 18.8679 0.0000 0.0000
# 5 0.0000 0.0000 0.0000 0.0000 18.8679 0.0000
# 6 0.0000 0.0000 0.0000 0.0000 0.0000 17.4267
#
#
#
# Elastic Compliance Matrix: (Units=1/GPa)
#
#
# Indices 1 2 3 4 5 6 
#
# 1 0.019832 -0.008860 -0.003928 0.000000 0.000000 0.000000
# 2 -0.008860 0.019832 -0.003928 0.000000 0.000000 0.000000
# 3 -0.003928 -0.003928 0.011552 0.000000 0.000000 0.000000
# 4 0.000000 0.000000 0.000000 0.053000 0.000000 0.000000
# 5 0.000000 0.000000 0.000000 0.000000 0.053000 0.000000
# 6 0.000000 0.000000 0.000000 0.000000 0.000000 0.057383
#
#
# Mechanical properties :
#
#
# Convention : Reuss Voigt Hill
#
# Bulk Modulus (GPa) = 56.23537 57.69638 56.96588
# Shear Modulus (GPa) = 19.68825 20.69996 20.19411
#
# Velocity S-wave (km/s) = 3.54866 3.63869 3.59396
# Velocity P-wave (km/s) = 7.26360 7.38628 7.32520
#
# Compressibility (1/GPa) = 0.01778240
#
# Stress axis : x y z
#
# Youngs Moduli (GPa) = 50.42453 50.42453 86.56710
#
# Poissons Ratio (x) = 0.44676 0.34005
# Poissons Ratio (y) = 0.44676 0.34005
# Poissons Ratio (z) = 0.19808 0.19808
#
# Static dielectric constant tensor:
#      x y z
#    x 2.857130 0.000000 0.000000 
#    y 0.000000 2.857130 0.000000 
#    z 0.000000 0.000000 3.111750 
# 
# 
# High freq. dielectric constant tensor:
#      x y z
#    x 1.579490 0.000000 0.000000 
#    y 0.000000 1.579490 0.000000 
#    z 0.000000 0.000000 1.607200 
# 
# From -- ./inp_files/3358.got.cif
#   From: 2010.03.12/outbox.cif.g09.slc.cpg/sg191_2_cif.got.tgz:3358.got - 2010.04.01 12:09:02.
