data_PCOD8328124
_publ_section_title
;
Structure prediction by ZEFSAII (Michael W. Deem and Ramdas Pophale) SiO2 
 PCOD8328124
Probable space group: P -6 2 C
;
_chemical_formula_sum "Si O2"
_cell_formula_units_Z 72
_cell_length_a 14.570878
_cell_length_b 14.570878
_cell_length_c 18.161363
_cell_angle_alpha 90.000000
_cell_angle_beta 90.000000
_cell_angle_gamma 120.000000
_cell_volume 3339.262147
_symmetry_space_group_name_H-M "P -6 2 C"
_symmetry_group_IT_number 190
_symmetry_cell_setting 'hexagonal'
loop_
_space_group_symop_operation_xyz
x,y,z
-x+y,-x,1/2-z
-y,x-y,z
x,y,1/2-z
-x+y,-x,z
-y,x-y,1/2-z
x-y,-y,-z
-x,-x+y,-z
y,x,-z
y,x,1/2+z
x-y,-y,1/2+z
-x,-x+y,1/2+z
loop_
_atom_site_type_symbol
_atom_site_label
_atom_site_fract_x
_atom_site_fract_y
_atom_site_fract_z
Si Si1 0.328336 0.403324 0.835420
Si Si2 0.732254 0.584517 0.087550
Si Si3 0.540575 0.568804 0.164715
Si Si4 0.824943 0.850519 0.922265
Si Si5 0.038582 0.839386 0.164248
Si Si6 0.446768 0.657792 0.447595
O O1 0.317845 0.423501 0.750000
O O2 0.262360 0.448240 0.878667
O O3 0.448998 0.462373 0.861375
O O4 0.286985 0.280794 0.852018
O O5 0.658308 0.589287 0.151510
O O6 0.796604 0.702204 0.055043
O O7 0.659830 0.502231 0.024766
O O8 0.526611 0.587655 0.250000
O O9 0.514662 0.647540 0.118380
O O10 0.862694 0.949995 0.868597
O O11 0.851936 0.769585 0.878088
O O12 0.886557 0.886557 0.000000
O O13 0.052288 0.865547 0.250000
O O14 0.441452 0.766908 0.442712
#
# Coordination Sequence:
#
# PCOD8328124 Si02
#       6
#    12  12  12  12  12  12
#     4   9  21  40  63  92 126 165 211 267 331 395
#     4  11  22  41  65  93 127 166 217 272 329 394
#     4  11  23  40  64  93 129 167 212 275 334 401
#     4  11  22  36  58  87 121 158 207 256 312 385
#     4  10  21  38  58  84 120 162 202 250 315 383
#     4  10  24  43  66  93 126 173 222 276 336 396
#
# _framework density 21.56165
#
# number of rings (size 3 to 8) (size 9 to 14) (size 15 to 20)
#    0.333    1.333    0.000    4.333    0.000    5.333 
#    1.000    5.000    0.000    0.000    0.000    0.000 
#    0.000    0.000    0.000    0.000    0.000    0.000 
#
# Total GULP energy -892695.236476 kJ/mol
# GULP energy per Si atom -12398.544951 kJ/mol
# Density = 2.151257 g / cm^3
# Si number density = 21.561650 Si / 1000 Ang^3
#
#
#
# Elastic Constant Matrix: (Units=GPa)
#
#
# Indices 1 2 3 4 5 6 
#
# 1 74.0950 23.6448 35.9735 0.0000 0.0000 0.0000
# 2 23.6448 74.0950 35.9735 0.0000 0.0000 0.0000
# 3 35.9735 35.9735 114.2602 0.0000 0.0000 0.0000
# 4 0.0000 0.0000 0.0000 31.9837 0.0000 0.0000
# 5 0.0000 0.0000 0.0000 0.0000 31.9837 0.0000
# 6 0.0000 0.0000 0.0000 0.0000 0.0000 25.2251
#
#
#
# Elastic Compliance Matrix: (Units=1/GPa)
#
#
# Indices 1 2 3 4 5 6 
#
# 1 0.016570 -0.003252 -0.004193 0.000000 0.000000 0.000000
# 2 -0.003252 0.016570 -0.004193 0.000000 0.000000 0.000000
# 3 -0.004193 -0.004193 0.011392 0.000000 0.000000 0.000000
# 4 0.000000 0.000000 0.000000 0.031266 0.000000 0.000000
# 5 0.000000 0.000000 0.000000 0.000000 0.031266 0.000000
# 6 0.000000 0.000000 0.000000 0.000000 0.000000 0.039643
#
#
# Mechanical properties :
#
#
# Convention : Reuss Voigt Hill
#
# Bulk Modulus (GPa) = 47.04594 50.40378 48.72486
# Shear Modulus (GPa) = 28.23787 28.96237 28.60012
#
# Velocity S-wave (km/s) = 3.62281 3.66899 3.64598
# Velocity P-wave (km/s) = 6.27426 6.43242 6.35383
#
# Compressibility (1/GPa) = 0.02125582
#
# Stress axis : x y z
#
# Youngs Moduli (GPa) = 60.35146 60.35146 87.77977
#
# Poissons Ratio (x) = 0.19626 0.36805
# Poissons Ratio (y) = 0.19626 0.36805
# Poissons Ratio (z) = 0.25305 0.25305
#
# Static dielectric constant tensor:
#      x y z
#    x 3.894960 0.000000 0.000000 
#    y 0.000000 3.894960 0.000000 
#    z 0.000000 0.000000 3.740810 
# 
# 
# High freq. dielectric constant tensor:
#      x y z
#    x 1.844780 0.000000 0.000000 
#    y 0.000000 1.844780 0.000000 
#    z 0.000000 0.000000 1.848340 
# 
# From -- ./inp_files/3762.got.cif
#   From: 2010.06.25/outbox.cif.g09.slc.cpg/sg190_2_cif.got.tgz:3762.got - 2010.06.28 13:08:06.
