data_PCOD8328888
_publ_section_title
;
Structure prediction by ZEFSAII (Michael W. Deem and Ramdas Pophale) SiO2 
 PCOD8328888
Probable space group: P 6/M M M
;
_chemical_formula_sum "Si O2"
_cell_formula_units_Z 78
_cell_length_a 26.807850
_cell_length_b 26.807850
_cell_length_c 7.725422
_cell_angle_alpha 90.000000
_cell_angle_beta 90.000000
_cell_angle_gamma 120.000000
_cell_volume 4808.136774
_symmetry_space_group_name_H-M "P 6/M M M"
_symmetry_group_IT_number 191
_symmetry_cell_setting 'hexagonal'
loop_
_space_group_symop_operation_xyz
x,y,z
x-y,x,z
-y,x-y,z
-x,-y,z
-x+y,-x,z
y,-x+y,z
x-y,-y,-z
-x,-x+y,-z
y,x,-z
-y,-x,-z
-x+y,y,-z
x,x-y,-z
-x,-y,-z
-x+y,-x,-z
y,-x+y,-z
x,y,-z
x-y,x,-z
-y,x-y,-z
-x+y,y,z
x,x-y,z
-y,-x,z
y,x,z
x-y,-y,z
-x,-x+y,z
loop_
_atom_site_type_symbol
_atom_site_label
_atom_site_fract_x
_atom_site_fract_y
_atom_site_fract_z
Si Si1 0.339577 0.407738 0.195773
Si Si2 0.685636 0.899700 0.799259
Si Si3 0.521561 0.590073 0.500000
Si Si4 0.881938 0.000000 0.000000
Si Si5 0.804906 0.000000 0.689265
O O1 0.367556 0.367556 0.205596
O O2 0.273830 0.369359 0.258047
O O3 0.371055 0.461424 0.326757
O O4 0.343996 0.431413 0.000000
O O5 0.670218 0.835109 0.757312
O O6 0.742387 0.943811 0.698210
O O7 0.699042 0.915610 0.000000
O O8 0.553875 0.553875 0.500000
O O9 0.452826 0.547175 0.500000
O O10 0.888618 0.944309 0.000000
O O11 0.848026 0.000000 0.830399
O O12 0.830507 0.000000 0.500000
#
# Coordination Sequence:
#
# PCOD8328888 Si02
#       5
#    24  24  12   6  12
#     4   9  17  29  45  66  94 125 162 202 237 281
#     4  10  19  33  52  74 101 134 167 207 259 311
#     4   9  18  30  45  64  90 125 161 194 224 262
#     4  12  27  48  64  76  96 124 165 222 284 342
#     4  12  24  37  57  81 104 127 165 211 262 329
#
# _framework density 16.2225
#
# number of rings (size 3 to 8) (size 9 to 14) (size 15 to 20)
#    0.000    2.000    3.077    1.000    2.154    3.077 
#    0.000    3.077    0.000    0.923    0.000    0.000 
#    0.000    0.000    0.000    3.692    0.000   24.000 
#
# Total GULP energy -967211.885908 kJ/mol
# GULP energy per Si atom -12400.152383 kJ/mol
# Density = 1.618558 g / cm^3
# Si number density = 16.222500 Si / 1000 Ang^3
#
#
#
# Elastic Constant Matrix: (Units=GPa)
#
#
# Indices 1 2 3 4 5 6 
#
# 1 62.8930 78.0253 53.4357 0.0000 0.0000 0.0000
# 2 78.0253 62.8930 53.4357 0.0000 0.0000 0.0000
# 3 53.4357 53.4357 119.6339 0.0000 0.0000 0.0000
# 4 0.0000 0.0000 0.0000 45.3970 0.0000 0.0000
# 5 0.0000 0.0000 0.0000 0.0000 45.3970 0.0000
# 6 0.0000 0.0000 0.0000 0.0000 0.0000 -7.5661
#
#
#
# Elastic Compliance Matrix: (Units=1/GPa)
#
#
# Indices 1 2 3 4 5 6 
#
# 1 -0.027676 0.038408 -0.004793 0.000000 0.000000 0.000000
# 2 0.038408 -0.027676 -0.004793 0.000000 0.000000 0.000000
# 3 -0.004793 -0.004793 0.012641 0.000000 0.000000 0.000000
# 4 0.000000 0.000000 0.000000 0.022028 0.000000 0.000000
# 5 0.000000 0.000000 0.000000 0.000000 0.022028 0.000000
# 6 0.000000 0.000000 0.000000 0.000000 0.000000 -0.132168
#
#
# Mechanical properties :
#
#
# Convention : Reuss Voigt Hill
#
# Bulk Modulus (GPa) = 66.97692 68.35703 67.66698
# Shear Modulus (GPa) = -27.24966 20.68046 -3.28460
#
# Velocity S-wave (km/s) = -4.10291 3.57431 -1.42447
# Velocity P-wave (km/s) = 4.35096 7.69824 6.25275
#
# Compressibility (1/GPa) = 0.01493052
#
# Stress axis : x y z
#
# Youngs Moduli (GPa) = -36.13219 -36.13219 79.10877
#
# Poissons Ratio (x) = 1.38775 0.37920
# Poissons Ratio (y) = 1.38775 0.37920
# Poissons Ratio (z) = -0.17319 -0.17319
#
# Static dielectric constant tensor:
#      x y z
#    x 2.976240 0.000000 0.000000 
#    y 0.000000 2.976240 0.000000 
#    z 0.000000 0.000000 3.272690 
# 
# 
# High freq. dielectric constant tensor:
#      x y z
#    x 1.595440 0.000000 0.000000 
#    y 0.000000 1.595440 0.000000 
#    z 0.000000 0.000000 1.638930 
# 
# From -- ./inp_files/1096.got.cif
#   From: 2010.03.12/outbox.cif.g09.slc.cpg/sg191_1_cif.got.tgz:1096.got - 2010.04.01 12:09:02.
