data_PCOD8328769
_publ_section_title
;
Structure prediction by ZEFSAII (Michael W. Deem and Ramdas Pophale) SiO2 
 PCOD8328769
Probable space group: P 6/M M M
;
_chemical_formula_sum "Si O2"
_cell_formula_units_Z 144
_cell_length_a 21.384294
_cell_length_b 21.384294
_cell_length_c 25.783993
_cell_angle_alpha 90.000000
_cell_angle_beta 90.000000
_cell_angle_gamma 120.000000
_cell_volume 10211.055568
_symmetry_space_group_name_H-M "P 6/M M M"
_symmetry_group_IT_number 191
_symmetry_cell_setting 'hexagonal'
loop_
_space_group_symop_operation_xyz
x,y,z
x-y,x,z
-y,x-y,z
-x,-y,z
-x+y,-x,z
y,-x+y,z
x-y,-y,-z
-x,-x+y,-z
y,x,-z
-y,-x,-z
-x+y,y,-z
x,x-y,-z
-x,-y,-z
-x+y,-x,-z
y,-x+y,-z
x,y,-z
x-y,x,-z
-y,x-y,-z
-x+y,y,z
x,x-y,z
-y,-x,z
y,x,z
x-y,-y,z
-x,-x+y,z
loop_
_atom_site_type_symbol
_atom_site_label
_atom_site_fract_x
_atom_site_fract_y
_atom_site_fract_z
Si Si1 0.389429 0.921215 0.500000
Si Si2 0.154373 0.703515 0.403976
Si Si3 0.185465 0.519264 0.295230
Si Si4 0.526106 0.191496 0.000000
Si Si5 0.297550 0.217292 0.440856
Si Si6 0.466676 0.081324 0.202819
Si Si7 0.815079 0.334917 0.887223
O O1 0.470523 0.941046 0.500000
O O2 0.354096 0.874200 0.550740
O O3 0.392958 0.000000 0.500000
O O4 0.236765 0.763236 0.416272
O O5 0.149521 0.664126 0.350255
O O6 0.104708 0.740746 0.401544
O O7 0.259190 0.518380 0.285748
O O8 0.202901 0.601451 0.291635
O O9 0.126597 0.468326 0.253061
O O10 0.495103 0.149501 0.945353
O O11 0.612240 0.224480 0.000000
O O12 0.508297 0.254149 0.000000
O O13 0.327483 0.240600 0.500000
O O14 0.262705 0.131353 0.434169
O O15 0.234896 0.234896 0.427653
O O16 0.537412 0.074823 0.200980
O O17 0.463814 0.124451 0.152183
O O18 0.397149 0.000000 0.204200
O O19 0.796870 0.398435 0.875071
O O20 0.741216 0.258785 0.881231
#
# Coordination Sequence:
#
# PCOD8328769 Si02
#       7
#    12  24  24  12  24  24  24
#     4  11  21  30  42  60  80 101 125 153 186 226
#     4  10  19  31  45  60  79 101 126 159 196 235
#     4  10  20  33  48  63  79 101 132 169 208 248
#     4   8  13  20  33  55  79 101 126 161 202 238
#     4   9  16  27  44  63  82 104 130 160 193 230
#     4   9  18  30  41  55  77 103 129 159 197 242
#     4   9  15  24  39  58  79 102 131 166 202 238
#
# _framework density 14.102361999999999
#
# number of rings (size 3 to 8) (size 9 to 14) (size 15 to 20)
#    0.000    2.583    0.833    2.167    0.000    2.667 
#    0.000    3.750    0.000    5.000    0.000    1.167 
#    0.000    0.000    0.000    0.000    0.000    0.000 
#
# Total GULP energy -1784349.679253 kJ/mol
# GULP energy per Si atom -12391.317217 kJ/mol
# Density = 1.407026 g / cm^3
# Si number density = 14.102362 Si / 1000 Ang^3
#
#
#
# Elastic Constant Matrix: (Units=GPa)
#
#
# Indices 1 2 3 4 5 6 
#
# 1 64.2735 33.5744 45.8336 0.0000 0.0000 0.0000
# 2 33.5744 64.2735 45.8336 0.0000 0.0000 0.0000
# 3 45.8336 45.8336 120.4493 0.0000 0.0000 0.0000
# 4 0.0000 0.0000 0.0000 14.6111 0.0000 0.0000
# 5 0.0000 0.0000 0.0000 0.0000 14.6111 0.0000
# 6 0.0000 0.0000 0.0000 0.0000 0.0000 15.3495
#
#
#
# Elastic Compliance Matrix: (Units=1/GPa)
#
#
# Indices 1 2 3 4 5 6 
#
# 1 0.024228 -0.008346 -0.006043 0.000000 0.000000 0.000000
# 2 -0.008346 0.024228 -0.006043 0.000000 0.000000 0.000000
# 3 -0.006043 -0.006043 0.012901 0.000000 0.000000 0.000000
# 4 0.000000 0.000000 0.000000 0.068441 0.000000 0.000000
# 5 0.000000 0.000000 0.000000 0.000000 0.068441 0.000000
# 6 0.000000 0.000000 0.000000 0.000000 0.000000 0.065149
#
#
# Mechanical properties :
#
#
# Convention : Reuss Voigt Hill
#
# Bulk Modulus (GPa) = 48.80103 55.49770 52.14937
# Shear Modulus (GPa) = 16.07284 17.16468 16.61876
#
# Velocity S-wave (km/s) = 3.37965 3.49255 3.43656
# Velocity P-wave (km/s) = 7.06465 7.46343 7.26678
#
# Compressibility (1/GPa) = 0.02049137
#
# Stress axis : x y z
#
# Youngs Moduli (GPa) = 41.27479 41.27479 77.51087
#
# Poissons Ratio (x) = 0.34450 0.46842
# Poissons Ratio (y) = 0.34450 0.46842
# Poissons Ratio (z) = 0.24943 0.24943
#
# Static dielectric constant tensor:
#      x y z
#    x 2.666030 0.000000 0.000000 
#    y 0.000000 2.666030 0.000000 
#    z 0.000000 0.000000 3.001960 
# 
# 
# High freq. dielectric constant tensor:
#      x y z
#    x 1.515780 0.000000 0.000000 
#    y 0.000000 1.515780 0.000000 
#    z 0.000000 0.000000 1.541940 
# 
# From -- ./inp_files/7869.got.cif
#   From: 2010.03.12/outbox.cif.g09.slc.cpg/sg191_4_cif.got.tgz:7869.got - 2010.04.01 12:09:02.
