data_PCOD8328826
_publ_section_title
;
Structure prediction by ZEFSAII (Michael W. Deem and Ramdas Pophale) SiO2 
 PCOD8328826
Probable space group: P 6/M M M
;
_chemical_formula_sum "Si O2"
_cell_formula_units_Z 132
_cell_length_a 18.009728
_cell_length_b 18.009728
_cell_length_c 27.945334
_cell_angle_alpha 90.000000
_cell_angle_beta 90.000000
_cell_angle_gamma 120.000000
_cell_volume 7849.721412
_symmetry_space_group_name_H-M "P 6/M M M"
_symmetry_group_IT_number 191
_symmetry_cell_setting 'hexagonal'
loop_
_space_group_symop_operation_xyz
x,y,z
x-y,x,z
-y,x-y,z
-x,-y,z
-x+y,-x,z
y,-x+y,z
x-y,-y,-z
-x,-x+y,-z
y,x,-z
-y,-x,-z
-x+y,y,-z
x,x-y,-z
-x,-y,-z
-x+y,-x,-z
y,-x+y,-z
x,y,-z
x-y,x,-z
-y,x-y,-z
-x+y,y,z
x,x-y,z
-y,-x,z
y,x,z
x-y,-y,z
-x,-x+y,z
loop_
_atom_site_type_symbol
_atom_site_label
_atom_site_fract_x
_atom_site_fract_y
_atom_site_fract_z
Si Si1 0.531161 0.899006 0.636522
Si Si2 0.903426 0.261054 0.718687
Si Si3 0.737523 0.640769 0.172640
Si Si4 0.642129 0.738725 0.445779
Si Si5 0.368573 0.267150 0.000000
Si Si6 0.632342 0.100512 0.910367
O O1 0.427823 0.855646 0.636586
O O2 0.560561 0.870313 0.684083
O O3 0.560306 0.870513 0.588785
O O4 0.572474 0.000000 0.636636
O O5 0.841169 0.158832 0.712345
O O6 0.899180 0.289510 0.772851
O O7 0.000000 0.283697 0.705399
O O8 0.839351 0.678701 0.165083
O O9 0.715565 0.715565 0.159430
O O10 0.684846 0.557769 0.139283
O O11 0.609497 0.710145 0.500000
O O12 0.681822 0.840911 0.439390
O O13 0.716168 0.716168 0.432513
O O14 0.430780 0.302482 0.045619
O O15 0.295042 0.295042 0.000000
O O16 0.325736 0.162868 0.000000
O O17 0.571947 0.143893 0.913207
O O18 0.570986 0.000000 0.912487
#
# Coordination Sequence:
#
# PCOD8328826 Si02
#       6
#    24  24  24  24  12  24
#     4   9  17  28  43  64  86 108 140 183 227 269
#     4   9  17  29  46  68  93 121 154 191 228 266
#     4   9  17  29  46  68  93 122 156 192 228 267
#     4   9  17  29  46  68  93 121 153 188 224 262
#     4  10  19  31  49  72  97 125 158 194 229 267
#     4   9  17  29  46  67  88 112 146 188 231 273
#
# _framework density 16.815884
#
# number of rings (size 3 to 8) (size 9 to 14) (size 15 to 20)
#    0.000    2.909    0.000    1.364    0.000    2.182 
#    0.000    5.455    0.000    8.636    0.000    3.818 
#    0.000    8.727    0.000    0.545    0.000    0.364 
#
# Total GULP energy -1635740.457013 kJ/mol
# GULP energy per Si atom -12391.973159 kJ/mol
# Density = 1.677761 g / cm^3
# Si number density = 16.815884 Si / 1000 Ang^3
#
#
#
# Elastic Constant Matrix: (Units=GPa)
#
#
# Indices 1 2 3 4 5 6 
#
# 1 91.7089 53.9861 46.9856 0.0000 0.0000 0.0000
# 2 53.9861 91.7089 46.9856 0.0000 0.0000 0.0000
# 3 46.9856 46.9856 110.4888 0.0000 0.0000 0.0000
# 4 0.0000 0.0000 0.0000 -3.3651 0.0000 0.0000
# 5 0.0000 0.0000 0.0000 0.0000 -3.3651 0.0000
# 6 0.0000 0.0000 0.0000 0.0000 0.0000 18.8614
#
#
#
# Elastic Compliance Matrix: (Units=1/GPa)
#
#
# Indices 1 2 3 4 5 6 
#
# 1 0.017983 -0.008526 -0.004022 0.000000 0.000000 0.000000
# 2 -0.008526 0.017983 -0.004022 0.000000 0.000000 0.000000
# 3 -0.004022 -0.004022 0.012471 0.000000 0.000000 0.000000
# 4 0.000000 0.000000 0.000000 -0.297167 0.000000 0.000000
# 5 0.000000 0.000000 0.000000 0.000000 -0.297167 0.000000
# 6 0.000000 0.000000 0.000000 0.000000 0.000000 0.053018
#
#
# Mechanical properties :
#
#
# Convention : Reuss Voigt Hill
#
# Bulk Modulus (GPa) = 65.36316 65.53568 65.44942
# Shear Modulus (GPa) = -10.99777 12.15618 0.57920
#
# Velocity S-wave (km/s) = -2.56014 2.69159 0.58753
# Velocity P-wave (km/s) = 5.49684 6.97973 6.28219
#
# Compressibility (1/GPa) = 0.01529914
#
# Stress axis : x y z
#
# Youngs Moduli (GPa) = 55.60664 55.60664 80.18368
#
# Poissons Ratio (x) = 0.47409 0.32249
# Poissons Ratio (y) = 0.47409 0.32249
# Poissons Ratio (z) = 0.22365 0.22365
#
# Static dielectric constant tensor:
#      x y z
#    x 3.128590 0.000000 0.000000 
#    y 0.000000 3.128590 0.000000 
#    z 0.000000 0.000000 3.409770 
# 
# 
# High freq. dielectric constant tensor:
#      x y z
#    x 1.622650 0.000000 0.000000 
#    y 0.000000 1.622650 0.000000 
#    z 0.000000 0.000000 1.668780 
# 
# From -- ./inp_files/10523.got.cif
#   From: 2010.03.12/outbox.cif.g09.slc.cpg/sg191_6_cif.got.tgz:10523.got - 2010.04.01 12:09:02.
