data_PCOD8328522
_publ_section_title
;
Structure prediction by ZEFSAII (Michael W. Deem and Ramdas Pophale) SiO2 
 PCOD8328522
Probable space group: P 6/M M M
;
_chemical_formula_sum "Si O2"
_cell_formula_units_Z 108
_cell_length_a 18.313060
_cell_length_b 18.313060
_cell_length_c 21.950027
_cell_angle_alpha 90.000000
_cell_angle_beta 90.000000
_cell_angle_gamma 120.000000
_cell_volume 6375.107715
_symmetry_space_group_name_H-M "P 6/M M M"
_symmetry_group_IT_number 191
_symmetry_cell_setting 'hexagonal'
loop_
_space_group_symop_operation_xyz
x,y,z
x-y,x,z
-y,x-y,z
-x,-y,z
-x+y,-x,z
y,-x+y,z
x-y,-y,-z
-x,-x+y,-z
y,x,-z
-y,-x,-z
-x+y,y,-z
x,x-y,-z
-x,-y,-z
-x+y,-x,-z
y,-x+y,-z
x,y,-z
x-y,x,-z
-y,x-y,-z
-x+y,y,z
x,x-y,z
-y,-x,z
y,x,z
x-y,-y,z
-x,-x+y,z
loop_
_atom_site_type_symbol
_atom_site_label
_atom_site_fract_x
_atom_site_fract_y
_atom_site_fract_z
Si Si1 0.468020 0.369118 0.890042
Si Si2 0.369951 0.465621 0.634297
Si Si3 0.807404 0.192597 0.572114
Si Si4 0.263528 0.363199 0.000000
Si Si5 0.165921 0.667198 0.238621
Si Si6 0.096252 0.192503 0.427493
O O1 0.568165 0.431836 0.903547
O O2 0.425953 0.425953 0.887046
O O3 0.424329 0.299433 0.941928
O O4 0.451781 0.321808 0.825451
O O5 0.435575 0.564426 0.620954
O O6 0.409489 0.409489 0.613298
O O7 0.287564 0.436081 0.594840
O O8 0.351978 0.452189 0.706770
O O9 0.807886 0.192115 0.500000
O O10 0.855609 0.144392 0.596968
O O11 0.290482 0.290482 0.000000
O O12 0.161171 0.322342 0.000000
O O13 0.188746 0.594373 0.231346
O O14 0.248620 0.751381 0.257525
O O15 0.144474 0.144474 0.402801
O O16 0.095820 0.191640 0.500000
#
# Coordination Sequence:
#
# PCOD8328522 Si02
#       6
#    24  24  12  12  24  12
#     4   9  17  29  47  71 100 134 168 201 241 293
#     4  10  21  37  55  74  99 133 172 211 252 299
#     4  11  22  37  54  77 102 129 164 209 258 309
#     4  10  19  31  47  70 101 135 172 214 257 301
#     4  10  18  30  48  71  98 130 168 207 245 284
#     4   9  17  30  51  78 106 132 157 190 239 305
#
# _framework density 16.94089
#
# number of rings (size 3 to 8) (size 9 to 14) (size 15 to 20)
#    0.000    2.222    1.111    2.667    0.000    6.222 
#    0.667    1.111    0.000    3.222    0.000    0.000 
#    0.000    0.000    0.000    0.000    0.000    0.000 
#
# Total GULP energy -1338809.065581 kJ/mol
# GULP energy per Si atom -12396.380237 kJ/mol
# Density = 1.690233 g / cm^3
# Si number density = 16.940890 Si / 1000 Ang^3
#
#
#
# Elastic Constant Matrix: (Units=GPa)
#
#
# Indices 1 2 3 4 5 6 
#
# 1 179.6544 -33.3128 41.5305 0.0000 0.0000 0.0000
# 2 -33.3128 179.6544 41.5305 0.0000 0.0000 0.0000
# 3 41.5305 41.5305 76.6338 0.0000 0.0000 0.0000
# 4 0.0000 0.0000 0.0000 24.3992 0.0000 0.0000
# 5 0.0000 0.0000 0.0000 0.0000 24.3992 0.0000
# 6 0.0000 0.0000 0.0000 0.0000 0.0000 106.4836
#
#
#
# Elastic Compliance Matrix: (Units=1/GPa)
#
#
# Indices 1 2 3 4 5 6 
#
# 1 0.007282 0.002587 -0.005348 0.000000 0.000000 0.000000
# 2 0.002587 0.007282 -0.005348 0.000000 0.000000 0.000000
# 3 -0.005348 -0.005348 0.018846 0.000000 0.000000 0.000000
# 4 0.000000 0.000000 0.000000 0.040985 0.000000 0.000000
# 5 0.000000 0.000000 0.000000 0.000000 0.040985 0.000000
# 6 0.000000 0.000000 0.000000 0.000000 0.000000 0.009391
#
#
# Mechanical properties :
#
#
# Convention : Reuss Voigt Hill
#
# Bulk Modulus (GPa) = 58.17145 59.49319 58.83232
# Shear Modulus (GPa) = 34.07818 56.80270 45.44044
#
# Velocity S-wave (km/s) = 4.48994 5.79679 5.18471
# Velocity P-wave (km/s) = 7.82892 8.94416 8.40505
#
# Compressibility (1/GPa) = 0.01719056
#
# Stress axis : x y z
#
# Youngs Moduli (GPa) = 137.32022 137.32022 53.06185
#
# Poissons Ratio (x) = -0.35520 0.28379
# Poissons Ratio (y) = -0.35520 0.28379
# Poissons Ratio (z) = 0.73443 0.73443
#
# Static dielectric constant tensor:
#      x y z
#    x 3.191610 0.000000 0.000000 
#    y 0.000000 3.191610 0.000000 
#    z 0.000000 0.000000 3.240460 
# 
# 
# High freq. dielectric constant tensor:
#      x y z
#    x 1.646270 0.000000 0.000000 
#    y 0.000000 1.646270 0.000000 
#    z 0.000000 0.000000 1.648090 
# 
# From -- ./inp_files/8430.got.cif
#   From: 2010.03.12/outbox.cif.g09.slc.cpg/sg191_5_cif.got.tgz:8430.got - 2010.04.01 12:09:02.
