data_PCOD8328255
_publ_section_title
;
Structure prediction by ZEFSAII (Michael W. Deem and Ramdas Pophale) SiO2 
 PCOD8328255
Probable space group: P 6/M M M
;
_chemical_formula_sum "Si O2"
_cell_formula_units_Z 120
_cell_length_a 21.440098
_cell_length_b 21.440098
_cell_length_c 25.574974
_cell_angle_alpha 90.000000
_cell_angle_beta 90.000000
_cell_angle_gamma 120.000000
_cell_volume 10181.209283
_symmetry_space_group_name_H-M "P 6/M M M"
_symmetry_group_IT_number 191
_symmetry_cell_setting 'hexagonal'
loop_
_space_group_symop_operation_xyz
x,y,z
x-y,x,z
-y,x-y,z
-x,-y,z
-x+y,-x,z
y,-x+y,z
x-y,-y,-z
-x,-x+y,-z
y,x,-z
-y,-x,-z
-x+y,y,-z
x,x-y,-z
-x,-y,-z
-x+y,-x,-z
y,-x+y,-z
x,y,-z
x-y,x,-z
-y,x-y,-z
-x+y,y,z
x,x-y,z
-y,-x,z
y,x,z
x-y,-y,z
-x,-x+y,z
loop_
_atom_site_type_symbol
_atom_site_label
_atom_site_fract_x
_atom_site_fract_y
_atom_site_fract_z
Si Si1 0.385729 0.466416 0.408826
Si Si2 0.466393 0.080455 0.000000
Si Si3 0.614050 0.079844 0.707569
Si Si4 0.666932 0.482124 0.500000
Si Si5 0.811275 0.332910 0.792721
Si Si6 0.812094 0.478851 0.088761
O O1 0.461337 0.538664 0.412237
O O2 0.400380 0.400380 0.421614
O O3 0.352584 0.457329 0.350533
O O4 0.331673 0.471496 0.449724
O O5 0.465624 0.123402 0.051546
O O6 0.536913 0.073825 0.000000
O O7 0.396656 0.000000 0.000000
O O8 0.539624 0.079248 0.711098
O O9 0.667884 0.131629 0.752154
O O10 0.600123 0.000000 0.718624
O O11 0.597808 0.402193 0.500000
O O12 0.737546 0.475091 0.500000
O O13 0.801082 0.400541 0.782662
O O14 0.735763 0.264237 0.780777
O O15 0.837167 0.332796 0.851880
O O16 0.740261 0.480521 0.074460
O O17 0.794942 0.397471 0.079913
#
# Coordination Sequence:
#
# PCOD8328255 Si02
#       6
#    24  12  24  12  24  24
#     4   8  14  25  38  47  56  76 106 131 148 176
#     4   9  17  26  34  46  62  77  96 126 162 192
#     4   8  14  24  36  48  60  76 101 129 153 180
#     4  10  18  25  33  47  66  83  98 122 161 202
#     4   9  16  24  34  48  65  83 101 123 154 192
#     4   9  16  25  36  48  62  81 104 127 152 187
#
# _framework density 11.786419
#
# number of rings (size 3 to 8) (size 9 to 14) (size 15 to 20)
#    0.000    3.300    0.000    2.300    0.000    4.400 
#    0.000    5.000    0.000    2.400    0.000    0.000 
#    0.000    0.000    0.000    0.000    0.000    0.000 
#
# Total GULP energy -1487113.220414 kJ/mol
# GULP energy per Si atom -12392.610170 kJ/mol
# Density = 1.175959 g / cm^3
# Si number density = 11.786419 Si / 1000 Ang^3
#
#
#
# Elastic Constant Matrix: (Units=GPa)
#
#
# Indices 1 2 3 4 5 6 
#
# 1 45.1407 27.3093 44.7264 0.0000 0.0000 0.0000
# 2 27.3093 45.1407 44.7264 0.0000 0.0000 0.0000
# 3 44.7264 44.7264 105.7258 0.0000 0.0000 0.0000
# 4 0.0000 0.0000 0.0000 17.5432 0.0000 0.0000
# 5 0.0000 0.0000 0.0000 0.0000 17.5432 0.0000
# 6 0.0000 0.0000 0.0000 0.0000 0.0000 8.9157
#
#
#
# Elastic Compliance Matrix: (Units=1/GPa)
#
#
# Indices 1 2 3 4 5 6 
#
# 1 0.042488 -0.013593 -0.012224 0.000000 0.000000 0.000000
# 2 -0.013593 0.042488 -0.012224 0.000000 0.000000 0.000000
# 3 -0.012224 -0.012224 0.019801 0.000000 0.000000 0.000000
# 4 0.000000 0.000000 0.000000 0.057002 0.000000 0.000000
# 5 0.000000 0.000000 0.000000 0.000000 0.057002 0.000000
# 6 0.000000 0.000000 0.000000 0.000000 0.000000 0.112162
#
#
# Mechanical properties :
#
#
# Convention : Reuss Voigt Hill
#
# Bulk Modulus (GPa) = 34.84833 47.72570 41.28701
# Shear Modulus (GPa) = 12.00224 14.08344 13.04284
#
# Velocity S-wave (km/s) = 3.19456 3.46046 3.33017
# Velocity P-wave (km/s) = 6.57553 7.51974 7.06343
#
# Compressibility (1/GPa) = 0.02869578
#
# Stress axis : x y z
#
# Youngs Moduli (GPa) = 23.53605 23.53605 50.50296
#
# Poissons Ratio (x) = 0.31992 0.61734
# Poissons Ratio (y) = 0.31992 0.61734
# Poissons Ratio (z) = 0.28770 0.28770
#
# Static dielectric constant tensor:
#      x y z
#    x 2.292590 0.000000 0.000000 
#    y 0.000000 2.292590 0.000000 
#    z 0.000000 0.000000 2.776210 
# 
# 
# High freq. dielectric constant tensor:
#      x y z
#    x 1.408060 0.000000 0.000000 
#    y 0.000000 1.408060 0.000000 
#    z 0.000000 0.000000 1.466670 
# 
# From -- ./inp_files/9901.got.cif
#   From: 2010.03.12/outbox.cif.g09.slc.cpg/sg191_5_cif.got.tgz:9901.got - 2010.04.01 12:09:02.
