data_PCOD8328618
_publ_section_title
;
Structure prediction by ZEFSAII (Michael W. Deem and Ramdas Pophale) SiO2 
 PCOD8328618
Probable space group: P 6/M M M
;
_chemical_formula_sum "Si O2"
_cell_formula_units_Z 132
_cell_length_a 17.972216
_cell_length_b 17.972216
_cell_length_c 27.386191
_cell_angle_alpha 90.000000
_cell_angle_beta 90.000000
_cell_angle_gamma 120.000000
_cell_volume 7660.648285
_symmetry_space_group_name_H-M "P 6/M M M"
_symmetry_group_IT_number 191
_symmetry_cell_setting 'hexagonal'
loop_
_space_group_symop_operation_xyz
x,y,z
x-y,x,z
-y,x-y,z
-x,-y,z
-x+y,-x,z
y,-x+y,z
x-y,-y,-z
-x,-x+y,-z
y,x,-z
-y,-x,-z
-x+y,y,-z
x,x-y,-z
-x,-y,-z
-x+y,-x,-z
y,-x+y,-z
x,y,-z
x-y,x,-z
-y,x-y,-z
-x+y,y,z
x,x-y,z
-y,-x,z
y,x,z
x-y,-y,z
-x,-x+y,z
loop_
_atom_site_type_symbol
_atom_site_label
_atom_site_fract_x
_atom_site_fract_y
_atom_site_fract_z
Si Si1 0.338061 0.338061 0.557856
Si Si2 0.634992 0.731668 0.000000
Si Si3 0.540530 0.635895 0.708272
Si Si4 0.834784 0.504583 0.085234
Si Si5 0.000000 0.831296 0.558126
Si Si6 0.493652 0.163211 0.605925
Si Si7 0.466529 0.364977 0.186698
O O1 0.339256 0.339256 0.500000
O O2 0.253329 0.253329 0.577463
O O3 0.338314 0.422255 0.575995
O O4 0.578130 0.684996 0.952704
O O5 0.716885 0.716885 0.000000
O O6 0.667436 0.833718 0.000000
O O7 0.455587 0.544414 0.713834
O O8 0.619679 0.619679 0.696894
O O9 0.531474 0.687609 0.663222
O O10 0.555718 0.685045 0.760705
O O11 0.734462 0.468923 0.073879
O O12 0.855875 0.427938 0.080516
O O13 0.855507 0.548851 0.139121
O O14 0.915452 0.830904 0.578379
O O15 0.000000 0.832744 0.500000
O O16 0.583259 0.166517 0.598054
O O17 0.501227 0.250614 0.585636
O O18 0.567192 0.432809 0.186397
O O19 0.410580 0.410580 0.181616
#
# Coordination Sequence:
#
# PCOD8328618 Si02
#       7
#    12  12  24  24  12  24  24
#     4  11  23  39  57  75  99 135 171 198 237 299
#     4  10  21  35  51  70  93 123 160 202 251 303
#     4   8  14  28  48  68  91 123 162 204 251 299
#     4  10  19  29  42  64  97 138 179 215 246 278
#     4   9  17  31  53  81 109 133 159 195 238 283
#     4  11  22  36  54  76 101 130 167 211 256 299
#     4   8  14  25  43  64  87 120 165 211 251 290
#
# _framework density 17.230917999999999
#
# number of rings (size 3 to 8) (size 9 to 14) (size 15 to 20)
#    0.000    2.545    0.909    3.182    0.000    4.364 
#    0.000    0.909    0.000    3.364    0.000    0.000 
#    0.000    0.000    0.000    0.000    0.000    0.000 
#
# Total GULP energy -1635652.837268 kJ/mol
# GULP energy per Si atom -12391.309373 kJ/mol
# Density = 1.719170 g / cm^3
# Si number density = 17.230918 Si / 1000 Ang^3
#
#
#
# Elastic Constant Matrix: (Units=GPa)
#
#
# Indices 1 2 3 4 5 6 
#
# 1 95.2642 54.0924 37.2069 0.0000 0.0000 0.0000
# 2 54.0924 95.2642 37.2069 0.0000 0.0000 0.0000
# 3 37.2069 37.2069 87.2137 0.0000 0.0000 0.0000
# 4 0.0000 0.0000 0.0000 14.8234 0.0000 0.0000
# 5 0.0000 0.0000 0.0000 0.0000 14.8234 0.0000
# 6 0.0000 0.0000 0.0000 0.0000 0.0000 20.5859
#
#
#
# Elastic Compliance Matrix: (Units=1/GPa)
#
#
# Indices 1 2 3 4 5 6 
#
# 1 0.016396 -0.007893 -0.003627 0.000000 0.000000 0.000000
# 2 -0.007893 0.016396 -0.003627 0.000000 0.000000 0.000000
# 3 -0.003627 -0.003627 0.014561 0.000000 0.000000 0.000000
# 4 0.000000 0.000000 0.000000 0.067461 0.000000 0.000000
# 5 0.000000 0.000000 0.000000 0.000000 0.067461 0.000000
# 6 0.000000 0.000000 0.000000 0.000000 0.000000 0.048577
#
#
# Mechanical properties :
#
#
# Convention : Reuss Voigt Hill
#
# Bulk Modulus (GPa) = 58.62739 59.41718 59.02228
# Shear Modulus (GPa) = 18.73840 19.99561 19.36701
#
# Velocity S-wave (km/s) = 3.30128 3.41023 3.35620
# Velocity P-wave (km/s) = 6.97350 7.07559 7.02473
#
# Compressibility (1/GPa) = 0.01705688
#
# Stress axis : x y z
#
# Youngs Moduli (GPa) = 60.99213 60.99213 68.67619
#
# Poissons Ratio (x) = 0.48141 0.24911
# Poissons Ratio (y) = 0.48141 0.24911
# Poissons Ratio (z) = 0.22124 0.22124
#
# Static dielectric constant tensor:
#      x y z
#    x 3.034400 0.000000 0.000000 
#    y 0.000000 3.034400 0.000000 
#    z 0.000000 0.000000 3.530540 
# 
# 
# High freq. dielectric constant tensor:
#      x y z
#    x 1.640130 0.000000 0.000000 
#    y 0.000000 1.640130 0.000000 
#    z 0.000000 0.000000 1.675450 
# 
# From -- ./inp_files/9867.got.cif
#   From: 2010.03.12/outbox.cif.g09.slc.cpg/sg191_5_cif.got.tgz:9867.got - 2010.04.01 12:09:02.
