data_PCOD8328808
_publ_section_title
;
Structure prediction by ZEFSAII (Michael W. Deem and Ramdas Pophale) SiO2 
 PCOD8328808
Probable space group: P 6/M M M
;
_chemical_formula_sum "Si O2"
_cell_formula_units_Z 108
_cell_length_a 16.546847
_cell_length_b 16.546847
_cell_length_c 25.952219
_cell_angle_alpha 90.000000
_cell_angle_beta 90.000000
_cell_angle_gamma 120.000000
_cell_volume 6153.690244
_symmetry_space_group_name_H-M "P 6/M M M"
_symmetry_group_IT_number 191
_symmetry_cell_setting 'hexagonal'
loop_
_space_group_symop_operation_xyz
x,y,z
x-y,x,z
-y,x-y,z
-x,-y,z
-x+y,-x,z
y,-x+y,z
x-y,-y,-z
-x,-x+y,-z
y,x,-z
-y,-x,-z
-x+y,y,-z
x,x-y,-z
-x,-y,-z
-x+y,-x,-z
y,-x+y,-z
x,y,-z
x-y,x,-z
-y,x-y,-z
-x+y,y,z
x,x-y,z
-y,-x,z
y,x,z
x-y,-y,z
-x,-x+y,z
loop_
_atom_site_type_symbol
_atom_site_label
_atom_site_fract_x
_atom_site_fract_y
_atom_site_fract_z
Si Si1 0.515850 0.667340 0.394423
Si Si2 0.285529 0.390496 0.290291
Si Si3 0.384384 0.283393 0.500000
Si Si4 0.712798 0.105831 0.060020
Si Si5 0.889510 0.444755 0.765987
Si Si6 0.555225 0.110450 0.118536
O O1 0.475061 0.737531 0.394764
O O2 0.435275 0.564726 0.379939
O O3 0.596497 0.699093 0.351723
O O4 0.554609 0.665003 0.450301
O O5 0.176898 0.353795 0.276546
O O6 0.314599 0.314599 0.271838
O O7 0.347268 0.491206 0.263172
O O8 0.292235 0.292235 0.500000
O O9 0.348199 0.174100 0.500000
O O10 0.822530 0.177471 0.072086
O O11 0.652602 0.143673 0.089468
O O12 0.684475 0.000000 0.077202
O O13 0.691540 0.106623 0.000000
O O14 0.847806 0.423903 0.823737
O O15 0.000000 0.500000 0.767355
O O16 0.500000 0.000000 0.119772
#
# Coordination Sequence:
#
# PCOD8328808 Si02
#       6
#    24  24  12  24  12  12
#     4  10  19  31  48  70  97 126 157 191 232 282
#     4  10  20  34  52  72  97 130 165 202 243 291
#     4  10  21  33  47  68  91 119 152 192 237 283
#     4   9  17  30  49  72  99 132 168 205 246 291
#     4   9  18  33  50  70  96 125 158 199 243 289
#     4   9  17  30  49  70  95 126 161 201 243 287
#
# _framework density 17.550443999999999
#
# number of rings (size 3 to 8) (size 9 to 14) (size 15 to 20)
#    0.000    2.444    1.111    1.556    0.000    4.000 
#    1.333    1.111    0.000    0.556    0.000    1.556 
#    0.000    5.333    0.000   11.111    0.000    6.222 
#
# Total GULP energy -1338789.874423 kJ/mol
# GULP energy per Si atom -12396.202541 kJ/mol
# Density = 1.751050 g / cm^3
# Si number density = 17.550444 Si / 1000 Ang^3
#
#
#
# Elastic Constant Matrix: (Units=GPa)
#
#
# Indices 1 2 3 4 5 6 
#
# 1 94.9229 57.2200 22.4007 0.0000 0.0000 0.0000
# 2 57.2200 94.9229 22.4007 0.0000 0.0000 0.0000
# 3 22.4007 22.4007 79.1352 0.0000 0.0000 0.0000
# 4 0.0000 0.0000 0.0000 14.8000 0.0000 0.0000
# 5 0.0000 0.0000 0.0000 0.0000 14.8000 0.0000
# 6 0.0000 0.0000 0.0000 0.0000 0.0000 18.8514
#
#
#
# Elastic Compliance Matrix: (Units=1/GPa)
#
#
# Indices 1 2 3 4 5 6 
#
# 1 0.016847 -0.009676 -0.002030 0.000000 0.000000 0.000000
# 2 -0.009676 0.016847 -0.002030 0.000000 0.000000 0.000000
# 3 -0.002030 -0.002030 0.013786 0.000000 0.000000 0.000000
# 4 0.000000 0.000000 0.000000 0.067568 0.000000 0.000000
# 5 0.000000 0.000000 0.000000 0.000000 0.067568 0.000000
# 6 0.000000 0.000000 0.000000 0.000000 0.000000 0.053046
#
#
# Mechanical properties :
#
#
# Convention : Reuss Voigt Hill
#
# Bulk Modulus (GPa) = 49.98076 52.55820 51.26948
# Shear Modulus (GPa) = 18.53211 20.82091 19.67651
#
# Velocity S-wave (km/s) = 3.25304 3.44807 3.35198
# Velocity P-wave (km/s) = 6.53069 6.77231 6.65260
#
# Compressibility (1/GPa) = 0.02000770
#
# Stress axis : x y z
#
# Youngs Moduli (GPa) = 59.35833 59.35833 72.53884
#
# Poissons Ratio (x) = 0.57437 0.14723
# Poissons Ratio (y) = 0.57437 0.14723
# Poissons Ratio (z) = 0.12048 0.12048
#
# Static dielectric constant tensor:
#      x y z
#    x 3.169130 0.000000 0.000000 
#    y 0.000000 3.169130 0.000000 
#    z 0.000000 0.000000 3.436000 
# 
# 
# High freq. dielectric constant tensor:
#      x y z
#    x 1.656230 0.000000 0.000000 
#    y 0.000000 1.656230 0.000000 
#    z 0.000000 0.000000 1.685910 
# 
# From -- ./inp_files/9505.got.cif
#   From: 2010.03.12/outbox.cif.g09.slc.cpg/sg191_5_cif.got.tgz:9505.got - 2010.04.01 12:09:02.
