data_PCOD8328170
_publ_section_title
;
Structure prediction by ZEFSAII (Michael W. Deem and Ramdas Pophale) SiO2 
 PCOD8328170
Probable space group: P -6 2 C
;
_chemical_formula_sum "Si O2"
_cell_formula_units_Z 72
_cell_length_a 15.236089
_cell_length_b 15.236089
_cell_length_c 18.310595
_cell_angle_alpha 90.000000
_cell_angle_beta 90.000000
_cell_angle_gamma 120.000000
_cell_volume 3681.120976
_symmetry_space_group_name_H-M "P -6 2 C"
_symmetry_group_IT_number 190
_symmetry_cell_setting 'hexagonal'
loop_
_space_group_symop_operation_xyz
x,y,z
-x+y,-x,1/2-z
-y,x-y,z
x,y,1/2-z
-x+y,-x,z
-y,x-y,1/2-z
x-y,-y,-z
-x,-x+y,-z
y,x,-z
y,x,1/2+z
x-y,-y,1/2+z
-x,-x+y,1/2+z
loop_
_atom_site_type_symbol
_atom_site_label
_atom_site_fract_x
_atom_site_fract_y
_atom_site_fract_z
Si Si1 0.341244 0.922028 0.664870
Si Si2 0.355264 0.788342 0.952190
Si Si3 0.542819 0.827653 0.335935
Si Si4 0.781567 0.855574 0.664721
Si Si5 0.619409 0.490123 0.606211
Si Si6 0.922853 0.771791 0.662685
O O1 0.363782 0.918791 0.750000
O O2 0.367465 0.845545 0.623640
O O3 0.224645 0.888807 0.649897
O O4 0.407587 0.035018 0.634918
O O5 0.244545 0.686017 0.955752
O O6 0.368347 0.862560 0.018682
O O7 0.542041 0.840662 0.250000
O O8 0.488527 0.883882 0.372114
O O9 0.479869 0.709331 0.356630
O O10 0.657579 0.879687 0.366615
O O11 0.804747 0.870024 0.750000
O O12 0.853715 0.816164 0.630938
O O13 0.806563 0.963616 0.631521
O O14 0.919914 0.769075 0.750000
#
# Coordination Sequence:
#
# PCOD8328170 Si02
#       6
#    12  12  12  12  12  12
#     4  11  23  38  63  93 124 164 208 263 321 381
#     4  10  23  44  63  85 120 167 217 253 315 386
#     4  11  20  32  57  90 125 158 199 260 320 383
#     4   9  17  32  53  84 122 157 198 251 307 364
#     4  12  21  40  60  90 127 159 209 258 329 390
#     4   9  17  30  52  84 121 158 198 246 305 369
#
# _framework density 19.559259000000001
#
# number of rings (size 3 to 8) (size 9 to 14) (size 15 to 20)
#    0.333    1.333    3.333    2.667    0.000    3.333 
#    0.000    1.667    0.000    0.000    0.000    0.000 
#    0.000    0.000    0.000    0.000    0.000    0.000 
#
# Total GULP energy -892836.559964 kJ/mol
# GULP energy per Si atom -12400.507777 kJ/mol
# Density = 1.951474 g / cm^3
# Si number density = 19.559259 Si / 1000 Ang^3
#
#
#
# Elastic Constant Matrix: (Units=GPa)
#
#
# Indices 1 2 3 4 5 6 
#
# 1 96.9566 36.6055 35.9234 0.0000 0.0000 0.0000
# 2 36.6055 96.9566 35.9234 0.0000 0.0000 0.0000
# 3 35.9234 35.9234 97.1602 0.0000 0.0000 0.0000
# 4 0.0000 0.0000 0.0000 24.3739 0.0000 0.0000
# 5 0.0000 0.0000 0.0000 0.0000 24.3739 0.0000
# 6 0.0000 0.0000 0.0000 0.0000 0.0000 30.1755
#
#
#
# Elastic Compliance Matrix: (Units=1/GPa)
#
#
# Indices 1 2 3 4 5 6 
#
# 1 0.012958 -0.003612 -0.003456 0.000000 0.000000 0.000000
# 2 -0.003612 0.012958 -0.003456 0.000000 0.000000 0.000000
# 3 -0.003456 -0.003456 0.012848 0.000000 0.000000 0.000000
# 4 0.000000 0.000000 0.000000 0.041028 0.000000 0.000000
# 5 0.000000 0.000000 0.000000 0.000000 0.041028 0.000000
# 6 0.000000 0.000000 0.000000 0.000000 0.000000 0.033139
#
#
# Mechanical properties :
#
#
# Convention : Reuss Voigt Hill
#
# Bulk Modulus (GPa) = 56.44174 56.44201 56.44187
# Shear Modulus (GPa) = 27.63814 27.95938 27.79876
#
# Velocity S-wave (km/s) = 3.76313 3.78494 3.77405
# Velocity P-wave (km/s) = 6.91382 6.92969 6.92176
#
# Compressibility (1/GPa) = 0.01771739
#
# Stress axis : x y z
#
# Youngs Moduli (GPa) = 77.17331 77.17331 77.83593
#
# Poissons Ratio (x) = 0.27874 0.26896
# Poissons Ratio (y) = 0.27874 0.26896
# Poissons Ratio (z) = 0.26667 0.26667
#
# Static dielectric constant tensor:
#      x y z
#    x 3.633450 0.000000 0.000000 
#    y 0.000000 3.633450 0.000000 
#    z 0.000000 0.000000 3.189180 
# 
# 
# High freq. dielectric constant tensor:
#      x y z
#    x 1.764580 0.000000 0.000000 
#    y 0.000000 1.764580 0.000000 
#    z 0.000000 0.000000 1.726680 
# 
# From -- ./inp_files/3757.got.cif
#   From: 2010.06.25/outbox.cif.g09.slc.cpg/sg190_2_cif.got.tgz:3757.got - 2010.06.28 13:08:06.
