data_PCOD8328933
_publ_section_title
;
Structure prediction by ZEFSAII (Michael W. Deem and Ramdas Pophale) SiO2 
 PCOD8328933
Probable space group: P 6/M M M
;
_chemical_formula_sum "Si O2"
_cell_formula_units_Z 144
_cell_length_a 21.335973
_cell_length_b 21.335973
_cell_length_c 21.381249
_cell_angle_alpha 90.000000
_cell_angle_beta 90.000000
_cell_angle_gamma 120.000000
_cell_volume 8429.243682
_symmetry_space_group_name_H-M "P 6/M M M"
_symmetry_group_IT_number 191
_symmetry_cell_setting 'hexagonal'
loop_
_space_group_symop_operation_xyz
x,y,z
x-y,x,z
-y,x-y,z
-x,-y,z
-x+y,-x,z
y,-x+y,z
x-y,-y,-z
-x,-x+y,-z
y,x,-z
-y,-x,-z
-x+y,y,-z
x,x-y,-z
-x,-y,-z
-x+y,-x,-z
y,-x+y,-z
x,y,-z
x-y,x,-z
-y,x-y,-z
-x+y,y,z
x,x-y,z
-y,-x,z
y,x,z
x-y,-y,z
-x,-x+y,z
loop_
_atom_site_type_symbol
_atom_site_label
_atom_site_fract_x
_atom_site_fract_y
_atom_site_fract_z
Si Si1 0.182596 0.666733 0.000000
Si Si2 0.469302 0.388178 0.110729
Si Si3 0.156855 0.453935 0.222621
Si Si4 0.704791 0.920686 0.375639
Si Si5 0.157831 0.459948 0.367569
Si Si6 0.711084 0.921857 0.227181
Si Si7 0.541748 0.458253 0.573812
O O1 0.135572 0.667771 0.059240
O O2 0.260535 0.739466 0.000000
O O3 0.195133 0.597566 0.000000
O O4 0.534528 0.465473 0.092356
O O5 0.397272 0.397272 0.111929
O O6 0.488532 0.366246 0.177717
O O7 0.242722 0.485443 0.211068
O O8 0.143894 0.466189 0.294386
O O9 0.113566 0.370149 0.203449
O O10 0.730106 0.865053 0.400966
O O11 0.621441 0.890326 0.392997
O O12 0.711456 0.926006 0.301574
O O13 0.754477 0.000000 0.406223
O O14 0.243068 0.486135 0.378879
O O15 0.130634 0.506174 0.404841
O O16 0.744591 0.872296 0.205640
O O17 0.759164 0.000000 0.196313
O O18 0.500000 0.500000 0.600166
O O19 0.539866 0.460135 0.500000
#
# Coordination Sequence:
#
# PCOD8328933 Si02
#       7
#    12  24  24  24  24  24  12
#     4  10  20  35  51  65  88 125 168 206 237 282
#     4  10  20  31  46  70  97 123 153 192 245 300
#     4   9  17  30  48  70  94 118 153 196 239 291
#     4   8  13  23  41  64  88 117 150 187 231 277
#     4   9  19  35  53  72  97 128 166 210 254 304
#     4   8  13  21  35  56  82 110 140 177 218 263
#     4  11  24  38  54  78 104 131 169 217 265 316
#
# _framework density 17.083383000000001
#
# number of rings (size 3 to 8) (size 9 to 14) (size 15 to 20)
#    0.000    2.917    0.000    3.833    1.167    3.333 
#    0.500    0.000    0.000    0.667    0.000    2.333 
#    0.000    0.000    0.000    0.000    0.000    0.000 
#
# Total GULP energy -1783887.789526 kJ/mol
# GULP energy per Si atom -12388.109649 kJ/mol
# Density = 1.704450 g / cm^3
# Si number density = 17.083383 Si / 1000 Ang^3
#
#
#
# Elastic Constant Matrix: (Units=GPa)
#
#
# Indices 1 2 3 4 5 6 
#
# 1 91.9045 51.7394 28.5198 0.0000 0.0000 0.0000
# 2 51.7394 91.9045 28.5198 0.0000 0.0000 0.0000
# 3 28.5198 28.5198 52.1572 0.0000 0.0000 0.0000
# 4 0.0000 0.0000 0.0000 15.9206 0.0000 0.0000
# 5 0.0000 0.0000 0.0000 0.0000 15.9206 0.0000
# 6 0.0000 0.0000 0.0000 0.0000 0.0000 20.0825
#
#
#
# Elastic Compliance Matrix: (Units=1/GPa)
#
#
# Indices 1 2 3 4 5 6 
#
# 1 0.016895 -0.008002 -0.004862 0.000000 0.000000 0.000000
# 2 -0.008002 0.016895 -0.004862 0.000000 0.000000 0.000000
# 3 -0.004862 -0.004862 0.024490 0.000000 0.000000 0.000000
# 4 0.000000 0.000000 0.000000 0.062812 0.000000 0.000000
# 5 0.000000 0.000000 0.000000 0.000000 0.062812 0.000000
# 6 0.000000 0.000000 0.000000 0.000000 0.000000 0.049795
#
#
# Mechanical properties :
#
#
# Convention : Reuss Voigt Hill
#
# Bulk Modulus (GPa) = 43.81047 50.39158 47.10103
# Shear Modulus (GPa) = 18.06614 18.86391 18.46503
#
# Velocity S-wave (km/s) = 3.25549 3.32659 3.29124
# Velocity P-wave (km/s) = 6.31124 6.65706 6.48645
#
# Compressibility (1/GPa) = 0.02282559
#
# Stress axis : x y z
#
# Youngs Moduli (GPa) = 59.18957 59.18957 40.83234
#
# Poissons Ratio (x) = 0.47366 0.19854
# Poissons Ratio (y) = 0.47366 0.19854
# Poissons Ratio (z) = 0.28781 0.28781
#
# Static dielectric constant tensor:
#      x y z
#    x 3.403130 0.000000 0.000000 
#    y 0.000000 3.403130 0.000000 
#    z 0.000000 0.000000 2.873560 
# 
# 
# High freq. dielectric constant tensor:
#      x y z
#    x 1.652620 0.000000 0.000000 
#    y 0.000000 1.652620 0.000000 
#    z 0.000000 0.000000 1.627860 
# 
# From -- ./inp_files/8892.got.cif
#   From: 2010.03.12/outbox.cif.g09.slc.cpg/sg191_5_cif.got.tgz:8892.got - 2010.04.01 12:09:02.
