data_PCOD8328792
_publ_section_title
;
Structure prediction by ZEFSAII (Michael W. Deem and Ramdas Pophale) SiO2 
 PCOD8328792
Probable space group: P 6/M M M
;
_chemical_formula_sum "Si O2"
_cell_formula_units_Z 96
_cell_length_a 28.336385
_cell_length_b 28.336385
_cell_length_c 9.040756
_cell_angle_alpha 90.000000
_cell_angle_beta 90.000000
_cell_angle_gamma 120.000000
_cell_volume 6286.722186
_symmetry_space_group_name_H-M "P 6/M M M"
_symmetry_group_IT_number 191
_symmetry_cell_setting 'hexagonal'
loop_
_space_group_symop_operation_xyz
x,y,z
x-y,x,z
-y,x-y,z
-x,-y,z
-x+y,-x,z
y,-x+y,z
x-y,-y,-z
-x,-x+y,-z
y,x,-z
-y,-x,-z
-x+y,y,-z
x,x-y,-z
-x,-y,-z
-x+y,-x,-z
y,-x+y,-z
x,y,-z
x-y,x,-z
-y,x-y,-z
-x+y,y,z
x,x-y,z
-y,-x,z
y,x,z
x-y,-y,z
-x,-x+y,z
loop_
_atom_site_type_symbol
_atom_site_label
_atom_site_fract_x
_atom_site_fract_y
_atom_site_fract_z
Si Si1 0.704693 0.000000 0.174539
Si Si2 0.778657 0.661424 0.173913
Si Si3 0.401421 0.000000 0.175693
Si Si4 0.452981 0.172886 0.672238
Si Si5 0.112471 0.502006 0.825645
O O1 0.759937 0.055119 0.224197
O O2 0.651728 0.000000 0.240207
O O3 0.700275 0.000000 0.000000
O O4 0.842155 0.684309 0.216402
O O5 0.739791 0.605341 0.254759
O O6 0.769425 0.649450 0.000000
O O7 0.401586 0.946365 0.233282
O O8 0.401521 0.000000 0.000000
O O9 0.447704 0.159225 0.500000
O O10 0.472287 0.236144 0.700901
O O11 0.497089 0.160430 0.745492
O O12 0.120003 0.560002 0.781713
O O13 0.117667 0.496673 0.000000
#
# Coordination Sequence:
#
# PCOD8328792 Si02
#       5
#    12  24  12  24  24
#     4   9  14  23  42  64  87 113 142 176 211 245
#     4   9  16  27  44  63  83 111 146 178 206 242
#     4   9  15  26  43  66  92 114 136 167 206 249
#     4  10  20  32  45  62  85 110 136 170 211 254
#     4  10  19  31  48  67  86 111 141 171 206 251
#
# _framework density 15.270279
#
# number of rings (size 3 to 8) (size 9 to 14) (size 15 to 20)
#    0.000    2.500    2.500    1.125    0.000    3.500 
#    0.000    2.500    0.000    2.000    0.000    0.000 
#    0.000    0.000    0.000    0.375    0.000   12.000 
#
# Total GULP energy -1189906.608705 kJ/mol
# GULP energy per Si atom -12394.860507 kJ/mol
# Density = 1.523552 g / cm^3
# Si number density = 15.270279 Si / 1000 Ang^3
#
#
#
# Elastic Constant Matrix: (Units=GPa)
#
#
# Indices 1 2 3 4 5 6 
#
# 1 119.1380 69.1714 29.7873 0.0000 0.0000 0.0000
# 2 69.1714 119.1380 29.7873 0.0000 0.0000 0.0000
# 3 29.7873 29.7873 31.7283 0.0000 0.0000 0.0000
# 4 0.0000 0.0000 0.0000 10.7769 0.0000 0.0000
# 5 0.0000 0.0000 0.0000 0.0000 10.7769 0.0000
# 6 0.0000 0.0000 0.0000 0.0000 0.0000 24.9833
#
#
#
# Elastic Compliance Matrix: (Units=1/GPa)
#
#
# Indices 1 2 3 4 5 6 
#
# 1 0.013784 -0.006230 -0.007092 0.000000 0.000000 0.000000
# 2 -0.006230 0.013784 -0.007092 0.000000 0.000000 0.000000
# 3 -0.007092 -0.007092 0.044834 0.000000 0.000000 0.000000
# 4 0.000000 0.000000 0.000000 0.092791 0.000000 0.000000
# 5 0.000000 0.000000 0.000000 0.000000 0.092791 0.000000
# 6 0.000000 0.000000 0.000000 0.000000 0.000000 0.040027
#
#
# Mechanical properties :
#
#
# Convention : Reuss Voigt Hill
#
# Bulk Modulus (GPa) = 31.67152 58.61070 45.14111
# Shear Modulus (GPa) = 14.31181 18.72465 16.51823
#
# Velocity S-wave (km/s) = 3.06475 3.50553 3.29253
# Velocity P-wave (km/s) = 5.77141 7.40612 6.63927
#
# Compressibility (1/GPa) = 0.03157411
#
# Stress axis : x y z
#
# Youngs Moduli (GPa) = 72.54949 72.54949 22.30470
#
# Poissons Ratio (x) = 0.45196 0.15818
# Poissons Ratio (y) = 0.45196 0.15818
# Poissons Ratio (z) = 0.51451 0.51451
#
# Static dielectric constant tensor:
#      x y z
#    x 3.061490 0.000000 0.000000 
#    y 0.000000 3.061490 0.000000 
#    z 0.000000 0.000000 2.745540 
# 
# 
# High freq. dielectric constant tensor:
#      x y z
#    x 1.571470 0.000000 0.000000 
#    y 0.000000 1.571470 0.000000 
#    z 0.000000 0.000000 1.565180 
# 
# From -- ./inp_files/1568.got.cif
#   From: 2010.03.12/outbox.cif.g09.slc.cpg/sg191_1_cif.got.tgz:1568.got - 2010.04.01 12:09:02.
