data_PCOD8328303
_publ_section_title
;
Structure prediction by ZEFSAII (Michael W. Deem and Ramdas Pophale) SiO2 
 PCOD8328303
Probable space group: P 6/M M M
;
_chemical_formula_sum "Si O2"
_cell_formula_units_Z 132
_cell_length_a 18.559015
_cell_length_b 18.559015
_cell_length_c 28.612017
_cell_angle_alpha 90.000000
_cell_angle_beta 90.000000
_cell_angle_gamma 120.000000
_cell_volume 8534.713592
_symmetry_space_group_name_H-M "P 6/M M M"
_symmetry_group_IT_number 191
_symmetry_cell_setting 'hexagonal'
loop_
_space_group_symop_operation_xyz
x,y,z
x-y,x,z
-y,x-y,z
-x,-y,z
-x+y,-x,z
y,-x+y,z
x-y,-y,-z
-x,-x+y,-z
y,x,-z
-y,-x,-z
-x+y,y,-z
x,x-y,-z
-x,-y,-z
-x+y,-x,-z
y,-x+y,-z
x,y,-z
x-y,x,-z
-y,x-y,-z
-x+y,y,z
x,x-y,z
-y,-x,z
y,x,z
x-y,-y,z
-x,-x+y,z
loop_
_atom_site_type_symbol
_atom_site_label
_atom_site_fract_x
_atom_site_fract_y
_atom_site_fract_z
Si Si1 0.367148 0.905261 0.593876
Si Si2 0.172389 0.503263 0.500000
Si Si3 0.361623 0.098887 0.132664
Si Si4 0.668882 0.171791 0.687801
Si Si5 0.467294 0.097109 0.217118
Si Si6 0.901569 0.530585 0.052187
O O1 0.445679 0.891357 0.594135
O O2 0.313167 0.864335 0.547072
O O3 0.313663 0.866082 0.641052
O O4 0.391772 0.000000 0.592985
O O5 0.271468 0.542936 0.500000
O O6 0.147927 0.573964 0.500000
O O7 0.323331 0.161666 0.135231
O O8 0.424148 0.119136 0.175663
O O9 0.420564 0.126354 0.087126
O O10 0.288933 0.000000 0.131821
O O11 0.574173 0.148346 0.687561
O O12 0.729460 0.270540 0.687345
O O13 0.682993 0.134306 0.735403
O O14 0.566181 0.132362 0.206896
O O15 0.424526 0.000000 0.224233
O O16 0.867386 0.433693 0.066812
O O17 0.000000 0.575517 0.053082
O O18 0.869799 0.534045 0.000000
#
# Coordination Sequence:
#
# PCOD8328303 Si02
#       6
#    24  12  24  24  24  24
#     4   9  17  28  40  52  68  94 127 159 188 221
#     4  10  18  27  39  55  74  93 116 150 195 240
#     4  10  19  30  45  65  88 114 147 186 224 261
#     4  10  18  27  39  56  79 104 130 160 196 236
#     4   9  17  29  45  63  82 106 136 169 207 254
#     4   8  14  26  45  67  88 110 137 169 206 250
#
# _framework density 15.466248
#
# number of rings (size 3 to 8) (size 9 to 14) (size 15 to 20)
#    0.000    2.727    0.000    3.273    0.000    5.818 
#    0.000    1.818    0.000    4.182    0.000    0.000 
#    0.000    0.000    0.000    4.545    0.000    0.000 
#
# Total GULP energy -1635343.493360 kJ/mol
# GULP energy per Si atom -12388.965859 kJ/mol
# Density = 1.543105 g / cm^3
# Si number density = 15.466248 Si / 1000 Ang^3
#
#
#
# Elastic Constant Matrix: (Units=GPa)
#
#
# Indices 1 2 3 4 5 6 
#
# 1 52.6709 24.5582 35.5008 0.0000 0.0000 0.0000
# 2 24.5582 52.6709 35.5008 0.0000 0.0000 0.0000
# 3 35.5008 35.5008 129.2909 0.0000 0.0000 0.0000
# 4 0.0000 0.0000 0.0000 10.7090 0.0000 0.0000
# 5 0.0000 0.0000 0.0000 0.0000 10.7090 0.0000
# 6 0.0000 0.0000 0.0000 0.0000 0.0000 14.0563
#
#
#
# Elastic Compliance Matrix: (Units=1/GPa)
#
#
# Indices 1 2 3 4 5 6 
#
# 1 0.026446 -0.009125 -0.004756 0.000000 0.000000 0.000000
# 2 -0.009125 0.026446 -0.004756 0.000000 0.000000 0.000000
# 3 -0.004756 -0.004756 0.010346 0.000000 0.000000 0.000000
# 4 0.000000 0.000000 0.000000 0.093379 0.000000 0.000000
# 5 0.000000 0.000000 0.000000 0.000000 0.093379 0.000000
# 6 0.000000 0.000000 0.000000 0.000000 0.000000 0.071142
#
#
# Mechanical properties :
#
#
# Convention : Reuss Voigt Hill
#
# Bulk Modulus (GPa) = 38.51448 47.30581 42.91014
# Shear Modulus (GPa) = 13.62146 16.36640 14.99393
#
# Velocity S-wave (km/s) = 2.97092 3.25653 3.11700
# Velocity P-wave (km/s) = 6.06010 6.69275 6.38426
#
# Compressibility (1/GPa) = 0.02596426
#
# Stress axis : x y z
#
# Youngs Moduli (GPa) = 37.81278 37.81278 96.65275
#
# Poissons Ratio (x) = 0.34504 0.45968
# Poissons Ratio (y) = 0.34504 0.45968
# Poissons Ratio (z) = 0.17984 0.17984
#
# Static dielectric constant tensor:
#      x y z
#    x 2.682530 0.000000 0.000000 
#    y 0.000000 2.682530 0.000000 
#    z 0.000000 0.000000 3.482130 
# 
# 
# High freq. dielectric constant tensor:
#      x y z
#    x 1.553280 0.000000 0.000000 
#    y 0.000000 1.553280 0.000000 
#    z 0.000000 0.000000 1.622160 
# 
# From -- ./inp_files/10466.got.cif
#   From: 2010.03.12/outbox.cif.g09.slc.cpg/sg191_6_cif.got.tgz:10466.got - 2010.04.01 12:09:02.
