data_PCOD8328735
_publ_section_title
;
Structure prediction by ZEFSAII (Michael W. Deem and Ramdas Pophale) SiO2 
 PCOD8328735
Probable space group: P 6/M M M
;
_chemical_formula_sum "Si O2"
_cell_formula_units_Z 168
_cell_length_a 17.882351
_cell_length_b 17.882351
_cell_length_c 35.304521
_cell_angle_alpha 90.000000
_cell_angle_beta 90.000000
_cell_angle_gamma 120.000000
_cell_volume 9777.102886
_symmetry_space_group_name_H-M "P 6/M M M"
_symmetry_group_IT_number 191
_symmetry_cell_setting 'hexagonal'
loop_
_space_group_symop_operation_xyz
x,y,z
x-y,x,z
-y,x-y,z
-x,-y,z
-x+y,-x,z
y,-x+y,z
x-y,-y,-z
-x,-x+y,-z
y,x,-z
-y,-x,-z
-x+y,y,-z
x,x-y,-z
-x,-y,-z
-x+y,-x,-z
y,-x+y,-z
x,y,-z
x-y,x,-z
-y,x-y,-z
-x+y,y,z
x,x-y,z
-y,-x,z
y,x,z
x-y,-y,z
-x,-x+y,z
loop_
_atom_site_type_symbol
_atom_site_label
_atom_site_fract_x
_atom_site_fract_y
_atom_site_fract_z
Si Si1 0.264740 0.361873 0.543479
Si Si2 0.361227 0.095439 0.892658
Si Si3 0.668761 0.164610 0.828359
Si Si4 0.365281 0.098611 0.676187
Si Si5 0.160278 0.668075 0.391749
Si Si6 0.634418 0.101135 0.253018
Si Si7 0.162484 0.666662 0.956820
O O1 0.286312 0.391163 0.500000
O O2 0.163347 0.326693 0.552494
O O3 0.285495 0.285495 0.552869
O O4 0.324363 0.446631 0.568060
O O5 0.327901 0.163951 0.891990
O O6 0.418361 0.104813 0.856105
O O7 0.414893 0.104451 0.930448
O O8 0.277873 0.000000 0.892213
O O9 0.571800 0.143599 0.834970
O O10 0.735245 0.264756 0.837653
O O11 0.684322 0.146411 0.785345
O O12 0.327333 0.163667 0.671410
O O13 0.424383 0.105615 0.640817
O O14 0.424658 0.127470 0.713413
O O15 0.286467 0.000000 0.678961
O O16 0.147427 0.573714 0.387905
O O17 0.261262 0.738739 0.388218
O O18 0.566098 0.132196 0.263726
O O19 0.584795 0.000000 0.245796
O O20 0.149968 0.574984 0.944270
O O21 0.263047 0.736954 0.951786
O O22 0.132321 0.664058 0.000000
#
# Coordination Sequence:
#
# PCOD8328735 Si02
#       7
#    24  24  24  24  24  24  24
#     4   9  18  32  49  69  93 122 156 193 233 275
#     4  10  21  35  50  68  90 117 150 190 236 282
#     4  10  19  30  45  67  97 131 163 191 219 256
#     4  10  20  33  49  69  93 121 154 192 234 278
#     4  10  20  33  49  70  96 125 155 187 224 267
#     4   9  17  29  46  68  93 122 157 195 230 264
#     4   9  17  29  46  69  98 131 163 191 218 252
#
# _framework density 17.183005000000001
#
# number of rings (size 3 to 8) (size 9 to 14) (size 15 to 20)
#    0.000    2.429    0.000    2.571    0.000    4.571 
#    0.000    2.857    0.000    5.857    0.000    1.000 
#    0.000    3.429    0.000    8.286    0.000    0.000 
#
# Total GULP energy -2083146.780644 kJ/mol
# GULP energy per Si atom -12399.683218 kJ/mol
# Density = 1.714390 g / cm^3
# Si number density = 17.183005 Si / 1000 Ang^3
#
#
#
# Elastic Constant Matrix: (Units=GPa)
#
#
# Indices 1 2 3 4 5 6 
#
# 1 90.2664 59.0501 41.1199 0.0000 0.0000 0.0000
# 2 59.0501 90.2664 41.1199 0.0000 0.0000 0.0000
# 3 41.1199 41.1199 85.2624 0.0000 0.0000 0.0000
# 4 0.0000 0.0000 0.0000 20.7261 0.0000 0.0000
# 5 0.0000 0.0000 0.0000 0.0000 20.7261 0.0000
# 6 0.0000 0.0000 0.0000 0.0000 0.0000 15.6082
#
#
#
# Elastic Compliance Matrix: (Units=1/GPa)
#
#
# Indices 1 2 3 4 5 6 
#
# 1 0.020577 -0.011457 -0.004398 0.000000 0.000000 0.000000
# 2 -0.011457 0.020577 -0.004398 0.000000 0.000000 0.000000
# 3 -0.004398 -0.004398 0.015971 0.000000 0.000000 0.000000
# 4 0.000000 0.000000 0.000000 0.048248 0.000000 0.000000
# 5 0.000000 0.000000 0.000000 0.000000 0.048248 0.000000
# 6 0.000000 0.000000 0.000000 0.000000 0.000000 0.064069
#
#
# Mechanical properties :
#
#
# Convention : Reuss Voigt Hill
#
# Bulk Modulus (GPa) = 60.17823 60.93056 60.55439
# Shear Modulus (GPa) = 18.95827 19.71243 19.33535
#
# Velocity S-wave (km/s) = 3.32522 3.39072 3.35813
# Velocity P-wave (km/s) = 7.05980 7.13204 7.09601
#
# Compressibility (1/GPa) = 0.01661730
#
# Stress axis : x y z
#
# Youngs Moduli (GPa) = 48.59782 48.59782 62.61458
#
# Poissons Ratio (x) = 0.55681 0.27539
# Poissons Ratio (y) = 0.55681 0.27539
# Poissons Ratio (z) = 0.21374 0.21374
#
# Static dielectric constant tensor:
#      x y z
#    x 3.065440 0.000000 0.000000 
#    y 0.000000 3.065440 0.000000 
#    z 0.000000 0.000000 3.441660 
# 
# 
# High freq. dielectric constant tensor:
#      x y z
#    x 1.643980 0.000000 0.000000 
#    y 0.000000 1.643980 0.000000 
#    z 0.000000 0.000000 1.682720 
# 
# From -- ./inp_files/10768.got.cif
#   From: 2010.03.12/outbox.cif.g09.slc.cpg/sg191_6_cif.got.tgz:10768.got - 2010.04.01 12:09:02.
