data_PCOD8328530
_publ_section_title
;
Structure prediction by ZEFSAII (Michael W. Deem and Ramdas Pophale) SiO2 
 PCOD8328530
Probable space group: P 6/M M M
;
_chemical_formula_sum "Si O2"
_cell_formula_units_Z 60
_cell_length_a 20.460949
_cell_length_b 20.460949
_cell_length_c 9.502121
_cell_angle_alpha 90.000000
_cell_angle_beta 90.000000
_cell_angle_gamma 120.000000
_cell_volume 3445.107150
_symmetry_space_group_name_H-M "P 6/M M M"
_symmetry_group_IT_number 191
_symmetry_cell_setting 'hexagonal'
loop_
_space_group_symop_operation_xyz
x,y,z
x-y,x,z
-y,x-y,z
-x,-y,z
-x+y,-x,z
y,-x+y,z
x-y,-y,-z
-x,-x+y,-z
y,x,-z
-y,-x,-z
-x+y,y,-z
x,x-y,-z
-x,-y,-z
-x+y,-x,-z
y,-x+y,-z
x,y,-z
x-y,x,-z
-y,x-y,-z
-x+y,y,z
x,x-y,z
-y,-x,z
y,x,z
x-y,-y,z
-x,-x+y,z
loop_
_atom_site_type_symbol
_atom_site_label
_atom_site_fract_x
_atom_site_fract_y
_atom_site_fract_z
Si Si1 0.000000 0.151770 0.340453
Si Si2 0.709287 0.143861 0.832601
Si Si3 0.718762 0.000000 0.832955
Si Si4 0.085860 0.542930 0.167714
O O1 0.071703 0.143406 0.309905
O O2 0.000000 0.178716 0.500000
O O3 0.000000 0.210351 0.231992
O O4 0.777584 0.222417 0.771702
O O5 0.629084 0.131032 0.777040
O O6 0.718100 0.074204 0.779308
O O7 0.710856 0.146062 0.000000
O O8 0.725312 0.000000 0.000000
O O9 0.000000 0.500000 0.226003
O O10 0.082263 0.541132 0.000000
#
# Coordination Sequence:
#
# PCOD8328530 Si02
#       4
#    12  24  12  12
#     4  10  21  36  51  67  91 123 154 184 224 274
#     4   9  16  25  39  61  88 117 152 193 232 271
#     4  10  18  30  49  71  94 119 152 192 232 273
#     4   9  14  24  38  54  82 120 156 184 224 282
#
# _framework density 17.416004000000001
#
# number of rings (size 3 to 8) (size 9 to 14) (size 15 to 20)
#    0.000    2.600    2.000    1.400    0.000    3.200 
#    1.200    0.000    0.000    1.200    0.000    2.800 
#    0.000    0.000    0.000    0.000    0.400    0.000 
#
# Total GULP energy -743825.674430 kJ/mol
# GULP energy per Si atom -12397.094574 kJ/mol
# Density = 1.737636 g / cm^3
# Si number density = 17.416004 Si / 1000 Ang^3
#
#
#
# Elastic Constant Matrix: (Units=GPa)
#
#
# Indices 1 2 3 4 5 6 
#
# 1 162.4646 96.5902 18.3163 0.0000 0.0000 0.0000
# 2 96.5902 162.4646 18.3163 0.0000 0.0000 0.0000
# 3 18.3163 18.3163 11.7144 0.0000 0.0000 0.0000
# 4 0.0000 0.0000 0.0000 7.7384 0.0000 0.0000
# 5 0.0000 0.0000 0.0000 0.0000 7.7384 0.0000
# 6 0.0000 0.0000 0.0000 0.0000 0.0000 32.9372
#
#
#
# Elastic Compliance Matrix: (Units=1/GPa)
#
#
# Indices 1 2 3 4 5 6 
#
# 1 0.010068 -0.005112 -0.007749 0.000000 0.000000 0.000000
# 2 -0.005112 0.010068 -0.007749 0.000000 0.000000 0.000000
# 3 -0.007749 -0.007749 0.109598 0.000000 0.000000 0.000000
# 4 0.000000 0.000000 0.000000 0.129226 0.000000 0.000000
# 5 0.000000 0.000000 0.000000 0.000000 0.129226 0.000000
# 6 0.000000 0.000000 0.000000 0.000000 0.000000 0.030361
#
#
# Mechanical properties :
#
#
# Convention : Reuss Voigt Hill
#
# Bulk Modulus (GPa) = 11.29769 67.00991 39.15380
# Shear Modulus (GPa) = 10.21927 23.24417 16.73172
#
# Velocity S-wave (km/s) = 2.42497 3.65724 3.10289
# Velocity P-wave (km/s) = 3.78704 7.50956 5.94706
#
# Compressibility (1/GPa) = 0.08851365
#
# Stress axis : x y z
#
# Youngs Moduli (GPa) = 99.32270 99.32270 9.12426
#
# Poissons Ratio (x) = 0.50776 0.07070
# Poissons Ratio (y) = 0.50776 0.07070
# Poissons Ratio (z) = 0.76966 0.76966
#
# Static dielectric constant tensor:
#      x y z
#    x 3.506910 0.000000 0.000000 
#    y 0.000000 3.506910 0.000000 
#    z 0.000000 0.000000 2.579290 
# 
# 
# High freq. dielectric constant tensor:
#      x y z
#    x 1.687030 0.000000 0.000000 
#    y 0.000000 1.687030 0.000000 
#    z 0.000000 0.000000 1.595810 
# 
# From -- ./inp_files/586.got.cif
#   From: 2010.03.12/outbox.cif.g09.slc.cpg/sg191_1_cif.got.tgz:586.got - 2010.04.01 12:09:02.
