data_PCOD8328658
_publ_section_title
;
Structure prediction by ZEFSAII (Michael W. Deem and Ramdas Pophale) SiO2 
 PCOD8328658
Probable space group: P 6/M M M
;
_chemical_formula_sum "Si O2"
_cell_formula_units_Z 168
_cell_length_a 22.359092
_cell_length_b 22.359092
_cell_length_c 25.317857
_cell_angle_alpha 90.000000
_cell_angle_beta 90.000000
_cell_angle_gamma 120.000000
_cell_volume 10961.396818
_symmetry_space_group_name_H-M "P 6/M M M"
_symmetry_group_IT_number 191
_symmetry_cell_setting 'hexagonal'
loop_
_space_group_symop_operation_xyz
x,y,z
x-y,x,z
-y,x-y,z
-x,-y,z
-x+y,-x,z
y,-x+y,z
x-y,-y,-z
-x,-x+y,-z
y,x,-z
-y,-x,-z
-x+y,y,-z
x,x-y,-z
-x,-y,-z
-x+y,-x,-z
y,-x+y,-z
x,y,-z
x-y,x,-z
-y,x-y,-z
-x+y,y,z
x,x-y,z
-y,-x,z
y,x,z
x-y,-y,z
-x,-x+y,z
loop_
_atom_site_type_symbol
_atom_site_label
_atom_site_fract_x
_atom_site_fract_y
_atom_site_fract_z
Si Si1 0.405379 0.081590 0.057896
Si Si2 0.923559 0.206842 0.113686
Si Si3 0.467448 0.390626 0.440713
Si Si4 0.443196 0.290075 0.252995
Si Si5 0.787673 0.709814 0.764114
Si Si6 0.468928 0.390756 0.840774
Si Si7 0.808434 0.332975 0.358644
O O1 0.349296 0.102052 0.076320
O O2 0.465494 0.108417 0.101804
O O3 0.370227 0.000000 0.053502
O O4 0.434965 0.114661 0.000000
O O5 0.874448 0.125553 0.104479
O O6 0.919806 0.227782 0.173950
O O7 0.000000 0.223329 0.098888
O O8 0.452340 0.359697 0.500000
O O9 0.538538 0.461463 0.439599
O O10 0.406603 0.406603 0.423050
O O11 0.473903 0.336924 0.402325
O O12 0.454882 0.227441 0.236626
O O13 0.362152 0.260364 0.266313
O O14 0.468523 0.342026 0.204690
O O15 0.489518 0.330432 0.302963
O O16 0.868988 0.737975 0.751668
O O17 0.767174 0.767174 0.746667
O O18 0.539151 0.460850 0.836889
O O19 0.404531 0.404531 0.833668
O O20 0.797520 0.398760 0.360191
O O21 0.735344 0.264657 0.369461
#
# Coordination Sequence:
#
# PCOD8328658 Si02
#       7
#    24  24  24  24  24  24  24
#     4   9  17  28  41  59  83 107 131 163 207 259
#     4   9  16  27  43  62  84 110 139 171 209 252
#     4   8  15  29  47  66  89 117 150 187 224 261
#     4  10  19  30  44  62  87 117 149 184 217 255
#     4   9  16  27  44  63  85 113 144 179 218 261
#     4  10  19  30  45  64  85 108 135 171 216 265
#     4  10  20  32  46  66  92 122 154 189 229 272
#
# _framework density 15.326513
#
# number of rings (size 3 to 8) (size 9 to 14) (size 15 to 20)
#    0.000    2.714    1.429    1.429    0.000    2.000 
#    0.000    2.857    0.000    1.429    0.000    2.000 
#    0.000    0.000    0.000    3.571    0.000    3.714 
#
# Total GULP energy -2082172.184827 kJ/mol
# GULP energy per Si atom -12393.882053 kJ/mol
# Density = 1.529163 g / cm^3
# Si number density = 15.326513 Si / 1000 Ang^3
#
#
#
# Elastic Constant Matrix: (Units=GPa)
#
#
# Indices 1 2 3 4 5 6 
#
# 1 73.3386 44.7283 47.6289 0.0000 0.0000 0.0000
# 2 44.7283 73.3386 47.6289 0.0000 0.0000 0.0000
# 3 47.6289 47.6289 81.3039 0.0000 0.0000 0.0000
# 4 0.0000 0.0000 0.0000 17.5029 0.0000 0.0000
# 5 0.0000 0.0000 0.0000 0.0000 17.5029 0.0000
# 6 0.0000 0.0000 0.0000 0.0000 0.0000 14.3051
#
#
#
# Elastic Compliance Matrix: (Units=1/GPa)
#
#
# Indices 1 2 3 4 5 6 
#
# 1 0.025507 -0.009446 -0.009409 0.000000 0.000000 0.000000
# 2 -0.009446 0.025507 -0.009409 0.000000 0.000000 0.000000
# 3 -0.009409 -0.009409 0.023323 0.000000 0.000000 0.000000
# 4 0.000000 0.000000 0.000000 0.057133 0.000000 0.000000
# 5 0.000000 0.000000 0.000000 0.000000 0.057133 0.000000
# 6 0.000000 0.000000 0.000000 0.000000 0.000000 0.069905
#
#
# Mechanical properties :
#
#
# Convention : Reuss Voigt Hill
#
# Bulk Modulus (GPa) = 56.14824 56.43925 56.29375
# Shear Modulus (GPa) = 15.57776 15.72853 15.65314
#
# Velocity S-wave (km/s) = 3.19155 3.20696 3.19926
# Velocity P-wave (km/s) = 7.09194 7.11458 7.10327
#
# Compressibility (1/GPa) = 0.01781000
#
# Stress axis : x y z
#
# Youngs Moduli (GPa) = 39.20550 39.20550 42.87641
#
# Poissons Ratio (x) = 0.37033 0.40341
# Poissons Ratio (y) = 0.37033 0.40341
# Poissons Ratio (z) = 0.36887 0.36887
#
# Static dielectric constant tensor:
#      x y z
#    x 2.912310 0.000000 0.000000 
#    y 0.000000 2.912310 0.000000 
#    z 0.000000 0.000000 3.032990 
# 
# 
# High freq. dielectric constant tensor:
#      x y z
#    x 1.572510 0.000000 0.000000 
#    y 0.000000 1.572510 0.000000 
#    z 0.000000 0.000000 1.577620 
# 
# From -- ./inp_files/9208.got.cif
#   From: 2010.03.12/outbox.cif.g09.slc.cpg/sg191_5_cif.got.tgz:9208.got - 2010.04.01 12:09:02.
