data_PCOD8328308
_publ_section_title
;
Structure prediction by ZEFSAII (Michael W. Deem and Ramdas Pophale) SiO2 
 PCOD8328308
Probable space group: P 6/M M M
;
_chemical_formula_sum "Si O2"
_cell_formula_units_Z 132
_cell_length_a 18.358454
_cell_length_b 18.358454
_cell_length_c 28.376811
_cell_angle_alpha 90.000000
_cell_angle_beta 90.000000
_cell_angle_gamma 120.000000
_cell_volume 8282.595091
_symmetry_space_group_name_H-M "P 6/M M M"
_symmetry_group_IT_number 191
_symmetry_cell_setting 'hexagonal'
loop_
_space_group_symop_operation_xyz
x,y,z
x-y,x,z
-y,x-y,z
-x,-y,z
-x+y,-x,z
y,-x+y,z
x-y,-y,-z
-x,-x+y,-z
y,x,-z
-y,-x,-z
-x+y,y,-z
x,x-y,-z
-x,-y,-z
-x+y,-x,-z
y,-x+y,-z
x,y,-z
x-y,x,-z
-y,x-y,-z
-x+y,y,z
x,x-y,z
-y,-x,z
y,x,z
x-y,-y,z
-x,-x+y,z
loop_
_atom_site_type_symbol
_atom_site_label
_atom_site_fract_x
_atom_site_fract_y
_atom_site_fract_z
Si Si1 0.369440 0.469033 0.447511
Si Si2 0.539594 0.632918 0.190805
Si Si3 0.668807 0.501442 0.289116
Si Si4 0.736203 0.638243 0.365499
Si Si5 0.538247 0.634201 0.000000
Si Si6 0.499116 0.669219 0.095707
O O1 0.332605 0.464234 0.500000
O O2 0.432784 0.567217 0.433640
O O3 0.422612 0.422612 0.446844
O O4 0.293145 0.422531 0.411109
O O5 0.453891 0.546110 0.185714
O O6 0.617051 0.617051 0.199195
O O7 0.532695 0.683144 0.235141
O O8 0.556269 0.684930 0.142142
O O9 0.735707 0.471414 0.300765
O O10 0.574803 0.425198 0.298414
O O11 0.685500 0.580255 0.321252
O O12 0.837501 0.675002 0.360428
O O13 0.713719 0.713719 0.369254
O O14 0.552536 0.688380 0.952521
O O15 0.608342 0.608342 0.000000
O O16 0.444505 0.555496 0.000000
O O17 0.460067 0.730034 0.098131
O O18 0.426208 0.573793 0.095121
#
# Coordination Sequence:
#
# PCOD8328308 Si02
#       6
#    24  24  24  24  12  24
#     4   8  14  26  45  68  92 117 145 176 211 255
#     4   9  17  28  41  56  76 106 142 174 203 240
#     4  10  19  30  45  66  92 119 146 177 215 259
#     4  10  20  32  47  67  90 117 150 189 230 271
#     4   9  17  28  40  52  68  93 124 156 192 240
#     4  10  18  27  39  55  75  97 124 162 208 251
#
# _framework density 15.937034000000001
#
# number of rings (size 3 to 8) (size 9 to 14) (size 15 to 20)
#    0.000    2.636    0.000    3.364    0.000    4.364 
#    0.000    2.727    0.000    0.545    0.000    0.000 
#    0.000    0.000    0.000    4.545    0.000    0.000 
#
# Total GULP energy -1635736.304422 kJ/mol
# GULP energy per Si atom -12391.941700 kJ/mol
# Density = 1.590076 g / cm^3
# Si number density = 15.937034 Si / 1000 Ang^3
#
#
#
# Elastic Constant Matrix: (Units=GPa)
#
#
# Indices 1 2 3 4 5 6 
#
# 1 55.3746 28.1334 27.3617 0.0000 0.0000 0.0000
# 2 28.1334 55.3746 27.3617 0.0000 0.0000 0.0000
# 3 27.3617 27.3617 106.9356 0.0000 0.0000 0.0000
# 4 0.0000 0.0000 0.0000 16.6593 0.0000 0.0000
# 5 0.0000 0.0000 0.0000 0.0000 16.6593 0.0000
# 6 0.0000 0.0000 0.0000 0.0000 0.0000 13.6206
#
#
#
# Elastic Compliance Matrix: (Units=1/GPa)
#
#
# Indices 1 2 3 4 5 6 
#
# 1 0.025548 -0.011161 -0.003681 0.000000 0.000000 0.000000
# 2 -0.011161 0.025548 -0.003681 0.000000 0.000000 0.000000
# 3 -0.003681 -0.003681 0.011235 0.000000 0.000000 0.000000
# 4 0.000000 0.000000 0.000000 0.060027 0.000000 0.000000
# 5 0.000000 0.000000 0.000000 0.000000 0.060027 0.000000
# 6 0.000000 0.000000 0.000000 0.000000 0.000000 0.073418
#
#
# Mechanical properties :
#
#
# Convention : Reuss Voigt Hill
#
# Bulk Modulus (GPa) = 39.54962 42.59984 41.07473
# Shear Modulus (GPa) = 16.59597 18.37638 17.48617
#
# Velocity S-wave (km/s) = 3.23049 3.39936 3.31600
# Velocity P-wave (km/s) = 6.22774 6.49582 6.36319
#
# Compressibility (1/GPa) = 0.02528469
#
# Stress axis : x y z
#
# Youngs Moduli (GPa) = 39.14175 39.14175 89.00525
#
# Poissons Ratio (x) = 0.43686 0.32765
# Poissons Ratio (y) = 0.43686 0.32765
# Poissons Ratio (z) = 0.14409 0.14409
#
# Static dielectric constant tensor:
#      x y z
#    x 2.729540 0.000000 0.000000 
#    y 0.000000 2.729540 0.000000 
#    z 0.000000 0.000000 3.506720 
# 
# 
# High freq. dielectric constant tensor:
#      x y z
#    x 1.573160 0.000000 0.000000 
#    y 0.000000 1.573160 0.000000 
#    z 0.000000 0.000000 1.639150 
# 
# From -- ./inp_files/10355.got.cif
#   From: 2010.03.12/outbox.cif.g09.slc.cpg/sg191_6_cif.got.tgz:10355.got - 2010.04.01 12:09:02.
