data_PCOD8328725
_publ_section_title
;
Structure prediction by ZEFSAII (Michael W. Deem and Ramdas Pophale) SiO2 
 PCOD8328725
Probable space group: P 6/M M M
;
_chemical_formula_sum "Si O2"
_cell_formula_units_Z 120
_cell_length_a 17.600606
_cell_length_b 17.600606
_cell_length_c 25.604154
_cell_angle_alpha 90.000000
_cell_angle_beta 90.000000
_cell_angle_gamma 120.000000
_cell_volume 6869.044099
_symmetry_space_group_name_H-M "P 6/M M M"
_symmetry_group_IT_number 191
_symmetry_cell_setting 'hexagonal'
loop_
_space_group_symop_operation_xyz
x,y,z
x-y,x,z
-y,x-y,z
-x,-y,z
-x+y,-x,z
y,-x+y,z
x-y,-y,-z
-x,-x+y,-z
y,x,-z
-y,-x,-z
-x+y,y,-z
x,x-y,-z
-x,-y,-z
-x+y,-x,-z
y,-x+y,-z
x,y,-z
x-y,x,-z
-y,x-y,-z
-x+y,y,z
x,x-y,z
-y,-x,z
y,x,z
x-y,-y,z
-x,-x+y,z
loop_
_atom_site_type_symbol
_atom_site_label
_atom_site_fract_x
_atom_site_fract_y
_atom_site_fract_z
Si Si1 0.098213 0.728797 0.901217
Si Si2 0.271599 0.901645 0.295055
Si Si3 0.158299 0.489912 0.000000
Si Si4 0.162905 0.669366 0.611032
Si Si5 0.458567 0.096994 0.500000
Si Si6 0.841236 0.509585 0.802879
O O1 0.166912 0.833089 0.903144
O O2 0.107990 0.686014 0.848556
O O3 0.000000 0.713915 0.903643
O O4 0.112563 0.679588 0.949211
O O5 0.167265 0.832735 0.291051
O O6 0.310797 0.896984 0.350807
O O7 0.324236 0.880727 0.251800
O O8 0.288137 0.000000 0.287716
O O9 0.261717 0.523433 0.000000
O O10 0.144111 0.572056 0.000000
O O11 0.139527 0.569764 0.618833
O O12 0.265268 0.734732 0.624172
O O13 0.146459 0.689988 0.552096
O O14 0.545968 0.091936 0.500000
O O15 0.374454 0.000000 0.500000
O O16 0.737665 0.475330 0.805912
O O17 0.856701 0.428351 0.808998
#
# Coordination Sequence:
#
# PCOD8328725 Si02
#       6
#    24  24  12  24  12  24
#     4  10  21  35  51  72  97 127 162 202 247 289
#     4  10  21  35  51  71  94 122 155 194 239 283
#     4  10  20  33  50  73 102 134 165 196 232 277
#     4  10  19  30  45  66  94 127 161 195 231 273
#     4   9  17  28  42  60  84 119 163 205 237 266
#     4  10  20  33  50  73 102 134 165 195 228 269
#
# _framework density 17.469678999999999
#
# number of rings (size 3 to 8) (size 9 to 14) (size 15 to 20)
#    0.000    2.100    0.000    3.500    0.000    5.200 
#    0.000    5.000    0.000    0.400    0.000    0.000 
#    0.000    7.200    0.000    0.000    0.000   21.600 
#
# Total GULP energy -1488011.517428 kJ/mol
# GULP energy per Si atom -12400.095979 kJ/mol
# Density = 1.742992 g / cm^3
# Si number density = 17.469679 Si / 1000 Ang^3
#
#
#
# Elastic Constant Matrix: (Units=GPa)
#
#
# Indices 1 2 3 4 5 6 
#
# 1 97.9745 69.4205 25.1151 0.0000 0.0000 0.0000
# 2 69.4205 97.9745 25.1151 0.0000 0.0000 0.0000
# 3 25.1151 25.1151 100.2059 0.0000 0.0000 0.0000
# 4 0.0000 0.0000 0.0000 28.0675 0.0000 0.0000
# 5 0.0000 0.0000 0.0000 0.0000 28.0675 0.0000
# 6 0.0000 0.0000 0.0000 0.0000 0.0000 14.2770
#
#
#
# Elastic Compliance Matrix: (Units=1/GPa)
#
#
# Indices 1 2 3 4 5 6 
#
# 1 0.020741 -0.014281 -0.001619 0.000000 0.000000 0.000000
# 2 -0.014281 0.020741 -0.001619 0.000000 0.000000 0.000000
# 3 -0.001619 -0.001619 0.010791 0.000000 0.000000 0.000000
# 4 0.000000 0.000000 0.000000 0.035628 0.000000 0.000000
# 5 0.000000 0.000000 0.000000 0.000000 0.035628 0.000000
# 6 0.000000 0.000000 0.000000 0.000000 0.000000 0.070043
#
#
# Mechanical properties :
#
#
# Convention : Reuss Voigt Hill
#
# Bulk Modulus (GPa) = 58.02369 59.49512 58.75941
# Shear Modulus (GPa) = 21.33524 25.84937 23.59230
#
# Velocity S-wave (km/s) = 3.49846 3.85082 3.67886
# Velocity P-wave (km/s) = 7.04308 7.34179 7.19399
#
# Compressibility (1/GPa) = 0.01723434
#
# Stress axis : x y z
#
# Youngs Moduli (GPa) = 48.21473 48.21473 92.66968
#
# Poissons Ratio (x) = 0.68855 0.15003
# Poissons Ratio (y) = 0.68855 0.15003
# Poissons Ratio (z) = 0.07806 0.07806
#
# Static dielectric constant tensor:
#      x y z
#    x 3.111920 0.000000 0.000000 
#    y 0.000000 3.111920 0.000000 
#    z 0.000000 0.000000 3.647070 
# 
# 
# High freq. dielectric constant tensor:
#      x y z
#    x 1.653910 0.000000 0.000000 
#    y 0.000000 1.653910 0.000000 
#    z 0.000000 0.000000 1.701040 
# 
# From -- ./inp_files/8553.got.cif
#   From: 2010.03.12/outbox.cif.g09.slc.cpg/sg191_5_cif.got.tgz:8553.got - 2010.04.01 12:09:02.
