data_PCOD8328825
_publ_section_title
;
Structure prediction by ZEFSAII (Michael W. Deem and Ramdas Pophale) SiO2 
 PCOD8328825
Probable space group: P 6/M M M
;
_chemical_formula_sum "Si O2"
_cell_formula_units_Z 108
_cell_length_a 18.128250
_cell_length_b 18.128250
_cell_length_c 22.898612
_cell_angle_alpha 90.000000
_cell_angle_beta 90.000000
_cell_angle_gamma 120.000000
_cell_volume 6517.057512
_symmetry_space_group_name_H-M "P 6/M M M"
_symmetry_group_IT_number 191
_symmetry_cell_setting 'hexagonal'
loop_
_space_group_symop_operation_xyz
x,y,z
x-y,x,z
-y,x-y,z
-x,-y,z
-x+y,-x,z
y,-x+y,z
x-y,-y,-z
-x,-x+y,-z
y,x,-z
-y,-x,-z
-x+y,y,-z
x,x-y,-z
-x,-y,-z
-x+y,-x,-z
y,-x+y,-z
x,y,-z
x-y,x,-z
-y,x-y,-z
-x+y,y,z
x,x-y,z
-y,-x,z
y,x,z
x-y,-y,z
-x,-x+y,z
loop_
_atom_site_type_symbol
_atom_site_label
_atom_site_fract_x
_atom_site_fract_y
_atom_site_fract_z
Si Si1 0.099737 0.631588 0.108806
Si Si2 0.531184 0.899028 0.564601
Si Si3 0.898794 0.267091 0.000000
Si Si4 0.648294 0.904498 0.658924
Si Si5 0.096153 0.738248 0.791274
O O1 0.142860 0.571430 0.105525
O O2 0.127591 0.697215 0.055543
O O3 0.125326 0.683709 0.169469
O O4 0.000000 0.570277 0.105508
O O5 0.545204 0.871109 0.500000
O O6 0.430578 0.861156 0.575653
O O7 0.568508 0.865379 0.614768
O O8 0.577787 0.000000 0.568350
O O9 0.836657 0.163344 0.000000
O O10 0.000000 0.294997 0.000000
O O11 0.691958 0.845979 0.654749
O O12 0.613395 0.901053 0.724259
O O13 0.719832 0.000000 0.641630
O O14 0.160951 0.839050 0.801526
O O15 0.000000 0.716581 0.807937
#
# Coordination Sequence:
#
# PCOD8328825 Si02
#       5
#    24  24  12  24  24
#     4   9  17  29  46  67  88 111 142 181 223 267
#     4   8  14  25  41  61  83 105 132 170 216 264
#     4  10  19  31  49  72  97 125 158 194 229 265
#     4   9  17  28  43  64  89 117 150 188 226 262
#     4   9  17  29  45  65  89 118 152 188 225 265
#
# _framework density 16.571895999999999
#
# number of rings (size 3 to 8) (size 9 to 14) (size 15 to 20)
#    0.000    3.111    0.000    1.667    0.000    2.667 
#    0.000    4.444    0.000    7.222    0.000    3.111 
#    0.000    5.333    0.000    5.778    0.000    6.222 
#
# Total GULP energy -1338056.857482 kJ/mol
# GULP energy per Si atom -12389.415347 kJ/mol
# Density = 1.653418 g / cm^3
# Si number density = 16.571896 Si / 1000 Ang^3
#
#
#
# Elastic Constant Matrix: (Units=GPa)
#
#
# Indices 1 2 3 4 5 6 
#
# 1 80.2471 45.1710 44.3799 0.0000 0.0000 0.0000
# 2 45.1710 80.2471 44.3799 0.0000 0.0000 0.0000
# 3 44.3799 44.3799 104.3882 0.0000 0.0000 0.0000
# 4 0.0000 0.0000 0.0000 9.1665 0.0000 0.0000
# 5 0.0000 0.0000 0.0000 0.0000 9.1665 0.0000
# 6 0.0000 0.0000 0.0000 0.0000 0.0000 17.5381
#
#
#
# Elastic Compliance Matrix: (Units=1/GPa)
#
#
# Indices 1 2 3 4 5 6 
#
# 1 0.019957 -0.008552 -0.004849 0.000000 0.000000 0.000000
# 2 -0.008552 0.019957 -0.004849 0.000000 0.000000 0.000000
# 3 -0.004849 -0.004849 0.013702 0.000000 0.000000 0.000000
# 4 0.000000 0.000000 0.000000 0.109092 0.000000 0.000000
# 5 0.000000 0.000000 0.000000 0.000000 0.109092 0.000000
# 6 0.000000 0.000000 0.000000 0.000000 0.000000 0.057019
#
#
# Mechanical properties :
#
#
# Convention : Reuss Voigt Hill
#
# Bulk Modulus (GPa) = 58.42044 59.19377 58.80710
# Shear Modulus (GPa) = 13.47617 15.90434 14.69026
#
# Velocity S-wave (km/s) = 2.85475 3.10129 2.98057
# Velocity P-wave (km/s) = 6.79672 6.97287 6.88536
#
# Compressibility (1/GPa) = 0.01711730
#
# Stress axis : x y z
#
# Youngs Moduli (GPa) = 50.10749 50.10749 72.98008
#
# Poissons Ratio (x) = 0.42853 0.35386
# Poissons Ratio (y) = 0.42853 0.35386
# Poissons Ratio (z) = 0.24295 0.24295
#
# Static dielectric constant tensor:
#      x y z
#    x 3.048960 0.000000 0.000000 
#    y 0.000000 3.048960 0.000000 
#    z 0.000000 0.000000 3.411030 
# 
# 
# High freq. dielectric constant tensor:
#      x y z
#    x 1.610610 0.000000 0.000000 
#    y 0.000000 1.610610 0.000000 
#    z 0.000000 0.000000 1.655960 
# 
# From -- ./inp_files/8323.got.cif
#   From: 2010.03.12/outbox.cif.g09.slc.cpg/sg191_5_cif.got.tgz:8323.got - 2010.04.01 12:09:02.
