data_PCOD8328650
_publ_section_title
;
Structure prediction by ZEFSAII (Michael W. Deem and Ramdas Pophale) SiO2 
 PCOD8328650
Probable space group: P 6/M M M
;
_chemical_formula_sum "Si O2"
_cell_formula_units_Z 180
_cell_length_a 20.834597
_cell_length_b 20.834597
_cell_length_c 31.925133
_cell_angle_alpha 90.000000
_cell_angle_beta 90.000000
_cell_angle_gamma 120.000000
_cell_volume 12001.445456
_symmetry_space_group_name_H-M "P 6/M M M"
_symmetry_group_IT_number 191
_symmetry_cell_setting 'hexagonal'
loop_
_space_group_symop_operation_xyz
x,y,z
x-y,x,z
-y,x-y,z
-x,-y,z
-x+y,-x,z
y,-x+y,z
x-y,-y,-z
-x,-x+y,-z
y,x,-z
-y,-x,-z
-x+y,y,-z
x,x-y,-z
-x,-y,-z
-x+y,-x,-z
y,-x+y,-z
x,y,-z
x-y,x,-z
-y,x-y,-z
-x+y,y,z
x,x-y,z
-y,-x,z
y,x,z
x-y,-y,z
-x,-x+y,z
loop_
_atom_site_type_symbol
_atom_site_label
_atom_site_fract_x
_atom_site_fract_y
_atom_site_fract_z
Si Si1 0.664661 0.187546 0.397461
Si Si2 0.515022 0.331701 0.090850
Si Si3 0.521549 0.332271 0.000000
Si Si4 0.271342 0.878172 0.545542
Si Si5 0.566048 0.652807 0.325589
Si Si6 0.382563 0.465676 0.833405
Si Si7 0.225208 0.920773 0.626037
Si Si8 0.333699 0.513918 0.755109
O O1 0.608785 0.217571 0.407161
O O2 0.744454 0.255547 0.383624
O O3 0.672100 0.148927 0.439451
O O4 0.630631 0.127784 0.360340
O O5 0.519931 0.259966 0.104676
O O6 0.598317 0.401684 0.091555
O O7 0.477827 0.319774 0.044097
O O8 0.461625 0.343235 0.122407
O O9 0.584041 0.415960 0.000000
O O10 0.556239 0.278120 0.000000
O O11 0.297844 0.918496 0.500000
O O12 0.190722 0.809279 0.539980
O O13 0.266186 0.929033 0.581572
O O14 0.590403 0.590403 0.323419
O O15 0.635313 0.732820 0.337707
O O16 0.533353 0.658481 0.281747
O O17 0.461603 0.538398 0.831088
O O18 0.394458 0.394458 0.829193
O O19 0.331528 0.469361 0.796812
O O20 0.139403 0.860598 0.625703
O O21 0.231852 0.000000 0.634844
O O22 0.258502 0.517003 0.751147
O O23 0.402241 0.597760 0.754925
#
# Coordination Sequence:
#
# PCOD8328650 Si02
#       8
#    24  24  12  24  24  24  24  24
#     4  10  19  30  44  62  85 111 139 172 209 247
#     4   9  15  24  38  56  77 100 130 167 207 247
#     4   8  13  20  33  53  75  99 126 161 204 248
#     4   8  15  28  43  59  81 108 137 167 196 229
#     4  10  20  33  48  63  81 107 137 168 200 237
#     4   9  18  30  41  54  75 103 132 162 198 243
#     4   9  17  30  48  68  88 110 137 168 201 237
#     4  11  21  32  46  63  83 105 132 167 207 249
#
# _framework density 14.998194
#
# number of rings (size 3 to 8) (size 9 to 14) (size 15 to 20)
#    0.000    2.667    0.000    3.667    0.000    3.200 
#    0.000    3.000    0.000    2.933    0.000    3.733 
#    0.000    0.000    0.000    3.333    0.000    0.000 
#
# Total GULP energy -2230141.149795 kJ/mol
# GULP energy per Si atom -12389.673054 kJ/mol
# Density = 1.496406 g / cm^3
# Si number density = 14.998194 Si / 1000 Ang^3
#
#
#
# Elastic Constant Matrix: (Units=GPa)
#
#
# Indices 1 2 3 4 5 6 
#
# 1 63.0377 37.4534 20.9395 0.0000 0.0000 0.0000
# 2 37.4534 63.0377 20.9395 0.0000 0.0000 0.0000
# 3 20.9395 20.9395 74.8462 0.0000 0.0000 0.0000
# 4 0.0000 0.0000 0.0000 10.0120 0.0000 0.0000
# 5 0.0000 0.0000 0.0000 0.0000 10.0120 0.0000
# 6 0.0000 0.0000 0.0000 0.0000 0.0000 12.7922
#
#
#
# Elastic Compliance Matrix: (Units=1/GPa)
#
#
# Indices 1 2 3 4 5 6 
#
# 1 0.025175 -0.013911 -0.003151 0.000000 0.000000 0.000000
# 2 -0.013911 0.025175 -0.003151 0.000000 0.000000 0.000000
# 3 -0.003151 -0.003151 0.015124 0.000000 0.000000 0.000000
# 4 0.000000 0.000000 0.000000 0.099880 0.000000 0.000000
# 5 0.000000 0.000000 0.000000 0.000000 0.099880 0.000000
# 6 0.000000 0.000000 0.000000 0.000000 0.000000 0.078173
#
#
# Mechanical properties :
#
#
# Convention : Reuss Voigt Hill
#
# Bulk Modulus (GPa) = 39.92447 39.95404 39.93925
# Shear Modulus (GPa) = 12.74910 14.66919 13.70914
#
# Velocity S-wave (km/s) = 2.91871 3.13079 3.02661
# Velocity P-wave (km/s) = 6.16732 6.30605 6.23707
#
# Compressibility (1/GPa) = 0.02504730
#
# Stress axis : x y z
#
# Youngs Moduli (GPa) = 39.72126 39.72126 66.11978
#
# Poissons Ratio (x) = 0.55256 0.20837
# Poissons Ratio (y) = 0.55256 0.20837
# Poissons Ratio (z) = 0.12518 0.12518
#
# Static dielectric constant tensor:
#      x y z
#    x 2.714920 0.000000 0.000000 
#    y 0.000000 2.714920 0.000000 
#    z 0.000000 0.000000 3.619560 
# 
# 
# High freq. dielectric constant tensor:
#      x y z
#    x 1.548490 0.000000 0.000000 
#    y 0.000000 1.548490 0.000000 
#    z 0.000000 0.000000 1.584030 
# 
# From -- ./inp_files/10835.got.cif
#   From: 2010.03.12/outbox.cif.g09.slc.cpg/sg191_6_cif.got.tgz:10835.got - 2010.04.01 12:09:02.
