data_PCOD8328555
_publ_section_title
;
Structure prediction by ZEFSAII (Michael W. Deem and Ramdas Pophale) SiO2 
 PCOD8328555
Probable space group: P 6/M M M
;
_chemical_formula_sum "Si O2"
_cell_formula_units_Z 168
_cell_length_a 26.604549
_cell_length_b 26.604549
_cell_length_c 15.074360
_cell_angle_alpha 90.000000
_cell_angle_beta 90.000000
_cell_angle_gamma 120.000000
_cell_volume 9240.198836
_symmetry_space_group_name_H-M "P 6/M M M"
_symmetry_group_IT_number 191
_symmetry_cell_setting 'hexagonal'
loop_
_space_group_symop_operation_xyz
x,y,z
x-y,x,z
-y,x-y,z
-x,-y,z
-x+y,-x,z
y,-x+y,z
x-y,-y,-z
-x,-x+y,-z
y,x,-z
-y,-x,-z
-x+y,y,-z
x,x-y,-z
-x,-y,-z
-x+y,-x,-z
y,-x+y,-z
x,y,-z
x-y,x,-z
-y,x-y,-z
-x+y,y,z
x,x-y,z
-y,-x,z
y,x,z
x-y,-y,z
-x,-x+y,z
loop_
_atom_site_type_symbol
_atom_site_label
_atom_site_fract_x
_atom_site_fract_y
_atom_site_fract_z
Si Si1 0.274973 0.340454 0.339375
Si Si2 0.452135 0.665946 0.739460
Si Si3 0.000000 0.558572 0.402244
Si Si4 0.656479 0.535675 0.395386
Si Si5 0.824454 0.294534 0.097238
Si Si6 0.183224 0.250593 0.000000
Si Si7 0.770285 0.113176 0.153043
Si Si8 0.831157 0.061697 0.398483
O O1 0.329714 0.329714 0.354266
O O2 0.286922 0.402923 0.373181
O O3 0.256754 0.329182 0.237342
O O4 0.220993 0.295958 0.397629
O O5 0.450916 0.725458 0.732310
O O6 0.386708 0.613293 0.744254
O O7 0.483712 0.659425 0.652893
O O8 0.486622 0.663826 0.826638
O O9 0.060381 0.604101 0.355079
O O10 0.000000 0.500000 0.411292
O O11 0.000000 0.584129 0.500000
O O12 0.649615 0.521259 0.500000
O O13 0.763813 0.236188 0.097208
O O14 0.875110 0.279261 0.113571
O O15 0.834941 0.324688 0.000000
O O16 0.212442 0.290909 0.915076
O O17 0.197924 0.197924 0.000000
O O18 0.113233 0.226466 0.000000
O O19 0.826228 0.173773 0.180764
O O20 0.846414 0.058713 0.500000
O O21 0.887840 0.112161 0.348773
O O22 0.812031 0.000000 0.351050
#
# Coordination Sequence:
#
# PCOD8328555 Si02
#       8
#    24  24  12  24  24  12  24  24
#     4  11  20  31  50  79 112 141 175 221 272 331
#     4  11  24  41  60  82 110 145 188 235 282 332
#     4   9  18  34  54  74  99 135 181 231 277 321
#     4  11  22  36  56  80 108 144 185 229 277 335
#     4   9  17  33  57  82 106 135 171 218 275 331
#     4  10  20  34  54  81 115 153 193 237 285 341
#     4  10  18  31  52  78 110 145 182 224 274 334
#     4   9  18  31  47  68  98 136 173 212 262 317
#
# _framework density 18.181425999999998
#
# number of rings (size 3 to 8) (size 9 to 14) (size 15 to 20)
#    0.000    1.929    2.857    1.857    0.000    2.571 
#    0.000    0.000    0.000    1.929    0.000    1.000 
#    0.000    3.429    0.000    4.571    0.000    3.143 
#
# Total GULP energy -2082184.709289 kJ/mol
# GULP energy per Si atom -12393.956603 kJ/mol
# Density = 1.814004 g / cm^3
# Si number density = 18.181426 Si / 1000 Ang^3
#
#
#
# Elastic Constant Matrix: (Units=GPa)
#
#
# Indices 1 2 3 4 5 6 
#
# 1 98.6625 46.8831 28.3840 0.0000 0.0000 0.0000
# 2 46.8831 98.6625 28.3840 0.0000 0.0000 0.0000
# 3 28.3840 28.3840 85.9822 0.0000 0.0000 0.0000
# 4 0.0000 0.0000 0.0000 15.7815 0.0000 0.0000
# 5 0.0000 0.0000 0.0000 0.0000 15.7815 0.0000
# 6 0.0000 0.0000 0.0000 0.0000 0.0000 25.8897
#
#
#
# Elastic Compliance Matrix: (Units=1/GPa)
#
#
# Indices 1 2 3 4 5 6 
#
# 1 0.013599 -0.005713 -0.002603 0.000000 0.000000 0.000000
# 2 -0.005713 0.013599 -0.002603 0.000000 0.000000 0.000000
# 3 -0.002603 -0.002603 0.013349 0.000000 0.000000 0.000000
# 4 0.000000 0.000000 0.000000 0.063365 0.000000 0.000000
# 5 0.000000 0.000000 0.000000 0.000000 0.063365 0.000000
# 6 0.000000 0.000000 0.000000 0.000000 0.000000 0.038625
#
#
# Mechanical properties :
#
#
# Convention : Reuss Voigt Hill
#
# Bulk Modulus (GPa) = 53.45305 54.51218 53.98261
# Shear Modulus (GPa) = 21.36938 23.46763 22.41851
#
# Velocity S-wave (km/s) = 3.43204 3.59659 3.51528
# Velocity P-wave (km/s) = 6.72078 6.87712 6.79940
#
# Compressibility (1/GPa) = 0.01870801
#
# Stress axis : x y z
#
# Youngs Moduli (GPa) = 73.53275 73.53275 74.91143
#
# Poissons Ratio (x) = 0.42011 0.19502
# Poissons Ratio (y) = 0.42011 0.19502
# Poissons Ratio (z) = 0.19143 0.19143
#
# Static dielectric constant tensor:
#      x y z
#    x 3.397040 0.000000 0.000000 
#    y 0.000000 3.397040 0.000000 
#    z 0.000000 0.000000 3.393940 
# 
# 
# High freq. dielectric constant tensor:
#      x y z
#    x 1.694590 0.000000 0.000000 
#    y 0.000000 1.694590 0.000000 
#    z 0.000000 0.000000 1.696690 
# 
# From -- ./inp_files/5327.got.cif
#   From: 2010.03.12/outbox.cif.g09.slc.cpg/sg191_3_cif.got.tgz:5327.got - 2010.04.01 12:09:02.
