data_PCOD8328048
_publ_section_title
;
Structure prediction by ZEFSAII (Michael W. Deem and Ramdas Pophale) SiO2 
 PCOD8328048
Probable space group: P -6 2 C
;
_chemical_formula_sum "Si O2"
_cell_formula_units_Z 72
_cell_length_a 23.577881
_cell_length_b 23.577881
_cell_length_c 8.746543
_cell_angle_alpha 90.000000
_cell_angle_beta 90.000000
_cell_angle_gamma 120.000000
_cell_volume 4210.916310
_symmetry_space_group_name_H-M "P -6 2 C"
_symmetry_group_IT_number 190
_symmetry_cell_setting 'hexagonal'
loop_
_space_group_symop_operation_xyz
x,y,z
-x+y,-x,1/2-z
-y,x-y,z
x,y,1/2-z
-x+y,-x,z
-y,x-y,1/2-z
x-y,-y,-z
-x,-x+y,-z
y,x,-z
y,x,1/2+z
x-y,-y,1/2+z
-x,-x+y,1/2+z
loop_
_atom_site_type_symbol
_atom_site_label
_atom_site_fract_x
_atom_site_fract_y
_atom_site_fract_z
Si Si1 0.070490 0.593308 0.430869
Si Si2 0.807486 0.406366 0.069190
Si Si3 0.264722 0.196710 0.071579
Si Si4 0.932307 0.069185 0.069301
Si Si5 0.739171 0.269752 0.570814
Si Si6 0.142042 0.743070 0.425758
O O1 0.071390 0.583668 0.250000
O O2 0.119481 0.573546 0.509596
O O3 0.092531 0.668016 0.472205
O O4 0.000000 0.546067 0.500000
O O5 0.803717 0.412922 0.250000
O O6 0.789428 0.333419 0.023003
O O7 0.755881 0.421889 0.987932
O O8 0.262689 0.204317 0.250000
O O9 0.209330 0.124249 0.019084
O O10 0.251945 0.251945 0.000000
O O11 0.335427 0.208748 0.023106
O O12 0.938120 0.066636 0.250000
O O13 0.000000 0.126184 0.000000
O O14 0.917127 0.000000 0.000000
O O15 0.741413 0.285210 0.750000
O O16 0.760689 0.215903 0.539126
O O17 0.132915 0.754489 0.250000
#
# Coordination Sequence:
#
# PCOD8328048 Si02
#       6
#    12  12  12  12  12  12
#     4  10  20  34  51  74 102 133 166 202 245 293
#     4  11  21  33  51  76 102 131 166 205 247 295
#     4  10  20  32  49  72  99 128 160 197 240 287
#     4  10  20  33  49  71  97 128 160 196 239 285
#     4  10  20  35  52  72 100 133 165 202 247 295
#     4   9  19  33  51  73  98 129 163 198 241 287
#
# _framework density 17.098414999999999
#
# number of rings (size 3 to 8) (size 9 to 14) (size 15 to 20)
#    0.000    2.000    0.000    5.500    0.000    7.333 
#    0.000    0.000    0.000    1.000    0.000    2.333 
#    0.000    0.000    0.000    0.000    0.000    0.000 
#
# Total GULP energy -893074.212674 kJ/mol
# GULP energy per Si atom -12403.808509 kJ/mol
# Density = 1.705950 g / cm^3
# Si number density = 17.098415 Si / 1000 Ang^3
#
#
#
# Elastic Constant Matrix: (Units=GPa)
#
#
# Indices 1 2 3 4 5 6 
#
# 1 100.2150 49.7369 30.0267 0.0000 0.0000 0.0000
# 2 49.7369 100.2150 30.0267 0.0000 0.0000 0.0000
# 3 30.0267 30.0267 64.2505 0.0000 0.0000 0.0000
# 4 0.0000 0.0000 0.0000 31.5078 0.0000 0.0000
# 5 0.0000 0.0000 0.0000 0.0000 31.5078 0.0000
# 6 0.0000 0.0000 0.0000 0.0000 0.0000 25.2390
#
#
#
# Elastic Compliance Matrix: (Units=1/GPa)
#
#
# Indices 1 2 3 4 5 6 
#
# 1 0.014007 -0.005803 -0.003834 0.000000 0.000000 0.000000
# 2 -0.005803 0.014007 -0.003834 0.000000 0.000000 0.000000
# 3 -0.003834 -0.003834 0.019148 0.000000 0.000000 0.000000
# 4 0.000000 0.000000 0.000000 0.031738 0.000000 0.000000
# 5 0.000000 0.000000 0.000000 0.000000 0.031738 0.000000
# 6 0.000000 0.000000 0.000000 0.000000 0.000000 0.039621
#
#
# Mechanical properties :
#
#
# Convention : Reuss Voigt Hill
#
# Bulk Modulus (GPa) = 49.45671 53.80678 51.63175
# Shear Modulus (GPa) = 27.18231 27.97694 27.57963
#
# Velocity S-wave (km/s) = 3.99150 4.04942 4.02057
# Velocity P-wave (km/s) = 7.08733 7.30760 7.19831
#
# Compressibility (1/GPa) = 0.02021970
#
# Stress axis : x y z
#
# Youngs Moduli (GPa) = 71.39054 71.39054 52.22524
#
# Poissons Ratio (x) = 0.41429 0.20024
# Poissons Ratio (y) = 0.41429 0.20024
# Poissons Ratio (z) = 0.27373 0.27373
#
# Static dielectric constant tensor:
#      x y z
#    x 3.158570 0.000000 0.000000 
#    y 0.000000 3.158570 0.000000 
#    z 0.000000 0.000000 3.257560 
# 
# 
# High freq. dielectric constant tensor:
#      x y z
#    x 1.649610 0.000000 0.000000 
#    y 0.000000 1.649610 0.000000 
#    z 0.000000 0.000000 1.675980 
# 
# From -- ./inp_files/1179.got.cif
#   From: 2010.06.25/outbox.cif.g09.slc.cpg/sg190_1_cif.got.tgz:1179.got - 2010.06.28 13:08:06.
