data_PCOD8328237
_publ_section_title
;
Structure prediction by ZEFSAII (Michael W. Deem and Ramdas Pophale) SiO2 
 PCOD8328237
Probable space group: P 6/M M M
;
_chemical_formula_sum "Si O2"
_cell_formula_units_Z 192
_cell_length_a 23.456399
_cell_length_b 23.456399
_cell_length_c 24.556864
_cell_angle_alpha 90.000000
_cell_angle_beta 90.000000
_cell_angle_gamma 120.000000
_cell_volume 11701.087251
_symmetry_space_group_name_H-M "P 6/M M M"
_symmetry_group_IT_number 191
_symmetry_cell_setting 'hexagonal'
loop_
_space_group_symop_operation_xyz
x,y,z
x-y,x,z
-y,x-y,z
-x,-y,z
-x+y,-x,z
y,-x+y,z
x-y,-y,-z
-x,-x+y,-z
y,x,-z
-y,-x,-z
-x+y,y,-z
x,x-y,-z
-x,-y,-z
-x+y,-x,-z
y,-x+y,-z
x,y,-z
x-y,x,-z
-y,x-y,-z
-x+y,y,z
x,x-y,z
-y,-x,z
y,x,z
x-y,-y,z
-x,-x+y,z
loop_
_atom_site_type_symbol
_atom_site_label
_atom_site_fract_x
_atom_site_fract_y
_atom_site_fract_z
Si Si1 0.075877 0.603494 0.153903
Si Si2 0.534458 0.333665 0.563087
Si Si3 0.609701 0.922307 0.939864
Si Si4 0.291221 0.837445 0.235471
Si Si5 0.733167 0.927495 0.105424
Si Si6 0.721154 0.144694 0.644052
Si Si7 0.723937 0.925844 0.656772
Si Si8 0.305690 0.071340 0.777420
O O1 0.078691 0.539346 0.138276
O O2 0.101457 0.650103 0.100971
O O3 0.129608 0.641040 0.201673
O O4 0.000000 0.582606 0.170097
O O5 0.518158 0.334971 0.500000
O O6 0.547700 0.273850 0.575870
O O7 0.599253 0.400748 0.580721
O O8 0.471503 0.326048 0.596527
O O9 0.659193 0.900538 0.915409
O O10 0.646255 0.000000 0.944482
O O11 0.584968 0.890930 0.000000
O O12 0.242237 0.757764 0.228059
O O13 0.312175 0.856618 0.298321
O O14 0.250653 0.871274 0.214815
O O15 0.757530 0.878765 0.083097
O O16 0.734971 0.926379 0.171088
O O17 0.782303 0.000000 0.082260
O O18 0.790726 0.209275 0.640734
O O19 0.737613 0.085553 0.638090
O O20 0.739001 0.869501 0.632701
O O21 0.725031 0.919401 0.722042
O O22 0.778674 0.000000 0.637659
O O23 0.301388 0.000000 0.776458
#
# Coordination Sequence:
#
# PCOD8328237 Si02
#       8
#    24  24  24  24  24  24  24  24
#     4  10  20  32  46  66  90 115 144 179 223 276
#     4   9  16  27  45  68  93 121 155 194 231 264
#     4   9  18  31  45  62  84 110 140 177 222 268
#     4  10  17  27  44  64  89 120 151 184 224 265
#     4  10  18  28  44  66  92 119 148 182 221 264
#     4   8  16  28  42  64  91 121 156 191 227 263
#     4   9  16  26  42  64  88 114 148 189 230 271
#     4   9  15  24  41  65  90 115 145 181 223 265
#
# _framework density 16.408732000000001
#
# number of rings (size 3 to 8) (size 9 to 14) (size 15 to 20)
#    0.000    2.750    1.250    2.375    0.000    2.000 
#    0.000    1.250    0.000    1.250    0.000    0.875 
#    0.000    3.000    0.000    3.125    0.000    0.000 
#
# Total GULP energy -2378740.663792 kJ/mol
# GULP energy per Si atom -12389.274291 kJ/mol
# Density = 1.637138 g / cm^3
# Si number density = 16.408732 Si / 1000 Ang^3
#
#
#
# Elastic Constant Matrix: (Units=GPa)
#
#
# Indices 1 2 3 4 5 6 
#
# 1 80.8499 41.5095 34.2886 0.0000 0.0000 0.0000
# 2 41.5095 80.8499 34.2886 0.0000 0.0000 0.0000
# 3 34.2886 34.2886 66.9349 0.0000 0.0000 0.0000
# 4 0.0000 0.0000 0.0000 13.5476 0.0000 0.0000
# 5 0.0000 0.0000 0.0000 0.0000 13.5476 0.0000
# 6 0.0000 0.0000 0.0000 0.0000 0.0000 19.6702
#
#
#
# Elastic Compliance Matrix: (Units=1/GPa)
#
#
# Indices 1 2 3 4 5 6 
#
# 1 0.018442 -0.006978 -0.005873 0.000000 0.000000 0.000000
# 2 -0.006978 0.018442 -0.005873 0.000000 0.000000 0.000000
# 3 -0.005873 -0.005873 0.020957 0.000000 0.000000 0.000000
# 4 0.000000 0.000000 0.000000 0.073814 0.000000 0.000000
# 5 0.000000 0.000000 0.000000 0.000000 0.073814 0.000000
# 6 0.000000 0.000000 0.000000 0.000000 0.000000 0.050838
#
#
# Mechanical properties :
#
#
# Convention : Reuss Voigt Hill
#
# Bulk Modulus (GPa) = 49.03386 49.86756 49.45071
# Shear Modulus (GPa) = 16.63622 17.25629 16.94626
#
# Velocity S-wave (km/s) = 3.18758 3.24644 3.21714
# Velocity P-wave (km/s) = 6.59509 6.67153 6.63342
#
# Compressibility (1/GPa) = 0.02039407
#
# Stress axis : x y z
#
# Youngs Moduli (GPa) = 54.22524 54.22524 47.71756
#
# Poissons Ratio (x) = 0.37836 0.28023
# Poissons Ratio (y) = 0.37836 0.28023
# Poissons Ratio (z) = 0.31845 0.31845
#
# Static dielectric constant tensor:
#      x y z
#    x 3.115830 0.000000 0.000000 
#    y 0.000000 3.115830 0.000000 
#    z 0.000000 0.000000 3.219050 
# 
# 
# High freq. dielectric constant tensor:
#      x y z
#    x 1.607770 0.000000 0.000000 
#    y 0.000000 1.607770 0.000000 
#    z 0.000000 0.000000 1.618600 
# 
# From -- ./inp_files/9364.got.cif
#   From: 2010.03.12/outbox.cif.g09.slc.cpg/sg191_5_cif.got.tgz:9364.got - 2010.04.01 12:09:02.
