data_PCOD8328337
_publ_section_title
;
Structure prediction by ZEFSAII (Michael W. Deem and Ramdas Pophale) SiO2 
 PCOD8328337
Probable space group: P 6/M M M
;
_chemical_formula_sum "Si O2"
_cell_formula_units_Z 84
_cell_length_a 18.041910
_cell_length_b 18.041910
_cell_length_c 17.835199
_cell_angle_alpha 90.000000
_cell_angle_beta 90.000000
_cell_angle_gamma 120.000000
_cell_volume 5027.749312
_symmetry_space_group_name_H-M "P 6/M M M"
_symmetry_group_IT_number 191
_symmetry_cell_setting 'hexagonal'
loop_
_space_group_symop_operation_xyz
x,y,z
x-y,x,z
-y,x-y,z
-x,-y,z
-x+y,-x,z
y,-x+y,z
x-y,-y,-z
-x,-x+y,-z
y,x,-z
-y,-x,-z
-x+y,y,-z
x,x-y,-z
-x,-y,-z
-x+y,-x,-z
y,-x+y,-z
x,y,-z
x-y,x,-z
-y,x-y,-z
-x+y,y,z
x,x-y,z
-y,-x,z
y,x,z
x-y,-y,z
-x,-x+y,z
loop_
_atom_site_type_symbol
_atom_site_label
_atom_site_fract_x
_atom_site_fract_y
_atom_site_fract_z
Si Si1 0.163333 0.666435 0.586039
Si Si2 0.899605 0.366941 0.844446
Si Si3 0.637547 0.902067 0.709846
Si Si4 0.497823 0.331315 0.000000
O O1 0.135595 0.663133 0.500000
O O2 0.151421 0.575711 0.611603
O O3 0.262194 0.737806 0.597920
O O4 0.102019 0.687928 0.635041
O O5 0.858819 0.429410 0.835343
O O6 0.867971 0.297677 0.778467
O O7 0.000000 0.424346 0.840074
O O8 0.873572 0.316973 0.924179
O O9 0.676461 0.838231 0.703756
O O10 0.714330 0.000000 0.720732
O O11 0.571410 0.428591 0.000000
O O12 0.535782 0.267891 0.000000
#
# Coordination Sequence:
#
# PCOD8328337 Si02
#       4
#    24  24  24  12
#     4   9  17  29  46  69  97 127 155 181 210 247
#     4   9  17  29  45  64  86 113 144 178 217 260
#     4  10  20  33  48  66  88 114 146 185 228 271
#     4  10  18  27  39  57  84 117 151 181 207 238
#
# _framework density 16.707276
#
# number of rings (size 3 to 8) (size 9 to 14) (size 15 to 20)
#    0.000    2.571    0.000    2.571    0.000    5.143 
#    0.000    1.429    0.000    9.429    0.000    0.000 
#    0.000    0.000    0.000    7.143    0.000   29.714 
#
# Total GULP energy -1041283.332922 kJ/mol
# GULP energy per Si atom -12396.230154 kJ/mol
# Density = 1.666925 g / cm^3
# Si number density = 16.707276 Si / 1000 Ang^3
#
#
#
# Elastic Constant Matrix: (Units=GPa)
#
#
# Indices 1 2 3 4 5 6 
#
# 1 60.6111 37.0193 29.1229 0.0000 0.0000 0.0000
# 2 37.0193 60.6111 29.1229 0.0000 0.0000 0.0000
# 3 29.1229 29.1229 96.1763 0.0000 0.0000 0.0000
# 4 0.0000 0.0000 0.0000 14.7437 0.0000 0.0000
# 5 0.0000 0.0000 0.0000 0.0000 14.7437 0.0000
# 6 0.0000 0.0000 0.0000 0.0000 0.0000 11.7959
#
#
#
# Elastic Compliance Matrix: (Units=1/GPa)
#
#
# Indices 1 2 3 4 5 6 
#
# 1 0.027444 -0.014943 -0.003785 0.000000 0.000000 0.000000
# 2 -0.014943 0.027444 -0.003785 0.000000 0.000000 0.000000
# 3 -0.003785 -0.003785 0.012690 0.000000 0.000000 0.000000
# 4 0.000000 0.000000 0.000000 0.067826 0.000000 0.000000
# 5 0.000000 0.000000 0.000000 0.000000 0.067826 0.000000
# 6 0.000000 0.000000 0.000000 0.000000 0.000000 0.084775
#
#
# Mechanical properties :
#
#
# Convention : Reuss Voigt Hill
#
# Bulk Modulus (GPa) = 44.34479 45.32539 44.83509
# Shear Modulus (GPa) = 14.68210 16.39886 15.54048
#
# Velocity S-wave (km/s) = 2.96765 3.13635 3.05317
# Velocity P-wave (km/s) = 6.19212 6.34851 6.27081
#
# Compressibility (1/GPa) = 0.02255056
#
# Stress axis : x y z
#
# Youngs Moduli (GPa) = 36.43735 36.43735 78.80173
#
# Poissons Ratio (x) = 0.54449 0.29830
# Poissons Ratio (y) = 0.54449 0.29830
# Poissons Ratio (z) = 0.13793 0.13793
#
# Static dielectric constant tensor:
#      x y z
#    x 2.910420 0.000000 0.000000 
#    y 0.000000 2.910420 0.000000 
#    z 0.000000 0.000000 3.472860 
# 
# 
# High freq. dielectric constant tensor:
#      x y z
#    x 1.614320 0.000000 0.000000 
#    y 0.000000 1.614320 0.000000 
#    z 0.000000 0.000000 1.664450 
# 
# From -- ./inp_files/3993.got.cif
#   From: 2010.03.12/outbox.cif.g09.slc.cpg/sg191_2_cif.got.tgz:3993.got - 2010.04.01 12:09:02.
