data_PCOD8328702
_publ_section_title
;
Structure prediction by ZEFSAII (Michael W. Deem and Ramdas Pophale) SiO2 
 PCOD8328702
Probable space group: P 6/M M M
;
_chemical_formula_sum "Si O2"
_cell_formula_units_Z 132
_cell_length_a 17.837139
_cell_length_b 17.837139
_cell_length_c 28.507867
_cell_angle_alpha 90.000000
_cell_angle_beta 90.000000
_cell_angle_gamma 120.000000
_cell_volume 7854.992035
_symmetry_space_group_name_H-M "P 6/M M M"
_symmetry_group_IT_number 191
_symmetry_cell_setting 'hexagonal'
loop_
_space_group_symop_operation_xyz
x,y,z
x-y,x,z
-y,x-y,z
-x,-y,z
-x+y,-x,z
y,-x+y,z
x-y,-y,-z
-x,-x+y,-z
y,x,-z
-y,-x,-z
-x+y,y,-z
x,x-y,-z
-x,-y,-z
-x+y,-x,-z
y,-x+y,-z
x,y,-z
x-y,x,-z
-y,x-y,-z
-x+y,y,z
x,x-y,z
-y,-x,z
y,x,z
x-y,-y,z
-x,-x+y,z
loop_
_atom_site_type_symbol
_atom_site_label
_atom_site_fract_x
_atom_site_fract_y
_atom_site_fract_z
Si Si1 0.363734 0.904511 0.646323
Si Si2 0.098121 0.729728 0.174530
Si Si3 0.834271 0.503802 0.744041
Si Si4 0.668611 0.160044 0.087648
Si Si5 0.505023 0.669160 0.550414
Si Si6 0.901658 0.270993 0.000000
O O1 0.449550 0.899100 0.639916
O O2 0.310327 0.844968 0.689946
O O3 0.313134 0.878262 0.596336
O O4 0.384125 0.000000 0.659058
O O5 0.166835 0.833166 0.171229
O O6 0.104407 0.690285 0.224106
O O7 0.118340 0.678252 0.135220
O O8 0.000000 0.711987 0.168880
O O9 0.734159 0.468317 0.757850
O O10 0.858345 0.429173 0.751891
O O11 0.573209 0.146418 0.084741
O O12 0.737853 0.262148 0.085607
O O13 0.683284 0.110802 0.045054
O O14 0.555142 0.683908 0.500000
O O15 0.466427 0.733214 0.553457
O O16 0.427840 0.572161 0.551240
O O17 0.832573 0.167428 0.000000
O O18 0.000000 0.287695 0.000000
#
# Coordination Sequence:
#
# PCOD8328702 Si02
#       6
#    24  24  24  24  24  12
#     4   9  17  27  38  53  74 102 136 173 211 251
#     4  10  21  35  51  71  94 122 154 190 232 274
#     4  10  19  30  45  65  90 119 150 183 219 261
#     4  10  20  33  50  73 102 134 165 195 228 269
#     4   9  16  25  37  52  70  93 123 162 209 259
#     4  10  21  35  51  72  97 127 162 202 247 289
#
# _framework density 16.804600000000001
#
# number of rings (size 3 to 8) (size 9 to 14) (size 15 to 20)
#    0.000    2.364    0.000    3.000    0.000    4.727 
#    0.000    6.364    0.000    0.273    0.000    0.000 
#    0.000    4.364    0.000    0.000    0.000    0.364 
#
# Total GULP energy -1635641.898970 kJ/mol
# GULP energy per Si atom -12391.226507 kJ/mol
# Density = 1.676635 g / cm^3
# Si number density = 16.804600 Si / 1000 Ang^3
#
#
#
# Elastic Constant Matrix: (Units=GPa)
#
#
# Indices 1 2 3 4 5 6 
#
# 1 74.8094 49.1224 28.1641 0.0000 0.0000 0.0000
# 2 49.1224 74.8094 28.1641 0.0000 0.0000 0.0000
# 3 28.1641 28.1641 109.9575 0.0000 0.0000 0.0000
# 4 0.0000 0.0000 0.0000 8.4851 0.0000 0.0000
# 5 0.0000 0.0000 0.0000 0.0000 8.4851 0.0000
# 6 0.0000 0.0000 0.0000 0.0000 0.0000 12.8435
#
#
#
# Elastic Compliance Matrix: (Units=1/GPa)
#
#
# Indices 1 2 3 4 5 6 
#
# 1 0.024031 -0.014899 -0.002339 0.000000 0.000000 0.000000
# 2 -0.014899 0.024031 -0.002339 0.000000 0.000000 0.000000
# 3 -0.002339 -0.002339 0.010293 0.000000 0.000000 0.000000
# 4 0.000000 0.000000 0.000000 0.117854 0.000000 0.000000
# 5 0.000000 0.000000 0.000000 0.000000 0.117854 0.000000
# 6 0.000000 0.000000 0.000000 0.000000 0.000000 0.077860
#
#
# Mechanical properties :
#
#
# Convention : Reuss Voigt Hill
#
# Bulk Modulus (GPa) = 52.08177 52.27531 52.17854
# Shear Modulus (GPa) = 11.97669 16.23778 14.10723
#
# Velocity S-wave (km/s) = 2.67255 3.11186 2.90053
# Velocity P-wave (km/s) = 6.37049 6.63979 6.50654
#
# Compressibility (1/GPa) = 0.01920058
#
# Stress axis : x y z
#
# Youngs Moduli (GPa) = 41.61272 41.61272 97.15665
#
# Poissons Ratio (x) = 0.61999 0.22726
# Poissons Ratio (y) = 0.61999 0.22726
# Poissons Ratio (z) = 0.09733 0.09733
#
# Static dielectric constant tensor:
#      x y z
#    x 2.927430 0.000000 0.000000 
#    y 0.000000 2.927430 0.000000 
#    z 0.000000 0.000000 3.688620 
# 
# 
# High freq. dielectric constant tensor:
#      x y z
#    x 1.611710 0.000000 0.000000 
#    y 0.000000 1.611710 0.000000 
#    z 0.000000 0.000000 1.680520 
# 
# From -- ./inp_files/9705.got.cif
#   From: 2010.03.12/outbox.cif.g09.slc.cpg/sg191_5_cif.got.tgz:9705.got - 2010.04.01 12:09:02.
