data_PCOD8328937
_publ_section_title
;
Structure prediction by ZEFSAII (Michael W. Deem and Ramdas Pophale) SiO2 
 PCOD8328937
Probable space group: P 6/M M M
;
_chemical_formula_sum "Si O2"
_cell_formula_units_Z 180
_cell_length_a 21.768237
_cell_length_b 21.768237
_cell_length_c 32.108289
_cell_angle_alpha 90.000000
_cell_angle_beta 90.000000
_cell_angle_gamma 120.000000
_cell_volume 13176.325332
_symmetry_space_group_name_H-M "P 6/M M M"
_symmetry_group_IT_number 191
_symmetry_cell_setting 'hexagonal'
loop_
_space_group_symop_operation_xyz
x,y,z
x-y,x,z
-y,x-y,z
-x,-y,z
-x+y,-x,z
y,-x+y,z
x-y,-y,-z
-x,-x+y,-z
y,x,-z
-y,-x,-z
-x+y,y,-z
x,x-y,-z
-x,-y,-z
-x+y,-x,-z
y,-x+y,-z
x,y,-z
x-y,x,-z
-y,x-y,-z
-x+y,y,z
x,x-y,z
-y,-x,z
y,x,z
x-y,-y,z
-x,-x+y,z
loop_
_atom_site_type_symbol
_atom_site_label
_atom_site_fract_x
_atom_site_fract_y
_atom_site_fract_z
Si Si1 0.665816 0.188782 0.403820
Si Si2 0.522782 0.188150 0.090345
Si Si3 0.665402 0.471693 0.000000
Si Si4 0.314314 0.919314 0.547611
Si Si5 0.568016 0.713403 0.325667
Si Si6 0.533675 0.612281 0.842321
Si Si7 0.299695 0.080471 0.618430
Si Si8 0.526531 0.610346 0.749765
O O1 0.603123 0.206245 0.407352
O O2 0.739842 0.260159 0.410642
O O3 0.656648 0.132869 0.439465
O O4 0.662990 0.154106 0.359023
O O5 0.601878 0.203755 0.100319
O O6 0.523009 0.261505 0.093640
O O7 0.466875 0.132940 0.123475
O O8 0.497805 0.152211 0.043890
O O9 0.612939 0.387062 0.000000
O O10 0.744447 0.488894 0.000000
O O11 0.288826 0.904861 0.500000
O O12 0.246519 0.904561 0.575071
O O13 0.377595 0.000000 0.554303
O O14 0.557611 0.778806 0.314660
O O15 0.646104 0.739763 0.343984
O O16 0.558800 0.672818 0.283166
O O17 0.462724 0.537277 0.845466
O O18 0.600271 0.600271 0.850943
O O19 0.538977 0.644041 0.796058
O O20 0.269473 0.134737 0.621406
O O21 0.234411 0.000000 0.621096
O O22 0.442631 0.557370 0.741752
O O23 0.566162 0.566162 0.745744
#
# Coordination Sequence:
#
# PCOD8328937 Si02
#       8
#    24  24  12  24  24  24  24  24
#     4  10  20  32  44  58  79 106 131 154 183 221
#     4   9  15  23  35  50  67  86 112 146 182 217
#     4   8  13  20  31  47  65  85 108 139 180 220
#     4   9  18  32  48  64  81 100 124 158 194 220
#     4   9  17  28  42  59  77  96 122 156 186 213
#     4   8  15  26  36  47  67  94 118 141 174 217
#     4   9  17  29  45  64  84 104 124 148 180 215
#     4   9  16  26  40  55  71  93 120 149 181 216
#
# _framework density 13.660864999999999
#
# number of rings (size 3 to 8) (size 9 to 14) (size 15 to 20)
#    0.000    3.067    0.000    3.133    0.000    3.733 
#    0.000    1.000    0.000    3.200    0.000    0.000 
#    0.000    0.000    0.000    3.333    0.000    0.000 
#
# Total GULP energy -2230764.662517 kJ/mol
# GULP energy per Si atom -12393.137014 kJ/mol
# Density = 1.362977 g / cm^3
# Si number density = 13.660865 Si / 1000 Ang^3
#
#
#
# Elastic Constant Matrix: (Units=GPa)
#
#
# Indices 1 2 3 4 5 6 
#
# 1 58.2632 28.9981 40.4356 0.0000 0.0000 0.0000
# 2 28.9981 58.2632 40.4356 0.0000 0.0000 0.0000
# 3 40.4356 40.4356 115.6092 0.0000 0.0000 0.0000
# 4 0.0000 0.0000 0.0000 16.9191 0.0000 0.0000
# 5 0.0000 0.0000 0.0000 0.0000 16.9191 0.0000
# 6 0.0000 0.0000 0.0000 0.0000 0.0000 14.6325
#
#
#
# Elastic Compliance Matrix: (Units=1/GPa)
#
#
# Indices 1 2 3 4 5 6 
#
# 1 0.025563 -0.008607 -0.005931 0.000000 0.000000 0.000000
# 2 -0.008607 0.025563 -0.005931 0.000000 0.000000 0.000000
# 3 -0.005931 -0.005931 0.012798 0.000000 0.000000 0.000000
# 4 0.000000 0.000000 0.000000 0.059105 0.000000 0.000000
# 5 0.000000 0.000000 0.000000 0.000000 0.059105 0.000000
# 6 0.000000 0.000000 0.000000 0.000000 0.000000 0.068341
#
#
# Mechanical properties :
#
#
# Convention : Reuss Voigt Hill
#
# Bulk Modulus (GPa) = 43.50037 50.20822 46.85430
# Shear Modulus (GPa) = 16.71822 17.84523 17.28172
#
# Velocity S-wave (km/s) = 3.50209 3.61820 3.56062
# Velocity P-wave (km/s) = 6.94730 7.36806 7.16077
#
# Compressibility (1/GPa) = 0.02298831
#
# Stress axis : x y z
#
# Youngs Moduli (GPa) = 39.11859 39.11859 78.13466
#
# Poissons Ratio (x) = 0.33670 0.46339
# Poissons Ratio (y) = 0.33670 0.46339
# Poissons Ratio (z) = 0.23200 0.23200
#
# Static dielectric constant tensor:
#      x y z
#    x 2.571370 0.000000 0.000000 
#    y 0.000000 2.571370 0.000000 
#    z 0.000000 0.000000 2.982930 
# 
# 
# High freq. dielectric constant tensor:
#      x y z
#    x 1.495490 0.000000 0.000000 
#    y 0.000000 1.495490 0.000000 
#    z 0.000000 0.000000 1.529010 
# 
# From -- ./inp_files/10832.got.cif
#   From: 2010.03.12/outbox.cif.g09.slc.cpg/sg191_6_cif.got.tgz:10832.got - 2010.04.01 12:09:02.
