data_PCOD8328335
_publ_section_title
;
Structure prediction by ZEFSAII (Michael W. Deem and Ramdas Pophale) SiO2 
 PCOD8328335
Probable space group: P 6/M M M
;
_chemical_formula_sum "Si O2"
_cell_formula_units_Z 120
_cell_length_a 18.002906
_cell_length_b 18.002906
_cell_length_c 26.035292
_cell_angle_alpha 90.000000
_cell_angle_beta 90.000000
_cell_angle_gamma 120.000000
_cell_volume 7307.659653
_symmetry_space_group_name_H-M "P 6/M M M"
_symmetry_group_IT_number 191
_symmetry_cell_setting 'hexagonal'
loop_
_space_group_symop_operation_xyz
x,y,z
x-y,x,z
-y,x-y,z
-x,-y,z
-x+y,-x,z
y,-x+y,z
x-y,-y,-z
-x,-x+y,-z
y,x,-z
-y,-x,-z
-x+y,y,-z
x,x-y,-z
-x,-y,-z
-x+y,-x,-z
y,-x+y,-z
x,y,-z
x-y,x,-z
-y,x-y,-z
-x+y,y,z
x,x-y,z
-y,-x,z
y,x,z
x-y,-y,z
-x,-x+y,z
loop_
_atom_site_type_symbol
_atom_site_label
_atom_site_fract_x
_atom_site_fract_y
_atom_site_fract_z
Si Si1 0.532727 0.899735 0.192527
Si Si2 0.833238 0.502003 0.298943
Si Si3 0.365796 0.100980 0.500000
Si Si4 0.267052 0.368401 0.096713
Si Si5 0.467502 0.100348 0.000000
Si Si6 0.532657 0.633008 0.405262
O O1 0.429049 0.858097 0.185616
O O2 0.556539 0.872946 0.246951
O O3 0.573624 0.871415 0.147627
O O4 0.573220 0.000000 0.190689
O O5 0.731460 0.462920 0.298644
O O6 0.858292 0.429146 0.299168
O O7 0.872228 0.556524 0.351048
O O8 0.321474 0.160737 0.500000
O O9 0.427939 0.128754 0.549091
O O10 0.293040 0.000000 0.500000
O O11 0.162905 0.325809 0.093778
O O12 0.294560 0.294560 0.095608
O O13 0.307959 0.434968 0.050092
O O14 0.571681 0.143361 0.000000
O O15 0.429159 0.000000 0.000000
O O16 0.429107 0.570894 0.412024
O O17 0.573700 0.573700 0.406524
#
# Coordination Sequence:
#
# PCOD8328335 Si02
#       6
#    24  24  12  24  12  24
#     4   9  17  29  45  63  83 111 147 185 224 266
#     4  10  18  27  39  57  84 115 145 174 207 249
#     4  10  19  31  47  66  87 111 142 180 221 263
#     4  10  19  31  48  69  92 119 153 191 229 269
#     4   9  17  30  49  70  90 114 144 177 213 256
#     4   9  17  29  45  63  83 110 143 177 212 252
#
# _framework density 16.421126000000001
#
# number of rings (size 3 to 8) (size 9 to 14) (size 15 to 20)
#    0.000    2.500    0.000    3.200    0.000    6.000 
#    0.000    0.000    0.000    9.900    0.000    0.000 
#    0.000    2.400    0.000    0.000    0.000   41.600 
#
# Total GULP energy -1486891.970656 kJ/mol
# GULP energy per Si atom -12390.766422 kJ/mol
# Density = 1.638375 g / cm^3
# Si number density = 16.421126 Si / 1000 Ang^3
#
#
#
# Elastic Constant Matrix: (Units=GPa)
#
#
# Indices 1 2 3 4 5 6 
#
# 1 53.1940 43.3962 34.6425 0.0000 0.0000 0.0000
# 2 43.3962 53.1940 34.6425 0.0000 0.0000 0.0000
# 3 34.6425 34.6425 148.0200 0.0000 0.0000 0.0000
# 4 0.0000 0.0000 0.0000 9.8966 0.0000 0.0000
# 5 0.0000 0.0000 0.0000 0.0000 9.8966 0.0000
# 6 0.0000 0.0000 0.0000 0.0000 0.0000 4.8989
#
#
#
# Elastic Compliance Matrix: (Units=1/GPa)
#
#
# Indices 1 2 3 4 5 6 
#
# 1 0.057252 -0.044811 -0.002912 0.000000 0.000000 0.000000
# 2 -0.044811 0.057252 -0.002912 0.000000 0.000000 0.000000
# 3 -0.002912 -0.002912 0.008119 0.000000 0.000000 0.000000
# 4 0.000000 0.000000 0.000000 0.101045 0.000000 0.000000
# 5 0.000000 0.000000 0.000000 0.000000 0.101045 0.000000
# 6 0.000000 0.000000 0.000000 0.000000 0.000000 0.204126
#
#
# Mechanical properties :
#
#
# Convention : Reuss Voigt Hill
#
# Bulk Modulus (GPa) = 46.82779 53.30784 50.06782
# Shear Modulus (GPa) = 7.84651 14.38688 11.11670
#
# Velocity S-wave (km/s) = 2.18830 2.96314 2.60470
# Velocity P-wave (km/s) = 5.91300 6.65135 6.29301
#
# Compressibility (1/GPa) = 0.02135484
#
# Stress axis : x y z
#
# Youngs Moduli (GPa) = 17.46653 17.46653 123.17054
#
# Poissons Ratio (x) = 0.78269 0.35865
# Poissons Ratio (y) = 0.78269 0.35865
# Poissons Ratio (z) = 0.05086 0.05086
#
# Static dielectric constant tensor:
#      x y z
#    x 2.926020 0.000000 0.000000 
#    y 0.000000 2.926020 0.000000 
#    z 0.000000 0.000000 3.583200 
# 
# 
# High freq. dielectric constant tensor:
#      x y z
#    x 1.601480 0.000000 0.000000 
#    y 0.000000 1.601480 0.000000 
#    z 0.000000 0.000000 1.659060 
# 
# From -- ./inp_files/9582.got.cif
#   From: 2010.03.12/outbox.cif.g09.slc.cpg/sg191_5_cif.got.tgz:9582.got - 2010.04.01 12:09:02.
