data_PCOD8328064
_publ_section_title
;
Structure prediction by ZEFSAII (Michael W. Deem and Ramdas Pophale) SiO2 
 PCOD8328064
Probable space group: P -6 2 C
;
_chemical_formula_sum "Si O2"
_cell_formula_units_Z 76
_cell_length_a 16.851505
_cell_length_b 16.851505
_cell_length_c 15.266106
_cell_angle_alpha 90.000000
_cell_angle_beta 90.000000
_cell_angle_gamma 120.000000
_cell_volume 3754.363270
_symmetry_space_group_name_H-M "P -6 2 C"
_symmetry_group_IT_number 190
_symmetry_cell_setting 'hexagonal'
loop_
_space_group_symop_operation_xyz
x,y,z
-x+y,-x,1/2-z
-y,x-y,z
x,y,1/2-z
-x+y,-x,z
-y,x-y,1/2-z
x-y,-y,-z
-x,-x+y,-z
y,x,-z
y,x,1/2+z
x-y,-y,1/2+z
-x,-x+y,1/2+z
loop_
_atom_site_type_symbol
_atom_site_label
_atom_site_fract_x
_atom_site_fract_y
_atom_site_fract_z
Si Si1 0.572008 0.610419 0.354039
Si Si2 0.758638 0.060998 0.419704
Si Si3 0.997520 0.821017 0.250000
Si Si4 0.178982 0.002479 0.250000
Si Si5 0.758637 0.697640 0.080297
Si Si6 0.333334 0.666668 0.354867
Si Si7 0.427989 0.389582 0.645961
Si Si8 0.768186 0.231811 0.646174
O O1 0.580193 0.606542 0.250000
O O2 0.657035 0.609291 0.402604
O O3 0.475968 0.524031 0.385344
O O4 0.582636 0.708614 0.384615
O O5 0.782212 0.022831 0.334439
O O6 0.831833 0.168168 0.435728
O O7 0.759227 0.000000 0.500000
O O8 0.657036 0.047747 0.402606
O O9 0.933650 0.867299 0.250000
O O10 0.103275 0.896724 0.250000
O O11 0.240618 0.022830 0.165560
O O12 0.759227 0.759227 0.000000
O O13 0.333334 0.666668 0.250000
O O14 0.434867 0.717443 0.392959
O O15 0.419805 0.393463 0.750000
O O16 0.417356 0.291384 0.615390
O O17 0.765631 0.234375 0.750000
#
# Coordination Sequence:
#
# PCOD8328064 Si02
#       8
#    12  12   6   6  12   4  12  12
#     4  10  20  34  58  89 119 156 196 237 290 357
#     4  11  24  40  61  88 118 157 204 254 305 361
#     4  10  21  38  59  84 114 152 198 252 309 362
#     4  10  21  38  59  84 114 152 198 252 309 362
#     4  11  24  40  61  88 118 157 204 254 305 361
#     4   9  12  24  42  78 129 150 177 229 290 358
#     4  10  20  34  58  89 119 156 196 237 290 357
#     4   9  16  26  48  84 121 153 187 233 290 357
#
# _framework density 20.243113000000001
#
# number of rings (size 3 to 8) (size 9 to 14) (size 15 to 20)
#    0.000    1.895    3.158    1.105    4.421    0.632 
#    0.000    0.000    0.000    5.684    0.000    0.000 
#    0.000    0.000    0.000    0.000    0.000    0.000 
#
# Total GULP energy -941933.216631 kJ/mol
# GULP energy per Si atom -12393.858114 kJ/mol
# Density = 2.019704 g / cm^3
# Si number density = 20.243113 Si / 1000 Ang^3
#
#
#
# Elastic Constant Matrix: (Units=GPa)
#
#
# Indices 1 2 3 4 5 6 
#
# 1 123.1942 67.2993 27.0997 -0.0001 0.0000 0.0000
# 2 67.2993 123.1940 27.0998 0.0000 0.0000 0.0000
# 3 27.0997 27.0998 72.1744 0.0001 0.0000 0.0000
# 4 -0.0001 0.0000 0.0001 61.4442 0.0000 0.0000
# 5 0.0000 0.0000 0.0000 0.0000 61.4438 0.0000
# 6 0.0000 0.0000 0.0000 0.0000 0.0000 27.9475
#
#
#
# Elastic Compliance Matrix: (Units=1/GPa)
#
#
# Indices 1 2 3 4 5 6 
#
# 1 0.011884 -0.006007 -0.002207 0.000000 0.000000 0.000000
# 2 -0.006007 0.011884 -0.002207 0.000000 0.000000 0.000000
# 3 -0.002207 -0.002207 0.015513 0.000000 0.000000 0.000000
# 4 0.000000 0.000000 0.000000 0.016275 0.000000 0.000000
# 5 0.000000 0.000000 0.000000 0.000000 0.016275 0.000000
# 6 0.000000 0.000000 0.000000 0.000000 0.000000 0.035781
#
#
# Mechanical properties :
#
#
# Convention : Reuss Voigt Hill
#
# Bulk Modulus (GPa) = 54.22974 62.39558 58.31266
# Shear Modulus (GPa) = 37.14728 43.30470 40.22599
#
# Velocity S-wave (km/s) = 4.28840 4.63020 4.46258
# Velocity P-wave (km/s) = 7.16714 7.71201 7.44456
#
# Compressibility (1/GPa) = 0.01844007
#
# Stress axis : x y z
#
# Youngs Moduli (GPa) = 84.14626 84.14608 64.46395
#
# Poissons Ratio (x) = 0.50544 0.14226
# Poissons Ratio (y) = 0.50544 0.14226
# Poissons Ratio (z) = 0.18570 0.18570
#
# Static dielectric constant tensor:
#      x y z
#    x 3.898490 0.000000 0.000000 
#    y 0.000000 3.898490 0.000000 
#    z 0.000000 0.000000 3.330640 
# 
# 
# High freq. dielectric constant tensor:
#      x y z
#    x 1.785930 0.000000 0.000000 
#    y 0.000000 1.785930 0.000000 
#    z 0.000000 0.000000 1.778870 
# 
# From -- ./inp_files/3130.got.cif
#   From: 2010.06.25/outbox.cif.g09.slc.cpg/sg190_2_cif.got.tgz:3130.got - 2010.06.28 13:08:06.
