data_PCOD8328807
_publ_section_title
;
Structure prediction by ZEFSAII (Michael W. Deem and Ramdas Pophale) SiO2 
 PCOD8328807
Probable space group: P 6/M M M
;
_chemical_formula_sum "Si O2"
_cell_formula_units_Z 132
_cell_length_a 17.504540
_cell_length_b 17.504540
_cell_length_c 30.040161
_cell_angle_alpha 90.000000
_cell_angle_beta 90.000000
_cell_angle_gamma 120.000000
_cell_volume 7971.394315
_symmetry_space_group_name_H-M "P 6/M M M"
_symmetry_group_IT_number 191
_symmetry_cell_setting 'hexagonal'
loop_
_space_group_symop_operation_xyz
x,y,z
x-y,x,z
-y,x-y,z
-x,-y,z
-x+y,-x,z
y,-x+y,z
x-y,-y,-z
-x,-x+y,-z
y,x,-z
-y,-x,-z
-x+y,y,-z
x,x-y,-z
-x,-y,-z
-x+y,-x,-z
y,-x+y,-z
x,y,-z
x-y,x,-z
-y,x-y,-z
-x+y,y,z
x,x-y,z
-y,-x,z
y,x,z
x-y,-y,z
-x,-x+y,z
loop_
_atom_site_type_symbol
_atom_site_label
_atom_site_fract_x
_atom_site_fract_y
_atom_site_fract_z
Si Si1 0.098665 0.366744 0.629632
Si Si2 0.373607 0.101557 0.200467
Si Si3 0.363480 0.467420 0.287085
Si Si4 0.841856 0.333142 0.550456
Si Si5 0.409464 0.000000 0.049670
Si Si6 0.153998 0.486314 0.886055
O O1 0.162625 0.325249 0.627240
O O2 0.134687 0.440777 0.668048
O O3 0.097904 0.411071 0.582951
O O4 0.000000 0.287811 0.639797
O O5 0.332703 0.166352 0.194218
O O6 0.433190 0.133122 0.244585
O O7 0.438428 0.113010 0.160331
O O8 0.294392 0.000000 0.203330
O O9 0.426200 0.573801 0.285289
O O10 0.424570 0.424570 0.287173
O O11 0.873342 0.333229 0.500000
O O12 0.854234 0.427117 0.563350
O O13 0.739432 0.260569 0.556453
O O14 0.338029 0.912164 0.075110
O O15 0.500000 0.000000 0.047543
O O16 0.374149 0.000000 0.000000
O O17 0.248467 0.496934 0.896083
O O18 0.164217 0.582109 0.884335
#
# Coordination Sequence:
#
# PCOD8328807 Si02
#       6
#    24  24  24  24  12  24
#     4  10  20  33  48  67  91 120 155 195 238 281
#     4  10  19  31  49  72  97 127 162 200 241 285
#     4   9  17  29  47  70  95 122 151 183 222 272
#     4   9  17  29  46  68  94 123 153 185 223 270
#     4   9  18  32  48  66  92 126 159 193 236 282
#     4  10  19  31  48  70  96 126 161 200 240 283
#
# _framework density 16.559211000000001
#
# number of rings (size 3 to 8) (size 9 to 14) (size 15 to 20)
#    0.000    2.455    0.909    2.000    0.000    3.273 
#    0.000    0.909    0.000    6.545    0.000    0.000 
#    0.000    4.364    0.000    4.545    0.000    8.273 
#
# Total GULP energy -1636555.025622 kJ/mol
# GULP energy per Si atom -12398.144134 kJ/mol
# Density = 1.652152 g / cm^3
# Si number density = 16.559211 Si / 1000 Ang^3
#
#
#
# Elastic Constant Matrix: (Units=GPa)
#
#
# Indices 1 2 3 4 5 6 
#
# 1 85.6213 52.4174 37.1605 0.0000 0.0000 0.0000
# 2 52.4174 85.6213 37.1605 0.0000 0.0000 0.0000
# 3 37.1605 37.1605 115.9831 0.0000 0.0000 0.0000
# 4 0.0000 0.0000 0.0000 17.3969 0.0000 0.0000
# 5 0.0000 0.0000 0.0000 0.0000 17.3969 0.0000
# 6 0.0000 0.0000 0.0000 0.0000 0.0000 16.6020
#
#
#
# Elastic Compliance Matrix: (Units=1/GPa)
#
#
# Indices 1 2 3 4 5 6 
#
# 1 0.019436 -0.010681 -0.002805 0.000000 0.000000 0.000000
# 2 -0.010681 0.019436 -0.002805 0.000000 0.000000 0.000000
# 3 -0.002805 -0.002805 0.010419 0.000000 0.000000 0.000000
# 4 0.000000 0.000000 0.000000 0.057482 0.000000 0.000000
# 5 0.000000 0.000000 0.000000 0.000000 0.057482 0.000000
# 6 0.000000 0.000000 0.000000 0.000000 0.000000 0.060234
#
#
# Mechanical properties :
#
#
# Convention : Reuss Voigt Hill
#
# Bulk Modulus (GPa) = 59.84903 60.07807 59.96355
# Shear Modulus (GPa) = 19.03751 20.97830 20.00791
#
# Velocity S-wave (km/s) = 3.39435 3.56317 3.47978
# Velocity P-wave (km/s) = 7.18213 7.29984 7.24123
#
# Compressibility (1/GPa) = 0.01670871
#
# Stress axis : x y z
#
# Youngs Moduli (GPa) = 51.45169 51.45169 95.97560
#
# Poissons Ratio (x) = 0.54956 0.26920
# Poissons Ratio (y) = 0.54956 0.26920
# Poissons Ratio (z) = 0.14432 0.14432
#
# Static dielectric constant tensor:
#      x y z
#    x 2.966180 0.000000 0.000000 
#    y 0.000000 2.966180 0.000000 
#    z 0.000000 0.000000 3.357920 
# 
# 
# High freq. dielectric constant tensor:
#      x y z
#    x 1.617540 0.000000 0.000000 
#    y 0.000000 1.617540 0.000000 
#    z 0.000000 0.000000 1.652500 
# 
# From -- ./inp_files/9772.got.cif
#   From: 2010.03.12/outbox.cif.g09.slc.cpg/sg191_5_cif.got.tgz:9772.got - 2010.04.01 12:09:02.
