data_PCOD8328982
_publ_section_title
;
Structure prediction by ZEFSAII (Michael W. Deem and Ramdas Pophale) SiO2 
 PCOD8328982
Probable space group: P 6/M M M
;
_chemical_formula_sum "Si O2"
_cell_formula_units_Z 132
_cell_length_a 26.733870
_cell_length_b 26.733870
_cell_length_c 11.660538
_cell_angle_alpha 90.000000
_cell_angle_beta 90.000000
_cell_angle_gamma 120.000000
_cell_volume 7217.268859
_symmetry_space_group_name_H-M "P 6/M M M"
_symmetry_group_IT_number 191
_symmetry_cell_setting 'hexagonal'
loop_
_space_group_symop_operation_xyz
x,y,z
x-y,x,z
-y,x-y,z
-x,-y,z
-x+y,-x,z
y,-x+y,z
x-y,-y,-z
-x,-x+y,-z
y,x,-z
-y,-x,-z
-x+y,y,-z
x,x-y,-z
-x,-y,-z
-x+y,-x,-z
y,-x+y,-z
x,y,-z
x-y,x,-z
-y,x-y,-z
-x+y,y,z
x,x-y,z
-y,-x,z
y,x,z
x-y,-y,z
-x,-x+y,z
loop_
_atom_site_type_symbol
_atom_site_label
_atom_site_fract_x
_atom_site_fract_y
_atom_site_fract_z
Si Si1 0.698229 0.906589 0.000000
Si Si2 0.726605 0.067279 0.631999
Si Si3 0.936600 0.177554 0.234528
Si Si4 0.896749 0.550126 0.234635
Si Si5 0.395983 0.331347 0.000000
Si Si6 0.549293 0.333279 0.132477
Si Si7 0.557766 0.557766 0.625373
O O1 0.733885 0.939994 0.111734
O O2 0.684787 0.842394 0.000000
O O3 0.633957 0.896544 0.000000
O O4 0.730367 0.085001 0.500000
O O5 0.789255 0.078996 0.669651
O O6 0.710717 0.107544 0.708869
O O7 0.678026 0.000000 0.652751
O O8 0.890297 0.109704 0.238497
O O9 0.000000 0.186114 0.259384
O O10 0.924278 0.564509 0.109350
O O11 0.833203 0.494292 0.221143
O O12 0.940278 0.539986 0.311304
O O13 0.342952 0.342952 0.000000
O O14 0.550268 0.275134 0.162486
O O15 0.613067 0.386934 0.151868
O O16 0.529535 0.331576 0.000000
O O17 0.500000 0.500000 0.604650
O O18 0.584967 0.584967 0.500000
#
# Coordination Sequence:
#
# PCOD8328982 Si02
#       7
#    12  24  24  24  12  24  12
#     4  10  20  32  51  78 111 151 193 228 272 340
#     4  10  20  35  55  79 114 154 188 221 265 331
#     4  10  20  34  53  78 109 147 191 237 284 339
#     4  12  21  35  57  88 117 149 189 227 281 337
#     4  12  20  32  52  82 121 158 176 218 283 350
#     4  10  22  40  61  84 112 147 188 236 291 347
#     4  11  24  41  59  81 115 160 203 237 274 329
#
# _framework density 18.289466000000001
#
# number of rings (size 3 to 8) (size 9 to 14) (size 15 to 20)
#    0.000    1.364    4.545    2.091    0.000    2.545 
#    0.000    0.455    0.000    1.818    0.000    0.000 
#    0.000    8.000    0.000    4.545    0.000    0.000 
#
# Total GULP energy -1636715.943521 kJ/mol
# GULP energy per Si atom -12399.363208 kJ/mol
# Density = 1.824784 g / cm^3
# Si number density = 18.289466 Si / 1000 Ang^3
#
#
#
# Elastic Constant Matrix: (Units=GPa)
#
#
# Indices 1 2 3 4 5 6 
#
# 1 106.5181 56.3119 43.0376 0.0000 0.0000 0.0000
# 2 56.3119 106.5181 43.0376 0.0000 0.0000 0.0000
# 3 43.0376 43.0376 119.1856 0.0000 0.0000 0.0000
# 4 0.0000 0.0000 0.0000 17.6798 0.0000 0.0000
# 5 0.0000 0.0000 0.0000 0.0000 17.6798 0.0000
# 6 0.0000 0.0000 0.0000 0.0000 0.0000 25.1031
#
#
#
# Elastic Compliance Matrix: (Units=1/GPa)
#
#
# Indices 1 2 3 4 5 6 
#
# 1 0.013754 -0.006164 -0.002741 0.000000 0.000000 0.000000
# 2 -0.006164 0.013754 -0.002741 0.000000 0.000000 0.000000
# 3 -0.002741 -0.002741 0.010370 0.000000 0.000000 0.000000
# 4 0.000000 0.000000 0.000000 0.056562 0.000000 0.000000
# 5 0.000000 0.000000 0.000000 0.000000 0.056562 0.000000
# 6 0.000000 0.000000 0.000000 0.000000 0.000000 0.039836
#
#
# Mechanical properties :
#
#
# Convention : Reuss Voigt Hill
#
# Bulk Modulus (GPa) = 68.55475 68.55510 68.55493
# Shear Modulus (GPa) = 22.83212 24.74822 23.79017
#
# Velocity S-wave (km/s) = 3.53707 3.68250 3.61052
# Velocity P-wave (km/s) = 7.36517 7.45961 7.41254
#
# Compressibility (1/GPa) = 0.01458688
#
# Stress axis : x y z
#
# Youngs Moduli (GPa) = 72.70599 72.70599 96.43514
#
# Poissons Ratio (x) = 0.44815 0.26431
# Poissons Ratio (y) = 0.44815 0.26431
# Poissons Ratio (z) = 0.19927 0.19927
#
# Static dielectric constant tensor:
#      x y z
#    x 3.258640 0.000000 0.000000 
#    y 0.000000 3.258640 0.000000 
#    z 0.000000 0.000000 3.557400 
# 
# 
# High freq. dielectric constant tensor:
#      x y z
#    x 1.699230 0.000000 0.000000 
#    y 0.000000 1.699230 0.000000 
#    z 0.000000 0.000000 1.711530 
# 
# From -- ./inp_files/3390.got.cif
#   From: 2010.03.12/outbox.cif.g09.slc.cpg/sg191_2_cif.got.tgz:3390.got - 2010.04.01 12:09:02.
