data_PCOD8328042
_publ_section_title
;
Structure prediction by ZEFSAII (Michael W. Deem and Ramdas Pophale) SiO2 
 PCOD8328042
Probable space group: P -6 2 C
;
_chemical_formula_sum "Si O2"
_cell_formula_units_Z 72
_cell_length_a 23.787829
_cell_length_b 23.787829
_cell_length_c 9.058293
_cell_angle_alpha 90.000000
_cell_angle_beta 90.000000
_cell_angle_gamma 120.000000
_cell_volume 4439.014992
_symmetry_space_group_name_H-M "P -6 2 C"
_symmetry_group_IT_number 190
_symmetry_cell_setting 'hexagonal'
loop_
_space_group_symop_operation_xyz
x,y,z
-x+y,-x,1/2-z
-y,x-y,z
x,y,1/2-z
-x+y,-x,z
-y,x-y,1/2-z
x-y,-y,-z
-x,-x+y,-z
y,x,-z
y,x,1/2+z
x-y,-y,1/2+z
-x,-x+y,1/2+z
loop_
_atom_site_type_symbol
_atom_site_label
_atom_site_fract_x
_atom_site_fract_y
_atom_site_fract_z
Si Si1 0.067073 0.602233 0.422452
Si Si2 0.809922 0.408958 0.925750
Si Si3 0.261610 0.194663 0.078490
Si Si4 0.867800 0.932528 0.922797
Si Si5 0.743862 0.265569 0.574413
Si Si6 0.144291 0.751930 0.422992
O O1 0.055665 0.591618 0.250000
O O2 0.117832 0.579991 0.477300
O O3 0.094003 0.677250 0.462465
O O4 0.000000 0.556479 0.500000
O O5 0.806962 0.407202 0.750000
O O6 0.790784 0.337945 0.989055
O O7 0.759558 0.430673 0.985383
O O8 0.270403 0.212268 0.250000
O O9 0.205894 0.120891 0.049784
O O10 0.244837 0.244837 0.000000
O O11 0.327564 0.202043 0.013324
O O12 0.884274 0.937359 0.750000
O O13 0.876217 0.876217 0.000000
O O14 0.917413 0.000000 0.000000
O O15 0.741895 0.266083 0.750000
O O16 0.769054 0.216521 0.525689
O O17 0.142643 0.765089 0.250000
#
# Coordination Sequence:
#
# PCOD8328042 Si02
#       6
#    12  12  12  12  12  12
#     4   9  17  27  40  61  87 113 142 175 211 254
#     4   8  13  22  38  61  86 109 137 174 213 253
#     4  10  20  32  47  67  90 117 147 179 216 257
#     4  10  20  33  49  69  92 117 145 177 214 256
#     4   8  13  22  39  63  88 113 141 177 220 260
#     4   9  17  28  43  65  90 115 145 180 219 262
#
# _framework density 16.219814
#
# number of rings (size 3 to 8) (size 9 to 14) (size 15 to 20)
#    0.000    3.000    0.000    4.000    0.000    5.333 
#    0.000    0.000    0.000    2.000    0.000    4.667 
#    0.000    2.667    0.000    0.000    0.000    0.000 
#
# Total GULP energy -892508.610921 kJ/mol
# GULP energy per Si atom -12395.952929 kJ/mol
# Density = 1.618290 g / cm^3
# Si number density = 16.219814 Si / 1000 Ang^3
#
#
#
# Elastic Constant Matrix: (Units=GPa)
#
#
# Indices 1 2 3 4 5 6 
#
# 1 119.0515 66.0741 43.6884 0.0000 0.0000 0.0000
# 2 66.0741 119.0515 43.6884 0.0000 0.0000 0.0000
# 3 43.6884 43.6884 53.2627 0.0000 0.0000 0.0000
# 4 0.0000 0.0000 0.0000 19.6740 0.0000 0.0000
# 5 0.0000 0.0000 0.0000 0.0000 19.6740 0.0000
# 6 0.0000 0.0000 0.0000 0.0000 0.0000 26.4887
#
#
#
# Elastic Compliance Matrix: (Units=1/GPa)
#
#
# Indices 1 2 3 4 5 6 
#
# 1 0.013845 -0.005031 -0.007230 0.000000 0.000000 0.000000
# 2 -0.005031 0.013845 -0.007230 0.000000 0.000000 0.000000
# 3 -0.007230 -0.007230 0.030635 0.000000 0.000000 0.000000
# 4 0.000000 0.000000 0.000000 0.050829 0.000000 0.000000
# 5 0.000000 0.000000 0.000000 0.000000 0.050829 0.000000
# 6 0.000000 0.000000 0.000000 0.000000 0.000000 0.037752
#
#
# Mechanical properties :
#
#
# Convention : Reuss Voigt Hill
#
# Bulk Modulus (GPa) = 51.69434 66.47416 59.08425
# Shear Modulus (GPa) = 20.56235 22.36165 21.46200
#
# Velocity S-wave (km/s) = 3.56438 3.71706 3.64152
# Velocity P-wave (km/s) = 6.99143 7.71326 7.36120
#
# Compressibility (1/GPa) = 0.01934448
#
# Stress axis : x y z
#
# Youngs Moduli (GPa) = 72.22822 72.22822 32.64239
#
# Poissons Ratio (x) = 0.36338 0.23599
# Poissons Ratio (y) = 0.36338 0.23599
# Poissons Ratio (z) = 0.52218 0.52218
#
# Static dielectric constant tensor:
#      x y z
#    x 3.192150 0.000000 0.000000 
#    y 0.000000 3.192150 0.000000 
#    z 0.000000 0.000000 2.776530 
# 
# 
# High freq. dielectric constant tensor:
#      x y z
#    x 1.617320 0.000000 0.000000 
#    y 0.000000 1.617320 0.000000 
#    z 0.000000 0.000000 1.596390 
# 
# From -- ./inp_files/1181.got.cif
#   From: 2010.06.25/outbox.cif.g09.slc.cpg/sg190_1_cif.got.tgz:1181.got - 2010.06.28 13:08:06.
