data_PCOD8328214
_publ_section_title
;
Structure prediction by ZEFSAII (Michael W. Deem and Ramdas Pophale) SiO2 
 PCOD8328214
Probable space group: P -6 2 C
;
_chemical_formula_sum "Si O2"
_cell_formula_units_Z 96
_cell_length_a 16.795457
_cell_length_b 16.795457
_cell_length_c 27.701763
_cell_angle_alpha 90.000000
_cell_angle_beta 90.000000
_cell_angle_gamma 120.000000
_cell_volume 6767.397581
_symmetry_space_group_name_H-M "P -6 2 C"
_symmetry_group_IT_number 190
_symmetry_cell_setting 'hexagonal'
loop_
_space_group_symop_operation_xyz
x,y,z
-x+y,-x,1/2-z
-y,x-y,z
x,y,1/2-z
-x+y,-x,z
-y,x-y,1/2-z
x-y,-y,-z
-x,-x+y,-z
y,x,-z
y,x,1/2+z
x-y,-y,1/2+z
-x,-x+y,1/2+z
loop_
_atom_site_type_symbol
_atom_site_label
_atom_site_fract_x
_atom_site_fract_y
_atom_site_fract_z
Si Si1 0.311422 0.246041 0.455963
Si Si2 0.916982 0.644596 0.303838
Si Si3 0.065381 0.311422 0.955963
Si Si4 0.814051 0.815063 0.865729
Si Si5 0.851697 0.333589 0.388723
Si Si6 0.851697 0.518107 0.111277
Si Si7 0.998988 0.814051 0.134271
Si Si8 0.644596 0.727614 0.696162
O O1 0.301152 0.301152 0.500000
O O2 0.309500 0.154750 0.475379
O O3 0.408352 0.312297 0.430700
O O4 0.228196 0.217076 0.418772
O O5 0.945716 0.631781 0.250000
O O6 0.902496 0.560227 0.337621
O O7 0.994197 0.741395 0.326003
O O8 0.822970 0.645940 0.303527
O O9 0.096055 0.408352 0.930700
O O10 0.011119 0.228196 0.918772
O O11 0.000000 0.301152 0.000000
O O12 0.839304 0.919652 0.856678
O O13 0.741395 0.747198 0.826003
O O14 0.903764 0.807528 0.860152
O O15 0.745804 0.254196 0.385744
O O16 0.857481 0.428741 0.401151
O O17 0.902496 0.342269 0.337621
O O18 0.631781 0.686066 0.750000
#
# Coordination Sequence:
#
# PCOD8328214 Si02
#       8
#    12  12  12  12  12  12  12  12
#     4   9  17  28  41  57  78 104 132 161 194 231
#     4   8  15  27  39  53  76 102 126 154 189 227
#     4   9  17  28  41  57  78 104 132 161 194 231
#     4   9  16  25  38  56  78 105 136 166 192 219
#     4   9  17  28  42  59  77  98 125 158 195 234
#     4   9  17  28  42  59  77  98 125 158 195 234
#     4   9  16  25  38  56  78 105 136 166 192 219
#     4   8  15  27  39  53  76 102 126 154 189 227
#
# _framework density 14.18566
#
# number of rings (size 3 to 8) (size 9 to 14) (size 15 to 20)
#    0.000    3.250    0.000    4.250    0.000    1.500 
#    0.000    0.000    0.000    7.000    0.000    0.000 
#    0.000    0.000    0.000   24.750    0.000   65.000 
#
# Total GULP energy -1189985.092272 kJ/mol
# GULP energy per Si atom -12395.678044 kJ/mol
# Density = 1.415337 g / cm^3
# Si number density = 14.185660 Si / 1000 Ang^3
#
#
#
# Elastic Constant Matrix: (Units=GPa)
#
#
# Indices 1 2 3 4 5 6 
#
# 1 78.9416 33.4494 38.6747 0.0000 0.0000 0.0000
# 2 33.4494 78.9416 38.6747 0.0000 0.0000 0.0000
# 3 38.6747 38.6747 97.8411 0.0000 0.0000 0.0000
# 4 0.0000 0.0000 0.0000 13.1627 0.0000 0.0000
# 5 0.0000 0.0000 0.0000 0.0000 13.1627 0.0000
# 6 0.0000 0.0000 0.0000 0.0000 0.0000 22.7461
#
#
#
# Elastic Compliance Matrix: (Units=1/GPa)
#
#
# Indices 1 2 3 4 5 6 
#
# 1 0.017102 -0.004880 -0.004831 0.000000 0.000000 0.000000
# 2 -0.004880 0.017102 -0.004831 0.000000 0.000000 0.000000
# 3 -0.004831 -0.004831 0.014040 0.000000 0.000000 0.000000
# 4 0.000000 0.000000 0.000000 0.075972 0.000000 0.000000
# 5 0.000000 0.000000 0.000000 0.000000 0.075972 0.000000
# 6 0.000000 0.000000 0.000000 0.000000 0.000000 0.043964
#
#
# Mechanical properties :
#
#
# Convention : Reuss Voigt Hill
#
# Bulk Modulus (GPa) = 52.19253 53.03579 52.61416
# Shear Modulus (GPa) = 17.88120 19.47600 18.67860
#
# Velocity S-wave (km/s) = 3.55422 3.70933 3.63261
# Velocity P-wave (km/s) = 7.32910 7.47085 7.40031
#
# Compressibility (1/GPa) = 0.01915983
#
# Stress axis : x y z
#
# Youngs Moduli (GPa) = 58.47211 58.47211 71.22443
#
# Poissons Ratio (x) = 0.28532 0.34411
# Poissons Ratio (y) = 0.28532 0.34411
# Poissons Ratio (z) = 0.28250 0.28250
#
# Static dielectric constant tensor:
#      x y z
#    x 2.564730 0.000000 0.000000 
#    y 0.000000 2.564730 0.000000 
#    z 0.000000 0.000000 2.915550 
# 
# 
# High freq. dielectric constant tensor:
#      x y z
#    x 1.523510 0.000000 0.000000 
#    y 0.000000 1.523510 0.000000 
#    z 0.000000 0.000000 1.545010 
# 
# From -- ./inp_files/4990.got.cif
#   From: 2010.06.25/outbox.cif.g09.slc.cpg/sg190_3_cif.got.tgz:4990.got - 2010.06.28 13:08:06.
