data_PCOD8328086
_publ_section_title
;
Structure prediction by ZEFSAII (Michael W. Deem and Ramdas Pophale) SiO2 
 PCOD8328086
Probable space group: P -6 2 C
;
_chemical_formula_sum "Si O2"
_cell_formula_units_Z 90
_cell_length_a 17.324366
_cell_length_b 17.324366
_cell_length_c 18.369797
_cell_angle_alpha 90.000000
_cell_angle_beta 90.000000
_cell_angle_gamma 120.000000
_cell_volume 4774.739575
_symmetry_space_group_name_H-M "P -6 2 C"
_symmetry_group_IT_number 190
_symmetry_cell_setting 'hexagonal'
loop_
_space_group_symop_operation_xyz
x,y,z
-x+y,-x,1/2-z
-y,x-y,z
x,y,1/2-z
-x+y,-x,z
-y,x-y,1/2-z
x-y,-y,-z
-x,-x+y,-z
y,x,-z
y,x,1/2+z
x-y,-y,1/2+z
-x,-x+y,1/2+z
loop_
_atom_site_type_symbol
_atom_site_label
_atom_site_fract_x
_atom_site_fract_y
_atom_site_fract_z
Si Si1 0.554407 0.782544 0.898366
Si Si2 0.350286 0.336593 0.420079
Si Si3 0.733783 0.286222 0.250000
Si Si4 0.904208 0.147414 0.671048
Si Si5 0.553708 0.284346 0.546450
Si Si6 0.426402 0.276576 0.668711
Si Si7 0.050382 0.267605 0.923168
Si Si8 0.828808 0.986615 0.921888
O O1 0.592257 0.887509 0.888038
O O2 0.506527 0.735531 0.823064
O O3 0.629523 0.756203 0.917678
O O4 0.489986 0.752850 0.967163
O O5 0.382216 0.382216 0.500000
O O6 0.355113 0.411462 0.364483
O O7 0.248690 0.259998 0.428507
O O8 0.625117 0.232514 0.250000
O O9 0.941812 0.147416 0.750000
O O10 0.810329 0.141958 0.675446
O O11 0.971957 0.241948 0.634239
O O12 0.900017 0.061228 0.632098
O O13 0.609022 0.231821 0.552480
O O14 0.485799 0.255803 0.613568
O O15 0.469599 0.304117 0.750000
O O16 0.093470 0.207850 0.898326
O O17 0.000000 0.241347 0.000000
O O18 0.875455 0.000000 0.000000
#
# Coordination Sequence:
#
# PCOD8328086 Si02
#       8
#    12  12   6  12  12  12  12  12
#     4  11  21  38  66  90 120 157 213 255 304 379
#     4   9  17  32  60  88 109 144 196 247 292 341
#     4  10  24  44  68  86 118 166 206 256 324 386
#     4  10  21  36  55  81 122 162 203 253 305 354
#     4  10  22  38  64  85 110 152 200 244 299 385
#     4  10  20  37  61  87 122 158 200 249 307 361
#     4  11  21  34  61  88 120 164 213 254 310 366
#     4   9  17  33  52  78 109 151 199 241 281 350
#
# _framework density 18.849195000000002
#
# number of rings (size 3 to 8) (size 9 to 14) (size 15 to 20)
#    0.400    1.600    2.667    1.600    1.867    1.067 
#    3.200    0.667   14.667    0.000    0.000    0.000 
#    0.000    0.000    0.000    0.000    0.000    0.000 
#
# Total GULP energy -1115056.607342 kJ/mol
# GULP energy per Si atom -12389.517859 kJ/mol
# Density = 1.880629 g / cm^3
# Si number density = 18.849195 Si / 1000 Ang^3
#
#
#
# Elastic Constant Matrix: (Units=GPa)
#
#
# Indices 1 2 3 4 5 6 
#
# 1 71.8479 17.5072 44.0991 0.0000 0.0000 0.0000
# 2 17.5072 71.8479 44.0991 0.0000 0.0000 0.0000
# 3 44.0991 44.0991 178.9343 0.0000 0.0000 0.0000
# 4 0.0000 0.0000 0.0000 19.1143 0.0000 0.0000
# 5 0.0000 0.0000 0.0000 0.0000 19.1143 0.0000
# 6 0.0000 0.0000 0.0000 0.0000 0.0000 27.1704
#
#
#
# Elastic Compliance Matrix: (Units=1/GPa)
#
#
# Indices 1 2 3 4 5 6 
#
# 1 0.016596 -0.001807 -0.003645 0.000000 0.000000 0.000000
# 2 -0.001807 0.016596 -0.003645 0.000000 0.000000 0.000000
# 3 -0.003645 -0.003645 0.007385 0.000000 0.000000 0.000000
# 4 0.000000 0.000000 0.000000 0.052317 0.000000 0.000000
# 5 0.000000 0.000000 0.000000 0.000000 0.052317 0.000000
# 6 0.000000 0.000000 0.000000 0.000000 0.000000 0.036805
#
#
# Mechanical properties :
#
#
# Convention : Reuss Voigt Hill
#
# Bulk Modulus (GPa) = 44.67507 59.33787 52.00647
# Shear Modulus (GPa) = 24.07677 27.54143 25.80910
#
# Velocity S-wave (km/s) = 3.57786 3.82664 3.70434
# Velocity P-wave (km/s) = 6.38912 7.14653 6.77841
#
# Compressibility (1/GPa) = 0.02238385
#
# Stress axis : x y z
#
# Youngs Moduli (GPa) = 60.25677 60.25677 135.40612
#
# Poissons Ratio (x) = 0.10887 0.49353
# Poissons Ratio (y) = 0.10887 0.49353
# Poissons Ratio (z) = 0.21962 0.21962
#
# Static dielectric constant tensor:
#      x y z
#    x 3.326310 0.000000 0.000000 
#    y 0.000000 3.326310 0.000000 
#    z 0.000000 0.000000 3.780800 
# 
# 
# High freq. dielectric constant tensor:
#      x y z
#    x 1.713090 0.000000 0.000000 
#    y 0.000000 1.713090 0.000000 
#    z 0.000000 0.000000 1.745830 
# 
# From -- ./inp_files/3958.got.cif
#   From: 2010.06.25/outbox.cif.g09.slc.cpg/sg190_2_cif.got.tgz:3958.got - 2010.06.28 13:08:06.
