data_PCOD8328473
_publ_section_title
;
Structure prediction by ZEFSAII (Michael W. Deem and Ramdas Pophale) SiO2 
 PCOD8328473
Probable space group: P 6/M M M
;
_chemical_formula_sum "Si O2"
_cell_formula_units_Z 144
_cell_length_a 22.979556
_cell_length_b 22.979556
_cell_length_c 19.890638
_cell_angle_alpha 90.000000
_cell_angle_beta 90.000000
_cell_angle_gamma 120.000000
_cell_volume 9096.254685
_symmetry_space_group_name_H-M "P 6/M M M"
_symmetry_group_IT_number 191
_symmetry_cell_setting 'hexagonal'
loop_
_space_group_symop_operation_xyz
x,y,z
x-y,x,z
-y,x-y,z
-x,-y,z
-x+y,-x,z
y,-x+y,z
x-y,-y,-z
-x,-x+y,-z
y,x,-z
-y,-x,-z
-x+y,y,-z
x,x-y,-z
-x,-y,-z
-x+y,-x,-z
y,-x+y,-z
x,y,-z
x-y,x,-z
-y,x-y,-z
-x+y,y,z
x,x-y,z
-y,-x,z
y,x,z
x-y,-y,z
-x,-x+y,z
loop_
_atom_site_type_symbol
_atom_site_label
_atom_site_fract_x
_atom_site_fract_y
_atom_site_fract_z
Si Si1 0.741945 0.075804 0.572572
Si Si2 0.836849 0.163152 0.074275
Si Si3 0.923688 0.847375 0.291098
Si Si4 0.603660 0.524439 0.802329
Si Si5 0.080288 0.709810 0.714336
Si Si6 0.852836 0.147165 0.219601
Si Si7 0.602134 0.923391 0.074852
Si Si8 0.110005 0.220009 0.425431
O O1 0.745944 0.111880 0.500000
O O2 0.728129 0.109323 0.637671
O O3 0.810588 0.075725 0.585710
O O4 0.681884 0.000000 0.567201
O O5 0.861314 0.138687 0.139267
O O6 0.871396 0.242815 0.080516
O O7 0.855097 0.144904 0.000000
O O8 0.887791 0.887791 0.266469
O O9 0.887254 0.774507 0.259021
O O10 0.920056 0.840112 0.371985
O O11 0.556197 0.443804 0.793199
O O12 0.557690 0.557690 0.799077
O O13 0.658597 0.555578 0.742786
O O14 0.640490 0.540049 0.874305
O O15 0.111661 0.774664 0.761662
O O16 0.000000 0.678298 0.715107
O O17 0.661396 0.000000 0.092117
O O18 0.574460 0.921265 0.000000
O O19 0.093977 0.187953 0.500000
#
# Coordination Sequence:
#
# PCOD8328473 Si02
#       8
#    24  12  12  24  24  12  24  12
#     4   9  16  26  41  62  88 118 152 191 235 283
#     4  10  20  32  49  73 100 127 156 198 250 298
#     4  12  25  38  50  66  92 128 172 222 276 326
#     4   9  17  28  43  64  92 123 149 177 218 271
#     4  10  18  29  45  68  95 120 155 197 237 280
#     4  12  20  31  52  72  91 123 162 204 250 300
#     4   9  17  29  45  67  97 128 157 192 235 287
#     4  10  18  29  47  69  92 122 164 208 256 316
#
# _framework density 15.830691
#
# number of rings (size 3 to 8) (size 9 to 14) (size 15 to 20)
#    0.000    2.167    3.333    1.083    0.000    2.000 
#    0.000    1.667    0.000    1.000    0.000    3.500 
#    6.667    0.667    1.000    0.000    0.000    0.000 
#
# Total GULP energy -1784169.889686 kJ/mol
# GULP energy per Si atom -12390.068678 kJ/mol
# Density = 1.579466 g / cm^3
# Si number density = 15.830691 Si / 1000 Ang^3
#
#
#
# Elastic Constant Matrix: (Units=GPa)
#
#
# Indices 1 2 3 4 5 6 
#
# 1 59.4069 29.4036 27.2893 0.0000 0.0000 0.0000
# 2 29.4036 59.4069 27.2893 0.0000 0.0000 0.0000
# 3 27.2893 27.2893 124.5537 0.0000 0.0000 0.0000
# 4 0.0000 0.0000 0.0000 16.0987 0.0000 0.0000
# 5 0.0000 0.0000 0.0000 0.0000 16.0987 0.0000
# 6 0.0000 0.0000 0.0000 0.0000 0.0000 15.0016
#
#
#
# Elastic Compliance Matrix: (Units=1/GPa)
#
#
# Indices 1 2 3 4 5 6 
#
# 1 0.023171 -0.010159 -0.002851 0.000000 0.000000 0.000000
# 2 -0.010159 0.023171 -0.002851 0.000000 0.000000 0.000000
# 3 -0.002851 -0.002851 0.009278 0.000000 0.000000 0.000000
# 4 0.000000 0.000000 0.000000 0.062117 0.000000 0.000000
# 5 0.000000 0.000000 0.000000 0.000000 0.062117 0.000000
# 6 0.000000 0.000000 0.000000 0.000000 0.000000 0.066659
#
#
# Mechanical properties :
#
#
# Convention : Reuss Voigt Hill
#
# Bulk Modulus (GPa) = 41.84402 45.70355 43.77379
# Shear Modulus (GPa) = 17.47029 20.06548 18.76789
#
# Velocity S-wave (km/s) = 3.32561 3.56407 3.44690
# Velocity P-wave (km/s) = 6.42151 6.77271 6.59945
#
# Compressibility (1/GPa) = 0.02389828
#
# Stress axis : x y z
#
# Youngs Moduli (GPa) = 43.15771 43.15771 107.78302
#
# Poissons Ratio (x) = 0.43843 0.30728
# Poissons Ratio (y) = 0.43843 0.30728
# Poissons Ratio (z) = 0.12304 0.12304
#
# Static dielectric constant tensor:
#      x y z
#    x 2.900710 0.000000 0.000000 
#    y 0.000000 2.900710 0.000000 
#    z 0.000000 0.000000 3.540620 
# 
# 
# High freq. dielectric constant tensor:
#      x y z
#    x 1.570910 0.000000 0.000000 
#    y 0.000000 1.570910 0.000000 
#    z 0.000000 0.000000 1.630950 
# 
# From -- ./inp_files/7704.got.cif
#   From: 2010.03.12/outbox.cif.g09.slc.cpg/sg191_4_cif.got.tgz:7704.got - 2010.04.01 12:09:02.
