data_PCOD8328152
_publ_section_title
;
Structure prediction by ZEFSAII (Michael W. Deem and Ramdas Pophale) SiO2 
 PCOD8328152
Probable space group: P -6 2 C
;
_chemical_formula_sum "Si O2"
_cell_formula_units_Z 76
_cell_length_a 17.436769
_cell_length_b 17.436769
_cell_length_c 13.566741
_cell_angle_alpha 90.000000
_cell_angle_beta 90.000000
_cell_angle_gamma 120.000000
_cell_volume 3572.219970
_symmetry_space_group_name_H-M "P -6 2 C"
_symmetry_group_IT_number 190
_symmetry_cell_setting 'hexagonal'
loop_
_space_group_symop_operation_xyz
x,y,z
-x+y,-x,1/2-z
-y,x-y,z
x,y,1/2-z
-x+y,-x,z
-y,x-y,1/2-z
x-y,-y,-z
-x,-x+y,-z
y,x,-z
y,x,1/2+z
x-y,-y,1/2+z
-x,-x+y,1/2+z
loop_
_atom_site_type_symbol
_atom_site_label
_atom_site_fract_x
_atom_site_fract_y
_atom_site_fract_z
Si Si1 0.171675 0.423399 0.865614
Si Si2 0.483273 0.655891 0.044863
Si Si3 0.095448 0.757047 0.013463
Si Si4 0.807724 0.875037 0.411263
Si Si5 0.034567 0.341658 0.143982
Si Si6 0.000000 0.000000 0.115993
Si Si7 0.321864 0.507248 0.135825
O O1 0.198107 0.445515 0.750000
O O2 0.220193 0.373560 0.913048
O O3 0.067842 0.362342 0.881765
O O4 0.198797 0.513004 0.929885
O O5 0.582905 0.675922 0.065747
O O6 0.409958 0.554453 0.066785
O O7 0.452391 0.710237 0.115679
O O8 0.074882 0.833947 0.045334
O O9 0.142062 0.736478 0.103412
O O10 0.000000 0.669795 0.000000
O O11 0.834318 0.834318 0.500000
O O12 0.735564 0.794614 0.346566
O O13 0.896946 0.942545 0.349039
O O14 0.053406 0.389340 0.250000
O O15 0.000000 0.000000 0.000000
O O16 0.348373 0.514619 0.250000
#
# Coordination Sequence:
#
# PCOD8328152 Si02
#       7
#    12  12  12  12  12   4  12
#     4  10  22  40  64  91 120 168 217 261 314 383
#     4  11  22  41  63  91 124 157 205 267 331 391
#     4  11  23  37  60  91 129 170 209 262 322 381
#     4  11  18  36  57  86 126 174 227 264 318 373
#     4  11  20  35  63  90 119 161 215 269 319 385
#     4   9  21  30  58  86 124 183 225 268 316 365
#     4  11  23  39  63  92 121 155 201 259 328 392
#
# _framework density 21.275285
#
# number of rings (size 3 to 8) (size 9 to 14) (size 15 to 20)
#    0.000    1.263    4.737    3.632    0.000    1.895 
#    0.000    3.947    0.000    0.000    0.000    0.000 
#    0.000    0.000    0.000    0.000    0.000    0.000 
#
# Total GULP energy -941758.823673 kJ/mol
# GULP energy per Si atom -12391.563469 kJ/mol
# Density = 2.122686 g / cm^3
# Si number density = 21.275285 Si / 1000 Ang^3
#
#
#
# Elastic Constant Matrix: (Units=GPa)
#
#
# Indices 1 2 3 4 5 6 
#
# 1 85.6135 42.4204 40.7557 0.0000 0.0000 0.0000
# 2 42.4204 85.6135 40.7557 0.0000 0.0000 0.0000
# 3 40.7557 40.7557 144.7726 0.0000 0.0000 0.0000
# 4 0.0000 0.0000 0.0000 7.2740 0.0000 0.0000
# 5 0.0000 0.0000 0.0000 0.0000 7.2740 0.0000
# 6 0.0000 0.0000 0.0000 0.0000 0.0000 21.5966
#
#
#
# Elastic Compliance Matrix: (Units=1/GPa)
#
#
# Indices 1 2 3 4 5 6 
#
# 1 0.016334 -0.006818 -0.002679 0.000000 0.000000 0.000000
# 2 -0.006818 0.016334 -0.002679 0.000000 0.000000 0.000000
# 3 -0.002679 -0.002679 0.008416 0.000000 0.000000 0.000000
# 4 0.000000 0.000000 0.000000 0.137477 0.000000 0.000000
# 5 0.000000 0.000000 0.000000 0.000000 0.137477 0.000000
# 6 0.000000 0.000000 0.000000 0.000000 0.000000 0.046304
#
#
# Mechanical properties :
#
#
# Convention : Reuss Voigt Hill
#
# Bulk Modulus (GPa) = 59.76573 62.65145 61.20859
# Shear Modulus (GPa) = 12.74636 20.03344 16.38990
#
# Velocity S-wave (km/s) = 2.45034 3.07193 2.77857
# Velocity P-wave (km/s) = 6.01317 6.48801 6.25509
#
# Compressibility (1/GPa) = 0.01673200
#
# Stress axis : x y z
#
# Youngs Moduli (GPa) = 61.22254 61.22254 118.82603
#
# Poissons Ratio (x) = 0.41741 0.31832
# Poissons Ratio (y) = 0.41741 0.31832
# Poissons Ratio (z) = 0.16401 0.16401
#
# Static dielectric constant tensor:
#      x y z
#    x 3.985170 0.000000 0.000000 
#    y 0.000000 3.985170 0.000000 
#    z 0.000000 0.000000 3.717290 
# 
# 
# High freq. dielectric constant tensor:
#      x y z
#    x 1.828800 0.000000 0.000000 
#    y 0.000000 1.828800 0.000000 
#    z 0.000000 0.000000 1.827420 
# 
# From -- ./inp_files/3111.got.cif
#   From: 2010.06.25/outbox.cif.g09.slc.cpg/sg190_2_cif.got.tgz:3111.got - 2010.06.28 13:08:06.
