data_PCOD8328582
_publ_section_title
;
Structure prediction by ZEFSAII (Michael W. Deem and Ramdas Pophale) SiO2 
 PCOD8328582
Probable space group: P 6/M M M
;
_chemical_formula_sum "Si O2"
_cell_formula_units_Z 168
_cell_length_a 21.528498
_cell_length_b 21.528498
_cell_length_c 28.828941
_cell_angle_alpha 90.000000
_cell_angle_beta 90.000000
_cell_angle_gamma 120.000000
_cell_volume 11571.423355
_symmetry_space_group_name_H-M "P 6/M M M"
_symmetry_group_IT_number 191
_symmetry_cell_setting 'hexagonal'
loop_
_space_group_symop_operation_xyz
x,y,z
x-y,x,z
-y,x-y,z
-x,-y,z
-x+y,-x,z
y,-x+y,z
x-y,-y,-z
-x,-x+y,-z
y,x,-z
-y,-x,-z
-x+y,y,-z
x,x-y,-z
-x,-y,-z
-x+y,-x,-z
y,-x+y,-z
x,y,-z
x-y,x,-z
-y,x-y,-z
-x+y,y,z
x,x-y,z
-y,-x,z
y,x,z
x-y,-y,z
-x,-x+y,z
loop_
_atom_site_type_symbol
_atom_site_label
_atom_site_fract_x
_atom_site_fract_y
_atom_site_fract_z
Si Si1 0.433365 0.146720 0.198530
Si Si2 0.731190 0.122101 0.948670
Si Si3 0.612356 0.530355 0.716307
Si Si4 0.295639 0.078257 0.135448
Si Si5 0.814410 0.333907 0.631285
Si Si6 0.522354 0.188573 0.890079
Si Si7 0.466275 0.079938 0.552086
O O1 0.443298 0.221649 0.217753
O O2 0.435353 0.099318 0.240105
O O3 0.357557 0.102703 0.173280
O O4 0.496438 0.162964 0.162319
O O5 0.800647 0.199354 0.951313
O O6 0.748044 0.072912 0.915159
O O7 0.668431 0.132615 0.926371
O O8 0.708648 0.087312 0.000000
O O9 0.546130 0.453871 0.731052
O O10 0.583482 0.583482 0.700189
O O11 0.656544 0.520356 0.675277
O O12 0.264652 0.132326 0.134808
O O13 0.230717 0.000000 0.148528
O O14 0.797428 0.398714 0.627609
O O15 0.740082 0.259919 0.635038
O O16 0.858888 0.331056 0.586818
O O17 0.594704 0.189408 0.900350
O O18 0.535198 0.267599 0.897818
O O19 0.455090 0.100239 0.500000
O O20 0.538840 0.077680 0.555509
O O21 0.401140 0.000000 0.565121
#
# Coordination Sequence:
#
# PCOD8328582 Si02
#       7
#    24  24  24  24  24  24  24
#     4   9  17  29  43  59  79 102 129 161 197 233
#     4   8  15  27  40  55  76 101 128 157 187 216
#     4  10  19  29  42  58  76 101 134 170 204 239
#     4   9  17  29  46  65  82 100 122 149 181 221
#     4  10  19  29  40  56  79 105 132 163 202 245
#     4   9  16  25  38  56  78 104 133 164 197 233
#     4   8  14  26  43  59  75  98 129 163 196 231
#
# _framework density 14.518525
#
# number of rings (size 3 to 8) (size 9 to 14) (size 15 to 20)
#    0.000    3.000    0.000    4.143    0.000    2.571 
#    0.000    0.000    0.000   10.286    0.000    4.000 
#    0.000    0.000    0.000    3.571    0.000    0.000 
#
# Total GULP energy -2082190.912748 kJ/mol
# GULP energy per Si atom -12393.993528 kJ/mol
# Density = 1.448548 g / cm^3
# Si number density = 14.518525 Si / 1000 Ang^3
#
#
#
# Elastic Constant Matrix: (Units=GPa)
#
#
# Indices 1 2 3 4 5 6 
#
# 1 66.4629 37.4204 36.0951 0.0000 0.0000 0.0000
# 2 37.4204 66.4629 36.0951 0.0000 0.0000 0.0000
# 3 36.0951 36.0951 85.9592 0.0000 0.0000 0.0000
# 4 0.0000 0.0000 0.0000 15.0979 0.0000 0.0000
# 5 0.0000 0.0000 0.0000 0.0000 15.0979 0.0000
# 6 0.0000 0.0000 0.0000 0.0000 0.0000 14.5213
#
#
#
# Elastic Compliance Matrix: (Units=1/GPa)
#
#
# Indices 1 2 3 4 5 6 
#
# 1 0.024012 -0.010420 -0.005708 0.000000 0.000000 0.000000
# 2 -0.010420 0.024012 -0.005708 0.000000 0.000000 0.000000
# 3 -0.005708 -0.005708 0.016427 0.000000 0.000000 0.000000
# 4 0.000000 0.000000 0.000000 0.066234 0.000000 0.000000
# 5 0.000000 0.000000 0.000000 0.000000 0.066234 0.000000
# 6 0.000000 0.000000 0.000000 0.000000 0.000000 0.068865
#
#
# Mechanical properties :
#
#
# Convention : Reuss Voigt Hill
#
# Bulk Modulus (GPa) = 48.12016 48.67847 48.39932
# Shear Modulus (GPa) = 15.80366 16.22836 16.01601
#
# Velocity S-wave (km/s) = 3.30285 3.34693 3.32496
# Velocity P-wave (km/s) = 6.91093 6.96687 6.93896
#
# Compressibility (1/GPa) = 0.02078131
#
# Stress axis : x y z
#
# Youngs Moduli (GPa) = 41.64515 41.64515 60.87614
#
# Poissons Ratio (x) = 0.43394 0.34746
# Poissons Ratio (y) = 0.43394 0.34746
# Poissons Ratio (z) = 0.23769 0.23769
#
# Static dielectric constant tensor:
#      x y z
#    x 2.659480 0.000000 0.000000 
#    y 0.000000 2.659480 0.000000 
#    z 0.000000 0.000000 3.006440 
# 
# 
# High freq. dielectric constant tensor:
#      x y z
#    x 1.533570 0.000000 0.000000 
#    y 0.000000 1.533570 0.000000 
#    z 0.000000 0.000000 1.558770 
# 
# From -- ./inp_files/10046.got.cif
#   From: 2010.03.12/outbox.cif.g09.slc.cpg/sg191_6_cif.got.tgz:10046.got - 2010.04.01 12:09:02.
