data_PCOD8328781
_publ_section_title
;
Structure prediction by ZEFSAII (Michael W. Deem and Ramdas Pophale) SiO2 
 PCOD8328781
Probable space group: P 6/M M M
;
_chemical_formula_sum "Si O2"
_cell_formula_units_Z 108
_cell_length_a 17.504485
_cell_length_b 17.504485
_cell_length_c 26.971529
_cell_angle_alpha 90.000000
_cell_angle_beta 90.000000
_cell_angle_gamma 120.000000
_cell_volume 7157.063567
_symmetry_space_group_name_H-M "P 6/M M M"
_symmetry_group_IT_number 191
_symmetry_cell_setting 'hexagonal'
loop_
_space_group_symop_operation_xyz
x,y,z
x-y,x,z
-y,x-y,z
-x,-y,z
-x+y,-x,z
y,-x+y,z
x-y,-y,-z
-x,-x+y,-z
y,x,-z
-y,-x,-z
-x+y,y,-z
x,x-y,-z
-x,-y,-z
-x+y,-x,-z
y,-x+y,-z
x,y,-z
x-y,x,-z
-y,x-y,-z
-x+y,y,z
x,x-y,z
-y,-x,z
y,x,z
x-y,-y,z
-x,-x+y,z
loop_
_atom_site_type_symbol
_atom_site_label
_atom_site_fract_x
_atom_site_fract_y
_atom_site_fract_z
Si Si1 0.153986 0.667733 0.193645
Si Si2 0.103725 0.636618 0.000000
Si Si3 0.591131 0.591131 0.623704
Si Si4 0.374233 0.101680 0.903194
Si Si5 0.000000 0.590451 0.265249
Si Si6 0.843354 0.510573 0.556258
O O1 0.163690 0.581845 0.191375
O O2 0.248685 0.751315 0.204815
O O3 0.112855 0.675280 0.142218
O O4 0.087928 0.661903 0.237015
O O5 0.133227 0.697570 0.048386
O O6 0.147545 0.573773 0.000000
O O7 0.000000 0.574826 0.000000
O O8 0.500000 0.500000 0.623727
O O9 0.624958 0.624958 0.679296
O O10 0.579252 0.664058 0.594242
O O11 0.333268 0.166634 0.897068
O O12 0.295033 0.000000 0.906877
O O13 0.000000 0.500000 0.267778
O O14 0.874943 0.541909 0.500000
O O15 0.753960 0.507920 0.569116
O O16 0.826506 0.413253 0.564796
#
# Coordination Sequence:
#
# PCOD8328781 Si02
#       6
#    24  12  12  24  12  24
#     4  10  19  31  47  65  86 113 147 185 225 267
#     4   9  17  28  45  68  92 118 148 181 223 274
#     4   9  17  28  41  58  81 112 146 179 217 258
#     4  10  19  31  48  69  92 120 152 188 230 278
#     4   9  18  31  44  58  82 113 143 180 222 260
#     4   9  16  26  41  61  85 113 145 180 216 255
#
# _framework density 15.089988
#
# number of rings (size 3 to 8) (size 9 to 14) (size 15 to 20)
#    0.000    2.556    1.111    1.778    0.000    4.000 
#    0.000    0.000    0.000    6.000    0.000    0.000 
#    0.000    2.667    0.000    0.333    0.000    7.667 
#
# Total GULP energy -1338925.104326 kJ/mol
# GULP energy per Si atom -12397.454670 kJ/mol
# Density = 1.505564 g / cm^3
# Si number density = 15.089988 Si / 1000 Ang^3
#
#
#
# Elastic Constant Matrix: (Units=GPa)
#
#
# Indices 1 2 3 4 5 6 
#
# 1 80.5591 45.9209 47.7582 0.0000 0.0000 0.0000
# 2 45.9209 80.5591 47.7582 0.0000 0.0000 0.0000
# 3 47.7582 47.7582 133.2677 0.0000 0.0000 0.0000
# 4 0.0000 0.0000 0.0000 14.5632 0.0000 0.0000
# 5 0.0000 0.0000 0.0000 0.0000 14.5632 0.0000
# 6 0.0000 0.0000 0.0000 0.0000 0.0000 17.3191
#
#
#
# Elastic Compliance Matrix: (Units=1/GPa)
#
#
# Indices 1 2 3 4 5 6 
#
# 1 0.019855 -0.009015 -0.003885 0.000000 0.000000 0.000000
# 2 -0.009015 0.019855 -0.003885 0.000000 0.000000 0.000000
# 3 -0.003885 -0.003885 0.010288 0.000000 0.000000 0.000000
# 4 0.000000 0.000000 0.000000 0.068666 0.000000 0.000000
# 5 0.000000 0.000000 0.000000 0.000000 0.068666 0.000000
# 6 0.000000 0.000000 0.000000 0.000000 0.000000 0.057740
#
#
# Mechanical properties :
#
#
# Convention : Reuss Voigt Hill
#
# Bulk Modulus (GPa) = 60.86667 64.14008 62.50337
# Shear Modulus (GPa) = 17.59851 19.48567 18.54209
#
# Velocity S-wave (km/s) = 3.41873 3.59736 3.50918
# Velocity P-wave (km/s) = 7.48378 7.73641 7.61114
#
# Compressibility (1/GPa) = 0.01642935
#
# Stress axis : x y z
#
# Youngs Moduli (GPa) = 50.36516 50.36516 97.20116
#
# Poissons Ratio (x) = 0.45404 0.37760
# Poissons Ratio (y) = 0.45404 0.37760
# Poissons Ratio (z) = 0.19565 0.19565
#
# Static dielectric constant tensor:
#      x y z
#    x 2.789870 0.000000 0.000000 
#    y 0.000000 2.789870 0.000000 
#    z 0.000000 0.000000 3.156920 
# 
# 
# High freq. dielectric constant tensor:
#      x y z
#    x 1.557210 0.000000 0.000000 
#    y 0.000000 1.557210 0.000000 
#    z 0.000000 0.000000 1.590500 
# 
# From -- ./inp_files/8451.got.cif
#   From: 2010.03.12/outbox.cif.g09.slc.cpg/sg191_5_cif.got.tgz:8451.got - 2010.04.01 12:09:02.
