data_PCOD8328943
_publ_section_title
;
Structure prediction by ZEFSAII (Michael W. Deem and Ramdas Pophale) SiO2 
 PCOD8328943
Probable space group: P 6/M M M
;
_chemical_formula_sum "Si O2"
_cell_formula_units_Z 132
_cell_length_a 17.519695
_cell_length_b 17.519695
_cell_length_c 28.867365
_cell_angle_alpha 90.000000
_cell_angle_beta 90.000000
_cell_angle_gamma 120.000000
_cell_volume 7673.453359
_symmetry_space_group_name_H-M "P 6/M M M"
_symmetry_group_IT_number 191
_symmetry_cell_setting 'hexagonal'
loop_
_space_group_symop_operation_xyz
x,y,z
x-y,x,z
-y,x-y,z
-x,-y,z
-x+y,-x,z
y,-x+y,z
x-y,-y,-z
-x,-x+y,-z
y,x,-z
-y,-x,-z
-x+y,y,-z
x,x-y,-z
-x,-y,-z
-x+y,-x,-z
y,-x+y,-z
x,y,-z
x-y,x,-z
-y,x-y,-z
-x+y,y,z
x,x-y,z
-y,-x,z
y,x,z
x-y,-y,z
-x,-x+y,z
loop_
_atom_site_type_symbol
_atom_site_label
_atom_site_fract_x
_atom_site_fract_y
_atom_site_fract_z
Si Si1 0.269162 0.369210 0.764432
Si Si2 0.532582 0.894965 0.852139
Si Si3 0.639944 0.098550 0.048972
Si Si4 0.488945 0.331615 0.500000
Si Si5 0.511480 0.843346 0.678365
Si Si6 0.628881 0.727713 0.411204
O O1 0.165044 0.330087 0.754478
O O2 0.288728 0.288728 0.768643
O O3 0.291853 0.426064 0.811351
O O4 0.327798 0.433322 0.723459
O O5 0.428849 0.857697 0.841864
O O6 0.545589 0.857391 0.902073
O O7 0.581177 0.000000 0.855097
O O8 0.547333 0.094665 0.051357
O O9 0.624056 0.000000 0.046806
O O10 0.688937 0.146503 0.000000
O O11 0.571737 0.428264 0.500000
O O12 0.522437 0.261218 0.500000
O O13 0.431382 0.320331 0.455112
O O14 0.427484 0.854967 0.674906
O O15 0.480365 0.740183 0.681114
O O16 0.571286 0.887679 0.633946
O O17 0.665279 0.832640 0.412446
O O18 0.712473 0.712473 0.411232
#
# Coordination Sequence:
#
# PCOD8328943 Si02
#       6
#    24  24  24  12  24  24
#     4  10  20  32  46  64  86 114 148 187 230 272
#     4   8  13  22  38  60  84 109 137 168 204 252
#     4   7   9  14  27  50  79 107 133 162 197 239
#     4  10  20  33  50  73 102 134 165 196 232 277
#     4  10  20  33  50  73 101 130 156 181 212 255
#     4  10  21  35  51  72  97 127 162 201 243 281
#
# _framework density 17.202165000000001
#
# number of rings (size 3 to 8) (size 9 to 14) (size 15 to 20)
#    0.000    2.909    0.000    3.818    0.000    3.636 
#    0.000    1.818    0.000    1.273    0.000    0.000 
#    0.000    6.545    0.000    0.000    0.000    0.727 
#
# Total GULP energy -1635230.655009 kJ/mol
# GULP energy per Si atom -12388.111023 kJ/mol
# Density = 1.716301 g / cm^3
# Si number density = 17.202165 Si / 1000 Ang^3
#
#
#
# Elastic Constant Matrix: (Units=GPa)
#
#
# Indices 1 2 3 4 5 6 
#
# 1 77.3716 53.4409 31.7194 0.0000 0.0000 0.0000
# 2 53.4409 77.3716 31.7194 0.0000 0.0000 0.0000
# 3 31.7194 31.7194 151.2242 0.0000 0.0000 0.0000
# 4 0.0000 0.0000 0.0000 14.6212 0.0000 0.0000
# 5 0.0000 0.0000 0.0000 0.0000 14.6212 0.0000
# 6 0.0000 0.0000 0.0000 0.0000 0.0000 11.9653
#
#
#
# Elastic Compliance Matrix: (Units=1/GPa)
#
#
# Indices 1 2 3 4 5 6 
#
# 1 0.025149 -0.016639 -0.001785 0.000000 0.000000 0.000000
# 2 -0.016639 0.025149 -0.001785 0.000000 0.000000 0.000000
# 3 -0.001785 -0.001785 0.007362 0.000000 0.000000 0.000000
# 4 0.000000 0.000000 0.000000 0.068394 0.000000 0.000000
# 5 0.000000 0.000000 0.000000 0.000000 0.068394 0.000000
# 6 0.000000 0.000000 0.000000 0.000000 0.000000 0.083575
#
#
# Mechanical properties :
#
#
# Convention : Reuss Voigt Hill
#
# Bulk Modulus (GPa) = 57.99851 59.96965 58.98408
# Shear Modulus (GPa) = 15.42322 20.84737 18.13530
#
# Velocity S-wave (km/s) = 2.99755 3.48502 3.25044
# Velocity P-wave (km/s) = 6.76531 7.15061 6.96063
#
# Compressibility (1/GPa) = 0.01724182
#
# Stress axis : x y z
#
# Youngs Moduli (GPa) = 39.76330 39.76330 135.84149
#
# Poissons Ratio (x) = 0.66161 0.24248
# Poissons Ratio (y) = 0.66161 0.24248
# Poissons Ratio (z) = 0.07098 0.07098
#
# Static dielectric constant tensor:
#      x y z
#    x 2.886150 0.000000 0.000000 
#    y 0.000000 2.886150 0.000000 
#    z 0.000000 0.000000 3.807680 
# 
# 
# High freq. dielectric constant tensor:
#      x y z
#    x 1.626580 0.000000 0.000000 
#    y 0.000000 1.626580 0.000000 
#    z 0.000000 0.000000 1.700970 
# 
# From -- ./inp_files/9810.got.cif
#   From: 2010.03.12/outbox.cif.g09.slc.cpg/sg191_5_cif.got.tgz:9810.got - 2010.04.01 12:09:02.
