data_PCOD8328318
_publ_section_title
;
Structure prediction by ZEFSAII (Michael W. Deem and Ramdas Pophale) SiO2 
 PCOD8328318
Probable space group: P 6/M M M
;
_chemical_formula_sum "Si O2"
_cell_formula_units_Z 132
_cell_length_a 18.491101
_cell_length_b 18.491101
_cell_length_c 28.168899
_cell_angle_alpha 90.000000
_cell_angle_beta 90.000000
_cell_angle_gamma 120.000000
_cell_volume 8341.152201
_symmetry_space_group_name_H-M "P 6/M M M"
_symmetry_group_IT_number 191
_symmetry_cell_setting 'hexagonal'
loop_
_space_group_symop_operation_xyz
x,y,z
x-y,x,z
-y,x-y,z
-x,-y,z
-x+y,-x,z
y,-x+y,z
x-y,-y,-z
-x,-x+y,-z
y,x,-z
-y,-x,-z
-x+y,y,-z
x,x-y,-z
-x,-y,-z
-x+y,-x,-z
y,-x+y,-z
x,y,-z
x-y,x,-z
-y,x-y,-z
-x+y,y,z
x,x-y,z
-y,-x,z
y,x,z
x-y,-y,z
-x,-x+y,z
loop_
_atom_site_type_symbol
_atom_site_label
_atom_site_fract_x
_atom_site_fract_y
_atom_site_fract_z
Si Si1 0.636222 0.903040 0.500000
Si Si2 0.631902 0.539290 0.322998
Si Si3 0.468180 0.370022 0.130082
Si Si4 0.349237 0.255151 0.945715
Si Si5 0.500856 0.331073 0.227372
Si Si6 0.668849 0.168510 0.421719
O O1 0.667617 0.833809 0.500000
O O2 0.578936 0.890572 0.545637
O O3 0.713668 0.000000 0.500000
O O4 0.545387 0.454614 0.317778
O O5 0.616462 0.616462 0.331556
O O6 0.683870 0.555809 0.274126
O O7 0.681630 0.531739 0.367506
O O8 0.567571 0.432429 0.121905
O O9 0.423544 0.423544 0.134581
O O10 0.431720 0.306950 0.086026
O O11 0.449382 0.317158 0.178800
O O12 0.312605 0.156303 0.937457
O O13 0.277215 0.277215 0.932238
O O14 0.377899 0.280008 0.000000
O O15 0.536575 0.268288 0.229146
O O16 0.575295 0.424706 0.227304
O O17 0.575564 0.151128 0.431866
O O18 0.734547 0.265454 0.432426
#
# Coordination Sequence:
#
# PCOD8328318 Si02
#       6
#    12  24  24  24  24  24
#     4  10  21  35  51  70  91 117 148 184 225 267
#     4   9  17  28  41  56  76 106 144 184 221 254
#     4   9  17  28  42  60  81 106 137 172 208 248
#     4   9  17  29  45  64  85 109 138 172 210 253
#     4  10  18  27  39  55  77 104 135 172 214 258
#     4  10  19  30  45  66  93 123 154 185 216 253
#
# _framework density 15.825153
#
# number of rings (size 3 to 8) (size 9 to 14) (size 15 to 20)
#    0.000    2.545    0.000    2.818    0.000    4.000 
#    0.000    4.545    0.000    0.636    0.000    1.273 
#    0.000    0.000    0.000    0.000    0.000    0.000 
#
# Total GULP energy -1636029.122254 kJ/mol
# GULP energy per Si atom -12394.160017 kJ/mol
# Density = 1.578913 g / cm^3
# Si number density = 15.825153 Si / 1000 Ang^3
#
#
#
# Elastic Constant Matrix: (Units=GPa)
#
#
# Indices 1 2 3 4 5 6 
#
# 1 60.5289 33.3690 35.3697 0.0000 0.0000 0.0000
# 2 33.3690 60.5289 35.3697 0.0000 0.0000 0.0000
# 3 35.3697 35.3697 106.9840 0.0000 0.0000 0.0000
# 4 0.0000 0.0000 0.0000 18.7104 0.0000 0.0000
# 5 0.0000 0.0000 0.0000 0.0000 18.7104 0.0000
# 6 0.0000 0.0000 0.0000 0.0000 0.0000 13.5799
#
#
#
# Elastic Compliance Matrix: (Units=1/GPa)
#
#
# Indices 1 2 3 4 5 6 
#
# 1 0.025501 -0.011318 -0.004689 0.000000 0.000000 0.000000
# 2 -0.011318 0.025501 -0.004689 0.000000 0.000000 0.000000
# 3 -0.004689 -0.004689 0.012447 0.000000 0.000000 0.000000
# 4 0.000000 0.000000 0.000000 0.053446 0.000000 0.000000
# 5 0.000000 0.000000 0.000000 0.000000 0.053446 0.000000
# 6 0.000000 0.000000 0.000000 0.000000 0.000000 0.073638
#
#
# Mechanical properties :
#
#
# Convention : Reuss Voigt Hill
#
# Bulk Modulus (GPa) = 45.33727 48.47315 46.90521
# Shear Modulus (GPa) = 17.08098 18.46237 17.77168
#
# Velocity S-wave (km/s) = 3.28892 3.41933 3.35476
# Velocity P-wave (km/s) = 6.56763 6.80338 6.68654
#
# Compressibility (1/GPa) = 0.02205691
#
# Stress axis : x y z
#
# Youngs Moduli (GPa) = 39.21476 39.21476 80.33780
#
# Poissons Ratio (x) = 0.44385 0.37668
# Poissons Ratio (y) = 0.44385 0.37668
# Poissons Ratio (z) = 0.18387 0.18387
#
# Static dielectric constant tensor:
#      x y z
#    x 2.875190 0.000000 0.000000 
#    y 0.000000 2.875190 0.000000 
#    z 0.000000 0.000000 3.349490 
# 
# 
# High freq. dielectric constant tensor:
#      x y z
#    x 1.579640 0.000000 0.000000 
#    y 0.000000 1.579640 0.000000 
#    z 0.000000 0.000000 1.629090 
# 
# From -- ./inp_files/9768.got.cif
#   From: 2010.03.12/outbox.cif.g09.slc.cpg/sg191_5_cif.got.tgz:9768.got - 2010.04.01 12:09:02.
