data_PCOD8328805
_publ_section_title
;
Structure prediction by ZEFSAII (Michael W. Deem and Ramdas Pophale) SiO2 
 PCOD8328805
Probable space group: P 6/M M M
;
_chemical_formula_sum "Si O2"
_cell_formula_units_Z 168
_cell_length_a 22.399462
_cell_length_b 22.399462
_cell_length_c 23.153362
_cell_angle_alpha 90.000000
_cell_angle_beta 90.000000
_cell_angle_gamma 120.000000
_cell_volume 10060.507020
_symmetry_space_group_name_H-M "P 6/M M M"
_symmetry_group_IT_number 191
_symmetry_cell_setting 'hexagonal'
loop_
_space_group_symop_operation_xyz
x,y,z
x-y,x,z
-y,x-y,z
-x,-y,z
-x+y,-x,z
y,-x+y,z
x-y,-y,-z
-x,-x+y,-z
y,x,-z
-y,-x,-z
-x+y,y,-z
x,x-y,-z
-x,-y,-z
-x+y,-x,-z
y,-x+y,-z
x,y,-z
x-y,x,-z
-y,x-y,-z
-x+y,y,z
x,x-y,z
-y,-x,z
y,x,z
x-y,-y,z
-x,-x+y,z
loop_
_atom_site_type_symbol
_atom_site_label
_atom_site_fract_x
_atom_site_fract_y
_atom_site_fract_z
Si Si1 0.920312 0.528833 0.343357
Si Si2 0.280246 0.426142 0.754256
Si Si3 0.377369 0.453459 0.934717
Si Si4 0.228795 0.327195 0.936928
Si Si5 0.196885 0.529963 0.566527
Si Si6 0.925182 0.206623 0.813261
Si Si7 0.333979 0.799926 0.853128
O O1 0.909530 0.454765 0.322481
O O2 0.900144 0.566133 0.294434
O O3 0.872522 0.519074 0.398378
O O4 0.000000 0.579195 0.360676
O O5 0.210896 0.421792 0.727826
O O6 0.260018 0.358756 0.792664
O O7 0.318785 0.492552 0.794166
O O8 0.437542 0.437542 0.913882
O O9 0.306999 0.382911 0.930129
O O10 0.373598 0.510552 0.896995
O O11 0.392350 0.481099 0.000000
O O12 0.181690 0.363379 0.933481
O O13 0.208436 0.275541 0.883035
O O14 0.217255 0.289888 0.000000
O O15 0.179901 0.508141 0.500000
O O16 0.260161 0.520322 0.588261
O O17 0.219716 0.609858 0.575277
O O18 0.870583 0.129417 0.792286
O O19 0.000000 0.228909 0.786418
O O20 0.385895 0.771790 0.839036
O O21 0.262854 0.737147 0.879057
#
# Coordination Sequence:
#
# PCOD8328805 Si02
#       7
#    24  24  24  24  24  24  24
#     4  10  20  32  47  69  97 127 155 186 228 279
#     4  10  20  34  51  69  89 117 154 196 236 273
#     4  10  20  33  50  70  90 113 145 187 233 280
#     4   9  16  27  45  69  94 117 142 176 223 275
#     4   9  17  30  49  72  97 126 161 199 233 263
#     4  10  19  31  48  70  94 120 150 186 229 277
#     4  11  23  38  53  69  90 119 154 191 233 282
#
# _framework density 16.69896
#
# number of rings (size 3 to 8) (size 9 to 14) (size 15 to 20)
#    0.000    2.143    1.429    2.429    0.000    3.714 
#    0.000    2.143    0.000    5.571    0.000    0.000 
#    0.000    0.000    0.000    3.571    0.000    0.000 
#
# Total GULP energy -2081777.128100 kJ/mol
# GULP energy per Si atom -12391.530524 kJ/mol
# Density = 1.666095 g / cm^3
# Si number density = 16.698960 Si / 1000 Ang^3
#
#
#
# Elastic Constant Matrix: (Units=GPa)
#
#
# Indices 1 2 3 4 5 6 
#
# 1 91.7650 67.8283 39.2612 0.0000 0.0000 0.0000
# 2 67.8283 91.7650 39.2612 0.0000 0.0000 0.0000
# 3 39.2612 39.2612 65.8703 0.0000 0.0000 0.0000
# 4 0.0000 0.0000 0.0000 13.8030 0.0000 0.0000
# 5 0.0000 0.0000 0.0000 0.0000 13.8030 0.0000
# 6 0.0000 0.0000 0.0000 0.0000 0.0000 11.9684
#
#
#
# Elastic Compliance Matrix: (Units=1/GPa)
#
#
# Indices 1 2 3 4 5 6 
#
# 1 0.025321 -0.016455 -0.005284 0.000000 0.000000 0.000000
# 2 -0.016455 0.025321 -0.005284 0.000000 0.000000 0.000000
# 3 -0.005284 -0.005284 0.021481 0.000000 0.000000 0.000000
# 4 0.000000 0.000000 0.000000 0.072448 0.000000 0.000000
# 5 0.000000 0.000000 0.000000 0.000000 0.072448 0.000000
# 6 0.000000 0.000000 0.000000 0.000000 0.000000 0.083554
#
#
# Mechanical properties :
#
#
# Convention : Reuss Voigt Hill
#
# Bulk Modulus (GPa) = 55.32523 60.23353 57.77938
# Shear Modulus (GPa) = 13.86398 14.78485 14.32442
#
# Velocity S-wave (km/s) = 2.88450 2.97875 2.93200
# Velocity P-wave (km/s) = 6.65557 6.92670 6.79249
#
# Compressibility (1/GPa) = 0.01807494
#
# Stress axis : x y z
#
# Youngs Moduli (GPa) = 39.49228 39.49228 46.55313
#
# Poissons Ratio (x) = 0.64986 0.24601
# Poissons Ratio (y) = 0.64986 0.24601
# Poissons Ratio (z) = 0.20870 0.20870
#
# Static dielectric constant tensor:
#      x y z
#    x 3.217530 0.000000 0.000000 
#    y 0.000000 3.217530 0.000000 
#    z 0.000000 0.000000 2.992480 
# 
# 
# High freq. dielectric constant tensor:
#      x y z
#    x 1.638560 0.000000 0.000000 
#    y 0.000000 1.638560 0.000000 
#    z 0.000000 0.000000 1.618780 
# 
# From -- ./inp_files/7961.got.cif
#   From: 2010.03.12/outbox.cif.g09.slc.cpg/sg191_4_cif.got.tgz:7961.got - 2010.04.01 12:09:02.
