data_PCOD8328023
_publ_section_title
;
Structure prediction by ZEFSAII (Michael W. Deem and Ramdas Pophale) SiO2 
 PCOD8328023
Probable space group: P -6 2 C
;
_chemical_formula_sum "Si O2"
_cell_formula_units_Z 66
_cell_length_a 16.720405
_cell_length_b 16.720405
_cell_length_c 14.053528
_cell_angle_alpha 90.000000
_cell_angle_beta 90.000000
_cell_angle_gamma 120.000000
_cell_volume 3402.589679
_symmetry_space_group_name_H-M "P -6 2 C"
_symmetry_group_IT_number 190
_symmetry_cell_setting 'hexagonal'
loop_
_space_group_symop_operation_xyz
x,y,z
-x+y,-x,1/2-z
-y,x-y,z
x,y,1/2-z
-x+y,-x,z
-y,x-y,1/2-z
x-y,-y,-z
-x,-x+y,-z
y,x,-z
y,x,1/2+z
x-y,-y,1/2+z
-x,-x+y,1/2+z
loop_
_atom_site_type_symbol
_atom_site_label
_atom_site_fract_x
_atom_site_fract_y
_atom_site_fract_z
Si Si1 0.500619 0.445993 0.357569
Si Si2 0.608331 0.134399 0.947244
Si Si3 0.079345 0.962250 0.250000
Si Si4 0.589993 0.704148 0.851487
Si Si5 0.963139 0.214713 0.602567
Si Si6 0.455045 0.187594 0.947990
O O1 0.484717 0.404061 0.250000
O O2 0.510123 0.382207 0.437975
O O3 0.415077 0.457510 0.389809
O O4 0.593936 0.544920 0.363483
O O5 0.528071 0.156278 0.920261
O O6 0.708216 0.210215 0.910144
O O7 0.121059 0.938823 0.342339
O O8 0.967187 0.897257 0.250000
O O9 0.558559 0.726945 0.750000
O O10 0.699124 0.745653 0.845282
O O11 0.559325 0.745050 0.937880
O O12 0.875290 0.230475 0.599982
O O13 0.000000 0.207653 0.500000
#
# Coordination Sequence:
#
# PCOD8328023 Si02
#       6
#    12  12   6  12  12  12
#     4   9  18  34  55  76 107 156 193 229 285 332
#     4  10  19  35  53  82 121 149 190 241 287 335
#     4  10  24  42  62  90 114 144 182 256 330 360
#     4   9  16  32  60  85 106 150 210 247 271 344
#     4  10  19  37  64  88 110 155 206 239 293 376
#     4  10  20  33  57  89 120 160 198 242 292 350
#
# _framework density 19.396989999999999
#
# number of rings (size 3 to 8) (size 9 to 14) (size 15 to 20)
#    0.182    2.182    2.727    0.364    0.000    1.455 
#    1.636    7.273    0.000    2.182    0.000    0.000 
#    0.000    0.000    0.000    0.000    0.000    0.000 
#
# Total GULP energy -817723.454764 kJ/mol
# GULP energy per Si atom -12389.749315 kJ/mol
# Density = 1.935284 g / cm^3
# Si number density = 19.396990 Si / 1000 Ang^3
#
#
#
# Elastic Constant Matrix: (Units=GPa)
#
#
# Indices 1 2 3 4 5 6 
#
# 1 89.4183 37.8991 19.7550 0.0000 0.0000 0.0000
# 2 37.8991 89.4183 19.7550 0.0000 0.0000 0.0000
# 3 19.7550 19.7550 74.0390 0.0000 0.0000 0.0000
# 4 0.0000 0.0000 0.0000 18.8584 0.0000 0.0000
# 5 0.0000 0.0000 0.0000 0.0000 18.8584 0.0000
# 6 0.0000 0.0000 0.0000 0.0000 0.0000 25.7596
#
#
#
# Elastic Compliance Matrix: (Units=1/GPa)
#
#
# Indices 1 2 3 4 5 6 
#
# 1 0.013987 -0.005423 -0.002285 0.000000 0.000000 0.000000
# 2 -0.005423 0.013987 -0.002285 0.000000 0.000000 0.000000
# 3 -0.002285 -0.002285 0.014726 0.000000 0.000000 0.000000
# 4 0.000000 0.000000 0.000000 0.053027 0.000000 0.000000
# 5 0.000000 0.000000 0.000000 0.000000 0.053027 0.000000
# 6 0.000000 0.000000 0.000000 0.000000 0.000000 0.038820
#
#
# Mechanical properties :
#
#
# Convention : Reuss Voigt Hill
#
# Bulk Modulus (GPa) = 44.02756 45.29929 44.66343
# Shear Modulus (GPa) = 23.24168 24.39304 23.81736
#
# Velocity S-wave (km/s) = 3.46527 3.55007 3.50793
# Velocity P-wave (km/s) = 6.22561 6.34101 6.28358
#
# Compressibility (1/GPa) = 0.02271305
#
# Stress axis : x y z
#
# Youngs Moduli (GPa) = 71.49573 71.49573 67.90844
#
# Poissons Ratio (x) = 0.38775 0.15516
# Poissons Ratio (y) = 0.38775 0.15516
# Poissons Ratio (z) = 0.16336 0.16336
#
# Static dielectric constant tensor:
#      x y z
#    x 3.224720 0.000000 0.000000 
#    y 0.000000 3.224720 0.000000 
#    z 0.000000 0.000000 3.625810 
# 
# 
# High freq. dielectric constant tensor:
#      x y z
#    x 1.733590 0.000000 0.000000 
#    y 0.000000 1.733590 0.000000 
#    z 0.000000 0.000000 1.759500 
# 
# From -- ./inp_files/3001.got.cif
#   From: 2010.06.25/outbox.cif.g09.slc.cpg/sg190_2_cif.got.tgz:3001.got - 2010.06.28 13:08:06.
