data_PCOD8328664
_publ_section_title
;
Structure prediction by ZEFSAII (Michael W. Deem and Ramdas Pophale) SiO2 
 PCOD8328664
Probable space group: P 6/M M M
;
_chemical_formula_sum "Si O2"
_cell_formula_units_Z 144
_cell_length_a 18.666393
_cell_length_b 18.666393
_cell_length_c 29.543147
_cell_angle_alpha 90.000000
_cell_angle_beta 90.000000
_cell_angle_gamma 120.000000
_cell_volume 8914.730066
_symmetry_space_group_name_H-M "P 6/M M M"
_symmetry_group_IT_number 191
_symmetry_cell_setting 'hexagonal'
loop_
_space_group_symop_operation_xyz
x,y,z
x-y,x,z
-y,x-y,z
-x,-y,z
-x+y,-x,z
y,-x+y,z
x-y,-y,-z
-x,-x+y,-z
y,x,-z
-y,-x,-z
-x+y,y,-z
x,x-y,-z
-x,-y,-z
-x+y,-x,-z
y,-x+y,-z
x,y,-z
x-y,x,-z
-y,x-y,-z
-x+y,y,z
x,x-y,z
-y,-x,z
y,x,z
x-y,-y,z
-x,-x+y,z
loop_
_atom_site_type_symbol
_atom_site_label
_atom_site_fract_x
_atom_site_fract_y
_atom_site_fract_z
Si Si1 0.654292 0.747034 0.279164
Si Si2 0.251805 0.345321 0.617148
Si Si3 0.667794 0.169429 0.887095
Si Si4 0.098105 0.469809 0.449516
Si Si5 0.467027 0.371454 0.791618
Si Si6 0.092678 0.746156 0.947603
O O1 0.688210 0.844105 0.269927
O O2 0.727359 0.727359 0.266914
O O3 0.626767 0.723464 0.331083
O O4 0.572958 0.692467 0.249435
O O5 0.153169 0.306338 0.610085
O O6 0.276278 0.276278 0.603274
O O7 0.298303 0.427895 0.586779
O O8 0.577318 0.154635 0.897889
O O9 0.735399 0.264602 0.896346
O O10 0.676155 0.148713 0.835287
O O11 0.682781 0.109596 0.919566
O O12 0.127901 0.462719 0.500000
O O13 0.132841 0.566421 0.437317
O O14 0.000000 0.423235 0.447987
O O15 0.557938 0.442063 0.775775
O O16 0.411479 0.411479 0.805085
O O17 0.158605 0.841396 0.934376
O O18 0.000000 0.728041 0.936758
O O19 0.101560 0.729961 0.000000
#
# Coordination Sequence:
#
# PCOD8328664 Si02
#       6
#    24  24  24  24  24  24
#     4   9  17  29  44  62  85 113 145 180 218 259
#     4   9  17  28  43  63  86 113 145 181 218 255
#     4  10  19  30  44  63  89 120 152 183 213 246
#     4   8  14  25  41  61  83 105 131 165 205 249
#     4   9  17  28  43  64  87 110 139 177 218 259
#     4   9  18  32  49  68  89 114 144 178 217 260
#
# _framework density 16.153041000000002
#
# number of rings (size 3 to 8) (size 9 to 14) (size 15 to 20)
#    0.000    3.000    0.000    1.667    0.000    2.333 
#    0.000    4.167    0.000    2.167    0.000    3.500 
#    0.000    0.000    0.000    9.500    0.000   11.667 
#
# Total GULP energy -1784946.030797 kJ/mol
# GULP energy per Si atom -12395.458547 kJ/mol
# Density = 1.611628 g / cm^3
# Si number density = 16.153041 Si / 1000 Ang^3
#
#
#
# Elastic Constant Matrix: (Units=GPa)
#
#
# Indices 1 2 3 4 5 6 
#
# 1 92.7691 56.0238 47.5712 0.0000 0.0000 0.0000
# 2 56.0238 92.7691 47.5712 0.0000 0.0000 0.0000
# 3 47.5712 47.5712 66.6965 0.0000 0.0000 0.0000
# 4 0.0000 0.0000 0.0000 22.2114 0.0000 0.0000
# 5 0.0000 0.0000 0.0000 0.0000 22.2114 0.0000
# 6 0.0000 0.0000 0.0000 0.0000 0.0000 18.3726
#
#
#
# Elastic Compliance Matrix: (Units=1/GPa)
#
#
# Indices 1 2 3 4 5 6 
#
# 1 0.019785 -0.007429 -0.008813 0.000000 0.000000 0.000000
# 2 -0.007429 0.019785 -0.008813 0.000000 0.000000 0.000000
# 3 -0.008813 -0.008813 0.027565 0.000000 0.000000 0.000000
# 4 0.000000 0.000000 0.000000 0.045022 0.000000 0.000000
# 5 0.000000 0.000000 0.000000 0.000000 0.045022 0.000000
# 6 0.000000 0.000000 0.000000 0.000000 0.000000 0.054429
#
#
# Mechanical properties :
#
#
# Convention : Reuss Voigt Hill
#
# Bulk Modulus (GPa) = 58.73624 61.61856 60.17740
# Shear Modulus (GPa) = 18.69909 19.29698 18.99804
#
# Velocity S-wave (km/s) = 3.40607 3.46010 3.43319
# Velocity P-wave (km/s) = 7.20484 7.36156 7.28362
#
# Compressibility (1/GPa) = 0.01702526
#
# Stress axis : x y z
#
# Youngs Moduli (GPa) = 50.54297 50.54297 36.27818
#
# Poissons Ratio (x) = 0.37550 0.31971
# Poissons Ratio (y) = 0.37550 0.31971
# Poissons Ratio (z) = 0.44543 0.44543
#
# Static dielectric constant tensor:
#      x y z
#    x 3.049220 0.000000 0.000000 
#    y 0.000000 3.049220 0.000000 
#    z 0.000000 0.000000 3.147120 
# 
# 
# High freq. dielectric constant tensor:
#      x y z
#    x 1.606980 0.000000 0.000000 
#    y 0.000000 1.606980 0.000000 
#    z 0.000000 0.000000 1.624910 
# 
# From -- ./inp_files/9922.got.cif
#   From: 2010.03.12/outbox.cif.g09.slc.cpg/sg191_5_cif.got.tgz:9922.got - 2010.04.01 12:09:02.
