data_PCOD8328407
_publ_section_title
;
Structure prediction by ZEFSAII (Michael W. Deem and Ramdas Pophale) SiO2 
 PCOD8328407
Probable space group: P 6/M M M
;
_chemical_formula_sum "Si O2"
_cell_formula_units_Z 156
_cell_length_a 22.351193
_cell_length_b 22.351193
_cell_length_c 22.427537
_cell_angle_alpha 90.000000
_cell_angle_beta 90.000000
_cell_angle_gamma 120.000000
_cell_volume 9703.169788
_symmetry_space_group_name_H-M "P 6/M M M"
_symmetry_group_IT_number 191
_symmetry_cell_setting 'hexagonal'
loop_
_space_group_symop_operation_xyz
x,y,z
x-y,x,z
-y,x-y,z
-x,-y,z
-x+y,-x,z
y,-x+y,z
x-y,-y,-z
-x,-x+y,-z
y,x,-z
-y,-x,-z
-x+y,y,-z
x,x-y,-z
-x,-y,-z
-x+y,-x,-z
y,-x+y,-z
x,y,-z
x-y,x,-z
-y,x-y,-z
-x+y,y,z
x,x-y,z
-y,-x,z
y,x,z
x-y,-y,z
-x,-x+y,z
loop_
_atom_site_type_symbol
_atom_site_label
_atom_site_fract_x
_atom_site_fract_y
_atom_site_fract_z
Si Si1 0.666295 0.465607 0.429455
Si Si2 0.785104 0.705926 0.000000
Si Si3 0.617283 0.696233 0.108001
Si Si4 0.290621 0.077474 0.791093
Si Si5 0.666453 0.471741 0.070301
Si Si6 0.284202 0.076576 0.655383
Si Si7 0.391216 0.312642 0.568611
O O1 0.666064 0.457866 0.500000
O O2 0.737659 0.475317 0.402900
O O3 0.602689 0.397312 0.401047
O O4 0.656688 0.529871 0.412055
O O5 0.752704 0.658070 0.942598
O O6 0.769535 0.769535 0.000000
O O7 0.867779 0.735557 0.000000
O O8 0.633393 0.633393 0.102731
O O9 0.642235 0.734882 0.171195
O O10 0.535545 0.665794 0.102843
O O11 0.266443 0.133222 0.805941
O O12 0.313120 0.082543 0.722242
O O13 0.227260 0.000000 0.805797
O O14 0.733937 0.467874 0.089259
O O15 0.598859 0.401142 0.090594
O O16 0.665683 0.482558 0.000000
O O17 0.252082 0.126041 0.646904
O O18 0.346124 0.099324 0.609330
O O19 0.222677 0.000000 0.641271
O O20 0.378892 0.287659 0.500000
O O21 0.372361 0.372361 0.579546
#
# Coordination Sequence:
#
# PCOD8328407 Si02
#       7
#    24  12  24  24  24  24  24
#     4   9  16  25  38  57  82 111 140 170 206 250
#     4  10  18  28  43  64  89 113 139 173 214 256
#     4  10  19  30  46  68  90 114 144 182 225 263
#     4   9  17  29  46  66  88 115 147 181 217 260
#     4  10  19  30  45  65  92 123 153 184 220 265
#     4   9  17  29  45  65  88 114 144 178 216 259
#     4   9  17  28  43  64  88 112 139 175 219 262
#
# _framework density 16.077221000000002
#
# number of rings (size 3 to 8) (size 9 to 14) (size 15 to 20)
#    0.000    2.615    0.769    2.154    0.000    2.769 
#    0.000    2.308    0.000    1.308    0.000    6.462 
#    0.000    6.154    0.000    4.000    0.000    4.308 
#
# Total GULP energy -1933954.564558 kJ/mol
# GULP energy per Si atom -12397.144645 kJ/mol
# Density = 1.604063 g / cm^3
# Si number density = 16.077221 Si / 1000 Ang^3
#
#
#
# Elastic Constant Matrix: (Units=GPa)
#
#
# Indices 1 2 3 4 5 6 
#
# 1 122.3111 79.8196 34.5885 0.0000 0.0000 0.0000
# 2 79.8196 122.3111 34.5885 0.0000 0.0000 0.0000
# 3 34.5885 34.5885 47.6792 0.0000 0.0000 0.0000
# 4 0.0000 0.0000 0.0000 16.9668 0.0000 0.0000
# 5 0.0000 0.0000 0.0000 0.0000 16.9668 0.0000
# 6 0.0000 0.0000 0.0000 0.0000 0.0000 21.2457
#
#
#
# Elastic Compliance Matrix: (Units=1/GPa)
#
#
# Indices 1 2 3 4 5 6 
#
# 1 0.015058 -0.008476 -0.004774 0.000000 0.000000 0.000000
# 2 -0.008476 0.015058 -0.004774 0.000000 0.000000 0.000000
# 3 -0.004774 -0.004774 0.027901 0.000000 0.000000 0.000000
# 4 0.000000 0.000000 0.000000 0.058939 0.000000 0.000000
# 5 0.000000 0.000000 0.000000 0.000000 0.058939 0.000000
# 6 0.000000 0.000000 0.000000 0.000000 0.000000 0.047068
#
#
# Mechanical properties :
#
#
# Convention : Reuss Voigt Hill
#
# Bulk Modulus (GPa) = 45.52548 65.58831 55.55689
# Shear Modulus (GPa) = 18.77343 20.58949 19.68146
#
# Velocity S-wave (km/s) = 3.42088 3.58252 3.50263
# Velocity P-wave (km/s) = 6.63185 7.61557 7.14067
#
# Compressibility (1/GPa) = 0.02196572
#
# Stress axis : x y z
#
# Youngs Moduli (GPa) = 66.41120 66.41120 35.84164
#
# Poissons Ratio (x) = 0.56293 0.17112
# Poissons Ratio (y) = 0.56293 0.17112
# Poissons Ratio (z) = 0.31707 0.31707
#
# Static dielectric constant tensor:
#      x y z
#    x 3.107390 0.000000 0.000000 
#    y 0.000000 3.107390 0.000000 
#    z 0.000000 0.000000 2.955020 
# 
# 
# High freq. dielectric constant tensor:
#      x y z
#    x 1.615280 0.000000 0.000000 
#    y 0.000000 1.615280 0.000000 
#    z 0.000000 0.000000 1.595160 
# 
# From -- ./inp_files/7759.got.cif
#   From: 2010.03.12/outbox.cif.g09.slc.cpg/sg191_4_cif.got.tgz:7759.got - 2010.04.01 12:09:02.
