data_PCOD8328929
_publ_section_title
;
Structure prediction by ZEFSAII (Michael W. Deem and Ramdas Pophale) SiO2 
 PCOD8328929
Probable space group: P 6/M M M
;
_chemical_formula_sum "Si O2"
_cell_formula_units_Z 144
_cell_length_a 32.012532
_cell_length_b 32.012532
_cell_length_c 9.371565
_cell_angle_alpha 90.000000
_cell_angle_beta 90.000000
_cell_angle_gamma 120.000000
_cell_volume 8317.308391
_symmetry_space_group_name_H-M "P 6/M M M"
_symmetry_group_IT_number 191
_symmetry_cell_setting 'hexagonal'
loop_
_space_group_symop_operation_xyz
x,y,z
x-y,x,z
-y,x-y,z
-x,-y,z
-x+y,-x,z
y,-x+y,z
x-y,-y,-z
-x,-x+y,-z
y,x,-z
-y,-x,-z
-x+y,y,-z
x,x-y,-z
-x,-y,-z
-x+y,-x,-z
y,-x+y,-z
x,y,-z
x-y,x,-z
-y,x-y,-z
-x+y,y,z
x,x-y,z
-y,-x,z
y,x,z
x-y,-y,z
-x,-x+y,z
loop_
_atom_site_type_symbol
_atom_site_label
_atom_site_fract_x
_atom_site_fract_y
_atom_site_fract_z
Si Si1 0.055506 0.769791 0.166794
Si Si2 0.147614 0.201621 0.336281
Si Si3 0.575960 0.523125 0.341014
Si Si4 0.232764 0.863475 0.334216
Si Si5 0.480129 0.288169 0.662924
Si Si6 0.620046 0.143208 0.833341
O O1 0.067011 0.820147 0.236365
O O2 0.089649 0.752284 0.238415
O O3 0.000000 0.729192 0.194326
O O4 0.067166 0.778544 0.000000
O O5 0.160536 0.219011 0.500000
O O6 0.091415 0.182830 0.304242
O O7 0.157881 0.157881 0.304258
O O8 0.598688 0.532722 0.500000
O O9 0.525653 0.474348 0.340899
O O10 0.566765 0.566765 0.295675
O O11 0.611633 0.519044 0.229873
O O12 0.237814 0.877858 0.500000
O O13 0.178019 0.821982 0.301148
O O14 0.269118 0.844326 0.294105
O O15 0.488879 0.305974 0.500000
O O16 0.492971 0.246486 0.685181
O O17 0.517025 0.331706 0.763007
O O18 0.576127 0.152254 0.795878
O O19 0.627497 0.142256 0.000000
#
# Coordination Sequence:
#
# PCOD8328929 Si02
#       6
#    24  24  24  24  24  24
#     4  10  20  31  44  67  98 127 156 192 233 279
#     4   9  17  29  45  64  87 118 156 197 242 293
#     4   8  14  26  45  68  94 126 163 198 229 265
#     4   9  18  33  52  72  93 119 155 197 237 279
#     4   9  19  36  56  76  97 124 162 205 242 279
#     4  10  20  32  49  76 106 133 161 195 239 289
#
# _framework density 17.313293000000002
#
# number of rings (size 3 to 8) (size 9 to 14) (size 15 to 20)
#    0.000    2.833    0.000    3.000    0.000    6.000 
#    0.000    4.167    0.000    1.500    0.000    1.167 
#    0.000    0.000    0.000    4.167    0.000    4.333 
#
# Total GULP energy -1785303.541063 kJ/mol
# GULP energy per Si atom -12397.941257 kJ/mol
# Density = 1.727389 g / cm^3
# Si number density = 17.313293 Si / 1000 Ang^3
#
#
#
# Elastic Constant Matrix: (Units=GPa)
#
#
# Indices 1 2 3 4 5 6 
#
# 1 83.4931 43.2638 54.8471 0.0000 0.0000 0.0000
# 2 43.2638 83.4931 54.8471 0.0000 0.0000 0.0000
# 3 54.8471 54.8471 96.8892 0.0000 0.0000 0.0000
# 4 0.0000 0.0000 0.0000 23.0970 0.0000 0.0000
# 5 0.0000 0.0000 0.0000 0.0000 23.0970 0.0000
# 6 0.0000 0.0000 0.0000 0.0000 0.0000 20.1147
#
#
#
# Elastic Compliance Matrix: (Units=1/GPa)
#
#
# Indices 1 2 3 4 5 6 
#
# 1 0.020161 -0.004696 -0.008755 0.000000 0.000000 0.000000
# 2 -0.004696 0.020161 -0.008755 0.000000 0.000000 0.000000
# 3 -0.008755 -0.008755 0.020233 0.000000 0.000000 0.000000
# 4 0.000000 0.000000 0.000000 0.043296 0.000000 0.000000
# 5 0.000000 0.000000 0.000000 0.000000 0.043296 0.000000
# 6 0.000000 0.000000 0.000000 0.000000 0.000000 0.049715
#
#
# Mechanical properties :
#
#
# Convention : Reuss Voigt Hill
#
# Bulk Modulus (GPa) = 61.93930 63.31018 62.62474
# Shear Modulus (GPa) = 20.27134 20.65625 20.46380
#
# Velocity S-wave (km/s) = 3.42549 3.45786 3.44171
# Velocity P-wave (km/s) = 7.17625 7.25184 7.21414
#
# Compressibility (1/GPa) = 0.01614484
#
# Stress axis : x y z
#
# Youngs Moduli (GPa) = 49.59983 49.59983 49.42507
#
# Poissons Ratio (x) = 0.23293 0.43270
# Poissons Ratio (y) = 0.23293 0.43270
# Poissons Ratio (z) = 0.43423 0.43423
#
# Static dielectric constant tensor:
#      x y z
#    x 3.141830 0.000000 0.000000 
#    y 0.000000 3.141830 0.000000 
#    z 0.000000 0.000000 3.217320 
# 
# 
# High freq. dielectric constant tensor:
#      x y z
#    x 1.654430 0.000000 0.000000 
#    y 0.000000 1.654430 0.000000 
#    z 0.000000 0.000000 1.668330 
# 
# From -- ./inp_files/1971.got.cif
#   From: 2010.03.12/outbox.cif.g09.slc.cpg/sg191_1_cif.got.tgz:1971.got - 2010.04.01 12:09:02.
