data_PCOD8328945
_publ_section_title
;
Structure prediction by ZEFSAII (Michael W. Deem and Ramdas Pophale) SiO2 
 PCOD8328945
Probable space group: P 6/M M M
;
_chemical_formula_sum "Si O2"
_cell_formula_units_Z 120
_cell_length_a 18.237526
_cell_length_b 18.237526
_cell_length_c 24.970572
_cell_angle_alpha 90.000000
_cell_angle_beta 90.000000
_cell_angle_gamma 120.000000
_cell_volume 7192.683834
_symmetry_space_group_name_H-M "P 6/M M M"
_symmetry_group_IT_number 191
_symmetry_cell_setting 'hexagonal'
loop_
_space_group_symop_operation_xyz
x,y,z
x-y,x,z
-y,x-y,z
-x,-y,z
-x+y,-x,z
y,-x+y,z
x-y,-y,-z
-x,-x+y,-z
y,x,-z
-y,-x,-z
-x+y,y,-z
x,x-y,-z
-x,-y,-z
-x+y,-x,-z
y,-x+y,-z
x,y,-z
x-y,x,-z
-y,x-y,-z
-x+y,y,z
x,x-y,z
-y,-x,z
y,x,z
x-y,-y,z
-x,-x+y,z
loop_
_atom_site_type_symbol
_atom_site_label
_atom_site_fract_x
_atom_site_fract_y
_atom_site_fract_z
Si Si1 0.497978 0.164651 0.260817
Si Si2 0.902334 0.263056 0.652761
Si Si3 0.666218 0.501409 0.861973
Si Si4 0.093170 0.743409 0.939222
Si Si5 0.368478 0.899698 0.559593
O O1 0.576610 0.153220 0.278238
O O2 0.524755 0.262378 0.269676
O O3 0.415981 0.103261 0.295607
O O4 0.472793 0.137431 0.199404
O O5 0.838685 0.161316 0.658378
O O6 0.868888 0.292811 0.601914
O O7 0.000000 0.284753 0.646784
O O8 0.739222 0.478444 0.871505
O O9 0.578891 0.421110 0.878860
O O10 0.678876 0.577197 0.899972
O O11 0.159859 0.840142 0.923823
O O12 0.000000 0.731092 0.932115
O O13 0.107591 0.723104 0.000000
O O14 0.330343 0.868571 0.500000
O O15 0.432052 0.864104 0.574029
O O16 0.421977 0.000000 0.561150
#
# Coordination Sequence:
#
# PCOD8328945 Si02
#       5
#    24  24  24  24  24
#     4   9  17  29  46  68  94 122 149 177 211 254
#     4  10  20  32  46  65  89 117 150 189 231 272
#     4   9  17  29  45  66  93 124 154 180 207 244
#     4   9  18  32  48  65  86 113 145 182 225 269
#     4   8  14  26  45  68  92 116 141 170 207 254
#
# _framework density 16.683620000000001
#
# number of rings (size 3 to 8) (size 9 to 14) (size 15 to 20)
#    0.000    3.000    0.000    1.600    0.000    4.800 
#    0.000    3.000    0.000    2.000    0.000    1.400 
#    0.000    0.000    0.000   15.000    0.000    5.200 
#
# Total GULP energy -1487450.937966 kJ/mol
# GULP energy per Si atom -12395.424483 kJ/mol
# Density = 1.664565 g / cm^3
# Si number density = 16.683620 Si / 1000 Ang^3
#
#
#
# Elastic Constant Matrix: (Units=GPa)
#
#
# Indices 1 2 3 4 5 6 
#
# 1 79.0258 50.3767 38.8667 0.0000 0.0000 0.0000
# 2 50.3767 79.0258 38.8667 0.0000 0.0000 0.0000
# 3 38.8667 38.8667 74.5996 0.0000 0.0000 0.0000
# 4 0.0000 0.0000 0.0000 20.6429 0.0000 0.0000
# 5 0.0000 0.0000 0.0000 0.0000 20.6429 0.0000
# 6 0.0000 0.0000 0.0000 0.0000 0.0000 14.3246
#
#
#
# Elastic Compliance Matrix: (Units=1/GPa)
#
#
# Indices 1 2 3 4 5 6 
#
# 1 0.023077 -0.011828 -0.005860 0.000000 0.000000 0.000000
# 2 -0.011828 0.023077 -0.005860 0.000000 0.000000 0.000000
# 3 -0.005860 -0.005860 0.019511 0.000000 0.000000 0.000000
# 4 0.000000 0.000000 0.000000 0.048443 0.000000 0.000000
# 5 0.000000 0.000000 0.000000 0.000000 0.048443 0.000000
# 6 0.000000 0.000000 0.000000 0.000000 0.000000 0.069810
#
#
# Mechanical properties :
#
#
# Convention : Reuss Voigt Hill
#
# Bulk Modulus (GPa) = 53.86072 54.31905 54.08989
# Shear Modulus (GPa) = 17.50409 18.09149 17.79779
#
# Velocity S-wave (km/s) = 3.24262 3.29657 3.26971
# Velocity P-wave (km/s) = 6.80978 6.86432 6.83710
#
# Compressibility (1/GPa) = 0.01856640
#
# Stress axis : x y z
#
# Youngs Moduli (GPa) = 43.33391 43.33391 51.25197
#
# Poissons Ratio (x) = 0.51257 0.30036
# Poissons Ratio (y) = 0.51257 0.30036
# Poissons Ratio (z) = 0.25395 0.25395
#
# Static dielectric constant tensor:
#      x y z
#    x 2.960520 0.000000 0.000000 
#    y 0.000000 2.960520 0.000000 
#    z 0.000000 0.000000 3.389620 
# 
# 
# High freq. dielectric constant tensor:
#      x y z
#    x 1.619230 0.000000 0.000000 
#    y 0.000000 1.619230 0.000000 
#    z 0.000000 0.000000 1.654930 
# 
# From -- ./inp_files/10282.got.cif
#   From: 2010.03.12/outbox.cif.g09.slc.cpg/sg191_6_cif.got.tgz:10282.got - 2010.04.01 12:09:02.
