data_PCOD8328662
_publ_section_title
;
Structure prediction by ZEFSAII (Michael W. Deem and Ramdas Pophale) SiO2 
 PCOD8328662
Probable space group: P 6/M M M
;
_chemical_formula_sum "Si O2"
_cell_formula_units_Z 132
_cell_length_a 18.464302
_cell_length_b 18.464302
_cell_length_c 27.340468
_cell_angle_alpha 90.000000
_cell_angle_beta 90.000000
_cell_angle_gamma 120.000000
_cell_volume 8072.394273
_symmetry_space_group_name_H-M "P 6/M M M"
_symmetry_group_IT_number 191
_symmetry_cell_setting 'hexagonal'
loop_
_space_group_symop_operation_xyz
x,y,z
x-y,x,z
-y,x-y,z
-x,-y,z
-x+y,-x,z
y,-x+y,z
x-y,-y,-z
-x,-x+y,-z
y,x,-z
-y,-x,-z
-x+y,y,-z
x,x-y,-z
-x,-y,-z
-x+y,-x,-z
y,-x+y,-z
x,y,-z
x-y,x,-z
-y,x-y,-z
-x+y,y,z
x,x-y,z
-y,-x,z
y,x,z
x-y,-y,z
-x,-x+y,z
loop_
_atom_site_type_symbol
_atom_site_label
_atom_site_fract_x
_atom_site_fract_y
_atom_site_fract_z
Si Si1 0.254630 0.348399 0.944226
Si Si2 0.499923 0.331793 0.761850
Si Si3 0.906899 0.256329 0.691930
Si Si4 0.904739 0.257597 0.579662
Si Si5 0.629439 0.531397 0.500000
Si Si6 0.630245 0.532994 0.134829
O O1 0.155951 0.311902 0.935435
O O2 0.274941 0.274941 0.931404
O O3 0.306994 0.429167 0.910543
O O4 0.279724 0.378684 0.000000
O O5 0.529017 0.264509 0.751391
O O6 0.575883 0.424118 0.752636
O O7 0.426876 0.318622 0.725216
O O8 0.466827 0.319731 0.817286
O O9 0.840416 0.159585 0.704347
O O10 0.898364 0.277918 0.636015
O O11 0.000000 0.272127 0.702050
O O12 0.841122 0.158879 0.568939
O O13 0.875539 0.312361 0.548170
O O14 0.000000 0.281076 0.566086
O O15 0.569346 0.569346 0.500000
O O16 0.570236 0.429765 0.500000
O O17 0.560988 0.439013 0.120032
O O18 0.587547 0.587547 0.147424
#
# Coordination Sequence:
#
# PCOD8328662 Si02
#       6
#    24  24  24  24  12  24
#     4   9  17  29  45  64  86 113 145 180 217 257
#     4  10  19  30  44  63  89 119 149 180 215 256
#     4   9  18  31  47  67  90 117 148 183 222 263
#     4   9  17  30  48  69  92 118 149 183 220 263
#     4   9  17  28  43  64  88 114 146 183 217 250
#     4   9  17  28  43  64  87 111 142 179 215 253
#
# _framework density 16.352025999999999
#
# number of rings (size 3 to 8) (size 9 to 14) (size 15 to 20)
#    0.000    2.818    0.000    1.545    0.000    2.182 
#    0.000    3.636    0.000    2.364    0.000    3.818 
#    0.000    2.182    0.000    6.000    0.000    8.000 
#
# Total GULP energy -1636305.304184 kJ/mol
# GULP energy per Si atom -12396.252304 kJ/mol
# Density = 1.631481 g / cm^3
# Si number density = 16.352026 Si / 1000 Ang^3
#
#
#
# Elastic Constant Matrix: (Units=GPa)
#
#
# Indices 1 2 3 4 5 6 
#
# 1 95.6687 58.0644 52.3228 0.0000 0.0000 0.0000
# 2 58.0644 95.6687 52.3228 0.0000 0.0000 0.0000
# 3 52.3228 52.3228 81.7309 0.0000 0.0000 0.0000
# 4 0.0000 0.0000 0.0000 23.4444 0.0000 0.0000
# 5 0.0000 0.0000 0.0000 0.0000 23.4444 0.0000
# 6 0.0000 0.0000 0.0000 0.0000 0.0000 18.8021
#
#
#
# Elastic Compliance Matrix: (Units=1/GPa)
#
#
# Indices 1 2 3 4 5 6 
#
# 1 0.019061 -0.007532 -0.007380 0.000000 0.000000 0.000000
# 2 -0.007532 0.019061 -0.007380 0.000000 0.000000 0.000000
# 3 -0.007380 -0.007380 0.021685 0.000000 0.000000 0.000000
# 4 0.000000 0.000000 0.000000 0.042654 0.000000 0.000000
# 5 0.000000 0.000000 0.000000 0.000000 0.042654 0.000000
# 6 0.000000 0.000000 0.000000 0.000000 0.000000 0.053185
#
#
# Mechanical properties :
#
#
# Convention : Reuss Voigt Hill
#
# Bulk Modulus (GPa) = 65.70113 66.49870 66.09991
# Shear Modulus (GPa) = 20.16460 20.49540 20.33000
#
# Velocity S-wave (km/s) = 3.51544 3.54416 3.52983
# Velocity P-wave (km/s) = 7.53287 7.58309 7.55803
#
# Compressibility (1/GPa) = 0.01522044
#
# Stress axis : x y z
#
# Youngs Moduli (GPa) = 52.46405 52.46405 46.11494
#
# Poissons Ratio (x) = 0.39516 0.34035
# Poissons Ratio (y) = 0.39516 0.34035
# Poissons Ratio (z) = 0.38721 0.38721
#
# Static dielectric constant tensor:
#      x y z
#    x 3.089190 0.000000 0.000000 
#    y 0.000000 3.089190 0.000000 
#    z 0.000000 0.000000 3.192430 
# 
# 
# High freq. dielectric constant tensor:
#      x y z
#    x 1.616300 0.000000 0.000000 
#    y 0.000000 1.616300 0.000000 
#    z 0.000000 0.000000 1.638580 
# 
# From -- ./inp_files/10421.got.cif
#   From: 2010.03.12/outbox.cif.g09.slc.cpg/sg191_6_cif.got.tgz:10421.got - 2010.04.01 12:09:02.
