data_PCOD8328043
_publ_section_title
;
Structure prediction by ZEFSAII (Michael W. Deem and Ramdas Pophale) SiO2 
 PCOD8328043
Probable space group: P -6 2 C
;
_chemical_formula_sum "Si O2"
_cell_formula_units_Z 72
_cell_length_a 23.831901
_cell_length_b 23.831901
_cell_length_c 8.826757
_cell_angle_alpha 90.000000
_cell_angle_beta 90.000000
_cell_angle_gamma 120.000000
_cell_volume 4341.593662
_symmetry_space_group_name_H-M "P -6 2 C"
_symmetry_group_IT_number 190
_symmetry_cell_setting 'hexagonal'
loop_
_space_group_symop_operation_xyz
x,y,z
-x+y,-x,1/2-z
-y,x-y,z
x,y,1/2-z
-x+y,-x,z
-y,x-y,1/2-z
x-y,-y,-z
-x,-x+y,-z
y,x,-z
y,x,1/2+z
x-y,-y,1/2+z
-x,-x+y,1/2+z
loop_
_atom_site_type_symbol
_atom_site_label
_atom_site_fract_x
_atom_site_fract_y
_atom_site_fract_z
Si Si1 0.069145 0.370375 0.070164
Si Si2 0.484857 0.857597 0.074660
Si Si3 0.864098 0.373544 0.428165
Si Si4 0.364919 0.295123 0.571843
Si Si5 0.636292 0.817049 0.580704
Si Si6 0.745897 0.482929 0.416753
O O1 0.065721 0.368364 0.250000
O O2 0.092200 0.443072 0.016232
O O3 0.116268 0.344084 0.014828
O O4 0.000000 0.322246 0.000000
O O5 0.471553 0.861269 0.250000
O O6 0.559823 0.902251 0.030837
O O7 0.445869 0.884503 0.979543
O O8 0.460545 0.782544 0.033387
O O9 0.876378 0.371432 0.250000
O O10 0.787505 0.327576 0.468510
O O11 0.354357 0.288388 0.750000
O O12 0.323866 0.323866 0.500000
O O13 0.338224 0.223612 0.503421
O O14 0.666168 0.828819 0.750000
O O15 0.559670 0.781106 0.591410
O O16 0.746997 0.455032 0.250000
#
# Coordination Sequence:
#
# PCOD8328043 Si02
#       6
#    12  12  12  12  12  12
#     4  11  21  34  52  74  99 127 161 197 237 289
#     4  10  20  32  47  67  91 119 155 202 252 299
#     4  10  20  34  50  67  90 121 157 200 250 300
#     4  10  20  33  50  73  98 128 163 199 240 291
#     4   9  17  32  52  72  95 123 154 191 233 279
#     4   8  16  31  48  63  81 112 150 189 238 296
#
# _framework density 16.583772
#
# number of rings (size 3 to 8) (size 9 to 14) (size 15 to 20)
#    0.000    2.333    0.000    4.500    0.000    7.333 
#    1.000    1.667    0.000    0.000    0.000    0.000 
#    0.000    0.000    0.000    0.500    0.000    7.000 
#
# Total GULP energy -892704.624121 kJ/mol
# GULP energy per Si atom -12398.675335 kJ/mol
# Density = 1.654603 g / cm^3
# Si number density = 16.583772 Si / 1000 Ang^3
#
#
#
# Elastic Constant Matrix: (Units=GPa)
#
#
# Indices 1 2 3 4 5 6 
#
# 1 85.7040 52.7165 54.2499 0.0000 0.0000 0.0000
# 2 52.7165 85.7040 54.2499 0.0000 0.0000 0.0000
# 3 54.2499 54.2499 121.7581 0.0000 0.0000 0.0000
# 4 0.0000 0.0000 0.0000 26.9286 0.0000 0.0000
# 5 0.0000 0.0000 0.0000 0.0000 26.9286 0.0000
# 6 0.0000 0.0000 0.0000 0.0000 0.0000 16.4938
#
#
#
# Elastic Compliance Matrix: (Units=1/GPa)
#
#
# Indices 1 2 3 4 5 6 
#
# 1 0.020708 -0.009606 -0.004946 0.000000 0.000000 0.000000
# 2 -0.009606 0.020708 -0.004946 0.000000 0.000000 0.000000
# 3 -0.004946 -0.004946 0.012621 0.000000 0.000000 0.000000
# 4 0.000000 0.000000 0.000000 0.037135 0.000000 0.000000
# 5 0.000000 0.000000 0.000000 0.000000 0.037135 0.000000
# 6 0.000000 0.000000 0.000000 0.000000 0.000000 0.060629
#
#
# Mechanical properties :
#
#
# Convention : Reuss Voigt Hill
#
# Bulk Modulus (GPa) = 66.49635 68.39985 67.44810
# Shear Modulus (GPa) = 21.46409 22.86686 22.16548
#
# Velocity S-wave (km/s) = 3.60152 3.71734 3.65989
# Velocity P-wave (km/s) = 7.58148 7.73042 7.65631
#
# Compressibility (1/GPa) = 0.01503842
#
# Stress axis : x y z
#
# Youngs Moduli (GPa) = 48.29054 48.29054 79.23480
#
# Poissons Ratio (x) = 0.46390 0.39192
# Poissons Ratio (y) = 0.46390 0.39192
# Poissons Ratio (z) = 0.23886 0.23886
#
# Static dielectric constant tensor:
#      x y z
#    x 3.033920 0.000000 0.000000 
#    y 0.000000 3.033920 0.000000 
#    z 0.000000 0.000000 3.277100 
# 
# 
# High freq. dielectric constant tensor:
#      x y z
#    x 1.612340 0.000000 0.000000 
#    y 0.000000 1.612340 0.000000 
#    z 0.000000 0.000000 1.655770 
# 
# From -- ./inp_files/1182.got.cif
#   From: 2010.06.25/outbox.cif.g09.slc.cpg/sg190_1_cif.got.tgz:1182.got - 2010.06.28 13:08:06.
