data_PCOD8328027
_publ_section_title
;
Structure prediction by ZEFSAII (Michael W. Deem and Ramdas Pophale) SiO2 
 PCOD8328027
Probable space group: P -6 2 C
;
_chemical_formula_sum "Si O2"
_cell_formula_units_Z 90
_cell_length_a 17.241202
_cell_length_b 17.241202
_cell_length_c 18.240392
_cell_angle_alpha 90.000000
_cell_angle_beta 90.000000
_cell_angle_gamma 120.000000
_cell_volume 4695.694989
_symmetry_space_group_name_H-M "P -6 2 C"
_symmetry_group_IT_number 190
_symmetry_cell_setting 'hexagonal'
loop_
_space_group_symop_operation_xyz
x,y,z
-x+y,-x,1/2-z
-y,x-y,z
x,y,1/2-z
-x+y,-x,z
-y,x-y,1/2-z
x-y,-y,-z
-x,-x+y,-z
y,x,-z
y,x,1/2+z
x-y,-y,1/2+z
-x,-x+y,1/2+z
loop_
_atom_site_type_symbol
_atom_site_label
_atom_site_fract_x
_atom_site_fract_y
_atom_site_fract_z
Si Si1 0.902550 0.729595 0.329593
Si Si2 0.221337 0.163595 0.564437
Si Si3 0.786223 0.760925 0.838098
Si Si4 0.125218 0.675911 0.633366
Si Si5 0.429072 0.475970 0.421547
Si Si6 0.175004 0.751053 0.476662
Si Si7 0.416808 0.773752 0.750000
Si Si8 0.336773 0.930785 0.066978
O O1 0.933758 0.774942 0.250000
O O2 0.827445 0.750395 0.359451
O O3 0.860842 0.623405 0.322571
O O4 0.987569 0.763871 0.380734
O O5 0.148151 0.148151 0.500000
O O6 0.200454 0.077554 0.613425
O O7 0.316603 0.205448 0.524021
O O8 0.802068 0.757761 0.750000
O O9 0.713260 0.662603 0.866349
O O10 0.172072 0.708845 0.555121
O O11 0.172362 0.629954 0.675831
O O12 0.021190 0.599049 0.633877
O O13 0.447905 0.447905 0.500000
O O14 0.332551 0.471395 0.419841
O O15 0.510347 0.573765 0.400487
O O16 0.275641 0.828306 0.459720
O O17 0.431258 0.687614 0.750000
O O18 0.356972 0.000000 0.000000
#
# Coordination Sequence:
#
# PCOD8328027 Si02
#       8
#    12  12  12  12  12  12   6  12
#     4  11  21  36  60  87 114 164 208 242 314 377
#     4  11  20  37  63  89 120 153 207 265 302 376
#     4  10  24  40  57  90 127 162 201 261 327 374
#     4  11  19  37  61  82 120 164 202 250 304 367
#     4   9  19  36  57  89 116 154 204 254 305 361
#     4  10  19  35  63  88 120 152 205 262 304 365
#     4  10  26  42  52  90 132 162 202 256 314 380
#     4  10  21  37  61  90 121 162 209 261 314 376
#
# _framework density 19.166491000000001
#
# number of rings (size 3 to 8) (size 9 to 14) (size 15 to 20)
#    0.133    1.600    3.333    1.600    1.867    4.267 
#    2.800    0.000    0.000    0.000    0.000    0.000 
#    0.000    0.000    0.000    0.000    0.000    0.000 
#
# Total GULP energy -1115393.056933 kJ/mol
# GULP energy per Si atom -12393.256188 kJ/mol
# Density = 1.912287 g / cm^3
# Si number density = 19.166491 Si / 1000 Ang^3
#
#
#
# Elastic Constant Matrix: (Units=GPa)
#
#
# Indices 1 2 3 4 5 6 
#
# 1 99.3318 33.4141 33.1711 0.0000 0.0000 0.0000
# 2 33.4141 99.3318 33.1711 0.0000 0.0000 0.0000
# 3 33.1711 33.1711 82.0327 0.0000 0.0000 0.0000
# 4 0.0000 0.0000 0.0000 20.2557 0.0000 0.0000
# 5 0.0000 0.0000 0.0000 0.0000 20.2557 0.0000
# 6 0.0000 0.0000 0.0000 0.0000 0.0000 32.9588
#
#
#
# Elastic Compliance Matrix: (Units=1/GPa)
#
#
# Indices 1 2 3 4 5 6 
#
# 1 0.012306 -0.002865 -0.003818 0.000000 0.000000 0.000000
# 2 -0.002865 0.012306 -0.003818 0.000000 0.000000 0.000000
# 3 -0.003818 -0.003818 0.015278 0.000000 0.000000 0.000000
# 4 0.000000 0.000000 0.000000 0.049369 0.000000 0.000000
# 5 0.000000 0.000000 0.000000 0.000000 0.049369 0.000000
# 6 0.000000 0.000000 0.000000 0.000000 0.000000 0.030341
#
#
# Mechanical properties :
#
#
# Convention : Reuss Voigt Hill
#
# Bulk Modulus (GPa) = 52.93988 53.35653 53.14820
# Shear Modulus (GPa) = 25.47590 26.75673 26.11631
#
# Velocity S-wave (km/s) = 3.64976 3.74038 3.69535
# Velocity P-wave (km/s) = 6.74107 6.82296 6.78214
#
# Compressibility (1/GPa) = 0.01888935
#
# Stress axis : x y z
#
# Youngs Moduli (GPa) = 81.26257 81.26257 65.45489
#
# Poissons Ratio (x) = 0.23279 0.24988
# Poissons Ratio (y) = 0.23279 0.24988
# Poissons Ratio (z) = 0.31023 0.31023
#
# Static dielectric constant tensor:
#      x y z
#    x 3.522590 0.000000 0.000000 
#    y 0.000000 3.522590 0.000000 
#    z 0.000000 0.000000 3.459850 
# 
# 
# High freq. dielectric constant tensor:
#      x y z
#    x 1.740590 0.000000 0.000000 
#    y 0.000000 1.740590 0.000000 
#    z 0.000000 0.000000 1.738680 
# 
# From -- ./inp_files/3951.got.cif
#   From: 2010.06.25/outbox.cif.g09.slc.cpg/sg190_2_cif.got.tgz:3951.got - 2010.06.28 13:08:06.
