data_PCOD8328531
_publ_section_title
;
Structure prediction by ZEFSAII (Michael W. Deem and Ramdas Pophale) SiO2 
 PCOD8328531
Probable space group: P 6/M M M
;
_chemical_formula_sum "Si O2"
_cell_formula_units_Z 144
_cell_length_a 21.939310
_cell_length_b 21.939310
_cell_length_c 20.973355
_cell_angle_alpha 90.000000
_cell_angle_beta 90.000000
_cell_angle_gamma 120.000000
_cell_volume 8742.677713
_symmetry_space_group_name_H-M "P 6/M M M"
_symmetry_group_IT_number 191
_symmetry_cell_setting 'hexagonal'
loop_
_space_group_symop_operation_xyz
x,y,z
x-y,x,z
-y,x-y,z
-x,-y,z
-x+y,-x,z
y,-x+y,z
x-y,-y,-z
-x,-x+y,-z
y,x,-z
-y,-x,-z
-x+y,y,-z
x,x-y,-z
-x,-y,-z
-x+y,-x,-z
y,-x+y,-z
x,y,-z
x-y,x,-z
-y,x-y,-z
-x+y,y,z
x,x-y,z
-y,-x,z
y,x,z
x-y,-y,z
-x,-x+y,z
loop_
_atom_site_type_symbol
_atom_site_label
_atom_site_fract_x
_atom_site_fract_y
_atom_site_fract_z
Si Si1 0.388872 0.309137 0.570823
Si Si2 0.921268 0.214737 0.318266
Si Si3 0.211830 0.922801 0.070968
Si Si4 0.522830 0.187913 0.629304
Si Si5 0.919956 0.528502 0.743994
Si Si6 0.740581 0.619350 0.809627
O O1 0.362038 0.277514 0.500000
O O2 0.374489 0.374489 0.581975
O O3 0.348941 0.250206 0.624455
O O4 0.471844 0.332830 0.572747
O O5 0.868793 0.131208 0.321042
O O6 0.915506 0.244804 0.250175
O O7 0.000000 0.228803 0.326919
O O8 0.129974 0.870027 0.084881
O O9 0.258751 0.912622 0.123145
O O10 0.221871 0.000000 0.076916
O O11 0.233556 0.910557 0.000000
O O12 0.602599 0.205197 0.616999
O O13 0.522748 0.261374 0.636868
O O14 0.488112 0.137654 0.689948
O O15 0.917385 0.458693 0.768585
O O16 0.895514 0.556431 0.803914
O O17 0.000000 0.584908 0.720656
O O18 0.795466 0.590931 0.809585
#
# Coordination Sequence:
#
# PCOD8328531 Si02
#       6
#    24  24  24  24  24  24
#     4  10  21  36  53  72  93 117 150 195 242 282
#     4  10  19  31  49  72  96 122 154 192 233 276
#     4   9  17  28  44  68  97 127 157 191 231 274
#     4  11  22  35  49  67  93 125 158 190 227 276
#     4  10  19  30  47  70  94 120 153 193 235 279
#     4  10  18  30  49  71  95 123 156 193 232 277
#
# _framework density 16.470927
#
# number of rings (size 3 to 8) (size 9 to 14) (size 15 to 20)
#    0.000    2.000    1.667    3.167    0.000    2.667 
#    0.000    0.833    0.000    2.167    0.000    3.500 
#    0.000    4.000    0.000    4.333    0.000    0.000 
#
# Total GULP energy -1784424.373465 kJ/mol
# GULP energy per Si atom -12391.835927 kJ/mol
# Density = 1.643344 g / cm^3
# Si number density = 16.470927 Si / 1000 Ang^3
#
#
#
# Elastic Constant Matrix: (Units=GPa)
#
#
# Indices 1 2 3 4 5 6 
#
# 1 104.3815 60.5301 40.7149 0.0000 0.0000 0.0000
# 2 60.5301 104.3815 40.7149 0.0000 0.0000 0.0000
# 3 40.7149 40.7149 106.4452 0.0000 0.0000 0.0000
# 4 0.0000 0.0000 0.0000 18.0942 0.0000 0.0000
# 5 0.0000 0.0000 0.0000 0.0000 18.0942 0.0000
# 6 0.0000 0.0000 0.0000 0.0000 0.0000 21.9257
#
#
#
# Elastic Compliance Matrix: (Units=1/GPa)
#
#
# Indices 1 2 3 4 5 6 
#
# 1 0.015140 -0.007664 -0.002859 0.000000 0.000000 0.000000
# 2 -0.007664 0.015140 -0.002859 0.000000 0.000000 0.000000
# 3 -0.002859 -0.002859 0.011582 0.000000 0.000000 0.000000
# 4 0.000000 0.000000 0.000000 0.055266 0.000000 0.000000
# 5 0.000000 0.000000 0.000000 0.000000 0.055266 0.000000
# 6 0.000000 0.000000 0.000000 0.000000 0.000000 0.045609
#
#
# Mechanical properties :
#
#
# Convention : Reuss Voigt Hill
#
# Bulk Modulus (GPa) = 66.24400 66.56979 66.40689
# Shear Modulus (GPa) = 21.75792 23.17272 22.46532
#
# Velocity S-wave (km/s) = 3.63848 3.75492 3.69716
# Velocity P-wave (km/s) = 7.61298 7.70088 7.65705
#
# Compressibility (1/GPa) = 0.01509571
#
# Stress axis : x y z
#
# Youngs Moduli (GPa) = 66.05003 66.05003 86.34110
#
# Poissons Ratio (x) = 0.50622 0.24689
# Poissons Ratio (y) = 0.50622 0.24689
# Poissons Ratio (z) = 0.18887 0.18887
#
# Static dielectric constant tensor:
#      x y z
#    x 3.178300 0.000000 0.000000 
#    y 0.000000 3.178300 0.000000 
#    z 0.000000 0.000000 3.159480 
# 
# 
# High freq. dielectric constant tensor:
#      x y z
#    x 1.627620 0.000000 0.000000 
#    y 0.000000 1.627620 0.000000 
#    z 0.000000 0.000000 1.627840 
# 
# From -- ./inp_files/7634.got.cif
#   From: 2010.03.12/outbox.cif.g09.slc.cpg/sg191_4_cif.got.tgz:7634.got - 2010.04.01 12:09:02.
