data_PCOD8328301
_publ_section_title
;
Structure prediction by ZEFSAII (Michael W. Deem and Ramdas Pophale) SiO2 
 PCOD8328301
Probable space group: P 6/M M M
;
_chemical_formula_sum "Si O2"
_cell_formula_units_Z 156
_cell_length_a 19.070589
_cell_length_b 19.070589
_cell_length_c 33.225993
_cell_angle_alpha 90.000000
_cell_angle_beta 90.000000
_cell_angle_gamma 120.000000
_cell_volume 10464.941719
_symmetry_space_group_name_H-M "P 6/M M M"
_symmetry_group_IT_number 191
_symmetry_cell_setting 'hexagonal'
loop_
_space_group_symop_operation_xyz
x,y,z
x-y,x,z
-y,x-y,z
-x,-y,z
-x+y,-x,z
y,-x+y,z
x-y,-y,-z
-x,-x+y,-z
y,x,-z
-y,-x,-z
-x+y,y,-z
x,x-y,-z
-x,-y,-z
-x+y,-x,-z
y,-x+y,-z
x,y,-z
x-y,x,-z
-y,x-y,-z
-x+y,y,z
x,x-y,z
-y,-x,z
y,x,z
x-y,-y,z
-x,-x+y,z
loop_
_atom_site_type_symbol
_atom_site_label
_atom_site_fract_x
_atom_site_fract_y
_atom_site_fract_z
Si Si1 0.089978 0.462110 0.178885
Si Si2 0.171482 0.503279 0.096320
Si Si3 0.629315 0.091355 0.339666
Si Si4 0.826621 0.495402 0.580170
Si Si5 0.092145 0.343655 0.047359
Si Si6 0.331296 0.827953 0.258884
Si Si7 0.462100 0.091476 0.500000
O O1 0.085311 0.542656 0.182996
O O2 0.146714 0.470109 0.141612
O O3 0.126289 0.448271 0.220090
O O4 0.000000 0.386064 0.172186
O O5 0.265712 0.531424 0.090192
O O6 0.158231 0.579116 0.087325
O O7 0.115132 0.429954 0.066674
O O8 0.548198 0.096396 0.339738
O O9 0.681300 0.133310 0.379726
O O10 0.681144 0.134093 0.299765
O O11 0.610506 0.000000 0.339448
O O12 0.731685 0.463369 0.580216
O O13 0.840839 0.420420 0.580171
O O14 0.866515 0.547957 0.540026
O O15 0.158453 0.316905 0.060376
O O16 0.000000 0.275627 0.060229
O O17 0.096037 0.356999 0.000000
O O18 0.418366 0.836732 0.258805
O O19 0.265922 0.734079 0.256679
O O20 0.548757 0.097514 0.500000
O O21 0.390030 0.000000 0.500000
#
# Coordination Sequence:
#
# PCOD8328301 Si02
#       7
#    24  24  24  24  24  24  12
#     4   9  17  28  41  56  75 102 136 172 209 249
#     4  10  19  30  44  63  88 117 149 184 220 255
#     4   9  17  28  40  52  68  93 123 152 184 226
#     4  10  18  27  39  55  74  93 116 150 193 232
#     4   9  18  32  49  68  89 114 144 178 217 261
#     4  10  18  27  39  55  75  97 123 158 202 246
#     4   9  17  28  40  52  68  93 122 148 178 220
#
# _framework density 14.906916000000001
#
# number of rings (size 3 to 8) (size 9 to 14) (size 15 to 20)
#    0.000    2.538    0.000    3.000    0.000    4.923 
#    0.000    4.615    0.000    1.077    0.000    1.077 
#    0.000    0.000    0.000    0.000    0.000    0.000 
#
# Total GULP energy -1933706.038862 kJ/mol
# GULP energy per Si atom -12395.551531 kJ/mol
# Density = 1.487299 g / cm^3
# Si number density = 14.906916 Si / 1000 Ang^3
#
#
#
# Elastic Constant Matrix: (Units=GPa)
#
#
# Indices 1 2 3 4 5 6 
#
# 1 54.7678 32.4286 31.1164 0.0000 0.0000 0.0000
# 2 32.4286 54.7678 31.1164 0.0000 0.0000 0.0000
# 3 31.1164 31.1164 76.8838 0.0000 0.0000 0.0000
# 4 0.0000 0.0000 0.0000 18.2761 0.0000 0.0000
# 5 0.0000 0.0000 0.0000 0.0000 18.2761 0.0000
# 6 0.0000 0.0000 0.0000 0.0000 0.0000 11.1696
#
#
#
# Elastic Compliance Matrix: (Units=1/GPa)
#
#
# Indices 1 2 3 4 5 6 
#
# 1 0.030445 -0.014319 -0.006527 0.000000 0.000000 0.000000
# 2 -0.014319 0.030445 -0.006527 0.000000 0.000000 0.000000
# 3 -0.006527 -0.006527 0.018290 0.000000 0.000000 0.000000
# 4 0.000000 0.000000 0.000000 0.054716 0.000000 0.000000
# 5 0.000000 0.000000 0.000000 0.000000 0.054716 0.000000
# 6 0.000000 0.000000 0.000000 0.000000 0.000000 0.089529
#
#
# Mechanical properties :
#
#
# Convention : Reuss Voigt Hill
#
# Bulk Modulus (GPa) = 40.92358 41.74915 41.33636
# Shear Modulus (GPa) = 14.66139 15.66155 15.16147
#
# Velocity S-wave (km/s) = 3.13953 3.24485 3.19262
# Velocity P-wave (km/s) = 6.37609 6.48892 6.43275
#
# Compressibility (1/GPa) = 0.02443579
#
# Stress axis : x y z
#
# Youngs Moduli (GPa) = 32.84566 32.84566 54.67571
#
# Poissons Ratio (x) = 0.47031 0.35685
# Poissons Ratio (y) = 0.47031 0.35685
# Poissons Ratio (z) = 0.21438 0.21438
#
# Static dielectric constant tensor:
#      x y z
#    x 2.701630 0.000000 0.000000 
#    y 0.000000 2.701630 0.000000 
#    z 0.000000 0.000000 3.256710 
# 
# 
# High freq. dielectric constant tensor:
#      x y z
#    x 1.537980 0.000000 0.000000 
#    y 0.000000 1.537980 0.000000 
#    z 0.000000 0.000000 1.592350 
# 
# From -- ./inp_files/10800.got.cif
#   From: 2010.03.12/outbox.cif.g09.slc.cpg/sg191_6_cif.got.tgz:10800.got - 2010.04.01 12:09:02.
