data_PCOD8328782
_publ_section_title
;
Structure prediction by ZEFSAII (Michael W. Deem and Ramdas Pophale) SiO2 
 PCOD8328782
Probable space group: P 6/M M M
;
_chemical_formula_sum "Si O2"
_cell_formula_units_Z 108
_cell_length_a 17.502126
_cell_length_b 17.502126
_cell_length_c 26.942227
_cell_angle_alpha 90.000000
_cell_angle_beta 90.000000
_cell_angle_gamma 120.000000
_cell_volume 7147.361274
_symmetry_space_group_name_H-M "P 6/M M M"
_symmetry_group_IT_number 191
_symmetry_cell_setting 'hexagonal'
loop_
_space_group_symop_operation_xyz
x,y,z
x-y,x,z
-y,x-y,z
-x,-y,z
-x+y,-x,z
y,-x+y,z
x-y,-y,-z
-x,-x+y,-z
y,x,-z
-y,-x,-z
-x+y,y,-z
x,x-y,-z
-x,-y,-z
-x+y,-x,-z
y,-x+y,-z
x,y,-z
x-y,x,-z
-y,x-y,-z
-x+y,y,z
x,x-y,z
-y,-x,z
y,x,z
x-y,-y,z
-x,-x+y,z
loop_
_atom_site_type_symbol
_atom_site_label
_atom_site_fract_x
_atom_site_fract_y
_atom_site_fract_z
Si Si1 0.331515 0.844505 0.194266
Si Si2 0.156545 0.488087 0.000000
Si Si3 0.591141 0.591141 0.623853
Si Si4 0.373820 0.100076 0.903534
Si Si5 0.000000 0.590508 0.264951
Si Si6 0.843383 0.510600 0.556312
O O1 0.418669 0.837338 0.191146
O O2 0.250405 0.749596 0.208326
O O3 0.318573 0.878645 0.141868
O O4 0.337869 0.912602 0.236462
O O5 0.109267 0.429157 0.952388
O O6 0.260499 0.520998 0.000000
O O7 0.143486 0.571743 0.000000
O O8 0.500000 0.500000 0.623864
O O9 0.624926 0.624926 0.679517
O O10 0.579271 0.664088 0.594367
O O11 0.336031 0.168016 0.904419
O O12 0.291962 0.000000 0.899750
O O13 0.000000 0.500000 0.267525
O O14 0.875027 0.541968 0.500000
O O15 0.753960 0.507920 0.569153
O O16 0.826553 0.413277 0.564854
#
# Coordination Sequence:
#
# PCOD8328782 Si02
#       6
#    24  12  12  24  12  24
#     4  10  19  31  47  65  87 115 149 186 225 267
#     4  10  20  31  46  69  98 128 157 188 226 273
#     4   9  17  28  41  58  81 112 146 181 221 258
#     4  10  20  33  49  69  92 120 151 187 231 279
#     4   9  18  31  44  58  82 113 145 184 222 258
#     4   9  16  26  41  61  85 113 145 180 217 258
#
# _framework density 15.110472
#
# number of rings (size 3 to 8) (size 9 to 14) (size 15 to 20)
#    0.000    2.444    1.111    1.889    0.000    4.889 
#    0.000    2.222    0.000    2.889    0.000    0.000 
#    0.000    2.667    0.000    0.333    0.000    7.667 
#
# Total GULP energy -1339086.035595 kJ/mol
# GULP energy per Si atom -12398.944774 kJ/mol
# Density = 1.507608 g / cm^3
# Si number density = 15.110472 Si / 1000 Ang^3
#
#
#
# Elastic Constant Matrix: (Units=GPa)
#
#
# Indices 1 2 3 4 5 6 
#
# 1 90.6744 55.9902 49.2418 0.0000 0.0000 0.0000
# 2 55.9902 90.6744 49.2418 0.0000 0.0000 0.0000
# 3 49.2418 49.2418 127.9427 0.0000 0.0000 0.0000
# 4 0.0000 0.0000 0.0000 3.6553 0.0000 0.0000
# 5 0.0000 0.0000 0.0000 0.0000 3.6553 0.0000
# 6 0.0000 0.0000 0.0000 0.0000 0.0000 17.3421
#
#
#
# Elastic Compliance Matrix: (Units=1/GPa)
#
#
# Indices 1 2 3 4 5 6 
#
# 1 0.019013 -0.009819 -0.003539 0.000000 0.000000 0.000000
# 2 -0.009819 0.019013 -0.003539 0.000000 0.000000 0.000000
# 3 -0.003539 -0.003539 0.010540 0.000000 0.000000 0.000000
# 4 0.000000 0.000000 0.000000 0.273574 0.000000 0.000000
# 5 0.000000 0.000000 0.000000 0.000000 0.273574 0.000000
# 6 0.000000 0.000000 0.000000 0.000000 0.000000 0.057663
#
#
# Mechanical properties :
#
#
# Convention : Reuss Voigt Hill
#
# Bulk Modulus (GPa) = 67.68636 68.69321 68.18979
# Shear Modulus (GPa) = 7.22446 15.25173 11.23809
#
# Velocity S-wave (km/s) = 2.18894 3.18047 2.73010
# Velocity P-wave (km/s) = 7.16102 7.68418 7.42721
#
# Compressibility (1/GPa) = 0.01477403
#
# Stress axis : x y z
#
# Youngs Moduli (GPa) = 52.59551 52.59551 94.87742
#
# Poissons Ratio (x) = 0.51641 0.33574
# Poissons Ratio (y) = 0.51641 0.33574
# Poissons Ratio (z) = 0.18612 0.18612
#
# Static dielectric constant tensor:
#      x y z
#    x 2.834900 0.000000 0.000000 
#    y 0.000000 2.834900 0.000000 
#    z 0.000000 0.000000 3.165650 
# 
# 
# High freq. dielectric constant tensor:
#      x y z
#    x 1.559830 0.000000 0.000000 
#    y 0.000000 1.559830 0.000000 
#    z 0.000000 0.000000 1.592300 
# 
# From -- ./inp_files/8452.got.cif
#   From: 2010.03.12/outbox.cif.g09.slc.cpg/sg191_5_cif.got.tgz:8452.got - 2010.04.01 12:09:02.
