data_PCOD8328750
_publ_section_title
;
Structure prediction by ZEFSAII (Michael W. Deem and Ramdas Pophale) SiO2 
 PCOD8328750
Probable space group: P 6/M M M
;
_chemical_formula_sum "Si O2"
_cell_formula_units_Z 108
_cell_length_a 31.015780
_cell_length_b 31.015780
_cell_length_c 8.050098
_cell_angle_alpha 90.000000
_cell_angle_beta 90.000000
_cell_angle_gamma 120.000000
_cell_volume 6706.519846
_symmetry_space_group_name_H-M "P 6/M M M"
_symmetry_group_IT_number 191
_symmetry_cell_setting 'hexagonal'
loop_
_space_group_symop_operation_xyz
x,y,z
x-y,x,z
-y,x-y,z
-x,-y,z
-x+y,-x,z
y,-x+y,z
x-y,-y,-z
-x,-x+y,-z
y,x,-z
-y,-x,-z
-x+y,y,-z
x,x-y,-z
-x,-y,-z
-x+y,-x,-z
y,-x+y,-z
x,y,-z
x-y,x,-z
-y,x-y,-z
-x+y,y,z
x,x-y,z
-y,-x,z
y,x,z
x-y,-y,z
-x,-x+y,z
loop_
_atom_site_type_symbol
_atom_site_label
_atom_site_fract_x
_atom_site_fract_y
_atom_site_fract_z
Si Si1 0.799657 0.496853 0.314793
Si Si2 0.796745 0.851345 0.692578
Si Si3 0.147283 0.391168 0.306327
Si Si4 0.665905 0.434546 0.000000
Si Si5 0.703709 0.944642 0.809359
O O1 0.808983 0.481053 0.500000
O O2 0.747504 0.495007 0.319921
O O3 0.842177 0.553132 0.272121
O O4 0.799638 0.461450 0.167674
O O5 0.809259 0.860729 0.500000
O O6 0.806298 0.903149 0.775594
O O7 0.832097 0.832097 0.775425
O O8 0.738957 0.809508 0.709696
O O9 0.143369 0.380193 0.500000
O O10 0.192148 0.384295 0.231469
O O11 0.094826 0.353797 0.222654
O O12 0.621388 0.378613 0.000000
O O13 0.716929 0.433857 0.000000
O O14 0.715385 0.000000 0.755766
O O15 0.716655 0.944228 0.000000
#
# Coordination Sequence:
#
# PCOD8328750 Si02
#       5
#    24  24  24  12  24
#     4   8  16  30  45  64  90 118 152 192 227 263
#     4   9  17  29  43  57  76 105 139 173 211 258
#     4   9  17  29  45  63  83 112 149 182 214 257
#     4  10  19  30  46  68  95 127 159 189 222 259
#     4  10  20  29  38  59  89 114 138 171 211 259
#
# _framework density 16.103731
#
# number of rings (size 3 to 8) (size 9 to 14) (size 15 to 20)
#    0.000    2.889    0.000    2.778    1.556    5.333 
#    0.000    0.000    0.000    1.556    0.000    1.556 
#    0.000    1.778    0.000   10.444    0.000    5.778 
#
# Total GULP energy -1338358.394642 kJ/mol
# GULP energy per Si atom -12392.207358 kJ/mol
# Density = 1.606708 g / cm^3
# Si number density = 16.103731 Si / 1000 Ang^3
#
#
#
# Elastic Constant Matrix: (Units=GPa)
#
#
# Indices 1 2 3 4 5 6 
#
# 1 72.8081 28.3825 31.6733 0.0000 0.0000 0.0000
# 2 28.3825 72.8081 31.6733 0.0000 0.0000 0.0000
# 3 31.6733 31.6733 66.3111 0.0000 0.0000 0.0000
# 4 0.0000 0.0000 0.0000 17.3140 0.0000 0.0000
# 5 0.0000 0.0000 0.0000 0.0000 17.3140 0.0000
# 6 0.0000 0.0000 0.0000 0.0000 0.0000 22.2128
#
#
#
# Elastic Compliance Matrix: (Units=1/GPa)
#
#
# Indices 1 2 3 4 5 6 
#
# 1 0.018304 -0.004206 -0.006734 0.000000 0.000000 0.000000
# 2 -0.004206 0.018304 -0.006734 0.000000 0.000000 0.000000
# 3 -0.006734 -0.006734 0.021513 0.000000 0.000000 0.000000
# 4 0.000000 0.000000 0.000000 0.057757 0.000000 0.000000
# 5 0.000000 0.000000 0.000000 0.000000 0.057757 0.000000
# 6 0.000000 0.000000 0.000000 0.000000 0.000000 0.045019
#
#
# Mechanical properties :
#
#
# Convention : Reuss Voigt Hill
#
# Bulk Modulus (GPa) = 43.91040 43.93173 43.92107
# Shear Modulus (GPa) = 19.11379 19.38135 19.24757
#
# Velocity S-wave (km/s) = 3.44890 3.47296 3.46095
# Velocity P-wave (km/s) = 6.57163 6.58951 6.58058
#
# Compressibility (1/GPa) = 0.02277365
#
# Stress axis : x y z
#
# Youngs Moduli (GPa) = 54.63384 54.63384 46.48320
#
# Poissons Ratio (x) = 0.22978 0.31301
# Poissons Ratio (y) = 0.22978 0.31301
# Poissons Ratio (z) = 0.36789 0.36789
#
# Static dielectric constant tensor:
#      x y z
#    x 3.000230 0.000000 0.000000 
#    y 0.000000 3.000230 0.000000 
#    z 0.000000 0.000000 3.191970 
# 
# 
# High freq. dielectric constant tensor:
#      x y z
#    x 1.591270 0.000000 0.000000 
#    y 0.000000 1.591270 0.000000 
#    z 0.000000 0.000000 1.624780 
# 
# From -- ./inp_files/1679.got.cif
#   From: 2010.03.12/outbox.cif.g09.slc.cpg/sg191_1_cif.got.tgz:1679.got - 2010.04.01 12:09:02.
