data_PCOD8328105
_publ_section_title
;
Structure prediction by ZEFSAII (Michael W. Deem and Ramdas Pophale) SiO2 
 PCOD8328105
Probable space group: P -6 2 C
;
_chemical_formula_sum "Si O2"
_cell_formula_units_Z 42
_cell_length_a 8.633156
_cell_length_b 8.633156
_cell_length_c 32.626047
_cell_angle_alpha 90.000000
_cell_angle_beta 90.000000
_cell_angle_gamma 120.000000
_cell_volume 2105.883134
_symmetry_space_group_name_H-M "P -6 2 C"
_symmetry_group_IT_number 190
_symmetry_cell_setting 'hexagonal'
loop_
_space_group_symop_operation_xyz
x,y,z
-x+y,-x,1/2-z
-y,x-y,z
x,y,1/2-z
-x+y,-x,z
-y,x-y,1/2-z
x-y,-y,-z
-x,-x+y,-z
y,x,-z
y,x,1/2+z
x-y,-y,1/2+z
-x,-x+y,1/2+z
loop_
_atom_site_type_symbol
_atom_site_label
_atom_site_fract_x
_atom_site_fract_y
_atom_site_fract_z
Si Si1 0.996692 0.666666 0.370135
Si Si2 0.531762 0.663621 0.250000
Si Si3 0.003516 0.337379 0.162257
Si Si4 0.200706 0.196638 0.045003
O O1 0.986422 0.666085 0.419621
O O2 0.060037 0.528494 0.357610
O O3 0.805877 0.607568 0.349657
O O4 0.136528 0.864323 0.354539
O O5 0.330698 0.489475 0.250000
O O6 0.643545 0.662313 0.211151
O O7 0.173511 0.996428 0.049134
O O8 0.279645 0.279645 0.000000
#
# Coordination Sequence:
#
# PCOD8328105 Si02
#       4
#    12   6  12  12
#     4  12  22  42  60 101 118 173 206 256 311 376
#     4  10  20  42  62  92 122 162 204 258 318 368
#     4  12  24  39  68  86 134 160 211 258 309 374
#     4   8  15  33  63  91 124 163 204 256 312 374
#
# _framework density 19.944127999999999
#
# number of rings (size 3 to 8) (size 9 to 14) (size 15 to 20)
#    0.857    0.571    5.714    1.714    0.000    2.286 
#    0.000    2.857    0.000    0.000    0.000    0.000 
#    0.000    0.000    0.000    0.000    0.000    0.000 
#
# Total GULP energy -520712.246330 kJ/mol
# GULP energy per Si atom -12397.910627 kJ/mol
# Density = 1.989873 g / cm^3
# Si number density = 19.944128 Si / 1000 Ang^3
#
#
#
# Elastic Constant Matrix: (Units=GPa)
#
#
# Indices 1 2 3 4 5 6 
#
# 1 57.8787 7.9749 36.6194 0.0000 0.0000 0.0000
# 2 7.9749 57.8787 36.6194 0.0000 0.0000 0.0000
# 3 36.6194 36.6194 214.3782 0.0000 0.0000 0.0000
# 4 0.0000 0.0000 0.0000 20.5429 0.0000 0.0000
# 5 0.0000 0.0000 0.0000 0.0000 20.5429 0.0000
# 6 0.0000 0.0000 0.0000 0.0000 0.0000 24.9519
#
#
#
# Elastic Compliance Matrix: (Units=1/GPa)
#
#
# Indices 1 2 3 4 5 6 
#
# 1 0.019393 -0.000646 -0.003202 0.000000 0.000000 0.000000
# 2 -0.000646 0.019393 -0.003202 0.000000 0.000000 0.000000
# 3 -0.003202 -0.003202 0.005759 0.000000 0.000000 0.000000
# 4 0.000000 0.000000 0.000000 0.048679 0.000000 0.000000
# 5 0.000000 0.000000 0.000000 0.000000 0.048679 0.000000
# 6 0.000000 0.000000 0.000000 0.000000 0.000000 0.040077
#
#
# Mechanical properties :
#
#
# Convention : Reuss Voigt Hill
#
# Bulk Modulus (GPa) = 32.84849 54.72925 43.78887
# Shear Modulus (GPa) = 24.24516 29.80232 27.02374
#
# Velocity S-wave (km/s) = 3.49041 3.86980 3.68499
# Velocity P-wave (km/s) = 5.72275 6.88970 6.33316
#
# Compressibility (1/GPa) = 0.03044280
#
# Stress axis : x y z
#
# Youngs Moduli (GPa) = 51.56620 51.56620 173.65202
#
# Poissons Ratio (x) = 0.03331 0.55607
# Poissons Ratio (y) = 0.03331 0.55607
# Poissons Ratio (z) = 0.16513 0.16513
#
# Static dielectric constant tensor:
#      x y z
#    x 3.243480 0.000000 0.000000 
#    y 0.000000 3.243480 0.000000 
#    z 0.000000 0.000000 3.701010 
# 
# 
# High freq. dielectric constant tensor:
#      x y z
#    x 1.751310 0.000000 0.000000 
#    y 0.000000 1.751310 0.000000 
#    z 0.000000 0.000000 1.796940 
# 
# From -- ./inp_files/5085.got.cif
#   From: 2010.06.25/outbox.cif.g09.slc.cpg/sg190_3_cif.got.tgz:5085.got - 2010.06.28 13:08:06.
