data_PCOD8328996
_publ_section_title
;
Structure prediction by ZEFSAII (Michael W. Deem and Ramdas Pophale) SiO2 
 PCOD8328996
Probable space group: P 6/M M M
;
_chemical_formula_sum "Si O2"
_cell_formula_units_Z 132
_cell_length_a 17.925688
_cell_length_b 17.925688
_cell_length_c 27.727412
_cell_angle_alpha 90.000000
_cell_angle_beta 90.000000
_cell_angle_gamma 120.000000
_cell_volume 7715.989601
_symmetry_space_group_name_H-M "P 6/M M M"
_symmetry_group_IT_number 191
_symmetry_cell_setting 'hexagonal'
loop_
_space_group_symop_operation_xyz
x,y,z
x-y,x,z
-y,x-y,z
-x,-y,z
-x+y,-x,z
y,-x+y,z
x-y,-y,-z
-x,-x+y,-z
y,x,-z
-y,-x,-z
-x+y,y,-z
x,x-y,-z
-x,-y,-z
-x+y,-x,-z
y,-x+y,-z
x,y,-z
x-y,x,-z
-y,x-y,-z
-x+y,y,z
x,x-y,z
-y,-x,z
y,x,z
x-y,-y,z
-x,-x+y,z
loop_
_atom_site_type_symbol
_atom_site_label
_atom_site_fract_x
_atom_site_fract_y
_atom_site_fract_z
Si Si1 0.359927 0.097193 0.691389
Si Si2 0.366889 0.898717 0.224016
Si Si3 0.161171 0.667856 0.500000
Si Si4 0.734296 0.098221 0.136475
Si Si5 0.666483 0.504226 0.055187
Si Si6 0.359310 0.095981 0.418334
O O1 0.321106 0.160553 0.699721
O O2 0.442634 0.126716 0.725392
O O3 0.392353 0.104311 0.636534
O O4 0.284720 0.000000 0.703855
O O5 0.427832 0.855664 0.221709
O O6 0.300313 0.867128 0.179816
O O7 0.426569 0.000000 0.220097
O O8 0.261951 0.738050 0.500000
O O9 0.148176 0.574088 0.500000
O O10 0.115407 0.676626 0.452395
O O11 0.837747 0.162254 0.133347
O O12 0.688004 0.101351 0.087496
O O13 0.713232 0.000000 0.144569
O O14 0.738068 0.476135 0.062358
O O15 0.575150 0.424851 0.071305
O O16 0.663467 0.530052 0.000000
O O17 0.325445 0.162723 0.429174
O O18 0.280300 0.000000 0.428335
#
# Coordination Sequence:
#
# PCOD8328996 Si02
#       6
#    24  24  12  24  24  24
#     4   9  17  30  48  69  93 122 156 192 230 271
#     4   9  17  29  46  68  92 117 146 181 220 263
#     4  10  20  33  48  67  92 120 149 182 224 273
#     4  10  20  33  49  69  93 121 154 192 233 275
#     4   9  17  29  46  69  97 127 156 186 223 269
#     4   9  18  31  47  68  93 121 153 190 231 272
#
# _framework density 17.107333000000001
#
# number of rings (size 3 to 8) (size 9 to 14) (size 15 to 20)
#    0.000    2.727    0.000    1.636    0.000    3.636 
#    0.000    2.727    0.000    4.545    0.000    2.545 
#    0.000    6.545    0.000    4.909    0.000    0.000 
#
# Total GULP energy -1636357.514749 kJ/mol
# GULP energy per Si atom -12396.647839 kJ/mol
# Density = 1.706840 g / cm^3
# Si number density = 17.107333 Si / 1000 Ang^3
#
#
#
# Elastic Constant Matrix: (Units=GPa)
#
#
# Indices 1 2 3 4 5 6 
#
# 1 93.9678 61.1148 42.8550 0.0000 0.0000 0.0000
# 2 61.1148 93.9678 42.8550 0.0000 0.0000 0.0000
# 3 42.8550 42.8550 92.6840 0.0000 0.0000 0.0000
# 4 0.0000 0.0000 0.0000 22.4792 0.0000 0.0000
# 5 0.0000 0.0000 0.0000 0.0000 22.4792 0.0000
# 6 0.0000 0.0000 0.0000 0.0000 0.0000 16.4265
#
#
#
# Elastic Compliance Matrix: (Units=1/GPa)
#
#
# Indices 1 2 3 4 5 6 
#
# 1 0.019550 -0.010889 -0.004005 0.000000 0.000000 0.000000
# 2 -0.010889 0.019550 -0.004005 0.000000 0.000000 0.000000
# 3 -0.004005 -0.004005 0.014493 0.000000 0.000000 0.000000
# 4 0.000000 0.000000 0.000000 0.044486 0.000000 0.000000
# 5 0.000000 0.000000 0.000000 0.000000 0.044486 0.000000
# 6 0.000000 0.000000 0.000000 0.000000 0.000000 0.060877
#
#
# Mechanical properties :
#
#
# Convention : Reuss Voigt Hill
#
# Bulk Modulus (GPa) = 63.30554 63.80769 63.55661
# Shear Modulus (GPa) = 20.28367 21.19664 20.74015
#
# Velocity S-wave (km/s) = 3.44709 3.52382 3.48567
# Velocity P-wave (km/s) = 7.27520 7.34410 7.30973
#
# Compressibility (1/GPa) = 0.01579641
#
# Stress axis : x y z
#
# Youngs Moduli (GPa) = 51.15059 51.15059 68.99922
#
# Poissons Ratio (x) = 0.55695 0.27634
# Poissons Ratio (y) = 0.55695 0.27634
# Poissons Ratio (z) = 0.20485 0.20485
#
# Static dielectric constant tensor:
#      x y z
#    x 3.104320 0.000000 0.000000 
#    y 0.000000 3.104320 0.000000 
#    z 0.000000 0.000000 3.425900 
# 
# 
# High freq. dielectric constant tensor:
#      x y z
#    x 1.639530 0.000000 0.000000 
#    y 0.000000 1.639530 0.000000 
#    z 0.000000 0.000000 1.678660 
# 
# From -- ./inp_files/9799.got.cif
#   From: 2010.03.12/outbox.cif.g09.slc.cpg/sg191_5_cif.got.tgz:9799.got - 2010.04.01 12:09:02.
