data_PCOD8328034
_publ_section_title
;
Structure prediction by ZEFSAII (Michael W. Deem and Ramdas Pophale) SiO2 
 PCOD8328034
Probable space group: P -6 2 C
;
_chemical_formula_sum "Si O2"
_cell_formula_units_Z 52
_cell_length_a 11.416598
_cell_length_b 11.416598
_cell_length_c 22.262157
_cell_angle_alpha 90.000000
_cell_angle_beta 90.000000
_cell_angle_gamma 120.000000
_cell_volume 2512.877345
_symmetry_space_group_name_H-M "P -6 2 C"
_symmetry_group_IT_number 190
_symmetry_cell_setting 'hexagonal'
loop_
_space_group_symop_operation_xyz
x,y,z
-x+y,-x,1/2-z
-y,x-y,z
x,y,1/2-z
-x+y,-x,z
-y,x-y,1/2-z
x-y,-y,-z
-x,-x+y,-z
y,x,-z
y,x,1/2+z
x-y,-y,1/2+z
-x,-x+y,1/2+z
loop_
_atom_site_type_symbol
_atom_site_label
_atom_site_fract_x
_atom_site_fract_y
_atom_site_fract_z
Si Si1 0.727552 0.752539 0.621221
Si Si2 0.666668 0.333335 0.676827
Si Si3 0.099677 0.353971 0.750000
Si Si4 0.061157 0.538478 0.373514
Si Si5 0.947136 0.540867 0.250000
Si Si6 0.978761 0.736319 0.930672
O O1 0.734609 0.748347 0.693448
O O2 0.586325 0.615976 0.602712
O O3 0.860530 0.761465 0.593172
O O4 0.713717 0.880156 0.602156
O O5 0.666667 0.333334 0.750000
O O6 0.655661 0.454540 0.645374
O O7 0.247639 0.379451 0.750000
O O8 0.129412 0.508040 0.750000
O O9 0.060519 0.640025 0.423476
O O10 0.029327 0.588798 0.311399
O O11 0.000000 0.774982 0.000000
#
# Coordination Sequence:
#
# PCOD8328034 Si02
#       6
#    12   4   6  12   6  12
#     4  11  25  44  69 102 129 174 229 274 343 404
#     4  12  21  39  72 102 135 165 210 277 350 409
#     4  10  21  37  69 101 138 172 203 278 341 414
#     4  11  23  41  68  99 133 168 219 273 335 408
#     4  10  19  37  63  99 134 166 203 266 343 396
#     4  12  26  45  67  90 135 185 227 281 324 387
#
# _framework density 20.693408999999999
#
# number of rings (size 3 to 8) (size 9 to 14) (size 15 to 20)
#    0.000    0.923    5.769    1.385    0.000    3.692 
#    1.385    0.000    0.000    0.000    0.000    0.000 
#    0.000    0.000    0.000    0.000    0.000    0.000 
#
# Total GULP energy -644294.040915 kJ/mol
# GULP energy per Si atom -12390.270018 kJ/mol
# Density = 2.064631 g / cm^3
# Si number density = 20.693409 Si / 1000 Ang^3
#
#
#
# Elastic Constant Matrix: (Units=GPa)
#
#
# Indices 1 2 3 4 5 6 
#
# 1 98.2582 31.8447 40.7887 0.0000 -0.0001 0.0000
# 2 31.8447 98.2582 40.7888 -0.0001 0.0000 -0.0001
# 3 40.7887 40.7888 111.1505 -0.0001 0.0000 0.0000
# 4 0.0000 -0.0001 -0.0001 31.0311 0.0000 0.0000
# 5 -0.0001 0.0000 0.0000 0.0000 31.0312 -0.0001
# 6 0.0000 -0.0001 0.0000 0.0000 -0.0001 33.2067
#
#
#
# Elastic Compliance Matrix: (Units=1/GPa)
#
#
# Indices 1 2 3 4 5 6 
#
# 1 0.012520 -0.002537 -0.003664 0.000000 0.000000 0.000000
# 2 -0.002537 0.012520 -0.003664 0.000000 0.000000 0.000000
# 3 -0.003664 -0.003664 0.011686 0.000000 0.000000 0.000000
# 4 0.000000 0.000000 0.000000 0.032226 0.000000 0.000000
# 5 0.000000 0.000000 0.000000 0.000000 0.032226 0.000000
# 6 0.000000 0.000000 0.000000 0.000000 0.000000 0.030114
#
#
# Mechanical properties :
#
#
# Convention : Reuss Voigt Hill
#
# Bulk Modulus (GPa) = 58.83024 59.39015 59.11020
# Shear Modulus (GPa) = 31.91092 32.00344 31.95718
#
# Velocity S-wave (km/s) = 3.93119 3.93689 3.93404
# Velocity P-wave (km/s) = 7.00692 7.03049 7.01871
#
# Compressibility (1/GPa) = 0.01699806
#
# Stress axis : x y z
#
# Youngs Moduli (GPa) = 79.87039 79.87038 85.57499
#
# Poissons Ratio (x) = 0.20262 0.31351
# Poissons Ratio (y) = 0.20262 0.31351
# Poissons Ratio (z) = 0.29261 0.29261
#
# Static dielectric constant tensor:
#      x y z
#    x 3.757480 0.000000 0.000000 
#    y 0.000000 3.757480 0.000000 
#    z 0.000000 0.000000 3.698500 
# 
# 
# High freq. dielectric constant tensor:
#      x y z
#    x 1.814910 0.000000 0.000000 
#    y 0.000000 1.814910 0.000000 
#    z 0.000000 0.000000 1.805560 
# 
# From -- ./inp_files/4228.got.cif
#   From: 2010.06.25/outbox.cif.g09.slc.cpg/sg190_3_cif.got.tgz:4228.got - 2010.06.28 13:08:06.
