data_PCOD8328485
_publ_section_title
;
Structure prediction by ZEFSAII (Michael W. Deem and Ramdas Pophale) SiO2 
 PCOD8328485
Probable space group: P 6/M M M
;
_chemical_formula_sum "Si O2"
_cell_formula_units_Z 52
_cell_length_a 18.816689
_cell_length_b 18.816689
_cell_length_c 11.800832
_cell_angle_alpha 90.000000
_cell_angle_beta 90.000000
_cell_angle_gamma 120.000000
_cell_volume 3618.509135
_symmetry_space_group_name_H-M "P 6/M M M"
_symmetry_group_IT_number 191
_symmetry_cell_setting 'hexagonal'
loop_
_space_group_symop_operation_xyz
x,y,z
x-y,x,z
-y,x-y,z
-x,-y,z
-x+y,-x,z
y,-x+y,z
x-y,-y,-z
-x,-x+y,-z
y,x,-z
-y,-x,-z
-x+y,y,-z
x,x-y,-z
-x,-y,-z
-x+y,-x,-z
y,-x+y,-z
x,y,-z
x-y,x,-z
-y,x-y,-z
-x+y,y,z
x,x-y,z
-y,-x,z
y,x,z
x-y,-y,z
-x,-x+y,z
loop_
_atom_site_type_symbol
_atom_site_label
_atom_site_fract_x
_atom_site_fract_y
_atom_site_fract_z
Si Si1 0.093619 0.628856 0.759919
Si Si2 0.335267 0.831274 0.000000
Si Si3 0.666667 0.333334 0.365555
Si Si4 0.759388 0.518776 0.634261
O O1 0.109272 0.554636 0.725327
O O2 0.112337 0.650867 0.891543
O O3 0.148764 0.708806 0.683088
O O4 0.000000 0.603395 0.736357
O O5 0.244280 0.755720 0.000000
O O6 0.398705 0.797410 0.000000
O O7 0.666667 0.333334 0.500000
O O8 0.574463 0.287232 0.319106
O O9 0.762932 0.525863 0.500000
#
# Coordination Sequence:
#
# PCOD8328485 Si02
#       4
#    24  12   4  12
#     4  10  20  32  46  65  90 117 149 191 234 272
#     4  10  18  29  47  68  87 113 151 192 233 272
#     4   9  18  30  42  61  83 112 159 201 220 251
#     4  11  20  31  47  64  87 120 157 193 228 263
#
# _framework density 14.370559999999999
#
# number of rings (size 3 to 8) (size 9 to 14) (size 15 to 20)
#    0.000    1.846    4.615    0.923    0.000    3.692 
#    0.000    2.308    0.000    0.000    0.000    0.000 
#    0.000    0.000    0.000    0.692    0.000    6.000 
#
# Total GULP energy -644895.457606 kJ/mol
# GULP energy per Si atom -12401.835723 kJ/mol
# Density = 1.433785 g / cm^3
# Si number density = 14.370560 Si / 1000 Ang^3
#
#
#
# Elastic Constant Matrix: (Units=GPa)
#
#
# Indices 1 2 3 4 5 6 
#
# 1 90.3955 46.0811 38.2402 0.0000 0.0000 0.0000
# 2 46.0811 90.3958 38.2402 0.0000 0.0000 0.0000
# 3 38.2402 38.2402 88.0098 0.0000 0.0000 0.0000
# 4 0.0000 0.0000 0.0000 14.6683 0.0000 0.0000
# 5 0.0000 0.0000 0.0000 0.0000 14.6682 0.0000
# 6 0.0000 0.0000 0.0000 0.0000 0.0000 22.1572
#
#
#
# Elastic Compliance Matrix: (Units=1/GPa)
#
#
# Indices 1 2 3 4 5 6 
#
# 1 0.016126 -0.006440 -0.004208 0.000000 0.000000 0.000000
# 2 -0.006440 0.016126 -0.004208 0.000000 0.000000 0.000000
# 3 -0.004208 -0.004208 0.015019 0.000000 0.000000 0.000000
# 4 0.000000 0.000000 0.000000 0.068174 0.000000 0.000000
# 5 0.000000 0.000000 0.000000 0.000000 0.068175 0.000000
# 6 0.000000 0.000000 0.000000 0.000000 0.000000 0.045132
#
#
# Mechanical properties :
#
#
# Convention : Reuss Voigt Hill
#
# Bulk Modulus (GPa) = 56.95699 57.10268 57.02983
# Shear Modulus (GPa) = 18.91657 20.04803 19.48230
#
# Velocity S-wave (km/s) = 3.63208 3.73912 3.68599
# Velocity P-wave (km/s) = 7.57033 7.64615 7.60833
#
# Compressibility (1/GPa) = 0.01755711
#
# Stress axis : x y z
#
# Youngs Moduli (GPa) = 62.01233 62.01261 66.58027
#
# Poissons Ratio (x) = 0.39937 0.28020
# Poissons Ratio (y) = 0.39937 0.28019
# Poissons Ratio (z) = 0.26097 0.26097
#
# Static dielectric constant tensor:
#      x y z
#    x 2.650910 0.000000 0.000000 
#    y 0.000000 2.650910 0.000000 
#    z 0.000000 0.000000 2.800880 
# 
# 
# High freq. dielectric constant tensor:
#      x y z
#    x 1.521380 0.000000 0.000000 
#    y 0.000000 1.521380 0.000000 
#    z 0.000000 0.000000 1.560790 
# 
# From -- ./inp_files/2197.got.cif
#   From: 2010.03.12/outbox.cif.g09.slc.cpg/sg191_2_cif.got.tgz:2197.got - 2010.04.01 12:09:02.
