data_PCOD8328265
_publ_section_title
;
Structure prediction by ZEFSAII (Michael W. Deem and Ramdas Pophale) SiO2 
 PCOD8328265
Probable space group: P 6/M M M
;
_chemical_formula_sum "Si O2"
_cell_formula_units_Z 144
_cell_length_a 19.425200
_cell_length_b 19.425200
_cell_length_c 30.724764
_cell_angle_alpha 90.000000
_cell_angle_beta 90.000000
_cell_angle_gamma 120.000000
_cell_volume 10040.380818
_symmetry_space_group_name_H-M "P 6/M M M"
_symmetry_group_IT_number 191
_symmetry_cell_setting 'hexagonal'
loop_
_space_group_symop_operation_xyz
x,y,z
x-y,x,z
-y,x-y,z
-x,-y,z
-x+y,-x,z
y,-x+y,z
x-y,-y,-z
-x,-x+y,-z
y,x,-z
-y,-x,-z
-x+y,y,-z
x,x-y,-z
-x,-y,-z
-x+y,-x,-z
y,-x+y,-z
x,y,-z
x-y,x,-z
-y,x-y,-z
-x+y,y,z
x,x-y,z
-y,-x,z
y,x,z
x-y,-y,z
-x,-x+y,z
loop_
_atom_site_type_symbol
_atom_site_label
_atom_site_fract_x
_atom_site_fract_y
_atom_site_fract_z
Si Si1 0.626771 0.537031 0.452430
Si Si2 0.910465 0.373043 0.716801
Si Si3 0.661134 0.909313 0.948917
Si Si4 0.531795 0.907495 0.889916
Si Si5 0.668161 0.174483 0.197769
Si Si6 0.507276 0.331157 0.631629
O O1 0.667329 0.545370 0.500000
O O2 0.546133 0.453868 0.450592
O O3 0.607991 0.607991 0.446082
O O4 0.684121 0.542584 0.413056
O O5 0.906524 0.453262 0.716966
O O6 0.868781 0.321596 0.759945
O O7 0.868285 0.322085 0.673639
O O8 0.000000 0.390756 0.716476
O O9 0.685686 0.842843 0.935273
O O10 0.576448 0.887836 0.927856
O O11 0.730096 0.000000 0.935725
O O12 0.646374 0.905172 0.000000
O O13 0.439150 0.878299 0.902493
O O14 0.539977 0.865867 0.846528
O O15 0.575536 0.000000 0.879704
O O16 0.583662 0.167324 0.199923
O O17 0.734099 0.265902 0.198231
O O18 0.537431 0.268716 0.634923
O O19 0.581907 0.418094 0.631061
#
# Coordination Sequence:
#
# PCOD8328265 Si02
#       6
#    24  24  24  24  24  24
#     4   8  14  25  39  51  63  84 115 145 170 201
#     4   9  17  28  40  51  64  87 119 151 180 213
#     4   9  17  29  45  64  85 109 138 172 209 248
#     4   9  17  28  42  60  81 106 136 167 196 230
#     4  10  18  27  39  55  76  99 123 153 191 233
#     4  10  18  26  36  51  71  91 111 139 179 224
#
# _framework density 14.342086
#
# number of rings (size 3 to 8) (size 9 to 14) (size 15 to 20)
#    0.000    2.833    0.000    2.833    0.000    4.667 
#    0.000    3.333    0.000    1.500    0.000    1.167 
#    0.000    0.000    0.000    0.000    0.000    0.000 
#
# Total GULP energy -1784466.363016 kJ/mol
# GULP energy per Si atom -12392.127521 kJ/mol
# Density = 1.430944 g / cm^3
# Si number density = 14.342086 Si / 1000 Ang^3
#
#
#
# Elastic Constant Matrix: (Units=GPa)
#
#
# Indices 1 2 3 4 5 6 
#
# 1 44.0270 17.8324 31.4960 0.0000 0.0000 0.0000
# 2 17.8324 44.0270 31.4960 0.0000 0.0000 0.0000
# 3 31.4960 31.4960 86.6731 0.0000 0.0000 0.0000
# 4 0.0000 0.0000 0.0000 15.4355 0.0000 0.0000
# 5 0.0000 0.0000 0.0000 0.0000 15.4355 0.0000
# 6 0.0000 0.0000 0.0000 0.0000 0.0000 13.0973
#
#
#
# Elastic Compliance Matrix: (Units=1/GPa)
#
#
# Indices 1 2 3 4 5 6 
#
# 1 0.031919 -0.006257 -0.009325 0.000000 0.000000 0.000000
# 2 -0.006257 0.031919 -0.009325 0.000000 0.000000 0.000000
# 3 -0.009325 -0.009325 0.018315 0.000000 0.000000 0.000000
# 4 0.000000 0.000000 0.000000 0.064786 0.000000 0.000000
# 5 0.000000 0.000000 0.000000 0.000000 0.064786 0.000000
# 6 0.000000 0.000000 0.000000 0.000000 0.000000 0.076352
#
#
# Mechanical properties :
#
#
# Convention : Reuss Voigt Hill
#
# Bulk Modulus (GPa) = 30.92379 37.37510 34.14945
# Shear Modulus (GPa) = 14.34022 15.05381 14.69701
#
# Velocity S-wave (km/s) = 3.16550 3.24331 3.20464
# Velocity P-wave (km/s) = 5.91345 6.33575 6.12824
#
# Compressibility (1/GPa) = 0.03233756
#
# Stress axis : x y z
#
# Youngs Moduli (GPa) = 31.32956 31.32956 54.60031
#
# Poissons Ratio (x) = 0.19603 0.50916
# Poissons Ratio (y) = 0.19603 0.50916
# Poissons Ratio (z) = 0.29215 0.29215
#
# Static dielectric constant tensor:
#      x y z
#    x 2.635450 0.000000 0.000000 
#    y 0.000000 2.635450 0.000000 
#    z 0.000000 0.000000 3.207720 
# 
# 
# High freq. dielectric constant tensor:
#      x y z
#    x 1.515490 0.000000 0.000000 
#    y 0.000000 1.515490 0.000000 
#    z 0.000000 0.000000 1.567720 
# 
# From -- ./inp_files/9930.got.cif
#   From: 2010.03.12/outbox.cif.g09.slc.cpg/sg191_5_cif.got.tgz:9930.got - 2010.04.01 12:09:02.
