data_PCOD8328947
_publ_section_title
;
Structure prediction by ZEFSAII (Michael W. Deem and Ramdas Pophale) SiO2 
 PCOD8328947
Probable space group: P 6/M M M
;
_chemical_formula_sum "Si O2"
_cell_formula_units_Z 132
_cell_length_a 17.666406
_cell_length_b 17.666406
_cell_length_c 28.277816
_cell_angle_alpha 90.000000
_cell_angle_beta 90.000000
_cell_angle_gamma 120.000000
_cell_volume 7643.159274
_symmetry_space_group_name_H-M "P 6/M M M"
_symmetry_group_IT_number 191
_symmetry_cell_setting 'hexagonal'
loop_
_space_group_symop_operation_xyz
x,y,z
x-y,x,z
-y,x-y,z
-x,-y,z
-x+y,-x,z
y,-x+y,z
x-y,-y,-z
-x,-x+y,-z
y,x,-z
-y,-x,-z
-x+y,y,-z
x,x-y,-z
-x,-y,-z
-x+y,-x,-z
y,-x+y,-z
x,y,-z
x-y,x,-z
-y,x-y,-z
-x+y,y,z
x,x-y,z
-y,-x,z
y,x,z
x-y,-y,z
-x,-x+y,z
loop_
_atom_site_type_symbol
_atom_site_label
_atom_site_fract_x
_atom_site_fract_y
_atom_site_fract_z
Si Si1 0.841864 0.510053 0.274644
Si Si2 0.269625 0.367508 0.637240
Si Si3 0.362388 0.457935 0.000000
Si Si4 0.733022 0.633950 0.811187
Si Si5 0.666817 0.160627 0.553890
Si Si6 0.895737 0.532125 0.898845
O O1 0.739957 0.479914 0.269668
O O2 0.854029 0.427015 0.272419
O O3 0.880053 0.558729 0.323835
O O4 0.897244 0.574487 0.232415
O O5 0.165607 0.331214 0.640806
O O6 0.286421 0.286421 0.644371
O O7 0.307699 0.410434 0.586439
O O8 0.316132 0.458661 0.950221
O O9 0.371672 0.371672 0.000000
O O10 0.457312 0.542689 0.000000
O O11 0.836655 0.673310 0.802440
O O12 0.713530 0.713530 0.816713
O O13 0.707800 0.574140 0.857938
O O14 0.664811 0.130329 0.500000
O O15 0.573258 0.146515 0.569250
O O16 0.737130 0.262870 0.560250
O O17 0.859860 0.429930 0.887021
O O18 0.000000 0.581169 0.902153
#
# Coordination Sequence:
#
# PCOD8328947 Si02
#       6
#    24  24  12  24  24  24
#     4  10  20  33  50  73 101 130 155 178 208 253
#     4  10  21  35  50  69  93 122 156 195 238 278
#     4   7  10  18  35  60  87 112 138 170 208 253
#     4  10  20  32  46  65  89 118 152 192 236 276
#     4   9  17  29  46  69  98 131 163 192 223 264
#     4   8  13  23  41  64  88 113 141 173 212 262
#
# _framework density 17.270346
#
# number of rings (size 3 to 8) (size 9 to 14) (size 15 to 20)
#    0.000    2.818    0.000    3.091    0.000    4.364 
#    0.000    3.182    0.000    0.727    0.000    0.000 
#    0.000    4.364    0.000    4.545    0.000   10.727 
#
# Total GULP energy -1635901.198162 kJ/mol
# GULP energy per Si atom -12393.190895 kJ/mol
# Density = 1.723104 g / cm^3
# Si number density = 17.270346 Si / 1000 Ang^3
#
#
#
# Elastic Constant Matrix: (Units=GPa)
#
#
# Indices 1 2 3 4 5 6 
#
# 1 76.0177 51.2046 25.8824 0.0000 0.0000 0.0000
# 2 51.2046 76.0177 25.8824 0.0000 0.0000 0.0000
# 3 25.8824 25.8824 100.0321 0.0000 0.0000 0.0000
# 4 0.0000 0.0000 0.0000 13.3653 0.0000 0.0000
# 5 0.0000 0.0000 0.0000 0.0000 13.3653 0.0000
# 6 0.0000 0.0000 0.0000 0.0000 0.0000 12.4065
#
#
#
# Elastic Compliance Matrix: (Units=1/GPa)
#
#
# Indices 1 2 3 4 5 6 
#
# 1 0.024543 -0.015758 -0.002273 0.000000 0.000000 0.000000
# 2 -0.015758 0.024543 -0.002273 0.000000 0.000000 0.000000
# 3 -0.002273 -0.002273 0.011173 0.000000 0.000000 0.000000
# 4 0.000000 0.000000 0.000000 0.074820 0.000000 0.000000
# 5 0.000000 0.000000 0.000000 0.000000 0.074820 0.000000
# 6 0.000000 0.000000 0.000000 0.000000 0.000000 0.080603
#
#
# Mechanical properties :
#
#
# Convention : Reuss Voigt Hill
#
# Bulk Modulus (GPa) = 50.88787 50.88957 50.88872
# Shear Modulus (GPa) = 14.80771 17.76731 16.28751
#
# Velocity S-wave (km/s) = 2.93133 3.21093 3.07431
# Velocity P-wave (km/s) = 6.40206 6.57854 6.49090
#
# Compressibility (1/GPa) = 0.01965105
#
# Stress axis : x y z
#
# Youngs Moduli (GPa) = 40.74444 40.74444 89.50091
#
# Poissons Ratio (x) = 0.64205 0.20344
# Poissons Ratio (y) = 0.64205 0.20344
# Poissons Ratio (z) = 0.09262 0.09262
#
# Static dielectric constant tensor:
#      x y z
#    x 2.925970 0.000000 0.000000 
#    y 0.000000 2.925970 0.000000 
#    z 0.000000 0.000000 3.678050 
# 
# 
# High freq. dielectric constant tensor:
#      x y z
#    x 1.632840 0.000000 0.000000 
#    y 0.000000 1.632840 0.000000 
#    z 0.000000 0.000000 1.694150 
# 
# From -- ./inp_files/9698.got.cif
#   From: 2010.03.12/outbox.cif.g09.slc.cpg/sg191_5_cif.got.tgz:9698.got - 2010.04.01 12:09:02.
