data_PCOD8328193
_publ_section_title
;
Structure prediction by ZEFSAII (Michael W. Deem and Ramdas Pophale) SiO2 
 PCOD8328193
Probable space group: P -6 2 C
;
_chemical_formula_sum "Si O2"
_cell_formula_units_Z 48
_cell_length_a 19.769814
_cell_length_b 19.769814
_cell_length_c 8.998856
_cell_angle_alpha 90.000000
_cell_angle_beta 90.000000
_cell_angle_gamma 120.000000
_cell_volume 3045.952319
_symmetry_space_group_name_H-M "P -6 2 C"
_symmetry_group_IT_number 190
_symmetry_cell_setting 'hexagonal'
loop_
_space_group_symop_operation_xyz
x,y,z
-x+y,-x,1/2-z
-y,x-y,z
x,y,1/2-z
-x+y,-x,z
-y,x-y,1/2-z
x-y,-y,-z
-x,-x+y,-z
y,x,-z
y,x,1/2+z
x-y,-y,1/2+z
-x,-x+y,1/2+z
loop_
_atom_site_type_symbol
_atom_site_label
_atom_site_fract_x
_atom_site_fract_y
_atom_site_fract_z
Si Si1 0.260804 0.922663 0.916941
Si Si2 0.154236 0.510821 0.917361
Si Si3 0.568224 0.793216 0.077446
Si Si4 0.518341 0.917368 0.077300
O O1 0.231140 0.922556 0.750000
O O2 0.341816 0.919821 0.913605
O O3 0.196236 0.844637 0.004049
O O4 0.274055 0.000000 0.000000
O O5 0.179364 0.543208 0.750000
O O6 0.225471 0.506506 0.999203
O O7 0.133118 0.566504 0.007970
O O8 0.567003 0.773773 0.250000
O O9 0.565123 0.871478 0.050889
O O10 0.509264 0.930255 0.250000
O O11 0.567221 0.000000 0.000000
#
# Coordination Sequence:
#
# PCOD8328193 Si02
#       4
#    12  12  12  12
#     4   9  17  28  46  68  87 114 146 188 236 279
#     4   9  19  32  49  68  89 119 158 201 245 290
#     4   9  19  34  48  67  92 119 156 200 246 290
#     4  11  22  34  51  71  95 130 166 205 250 303
#
# _framework density 15.758618999999999
#
# number of rings (size 3 to 8) (size 9 to 14) (size 15 to 20)
#    1.500    1.000    0.000    3.000    0.000    6.000 
#    1.500    0.000    0.000    0.000    0.000    0.000 
#    0.000    0.000    0.000    0.750    0.000   12.000 
#
# Total GULP energy -594695.232051 kJ/mol
# GULP energy per Si atom -12389.484001 kJ/mol
# Density = 1.572275 g / cm^3
# Si number density = 15.758619 Si / 1000 Ang^3
#
#
#
# Elastic Constant Matrix: (Units=GPa)
#
#
# Indices 1 2 3 4 5 6 
#
# 1 39.4322 17.3059 34.6853 0.0000 0.0000 0.0000
# 2 17.3059 39.4322 34.6853 0.0000 0.0000 0.0000
# 3 34.6853 34.6853 139.0363 0.0000 0.0000 0.0000
# 4 0.0000 0.0000 0.0000 23.3158 0.0000 0.0000
# 5 0.0000 0.0000 0.0000 0.0000 23.3158 0.0000
# 6 0.0000 0.0000 0.0000 0.0000 0.0000 11.0632
#
#
#
# Elastic Compliance Matrix: (Units=1/GPa)
#
#
# Indices 1 2 3 4 5 6 
#
# 1 0.035277 -0.009917 -0.006327 0.000000 0.000000 0.000000
# 2 -0.009917 0.035277 -0.006327 0.000000 0.000000 0.000000
# 3 -0.006327 -0.006327 0.010349 0.000000 0.000000 0.000000
# 4 0.000000 0.000000 0.000000 0.042889 0.000000 0.000000
# 5 0.000000 0.000000 0.000000 0.000000 0.042889 0.000000
# 6 0.000000 0.000000 0.000000 0.000000 0.000000 0.090390
#
#
# Mechanical properties :
#
#
# Convention : Reuss Voigt Hill
#
# Bulk Modulus (GPa) = 27.96208 43.47264 35.71736
# Shear Modulus (GPa) = 15.91675 20.28725 18.10200
#
# Velocity S-wave (km/s) = 3.18155 3.59189 3.39293
# Velocity P-wave (km/s) = 5.59275 6.69692 6.16959
#
# Compressibility (1/GPa) = 0.03576271
#
# Stress axis : x y z
#
# Youngs Moduli (GPa) = 28.34671 28.34671 96.62834
#
# Poissons Ratio (x) = 0.28113 0.61132
# Poissons Ratio (y) = 0.28113 0.61132
# Poissons Ratio (z) = 0.17934 0.17934
#
# Static dielectric constant tensor:
#      x y z
#    x 2.677040 0.000000 0.000000 
#    y 0.000000 2.677040 0.000000 
#    z 0.000000 0.000000 3.187790 
# 
# 
# High freq. dielectric constant tensor:
#      x y z
#    x 1.568510 0.000000 0.000000 
#    y 0.000000 1.568510 0.000000 
#    z 0.000000 0.000000 1.631860 
# 
# From -- ./inp_files/1802.got.cif
#   From: 2010.06.25/outbox.cif.g09.slc.cpg/sg190_1_cif.got.tgz:1802.got - 2010.06.28 13:08:06.
