data_PCOD8328380
_publ_section_title
;
Structure prediction by ZEFSAII (Michael W. Deem and Ramdas Pophale) SiO2 
 PCOD8328380
Probable space group: P 6/M M M
;
_chemical_formula_sum "Si O2"
_cell_formula_units_Z 168
_cell_length_a 21.520225
_cell_length_b 21.520225
_cell_length_c 28.879431
_cell_angle_alpha 90.000000
_cell_angle_beta 90.000000
_cell_angle_gamma 120.000000
_cell_volume 11582.781914
_symmetry_space_group_name_H-M "P 6/M M M"
_symmetry_group_IT_number 191
_symmetry_cell_setting 'hexagonal'
loop_
_space_group_symop_operation_xyz
x,y,z
x-y,x,z
-y,x-y,z
-x,-y,z
-x+y,-x,z
y,-x+y,z
x-y,-y,-z
-x,-x+y,-z
y,x,-z
-y,-x,-z
-x+y,y,-z
x,x-y,-z
-x,-y,-z
-x+y,-x,-z
y,-x+y,-z
x,y,-z
x-y,x,-z
-y,x-y,-z
-x+y,y,z
x,x-y,z
-y,-x,z
y,x,z
x-y,-y,z
-x,-x+y,z
loop_
_atom_site_type_symbol
_atom_site_label
_atom_site_fract_x
_atom_site_fract_y
_atom_site_fract_z
Si Si1 0.520323 0.185944 0.630709
Si Si2 0.145085 0.435531 0.194458
Si Si3 0.388503 0.916871 0.113955
Si Si4 0.916431 0.529558 0.282273
Si Si5 0.080035 0.291791 0.859385
Si Si6 0.466233 0.386296 0.447904
Si Si7 0.281430 0.916376 0.949627
O O1 0.603540 0.207080 0.625978
O O2 0.516761 0.258381 0.637373
O O3 0.482650 0.131163 0.672634
O O4 0.473261 0.142713 0.585860
O O5 0.228566 0.457131 0.197448
O O6 0.133801 0.486610 0.158691
O O7 0.115844 0.440771 0.244090
O O8 0.095423 0.355466 0.175487
O O9 0.454768 0.909536 0.097061
O O10 0.332415 0.888295 0.071528
O O11 0.413376 0.000000 0.126746
O O12 0.909581 0.454791 0.265607
O O13 0.000000 0.587214 0.292404
O O14 0.128818 0.257636 0.846029
O O15 0.099785 0.319919 0.912234
O O16 0.000000 0.228627 0.853789
O O17 0.454058 0.355189 0.500000
O O18 0.538933 0.461068 0.444546
O O19 0.401358 0.401358 0.434129
O O20 0.328989 0.000000 0.957512
O O21 0.250122 0.879750 0.000000
#
# Coordination Sequence:
#
# PCOD8328380 Si02
#       7
#    24  24  24  24  24  24  24
#     4  10  19  29  40  57  82 109 135 163 200 244
#     4  10  18  28  42  59  79 101 126 157 195 236
#     4   9  16  26  41  59  79 103 130 159 189 224
#     4  10  19  30  45  61  77 100 131 166 199 233
#     4   9  17  28  42  59  79 102 125 151 185 227
#     4   8  14  26  43  59  75  99 134 173 206 235
#     4   8  14  24  37  56  81 102 120 147 185 224
#
# _framework density 14.504287
#
# number of rings (size 3 to 8) (size 9 to 14) (size 15 to 20)
#    0.000    2.857    0.000    4.000    0.000    3.714 
#    0.000    1.429    0.000    4.143    0.000    0.000 
#    0.000    0.000    0.000    4.429    0.000    0.000 
#
# Total GULP energy -2081548.227045 kJ/mol
# GULP energy per Si atom -12390.168018 kJ/mol
# Density = 1.447127 g / cm^3
# Si number density = 14.504287 Si / 1000 Ang^3
#
#
#
# Elastic Constant Matrix: (Units=GPa)
#
#
# Indices 1 2 3 4 5 6 
#
# 1 19.1500 72.3978 31.0044 0.0000 0.0000 0.0000
# 2 72.3978 19.1500 31.0044 0.0000 0.0000 0.0000
# 3 31.0044 31.0044 88.3890 0.0000 0.0000 0.0000
# 4 0.0000 0.0000 0.0000 7.2276 0.0000 0.0000
# 5 0.0000 0.0000 0.0000 0.0000 7.2276 0.0000
# 6 0.0000 0.0000 0.0000 0.0000 0.0000 -26.6239
#
#
#
# Elastic Compliance Matrix: (Units=1/GPa)
#
#
# Indices 1 2 3 4 5 6 
#
# 1 -0.002226 0.016554 -0.005026 0.000000 0.000000 0.000000
# 2 0.016554 -0.002226 -0.005026 0.000000 0.000000 0.000000
# 3 -0.005026 -0.005026 0.014839 0.000000 0.000000 0.000000
# 4 0.000000 0.000000 0.000000 0.138358 0.000000 0.000000
# 5 0.000000 0.000000 0.000000 0.000000 0.138358 0.000000
# 6 0.000000 0.000000 0.000000 0.000000 0.000000 -0.037560
#
#
# Mechanical properties :
#
#
# Convention : Reuss Voigt Hill
#
# Bulk Modulus (GPa) = 42.75067 43.94468 43.34767
# Shear Modulus (GPa) = 20.46375 -2.94822 8.75776
#
# Velocity S-wave (km/s) = 3.76024 -1.42726 2.45991
# Velocity P-wave (km/s) = 6.95636 5.25808 6.16597
#
# Compressibility (1/GPa) = 0.02339144
#
# Stress axis : x y z
#
# Youngs Moduli (GPa) = -449.14936 -449.14937 67.38860
#
# Poissons Ratio (x) = 7.43509 0.33867
# Poissons Ratio (y) = 7.43509 0.33867
# Poissons Ratio (z) = -2.25725 -2.25725
#
# Static dielectric constant tensor:
#      x y z
#    x 2.764510 0.000000 0.000000 
#    y 0.000000 2.764510 0.000000 
#    z 0.000000 0.000000 3.022910 
# 
# 
# High freq. dielectric constant tensor:
#      x y z
#    x 1.532640 0.000000 0.000000 
#    y 0.000000 1.532640 0.000000 
#    z 0.000000 0.000000 1.559390 
# 
# From -- ./inp_files/10056.got.cif
#   From: 2010.03.12/outbox.cif.g09.slc.cpg/sg191_6_cif.got.tgz:10056.got - 2010.04.01 12:09:02.
