data_PCOD8328714
_publ_section_title
;
Structure prediction by ZEFSAII (Michael W. Deem and Ramdas Pophale) SiO2 
 PCOD8328714
Probable space group: P 6/M M M
;
_chemical_formula_sum "Si O2"
_cell_formula_units_Z 72
_cell_length_a 17.793668
_cell_length_b 17.793668
_cell_length_c 15.358430
_cell_angle_alpha 90.000000
_cell_angle_beta 90.000000
_cell_angle_gamma 120.000000
_cell_volume 4211.224755
_symmetry_space_group_name_H-M "P 6/M M M"
_symmetry_group_IT_number 191
_symmetry_cell_setting 'hexagonal'
loop_
_space_group_symop_operation_xyz
x,y,z
x-y,x,z
-y,x-y,z
-x,-y,z
-x+y,-x,z
y,-x+y,z
x-y,-y,-z
-x,-x+y,-z
y,x,-z
-y,-x,-z
-x+y,y,-z
x,x-y,-z
-x,-y,-z
-x+y,-x,-z
y,-x+y,-z
x,y,-z
x-y,x,-z
-y,x-y,-z
-x+y,y,z
x,x-y,z
-y,-x,z
y,x,z
x-y,-y,z
-x,-x+y,z
loop_
_atom_site_type_symbol
_atom_site_label
_atom_site_fract_x
_atom_site_fract_y
_atom_site_fract_z
Si Si1 0.330871 0.494292 0.315351
Si Si2 0.459101 0.096066 0.500000
Si Si3 0.634775 0.102220 0.000000
Si Si4 0.731736 0.098859 0.836968
O O1 0.263989 0.527977 0.293799
O O2 0.428514 0.571487 0.302285
O O3 0.311740 0.457321 0.413496
O O4 0.314945 0.416540 0.251487
O O5 0.545248 0.090496 0.500000
O O6 0.375759 0.000000 0.500000
O O7 0.694681 0.131769 0.085301
O O8 0.572337 0.144674 0.000000
O O9 0.574861 0.000000 0.000000
O O10 0.835903 0.164098 0.832124
O O11 0.711196 0.000000 0.851413
#
# Coordination Sequence:
#
# PCOD8328714 Si02
#       4
#    24  12  12  24
#     4  10  19  30  45  66  93 124 157 193 232 274
#     4   9  17  28  42  60  84 119 161 197 227 264
#     4   9  17  30  49  72  96 122 152 183 217 262
#     4  10  20  33  50  71  94 122 156 195 237 280
#
# _framework density 17.097163999999999
#
# number of rings (size 3 to 8) (size 9 to 14) (size 15 to 20)
#    0.000    2.333    0.000    3.333    0.000    3.333 
#    0.000    1.667    0.000    5.000    0.000    0.000 
#    0.000    4.000    0.000    0.000    0.000   34.667 
#
# Total GULP energy -892626.766924 kJ/mol
# GULP energy per Si atom -12397.593985 kJ/mol
# Density = 1.705825 g / cm^3
# Si number density = 17.097164 Si / 1000 Ang^3
#
#
#
# Elastic Constant Matrix: (Units=GPa)
#
#
# Indices 1 2 3 4 5 6 
#
# 1 79.1496 45.0331 25.9287 0.0000 0.0000 0.0000
# 2 45.0331 79.1496 25.9287 0.0000 0.0000 0.0000
# 3 25.9287 25.9287 114.1553 0.0000 0.0000 0.0000
# 4 0.0000 0.0000 0.0000 20.4663 0.0000 0.0000
# 5 0.0000 0.0000 0.0000 0.0000 20.4663 0.0000
# 6 0.0000 0.0000 0.0000 0.0000 0.0000 17.0583
#
#
#
# Elastic Compliance Matrix: (Units=1/GPa)
#
#
# Indices 1 2 3 4 5 6 
#
# 1 0.019104 -0.010207 -0.002021 0.000000 0.000000 0.000000
# 2 -0.010207 0.019104 -0.002021 0.000000 0.000000 0.000000
# 3 -0.002021 -0.002021 0.009678 0.000000 0.000000 0.000000
# 4 0.000000 0.000000 0.000000 0.048861 0.000000 0.000000
# 5 0.000000 0.000000 0.000000 0.000000 0.048861 0.000000
# 6 0.000000 0.000000 0.000000 0.000000 0.000000 0.058623
#
#
# Mechanical properties :
#
#
# Convention : Reuss Voigt Hill
#
# Bulk Modulus (GPa) = 51.57810 51.80396 51.69103
# Shear Modulus (GPa) = 20.90385 23.30243 22.10314
#
# Velocity S-wave (km/s) = 3.50044 3.69581 3.59945
# Velocity P-wave (km/s) = 6.82426 6.96976 6.89739
#
# Compressibility (1/GPa) = 0.01938807
#
# Stress axis : x y z
#
# Youngs Moduli (GPa) = 52.34540 52.34540 103.32766
#
# Poissons Ratio (x) = 0.53431 0.20880
# Poissons Ratio (y) = 0.53431 0.20880
# Poissons Ratio (z) = 0.10577 0.10577
#
# Static dielectric constant tensor:
#      x y z
#    x 2.973440 0.000000 0.000000 
#    y 0.000000 2.973440 0.000000 
#    z 0.000000 0.000000 3.477400 
# 
# 
# High freq. dielectric constant tensor:
#      x y z
#    x 1.633390 0.000000 0.000000 
#    y 0.000000 1.633390 0.000000 
#    z 0.000000 0.000000 1.681420 
# 
# From -- ./inp_files/3906.got.cif
#   From: 2010.03.12/outbox.cif.g09.slc.cpg/sg191_2_cif.got.tgz:3906.got - 2010.04.01 12:09:02.
