data_PCOD8328676
_publ_section_title
;
Structure prediction by ZEFSAII (Michael W. Deem and Ramdas Pophale) SiO2 
 PCOD8328676
Probable space group: P 6/M M M
;
_chemical_formula_sum "Si O2"
_cell_formula_units_Z 120
_cell_length_a 18.318480
_cell_length_b 18.318480
_cell_length_c 25.073730
_cell_angle_alpha 90.000000
_cell_angle_beta 90.000000
_cell_angle_gamma 120.000000
_cell_volume 7286.659001
_symmetry_space_group_name_H-M "P 6/M M M"
_symmetry_group_IT_number 191
_symmetry_cell_setting 'hexagonal'
loop_
_space_group_symop_operation_xyz
x,y,z
x-y,x,z
-y,x-y,z
-x,-y,z
-x+y,-x,z
y,-x+y,z
x-y,-y,-z
-x,-x+y,-z
y,x,-z
-y,-x,-z
-x+y,y,-z
x,x-y,-z
-x,-y,-z
-x+y,-x,-z
y,-x+y,-z
x,y,-z
x-y,x,-z
-y,x-y,-z
-x+y,y,z
x,x-y,z
-y,-x,z
y,x,z
x-y,-y,z
-x,-x+y,z
loop_
_atom_site_type_symbol
_atom_site_label
_atom_site_fract_x
_atom_site_fract_y
_atom_site_fract_z
Si Si1 0.262119 0.901186 0.151967
Si Si2 0.349766 0.256446 0.560813
Si Si3 0.832478 0.500488 0.637424
Si Si4 0.369293 0.466226 0.249671
Si Si5 0.099770 0.630790 0.059455
O O1 0.160150 0.839851 0.154866
O O2 0.303089 0.883269 0.202968
O O3 0.293476 0.870585 0.101049
O O4 0.287451 0.000000 0.148677
O O5 0.382356 0.276557 0.500000
O O6 0.319113 0.159557 0.575566
O O7 0.270614 0.270614 0.569747
O O8 0.425032 0.319832 0.598682
O O9 0.736210 0.472419 0.624132
O O10 0.848964 0.424482 0.626258
O O11 0.849691 0.529661 0.698776
O O12 0.439993 0.560008 0.230506
O O13 0.414043 0.414043 0.266523
O O14 0.135637 0.567819 0.073963
O O15 0.000000 0.576351 0.061643
O O16 0.130114 0.668357 0.000000
#
# Coordination Sequence:
#
# PCOD8328676 Si02
#       5
#    24  24  24  24  24
#     4  10  19  30  45  65  89 117 151 190 228 266
#     4   9  18  32  49  68  89 114 145 182 224 267
#     4  10  19  30  44  64  92 124 155 184 214 250
#     4   9  17  29  46  67  88 111 142 181 224 269
#     4   8  14  26  45  67  88 110 137 170 211 260
#
# _framework density 16.468451999999999
#
# number of rings (size 3 to 8) (size 9 to 14) (size 15 to 20)
#    0.000    2.800    0.000    2.600    0.000    4.400 
#    0.000    1.000    0.000    6.000    0.000    1.400 
#    0.000    0.000    0.000   11.400    0.000    4.400 
#
# Total GULP energy -1487363.773202 kJ/mol
# GULP energy per Si atom -12394.698110 kJ/mol
# Density = 1.643097 g / cm^3
# Si number density = 16.468452 Si / 1000 Ang^3
#
#
#
# Elastic Constant Matrix: (Units=GPa)
#
#
# Indices 1 2 3 4 5 6 
#
# 1 85.8911 50.3929 42.5997 0.0000 0.0000 0.0000
# 2 50.3929 85.8911 42.5997 0.0000 0.0000 0.0000
# 3 42.5997 42.5997 73.5983 0.0000 0.0000 0.0000
# 4 0.0000 0.0000 0.0000 19.2929 0.0000 0.0000
# 5 0.0000 0.0000 0.0000 0.0000 19.2929 0.0000
# 6 0.0000 0.0000 0.0000 0.0000 0.0000 17.7491
#
#
#
# Elastic Compliance Matrix: (Units=1/GPa)
#
#
# Indices 1 2 3 4 5 6 
#
# 1 0.019834 -0.008336 -0.006655 0.000000 0.000000 0.000000
# 2 -0.008336 0.019834 -0.006655 0.000000 0.000000 0.000000
# 3 -0.006655 -0.006655 0.021292 0.000000 0.000000 0.000000
# 4 0.000000 0.000000 0.000000 0.051832 0.000000 0.000000
# 5 0.000000 0.000000 0.000000 0.000000 0.051832 0.000000
# 6 0.000000 0.000000 0.000000 0.000000 0.000000 0.056341
#
#
# Mechanical properties :
#
#
# Convention : Reuss Voigt Hill
#
# Bulk Modulus (GPa) = 56.60332 57.39615 56.99973
# Shear Modulus (GPa) = 18.50832 18.58621 18.54726
#
# Velocity S-wave (km/s) = 3.35605 3.36310 3.35958
# Velocity P-wave (km/s) = 7.03298 7.07166 7.05235
#
# Compressibility (1/GPa) = 0.01766681
#
# Stress axis : x y z
#
# Youngs Moduli (GPa) = 50.41759 50.41759 46.96659
#
# Poissons Ratio (x) = 0.42028 0.31258
# Poissons Ratio (y) = 0.42028 0.31258
# Poissons Ratio (z) = 0.33555 0.33555
#
# Static dielectric constant tensor:
#      x y z
#    x 2.960900 0.000000 0.000000 
#    y 0.000000 2.960900 0.000000 
#    z 0.000000 0.000000 3.292890 
# 
# 
# High freq. dielectric constant tensor:
#      x y z
#    x 1.613140 0.000000 0.000000 
#    y 0.000000 1.613140 0.000000 
#    z 0.000000 0.000000 1.646080 
# 
# From -- ./inp_files/10266.got.cif
#   From: 2010.03.12/outbox.cif.g09.slc.cpg/sg191_6_cif.got.tgz:10266.got - 2010.04.01 12:09:02.
