data_PCOD8328245
_publ_section_title
;
Structure prediction by ZEFSAII (Michael W. Deem and Ramdas Pophale) SiO2 
 PCOD8328245
Probable space group: P 6/M M M
;
_chemical_formula_sum "Si O2"
_cell_formula_units_Z 120
_cell_length_a 28.416736
_cell_length_b 28.416736
_cell_length_c 11.871928
_cell_angle_alpha 90.000000
_cell_angle_beta 90.000000
_cell_angle_gamma 120.000000
_cell_volume 8302.335338
_symmetry_space_group_name_H-M "P 6/M M M"
_symmetry_group_IT_number 191
_symmetry_cell_setting 'hexagonal'
loop_
_space_group_symop_operation_xyz
x,y,z
x-y,x,z
-y,x-y,z
-x,-y,z
-x+y,-x,z
y,-x+y,z
x-y,-y,-z
-x,-x+y,-z
y,x,-z
-y,-x,-z
-x+y,y,-z
x,x-y,-z
-x,-y,-z
-x+y,-x,-z
y,-x+y,-z
x,y,-z
x-y,x,-z
-y,x-y,-z
-x+y,y,z
x,x-y,z
-y,-x,z
y,x,z
x-y,-y,z
-x,-x+y,z
loop_
_atom_site_type_symbol
_atom_site_label
_atom_site_fract_x
_atom_site_fract_y
_atom_site_fract_z
Si Si1 0.835975 0.059675 0.871424
Si Si2 0.888043 0.219016 0.745782
Si Si3 0.393485 0.063711 0.868959
Si Si4 0.365401 0.235881 0.500000
Si Si5 0.363685 0.427951 0.500000
Si Si6 0.480227 0.063620 0.272117
O O1 0.898331 0.101670 0.841305
O O2 0.795101 0.067698 0.792422
O O3 0.827117 0.000000 0.850571
O O4 0.822331 0.066947 0.000000
O O5 0.827590 0.172411 0.782307
O O6 0.899690 0.275500 0.798618
O O7 0.894329 0.222680 0.610886
O O8 0.454473 0.081904 0.828163
O O9 0.352732 0.000000 0.843053
O O10 0.394781 0.076702 0.000000
O O11 0.392372 0.196186 0.500000
O O12 0.407464 0.299785 0.500000
O O13 0.379709 0.379709 0.500000
O O14 0.387411 0.466356 0.392380
O O15 0.545737 0.091474 0.257363
O O16 0.455454 0.000000 0.265468
#
# Coordination Sequence:
#
# PCOD8328245 Si02
#       6
#    24  24  24  12  12  24
#     4   9  17  29  45  63  83 108 139 176 215 256
#     4  10  19  30  43  60  83 111 143 177 213 252
#     4  10  19  29  42  60  83 113 146 175 206 246
#     4  10  20  31  43  62  86 111 142 179 216 254
#     4  10  17  28  46  63  81 112 148 177 210 250
#     4   9  17  28  42  61  83 108 141 176 205 236
#
# _framework density 14.453765000000001
#
# number of rings (size 3 to 8) (size 9 to 14) (size 15 to 20)
#    0.000    2.400    2.000    1.500    0.000    5.200 
#    0.000    2.000    0.000    0.200    0.000    1.400 
#    0.000    0.000    0.000    8.400    0.000   17.000 
#
# Total GULP energy -1487301.431133 kJ/mol
# GULP energy per Si atom -12394.178593 kJ/mol
# Density = 1.442087 g / cm^3
# Si number density = 14.453765 Si / 1000 Ang^3
#
#
#
# Elastic Constant Matrix: (Units=GPa)
#
#
# Indices 1 2 3 4 5 6 
#
# 1 80.0741 44.6667 35.0294 0.0000 0.0000 0.0000
# 2 44.6667 80.0741 35.0294 0.0000 0.0000 0.0000
# 3 35.0294 35.0294 88.0453 0.0000 0.0000 0.0000
# 4 0.0000 0.0000 0.0000 21.6877 0.0000 0.0000
# 5 0.0000 0.0000 0.0000 0.0000 21.6877 0.0000
# 6 0.0000 0.0000 0.0000 0.0000 0.0000 17.7037
#
#
#
# Elastic Compliance Matrix: (Units=1/GPa)
#
#
# Indices 1 2 3 4 5 6 
#
# 1 0.019283 -0.008960 -0.004107 0.000000 0.000000 0.000000
# 2 -0.008960 0.019283 -0.004107 0.000000 0.000000 0.000000
# 3 -0.004107 -0.004107 0.014626 0.000000 0.000000 0.000000
# 4 0.000000 0.000000 0.000000 0.046109 0.000000 0.000000
# 5 0.000000 0.000000 0.000000 0.000000 0.046109 0.000000
# 6 0.000000 0.000000 0.000000 0.000000 0.000000 0.056485
#
#
# Mechanical properties :
#
#
# Convention : Reuss Voigt Hill
#
# Bulk Modulus (GPa) = 53.06778 53.07162 53.06970
# Shear Modulus (GPa) = 20.61641 21.11367 20.86504
#
# Velocity S-wave (km/s) = 3.78083 3.82615 3.80356
# Velocity P-wave (km/s) = 7.47361 7.50448 7.48906
#
# Compressibility (1/GPa) = 0.01884383
#
# Stress axis : x y z
#
# Youngs Moduli (GPa) = 51.85901 51.85901 68.37155
#
# Poissons Ratio (x) = 0.46464 0.28082
# Poissons Ratio (y) = 0.46464 0.28082
# Poissons Ratio (z) = 0.21300 0.21300
#
# Static dielectric constant tensor:
#      x y z
#    x 2.824960 0.000000 0.000000 
#    y 0.000000 2.824960 0.000000 
#    z 0.000000 0.000000 3.035490 
# 
# 
# High freq. dielectric constant tensor:
#      x y z
#    x 1.530610 0.000000 0.000000 
#    y 0.000000 1.530610 0.000000 
#    z 0.000000 0.000000 1.566050 
# 
# From -- ./inp_files/3218.got.cif
#   From: 2010.03.12/outbox.cif.g09.slc.cpg/sg191_2_cif.got.tgz:3218.got - 2010.04.01 12:09:02.
