data_PCOD8328278
_publ_section_title
;
Structure prediction by ZEFSAII (Michael W. Deem and Ramdas Pophale) SiO2 
 PCOD8328278
Probable space group: P 6/M M M
;
_chemical_formula_sum "Si O2"
_cell_formula_units_Z 96
_cell_length_a 18.585141
_cell_length_b 18.585141
_cell_length_c 22.416676
_cell_angle_alpha 90.000000
_cell_angle_beta 90.000000
_cell_angle_gamma 120.000000
_cell_volume 6705.537060
_symmetry_space_group_name_H-M "P 6/M M M"
_symmetry_group_IT_number 191
_symmetry_cell_setting 'hexagonal'
loop_
_space_group_symop_operation_xyz
x,y,z
x-y,x,z
-y,x-y,z
-x,-y,z
-x+y,-x,z
y,-x+y,z
x-y,-y,-z
-x,-x+y,-z
y,x,-z
-y,-x,-z
-x+y,y,-z
x,x-y,-z
-x,-y,-z
-x+y,-x,-z
y,-x+y,-z
x,y,-z
x-y,x,-z
-y,x-y,-z
-x+y,y,z
x,x-y,z
-y,-x,z
y,x,z
x-y,-y,z
-x,-x+y,z
loop_
_atom_site_type_symbol
_atom_site_label
_atom_site_fract_x
_atom_site_fract_y
_atom_site_fract_z
Si Si1 0.497770 0.166106 0.635134
Si Si2 0.092178 0.460877 0.240844
Si Si3 0.414689 0.414689 0.432451
Si Si4 0.632670 0.538526 0.000000
Si Si5 0.829489 0.498563 0.879149
O O1 0.590385 0.180770 0.625895
O O2 0.496148 0.248074 0.612660
O O3 0.470864 0.152079 0.704405
O O4 0.429813 0.084571 0.599243
O O5 0.087689 0.543845 0.235322
O O6 0.126580 0.444746 0.178965
O O7 0.000000 0.383755 0.252589
O O8 0.500000 0.500000 0.429289
O O9 0.385934 0.385934 0.500000
O O10 0.686048 0.550569 0.059735
O O11 0.610634 0.610634 0.000000
O O12 0.552026 0.447975 0.000000
O O13 0.731591 0.463181 0.875499
O O14 0.847235 0.423618 0.879562
#
# Coordination Sequence:
#
# PCOD8328278 Si02
#       5
#    24  24  12  12  24
#     4  10  18  29  45  65  87 112 146 184 218 250
#     4   9  16  27  41  56  76 105 137 169 207 250
#     4   9  18  32  46  60  84 115 142 172 214 259
#     4   9  17  28  38  48  64  93 130 164 200 246
#     4  10  18  26  37  53  74  97 126 167 212 248
#
# _framework density 14.316527000000001
#
# number of rings (size 3 to 8) (size 9 to 14) (size 15 to 20)
#    0.000    2.500    1.250    2.375    0.000    3.500 
#    0.000    3.750    0.000    1.500    0.000    0.000 
#    0.000    0.000    0.000    0.375    0.000    1.625 
#
# Total GULP energy -1189754.881471 kJ/mol
# GULP energy per Si atom -12393.280015 kJ/mol
# Density = 1.428394 g / cm^3
# Si number density = 14.316527 Si / 1000 Ang^3
#
#
#
# Elastic Constant Matrix: (Units=GPa)
#
#
# Indices 1 2 3 4 5 6 
#
# 1 54.8371 26.4879 31.2053 0.0000 0.0000 0.0000
# 2 26.4879 54.8371 31.2053 0.0000 0.0000 0.0000
# 3 31.2053 31.2053 109.4138 0.0000 0.0000 0.0000
# 4 0.0000 0.0000 0.0000 13.2270 0.0000 0.0000
# 5 0.0000 0.0000 0.0000 0.0000 13.2270 0.0000
# 6 0.0000 0.0000 0.0000 0.0000 0.0000 14.1746
#
#
#
# Elastic Compliance Matrix: (Units=1/GPa)
#
#
# Indices 1 2 3 4 5 6 
#
# 1 0.025508 -0.009766 -0.004490 0.000000 0.000000 0.000000
# 2 -0.009766 0.025508 -0.004490 0.000000 0.000000 0.000000
# 3 -0.004490 -0.004490 0.011701 0.000000 0.000000 0.000000
# 4 0.000000 0.000000 0.000000 0.075603 0.000000 0.000000
# 5 0.000000 0.000000 0.000000 0.000000 0.075603 0.000000
# 6 0.000000 0.000000 0.000000 0.000000 0.000000 0.070549
#
#
# Mechanical properties :
#
#
# Convention : Reuss Voigt Hill
#
# Bulk Modulus (GPa) = 39.64229 44.09833 41.87031
# Shear Modulus (GPa) = 15.13449 16.80501 15.96975
#
# Velocity S-wave (km/s) = 3.25489 3.42982 3.34350
# Velocity P-wave (km/s) = 6.47114 6.82306 6.64943
#
# Compressibility (1/GPa) = 0.02522559
#
# Stress axis : x y z
#
# Youngs Moduli (GPa) = 39.20327 39.20327 85.46622
#
# Poissons Ratio (x) = 0.38287 0.38371
# Poissons Ratio (y) = 0.38287 0.38371
# Poissons Ratio (z) = 0.17601 0.17601
#
# Static dielectric constant tensor:
#      x y z
#    x 2.524970 0.000000 0.000000 
#    y 0.000000 2.524970 0.000000 
#    z 0.000000 0.000000 3.181080 
# 
# 
# High freq. dielectric constant tensor:
#      x y z
#    x 1.505800 0.000000 0.000000 
#    y 0.000000 1.505800 0.000000 
#    z 0.000000 0.000000 1.569590 
# 
# From -- ./inp_files/8249.got.cif
#   From: 2010.03.12/outbox.cif.g09.slc.cpg/sg191_5_cif.got.tgz:8249.got - 2010.04.01 12:09:02.
