data_PCOD8328806
_publ_section_title
;
Structure prediction by ZEFSAII (Michael W. Deem and Ramdas Pophale) SiO2 
 PCOD8328806
Probable space group: P 6/M M M
;
_chemical_formula_sum "Si O2"
_cell_formula_units_Z 120
_cell_length_a 17.373014
_cell_length_b 17.373014
_cell_length_c 27.689400
_cell_angle_alpha 90.000000
_cell_angle_beta 90.000000
_cell_angle_gamma 120.000000
_cell_volume 7237.598980
_symmetry_space_group_name_H-M "P 6/M M M"
_symmetry_group_IT_number 191
_symmetry_cell_setting 'hexagonal'
loop_
_space_group_symop_operation_xyz
x,y,z
x-y,x,z
-y,x-y,z
-x,-y,z
-x+y,-x,z
y,-x+y,z
x-y,-y,-z
-x,-x+y,-z
y,x,-z
-y,-x,-z
-x+y,y,-z
x,x-y,-z
-x,-y,-z
-x+y,-x,-z
y,-x+y,-z
x,y,-z
x-y,x,-z
-y,x-y,-z
-x+y,y,z
x,x-y,z
-y,-x,z
y,x,z
x-y,-y,z
-x,-x+y,z
loop_
_atom_site_type_symbol
_atom_site_label
_atom_site_fract_x
_atom_site_fract_y
_atom_site_fract_z
Si Si1 0.100646 0.728157 0.907037
Si Si2 0.272687 0.898405 0.280940
Si Si3 0.154079 0.486293 0.000000
Si Si4 0.152912 0.667629 0.624559
Si Si5 0.408717 0.000000 0.446119
Si Si6 0.895270 0.532820 0.813550
O O1 0.165787 0.834214 0.913805
O O2 0.104055 0.675048 0.953282
O O3 0.135678 0.697611 0.861263
O O4 0.000000 0.708313 0.899740
O O5 0.166482 0.833519 0.288076
O O6 0.326689 0.889307 0.325162
O O7 0.300994 0.865405 0.233557
O O8 0.294028 0.000000 0.276476
O O9 0.257206 0.514412 0.000000
O O10 0.145459 0.572730 0.000000
O O11 0.162771 0.581386 0.626074
O O12 0.248321 0.751680 0.614484
O O13 0.088013 0.663263 0.581787
O O14 0.500000 0.000000 0.448504
O O15 0.373095 0.000000 0.500000
O O16 0.851286 0.425643 0.812934
O O17 0.000000 0.576131 0.813815
#
# Coordination Sequence:
#
# PCOD8328806 Si02
#       6
#    24  24  12  24  12  24
#     4  10  20  33  49  70  94 124 161 201 242 284
#     4  10  19  31  49  72  97 127 161 199 241 287
#     4  10  20  33  50  71  96 124 155 192 236 285
#     4  10  19  31  48  70  96 126 161 199 239 282
#     4   9  18  32  48  66  92 126 159 192 234 280
#     4   9  17  29  47  70  95 122 154 190 231 281
#
# _framework density 16.580083999999999
#
# number of rings (size 3 to 8) (size 9 to 14) (size 15 to 20)
#    0.000    2.300    1.000    2.400    0.000    2.800 
#    0.000    0.000    0.000    7.200    0.000    0.000 
#    0.000    7.200    0.000    0.000    0.000    9.900 
#
# Total GULP energy -1487864.598815 kJ/mol
# GULP energy per Si atom -12398.871657 kJ/mol
# Density = 1.654235 g / cm^3
# Si number density = 16.580084 Si / 1000 Ang^3
#
#
#
# Elastic Constant Matrix: (Units=GPa)
#
#
# Indices 1 2 3 4 5 6 
#
# 1 88.9780 55.5275 36.3976 0.0000 0.0000 0.0000
# 2 55.5275 88.9780 36.3976 0.0000 0.0000 0.0000
# 3 36.3976 36.3976 143.2534 0.0000 0.0000 0.0000
# 4 0.0000 0.0000 0.0000 -5.2876 0.0000 0.0000
# 5 0.0000 0.0000 0.0000 0.0000 -5.2876 0.0000
# 6 0.0000 0.0000 0.0000 0.0000 0.0000 16.7253
#
#
#
# Elastic Compliance Matrix: (Units=1/GPa)
#
#
# Indices 1 2 3 4 5 6 
#
# 1 0.018915 -0.010980 -0.002016 0.000000 0.000000 0.000000
# 2 -0.010980 0.018915 -0.002016 0.000000 0.000000 0.000000
# 3 -0.002016 -0.002016 0.008005 0.000000 0.000000 0.000000
# 4 0.000000 0.000000 0.000000 -0.189122 0.000000 0.000000
# 5 0.000000 0.000000 0.000000 0.000000 -0.189122 0.000000
# 6 0.000000 0.000000 0.000000 0.000000 0.000000 0.059790
#
#
# Mechanical properties :
#
#
# Convention : Reuss Voigt Hill
#
# Bulk Modulus (GPa) = 63.24439 64.20609 63.72524
# Shear Modulus (GPa) = -21.06839 14.08913 -3.48963
#
# Velocity S-wave (km/s) = -3.56856 2.91823 -1.45234
# Velocity P-wave (km/s) = 4.60957 7.08263 5.97544
#
# Compressibility (1/GPa) = 0.01581168
#
# Stress axis : x y z
#
# Youngs Moduli (GPa) = 52.86699 52.86699 124.91799
#
# Poissons Ratio (x) = 0.58045 0.25188
# Poissons Ratio (y) = 0.58045 0.25188
# Poissons Ratio (z) = 0.10660 0.10660
#
# Static dielectric constant tensor:
#      x y z
#    x 2.989250 0.000000 0.000000 
#    y 0.000000 2.989250 0.000000 
#    z 0.000000 0.000000 3.376080 
# 
# 
# High freq. dielectric constant tensor:
#      x y z
#    x 1.621430 0.000000 0.000000 
#    y 0.000000 1.621430 0.000000 
#    z 0.000000 0.000000 1.655370 
# 
# From -- ./inp_files/8550.got.cif
#   From: 2010.03.12/outbox.cif.g09.slc.cpg/sg191_5_cif.got.tgz:8550.got - 2010.04.01 12:09:02.
