data_PCOD8328548
_publ_section_title
;
Structure prediction by ZEFSAII (Michael W. Deem and Ramdas Pophale) SiO2 
 PCOD8328548
Probable space group: P 6/M M M
;
_chemical_formula_sum "Si O2"
_cell_formula_units_Z 192
_cell_length_a 23.380618
_cell_length_b 23.380618
_cell_length_c 23.540048
_cell_angle_alpha 90.000000
_cell_angle_beta 90.000000
_cell_angle_gamma 120.000000
_cell_volume 11144.226965
_symmetry_space_group_name_H-M "P 6/M M M"
_symmetry_group_IT_number 191
_symmetry_cell_setting 'hexagonal'
loop_
_space_group_symop_operation_xyz
x,y,z
x-y,x,z
-y,x-y,z
-x,-y,z
-x+y,-x,z
y,-x+y,z
x-y,-y,-z
-x,-x+y,-z
y,x,-z
-y,-x,-z
-x+y,y,-z
x,x-y,-z
-x,-y,-z
-x+y,-x,-z
y,-x+y,-z
x,y,-z
x-y,x,-z
-y,x-y,-z
-x+y,y,z
x,x-y,z
-y,-x,z
y,x,z
x-y,-y,z
-x,-x+y,z
loop_
_atom_site_type_symbol
_atom_site_label
_atom_site_fract_x
_atom_site_fract_y
_atom_site_fract_z
Si Si1 0.378135 0.300363 0.937089
Si Si2 0.861851 0.588086 0.436115
Si Si3 0.673010 0.771301 0.743373
Si Si4 0.696773 0.526491 0.754848
Si Si5 0.071854 0.796240 0.379016
Si Si6 0.798631 0.464845 0.635937
Si Si7 0.727249 0.928107 0.860437
Si Si8 0.527572 0.924110 0.150593
O O1 0.334321 0.334321 0.942532
O O2 0.335195 0.232029 0.903074
O O3 0.445018 0.348401 0.903514
O O4 0.396185 0.286067 0.000000
O O5 0.883258 0.582542 0.500000
O O6 0.792739 0.585477 0.435102
O O7 0.915490 0.657731 0.409600
O O8 0.855055 0.527256 0.398905
O O9 0.669878 0.834939 0.759448
O O10 0.598388 0.714302 0.731349
O O11 0.716962 0.782337 0.688196
O O12 0.703622 0.759764 0.800235
O O13 0.762261 0.524521 0.776926
O O14 0.664480 0.475838 0.703099
O O15 0.641655 0.509189 0.802419
O O16 0.128818 0.871182 0.393387
O O17 0.000000 0.783677 0.399331
O O18 0.726606 0.453211 0.620496
O O19 0.802141 0.401071 0.616890
O O20 0.755548 0.877774 0.856794
O O21 0.786026 0.000000 0.881364
O O22 0.460297 0.920593 0.131349
O O23 0.580028 0.000000 0.171005
#
# Coordination Sequence:
#
# PCOD8328548 Si02
#       8
#    24  24  24  24  24  24  24  24
#     4   9  18  31  46  66  94 128 163 198 239 289
#     4   9  18  33  50  69  96 129 165 204 245 288
#     4   9  16  28  48  73  96 124 162 202 242 285
#     4  10  18  31  50  70  98 133 167 202 244 296
#     4  10  19  32  52  77 102 129 164 204 245 291
#     4  10  19  32  50  73 100 131 167 208 251 293
#     4  10  19  31  49  73 101 130 162 202 247 293
#     4  10  20  32  48  72 100 129 161 201 250 302
#
# _framework density 17.228652
#
# number of rings (size 3 to 8) (size 9 to 14) (size 15 to 20)
#    0.000    2.375    2.500    0.875    0.000    1.500 
#    0.000    1.250    0.000    1.625    0.000    0.875 
#    0.000    3.000    0.000    6.250    0.000    0.000 
#
# Total GULP energy -2379057.498244 kJ/mol
# GULP energy per Si atom -12390.924470 kJ/mol
# Density = 1.718944 g / cm^3
# Si number density = 17.228652 Si / 1000 Ang^3
#
#
#
# Elastic Constant Matrix: (Units=GPa)
#
#
# Indices 1 2 3 4 5 6 
#
# 1 87.9933 45.7342 29.9767 0.0000 0.0000 0.0000
# 2 45.7342 87.9933 29.9767 0.0000 0.0000 0.0000
# 3 29.9767 29.9767 99.8081 0.0000 0.0000 0.0000
# 4 0.0000 0.0000 0.0000 12.8696 0.0000 0.0000
# 5 0.0000 0.0000 0.0000 0.0000 12.8696 0.0000
# 6 0.0000 0.0000 0.0000 0.0000 0.0000 21.1295
#
#
#
# Elastic Compliance Matrix: (Units=1/GPa)
#
#
# Indices 1 2 3 4 5 6 
#
# 1 0.016153 -0.007511 -0.002595 0.000000 0.000000 0.000000
# 2 -0.007511 0.016153 -0.002595 0.000000 0.000000 0.000000
# 3 -0.002595 -0.002595 0.011578 0.000000 0.000000 0.000000
# 4 0.000000 0.000000 0.000000 0.077702 0.000000 0.000000
# 5 0.000000 0.000000 0.000000 0.000000 0.077702 0.000000
# 6 0.000000 0.000000 0.000000 0.000000 0.000000 0.047327
#
#
# Mechanical properties :
#
#
# Convention : Reuss Voigt Hill
#
# Bulk Modulus (GPa) = 54.11382 54.13000 54.12191
# Shear Modulus (GPa) = 17.97405 20.71422 19.34413
#
# Velocity S-wave (km/s) = 3.23347 3.47120 3.35444
# Velocity P-wave (km/s) = 6.73927 6.89583 6.81800
#
# Compressibility (1/GPa) = 0.01847957
#
# Stress axis : x y z
#
# Youngs Moduli (GPa) = 61.90984 61.90984 86.36870
#
# Poissons Ratio (x) = 0.46501 0.22416
# Poissons Ratio (y) = 0.46501 0.22416
# Poissons Ratio (z) = 0.16068 0.16068
#
# Static dielectric constant tensor:
#      x y z
#    x 3.095300 0.000000 0.000000 
#    y 0.000000 3.095300 0.000000 
#    z 0.000000 0.000000 3.332890 
# 
# 
# High freq. dielectric constant tensor:
#      x y z
#    x 1.646890 0.000000 0.000000 
#    y 0.000000 1.646890 0.000000 
#    z 0.000000 0.000000 1.662130 
# 
# From -- ./inp_files/9307.got.cif
#   From: 2010.03.12/outbox.cif.g09.slc.cpg/sg191_5_cif.got.tgz:9307.got - 2010.04.01 12:09:02.
