data_PCOD8328630
_publ_section_title
;
Structure prediction by ZEFSAII (Michael W. Deem and Ramdas Pophale) SiO2 
 PCOD8328630
Probable space group: P 6/M M M
;
_chemical_formula_sum "Si O2"
_cell_formula_units_Z 168
_cell_length_a 22.538516
_cell_length_b 22.538516
_cell_length_c 23.699838
_cell_angle_alpha 90.000000
_cell_angle_beta 90.000000
_cell_angle_gamma 120.000000
_cell_volume 10426.214225
_symmetry_space_group_name_H-M "P 6/M M M"
_symmetry_group_IT_number 191
_symmetry_cell_setting 'hexagonal'
loop_
_space_group_symop_operation_xyz
x,y,z
x-y,x,z
-y,x-y,z
-x,-y,z
-x+y,-x,z
y,-x+y,z
x-y,-y,-z
-x,-x+y,-z
y,x,-z
-y,-x,-z
-x+y,y,-z
x,x-y,-z
-x,-y,-z
-x+y,-x,-z
y,-x+y,-z
x,y,-z
x-y,x,-z
-y,x-y,-z
-x+y,y,z
x,x-y,z
-y,-x,z
y,x,z
x-y,-y,z
-x,-x+y,z
loop_
_atom_site_type_symbol
_atom_site_label
_atom_site_fract_x
_atom_site_fract_y
_atom_site_fract_z
Si Si1 0.622556 0.702875 0.562073
Si Si2 0.194619 0.527396 0.262134
Si Si3 0.080009 0.606810 0.064548
Si Si4 0.431424 0.283369 0.841053
Si Si5 0.922378 0.392489 0.350623
Si Si6 0.922275 0.708026 0.221763
Si Si7 0.076236 0.796599 0.650081
O O1 0.609166 0.724545 0.500000
O O2 0.670970 0.670970 0.554960
O O3 0.551017 0.648337 0.590427
O O4 0.659142 0.766507 0.604738
O O5 0.263282 0.526563 0.280583
O O6 0.210273 0.605137 0.261684
O O7 0.170009 0.495136 0.200637
O O8 0.132634 0.479521 0.303681
O O9 0.106106 0.553053 0.077246
O O10 0.117326 0.672902 0.103180
O O11 0.000000 0.570278 0.077223
O O12 0.095814 0.631565 0.000000
O O13 0.427247 0.213624 0.860439
O O14 0.359864 0.266150 0.812279
O O15 0.919194 0.459597 0.363834
O O16 0.000000 0.412612 0.331121
O O17 0.865673 0.731345 0.208177
O O18 0.918813 0.688752 0.287847
O O19 0.000000 0.768819 0.206614
O O20 0.121337 0.878664 0.647622
O O21 0.000000 0.778272 0.634843
#
# Coordination Sequence:
#
# PCOD8328630 Si02
#       7
#    24  24  24  24  24  24  24
#     4   9  17  28  42  61  85 112 139 169 211 262
#     4  10  20  33  48  66  89 117 149 184 222 264
#     4   9  18  32  48  65  87 117 151 184 217 255
#     4  10  19  29  45  69  92 116 147 183 225 267
#     4   9  18  31  46  66  90 113 140 177 219 261
#     4   9  17  29  46  68  94 122 150 183 224 269
#     4   9  17  29  44  62  86 115 145 178 217 261
#
# _framework density 16.113230999999999
#
# number of rings (size 3 to 8) (size 9 to 14) (size 15 to 20)
#    0.000    2.714    0.000    2.286    0.000    4.857 
#    0.000    2.857    0.000    0.571    0.000    2.000 
#    0.000    1.143    0.000    3.571    0.000    3.714 
#
# Total GULP energy -2082123.919871 kJ/mol
# GULP energy per Si atom -12393.594761 kJ/mol
# Density = 1.607656 g / cm^3
# Si number density = 16.113231 Si / 1000 Ang^3
#
#
#
# Elastic Constant Matrix: (Units=GPa)
#
#
# Indices 1 2 3 4 5 6 
#
# 1 91.0822 51.2317 53.0021 0.0000 0.0000 0.0000
# 2 51.2317 91.0822 53.0021 0.0000 0.0000 0.0000
# 3 53.0021 53.0021 96.7609 0.0000 0.0000 0.0000
# 4 0.0000 0.0000 0.0000 20.3740 0.0000 0.0000
# 5 0.0000 0.0000 0.0000 0.0000 20.3740 0.0000
# 6 0.0000 0.0000 0.0000 0.0000 0.0000 19.9252
#
#
#
# Elastic Compliance Matrix: (Units=1/GPa)
#
#
# Indices 1 2 3 4 5 6 
#
# 1 0.018482 -0.006612 -0.006502 0.000000 0.000000 0.000000
# 2 -0.006612 0.018482 -0.006502 0.000000 0.000000 0.000000
# 3 -0.006502 -0.006502 0.017458 0.000000 0.000000 0.000000
# 4 0.000000 0.000000 0.000000 0.049082 0.000000 0.000000
# 5 0.000000 0.000000 0.000000 0.000000 0.049082 0.000000
# 6 0.000000 0.000000 0.000000 0.000000 0.000000 0.050188
#
#
# Mechanical properties :
#
#
# Convention : Reuss Voigt Hill
#
# Bulk Modulus (GPa) = 65.83342 65.93301 65.88322
# Shear Modulus (GPa) = 20.23738 20.24726 20.24232
#
# Velocity S-wave (km/s) = 3.54778 3.54865 3.54821
# Velocity P-wave (km/s) = 7.59788 7.60249 7.60019
#
# Compressibility (1/GPa) = 0.01518985
#
# Stress axis : x y z
#
# Youngs Moduli (GPa) = 54.10752 54.10752 57.28166
#
# Poissons Ratio (x) = 0.35776 0.37243
# Poissons Ratio (y) = 0.35776 0.37243
# Poissons Ratio (z) = 0.35179 0.35179
#
# Static dielectric constant tensor:
#      x y z
#    x 3.043540 0.000000 0.000000 
#    y 0.000000 3.043540 0.000000 
#    z 0.000000 0.000000 3.052340 
# 
# 
# High freq. dielectric constant tensor:
#      x y z
#    x 1.613000 0.000000 0.000000 
#    y 0.000000 1.613000 0.000000 
#    z 0.000000 0.000000 1.610380 
# 
# From -- ./inp_files/7895.got.cif
#   From: 2010.03.12/outbox.cif.g09.slc.cpg/sg191_4_cif.got.tgz:7895.got - 2010.04.01 12:09:02.
