data_PCOD8328364
_publ_section_title
;
Structure prediction by ZEFSAII (Michael W. Deem and Ramdas Pophale) SiO2 
 PCOD8328364
Probable space group: P 6/M M M
;
_chemical_formula_sum "Si O2"
_cell_formula_units_Z 168
_cell_length_a 23.169178
_cell_length_b 23.169178
_cell_length_c 22.796418
_cell_angle_alpha 90.000000
_cell_angle_beta 90.000000
_cell_angle_gamma 120.000000
_cell_volume 10597.867747
_symmetry_space_group_name_H-M "P 6/M M M"
_symmetry_group_IT_number 191
_symmetry_cell_setting 'hexagonal'
loop_
_space_group_symop_operation_xyz
x,y,z
x-y,x,z
-y,x-y,z
-x,-y,z
-x+y,-x,z
y,-x+y,z
x-y,-y,-z
-x,-x+y,-z
y,x,-z
-y,-x,-z
-x+y,y,-z
x,x-y,-z
-x,-y,-z
-x+y,-x,-z
y,-x+y,-z
x,y,-z
x-y,x,-z
-y,x-y,-z
-x+y,y,z
x,x-y,z
-y,-x,z
y,x,z
x-y,-y,z
-x,-x+y,z
loop_
_atom_site_type_symbol
_atom_site_label
_atom_site_fract_x
_atom_site_fract_y
_atom_site_fract_z
Si Si1 0.277430 0.074443 0.393779
Si Si2 0.604224 0.525930 0.787476
Si Si3 0.797917 0.073943 0.258597
Si Si4 0.529237 0.604816 0.653034
Si Si5 0.386300 0.258996 0.164360
Si Si6 0.075175 0.280482 0.067443
Si Si7 0.144849 0.722878 0.566202
O O1 0.249956 0.124978 0.407697
O O2 0.298340 0.079574 0.325803
O O3 0.343038 0.093384 0.430789
O O4 0.219608 0.000000 0.410372
O O5 0.549616 0.450385 0.804696
O O6 0.573689 0.573689 0.796594
O O7 0.626221 0.528831 0.720031
O O8 0.667538 0.549677 0.830311
O O9 0.875349 0.124652 0.243619
O O10 0.750819 0.091148 0.220430
O O11 0.783557 0.000000 0.243572
O O12 0.459942 0.540059 0.637269
O O13 0.589202 0.589202 0.643082
O O14 0.537149 0.662956 0.610555
O O15 0.411432 0.205716 0.163812
O O16 0.345480 0.253004 0.105436
O O17 0.127478 0.254956 0.082482
O O18 0.000000 0.221172 0.081456
O O19 0.081678 0.302604 0.000000
O O20 0.143075 0.697749 0.500000
O O21 0.218442 0.781558 0.583309
#
# Coordination Sequence:
#
# PCOD8328364 Si02
#       7
#    24  24  24  24  24  24  24
#     4   9  17  28  41  58  81 107 134 168 212 257
#     4   9  17  29  45  65  89 113 135 164 205 252
#     4   9  16  25  39  59  81 105 135 173 213 252
#     4   9  18  31  46  65  87 110 136 166 202 245
#     4  10  18  27  43  66  87 110 143 178 212 253
#     4   9  17  28  42  62  90 123 156 190 226 260
#     4  10  20  31  43  61  84 109 137 169 205 245
#
# _framework density 15.852245
#
# number of rings (size 3 to 8) (size 9 to 14) (size 15 to 20)
#    0.000    2.714    0.000    3.429    0.000    5.429 
#    0.000    0.714    0.000    1.429    0.000    5.000 
#    0.000    3.429    0.000    3.857    0.000    3.714 
#
# Total GULP energy -2082841.428760 kJ/mol
# GULP energy per Si atom -12397.865647 kJ/mol
# Density = 1.581616 g / cm^3
# Si number density = 15.852245 Si / 1000 Ang^3
#
#
#
# Elastic Constant Matrix: (Units=GPa)
#
#
# Indices 1 2 3 4 5 6 
#
# 1 95.5371 46.8226 39.9637 0.0000 0.0000 0.0000
# 2 46.8226 95.5371 39.9637 0.0000 0.0000 0.0000
# 3 39.9637 39.9637 56.7159 0.0000 0.0000 0.0000
# 4 0.0000 0.0000 0.0000 20.1819 0.0000 0.0000
# 5 0.0000 0.0000 0.0000 0.0000 20.1819 0.0000
# 6 0.0000 0.0000 0.0000 0.0000 0.0000 24.3573
#
#
#
# Elastic Compliance Matrix: (Units=1/GPa)
#
#
# Indices 1 2 3 4 5 6 
#
# 1 0.016075 -0.004453 -0.008190 0.000000 0.000000 0.000000
# 2 -0.004453 0.016075 -0.008190 0.000000 0.000000 0.000000
# 3 -0.008190 -0.008190 0.029173 0.000000 0.000000 0.000000
# 4 0.000000 0.000000 0.000000 0.049549 0.000000 0.000000
# 5 0.000000 0.000000 0.000000 0.000000 0.049549 0.000000
# 6 0.000000 0.000000 0.000000 0.000000 0.000000 0.041056
#
#
# Mechanical properties :
#
#
# Convention : Reuss Voigt Hill
#
# Bulk Modulus (GPa) = 50.86542 55.69889 53.28216
# Shear Modulus (GPa) = 20.02453 21.01357 20.51905
#
# Velocity S-wave (km/s) = 3.55801 3.64481 3.60167
# Velocity P-wave (km/s) = 7.00258 7.27499 7.14008
#
# Compressibility (1/GPa) = 0.01965972
#
# Stress axis : x y z
#
# Youngs Moduli (GPa) = 62.20804 62.20804 34.27841
#
# Poissons Ratio (x) = 0.27699 0.28072
# Poissons Ratio (y) = 0.27699 0.28072
# Poissons Ratio (z) = 0.50945 0.50945
#
# Static dielectric constant tensor:
#      x y z
#    x 2.945770 0.000000 0.000000 
#    y 0.000000 2.945770 0.000000 
#    z 0.000000 0.000000 3.020350 
# 
# 
# High freq. dielectric constant tensor:
#      x y z
#    x 1.592920 0.000000 0.000000 
#    y 0.000000 1.592920 0.000000 
#    z 0.000000 0.000000 1.606060 
# 
# From -- ./inp_files/7938.got.cif
#   From: 2010.03.12/outbox.cif.g09.slc.cpg/sg191_4_cif.got.tgz:7938.got - 2010.04.01 12:09:02.
