data_PCOD8328861
_publ_section_title
;
Structure prediction by ZEFSAII (Michael W. Deem and Ramdas Pophale) SiO2 
 PCOD8328861
Probable space group: P 6/M M M
;
_chemical_formula_sum "Si O2"
_cell_formula_units_Z 156
_cell_length_a 22.071488
_cell_length_b 22.071488
_cell_length_c 21.137248
_cell_angle_alpha 90.000000
_cell_angle_beta 90.000000
_cell_angle_gamma 120.000000
_cell_volume 8917.483221
_symmetry_space_group_name_H-M "P 6/M M M"
_symmetry_group_IT_number 191
_symmetry_cell_setting 'hexagonal'
loop_
_space_group_symop_operation_xyz
x,y,z
x-y,x,z
-y,x-y,z
-x,-y,z
-x+y,-x,z
y,-x+y,z
x-y,-y,-z
-x,-x+y,-z
y,x,-z
-y,-x,-z
-x+y,y,-z
x,x-y,-z
-x,-y,-z
-x+y,-x,-z
y,-x+y,-z
x,y,-z
x-y,x,-z
-y,x-y,-z
-x+y,y,z
x,x-y,z
-y,-x,z
y,x,z
x-y,-y,z
-x,-x+y,z
loop_
_atom_site_type_symbol
_atom_site_label
_atom_site_fract_x
_atom_site_fract_y
_atom_site_fract_z
Si Si1 0.811494 0.477731 0.500000
Si Si2 0.219233 0.920175 0.323783
Si Si3 0.874390 0.610817 0.929494
Si Si4 0.080017 0.609820 0.856144
Si Si5 0.525692 0.334413 0.249847
Si Si6 0.446818 0.294675 0.625551
Si Si7 0.075689 0.284096 0.180941
O O1 0.734213 0.468425 0.500000
O O2 0.802078 0.401039 0.500000
O O3 0.857577 0.521826 0.560178
O O4 0.138269 0.861732 0.341991
O O5 0.276220 0.909303 0.362626
O O6 0.231200 0.910052 0.249604
O O7 0.235778 0.000000 0.337265
O O8 0.792426 0.584851 0.920975
O O9 0.889747 0.547728 0.918749
O O10 0.919565 0.664809 0.874748
O O11 0.899497 0.642270 0.000000
O O12 0.084938 0.542469 0.872766
O O13 0.129876 0.652951 0.798135
O O14 0.000000 0.588410 0.839818
O O15 0.517444 0.258722 0.236836
O O16 0.606893 0.393108 0.243284
O O17 0.499029 0.340689 0.318883
O O18 0.444300 0.222150 0.622134
O O19 0.127715 0.255429 0.166821
O O20 0.000000 0.215887 0.179746
#
# Coordination Sequence:
#
# PCOD8328861 Si02
#       7
#    12  24  24  24  24  24  24
#     4  10  19  32  49  69  96 129 166 204 243 287
#     4   9  17  31  52  75  98 127 163 200 239 284
#     4  10  20  33  49  68  90 117 150 189 233 279
#     4  10  21  34  48  68  92 119 152 190 234 287
#     4  10  19  32  50  71  95 123 160 204 247 288
#     4   9  18  30  46  70  97 126 160 199 240 282
#     4   9  17  29  47  71  96 121 151 188 227 268
#
# _framework density 17.493725000000001
#
# number of rings (size 3 to 8) (size 9 to 14) (size 15 to 20)
#    0.000    2.462    0.000    2.538    0.000    5.846 
#    0.000    2.692    0.000    2.462    0.000    2.154 
#    0.000    0.000    0.000    3.846    0.000   13.077 
#
# Total GULP energy -1933263.824187 kJ/mol
# GULP energy per Si atom -12392.716822 kJ/mol
# Density = 1.745391 g / cm^3
# Si number density = 17.493725 Si / 1000 Ang^3
#
#
#
# Elastic Constant Matrix: (Units=GPa)
#
#
# Indices 1 2 3 4 5 6 
#
# 1 93.9456 50.6900 41.5623 0.0000 0.0000 0.0000
# 2 50.6900 93.9456 41.5623 0.0000 0.0000 0.0000
# 3 41.5623 41.5623 85.9764 0.0000 0.0000 0.0000
# 4 0.0000 0.0000 0.0000 15.9014 0.0000 0.0000
# 5 0.0000 0.0000 0.0000 0.0000 15.9014 0.0000
# 6 0.0000 0.0000 0.0000 0.0000 0.0000 21.6278
#
#
#
# Elastic Compliance Matrix: (Units=1/GPa)
#
#
# Indices 1 2 3 4 5 6 
#
# 1 0.016346 -0.006772 -0.004628 0.000000 0.000000 0.000000
# 2 -0.006772 0.016346 -0.004628 0.000000 0.000000 0.000000
# 3 -0.004628 -0.004628 0.016106 0.000000 0.000000 0.000000
# 4 0.000000 0.000000 0.000000 0.062888 0.000000 0.000000
# 5 0.000000 0.000000 0.000000 0.000000 0.062888 0.000000
# 6 0.000000 0.000000 0.000000 0.000000 0.000000 0.046237
#
#
# Mechanical properties :
#
#
# Convention : Reuss Voigt Hill
#
# Bulk Modulus (GPa) = 59.73425 60.16631 59.95028
# Shear Modulus (GPa) = 19.34631 20.02298 19.68465
#
# Velocity S-wave (km/s) = 3.32912 3.38684 3.35810
# Velocity P-wave (km/s) = 6.99983 7.05422 7.02707
#
# Compressibility (1/GPa) = 0.01674081
#
# Stress axis : x y z
#
# Youngs Moduli (GPa) = 61.17669 61.17669 62.08983
#
# Poissons Ratio (x) = 0.41431 0.28736
# Poissons Ratio (y) = 0.41431 0.28736
# Poissons Ratio (z) = 0.28313 0.28313
#
# Static dielectric constant tensor:
#      x y z
#    x 3.243350 0.000000 0.000000 
#    y 0.000000 3.243350 0.000000 
#    z 0.000000 0.000000 3.464640 
# 
# 
# High freq. dielectric constant tensor:
#      x y z
#    x 1.666550 0.000000 0.000000 
#    y 0.000000 1.666550 0.000000 
#    z 0.000000 0.000000 1.671290 
# 
# From -- ./inp_files/7726.got.cif
#   From: 2010.03.12/outbox.cif.g09.slc.cpg/sg191_4_cif.got.tgz:7726.got - 2010.04.01 12:09:02.
