data_PCOD8328636
_publ_section_title
;
Structure prediction by ZEFSAII (Michael W. Deem and Ramdas Pophale) SiO2 
 PCOD8328636
Probable space group: P 6/M M M
;
_chemical_formula_sum "Si O2"
_cell_formula_units_Z 144
_cell_length_a 21.290269
_cell_length_b 21.290269
_cell_length_c 23.605751
_cell_angle_alpha 90.000000
_cell_angle_beta 90.000000
_cell_angle_gamma 120.000000
_cell_volume 9266.393761
_symmetry_space_group_name_H-M "P 6/M M M"
_symmetry_group_IT_number 191
_symmetry_cell_setting 'hexagonal'
loop_
_space_group_symop_operation_xyz
x,y,z
x-y,x,z
-y,x-y,z
-x,-y,z
-x+y,-x,z
y,-x+y,z
x-y,-y,-z
-x,-x+y,-z
y,x,-z
-y,-x,-z
-x+y,y,-z
x,x-y,-z
-x,-y,-z
-x+y,-x,-z
y,-x+y,-z
x,y,-z
x-y,x,-z
-y,x-y,-z
-x+y,y,z
x,x-y,z
-y,-x,z
y,x,z
x-y,-y,z
-x,-x+y,z
loop_
_atom_site_type_symbol
_atom_site_label
_atom_site_fract_x
_atom_site_fract_y
_atom_site_fract_z
Si Si1 0.814604 0.334563 0.000000
Si Si2 0.082011 0.469419 0.896009
Si Si3 0.527270 0.333258 0.299632
Si Si4 0.138757 0.418377 0.796110
Si Si5 0.578162 0.661745 0.380849
Si Si6 0.306636 0.081639 0.696984
Si Si7 0.614072 0.085708 0.500000
O O1 0.862269 0.342040 0.945315
O O2 0.743435 0.256566 0.000000
O O3 0.791411 0.395706 0.000000
O O4 0.095725 0.547863 0.874721
O O5 0.091098 0.423151 0.846238
O O6 0.000000 0.422282 0.919148
O O7 0.513734 0.256867 0.324176
O O8 0.612223 0.387778 0.293899
O O9 0.493583 0.322107 0.237461
O O10 0.492368 0.365642 0.342216
O O11 0.204128 0.408256 0.820631
O O12 0.089880 0.352388 0.753638
O O13 0.600836 0.600836 0.375313
O O14 0.642761 0.739008 0.358326
O O15 0.555333 0.666794 0.445246
O O16 0.278151 0.139076 0.696088
O O17 0.238027 0.000000 0.695570
O O18 0.559145 0.118289 0.500000
O O19 0.565928 0.000000 0.500000
#
# Coordination Sequence:
#
# PCOD8328636 Si02
#       7
#    12  24  24  24  24  24  12
#     4  10  20  33  47  61  80 109 144 178 209 244
#     4  10  19  30  44  63  86 110 137 172 214 254
#     4  10  19  30  42  58  82 111 141 172 208 249
#     4   9  17  29  45  64  85 109 140 175 208 247
#     4   9  17  29  45  63  82 105 137 177 216 254
#     4   9  17  30  47  67  90 114 140 172 212 256
#     4   9  16  26  41  62  85 108 136 172 214 255
#
# _framework density 15.540025999999999
#
# number of rings (size 3 to 8) (size 9 to 14) (size 15 to 20)
#    0.000    2.583    0.000    4.000    0.000    2.667 
#    0.000    1.667    0.000    5.500    0.000    1.167 
#    0.000    0.000    0.000    0.000    0.000    9.833 
#
# Total GULP energy -1784974.458858 kJ/mol
# GULP energy per Si atom -12395.655964 kJ/mol
# Density = 1.550466 g / cm^3
# Si number density = 15.540026 Si / 1000 Ang^3
#
#
#
# Elastic Constant Matrix: (Units=GPa)
#
#
# Indices 1 2 3 4 5 6 
#
# 1 85.5324 44.4603 39.4737 0.0000 0.0000 0.0000
# 2 44.4603 85.5324 39.4737 0.0000 0.0000 0.0000
# 3 39.4737 39.4737 79.2896 0.0000 0.0000 0.0000
# 4 0.0000 0.0000 0.0000 17.7397 0.0000 0.0000
# 5 0.0000 0.0000 0.0000 0.0000 17.7397 0.0000
# 6 0.0000 0.0000 0.0000 0.0000 0.0000 20.5360
#
#
#
# Elastic Compliance Matrix: (Units=1/GPa)
#
#
# Indices 1 2 3 4 5 6 
#
# 1 0.017687 -0.006660 -0.005490 0.000000 0.000000 0.000000
# 2 -0.006660 0.017687 -0.005490 0.000000 0.000000 0.000000
# 3 -0.005490 -0.005490 0.018078 0.000000 0.000000 0.000000
# 4 0.000000 0.000000 0.000000 0.056371 0.000000 0.000000
# 5 0.000000 0.000000 0.000000 0.000000 0.056371 0.000000
# 6 0.000000 0.000000 0.000000 0.000000 0.000000 0.048695
#
#
# Mechanical properties :
#
#
# Convention : Reuss Voigt Hill
#
# Bulk Modulus (GPa) = 55.02667 55.24111 55.13389
# Shear Modulus (GPa) = 19.51409 19.66618 19.59013
#
# Velocity S-wave (km/s) = 3.54747 3.56127 3.55438
# Velocity P-wave (km/s) = 7.22952 7.24810 7.23882
#
# Compressibility (1/GPa) = 0.01817301
#
# Stress axis : x y z
#
# Youngs Moduli (GPa) = 56.53849 56.53849 55.31634
#
# Poissons Ratio (x) = 0.37657 0.30366
# Poissons Ratio (y) = 0.37657 0.30366
# Poissons Ratio (z) = 0.31037 0.31037
#
# Static dielectric constant tensor:
#      x y z
#    x 2.838950 0.000000 0.000000 
#    y 0.000000 2.838950 0.000000 
#    z 0.000000 0.000000 2.970470 
# 
# 
# High freq. dielectric constant tensor:
#      x y z
#    x 1.581690 0.000000 0.000000 
#    y 0.000000 1.581690 0.000000 
#    z 0.000000 0.000000 1.591100 
# 
# From -- ./inp_files/7650.got.cif
#   From: 2010.03.12/outbox.cif.g09.slc.cpg/sg191_4_cif.got.tgz:7650.got - 2010.04.01 12:09:02.
