data_PCOD8328312
_publ_section_title
;
Structure prediction by ZEFSAII (Michael W. Deem and Ramdas Pophale) SiO2 
 PCOD8328312
Probable space group: P 6/M M M
;
_chemical_formula_sum "Si O2"
_cell_formula_units_Z 108
_cell_length_a 18.207449
_cell_length_b 18.207449
_cell_length_c 23.078752
_cell_angle_alpha 90.000000
_cell_angle_beta 90.000000
_cell_angle_gamma 120.000000
_cell_volume 6625.843234
_symmetry_space_group_name_H-M "P 6/M M M"
_symmetry_group_IT_number 191
_symmetry_cell_setting 'hexagonal'
loop_
_space_group_symop_operation_xyz
x,y,z
x-y,x,z
-y,x-y,z
-x,-y,z
-x+y,-x,z
y,-x+y,z
x-y,-y,-z
-x,-x+y,-z
y,x,-z
-y,-x,-z
-x+y,y,-z
x,x-y,-z
-x,-y,-z
-x+y,-x,-z
y,-x+y,-z
x,y,-z
x-y,x,-z
-y,x-y,-z
-x+y,y,z
x,x-y,z
-y,-x,z
y,x,z
x-y,-y,z
-x,-x+y,z
loop_
_atom_site_type_symbol
_atom_site_label
_atom_site_fract_x
_atom_site_fract_y
_atom_site_fract_z
Si Si1 0.502346 0.833436 0.760798
Si Si2 0.531238 0.899550 0.435544
Si Si3 0.361783 0.097959 0.666024
Si Si4 0.501010 0.669234 0.000000
Si Si5 0.094096 0.460054 0.881998
O O1 0.426099 0.852198 0.750032
O O2 0.471701 0.735851 0.745700
O O3 0.581120 0.896204 0.720890
O O4 0.533895 0.849094 0.827206
O O5 0.537635 0.867871 0.500000
O O6 0.431998 0.863996 0.419476
O O7 0.576560 0.869082 0.389841
O O8 0.577966 0.000000 0.434315
O O9 0.324047 0.162024 0.672906
O O10 0.285557 0.000000 0.660242
O O11 0.557004 0.686379 0.058125
O O12 0.426219 0.573782 0.000000
O O13 0.462411 0.731206 0.000000
O O14 0.093690 0.546845 0.888142
O O15 0.000000 0.382247 0.871729
#
# Coordination Sequence:
#
# PCOD8328312 Si02
#       5
#    24  24  24  12  24
#     4  10  19  30  45  66  92 119 146 177 215 261
#     4   8  14  26  45  68  92 117 145 176 211 255
#     4  10  20  32  47  67  90 117 150 189 230 271
#     4  10  18  27  39  55  76 101 132 174 223 268
#     4   9  17  28  41  56  76 106 143 178 210 250
#
# _framework density 16.299813
#
# number of rings (size 3 to 8) (size 9 to 14) (size 15 to 20)
#    0.000    2.667    0.000    3.333    0.000    4.000 
#    0.000    2.222    0.000    0.667    0.000    0.000 
#    0.000    0.000    0.000    5.556    0.000    0.000 
#
# Total GULP energy -1338443.693399 kJ/mol
# GULP energy per Si atom -12392.997161 kJ/mol
# Density = 1.626271 g / cm^3
# Si number density = 16.299813 Si / 1000 Ang^3
#
#
#
# Elastic Constant Matrix: (Units=GPa)
#
#
# Indices 1 2 3 4 5 6 
#
# 1 61.3102 32.2102 26.8534 0.0000 0.0000 0.0000
# 2 32.2102 61.3102 26.8534 0.0000 0.0000 0.0000
# 3 26.8534 26.8534 100.3348 0.0000 0.0000 0.0000
# 4 0.0000 0.0000 0.0000 17.8457 0.0000 0.0000
# 5 0.0000 0.0000 0.0000 0.0000 17.8457 0.0000
# 6 0.0000 0.0000 0.0000 0.0000 0.0000 14.5500
#
#
#
# Elastic Compliance Matrix: (Units=1/GPa)
#
#
# Indices 1 2 3 4 5 6 
#
# 1 0.023500 -0.010865 -0.003382 0.000000 0.000000 0.000000
# 2 -0.010865 0.023500 -0.003382 0.000000 0.000000 0.000000
# 3 -0.003382 -0.003382 0.011777 0.000000 0.000000 0.000000
# 4 0.000000 0.000000 0.000000 0.056036 0.000000 0.000000
# 5 0.000000 0.000000 0.000000 0.000000 0.056036 0.000000
# 6 0.000000 0.000000 0.000000 0.000000 0.000000 0.068729
#
#
# Mechanical properties :
#
#
# Convention : Reuss Voigt Hill
#
# Bulk Modulus (GPa) = 42.51682 43.86546 43.19114
# Shear Modulus (GPa) = 17.68837 19.18418 18.43627
#
# Velocity S-wave (km/s) = 3.29779 3.43440 3.36679
# Velocity P-wave (km/s) = 6.37507 6.53429 6.45517
#
# Compressibility (1/GPa) = 0.02352010
#
# Stress axis : x y z
#
# Youngs Moduli (GPa) = 42.55400 42.55400 84.91354
#
# Poissons Ratio (x) = 0.46234 0.28714
# Poissons Ratio (y) = 0.46234 0.28714
# Poissons Ratio (z) = 0.14390 0.14390
#
# Static dielectric constant tensor:
#      x y z
#    x 2.789900 0.000000 0.000000 
#    y 0.000000 2.789900 0.000000 
#    z 0.000000 0.000000 3.507640 
# 
# 
# High freq. dielectric constant tensor:
#      x y z
#    x 1.590790 0.000000 0.000000 
#    y 0.000000 1.590790 0.000000 
#    z 0.000000 0.000000 1.650810 
# 
# From -- ./inp_files/8327.got.cif
#   From: 2010.03.12/outbox.cif.g09.slc.cpg/sg191_5_cif.got.tgz:8327.got - 2010.04.01 12:09:02.
