data_PCOD8328587
_publ_section_title
;
Structure prediction by ZEFSAII (Michael W. Deem and Ramdas Pophale) SiO2 
 PCOD8328587
Probable space group: P 6/M M M
;
_chemical_formula_sum "Si O2"
_cell_formula_units_Z 144
_cell_length_a 22.114906
_cell_length_b 22.114906
_cell_length_c 25.328049
_cell_angle_alpha 90.000000
_cell_angle_beta 90.000000
_cell_angle_gamma 120.000000
_cell_volume 10727.599833
_symmetry_space_group_name_H-M "P 6/M M M"
_symmetry_group_IT_number 191
_symmetry_cell_setting 'hexagonal'
loop_
_space_group_symop_operation_xyz
x,y,z
x-y,x,z
-y,x-y,z
-x,-y,z
-x+y,-x,z
y,-x+y,z
x-y,-y,-z
-x,-x+y,-z
y,x,-z
-y,-x,-z
-x+y,y,-z
x,x-y,-z
-x,-y,-z
-x+y,-x,-z
y,-x+y,-z
x,y,-z
x-y,x,-z
-y,x-y,-z
-x+y,y,z
x,x-y,z
-y,-x,z
y,x,z
x-y,-y,z
-x,-x+y,z
loop_
_atom_site_type_symbol
_atom_site_label
_atom_site_fract_x
_atom_site_fract_y
_atom_site_fract_z
Si Si1 0.610677 0.077827 0.758143
Si Si2 0.077399 0.610531 0.639898
Si Si3 0.789838 0.713127 0.937296
Si Si4 0.149890 0.442616 0.058005
Si Si5 0.806956 0.473999 0.560381
Si Si6 0.524964 0.190664 0.841415
O O1 0.538273 0.076545 0.761286
O O2 0.641989 0.098254 0.698962
O O3 0.664364 0.135946 0.798505
O O4 0.596133 0.000000 0.772617
O O5 0.076885 0.538443 0.636957
O O6 0.132366 0.663830 0.597597
O O7 0.000000 0.596308 0.625747
O O8 0.864885 0.729769 0.913388
O O9 0.768290 0.768290 0.914661
O O10 0.728763 0.635136 0.922445
O O11 0.796043 0.718350 0.000000
O O12 0.223075 0.446150 0.052626
O O13 0.155800 0.498907 0.100866
O O14 0.129644 0.459293 0.000000
O O15 0.829187 0.496594 0.500000
O O16 0.736237 0.472474 0.575122
O O17 0.794108 0.397054 0.571129
O O18 0.603669 0.207337 0.833042
O O19 0.523132 0.261566 0.834977
#
# Coordination Sequence:
#
# PCOD8328587 Si02
#       6
#    24  24  24  24  24  24
#     4   8  15  28  42  53  67  90 118 145 175 212
#     4   8  14  25  39  52  66  87 118 152 179 206
#     4   8  13  22  37  55  73  93 117 145 176 209
#     4   8  15  27  39  51  69  93 120 147 173 205
#     4   9  16  24  34  50  73  98 120 144 179 221
#     4  10  19  29  41  57  76  95 116 145 183 228
#
# _framework density 13.42332
#
# number of rings (size 3 to 8) (size 9 to 14) (size 15 to 20)
#    0.000    3.500    0.000    2.333    0.000    2.667 
#    0.000    1.667    0.000    3.167    0.000    5.833 
#    0.000    0.000    0.000    0.000    0.000    0.000 
#
# Total GULP energy -1784244.198417 kJ/mol
# GULP energy per Si atom -12390.584711 kJ/mol
# Density = 1.339277 g / cm^3
# Si number density = 13.423320 Si / 1000 Ang^3
#
#
#
# Elastic Constant Matrix: (Units=GPa)
#
#
# Indices 1 2 3 4 5 6 
#
# 1 59.3569 32.9435 42.4274 0.0000 0.0000 0.0000
# 2 32.9435 59.3569 42.4274 0.0000 0.0000 0.0000
# 3 42.4274 42.4274 84.9404 0.0000 0.0000 0.0000
# 4 0.0000 0.0000 0.0000 17.8810 0.0000 0.0000
# 5 0.0000 0.0000 0.0000 0.0000 17.8810 0.0000
# 6 0.0000 0.0000 0.0000 0.0000 0.0000 13.2067
#
#
#
# Elastic Compliance Matrix: (Units=1/GPa)
#
#
# Indices 1 2 3 4 5 6 
#
# 1 0.028947 -0.008913 -0.010007 0.000000 0.000000 0.000000
# 2 -0.008913 0.028947 -0.010007 0.000000 0.000000 0.000000
# 3 -0.010007 -0.010007 0.021770 0.000000 0.000000 0.000000
# 4 0.000000 0.000000 0.000000 0.055925 0.000000 0.000000
# 5 0.000000 0.000000 0.000000 0.000000 0.055925 0.000000
# 6 0.000000 0.000000 0.000000 0.000000 0.000000 0.075719
#
#
# Mechanical properties :
#
#
# Convention : Reuss Voigt Hill
#
# Bulk Modulus (GPa) = 45.85047 48.80566 47.32807
# Shear Modulus (GPa) = 15.04412 15.51746 15.28079
#
# Velocity S-wave (km/s) = 3.35139 3.40370 3.37764
# Velocity P-wave (km/s) = 7.01478 7.20310 7.10957
#
# Compressibility (1/GPa) = 0.02181003
#
# Stress axis : x y z
#
# Youngs Moduli (GPa) = 34.54627 34.54627 45.93547
#
# Poissons Ratio (x) = 0.30791 0.45967
# Poissons Ratio (y) = 0.30791 0.45967
# Poissons Ratio (z) = 0.34570 0.34570
#
# Static dielectric constant tensor:
#      x y z
#    x 2.656730 0.000000 0.000000 
#    y 0.000000 2.656730 0.000000 
#    z 0.000000 0.000000 2.873880 
# 
# 
# High freq. dielectric constant tensor:
#      x y z
#    x 1.486450 0.000000 0.000000 
#    y 0.000000 1.486450 0.000000 
#    z 0.000000 0.000000 1.502200 
# 
# From -- ./inp_files/9955.got.cif
#   From: 2010.03.12/outbox.cif.g09.slc.cpg/sg191_5_cif.got.tgz:9955.got - 2010.04.01 12:09:02.
