data_PCOD8328402
_publ_section_title
;
Structure prediction by ZEFSAII (Michael W. Deem and Ramdas Pophale) SiO2 
 PCOD8328402
Probable space group: P 6/M M M
;
_chemical_formula_sum "Si O2"
_cell_formula_units_Z 108
_cell_length_a 18.393700
_cell_length_b 18.393700
_cell_length_c 24.694226
_cell_angle_alpha 90.000000
_cell_angle_beta 90.000000
_cell_angle_gamma 120.000000
_cell_volume 7235.428362
_symmetry_space_group_name_H-M "P 6/M M M"
_symmetry_group_IT_number 191
_symmetry_cell_setting 'hexagonal'
loop_
_space_group_symop_operation_xyz
x,y,z
x-y,x,z
-y,x-y,z
-x,-y,z
-x+y,-x,z
y,-x+y,z
x-y,-y,-z
-x,-x+y,-z
y,x,-z
-y,-x,-z
-x+y,y,-z
x,x-y,-z
-x,-y,-z
-x+y,-x,-z
y,-x+y,-z
x,y,-z
x-y,x,-z
-y,x-y,-z
-x+y,y,z
x,x-y,z
-y,-x,z
y,x,z
x-y,-y,z
-x,-x+y,z
loop_
_atom_site_type_symbol
_atom_site_label
_atom_site_fract_x
_atom_site_fract_y
_atom_site_fract_z
Si Si1 0.630363 0.530523 0.646617
Si Si2 0.460335 0.092698 0.235524
Si Si3 0.165837 0.669073 0.876206
Si Si4 0.413734 0.000000 0.061099
Si Si5 0.094363 0.349071 0.438435
O O1 0.568653 0.431348 0.635041
O O2 0.575753 0.575753 0.647429
O O3 0.675001 0.545233 0.705788
O O4 0.699141 0.569055 0.599468
O O5 0.541307 0.082614 0.236342
O O6 0.468353 0.153780 0.186690
O O7 0.379796 0.000000 0.225734
O O8 0.179408 0.589704 0.883383
O O9 0.248319 0.751682 0.898182
O O10 0.084342 0.655927 0.909203
O O11 0.500000 0.000000 0.062350
O O12 0.383497 0.000000 0.000000
O O13 0.096719 0.379366 0.500000
O O14 0.154568 0.309136 0.431557
O O15 0.000000 0.278200 0.422072
#
# Coordination Sequence:
#
# PCOD8328402 Si02
#       5
#    24  24  24  12  24
#     4   8  14  24  40  61  81 102 131 165 199 240
#     4   8  13  24  40  57  80 109 137 163 196 239
#     4  10  18  28  43  63  85 110 141 176 207 239
#     4   9  18  32  46  58  78 110 140 166 204 248
#     4   9  17  28  41  57  78 105 137 173 211 249
#
# _framework density 14.926551
#
# number of rings (size 3 to 8) (size 9 to 14) (size 15 to 20)
#    0.000    3.222    1.111    1.556    0.000    1.778 
#    0.000    2.222    0.000    2.000    0.000    1.556 
#    0.000    0.000    0.000    0.333    0.000    1.444 
#
# Total GULP energy -1338121.092090 kJ/mol
# GULP energy per Si atom -12390.010112 kJ/mol
# Density = 1.489258 g / cm^3
# Si number density = 14.926551 Si / 1000 Ang^3
#
#
#
# Elastic Constant Matrix: (Units=GPa)
#
#
# Indices 1 2 3 4 5 6 
#
# 1 66.8455 32.7104 38.0151 0.0000 0.0000 0.0000
# 2 32.7104 66.8455 38.0151 0.0000 0.0000 0.0000
# 3 38.0151 38.0151 99.4195 0.0000 0.0000 0.0000
# 4 0.0000 0.0000 0.0000 10.7872 0.0000 0.0000
# 5 0.0000 0.0000 0.0000 0.0000 10.7872 0.0000
# 6 0.0000 0.0000 0.0000 0.0000 0.0000 17.0675
#
#
#
# Elastic Compliance Matrix: (Units=1/GPa)
#
#
# Indices 1 2 3 4 5 6 
#
# 1 0.021741 -0.007554 -0.005425 0.000000 0.000000 0.000000
# 2 -0.007554 0.021741 -0.005425 0.000000 0.000000 0.000000
# 3 -0.005425 -0.005425 0.014207 0.000000 0.000000 0.000000
# 4 0.000000 0.000000 0.000000 0.092702 0.000000 0.000000
# 5 0.000000 0.000000 0.000000 0.000000 0.092702 0.000000
# 6 0.000000 0.000000 0.000000 0.000000 0.000000 0.058591
#
#
# Mechanical properties :
#
#
# Convention : Reuss Voigt Hill
#
# Bulk Modulus (GPa) = 47.88687 50.06574 48.97631
# Shear Modulus (GPa) = 14.47370 16.01970 15.24670
#
# Velocity S-wave (km/s) = 3.11732 3.27958 3.19948
# Velocity P-wave (km/s) = 6.71626 6.92496 6.82141
#
# Compressibility (1/GPa) = 0.02088255
#
# Stress axis : x y z
#
# Youngs Moduli (GPa) = 45.99499 45.99499 70.38762
#
# Poissons Ratio (x) = 0.34744 0.38185
# Poissons Ratio (y) = 0.34744 0.38185
# Poissons Ratio (z) = 0.24952 0.24952
#
# Static dielectric constant tensor:
#      x y z
#    x 2.657620 0.000000 0.000000 
#    y 0.000000 2.657620 0.000000 
#    z 0.000000 0.000000 3.271080 
# 
# 
# High freq. dielectric constant tensor:
#      x y z
#    x 1.535330 0.000000 0.000000 
#    y 0.000000 1.535330 0.000000 
#    z 0.000000 0.000000 1.585520 
# 
# From -- ./inp_files/9458.got.cif
#   From: 2010.03.12/outbox.cif.g09.slc.cpg/sg191_5_cif.got.tgz:9458.got - 2010.04.01 12:09:02.
