data_PCOD8328329
_publ_section_title
;
Structure prediction by ZEFSAII (Michael W. Deem and Ramdas Pophale) SiO2 
 PCOD8328329
Probable space group: P 6/M M M
;
_chemical_formula_sum "Si O2"
_cell_formula_units_Z 132
_cell_length_a 17.931136
_cell_length_b 17.931136
_cell_length_c 28.336986
_cell_angle_alpha 90.000000
_cell_angle_beta 90.000000
_cell_angle_gamma 120.000000
_cell_volume 7890.415919
_symmetry_space_group_name_H-M "P 6/M M M"
_symmetry_group_IT_number 191
_symmetry_cell_setting 'hexagonal'
loop_
_space_group_symop_operation_xyz
x,y,z
x-y,x,z
-y,x-y,z
-x,-y,z
-x+y,-x,z
y,-x+y,z
x-y,-y,-z
-x,-x+y,-z
y,x,-z
-y,-x,-z
-x+y,y,-z
x,x-y,-z
-x,-y,-z
-x+y,-x,-z
y,-x+y,-z
x,y,-z
x-y,x,-z
-y,x-y,-z
-x+y,y,z
x,x-y,z
-y,-x,z
y,x,z
x-y,-y,z
-x,-x+y,z
loop_
_atom_site_type_symbol
_atom_site_label
_atom_site_fract_x
_atom_site_fract_y
_atom_site_fract_z
Si Si1 0.735598 0.097033 0.054278
Si Si2 0.501839 0.669093 0.596388
Si Si3 0.366357 0.467148 0.305870
Si Si4 0.668164 0.160563 0.865615
Si Si5 0.534081 0.634813 0.500000
Si Si6 0.099306 0.366397 0.219275
O O1 0.836738 0.163263 0.065665
O O2 0.675910 0.122772 0.084290
O O3 0.714302 0.000000 0.066359
O O4 0.714613 0.104261 0.000000
O O5 0.460331 0.730166 0.598763
O O6 0.430233 0.569768 0.595141
O O7 0.557523 0.683089 0.643668
O O8 0.558114 0.691201 0.548141
O O9 0.428699 0.571301 0.300586
O O10 0.424898 0.424898 0.302204
O O11 0.296421 0.429296 0.264534
O O12 0.573917 0.147834 0.860652
O O13 0.738681 0.261319 0.861117
O O14 0.681833 0.105615 0.825451
O O15 0.585485 0.585485 0.500000
O O16 0.431113 0.568888 0.500000
O O17 0.163784 0.327568 0.213452
O O18 0.000000 0.289115 0.224340
#
# Coordination Sequence:
#
# PCOD8328329 Si02
#       6
#    24  24  24  24  12  24
#     4   9  18  32  49  69  93 122 156 193 233 275
#     4  10  18  27  39  56  79 105 134 168 207 250
#     4   9  17  29  45  64  86 113 144 176 209 250
#     4  10  20  33  49  70  96 125 155 187 223 263
#     4   9  17  28  40  52  68  95 132 172 210 246
#     4  10  20  33  49  69  92 118 149 185 225 267
#
# _framework density 16.729157000000001
#
# number of rings (size 3 to 8) (size 9 to 14) (size 15 to 20)
#    0.000    2.455    0.000    2.818    0.000    4.727 
#    0.000    1.818    0.000    7.273    0.000    1.273 
#    0.000    4.364    0.000    0.182    0.000    0.000 
#
# Total GULP energy -1635963.777368 kJ/mol
# GULP energy per Si atom -12393.664980 kJ/mol
# Density = 1.669108 g / cm^3
# Si number density = 16.729157 Si / 1000 Ang^3
#
#
#
# Elastic Constant Matrix: (Units=GPa)
#
#
# Indices 1 2 3 4 5 6 
#
# 1 68.0761 39.8136 30.6583 0.0000 0.0000 0.0000
# 2 39.8136 68.0761 30.6583 0.0000 0.0000 0.0000
# 3 30.6583 30.6583 109.2552 0.0000 0.0000 0.0000
# 4 0.0000 0.0000 0.0000 11.4621 0.0000 0.0000
# 5 0.0000 0.0000 0.0000 0.0000 11.4621 0.0000
# 6 0.0000 0.0000 0.0000 0.0000 0.0000 14.1312
#
#
#
# Elastic Compliance Matrix: (Units=1/GPa)
#
#
# Indices 1 2 3 4 5 6 
#
# 1 0.023205 -0.012178 -0.003094 0.000000 0.000000 0.000000
# 2 -0.012178 0.023205 -0.003094 0.000000 0.000000 0.000000
# 3 -0.003094 -0.003094 0.010890 0.000000 0.000000 0.000000
# 4 0.000000 0.000000 0.000000 0.087244 0.000000 0.000000
# 5 0.000000 0.000000 0.000000 0.000000 0.087244 0.000000
# 6 0.000000 0.000000 0.000000 0.000000 0.000000 0.070765
#
#
# Mechanical properties :
#
#
# Convention : Reuss Voigt Hill
#
# Bulk Modulus (GPa) = 48.62245 49.74085 49.18165
# Shear Modulus (GPa) = 14.44495 17.02955 15.73725
#
# Velocity S-wave (km/s) = 2.94166 3.19400 3.07042
# Velocity P-wave (km/s) = 6.37694 6.58785 6.48325
#
# Compressibility (1/GPa) = 0.02056663
#
# Stress axis : x y z
#
# Youngs Moduli (GPa) = 43.09422 43.09422 91.83128
#
# Poissons Ratio (x) = 0.52478 0.28416
# Poissons Ratio (y) = 0.52478 0.28416
# Poissons Ratio (z) = 0.13335 0.13335
#
# Static dielectric constant tensor:
#      x y z
#    x 2.971290 0.000000 0.000000 
#    y 0.000000 2.971290 0.000000 
#    z 0.000000 0.000000 3.577570 
# 
# 
# High freq. dielectric constant tensor:
#      x y z
#    x 1.615880 0.000000 0.000000 
#    y 0.000000 1.615880 0.000000 
#    z 0.000000 0.000000 1.672720 
# 
# From -- ./inp_files/9752.got.cif
#   From: 2010.03.12/outbox.cif.g09.slc.cpg/sg191_5_cif.got.tgz:9752.got - 2010.04.01 12:09:02.
