data_PCOD8328345
_publ_section_title
;
Structure prediction by ZEFSAII (Michael W. Deem and Ramdas Pophale) SiO2 
 PCOD8328345
Probable space group: P 6/M M M
;
_chemical_formula_sum "Si O2"
_cell_formula_units_Z 96
_cell_length_a 31.031423
_cell_length_b 31.031423
_cell_length_c 8.052111
_cell_angle_alpha 90.000000
_cell_angle_beta 90.000000
_cell_angle_gamma 120.000000
_cell_volume 6714.965219
_symmetry_space_group_name_H-M "P 6/M M M"
_symmetry_group_IT_number 191
_symmetry_cell_setting 'hexagonal'
loop_
_space_group_symop_operation_xyz
x,y,z
x-y,x,z
-y,x-y,z
-x,-y,z
-x+y,-x,z
y,-x+y,z
x-y,-y,-z
-x,-x+y,-z
y,x,-z
-y,-x,-z
-x+y,y,-z
x,x-y,-z
-x,-y,-z
-x+y,-x,-z
y,-x+y,-z
x,y,-z
x-y,x,-z
-y,x-y,-z
-x+y,y,z
x,x-y,z
-y,-x,z
y,x,z
x-y,-y,z
-x,-x+y,z
loop_
_atom_site_type_symbol
_atom_site_label
_atom_site_fract_x
_atom_site_fract_y
_atom_site_fract_z
Si Si1 0.944499 0.789339 0.500000
Si Si2 0.943282 0.382511 0.807043
Si Si3 0.056177 0.528089 0.694851
Si Si4 0.091018 0.811017 0.186550
Si Si5 0.707427 0.649973 0.690171
O O1 0.903478 0.806955 0.500000
O O2 0.940358 0.758934 0.668141
O O3 0.000000 0.837399 0.500000
O O4 0.916520 0.414462 0.758550
O O5 0.918962 0.328388 0.719844
O O6 0.000000 0.414302 0.742942
O O7 0.939470 0.372570 0.000000
O O8 0.056568 0.528284 0.500000
O O9 0.000000 0.500000 0.768320
O O10 0.148756 0.851245 0.210571
O O11 0.086364 0.757240 0.201918
O O12 0.072956 0.815823 0.000000
O O13 0.723401 0.660253 0.500000
O O14 0.678564 0.678564 0.747563
#
# Coordination Sequence:
#
# PCOD8328345 Si02
#       5
#    12  24  12  24  24
#     4  10  20  34  50  69  90 111 135 163 199 243
#     4   9  16  24  34  49  69  95 127 163 201 237
#     4   9  15  23  33  45  65  93 125 163 203 237
#     4  10  20  32  46  64  86 111 137 167 204 246
#     4  10  18  27  40  58  78 101 131 166 202 240
#
# _framework density 14.296424999999999
#
# number of rings (size 3 to 8) (size 9 to 14) (size 15 to 20)
#    0.000    2.375    1.250    2.625    0.000    7.500 
#    0.000    0.000    0.000    0.125    0.000    0.000 
#    0.000    0.000    0.000    6.250    0.000    0.000 
#
# Total GULP energy -1189640.619880 kJ/mol
# GULP energy per Si atom -12392.089790 kJ/mol
# Density = 1.426389 g / cm^3
# Si number density = 14.296425 Si / 1000 Ang^3
#
#
#
# Elastic Constant Matrix: (Units=GPa)
#
#
# Indices 1 2 3 4 5 6 
#
# 1 71.6887 35.9678 26.9393 0.0000 0.0000 0.0000
# 2 35.9678 71.6887 26.9393 0.0000 0.0000 0.0000
# 3 26.9393 26.9393 78.1778 0.0000 0.0000 0.0000
# 4 0.0000 0.0000 0.0000 16.0701 0.0000 0.0000
# 5 0.0000 0.0000 0.0000 0.0000 16.0701 0.0000
# 6 0.0000 0.0000 0.0000 0.0000 0.0000 17.8605
#
#
#
# Elastic Compliance Matrix: (Units=1/GPa)
#
#
# Indices 1 2 3 4 5 6 
#
# 1 0.019610 -0.008385 -0.003868 0.000000 0.000000 0.000000
# 2 -0.008385 0.019610 -0.003868 0.000000 0.000000 0.000000
# 3 -0.003868 -0.003868 0.015457 0.000000 0.000000 0.000000
# 4 0.000000 0.000000 0.000000 0.062227 0.000000 0.000000
# 5 0.000000 0.000000 0.000000 0.000000 0.062227 0.000000
# 6 0.000000 0.000000 0.000000 0.000000 0.000000 0.055990
#
#
# Mechanical properties :
#
#
# Convention : Reuss Voigt Hill
#
# Bulk Modulus (GPa) = 44.57394 44.58311 44.57852
# Shear Modulus (GPa) = 18.19235 18.78071 18.48653
#
# Velocity S-wave (km/s) = 3.57110 3.62838 3.59985
# Velocity P-wave (km/s) = 6.94620 6.98613 6.96620
#
# Compressibility (1/GPa) = 0.02243463
#
# Stress axis : x y z
#
# Youngs Moduli (GPa) = 50.99523 50.99523 64.69559
#
# Poissons Ratio (x) = 0.42760 0.25023
# Poissons Ratio (y) = 0.42760 0.25023
# Poissons Ratio (z) = 0.19724 0.19724
#
# Static dielectric constant tensor:
#      x y z
#    x 2.675800 0.000000 0.000000 
#    y 0.000000 2.675800 0.000000 
#    z 0.000000 0.000000 2.947970 
# 
# 
# High freq. dielectric constant tensor:
#      x y z
#    x 1.509110 0.000000 0.000000 
#    y 0.000000 1.509110 0.000000 
#    z 0.000000 0.000000 1.568820 
# 
# From -- ./inp_files/1569.got.cif
#   From: 2010.03.12/outbox.cif.g09.slc.cpg/sg191_1_cif.got.tgz:1569.got - 2010.04.01 12:09:02.
