data_PCOD8328471
_publ_section_title
;
Structure prediction by ZEFSAII (Michael W. Deem and Ramdas Pophale) SiO2 
 PCOD8328471
Probable space group: P 6/M M M
;
_chemical_formula_sum "Si O2"
_cell_formula_units_Z 144
_cell_length_a 22.161012
_cell_length_b 22.161012
_cell_length_c 19.101083
_cell_angle_alpha 90.000000
_cell_angle_beta 90.000000
_cell_angle_gamma 120.000000
_cell_volume 8123.960465
_symmetry_space_group_name_H-M "P 6/M M M"
_symmetry_group_IT_number 191
_symmetry_cell_setting 'hexagonal'
loop_
_space_group_symop_operation_xyz
x,y,z
x-y,x,z
-y,x-y,z
-x,-y,z
-x+y,-x,z
y,-x+y,z
x-y,-y,-z
-x,-x+y,-z
y,x,-z
-y,-x,-z
-x+y,y,-z
x,x-y,-z
-x,-y,-z
-x+y,-x,-z
y,-x+y,-z
x,y,-z
x-y,x,-z
-y,x-y,-z
-x+y,y,z
x,x-y,z
-y,-x,z
y,x,z
x-y,-y,z
-x,-x+y,z
loop_
_atom_site_type_symbol
_atom_site_label
_atom_site_fract_x
_atom_site_fract_y
_atom_site_fract_z
Si Si1 0.922120 0.219192 0.772657
Si Si2 0.079818 0.668336 0.143136
Si Si3 0.333595 0.798397 0.208729
Si Si4 0.379956 0.119688 0.634415
Si Si5 0.800381 0.466829 0.628844
Si Si6 0.786737 0.711072 0.500000
Si Si7 0.389694 0.917610 0.000000
O O1 0.862761 0.137240 0.769656
O O2 0.911281 0.255380 0.841899
O O3 0.921066 0.262992 0.705121
O O4 0.000000 0.228439 0.775217
O O5 0.125196 0.655505 0.199514
O O6 0.000000 0.608677 0.153515
O O7 0.107561 0.662067 0.066721
O O8 0.396773 0.793545 0.172378
O O9 0.260455 0.739546 0.175104
O O10 0.333374 0.784464 0.290025
O O11 0.393631 0.196816 0.643973
O O12 0.456771 0.130035 0.620375
O O13 0.332915 0.081036 0.568125
O O14 0.731844 0.463687 0.593416
O O15 0.813511 0.406756 0.595483
O O16 0.780249 0.780249 0.500000
O O17 0.868145 0.736290 0.500000
O O18 0.443783 0.887566 0.000000
O O19 0.434944 0.000000 0.000000
#
# Coordination Sequence:
#
# PCOD8328471 Si02
#       7
#    24  24  24  24  24  12  12
#     4  10  19  33  53  76 102 130 165 207 252 302
#     4  10  19  31  50  71  94 126 162 204 250 296
#     4  10  18  29  45  66  93 123 158 198 243 292
#     4   9  17  31  50  73 100 131 167 207 250 297
#     4   9  16  27  45  68  95 127 166 209 250 290
#     4  10  20  34  55  78 101 131 165 201 245 303
#     4   9  18  32  47  68  99 132 166 204 250 299
#
# _framework density 17.725345000000001
#
# number of rings (size 3 to 8) (size 9 to 14) (size 15 to 20)
#    0.000    2.417    1.667    1.833    0.000    2.333 
#    0.000    2.083    0.000    2.750    0.000    2.333 
#    0.000    4.000    0.000    0.000    0.000   10.167 
#
# Total GULP energy -1784135.536589 kJ/mol
# GULP energy per Si atom -12389.830115 kJ/mol
# Density = 1.768500 g / cm^3
# Si number density = 17.725345 Si / 1000 Ang^3
#
#
#
# Elastic Constant Matrix: (Units=GPa)
#
#
# Indices 1 2 3 4 5 6 
#
# 1 104.9690 60.1237 22.3023 0.0000 0.0000 0.0000
# 2 60.1237 104.9690 22.3023 0.0000 0.0000 0.0000
# 3 22.3023 22.3023 56.1678 0.0000 0.0000 0.0000
# 4 0.0000 0.0000 0.0000 12.1447 0.0000 0.0000
# 5 0.0000 0.0000 0.0000 0.0000 12.1447 0.0000
# 6 0.0000 0.0000 0.0000 0.0000 0.0000 22.4226
#
#
#
# Elastic Compliance Matrix: (Units=1/GPa)
#
#
# Indices 1 2 3 4 5 6 
#
# 1 0.014542 -0.007757 -0.002694 0.000000 0.000000 0.000000
# 2 -0.007757 0.014542 -0.002694 0.000000 0.000000 0.000000
# 3 -0.002694 -0.002694 0.019943 0.000000 0.000000 0.000000
# 4 0.000000 0.000000 0.000000 0.082341 0.000000 0.000000
# 5 0.000000 0.000000 0.000000 0.000000 0.082341 0.000000
# 6 0.000000 0.000000 0.000000 0.000000 0.000000 0.044598
#
#
# Mechanical properties :
#
#
# Convention : Reuss Voigt Hill
#
# Bulk Modulus (GPa) = 43.98121 52.84025 48.41073
# Shear Modulus (GPa) = 17.11298 20.10089 18.60694
#
# Velocity S-wave (km/s) = 3.11054 3.37117 3.24348
# Velocity P-wave (km/s) = 6.14550 6.71032 6.43411
#
# Compressibility (1/GPa) = 0.02273698
#
# Stress axis : x y z
#
# Youngs Moduli (GPa) = 68.76631 68.76631 50.14219
#
# Poissons Ratio (x) = 0.53341 0.13509
# Poissons Ratio (y) = 0.53341 0.13509
# Poissons Ratio (z) = 0.18527 0.18527
#
# Static dielectric constant tensor:
#      x y z
#    x 3.264900 0.000000 0.000000 
#    y 0.000000 3.264900 0.000000 
#    z 0.000000 0.000000 3.197610 
# 
# 
# High freq. dielectric constant tensor:
#      x y z
#    x 1.670830 0.000000 0.000000 
#    y 0.000000 1.670830 0.000000 
#    z 0.000000 0.000000 1.664780 
# 
# From -- ./inp_files/7672.got.cif
#   From: 2010.03.12/outbox.cif.g09.slc.cpg/sg191_4_cif.got.tgz:7672.got - 2010.04.01 12:09:02.
