data_PCOD8328363
_publ_section_title
;
Structure prediction by ZEFSAII (Michael W. Deem and Ramdas Pophale) SiO2 
 PCOD8328363
Probable space group: P 6/M M M
;
_chemical_formula_sum "Si O2"
_cell_formula_units_Z 168
_cell_length_a 22.890939
_cell_length_b 22.890939
_cell_length_c 23.315794
_cell_angle_alpha 90.000000
_cell_angle_beta 90.000000
_cell_angle_gamma 120.000000
_cell_volume 10580.545457
_symmetry_space_group_name_H-M "P 6/M M M"
_symmetry_group_IT_number 191
_symmetry_cell_setting 'hexagonal'
loop_
_space_group_symop_operation_xyz
x,y,z
x-y,x,z
-y,x-y,z
-x,-y,z
-x+y,-x,z
y,-x+y,z
x-y,-y,-z
-x,-x+y,-z
y,x,-z
-y,-x,-z
-x+y,y,-z
x,x-y,-z
-x,-y,-z
-x+y,-x,-z
y,-x+y,-z
x,y,-z
x-y,x,-z
-y,x-y,-z
-x+y,y,z
x,x-y,z
-y,-x,z
y,x,z
x-y,-y,z
-x,-x+y,z
loop_
_atom_site_type_symbol
_atom_site_label
_atom_site_fract_x
_atom_site_fract_y
_atom_site_fract_z
Si Si1 0.666051 0.198431 0.066309
Si Si2 0.527820 0.920740 0.641159
Si Si3 0.593132 0.864968 0.135607
Si Si4 0.790665 0.714039 0.346741
Si Si5 0.279916 0.074341 0.065559
Si Si6 0.309712 0.386685 0.258080
Si Si7 0.268326 0.403165 0.433718
O O1 0.598887 0.197773 0.085051
O O2 0.727601 0.272400 0.079867
O O3 0.669050 0.140607 0.103454
O O4 0.665243 0.179960 0.000000
O O5 0.449353 0.898706 0.643032
O O6 0.548633 0.902188 0.701579
O O7 0.539322 0.879314 0.590883
O O8 0.574688 0.000000 0.628420
O O9 0.591654 0.795827 0.125376
O O10 0.661554 0.922207 0.106283
O O11 0.588444 0.876892 0.202433
O O12 0.871102 0.742203 0.345393
O O13 0.776778 0.776778 0.348450
O O14 0.757180 0.668607 0.290633
O O15 0.756261 0.668001 0.402385
O O16 0.258015 0.129008 0.083214
O O17 0.214964 0.000000 0.073336
O O18 0.306172 0.086298 0.000000
O O19 0.354713 0.354713 0.238598
O O20 0.277151 0.391925 0.500000
O O21 0.213587 0.427174 0.424215
#
# Coordination Sequence:
#
# PCOD8328363 Si02
#       7
#    24  24  24  24  24  24  24
#     4   9  17  29  44  61  82 109 142 180 221 262
#     4   9  18  31  46  65  89 116 145 178 215 255
#     4  10  18  27  43  66  87 109 141 181 221 258
#     4   9  17  29  45  65  90 118 146 178 216 257
#     4   9  17  29  45  65  89 115 142 174 213 256
#     4   9  17  29  44  62  85 113 143 174 212 259
#     4   9  17  29  46  68  92 117 146 181 219 256
#
# _framework density 15.878197999999999
#
# number of rings (size 3 to 8) (size 9 to 14) (size 15 to 20)
#    0.000    2.857    0.000    2.714    0.000    4.857 
#    0.000    0.714    0.000    1.857    0.000    7.000 
#    0.000    0.000    0.000    8.143    0.000    3.143 
#
# Total GULP energy -2082913.111870 kJ/mol
# GULP energy per Si atom -12398.292333 kJ/mol
# Density = 1.584206 g / cm^3
# Si number density = 15.878198 Si / 1000 Ang^3
#
#
#
# Elastic Constant Matrix: (Units=GPa)
#
#
# Indices 1 2 3 4 5 6 
#
# 1 90.9692 47.6705 39.7637 0.0000 0.0000 0.0000
# 2 47.6705 90.9692 39.7637 0.0000 0.0000 0.0000
# 3 39.7637 39.7637 90.5937 0.0000 0.0000 0.0000
# 4 0.0000 0.0000 0.0000 18.9510 0.0000 0.0000
# 5 0.0000 0.0000 0.0000 0.0000 18.9510 0.0000
# 6 0.0000 0.0000 0.0000 0.0000 0.0000 21.6493
#
#
#
# Elastic Compliance Matrix: (Units=1/GPa)
#
#
# Indices 1 2 3 4 5 6 
#
# 1 0.016368 -0.006728 -0.004231 0.000000 0.000000 0.000000
# 2 -0.006728 0.016368 -0.004231 0.000000 0.000000 0.000000
# 3 -0.004231 -0.004231 0.014753 0.000000 0.000000 0.000000
# 4 0.000000 0.000000 0.000000 0.052768 0.000000 0.000000
# 5 0.000000 0.000000 0.000000 0.000000 0.052768 0.000000
# 6 0.000000 0.000000 0.000000 0.000000 0.000000 0.046191
#
#
# Mechanical properties :
#
#
# Convention : Reuss Voigt Hill
#
# Bulk Modulus (GPa) = 58.45274 58.54755 58.50015
# Shear Modulus (GPa) = 21.24972 21.59922 21.42447
#
# Velocity S-wave (km/s) = 3.66224 3.69224 3.67727
# Velocity P-wave (km/s) = 7.40107 7.42494 7.41301
#
# Compressibility (1/GPa) = 0.01710784
#
# Stress axis : x y z
#
# Youngs Moduli (GPa) = 61.09579 61.09579 67.78424
#
# Poissons Ratio (x) = 0.41103 0.28681
# Poissons Ratio (y) = 0.41103 0.28681
# Poissons Ratio (z) = 0.25851 0.25851
#
# Static dielectric constant tensor:
#      x y z
#    x 2.963020 0.000000 0.000000 
#    y 0.000000 2.963020 0.000000 
#    z 0.000000 0.000000 2.986910 
# 
# 
# High freq. dielectric constant tensor:
#      x y z
#    x 1.595190 0.000000 0.000000 
#    y 0.000000 1.595190 0.000000 
#    z 0.000000 0.000000 1.612510 
# 
# From -- ./inp_files/7957.got.cif
#   From: 2010.03.12/outbox.cif.g09.slc.cpg/sg191_4_cif.got.tgz:7957.got - 2010.04.01 12:09:02.
