data_PCOD8328434
_publ_section_title
;
Structure prediction by ZEFSAII (Michael W. Deem and Ramdas Pophale) SiO2 
 PCOD8328434
Probable space group: P 6/M M M
;
_chemical_formula_sum "Si O2"
_cell_formula_units_Z 192
_cell_length_a 24.068465
_cell_length_b 24.068465
_cell_length_c 22.766807
_cell_angle_alpha 90.000000
_cell_angle_beta 90.000000
_cell_angle_gamma 120.000000
_cell_volume 11421.668325
_symmetry_space_group_name_H-M "P 6/M M M"
_symmetry_group_IT_number 191
_symmetry_cell_setting 'hexagonal'
loop_
_space_group_symop_operation_xyz
x,y,z
x-y,x,z
-y,x-y,z
-x,-y,z
-x+y,-x,z
y,-x+y,z
x-y,-y,-z
-x,-x+y,-z
y,x,-z
-y,-x,-z
-x+y,y,-z
x,x-y,-z
-x,-y,-z
-x+y,-x,-z
y,-x+y,-z
x,y,-z
x-y,x,-z
-y,x-y,-z
-x+y,y,z
x,x-y,z
-y,-x,z
y,x,z
x-y,-y,z
-x,-x+y,z
loop_
_atom_site_type_symbol
_atom_site_label
_atom_site_fract_x
_atom_site_fract_y
_atom_site_fract_z
Si Si1 0.665891 0.456530 0.897777
Si Si2 0.184122 0.690826 0.773047
Si Si3 0.665554 0.203033 0.644351
Si Si4 0.927002 0.293445 0.816617
Si Si5 0.136825 0.403935 0.065587
Si Si6 0.190268 0.260703 0.742211
Si Si7 0.796462 0.722579 0.607158
Si Si8 0.143518 0.418256 0.434233
O O1 0.720731 0.441462 0.918346
O O2 0.598485 0.401516 0.922367
O O3 0.663174 0.457033 0.826786
O O4 0.678148 0.522304 0.926838
O O5 0.232609 0.767392 0.767502
O O6 0.183876 0.656430 0.712855
O O7 0.113695 0.677696 0.788101
O O8 0.600837 0.201673 0.622640
O O9 0.725593 0.274408 0.634277
O O10 0.674920 0.149651 0.608741
O O11 0.916812 0.279728 0.886399
O O12 0.906717 0.226729 0.785485
O O13 0.000000 0.345498 0.804008
O O14 0.198618 0.397235 0.078784
O O15 0.109807 0.380112 0.000000
O O16 0.114750 0.229499 0.751649
O O17 0.204287 0.204287 0.757606
O O18 0.210513 0.286531 0.676587
O O19 0.870097 0.740193 0.587806
O O20 0.777330 0.777330 0.587990
O O21 0.741978 0.653861 0.582170
O O22 0.130149 0.433662 0.500000
O O23 0.209421 0.418841 0.430441
#
# Coordination Sequence:
#
# PCOD8328434 Si02
#       8
#    24  24  24  24  24  24  24  24
#     4   9  16  26  42  63  84 105 132 170 215 262
#     4   9  17  29  45  65  89 115 142 176 224 279
#     4  10  19  31  49  71  94 120 152 193 241 292
#     4  10  18  28  46  67  85 110 146 186 223 260
#     4   9  18  31  44  59  83 114 142 170 212 265
#     4   9  16  26  43  68  94 117 143 178 219 257
#     4   9  17  30  50  75 101 128 160 199 238 276
#     4   9  18  31  46  66  93 126 161 194 230 273
#
# _framework density 16.810154000000001
#
# number of rings (size 3 to 8) (size 9 to 14) (size 15 to 20)
#    0.000    2.750    0.000    3.250    0.000    3.000 
#    0.000    1.250    0.000   12.250    0.000    6.125 
#    0.000    0.000    0.000    3.125    0.000    3.250 
#
# Total GULP energy -2379419.746265 kJ/mol
# GULP energy per Si atom -12392.811178 kJ/mol
# Density = 1.677189 g / cm^3
# Si number density = 16.810154 Si / 1000 Ang^3
#
#
#
# Elastic Constant Matrix: (Units=GPa)
#
#
# Indices 1 2 3 4 5 6 
#
# 1 64.3665 31.9511 13.7254 0.0000 0.0000 0.0000
# 2 31.9511 64.3665 13.7254 0.0000 0.0000 0.0000
# 3 13.7254 13.7254 53.5890 0.0000 0.0000 0.0000
# 4 0.0000 0.0000 0.0000 14.8599 0.0000 0.0000
# 5 0.0000 0.0000 0.0000 0.0000 14.8599 0.0000
# 6 0.0000 0.0000 0.0000 0.0000 0.0000 16.2077
#
#
#
# Elastic Compliance Matrix: (Units=1/GPa)
#
#
# Indices 1 2 3 4 5 6 
#
# 1 0.021025 -0.009825 -0.002869 0.000000 0.000000 0.000000
# 2 -0.009825 0.021025 -0.002869 0.000000 0.000000 0.000000
# 3 -0.002869 -0.002869 0.020130 0.000000 0.000000 0.000000
# 4 0.000000 0.000000 0.000000 0.067295 0.000000 0.000000
# 5 0.000000 0.000000 0.000000 0.000000 0.067295 0.000000
# 6 0.000000 0.000000 0.000000 0.000000 0.000000 0.061699
#
#
# Mechanical properties :
#
#
# Convention : Reuss Voigt Hill
#
# Bulk Modulus (GPa) = 32.20046 33.45844 32.82945
# Shear Modulus (GPa) = 16.66974 17.38016 17.02495
#
# Velocity S-wave (km/s) = 3.15246 3.21893 3.18587
# Velocity P-wave (km/s) = 5.69628 5.81053 5.75369
#
# Compressibility (1/GPa) = 0.03105546
#
# Stress axis : x y z
#
# Youngs Moduli (GPa) = 47.56310 47.56310 49.67724
#
# Poissons Ratio (x) = 0.46730 0.14250
# Poissons Ratio (y) = 0.46730 0.14250
# Poissons Ratio (z) = 0.13644 0.13644
#
# Static dielectric constant tensor:
#      x y z
#    x 3.050270 0.000000 0.000000 
#    y 0.000000 3.050270 0.000000 
#    z 0.000000 0.000000 3.259500 
# 
# 
# High freq. dielectric constant tensor:
#      x y z
#    x 1.625970 0.000000 0.000000 
#    y 0.000000 1.625970 0.000000 
#    z 0.000000 0.000000 1.653000 
# 
# From -- ./inp_files/9288.got.cif
#   From: 2010.03.12/outbox.cif.g09.slc.cpg/sg191_5_cif.got.tgz:9288.got - 2010.04.01 12:09:02.
