data_PCOD8328032
_publ_section_title
;
Structure prediction by ZEFSAII (Michael W. Deem and Ramdas Pophale) SiO2 
 PCOD8328032
Probable space group: P -6 2 C
;
_chemical_formula_sum "Si O2"
_cell_formula_units_Z 48
_cell_length_a 12.371001
_cell_length_b 12.371001
_cell_length_c 18.252618
_cell_angle_alpha 90.000000
_cell_angle_beta 90.000000
_cell_angle_gamma 120.000000
_cell_volume 2419.164944
_symmetry_space_group_name_H-M "P -6 2 C"
_symmetry_group_IT_number 190
_symmetry_cell_setting 'hexagonal'
loop_
_space_group_symop_operation_xyz
x,y,z
-x+y,-x,1/2-z
-y,x-y,z
x,y,1/2-z
-x+y,-x,z
-y,x-y,1/2-z
x-y,-y,-z
-x,-x+y,-z
y,x,-z
y,x,1/2+z
x-y,-y,1/2+z
-x,-x+y,1/2+z
loop_
_atom_site_type_symbol
_atom_site_label
_atom_site_fract_x
_atom_site_fract_y
_atom_site_fract_z
Si Si1 0.727813 0.920383 0.336817
Si Si2 0.333335 0.666668 0.910592
Si Si3 0.333335 0.666668 0.416428
Si Si4 0.000000 0.000000 0.337573
Si Si5 0.618664 0.093491 0.165868
Si Si6 0.468006 0.114773 0.665921
O O1 0.730141 0.922377 0.250000
O O2 0.647527 0.776279 0.363033
O O3 0.669082 0.003719 0.364720
O O4 0.867311 0.975640 0.368148
O O5 0.462224 0.782066 0.882102
O O6 0.333334 0.666667 0.997092
O O7 0.393209 0.805851 0.385156
O O8 0.000000 0.000000 0.250000
O O9 0.660384 0.130711 0.250000
O O10 0.467944 0.026220 0.159238
O O11 0.501242 0.161259 0.750000
#
# Coordination Sequence:
#
# PCOD8328032 Si02
#       6
#    12   4   4   4  12  12
#     4   9  18  32  56  87 115 145 183 241 294 339
#     4  12  28  38  52  87 127 167 187 225 310 374
#     4  12  22  38  58  87 121 155 193 252 289 353
#     4   9  18  30  51  87 121 140 175 231 301 353
#     4  10  21  38  60  83 116 154 198 245 284 345
#     4  10  19  36  63  89 111 146 202 254 291 333
#
# _framework density 19.841557999999999
#
# number of rings (size 3 to 8) (size 9 to 14) (size 15 to 20)
#    0.000    2.000    2.500    1.500    3.500    1.000 
#    0.000    0.000    0.000    0.000    0.000    0.000 
#    0.000    0.000    0.000    0.000    0.000    0.000 
#
# Total GULP energy -595161.453511 kJ/mol
# GULP energy per Si atom -12399.196948 kJ/mol
# Density = 1.979640 g / cm^3
# Si number density = 19.841558 Si / 1000 Ang^3
#
#
#
# Elastic Constant Matrix: (Units=GPa)
#
#
# Indices 1 2 3 4 5 6 
#
# 1 115.1412 52.4763 24.3974 0.0000 0.0001 0.0002
# 2 52.4763 115.1420 24.3973 0.0000 0.0000 0.0003
# 3 24.3974 24.3973 69.6427 -0.0004 0.0001 0.0001
# 4 0.0000 0.0000 -0.0004 8.8037 0.0002 0.0001
# 5 0.0001 0.0000 0.0001 0.0002 8.8034 0.0000
# 6 0.0002 0.0003 0.0001 0.0001 0.0000 31.3324
#
#
#
# Elastic Compliance Matrix: (Units=1/GPa)
#
#
# Indices 1 2 3 4 5 6 
#
# 1 0.011301 -0.004657 -0.002327 0.000000 0.000000 0.000000
# 2 -0.004657 0.011301 -0.002327 0.000000 0.000000 0.000000
# 3 -0.002327 -0.002327 0.015990 0.000001 0.000000 0.000000
# 4 0.000000 0.000000 0.000001 0.113588 -0.000002 0.000000
# 5 0.000000 0.000000 0.000000 -0.000002 0.113593 0.000000
# 6 0.000000 0.000000 0.000000 0.000000 0.000000 0.031916
#
#
# Mechanical properties :
#
#
# Convention : Reuss Voigt Hill
#
# Bulk Modulus (GPa) = 50.08223 55.82978 52.95600
# Shear Modulus (GPa) = 15.48144 23.03156 19.25650
#
# Velocity S-wave (km/s) = 2.79633 3.41071 3.11869
# Velocity P-wave (km/s) = 5.97677 6.61131 6.30204
#
# Compressibility (1/GPa) = 0.01996716
#
# Stress axis : x y z
#
# Youngs Moduli (GPa) = 88.49025 88.49101 62.54047
#
# Poissons Ratio (x) = 0.41212 0.14556
# Poissons Ratio (y) = 0.41211 0.14555
# Poissons Ratio (z) = 0.20595 0.20595
#
# Static dielectric constant tensor:
#      x y z
#    x 3.728720 0.000000 0.000000 
#    y 0.000000 3.728710 0.000010 
#    z 0.000000 0.000010 3.022520 
# 
# 
# High freq. dielectric constant tensor:
#      x y z
#    x 1.780950 0.000000 0.000000 
#    y 0.000000 1.780950 0.000000 
#    z 0.000000 0.000000 1.709020 
# 
# From -- ./inp_files/4170.got.cif
#   From: 2010.06.25/outbox.cif.g09.slc.cpg/sg190_3_cif.got.tgz:4170.got - 2010.06.28 13:08:06.
