data_PCOD8328539
_publ_section_title
;
Structure prediction by ZEFSAII (Michael W. Deem and Ramdas Pophale) SiO2 
 PCOD8328539
Probable space group: P 6/M M M
;
_chemical_formula_sum "Si O2"
_cell_formula_units_Z 108
_cell_length_a 27.152038
_cell_length_b 27.152038
_cell_length_c 10.328749
_cell_angle_alpha 90.000000
_cell_angle_beta 90.000000
_cell_angle_gamma 120.000000
_cell_volume 6594.520474
_symmetry_space_group_name_H-M "P 6/M M M"
_symmetry_group_IT_number 191
_symmetry_cell_setting 'hexagonal'
loop_
_space_group_symop_operation_xyz
x,y,z
x-y,x,z
-y,x-y,z
-x,-y,z
-x+y,-x,z
y,-x+y,z
x-y,-y,-z
-x,-x+y,-z
y,x,-z
-y,-x,-z
-x+y,y,-z
x,x-y,-z
-x,-y,-z
-x+y,-x,-z
y,-x+y,-z
x,y,-z
x-y,x,-z
-y,x-y,-z
-x+y,y,z
x,x-y,z
-y,-x,z
y,x,z
x-y,-y,z
-x,-x+y,z
loop_
_atom_site_type_symbol
_atom_site_label
_atom_site_fract_x
_atom_site_fract_y
_atom_site_fract_z
Si Si1 0.675395 0.782684 0.728502
Si Si2 0.169153 0.716462 0.647027
Si Si3 0.584732 0.584732 0.846975
Si Si4 0.064635 0.236927 0.500000
Si Si5 0.494211 0.876948 0.849726
Si Si6 0.308275 0.308275 0.145350
O O1 0.676235 0.838118 0.790132
O O2 0.613943 0.740257 0.669481
O O3 0.722907 0.801082 0.621307
O O4 0.693242 0.750917 0.832400
O O5 0.159446 0.691931 0.500000
O O6 0.233692 0.766309 0.663968
O O7 0.159620 0.669594 0.754068
O O8 0.585563 0.528314 0.803171
O O9 0.639204 0.639204 0.780141
O O10 0.586395 0.586395 0.000000
O O11 0.103889 0.207778 0.500000
O O12 0.000000 0.186458 0.500000
O O13 0.427301 0.854601 0.836320
O O14 0.508922 0.870422 0.000000
O O15 0.324496 0.324496 0.000000
#
# Coordination Sequence:
#
# PCOD8328539 Si02
#       6
#    24  24  12  12  24  12
#     4  10  19  31  48  71  99 132 167 203 245 292
#     4  10  20  34  52  75 101 128 161 204 254 303
#     4   9  17  30  47  70  98 132 168 200 237 284
#     4  10  18  30  50  73  95 127 169 207 245 293
#     4  10  20  34  52  73 100 135 170 203 244 295
#     4  11  20  30  47  71 100 137 173 203 244 291
#
# _framework density 16.377231999999999
#
# number of rings (size 3 to 8) (size 9 to 14) (size 15 to 20)
#    0.000    2.000    4.444    0.333    0.000    2.667 
#    0.000    3.889    0.000    1.889    0.000    0.000 
#    0.000    0.000    0.000    0.000    0.000   10.111 
#
# Total GULP energy -1338311.904511 kJ/mol
# GULP energy per Si atom -12391.776894 kJ/mol
# Density = 1.633996 g / cm^3
# Si number density = 16.377232 Si / 1000 Ang^3
#
#
#
# Elastic Constant Matrix: (Units=GPa)
#
#
# Indices 1 2 3 4 5 6 
#
# 1 94.1145 45.1559 41.9049 0.0000 0.0000 0.0000
# 2 45.1559 94.1145 41.9049 0.0000 0.0000 0.0000
# 3 41.9049 41.9049 74.6494 0.0000 0.0000 0.0000
# 4 0.0000 0.0000 0.0000 31.9924 0.0000 0.0000
# 5 0.0000 0.0000 0.0000 0.0000 31.9924 0.0000
# 6 0.0000 0.0000 0.0000 0.0000 0.0000 24.4793
#
#
#
# Elastic Compliance Matrix: (Units=1/GPa)
#
#
# Indices 1 2 3 4 5 6 
#
# 1 0.015634 -0.004791 -0.006087 0.000000 0.000000 0.000000
# 2 -0.004791 0.015634 -0.006087 0.000000 0.000000 0.000000
# 3 -0.006087 -0.006087 0.020230 0.000000 0.000000 0.000000
# 4 0.000000 0.000000 0.000000 0.031257 0.000000 0.000000
# 5 0.000000 0.000000 0.000000 0.000000 0.031257 0.000000
# 6 0.000000 0.000000 0.000000 0.000000 0.000000 0.040851
#
#
# Mechanical properties :
#
#
# Convention : Reuss Voigt Hill
#
# Bulk Modulus (GPa) = 56.91968 57.86777 57.39372
# Shear Modulus (GPa) = 25.68710 26.62034 26.15372
#
# Velocity S-wave (km/s) = 3.96468 4.03606 4.00053
# Velocity P-wave (km/s) = 7.46921 7.55848 7.51398
#
# Compressibility (1/GPa) = 0.01756862
#
# Stress axis : x y z
#
# Youngs Moduli (GPa) = 63.96177 63.96177 49.43199
#
# Poissons Ratio (x) = 0.30645 0.30089
# Poissons Ratio (y) = 0.30645 0.30089
# Poissons Ratio (z) = 0.38933 0.38933
#
# Static dielectric constant tensor:
#      x y z
#    x 3.115670 0.000000 0.000000 
#    y 0.000000 3.115670 0.000000 
#    z 0.000000 0.000000 2.970430 
# 
# 
# High freq. dielectric constant tensor:
#      x y z
#    x 1.621950 0.000000 0.000000 
#    y 0.000000 1.621950 0.000000 
#    z 0.000000 0.000000 1.614790 
# 
# From -- ./inp_files/2989.got.cif
#   From: 2010.03.12/outbox.cif.g09.slc.cpg/sg191_2_cif.got.tgz:2989.got - 2010.04.01 12:09:02.
