data_PCOD8328528
_publ_section_title
;
Structure prediction by ZEFSAII (Michael W. Deem and Ramdas Pophale) SiO2 
 PCOD8328528
Probable space group: P 6/M M M
;
_chemical_formula_sum "Si O2"
_cell_formula_units_Z 144
_cell_length_a 20.764275
_cell_length_b 20.764275
_cell_length_c 23.701552
_cell_angle_alpha 90.000000
_cell_angle_beta 90.000000
_cell_angle_gamma 120.000000
_cell_volume 8849.952926
_symmetry_space_group_name_H-M "P 6/M M M"
_symmetry_group_IT_number 191
_symmetry_cell_setting 'hexagonal'
loop_
_space_group_symop_operation_xyz
x,y,z
x-y,x,z
-y,x-y,z
-x,-y,z
-x+y,-x,z
y,-x+y,z
x-y,-y,-z
-x,-x+y,-z
y,x,-z
-y,-x,-z
-x+y,y,-z
x,x-y,-z
-x,-y,-z
-x+y,-x,-z
y,-x+y,-z
x,y,-z
x-y,x,-z
-y,x-y,-z
-x+y,y,z
x,x-y,z
-y,-x,z
y,x,z
x-y,-y,z
-x,-x+y,z
loop_
_atom_site_type_symbol
_atom_site_label
_atom_site_fract_x
_atom_site_fract_y
_atom_site_fract_z
Si Si1 0.915478 0.533993 0.000000
Si Si2 0.180373 0.515098 0.893513
Si Si3 0.664393 0.478324 0.317973
Si Si4 0.087194 0.438736 0.783439
Si Si5 0.732656 0.614165 0.386440
Si Si6 0.225898 0.920598 0.726610
Si Si7 0.767145 0.079949 0.500000
O O1 0.868914 0.534385 0.054116
O O2 0.921902 0.460951 0.000000
O O3 0.000000 0.605169 0.000000
O O4 0.255784 0.511567 0.888727
O O5 0.202329 0.601165 0.900063
O O6 0.127992 0.479726 0.839936
O O7 0.743837 0.487674 0.300090
O O8 0.606933 0.393068 0.333194
O O9 0.631109 0.503641 0.267226
O O10 0.673771 0.527706 0.373581
O O11 0.097255 0.367216 0.774290
O O12 0.000000 0.414619 0.785787
O O13 0.814030 0.628059 0.391898
O O14 0.733414 0.662384 0.333230
O O15 0.717790 0.640147 0.446249
O O16 0.139856 0.860145 0.727383
O O17 0.232496 0.000000 0.739149
O O18 0.852635 0.147366 0.500000
O O19 0.764570 0.000000 0.500000
#
# Coordination Sequence:
#
# PCOD8328528 Si02
#       7
#    12  24  24  24  24  24  12
#     4   9  19  34  50  66  86 115 150 186 222 264
#     4  11  21  33  48  67  92 120 152 188 228 272
#     4  10  19  32  49  69  93 119 149 186 233 283
#     4  10  20  32  47  66  90 120 153 190 227 266
#     4   8  16  29  44  63  87 115 146 180 216 259
#     4   9  16  28  45  65  88 114 145 180 221 266
#     4  10  18  30  49  70  91 117 151 189 228 270
#
# _framework density 16.271273000000001
#
# number of rings (size 3 to 8) (size 9 to 14) (size 15 to 20)
#    0.000    2.417    0.000    4.583    0.000    2.667 
#    0.000    2.917    0.000    0.750    0.000    1.167 
#    0.000    4.000    0.000    0.000    0.000    0.333 
#
# Total GULP energy -1784287.799306 kJ/mol
# GULP energy per Si atom -12390.887495 kJ/mol
# Density = 1.623424 g / cm^3
# Si number density = 16.271273 Si / 1000 Ang^3
#
#
#
# Elastic Constant Matrix: (Units=GPa)
#
#
# Indices 1 2 3 4 5 6 
#
# 1 74.5697 65.6426 28.5076 0.0000 0.0000 0.0000
# 2 65.6426 74.5697 28.5076 0.0000 0.0000 0.0000
# 3 28.5076 28.5076 75.5331 0.0000 0.0000 0.0000
# 4 0.0000 0.0000 0.0000 10.4366 0.0000 0.0000
# 5 0.0000 0.0000 0.0000 0.0000 10.4366 0.0000
# 6 0.0000 0.0000 0.0000 0.0000 0.0000 4.4635
#
#
#
# Elastic Compliance Matrix: (Units=1/GPa)
#
#
# Indices 1 2 3 4 5 6 
#
# 1 0.060222 -0.051797 -0.003180 0.000000 0.000000 0.000000
# 2 -0.051797 0.060222 -0.003180 0.000000 0.000000 0.000000
# 3 -0.003180 -0.003180 0.015639 0.000000 0.000000 0.000000
# 4 0.000000 0.000000 0.000000 0.095817 0.000000 0.000000
# 5 0.000000 0.000000 0.000000 0.000000 0.095817 0.000000
# 6 0.000000 0.000000 0.000000 0.000000 0.000000 0.224038
#
#
# Mechanical properties :
#
#
# Convention : Reuss Voigt Hill
#
# Bulk Modulus (GPa) = 50.58054 52.22091 51.40072
# Shear Modulus (GPa) = 7.41116 11.86832 9.63974
#
# Velocity S-wave (km/s) = 2.13650 2.70368 2.43665
# Velocity P-wave (km/s) = 6.10241 6.47380 6.29085
#
# Compressibility (1/GPa) = 0.01977045
#
# Stress axis : x y z
#
# Youngs Moduli (GPa) = 16.60524 16.60524 63.94094
#
# Poissons Ratio (x) = 0.86010 0.20332
# Poissons Ratio (y) = 0.86010 0.20332
# Poissons Ratio (z) = 0.05280 0.05280
#
# Static dielectric constant tensor:
#      x y z
#    x 3.004860 0.000000 0.000000 
#    y 0.000000 3.004860 0.000000 
#    z 0.000000 0.000000 3.368460 
# 
# 
# High freq. dielectric constant tensor:
#      x y z
#    x 1.616090 0.000000 0.000000 
#    y 0.000000 1.616090 0.000000 
#    z 0.000000 0.000000 1.622520 
# 
# From -- ./inp_files/7652.got.cif
#   From: 2010.03.12/outbox.cif.g09.slc.cpg/sg191_4_cif.got.tgz:7652.got - 2010.04.01 12:09:02.
