data_PCOD8328293
_publ_section_title
;
Structure prediction by ZEFSAII (Michael W. Deem and Ramdas Pophale) SiO2 
 PCOD8328293
Probable space group: P 6/M M M
;
_chemical_formula_sum "Si O2"
_cell_formula_units_Z 108
_cell_length_a 21.027950
_cell_length_b 21.027950
_cell_length_c 23.196801
_cell_angle_alpha 90.000000
_cell_angle_beta 90.000000
_cell_angle_gamma 120.000000
_cell_volume 8882.855551
_symmetry_space_group_name_H-M "P 6/M M M"
_symmetry_group_IT_number 191
_symmetry_cell_setting 'hexagonal'
loop_
_space_group_symop_operation_xyz
x,y,z
x-y,x,z
-y,x-y,z
-x,-y,z
-x+y,-x,z
y,-x+y,z
x-y,-y,-z
-x,-x+y,-z
y,x,-z
-y,-x,-z
-x+y,y,-z
x,x-y,-z
-x,-y,-z
-x+y,-x,-z
y,-x+y,-z
x,y,-z
x-y,x,-z
-y,x-y,-z
-x+y,y,z
x,x-y,z
-y,-x,z
y,x,z
x-y,-y,z
-x,-x+y,z
loop_
_atom_site_type_symbol
_atom_site_label
_atom_site_fract_x
_atom_site_fract_y
_atom_site_fract_z
Si Si1 0.383674 0.466030 0.393433
Si Si2 0.518220 0.333229 0.708676
Si Si3 0.333480 0.818556 0.500000
Si Si4 0.465379 0.081743 0.936529
Si Si5 0.481260 0.814083 0.161425
O O1 0.462334 0.537667 0.396961
O O2 0.395236 0.395236 0.397822
O O3 0.344253 0.463502 0.333145
O O4 0.334003 0.468427 0.445017
O O5 0.516159 0.258080 0.692914
O O6 0.601854 0.398147 0.700392
O O7 0.490463 0.332302 0.773760
O O8 0.259851 0.740150 0.500000
O O9 0.402463 0.804925 0.500000
O O10 0.539612 0.079223 0.930939
O O11 0.460456 0.130752 0.885302
O O12 0.396793 0.000000 0.929078
O O13 0.461756 0.112627 0.000000
O O14 0.403273 0.806545 0.150652
O O15 0.470353 0.735177 0.150331
#
# Coordination Sequence:
#
# PCOD8328293 Si02
#       5
#    24  24  12  24  24
#     4   9  17  27  37  49  65  84 105 130 160 192
#     4   9  16  25  36  49  65  84 106 132 163 198
#     4  10  18  27  39  53  68  85 106 132 163 198
#     4   8  14  24  35  45  58  78 104 131 158 192
#     4   9  16  24  34  48  65  83 102 128 164 203
#
# _framework density 12.158251999999999
#
# number of rings (size 3 to 8) (size 9 to 14) (size 15 to 20)
#    0.000    3.111    0.000    2.222    0.000    4.444 
#    0.000    6.667    0.000    1.333    0.000    0.000 
#    0.000    0.000    0.000    0.000    0.000    0.000 
#
# Total GULP energy -1338460.160999 kJ/mol
# GULP energy per Si atom -12393.149639 kJ/mol
# Density = 1.213058 g / cm^3
# Si number density = 12.158252 Si / 1000 Ang^3
#
#
#
# Elastic Constant Matrix: (Units=GPa)
#
#
# Indices 1 2 3 4 5 6 
#
# 1 42.6495 26.7079 40.8704 0.0000 0.0000 0.0000
# 2 26.7079 42.6495 40.8704 0.0000 0.0000 0.0000
# 3 40.8704 40.8704 108.7567 0.0000 0.0000 0.0000
# 4 0.0000 0.0000 0.0000 18.2626 0.0000 0.0000
# 5 0.0000 0.0000 0.0000 0.0000 18.2626 0.0000
# 6 0.0000 0.0000 0.0000 0.0000 0.0000 7.9708
#
#
#
# Elastic Compliance Matrix: (Units=1/GPa)
#
#
# Indices 1 2 3 4 5 6 
#
# 1 0.044305 -0.018424 -0.009726 0.000000 0.000000 0.000000
# 2 -0.018424 0.044305 -0.009726 0.000000 0.000000 0.000000
# 3 -0.009726 -0.009726 0.016505 0.000000 0.000000 0.000000
# 4 0.000000 0.000000 0.000000 0.054757 0.000000 0.000000
# 5 0.000000 0.000000 0.000000 0.000000 0.054757 0.000000
# 6 0.000000 0.000000 0.000000 0.000000 0.000000 0.125458
#
#
# Mechanical properties :
#
#
# Convention : Reuss Voigt Hill
#
# Bulk Modulus (GPa) = 34.05729 45.66143 39.85936
# Shear Modulus (GPa) = 11.74746 14.60635 13.17691
#
# Velocity S-wave (km/s) = 3.11177 3.46981 3.29566
# Velocity P-wave (km/s) = 6.40182 7.32736 6.88017
#
# Compressibility (1/GPa) = 0.02936229
#
# Stress axis : x y z
#
# Youngs Moduli (GPa) = 22.57102 22.57102 60.58912
#
# Poissons Ratio (x) = 0.41586 0.58927
# Poissons Ratio (y) = 0.41586 0.58927
# Poissons Ratio (z) = 0.21952 0.21952
#
# Static dielectric constant tensor:
#      x y z
#    x 2.343930 0.000000 0.000000 
#    y 0.000000 2.343930 0.000000 
#    z 0.000000 0.000000 2.824300 
# 
# 
# High freq. dielectric constant tensor:
#      x y z
#    x 1.423030 0.000000 0.000000 
#    y 0.000000 1.423030 0.000000 
#    z 0.000000 0.000000 1.483600 
# 
# From -- ./inp_files/8776.got.cif
#   From: 2010.03.12/outbox.cif.g09.slc.cpg/sg191_5_cif.got.tgz:8776.got - 2010.04.01 12:09:02.
