data_PCOD8328866
_publ_section_title
;
Structure prediction by ZEFSAII (Michael W. Deem and Ramdas Pophale) SiO2 
 PCOD8328866
Probable space group: P 6/M M M
;
_chemical_formula_sum "Si O2"
_cell_formula_units_Z 168
_cell_length_a 21.906830
_cell_length_b 21.906830
_cell_length_c 25.108096
_cell_angle_alpha 90.000000
_cell_angle_beta 90.000000
_cell_angle_gamma 120.000000
_cell_volume 10435.265145
_symmetry_space_group_name_H-M "P 6/M M M"
_symmetry_group_IT_number 191
_symmetry_cell_setting 'hexagonal'
loop_
_space_group_symop_operation_xyz
x,y,z
x-y,x,z
-y,x-y,z
-x,-y,z
-x+y,-x,z
y,-x+y,z
x-y,-y,-z
-x,-x+y,-z
y,x,-z
-y,-x,-z
-x+y,y,-z
x,x-y,-z
-x,-y,-z
-x+y,-x,-z
y,-x+y,-z
x,y,-z
x-y,x,-z
-y,x-y,-z
-x+y,y,z
x,x-y,z
-y,-x,z
y,x,z
x-y,-y,z
-x,-x+y,z
loop_
_atom_site_type_symbol
_atom_site_label
_atom_site_fract_x
_atom_site_fract_y
_atom_site_fract_z
Si Si1 0.468238 0.078240 0.149601
Si Si2 0.388302 0.921484 0.440157
Si Si3 0.922175 0.711011 0.111396
Si Si4 0.521864 0.334517 0.647972
Si Si5 0.708332 0.785878 0.766272
Si Si6 0.563714 0.712039 0.059984
Si Si7 0.344343 0.918532 0.263889
O O1 0.537598 0.075195 0.159328
O O2 0.481401 0.131048 0.101042
O O3 0.452618 0.105619 0.204071
O O4 0.403432 0.000000 0.135755
O O5 0.357152 0.905411 0.500000
O O6 0.461058 0.922115 0.438386
O O7 0.333188 0.858895 0.402068
O O8 0.404232 0.000000 0.422349
O O9 0.872012 0.744024 0.102110
O O10 0.915318 0.683966 0.172149
O O11 0.900812 0.645890 0.072573
O O12 0.000000 0.772448 0.097331
O O13 0.519271 0.259636 0.651922
O O14 0.603228 0.396773 0.642935
O O15 0.487544 0.350604 0.698647
O O16 0.730695 0.865348 0.750356
O O17 0.775619 0.775619 0.756506
O O18 0.643889 0.731877 0.729115
O O19 0.540002 0.770001 0.066577
O O20 0.549555 0.681957 0.000000
O O21 0.406468 0.000000 0.274512
#
# Coordination Sequence:
#
# PCOD8328866 Si02
#       7
#    24  24  24  24  24  24  24
#     4  10  20  33  49  69  90 110 136 177 230 280
#     4   8  15  30  51  71  90 116 153 195 235 272
#     4   9  16  27  43  63  86 111 139 171 209 253
#     4  11  22  33  46  66  95 129 161 194 233 281
#     4   9  16  27  45  67  90 116 146 181 221 265
#     4  10  20  32  47  66  87 112 140 172 214 267
#     4  10  19  32  50  70  90 116 154 198 240 278
#
# _framework density 16.099254999999999
#
# number of rings (size 3 to 8) (size 9 to 14) (size 15 to 20)
#    0.000    2.429    1.429    2.286    0.000    3.714 
#    0.000    0.714    0.000    1.429    0.000    2.000 
#    0.000    0.000    0.000    3.571    0.000    3.714 
#
# Total GULP energy -2082289.020397 kJ/mol
# GULP energy per Si atom -12394.577502 kJ/mol
# Density = 1.606261 g / cm^3
# Si number density = 16.099255 Si / 1000 Ang^3
#
#
#
# Elastic Constant Matrix: (Units=GPa)
#
#
# Indices 1 2 3 4 5 6 
#
# 1 72.9871 33.3575 35.3042 0.0000 0.0000 0.0000
# 2 33.3575 72.9871 35.3042 0.0000 0.0000 0.0000
# 3 35.3042 35.3042 61.5644 0.0000 0.0000 0.0000
# 4 0.0000 0.0000 0.0000 19.9668 0.0000 0.0000
# 5 0.0000 0.0000 0.0000 0.0000 19.9668 0.0000
# 6 0.0000 0.0000 0.0000 0.0000 0.0000 19.8148
#
#
#
# Elastic Compliance Matrix: (Units=1/GPa)
#
#
# Indices 1 2 3 4 5 6 
#
# 1 0.020209 -0.005024 -0.008708 0.000000 0.000000 0.000000
# 2 -0.005024 0.020209 -0.008708 0.000000 0.000000 0.000000
# 3 -0.008708 -0.008708 0.026230 0.000000 0.000000 0.000000
# 4 0.000000 0.000000 0.000000 0.050083 0.000000 0.000000
# 5 0.000000 0.000000 0.000000 0.000000 0.050083 0.000000
# 6 0.000000 0.000000 0.000000 0.000000 0.000000 0.050467
#
#
# Mechanical properties :
#
#
# Convention : Reuss Voigt Hill
#
# Bulk Modulus (GPa) = 45.93728 46.16337 46.05032
# Shear Modulus (GPa) = 18.55844 18.85451 18.70648
#
# Velocity S-wave (km/s) = 3.39890 3.42591 3.41243
# Velocity P-wave (km/s) = 6.63318 6.66225 6.64773
#
# Compressibility (1/GPa) = 0.02176881
#
# Stress axis : x y z
#
# Youngs Moduli (GPa) = 49.48199 49.48199 38.12394
#
# Poissons Ratio (x) = 0.24861 0.33198
# Poissons Ratio (y) = 0.24861 0.33198
# Poissons Ratio (z) = 0.43088 0.43088
#
# Static dielectric constant tensor:
#      x y z
#    x 2.998650 0.000000 0.000000 
#    y 0.000000 2.998650 0.000000 
#    z 0.000000 0.000000 3.068390 
# 
# 
# High freq. dielectric constant tensor:
#      x y z
#    x 1.603250 0.000000 0.000000 
#    y 0.000000 1.603250 0.000000 
#    z 0.000000 0.000000 1.608430 
# 
# From -- ./inp_files/10033.got.cif
#   From: 2010.03.12/outbox.cif.g09.slc.cpg/sg191_6_cif.got.tgz:10033.got - 2010.04.01 12:09:02.
