data_PCOD8328272
_publ_section_title
;
Structure prediction by ZEFSAII (Michael W. Deem and Ramdas Pophale) SiO2 
 PCOD8328272
Probable space group: P 6/M M M
;
_chemical_formula_sum "Si O2"
_cell_formula_units_Z 108
_cell_length_a 18.580502
_cell_length_b 18.580502
_cell_length_c 23.506973
_cell_angle_alpha 90.000000
_cell_angle_beta 90.000000
_cell_angle_gamma 120.000000
_cell_volume 7028.169501
_symmetry_space_group_name_H-M "P 6/M M M"
_symmetry_group_IT_number 191
_symmetry_cell_setting 'hexagonal'
loop_
_space_group_symop_operation_xyz
x,y,z
x-y,x,z
-y,x-y,z
-x,-y,z
-x+y,-x,z
y,-x+y,z
x-y,-y,-z
-x,-x+y,-z
y,x,-z
-y,-x,-z
-x+y,y,-z
x,x-y,-z
-x,-y,-z
-x+y,-x,-z
y,-x+y,-z
x,y,-z
x-y,x,-z
-y,x-y,-z
-x+y,y,z
x,x-y,z
-y,-x,z
y,x,z
x-y,-y,z
-x,-x+y,z
loop_
_atom_site_type_symbol
_atom_site_label
_atom_site_fract_x
_atom_site_fract_y
_atom_site_fract_z
Si Si1 0.499864 0.831061 0.906573
Si Si2 0.631216 0.539110 0.788563
Si Si3 0.266932 0.364090 0.000000
Si Si4 0.094502 0.632756 0.561552
Si Si5 0.669357 0.497297 0.324926
O O1 0.423882 0.847764 0.919018
O O2 0.469139 0.734570 0.919067
O O3 0.531067 0.850285 0.841631
O O4 0.578445 0.889943 0.945460
O O5 0.544917 0.455083 0.782317
O O6 0.616074 0.616074 0.798959
O O7 0.682499 0.555418 0.729784
O O8 0.287424 0.287424 0.000000
O O9 0.166476 0.332951 0.000000
O O10 0.130426 0.677362 0.500000
O O11 0.101451 0.550726 0.563475
O O12 0.142285 0.690532 0.615651
O O13 0.000000 0.610567 0.566899
O O14 0.729832 0.459664 0.318847
O O15 0.575553 0.424448 0.326162
#
# Coordination Sequence:
#
# PCOD8328272 Si02
#       5
#    24  24  12  24  24
#     4  10  19  30  45  66  93 122 150 179 212 252
#     4   9  17  28  41  55  72 100 139 177 207 238
#     4  10  21  35  51  70  91 117 148 184 223 261
#     4   8  14  25  39  51  63  84 116 150 182 222
#     4  10  18  26  36  51  72  95 119 152 198 248
#
# _framework density 15.366732000000001
#
# number of rings (size 3 to 8) (size 9 to 14) (size 15 to 20)
#    0.000    2.667    0.000    3.444    0.000    4.889 
#    0.000    3.333    0.000    1.444    0.000    0.000 
#    0.000    0.000    0.000    0.000    0.000    0.000 
#
# Total GULP energy -1337998.546005 kJ/mol
# GULP energy per Si atom -12388.875426 kJ/mol
# Density = 1.533176 g / cm^3
# Si number density = 15.366732 Si / 1000 Ang^3
#
#
#
# Elastic Constant Matrix: (Units=GPa)
#
#
# Indices 1 2 3 4 5 6 
#
# 1 47.4787 25.1960 26.9428 0.0000 0.0000 0.0000
# 2 25.1960 47.4787 26.9428 0.0000 0.0000 0.0000
# 3 26.9428 26.9428 122.4015 0.0000 0.0000 0.0000
# 4 0.0000 0.0000 0.0000 16.8290 0.0000 0.0000
# 5 0.0000 0.0000 0.0000 0.0000 16.8290 0.0000
# 6 0.0000 0.0000 0.0000 0.0000 0.0000 11.1414
#
#
#
# Elastic Compliance Matrix: (Units=1/GPa)
#
#
# Indices 1 2 3 4 5 6 
#
# 1 0.030661 -0.014217 -0.003620 0.000000 0.000000 0.000000
# 2 -0.014217 0.030661 -0.003620 0.000000 0.000000 0.000000
# 3 -0.003620 -0.003620 0.009763 0.000000 0.000000 0.000000
# 4 0.000000 0.000000 0.000000 0.059421 0.000000 0.000000
# 5 0.000000 0.000000 0.000000 0.000000 0.059421 0.000000
# 6 0.000000 0.000000 0.000000 0.000000 0.000000 0.089756
#
#
# Mechanical properties :
#
#
# Convention : Reuss Voigt Hill
#
# Bulk Modulus (GPa) = 35.49562 41.72467 38.61014
# Shear Modulus (GPa) = 15.06087 18.17836 16.61961
#
# Velocity S-wave (km/s) = 3.13404 3.44316 3.29223
# Velocity P-wave (km/s) = 6.02042 6.55886 6.29540
#
# Compressibility (1/GPa) = 0.02817249
#
# Stress axis : x y z
#
# Youngs Moduli (GPa) = 32.61500 32.61500 102.42450
#
# Poissons Ratio (x) = 0.46369 0.37073
# Poissons Ratio (y) = 0.46369 0.37073
# Poissons Ratio (z) = 0.11805 0.11805
#
# Static dielectric constant tensor:
#      x y z
#    x 2.647900 0.000000 0.000000 
#    y 0.000000 2.647900 0.000000 
#    z 0.000000 0.000000 3.572510 
# 
# 
# High freq. dielectric constant tensor:
#      x y z
#    x 1.544550 0.000000 0.000000 
#    y 0.000000 1.544550 0.000000 
#    z 0.000000 0.000000 1.622350 
# 
# From -- ./inp_files/8389.got.cif
#   From: 2010.03.12/outbox.cif.g09.slc.cpg/sg191_5_cif.got.tgz:8389.got - 2010.04.01 12:09:02.
