data_PCOD8328981
_publ_section_title
;
Structure prediction by ZEFSAII (Michael W. Deem and Ramdas Pophale) SiO2 
 PCOD8328981
Probable space group: P 6/M M M
;
_chemical_formula_sum "Si O2"
_cell_formula_units_Z 108
_cell_length_a 25.096174
_cell_length_b 25.096174
_cell_length_c 11.893263
_cell_angle_alpha 90.000000
_cell_angle_beta 90.000000
_cell_angle_gamma 120.000000
_cell_volume 6487.041675
_symmetry_space_group_name_H-M "P 6/M M M"
_symmetry_group_IT_number 191
_symmetry_cell_setting 'hexagonal'
loop_
_space_group_symop_operation_xyz
x,y,z
x-y,x,z
-y,x-y,z
-x,-y,z
-x+y,-x,z
y,-x+y,z
x-y,-y,-z
-x,-x+y,-z
y,x,-z
-y,-x,-z
-x+y,y,-z
x,x-y,-z
-x,-y,-z
-x+y,-x,-z
y,-x+y,-z
x,y,-z
x-y,x,-z
-y,x-y,-z
-x+y,y,z
x,x-y,z
-y,-x,z
y,x,z
x-y,-y,z
-x,-x+y,z
loop_
_atom_site_type_symbol
_atom_site_label
_atom_site_fract_x
_atom_site_fract_y
_atom_site_fract_z
Si Si1 0.833911 0.166090 0.376289
Si Si2 0.071877 0.476595 0.500000
Si Si3 0.536330 0.463671 0.866241
Si Si4 0.809791 0.069099 0.000000
Si Si5 0.257575 0.328110 0.779411
Si Si6 0.760525 0.521049 0.371651
Si Si7 0.340576 0.465525 0.271582
O O1 0.848001 0.152000 0.500000
O O2 0.793668 0.100697 0.316672
O O3 0.797193 0.202808 0.378149
O O4 0.102092 0.551046 0.500000
O O5 0.090861 0.453337 0.609376
O O6 0.000000 0.447177 0.500000
O O7 0.500000 0.500000 0.834074
O O8 0.503332 0.396072 0.813568
O O9 0.540623 0.459378 0.000000
O O10 0.777180 0.079972 0.895342
O O11 0.882744 0.117257 0.000000
O O12 0.799558 0.000000 0.000000
O O13 0.302013 0.302013 0.747992
O O14 0.297405 0.401478 0.790198
O O15 0.747111 0.494222 0.500000
O O16 0.697385 0.499316 0.301456
#
# Coordination Sequence:
#
# PCOD8328981 Si02
#       7
#    12  12  12  12  24  12  24
#     4   9  18  31  45  69 104 133 165 206 250 303
#     4  11  20  31  52  82 112 139 174 222 279 339
#     4  11  24  39  55  78 113 147 181 230 287 338
#     4  10  20  36  56  78 107 143 185 223 261 307
#     4  10  20  32  50  73 102 140 177 212 256 314
#     4   9  18  34  52  77 101 134 168 217 266 320
#     4  11  21  36  53  77 109 140 180 221 275 332
#
# _framework density 16.648574
#
# number of rings (size 3 to 8) (size 9 to 14) (size 15 to 20)
#    0.000    1.778    3.333    2.000    3.111    0.444 
#    0.000    0.556    0.000    0.556    0.000    0.000 
#    0.000    0.000    0.000    0.000    0.000   10.111 
#
# Total GULP energy -1339010.768837 kJ/mol
# GULP energy per Si atom -12398.247860 kJ/mol
# Density = 1.661068 g / cm^3
# Si number density = 16.648574 Si / 1000 Ang^3
#
#
#
# Elastic Constant Matrix: (Units=GPa)
#
#
# Indices 1 2 3 4 5 6 
#
# 1 95.5607 48.1457 46.5105 0.0000 0.0000 0.0000
# 2 48.1457 95.5607 46.5105 0.0000 0.0000 0.0000
# 3 46.5105 46.5105 118.9240 0.0000 0.0000 0.0000
# 4 0.0000 0.0000 0.0000 59.5362 0.0000 0.0000
# 5 0.0000 0.0000 0.0000 0.0000 59.5362 0.0000
# 6 0.0000 0.0000 0.0000 0.0000 0.0000 23.7075
#
#
#
# Elastic Compliance Matrix: (Units=1/GPa)
#
#
# Indices 1 2 3 4 5 6 
#
# 1 0.015204 -0.005887 -0.003644 0.000000 0.000000 0.000000
# 2 -0.005887 0.015204 -0.003644 0.000000 0.000000 0.000000
# 3 -0.003644 -0.003644 0.011259 0.000000 0.000000 0.000000
# 4 0.000000 0.000000 0.000000 0.016797 0.000000 0.000000
# 5 0.000000 0.000000 0.000000 0.000000 0.016797 0.000000
# 6 0.000000 0.000000 0.000000 0.000000 0.000000 0.042181
#
#
# Mechanical properties :
#
#
# Convention : Reuss Voigt Hill
#
# Bulk Modulus (GPa) = 65.28325 65.81987 65.55156
# Shear Modulus (GPa) = 33.58063 39.81455 36.69759
#
# Velocity S-wave (km/s) = 4.49600 4.89557 4.70004
# Velocity P-wave (km/s) = 8.13939 8.46027 8.30138
#
# Compressibility (1/GPa) = 0.01531786
#
# Stress axis : x y z
#
# Youngs Moduli (GPa) = 65.77270 65.77270 88.81783
#
# Poissons Ratio (x) = 0.38717 0.32365
# Poissons Ratio (y) = 0.38717 0.32365
# Poissons Ratio (z) = 0.23967 0.23967
#
# Static dielectric constant tensor:
#      x y z
#    x 3.198250 0.000000 0.000000 
#    y 0.000000 3.198250 0.000000 
#    z 0.000000 0.000000 3.271890 
# 
# 
# High freq. dielectric constant tensor:
#      x y z
#    x 1.627470 0.000000 0.000000 
#    y 0.000000 1.627470 0.000000 
#    z 0.000000 0.000000 1.652490 
# 
# From -- ./inp_files/3041.got.cif
#   From: 2010.03.12/outbox.cif.g09.slc.cpg/sg191_2_cif.got.tgz:3041.got - 2010.04.01 12:09:02.
