data_PCOD8328483
_publ_section_title
;
Structure prediction by ZEFSAII (Michael W. Deem and Ramdas Pophale) SiO2 
 PCOD8328483
Probable space group: P 6/M M M
;
_chemical_formula_sum "Si O2"
_cell_formula_units_Z 120
_cell_length_a 16.907139
_cell_length_b 16.907139
_cell_length_c 29.745999
_cell_angle_alpha 90.000000
_cell_angle_beta 90.000000
_cell_angle_gamma 120.000000
_cell_volume 7363.756804
_symmetry_space_group_name_H-M "P 6/M M M"
_symmetry_group_IT_number 191
_symmetry_cell_setting 'hexagonal'
loop_
_space_group_symop_operation_xyz
x,y,z
x-y,x,z
-y,x-y,z
-x,-y,z
-x+y,-x,z
y,-x+y,z
x-y,-y,-z
-x,-x+y,-z
y,x,-z
-y,-x,-z
-x+y,y,-z
x,x-y,-z
-x,-y,-z
-x+y,-x,-z
y,-x+y,-z
x,y,-z
x-y,x,-z
-y,x-y,-z
-x+y,y,z
x,x-y,z
-y,-x,z
y,x,z
x-y,-y,z
-x,-x+y,z
loop_
_atom_site_type_symbol
_atom_site_label
_atom_site_fract_x
_atom_site_fract_y
_atom_site_fract_z
Si Si1 0.847113 0.332604 0.278074
Si Si2 0.727160 0.101795 0.636175
Si Si3 0.892940 0.446470 0.861738
Si Si4 0.892107 0.533564 0.450867
Si Si5 0.608274 0.391727 0.950284
Si Si6 0.713410 0.608136 0.186814
O O1 0.863111 0.431556 0.266093
O O2 0.739277 0.260724 0.280901
O O3 0.895355 0.338256 0.325456
O O4 0.894472 0.302738 0.240020
O O5 0.832829 0.167172 0.650099
O O6 0.712948 0.142151 0.589633
O O7 0.709548 0.000000 0.630417
O O8 0.860861 0.430431 0.913079
O O9 0.859528 0.509916 0.837284
O O10 0.000000 0.500000 0.861833
O O11 0.863740 0.554176 0.500000
O O12 0.849259 0.424630 0.445495
O O13 0.000000 0.580517 0.447434
O O14 0.563229 0.281615 0.945192
O O15 0.585374 0.414627 0.000000
O O16 0.820407 0.640814 0.175221
O O17 0.684424 0.684424 0.172959
#
# Coordination Sequence:
#
# PCOD8328483 Si02
#       6
#    24  24  12  24  12  24
#     4  10  19  31  46  67  95 121 148 177 216 271
#     4  10  20  31  45  63  84 113 143 180 224 264
#     4  10  18  29  46  70  96 124 161 202 246 290
#     4   8  14  26  44  65  85 104 130 162 200 251
#     4   8  16  29  44  62  90 128 168 201 228 270
#     4  10  20  32  47  68  95 126 160 202 243 287
#
# _framework density 16.296030999999999
#
# number of rings (size 3 to 8) (size 9 to 14) (size 15 to 20)
#    0.200    2.400    1.000    2.600    0.000    2.600 
#    0.600    0.000    0.000    0.800    0.000    0.000 
#    0.000    4.800    0.000    5.000    0.000    0.000 
#
# Total GULP energy -1486822.135882 kJ/mol
# GULP energy per Si atom -12390.184466 kJ/mol
# Density = 1.625894 g / cm^3
# Si number density = 16.296031 Si / 1000 Ang^3
#
#
#
# Elastic Constant Matrix: (Units=GPa)
#
#
# Indices 1 2 3 4 5 6 
#
# 1 62.2343 41.2198 13.2681 0.0000 0.0000 0.0000
# 2 41.2198 62.2343 13.2681 0.0000 0.0000 0.0000
# 3 13.2681 13.2681 88.2280 0.0000 0.0000 0.0000
# 4 0.0000 0.0000 0.0000 18.9163 0.0000 0.0000
# 5 0.0000 0.0000 0.0000 0.0000 18.9163 0.0000
# 6 0.0000 0.0000 0.0000 0.0000 0.0000 10.5072
#
#
#
# Elastic Compliance Matrix: (Units=1/GPa)
#
#
# Indices 1 2 3 4 5 6 
#
# 1 0.028820 -0.018766 -0.001512 0.000000 0.000000 0.000000
# 2 -0.018766 0.028820 -0.001512 0.000000 0.000000 0.000000
# 3 -0.001512 -0.001512 0.011789 0.000000 0.000000 0.000000
# 4 0.000000 0.000000 0.000000 0.052865 0.000000 0.000000
# 5 0.000000 0.000000 0.000000 0.000000 0.052865 0.000000
# 6 0.000000 0.000000 0.000000 0.000000 0.000000 0.095172
#
#
# Mechanical properties :
#
#
# Convention : Reuss Voigt Hill
#
# Bulk Modulus (GPa) = 38.68609 38.68985 38.68797
# Shear Modulus (GPa) = 15.50257 19.33066 17.41662
#
# Velocity S-wave (km/s) = 3.08768 3.44789 3.27274
# Velocity P-wave (km/s) = 6.04175 6.29635 6.17036
#
# Compressibility (1/GPa) = 0.02584908
#
# Stress axis : x y z
#
# Youngs Moduli (GPa) = 34.69804 34.69804 84.82470
#
# Poissons Ratio (x) = 0.65115 0.12825
# Poissons Ratio (y) = 0.65115 0.12825
# Poissons Ratio (z) = 0.05246 0.05246
#
# Static dielectric constant tensor:
#      x y z
#    x 2.903110 0.000000 0.000000 
#    y 0.000000 2.903110 0.000000 
#    z 0.000000 0.000000 3.144950 
# 
# 
# High freq. dielectric constant tensor:
#      x y z
#    x 1.601960 0.000000 0.000000 
#    y 0.000000 1.601960 0.000000 
#    z 0.000000 0.000000 1.630980 
# 
# From -- ./inp_files/9585.got.cif
#   From: 2010.03.12/outbox.cif.g09.slc.cpg/sg191_5_cif.got.tgz:9585.got - 2010.04.01 12:09:02.
