data_PCOD8328837
_publ_section_title
;
Structure prediction by ZEFSAII (Michael W. Deem and Ramdas Pophale) SiO2 
 PCOD8328837
Probable space group: P 6/M M M
;
_chemical_formula_sum "Si O2"
_cell_formula_units_Z 108
_cell_length_a 16.873418
_cell_length_b 16.873418
_cell_length_c 24.551622
_cell_angle_alpha 90.000000
_cell_angle_beta 90.000000
_cell_angle_gamma 120.000000
_cell_volume 6053.645028
_symmetry_space_group_name_H-M "P 6/M M M"
_symmetry_group_IT_number 191
_symmetry_cell_setting 'hexagonal'
loop_
_space_group_symop_operation_xyz
x,y,z
x-y,x,z
-y,x-y,z
-x,-y,z
-x+y,-x,z
y,-x+y,z
x-y,-y,-z
-x,-x+y,-z
y,x,-z
-y,-x,-z
-x+y,y,-z
x,x-y,-z
-x,-y,-z
-x+y,-x,-z
y,-x+y,-z
x,y,-z
x-y,x,-z
-y,x-y,-z
-x+y,y,z
x,x-y,z
-y,-x,z
y,x,z
x-y,-y,z
-x,-x+y,z
loop_
_atom_site_type_symbol
_atom_site_label
_atom_site_fract_x
_atom_site_fract_y
_atom_site_fract_z
Si Si1 0.485284 0.332655 0.230896
Si Si2 0.374827 0.272994 0.334914
Si Si3 0.286474 0.391672 0.120302
Si Si4 0.554075 0.108150 0.061027
Si Si5 0.891903 0.533621 0.559494
O O1 0.521296 0.260648 0.234461
O O2 0.568288 0.431713 0.216162
O O3 0.442927 0.338669 0.288356
O O4 0.407877 0.302594 0.184794
O O5 0.334479 0.167240 0.317834
O O6 0.290400 0.290400 0.342159
O O7 0.429537 0.286980 0.391266
O O8 0.179329 0.358657 0.106151
O O9 0.315203 0.315203 0.103229
O O10 0.349408 0.489708 0.090942
O O11 0.500000 0.000000 0.059633
O O12 0.574542 0.149084 0.000000
O O13 0.863664 0.554652 0.500000
O O14 0.848888 0.424444 0.565728
O O15 0.000000 0.580626 0.563764
#
# Coordination Sequence:
#
# PCOD8328837 Si02
#       5
#    24  24  24  12  24
#     4  10  19  31  49  73 101 129 158 193 237 290
#     4  10  20  31  45  66  90 119 155 197 241 284
#     4  10  20  34  53  76 104 139 176 215 256 300
#     4   9  18  34  54  76 104 136 169 207 251 301
#     4   8  14  26  44  65  88 113 142 177 220 274
#
# _framework density 17.840491
#
# number of rings (size 3 to 8) (size 9 to 14) (size 15 to 20)
#    0.000    2.556    1.111    2.222    0.000    3.111 
#    0.667    0.000    0.000    0.889    0.000    0.000 
#    0.000    5.333    0.000   11.111    0.000    0.000 
#
# Total GULP energy -1338291.769848 kJ/mol
# GULP energy per Si atom -12391.590462 kJ/mol
# Density = 1.779989 g / cm^3
# Si number density = 17.840491 Si / 1000 Ang^3
#
#
#
# Elastic Constant Matrix: (Units=GPa)
#
#
# Indices 1 2 3 4 5 6 
#
# 1 81.0047 45.1768 15.6825 0.0000 0.0000 0.0000
# 2 45.1768 81.0047 15.6825 0.0000 0.0000 0.0000
# 3 15.6825 15.6825 97.5416 0.0000 0.0000 0.0000
# 4 0.0000 0.0000 0.0000 14.3098 0.0000 0.0000
# 5 0.0000 0.0000 0.0000 0.0000 14.3098 0.0000
# 6 0.0000 0.0000 0.0000 0.0000 0.0000 17.9139
#
#
#
# Elastic Compliance Matrix: (Units=1/GPa)
#
#
# Indices 1 2 3 4 5 6 
#
# 1 0.018083 -0.009828 -0.001327 0.000000 0.000000 0.000000
# 2 -0.009828 0.018083 -0.001327 0.000000 0.000000 0.000000
# 3 -0.001327 -0.001327 0.010679 0.000000 0.000000 0.000000
# 4 0.000000 0.000000 0.000000 0.069882 0.000000 0.000000
# 5 0.000000 0.000000 0.000000 0.000000 0.069882 0.000000
# 6 0.000000 0.000000 0.000000 0.000000 0.000000 0.055823
#
#
# Mechanical properties :
#
#
# Convention : Reuss Voigt Hill
#
# Bulk Modulus (GPa) = 45.70399 45.84830 45.77615
# Shear Modulus (GPa) = 18.20230 21.50730 19.85480
#
# Velocity S-wave (km/s) = 3.19765 3.47585 3.33964
# Velocity P-wave (km/s) = 6.26953 6.47020 6.37065
#
# Compressibility (1/GPa) = 0.02187993
#
# Stress axis : x y z
#
# Youngs Moduli (GPa) = 55.30016 55.30016 93.64341
#
# Poissons Ratio (x) = 0.54350 0.12429
# Poissons Ratio (y) = 0.54350 0.12429
# Poissons Ratio (z) = 0.07340 0.07340
#
# Static dielectric constant tensor:
#      x y z
#    x 3.095230 0.000000 0.000000 
#    y 0.000000 3.095230 0.000000 
#    z 0.000000 0.000000 3.585230 
# 
# 
# High freq. dielectric constant tensor:
#      x y z
#    x 1.662190 0.000000 0.000000 
#    y 0.000000 1.662190 0.000000 
#    z 0.000000 0.000000 1.705320 
# 
# From -- ./inp_files/8338.got.cif
#   From: 2010.03.12/outbox.cif.g09.slc.cpg/sg191_5_cif.got.tgz:8338.got - 2010.04.01 12:09:02.
