data_PCOD8328602
_publ_section_title
;
Structure prediction by ZEFSAII (Michael W. Deem and Ramdas Pophale) SiO2 
 PCOD8328602
Probable space group: P 6/M M M
;
_chemical_formula_sum "Si O2"
_cell_formula_units_Z 84
_cell_length_a 22.800035
_cell_length_b 22.800035
_cell_length_c 12.475233
_cell_angle_alpha 90.000000
_cell_angle_beta 90.000000
_cell_angle_gamma 120.000000
_cell_volume 5616.300346
_symmetry_space_group_name_H-M "P 6/M M M"
_symmetry_group_IT_number 191
_symmetry_cell_setting 'hexagonal'
loop_
_space_group_symop_operation_xyz
x,y,z
x-y,x,z
-y,x-y,z
-x,-y,z
-x+y,-x,z
y,-x+y,z
x-y,-y,-z
-x,-x+y,-z
y,x,-z
-y,-x,-z
-x+y,y,-z
x,x-y,-z
-x,-y,-z
-x+y,-x,-z
y,-x+y,-z
x,y,-z
x-y,x,-z
-y,x-y,-z
-x+y,y,z
x,x-y,z
-y,-x,z
y,x,z
x-y,-y,z
-x,-x+y,z
loop_
_atom_site_type_symbol
_atom_site_label
_atom_site_fract_x
_atom_site_fract_y
_atom_site_fract_z
Si Si1 0.000000 0.131525 0.371996
Si Si2 0.472383 0.391811 0.767333
Si Si3 0.606077 0.532359 0.000000
Si Si4 0.262323 0.262323 0.372806
Si Si5 0.732963 0.601927 0.373430
O O1 0.065638 0.131275 0.327316
O O2 0.000000 0.197016 0.325247
O O3 0.000000 0.132066 0.500000
O O4 0.547880 0.452121 0.743800
O O5 0.420003 0.420003 0.756725
O O6 0.457886 0.333330 0.682530
O O7 0.467794 0.359241 0.886709
O O8 0.599137 0.599137 0.000000
O O9 0.531865 0.468136 0.000000
O O10 0.259978 0.259978 0.500000
O O11 0.260081 0.327923 0.332073
O O12 0.721507 0.593445 0.500000
O O13 0.799535 0.599070 0.339560
#
# Coordination Sequence:
#
# PCOD8328602 Si02
#       5
#    12  24  12  12  24
#     4   9  15  22  33  49  69  97 137 182 222 257
#     4   9  16  28  47  68  88 110 140 178 216 257
#     4   7  12  24  43  66  88 109 133 169 218 259
#     4   9  16  27  39  52  75 112 149 179 214 254
#     4  10  19  29  41  61  90 119 149 184 216 252
#
# _framework density 14.956465
#
# number of rings (size 3 to 8) (size 9 to 14) (size 15 to 20)
#    0.000    3.000    1.429    2.714    0.000    4.571 
#    0.000    2.143    0.000    0.571    0.000    0.000 
#    0.000    0.000    0.000    0.000    0.000    0.429 
#
# Total GULP energy -1040718.970893 kJ/mol
# GULP energy per Si atom -12389.511558 kJ/mol
# Density = 1.492242 g / cm^3
# Si number density = 14.956465 Si / 1000 Ang^3
#
#
#
# Elastic Constant Matrix: (Units=GPa)
#
#
# Indices 1 2 3 4 5 6 
#
# 1 95.0743 50.3095 40.3137 0.0000 0.0000 0.0000
# 2 50.3095 95.0743 40.3137 0.0000 0.0000 0.0000
# 3 40.3137 40.3137 49.5338 0.0000 0.0000 0.0000
# 4 0.0000 0.0000 0.0000 11.5376 0.0000 0.0000
# 5 0.0000 0.0000 0.0000 0.0000 11.5376 0.0000
# 6 0.0000 0.0000 0.0000 0.0000 0.0000 22.3824
#
#
#
# Elastic Compliance Matrix: (Units=1/GPa)
#
#
# Indices 1 2 3 4 5 6 
#
# 1 0.017438 -0.004901 -0.010203 0.000000 0.000000 0.000000
# 2 -0.004901 0.017438 -0.010203 0.000000 0.000000 0.000000
# 3 -0.010203 -0.010203 0.036796 0.000000 0.000000 0.000000
# 4 0.000000 0.000000 0.000000 0.086673 0.000000 0.000000
# 5 0.000000 0.000000 0.000000 0.000000 0.086673 0.000000
# 6 0.000000 0.000000 0.000000 0.000000 0.000000 0.044678
#
#
# Mechanical properties :
#
#
# Convention : Reuss Voigt Hill
#
# Bulk Modulus (GPa) = 47.49024 55.72850 51.60937
# Shear Modulus (GPa) = 14.39551 16.34123 15.36837
#
# Velocity S-wave (km/s) = 3.10577 3.30902 3.20900
# Velocity P-wave (km/s) = 6.68449 7.20700 6.95065
#
# Compressibility (1/GPa) = 0.02105696
#
# Stress axis : x y z
#
# Youngs Moduli (GPa) = 57.34612 57.34612 27.17653
#
# Poissons Ratio (x) = 0.28105 0.27729
# Poissons Ratio (y) = 0.28105 0.27729
# Poissons Ratio (z) = 0.58512 0.58512
#
# Static dielectric constant tensor:
#      x y z
#    x 2.786330 0.000000 0.000000 
#    y 0.000000 2.786330 0.000000 
#    z 0.000000 0.000000 2.798400 
# 
# 
# High freq. dielectric constant tensor:
#      x y z
#    x 1.558050 0.000000 0.000000 
#    y 0.000000 1.558050 0.000000 
#    z 0.000000 0.000000 1.542950 
# 
# From -- ./inp_files/2486.got.cif
#   From: 2010.03.12/outbox.cif.g09.slc.cpg/sg191_2_cif.got.tgz:2486.got - 2010.04.01 12:09:02.
