data_PCOD8328339
_publ_section_title
;
Structure prediction by ZEFSAII (Michael W. Deem and Ramdas Pophale) SiO2 
 PCOD8328339
Probable space group: P 6/M M M
;
_chemical_formula_sum "Si O2"
_cell_formula_units_Z 108
_cell_length_a 18.127756
_cell_length_b 18.127756
_cell_length_c 23.280201
_cell_angle_alpha 90.000000
_cell_angle_beta 90.000000
_cell_angle_gamma 120.000000
_cell_volume 6625.298519
_symmetry_space_group_name_H-M "P 6/M M M"
_symmetry_group_IT_number 191
_symmetry_cell_setting 'hexagonal'
loop_
_space_group_symop_operation_xyz
x,y,z
x-y,x,z
-y,x-y,z
-x,-y,z
-x+y,-x,z
y,-x+y,z
x-y,-y,-z
-x,-x+y,-z
y,x,-z
-y,-x,-z
-x+y,y,-z
x,x-y,-z
-x,-y,-z
-x+y,-x,-z
y,-x+y,-z
x,y,-z
x-y,x,-z
-y,x-y,-z
-x+y,y,z
x,x-y,z
-y,-x,z
y,x,z
x-y,-y,z
-x,-x+y,z
loop_
_atom_site_type_symbol
_atom_site_label
_atom_site_fract_x
_atom_site_fract_y
_atom_site_fract_z
Si Si1 0.265639 0.363898 0.276983
Si Si2 0.467356 0.367433 0.381057
Si Si3 0.330619 0.497182 0.181277
Si Si4 0.167239 0.668658 0.500000
Si Si5 0.634996 0.539765 0.937765
O O1 0.163282 0.326563 0.271734
O O2 0.287123 0.287123 0.283446
O O3 0.298195 0.428461 0.330811
O O4 0.315157 0.418678 0.221222
O O5 0.570064 0.429937 0.373025
O O6 0.424792 0.424792 0.379218
O O7 0.444573 0.317279 0.441916
O O8 0.264508 0.529015 0.197265
O O9 0.426562 0.573438 0.190468
O O10 0.310783 0.463346 0.115616
O O11 0.268082 0.731919 0.500000
O O12 0.143974 0.571987 0.500000
O O13 0.545888 0.454113 0.938149
O O14 0.618898 0.618898 0.929410
O O15 0.680656 0.548940 0.000000
#
# Coordination Sequence:
#
# PCOD8328339 Si02
#       5
#    24  24  24  12  24
#     4  10  20  33  49  68  88 111 141 178 220 265
#     4   9  17  29  45  64  86 114 147 180 214 253
#     4  10  19  29  42  62  89 120 152 185 219 254
#     4  10  18  27  39  57  84 117 151 183 213 244
#     4   8  14  25  40  56  75 105 148 192 227 257
#
# _framework density 16.301152999999999
#
# number of rings (size 3 to 8) (size 9 to 14) (size 15 to 20)
#    0.000    2.667    0.000    3.333    0.000    4.000 
#    0.000    0.000    0.000    8.667    0.000    0.000 
#    0.000    0.000    0.000    0.000    0.000   23.111 
#
# Total GULP energy -1338248.233538 kJ/mol
# GULP energy per Si atom -12391.187348 kJ/mol
# Density = 1.626405 g / cm^3
# Si number density = 16.301153 Si / 1000 Ang^3
#
#
#
# Elastic Constant Matrix: (Units=GPa)
#
#
# Indices 1 2 3 4 5 6 
#
# 1 52.6783 30.9611 25.9826 0.0000 0.0000 0.0000
# 2 30.9611 52.6783 25.9826 0.0000 0.0000 0.0000
# 3 25.9826 25.9826 116.3005 0.0000 0.0000 0.0000
# 4 0.0000 0.0000 0.0000 12.6757 0.0000 0.0000
# 5 0.0000 0.0000 0.0000 0.0000 12.6757 0.0000
# 6 0.0000 0.0000 0.0000 0.0000 0.0000 10.8586
#
#
#
# Elastic Compliance Matrix: (Units=1/GPa)
#
#
# Indices 1 2 3 4 5 6 
#
# 1 0.029965 -0.016082 -0.003102 0.000000 0.000000 0.000000
# 2 -0.016082 0.029965 -0.003102 0.000000 0.000000 0.000000
# 3 -0.003102 -0.003102 0.009984 0.000000 0.000000 0.000000
# 4 0.000000 0.000000 0.000000 0.078891 0.000000 0.000000
# 5 0.000000 0.000000 0.000000 0.000000 0.078891 0.000000
# 6 0.000000 0.000000 0.000000 0.000000 0.000000 0.092093
#
#
# Mechanical properties :
#
#
# Convention : Reuss Voigt Hill
#
# Bulk Modulus (GPa) = 39.45698 43.05663 41.25680
# Shear Modulus (GPa) = 13.41177 16.49072 14.95124
#
# Velocity S-wave (km/s) = 2.87147 3.18406 3.03180
# Velocity P-wave (km/s) = 5.93729 6.32363 6.13350
#
# Compressibility (1/GPa) = 0.02534406
#
# Stress axis : x y z
#
# Youngs Moduli (GPa) = 33.37251 33.37251 100.15748
#
# Poissons Ratio (x) = 0.53669 0.31065
# Poissons Ratio (y) = 0.53669 0.31065
# Poissons Ratio (z) = 0.10351 0.10351
#
# Static dielectric constant tensor:
#      x y z
#    x 2.810330 0.000000 0.000000 
#    y 0.000000 2.810330 0.000000 
#    z 0.000000 0.000000 3.621150 
# 
# 
# High freq. dielectric constant tensor:
#      x y z
#    x 1.591480 0.000000 0.000000 
#    y 0.000000 1.591480 0.000000 
#    z 0.000000 0.000000 1.653260 
# 
# From -- ./inp_files/8357.got.cif
#   From: 2010.03.12/outbox.cif.g09.slc.cpg/sg191_5_cif.got.tgz:8357.got - 2010.04.01 12:09:02.
