data_PCOD8328026
_publ_section_title
;
Structure prediction by ZEFSAII (Michael W. Deem and Ramdas Pophale) SiO2 
 PCOD8328026
Probable space group: P -6 2 C
;
_chemical_formula_sum "Si O2"
_cell_formula_units_Z 72
_cell_length_a 15.218562
_cell_length_b 15.218562
_cell_length_c 15.538440
_cell_angle_alpha 90.000000
_cell_angle_beta 90.000000
_cell_angle_gamma 120.000000
_cell_volume 3116.630258
_symmetry_space_group_name_H-M "P -6 2 C"
_symmetry_group_IT_number 190
_symmetry_cell_setting 'hexagonal'
loop_
_space_group_symop_operation_xyz
x,y,z
-x+y,-x,1/2-z
-y,x-y,z
x,y,1/2-z
-x+y,-x,z
-y,x-y,1/2-z
x-y,-y,-z
-x,-x+y,-z
y,x,-z
y,x,1/2+z
x-y,-y,1/2+z
-x,-x+y,1/2+z
loop_
_atom_site_type_symbol
_atom_site_label
_atom_site_fract_x
_atom_site_fract_y
_atom_site_fract_z
Si Si1 0.791853 0.937523 0.588324
Si Si2 0.197306 0.764804 0.647856
Si Si3 0.772457 0.562621 0.852521
Si Si4 0.575238 0.462488 0.351919
Si Si5 0.068827 0.212485 0.346554
Si Si6 0.545727 0.435368 0.647408
O O1 0.671400 0.883792 0.602299
O O2 0.826724 0.853602 0.592179
O O3 0.824746 0.000000 0.500000
O O4 0.854589 0.022650 0.660290
O O5 0.187212 0.773244 0.750000
O O6 0.177511 0.654469 0.620626
O O7 0.310450 0.840780 0.612901
O O8 0.778802 0.568907 0.750000
O O9 0.804578 0.674426 0.887773
O O10 0.847221 0.525030 0.889475
O O11 0.660674 0.480534 0.884282
O O12 0.580355 0.471357 0.250000
O O13 0.507261 0.506341 0.390720
O O14 0.029954 0.215000 0.250000
O O15 0.540764 0.432468 0.750000
#
# Coordination Sequence:
#
# PCOD8328026 Si02
#       6
#    12  12  12  12  12  12
#     4  12  25  40  59  86 124 165 206 257 319 387
#     4  10  19  35  60  93 126 161 205 259 316 370
#     4   9  17  28  49  79 114 151 191 237 293 355
#     4   9  17  29  52  85 119 150 195 255 307 352
#     4  11  22  39  61  86 115 157 210 263 313 372
#     4   9  15  25  41  71 111 148 181 227 287 346
#
# _framework density 23.101873999999999
#
# number of rings (size 3 to 8) (size 9 to 14) (size 15 to 20)
#    0.000    2.000    0.000    5.000    0.000    8.000 
#    0.000    0.000    0.000    6.000    0.000    0.000 
#    0.000    0.000    0.000    0.000    0.000    1.000 
#
# Total GULP energy -892697.288885 kJ/mol
# GULP energy per Si atom -12398.573457 kJ/mol
# Density = 2.304929 g / cm^3
# Si number density = 23.101874 Si / 1000 Ang^3
#
#
#
# Elastic Constant Matrix: (Units=GPa)
#
#
# Indices 1 2 3 4 5 6 
#
# 1 180.8873 77.8244 28.5752 0.0000 0.0000 0.0000
# 2 77.8244 180.8873 28.5752 0.0000 0.0000 0.0000
# 3 28.5752 28.5752 48.1481 0.0000 0.0000 0.0000
# 4 0.0000 0.0000 0.0000 14.3627 0.0000 0.0000
# 5 0.0000 0.0000 0.0000 0.0000 14.3627 0.0000
# 6 0.0000 0.0000 0.0000 0.0000 0.0000 51.5314
#
#
#
# Elastic Compliance Matrix: (Units=1/GPa)
#
#
# Indices 1 2 3 4 5 6 
#
# 1 0.007076 -0.002627 -0.002640 0.000000 0.000000 0.000000
# 2 -0.002627 0.007076 -0.002640 0.000000 0.000000 0.000000
# 3 -0.002640 -0.002640 0.023903 0.000000 0.000000 0.000000
# 4 0.000000 0.000000 0.000000 0.069625 0.000000 0.000000
# 5 0.000000 0.000000 0.000000 0.000000 0.069625 0.000000
# 6 0.000000 0.000000 0.000000 0.000000 0.000000 0.019406
#
#
# Mechanical properties :
#
#
# Convention : Reuss Voigt Hill
#
# Bulk Modulus (GPa) = 44.96501 75.54137 60.25319
# Shear Modulus (GPa) = 22.73371 34.38122 28.55746
#
# Velocity S-wave (km/s) = 3.14038 3.86196 3.51971
# Velocity P-wave (km/s) = 5.71449 7.25648 6.53115
#
# Compressibility (1/GPa) = 0.02223951
#
# Stress axis : x y z
#
# Youngs Moduli (GPa) = 141.32943 141.32943 41.83577
#
# Poissons Ratio (x) = 0.37129 0.11045
# Poissons Ratio (y) = 0.37129 0.11045
# Poissons Ratio (z) = 0.37313 0.37313
#
# Static dielectric constant tensor:
#      x y z
#    x 4.395370 0.000000 0.000000 
#    y 0.000000 4.395370 0.000000 
#    z 0.000000 0.000000 3.575650 
# 
# 
# High freq. dielectric constant tensor:
#      x y z
#    x 1.926930 0.000000 0.000000 
#    y 0.000000 1.926930 0.000000 
#    z 0.000000 0.000000 1.862910 
# 
# From -- ./inp_files/3744.got.cif
#   From: 2010.06.25/outbox.cif.g09.slc.cpg/sg190_2_cif.got.tgz:3744.got - 2010.06.28 13:08:06.
