data_PCOD8328641
_publ_section_title
;
Structure prediction by ZEFSAII (Michael W. Deem and Ramdas Pophale) SiO2 
 PCOD8328641
Probable space group: P 6/M M M
;
_chemical_formula_sum "Si O2"
_cell_formula_units_Z 120
_cell_length_a 18.005277
_cell_length_b 18.005277
_cell_length_c 27.064105
_cell_angle_alpha 90.000000
_cell_angle_beta 90.000000
_cell_angle_gamma 120.000000
_cell_volume 7598.430852
_symmetry_space_group_name_H-M "P 6/M M M"
_symmetry_group_IT_number 191
_symmetry_cell_setting 'hexagonal'
loop_
_space_group_symop_operation_xyz
x,y,z
x-y,x,z
-y,x-y,z
-x,-y,z
-x+y,-x,z
y,-x+y,z
x-y,-y,-z
-x,-x+y,-z
y,x,-z
-y,-x,-z
-x+y,y,-z
x,x-y,-z
-x,-y,-z
-x+y,-x,-z
y,-x+y,-z
x,y,-z
x-y,x,-z
-y,x-y,-z
-x+y,y,z
x,x-y,z
-y,-x,z
y,x,z
x-y,-y,z
-x,-x+y,z
loop_
_atom_site_type_symbol
_atom_site_label
_atom_site_fract_x
_atom_site_fract_y
_atom_site_fract_z
Si Si1 0.503839 0.668812 0.603661
Si Si2 0.331958 0.491181 0.878527
Si Si3 0.459673 0.363758 0.500000
Si Si4 0.902295 0.263719 0.206174
Si Si5 0.000000 0.587957 0.055272
Si Si6 0.094167 0.739895 0.318786
O O1 0.471583 0.735792 0.614701
O O2 0.426508 0.573493 0.607772
O O3 0.545961 0.688843 0.549163
O O4 0.571577 0.676681 0.644385
O O5 0.249367 0.498733 0.893903
O O6 0.414533 0.585468 0.876957
O O7 0.320138 0.447853 0.824974
O O8 0.342166 0.428810 0.917440
O O9 0.379991 0.379991 0.500000
O O10 0.548231 0.451770 0.500000
O O11 0.838035 0.161966 0.195277
O O12 0.894244 0.284373 0.263121
O O13 0.000000 0.288761 0.193025
O O14 0.000000 0.500000 0.053780
O O15 0.000000 0.621466 0.000000
O O16 0.161564 0.838437 0.331344
O O17 0.000000 0.727640 0.325845
#
# Coordination Sequence:
#
# PCOD8328641 Si02
#       6
#    24  24  12  24  12  24
#     4  10  19  30  43  61  86 118 153 188 224 264
#     4  10  19  31  47  68  94 124 157 192 231 273
#     4   9  17  28  42  58  78 107 147 191 229 264
#     4   9  17  30  48  69  92 119 150 185 226 273
#     4   9  18  32  48  66  90 120 153 190 230 268
#     4   9  18  31  47  67  90 116 147 183 226 272
#
# _framework density 15.792733999999999
#
# number of rings (size 3 to 8) (size 9 to 14) (size 15 to 20)
#    0.000    2.600    1.000    1.300    0.000    2.400 
#    0.000    3.000    0.000    4.000    0.000    2.800 
#    0.000    0.000    0.000    0.000    0.000   29.900 
#
# Total GULP energy -1487512.090216 kJ/mol
# GULP energy per Si atom -12395.934085 kJ/mol
# Density = 1.575679 g / cm^3
# Si number density = 15.792734 Si / 1000 Ang^3
#
#
#
# Elastic Constant Matrix: (Units=GPa)
#
#
# Indices 1 2 3 4 5 6 
#
# 1 92.1985 58.0382 48.9075 0.0000 0.0000 0.0000
# 2 58.0382 92.1985 48.9075 0.0000 0.0000 0.0000
# 3 48.9075 48.9075 97.7840 0.0000 0.0000 0.0000
# 4 0.0000 0.0000 0.0000 20.9065 0.0000 0.0000
# 5 0.0000 0.0000 0.0000 0.0000 20.9065 0.0000
# 6 0.0000 0.0000 0.0000 0.0000 0.0000 17.0802
#
#
#
# Elastic Compliance Matrix: (Units=1/GPa)
#
#
# Indices 1 2 3 4 5 6 
#
# 1 0.019572 -0.009702 -0.004937 0.000000 0.000000 0.000000
# 2 -0.009702 0.019572 -0.004937 0.000000 0.000000 0.000000
# 3 -0.004937 -0.004937 0.015165 0.000000 0.000000 0.000000
# 4 0.000000 0.000000 0.000000 0.047832 0.000000 0.000000
# 5 0.000000 0.000000 0.000000 0.000000 0.047832 0.000000
# 6 0.000000 0.000000 0.000000 0.000000 0.000000 0.058547
#
#
# Mechanical properties :
#
#
# Convention : Reuss Voigt Hill
#
# Bulk Modulus (GPa) = 65.96886 65.98746 65.97816
# Shear Modulus (GPa) = 19.78444 20.20048 19.99246
#
# Velocity S-wave (km/s) = 3.54327 3.58033 3.56185
# Velocity P-wave (km/s) = 7.65520 7.67892 7.66707
#
# Compressibility (1/GPa) = 0.01515867
#
# Stress axis : x y z
#
# Youngs Moduli (GPa) = 51.09329 51.09329 65.94167
#
# Poissons Ratio (x) = 0.49569 0.32554
# Poissons Ratio (y) = 0.49569 0.32554
# Poissons Ratio (z) = 0.25223 0.25223
#
# Static dielectric constant tensor:
#      x y z
#    x 2.958700 0.000000 0.000000 
#    y 0.000000 2.958700 0.000000 
#    z 0.000000 0.000000 3.219240 
# 
# 
# High freq. dielectric constant tensor:
#      x y z
#    x 1.592990 0.000000 0.000000 
#    y 0.000000 1.592990 0.000000 
#    z 0.000000 0.000000 1.615130 
# 
# From -- ./inp_files/9630.got.cif
#   From: 2010.03.12/outbox.cif.g09.slc.cpg/sg191_5_cif.got.tgz:9630.got - 2010.04.01 12:09:02.
