data_PCOD8328928
_publ_section_title
;
Structure prediction by ZEFSAII (Michael W. Deem and Ramdas Pophale) SiO2 
 PCOD8328928
Probable space group: P 6/M M M
;
_chemical_formula_sum "Si O2"
_cell_formula_units_Z 144
_cell_length_a 31.817690
_cell_length_b 31.817690
_cell_length_c 9.337434
_cell_angle_alpha 90.000000
_cell_angle_beta 90.000000
_cell_angle_gamma 120.000000
_cell_volume 8186.447277
_symmetry_space_group_name_H-M "P 6/M M M"
_symmetry_group_IT_number 191
_symmetry_cell_setting 'hexagonal'
loop_
_space_group_symop_operation_xyz
x,y,z
x-y,x,z
-y,x-y,z
-x,-y,z
-x+y,-x,z
y,-x+y,z
x-y,-y,-z
-x,-x+y,-z
y,x,-z
-y,-x,-z
-x+y,y,-z
x,x-y,-z
-x,-y,-z
-x+y,-x,-z
y,-x+y,-z
x,y,-z
x-y,x,-z
-y,x-y,-z
-x+y,y,z
x,x-y,z
-y,-x,z
y,x,z
x-y,-y,z
-x,-x+y,z
loop_
_atom_site_type_symbol
_atom_site_label
_atom_site_fract_x
_atom_site_fract_y
_atom_site_fract_z
Si Si1 0.655190 0.710487 0.336676
Si Si2 0.478067 0.620959 0.839430
Si Si3 0.297193 0.196788 0.166323
Si Si4 0.612712 0.557330 0.335503
Si Si5 0.333075 0.569227 0.667013
Si Si6 0.798824 0.946165 0.335643
O O1 0.663507 0.728667 0.500000
O O2 0.693712 0.693712 0.294726
O O3 0.661224 0.753500 0.234199
O O4 0.601279 0.666790 0.314838
O O5 0.426491 0.573510 0.845357
O O6 0.514117 0.606393 0.764191
O O7 0.472035 0.661549 0.752408
O O8 0.496792 0.640260 0.000000
O O9 0.311554 0.155777 0.195231
O O10 0.246300 0.182829 0.238627
O O11 0.292554 0.204469 0.000000
O O12 0.603763 0.539855 0.500000
O O13 0.574110 0.574110 0.290837
O O14 0.332089 0.557347 0.500000
O O15 0.283328 0.566656 0.715602
O O16 0.376927 0.623074 0.701518
O O17 0.781633 0.940536 0.500000
O O18 0.817510 0.908755 0.298040
O O19 0.843038 0.000000 0.304224
#
# Coordination Sequence:
#
# PCOD8328928 Si02
#       6
#    24  24  24  24  24  24
#     4   9  18  33  52  72  93 118 152 194 236 280
#     4  10  21  35  51  75 107 138 167 203 248 296
#     4  10  20  31  44  67  97 124 152 187 227 274
#     4   9  19  36  56  76  97 125 165 209 249 291
#     4   9  17  31  53  79 105 134 170 210 249 291
#     4   9  17  29  45  64  87 117 152 189 230 277
#
# _framework density 17.590047999999999
#
# number of rings (size 3 to 8) (size 9 to 14) (size 15 to 20)
#    0.000    2.667    0.000    2.667    0.000    7.000 
#    0.000    4.167    0.000    2.167    0.000    1.167 
#    0.000    0.000    0.000    4.167    0.000    4.333 
#
# Total GULP energy -1785562.567883 kJ/mol
# GULP energy per Si atom -12399.740055 kJ/mol
# Density = 1.755001 g / cm^3
# Si number density = 17.590048 Si / 1000 Ang^3
#
#
#
# Elastic Constant Matrix: (Units=GPa)
#
#
# Indices 1 2 3 4 5 6 
#
# 1 69.9328 23.6053 39.1871 0.0000 0.0000 0.0000
# 2 23.6053 69.9328 39.1871 0.0000 0.0000 0.0000
# 3 39.1871 39.1871 86.0671 0.0000 0.0000 0.0000
# 4 0.0000 0.0000 0.0000 21.3360 0.0000 0.0000
# 5 0.0000 0.0000 0.0000 0.0000 21.3360 0.0000
# 6 0.0000 0.0000 0.0000 0.0000 0.0000 23.1638
#
#
#
# Elastic Compliance Matrix: (Units=1/GPa)
#
#
# Indices 1 2 3 4 5 6 
#
# 1 0.019435 -0.002150 -0.007870 0.000000 0.000000 0.000000
# 2 -0.002150 0.019435 -0.007870 0.000000 0.000000 0.000000
# 3 -0.007870 -0.007870 0.018785 0.000000 0.000000 0.000000
# 4 0.000000 0.000000 0.000000 0.046869 0.000000 0.000000
# 5 0.000000 0.000000 0.000000 0.000000 0.046869 0.000000
# 6 0.000000 0.000000 0.000000 0.000000 0.000000 0.043171
#
#
# Mechanical properties :
#
#
# Convention : Reuss Voigt Hill
#
# Bulk Modulus (GPa) = 45.71352 47.76575 46.73963
# Shear Modulus (GPa) = 21.04047 21.43071 21.23559
#
# Velocity S-wave (km/s) = 3.46230 3.49426 3.47832
# Velocity P-wave (km/s) = 6.48291 6.59498 6.53918
#
# Compressibility (1/GPa) = 0.02187537
#
# Stress axis : x y z
#
# Youngs Moduli (GPa) = 51.45296 51.45296 53.23276
#
# Poissons Ratio (x) = 0.11063 0.41894
# Poissons Ratio (y) = 0.11063 0.41894
# Poissons Ratio (z) = 0.40494 0.40494
#
# Static dielectric constant tensor:
#      x y z
#    x 3.216710 0.000000 0.000000 
#    y 0.000000 3.216710 0.000000 
#    z 0.000000 0.000000 3.370960 
# 
# 
# High freq. dielectric constant tensor:
#      x y z
#    x 1.671350 0.000000 0.000000 
#    y 0.000000 1.671350 0.000000 
#    z 0.000000 0.000000 1.680750 
# 
# From -- ./inp_files/1987.got.cif
#   From: 2010.03.12/outbox.cif.g09.slc.cpg/sg191_1_cif.got.tgz:1987.got - 2010.04.01 12:09:02.
