data_PCOD8328198
_publ_section_title
;
Structure prediction by ZEFSAII (Michael W. Deem and Ramdas Pophale) SiO2 
 PCOD8328198
Probable space group: P -6 2 C
;
_chemical_formula_sum "Si O2"
_cell_formula_units_Z 28
_cell_length_a 10.911506
_cell_length_b 10.911506
_cell_length_c 14.327361
_cell_angle_alpha 90.000000
_cell_angle_beta 90.000000
_cell_angle_gamma 120.000000
_cell_volume 1477.291595
_symmetry_space_group_name_H-M "P -6 2 C"
_symmetry_group_IT_number 190
_symmetry_cell_setting 'hexagonal'
loop_
_space_group_symop_operation_xyz
x,y,z
-x+y,-x,1/2-z
-y,x-y,z
x,y,1/2-z
-x+y,-x,z
-y,x-y,1/2-z
x-y,-y,-z
-x,-x+y,-z
y,x,-z
y,x,1/2+z
x-y,-y,1/2+z
-x,-x+y,1/2+z
loop_
_atom_site_type_symbol
_atom_site_label
_atom_site_fract_x
_atom_site_fract_y
_atom_site_fract_z
Si Si1 0.793100 0.284667 0.998620
Si Si2 0.000000 0.000000 0.389569
Si Si3 0.281014 0.997683 0.644945
O O1 0.823073 0.446959 0.997809
O O2 0.861152 0.258188 0.907173
O O3 0.858723 0.259818 0.091899
O O4 0.138805 0.004754 0.350911
O O5 0.000000 0.000000 0.500000
O O6 0.333239 0.997528 0.750000
#
# Coordination Sequence:
#
# PCOD8328198 Si02
#       3
#    12   4  12
#     4   9  22  41  60  88 128 158 198 245 302 363
#     4  12  22  41  64  88 125 160 208 254 304 361
#     4  11  23  40  66  93 120 160 205 255 304 356
#
# _framework density 18.953605
#
# number of rings (size 3 to 8) (size 9 to 14) (size 15 to 20)
#    0.857    0.857    4.286    1.286    0.000   10.286 
#    0.000    0.000    0.000    0.000    0.000    0.000 
#    0.000    0.000    0.000    0.000    0.000    0.000 
#
# Total GULP energy -347113.928749 kJ/mol
# GULP energy per Si atom -12396.926027 kJ/mol
# Density = 1.891047 g / cm^3
# Si number density = 18.953605 Si / 1000 Ang^3
#
#
#
# Elastic Constant Matrix: (Units=GPa)
#
#
# Indices 1 2 3 4 5 6 
#
# 1 85.0355 -2.1662 13.1070 0.0000 0.0000 0.0000
# 2 -2.1662 85.0355 13.1070 0.0000 0.0000 0.0000
# 3 13.1070 13.1070 165.7003 0.0000 0.0000 0.0000
# 4 0.0000 0.0000 0.0000 7.7273 0.0000 0.0000
# 5 0.0000 0.0000 0.0000 0.0000 7.7273 0.0000
# 6 0.0000 0.0000 0.0000 0.0000 0.0000 43.6008
#
#
#
# Elastic Compliance Matrix: (Units=1/GPa)
#
#
# Indices 1 2 3 4 5 6 
#
# 1 0.011922 0.000455 -0.000979 0.000000 0.000000 0.000000
# 2 0.000455 0.011922 -0.000979 0.000000 0.000000 0.000000
# 3 -0.000979 -0.000979 0.006190 0.000000 0.000000 0.000000
# 4 0.000000 0.000000 0.000000 0.129412 0.000000 0.000000
# 5 0.000000 0.000000 0.000000 0.000000 0.129412 0.000000
# 6 0.000000 0.000000 0.000000 0.000000 0.000000 0.022935
#
#
# Mechanical properties :
#
#
# Convention : Reuss Voigt Hill
#
# Bulk Modulus (GPa) = 36.99923 42.65185 39.82554
# Shear Modulus (GPa) = 15.44117 32.59264 24.01690
#
# Velocity S-wave (km/s) = 2.85736 4.15131 3.56356
# Velocity P-wave (km/s) = 5.51809 6.74759 6.16357
#
# Compressibility (1/GPa) = 0.02702759
#
# Stress axis : x y z
#
# Youngs Moduli (GPa) = 83.87655 83.87655 161.55422
#
# Poissons Ratio (x) = -0.03813 0.15816
# Poissons Ratio (y) = -0.03813 0.15816
# Poissons Ratio (z) = 0.08212 0.08212
#
# Static dielectric constant tensor:
#      x y z
#    x 3.430830 0.000000 0.000000 
#    y 0.000000 3.430830 0.000000 
#    z 0.000000 0.000000 3.466490 
# 
# 
# High freq. dielectric constant tensor:
#      x y z
#    x 1.737450 0.000000 0.000000 
#    y 0.000000 1.737450 0.000000 
#    z 0.000000 0.000000 1.741720 
# 
# From -- ./inp_files/2206.got.cif
#   From: 2010.06.25/outbox.cif.g09.slc.cpg/sg190_2_cif.got.tgz:2206.got - 2010.06.28 13:08:06.
