data_PCOD8328876
_publ_section_title
;
Structure prediction by ZEFSAII (Michael W. Deem and Ramdas Pophale) SiO2 
 PCOD8328876
Probable space group: P 6/M M M
;
_chemical_formula_sum "Si O2"
_cell_formula_units_Z 156
_cell_length_a 21.482774
_cell_length_b 21.482774
_cell_length_c 22.783805
_cell_angle_alpha 90.000000
_cell_angle_beta 90.000000
_cell_angle_gamma 120.000000
_cell_volume 9106.208838
_symmetry_space_group_name_H-M "P 6/M M M"
_symmetry_group_IT_number 191
_symmetry_cell_setting 'hexagonal'
loop_
_space_group_symop_operation_xyz
x,y,z
x-y,x,z
-y,x-y,z
-x,-y,z
-x+y,-x,z
y,-x+y,z
x-y,-y,-z
-x,-x+y,-z
y,x,-z
-y,-x,-z
-x+y,y,-z
x,x-y,-z
-x,-y,-z
-x+y,-x,-z
y,-x+y,-z
x,y,-z
x-y,x,-z
-y,x-y,-z
-x+y,y,z
x,x-y,z
-y,-x,z
y,x,z
x-y,-y,z
-x,-x+y,z
loop_
_atom_site_type_symbol
_atom_site_label
_atom_site_fract_x
_atom_site_fract_y
_atom_site_fract_z
Si Si1 0.079608 0.294596 0.262343
Si Si2 0.666368 0.183372 0.000000
Si Si3 0.079384 0.781864 0.602144
Si Si4 0.153742 0.449339 0.783296
Si Si5 0.082173 0.647259 0.565894
Si Si6 0.190630 0.665177 0.336893
Si Si7 0.918788 0.386607 0.895096
O O1 0.129825 0.259649 0.251869
O O2 0.084984 0.319202 0.329643
O O3 0.105586 0.363902 0.222250
O O4 0.000000 0.234715 0.243969
O O5 0.665518 0.135829 0.055321
O O6 0.739784 0.260217 0.000000
O O7 0.598580 0.197159 0.000000
O O8 0.136474 0.863527 0.584698
O O9 0.096106 0.728164 0.566203
O O10 0.000000 0.768504 0.587395
O O11 0.235982 0.471964 0.799136
O O12 0.151526 0.486783 0.723131
O O13 0.117799 0.472891 0.832894
O O14 0.097602 0.630900 0.500000
O O15 0.134081 0.637877 0.610213
O O16 0.000000 0.591837 0.584165
O O17 0.220356 0.610178 0.330368
O O18 0.255837 0.744164 0.351323
O O19 0.926876 0.463438 0.903186
O O20 0.000000 0.398142 0.900085
#
# Coordination Sequence:
#
# PCOD8328876 Si02
#       7
#    24  12  24  24  24  24  24
#     4   9  16  27  45  68  94 122 154 193 236 283
#     4  10  20  35  53  73  98 131 170 208 243 282
#     4   9  16  28  46  68  92 119 151 189 234 283
#     4  10  19  32  51  74  98 126 163 205 244 285
#     4  10  21  36  54  74  94 119 156 205 256 300
#     4  11  23  38  54  73  99 131 164 199 241 295
#     4  10  20  33  50  73 101 131 162 199 245 295
#
# _framework density 17.131169
#
# number of rings (size 3 to 8) (size 9 to 14) (size 15 to 20)
#    0.000    2.154    1.538    2.308    0.000    3.385 
#    0.000    0.769    0.000    6.154    0.000    2.154 
#    0.000    0.000    0.000    3.846    0.000    4.000 
#
# Total GULP energy -1934091.675824 kJ/mol
# GULP energy per Si atom -12398.023563 kJ/mol
# Density = 1.709218 g / cm^3
# Si number density = 17.131169 Si / 1000 Ang^3
#
#
#
# Elastic Constant Matrix: (Units=GPa)
#
#
# Indices 1 2 3 4 5 6 
#
# 1 77.6039 31.0266 35.4603 0.0000 0.0000 0.0000
# 2 31.0266 77.6039 35.4603 0.0000 0.0000 0.0000
# 3 35.4603 35.4603 86.3576 0.0000 0.0000 0.0000
# 4 0.0000 0.0000 0.0000 20.5416 0.0000 0.0000
# 5 0.0000 0.0000 0.0000 0.0000 20.5416 0.0000
# 6 0.0000 0.0000 0.0000 0.0000 0.0000 23.2887
#
#
#
# Elastic Compliance Matrix: (Units=1/GPa)
#
#
# Indices 1 2 3 4 5 6 
#
# 1 0.017023 -0.004446 -0.005164 0.000000 0.000000 0.000000
# 2 -0.004446 0.017023 -0.005164 0.000000 0.000000 0.000000
# 3 -0.005164 -0.005164 0.015821 0.000000 0.000000 0.000000
# 4 0.000000 0.000000 0.000000 0.048682 0.000000 0.000000
# 5 0.000000 0.000000 0.000000 0.000000 0.048682 0.000000
# 6 0.000000 0.000000 0.000000 0.000000 0.000000 0.042939
#
#
# Mechanical properties :
#
#
# Convention : Reuss Voigt Hill
#
# Bulk Modulus (GPa) = 49.21853 49.49556 49.35704
# Shear Modulus (GPa) = 22.07570 22.18227 22.12899
#
# Velocity S-wave (km/s) = 3.59364 3.60230 3.59798
# Velocity P-wave (km/s) = 6.78320 6.80125 6.79223
#
# Compressibility (1/GPa) = 0.02031755
#
# Stress axis : x y z
#
# Youngs Moduli (GPa) = 58.74257 58.74257 63.20695
#
# Poissons Ratio (x) = 0.26118 0.32643
# Poissons Ratio (y) = 0.26118 0.32643
# Poissons Ratio (z) = 0.30337 0.30337
#
# Static dielectric constant tensor:
#      x y z
#    x 3.193020 0.000000 0.000000 
#    y 0.000000 3.193020 0.000000 
#    z 0.000000 0.000000 3.144700 
# 
# 
# High freq. dielectric constant tensor:
#      x y z
#    x 1.653060 0.000000 0.000000 
#    y 0.000000 1.653060 0.000000 
#    z 0.000000 0.000000 1.652100 
# 
# From -- ./inp_files/7734.got.cif
#   From: 2010.03.12/outbox.cif.g09.slc.cpg/sg191_4_cif.got.tgz:7734.got - 2010.04.01 12:09:02.
