data_PCOD8328997
_publ_section_title
;
Structure prediction by ZEFSAII (Michael W. Deem and Ramdas Pophale) SiO2 
 PCOD8328997
Probable space group: P 6/M M M
;
_chemical_formula_sum "Si O2"
_cell_formula_units_Z 108
_cell_length_a 18.092820
_cell_length_b 18.092820
_cell_length_c 22.671424
_cell_angle_alpha 90.000000
_cell_angle_beta 90.000000
_cell_angle_gamma 120.000000
_cell_volume 6427.202095
_symmetry_space_group_name_H-M "P 6/M M M"
_symmetry_group_IT_number 191
_symmetry_cell_setting 'hexagonal'
loop_
_space_group_symop_operation_xyz
x,y,z
x-y,x,z
-y,x-y,z
-x,-y,z
-x+y,-x,z
y,-x+y,z
x-y,-y,-z
-x,-x+y,-z
y,x,-z
-y,-x,-z
-x+y,y,-z
x,x-y,-z
-x,-y,-z
-x+y,-x,-z
y,-x+y,-z
x,y,-z
x-y,x,-z
-y,x-y,-z
-x+y,y,z
x,x-y,z
-y,-x,z
y,x,z
x-y,-y,z
-x,-x+y,z
loop_
_atom_site_type_symbol
_atom_site_label
_atom_site_fract_x
_atom_site_fract_y
_atom_site_fract_z
Si Si1 0.468805 0.100448 0.832453
Si Si2 0.739911 0.643489 0.267736
Si Si3 0.162464 0.494376 0.500000
Si Si4 0.737762 0.095688 0.597690
Si Si5 0.739326 0.643013 0.933008
O O1 0.571827 0.143654 0.832343
O O2 0.438977 0.128652 0.773890
O O3 0.439168 0.128630 0.891122
O O4 0.428106 0.000000 0.832467
O O5 0.841453 0.682905 0.258260
O O6 0.716771 0.716771 0.251630
O O7 0.714323 0.611799 0.334770
O O8 0.262593 0.525186 0.500000
O O9 0.149284 0.574642 0.500000
O O10 0.117138 0.439190 0.557936
O O11 0.837654 0.162347 0.584173
O O12 0.719018 0.000000 0.583894
O O13 0.840937 0.681874 0.924452
O O14 0.716702 0.716702 0.916589
O O15 0.711720 0.611346 0.000000
#
# Coordination Sequence:
#
# PCOD8328997 Si02
#       5
#    24  24  12  24  24
#     4   9  17  28  43  64  87 111 143 184 226 265
#     4   9  17  30  48  69  93 121 153 187 223 264
#     4  10  20  33  48  67  92 120 149 182 224 273
#     4   9  18  31  47  68  93 121 152 187 226 265
#     4   9  17  29  46  68  93 121 153 188 225 266
#
# _framework density 16.80358
#
# number of rings (size 3 to 8) (size 9 to 14) (size 15 to 20)
#    0.000    2.889    0.000    1.111    0.000    2.222 
#    0.000    4.444    0.000    4.222    0.000    4.667 
#    0.000    8.000    0.000    0.667    0.000    0.000 
#
# Total GULP energy -1338556.808690 kJ/mol
# GULP energy per Si atom -12394.044525 kJ/mol
# Density = 1.676533 g / cm^3
# Si number density = 16.803580 Si / 1000 Ang^3
#
#
#
# Elastic Constant Matrix: (Units=GPa)
#
#
# Indices 1 2 3 4 5 6 
#
# 1 105.3994 69.1902 53.5721 0.0000 0.0000 0.0000
# 2 69.1902 105.3994 53.5721 0.0000 0.0000 0.0000
# 3 53.5721 53.5721 103.6910 0.0000 0.0000 0.0000
# 4 0.0000 0.0000 0.0000 22.4232 0.0000 0.0000
# 5 0.0000 0.0000 0.0000 0.0000 22.4232 0.0000
# 6 0.0000 0.0000 0.0000 0.0000 0.0000 18.1046
#
#
#
# Elastic Compliance Matrix: (Units=1/GPa)
#
#
# Indices 1 2 3 4 5 6 
#
# 1 0.018002 -0.009615 -0.004333 0.000000 0.000000 0.000000
# 2 -0.009615 0.018002 -0.004333 0.000000 0.000000 0.000000
# 3 -0.004333 -0.004333 0.014121 0.000000 0.000000 0.000000
# 4 0.000000 0.000000 0.000000 0.044597 0.000000 0.000000
# 5 0.000000 0.000000 0.000000 0.000000 0.044597 0.000000
# 6 0.000000 0.000000 0.000000 0.000000 0.000000 0.055235
#
#
# Mechanical properties :
#
#
# Convention : Reuss Voigt Hill
#
# Bulk Modulus (GPa) = 73.73086 74.12871 73.92979
# Shear Modulus (GPa) = 21.21906 21.80058 21.50982
#
# Velocity S-wave (km/s) = 3.55740 3.60582 3.58169
# Velocity P-wave (km/s) = 7.80044 7.84516 7.82283
#
# Compressibility (1/GPa) = 0.01356284
#
# Stress axis : x y z
#
# Youngs Moduli (GPa) = 55.54906 55.54906 70.81424
#
# Poissons Ratio (x) = 0.53412 0.30685
# Poissons Ratio (y) = 0.53412 0.30685
# Poissons Ratio (z) = 0.24070 0.24070
#
# Static dielectric constant tensor:
#      x y z
#    x 3.148240 0.000000 0.000000 
#    y 0.000000 3.148240 0.000000 
#    z 0.000000 0.000000 3.393070 
# 
# 
# High freq. dielectric constant tensor:
#      x y z
#    x 1.627010 0.000000 0.000000 
#    y 0.000000 1.627010 0.000000 
#    z 0.000000 0.000000 1.667910 
# 
# From -- ./inp_files/8410.got.cif
#   From: 2010.03.12/outbox.cif.g09.slc.cpg/sg191_5_cif.got.tgz:8410.got - 2010.04.01 12:09:02.
