data_PCOD8328537
_publ_section_title
;
Structure prediction by ZEFSAII (Michael W. Deem and Ramdas Pophale) SiO2 
 PCOD8328537
Probable space group: P 6/M M M
;
_chemical_formula_sum "Si O2"
_cell_formula_units_Z 180
_cell_length_a 21.528436
_cell_length_b 21.528436
_cell_length_c 29.521942
_cell_angle_alpha 90.000000
_cell_angle_beta 90.000000
_cell_angle_gamma 120.000000
_cell_volume 11849.513360
_symmetry_space_group_name_H-M "P 6/M M M"
_symmetry_group_IT_number 191
_symmetry_cell_setting 'hexagonal'
loop_
_space_group_symop_operation_xyz
x,y,z
x-y,x,z
-y,x-y,z
-x,-y,z
-x+y,-x,z
y,-x+y,z
x-y,-y,-z
-x,-x+y,-z
y,x,-z
-y,-x,-z
-x+y,y,-z
x,x-y,-z
-x,-y,-z
-x+y,-x,-z
y,-x+y,-z
x,y,-z
x-y,x,-z
-y,x-y,-z
-x+y,y,z
x,x-y,z
-y,-x,z
y,x,z
x-y,-y,z
-x,-x+y,z
loop_
_atom_site_type_symbol
_atom_site_label
_atom_site_fract_x
_atom_site_fract_y
_atom_site_fract_z
Si Si1 0.387004 0.468168 0.627119
Si Si2 0.477297 0.664296 0.200842
Si Si3 0.542189 0.084378 0.950024
Si Si4 0.781489 0.079379 0.872753
Si Si5 0.785237 0.706907 0.232770
Si Si6 0.916833 0.354324 0.118832
Si Si7 0.667238 0.477898 0.551138
Si Si8 0.917303 0.344217 0.274565
O O1 0.453597 0.546404 0.636468
O O2 0.412951 0.412951 0.613061
O O3 0.338874 0.467846 0.585584
O O4 0.340674 0.443228 0.672823
O O5 0.487840 0.743920 0.203025
O O6 0.393303 0.606698 0.194699
O O7 0.522722 0.658135 0.160168
O O8 0.504466 0.643754 0.246224
O O9 0.615675 0.108241 0.923011
O O10 0.500000 0.000000 0.955801
O O11 0.560285 0.120570 0.000000
O O12 0.861040 0.138961 0.889053
O O13 0.770354 0.086369 0.819582
O O14 0.721209 0.091205 0.897189
O O15 0.768695 0.000000 0.884216
O O16 0.866411 0.732821 0.246542
O O17 0.773717 0.773717 0.242732
O O18 0.732711 0.639198 0.262354
O O19 0.000000 0.409606 0.132901
O O20 0.669640 0.505624 0.500000
O O21 0.738020 0.476039 0.563642
O O22 0.601894 0.398107 0.557126
O O23 0.000000 0.407073 0.265401
#
# Coordination Sequence:
#
# PCOD8328537 Si02
#       8
#    24  24  12  24  24  24  24  24
#     4   9  18  31  44  61  84 109 137 174 222 270
#     4  12  23  33  44  62  88 120 150 181 216 263
#     4   9  18  32  50  74  98 116 142 184 233 279
#     4   9  16  27  44  68  94 119 150 187 226 266
#     4   9  16  26  41  62  87 114 143 176 213 253
#     4  10  18  30  50  72  89 112 146 187 230 269
#     4   9  17  29  45  63  82 107 142 180 215 253
#     4  10  19  31  47  65  86 111 143 184 227 267
#
# _framework density 15.190498
#
# number of rings (size 3 to 8) (size 9 to 14) (size 15 to 20)
#    0.000    2.333    2.000    1.867    0.000    3.200 
#    0.000    1.333    0.000    3.467    0.000    1.867 
#    0.000    0.000    0.000    0.000    0.000    0.000 
#
# Total GULP energy -2231438.519681 kJ/mol
# GULP energy per Si atom -12396.880665 kJ/mol
# Density = 1.515592 g / cm^3
# Si number density = 15.190498 Si / 1000 Ang^3
#
#
#
# Elastic Constant Matrix: (Units=GPa)
#
#
# Indices 1 2 3 4 5 6 
#
# 1 88.3224 46.6633 38.8713 0.0000 0.0000 0.0000
# 2 46.6633 88.3224 38.8713 0.0000 0.0000 0.0000
# 3 38.8713 38.8713 61.7384 0.0000 0.0000 0.0000
# 4 0.0000 0.0000 0.0000 12.4497 0.0000 0.0000
# 5 0.0000 0.0000 0.0000 0.0000 12.4497 0.0000
# 6 0.0000 0.0000 0.0000 0.0000 0.0000 20.8296
#
#
#
# Elastic Compliance Matrix: (Units=1/GPa)
#
#
# Indices 1 2 3 4 5 6 
#
# 1 0.017814 -0.006191 -0.007318 0.000000 0.000000 0.000000
# 2 -0.006191 0.017814 -0.007318 0.000000 0.000000 0.000000
# 3 -0.007318 -0.007318 0.025412 0.000000 0.000000 0.000000
# 4 0.000000 0.000000 0.000000 0.080323 0.000000 0.000000
# 5 0.000000 0.000000 0.000000 0.000000 0.080323 0.000000
# 6 0.000000 0.000000 0.000000 0.000000 0.000000 0.048009
#
#
# Mechanical properties :
#
#
# Convention : Reuss Voigt Hill
#
# Bulk Modulus (GPa) = 51.58265 54.13275 52.85770
# Shear Modulus (GPa) = 15.73269 16.74429 16.23849
#
# Velocity S-wave (km/s) = 3.22171 3.32367 3.27309
# Velocity P-wave (km/s) = 6.91882 7.10228 7.01115
#
# Compressibility (1/GPa) = 0.01938636
#
# Stress axis : x y z
#
# Youngs Moduli (GPa) = 56.13704 56.13704 39.35116
#
# Poissons Ratio (x) = 0.34753 0.28797
# Poissons Ratio (y) = 0.34753 0.28797
# Poissons Ratio (z) = 0.41080 0.41080
#
# Static dielectric constant tensor:
#      x y z
#    x 2.939190 0.000000 0.000000 
#    y 0.000000 2.939190 0.000000 
#    z 0.000000 0.000000 2.916260 
# 
# 
# High freq. dielectric constant tensor:
#      x y z
#    x 1.573020 0.000000 0.000000 
#    y 0.000000 1.573020 0.000000 
#    z 0.000000 0.000000 1.562140 
# 
# From -- ./inp_files/10890.got.cif
#   From: 2010.03.12/outbox.cif.g09.slc.cpg/sg191_6_cif.got.tgz:10890.got - 2010.04.01 12:09:02.
