data_PCOD8328151
_publ_section_title
;
Structure prediction by ZEFSAII (Michael W. Deem and Ramdas Pophale) SiO2 
 PCOD8328151
Probable space group: P -6 2 C
;
_chemical_formula_sum "Si O2"
_cell_formula_units_Z 70
_cell_length_a 15.759223
_cell_length_b 15.759223
_cell_length_c 16.068328
_cell_angle_alpha 90.000000
_cell_angle_beta 90.000000
_cell_angle_gamma 120.000000
_cell_volume 3455.977625
_symmetry_space_group_name_H-M "P -6 2 C"
_symmetry_group_IT_number 190
_symmetry_cell_setting 'hexagonal'
loop_
_space_group_symop_operation_xyz
x,y,z
-x+y,-x,1/2-z
-y,x-y,z
x,y,1/2-z
-x+y,-x,z
-y,x-y,1/2-z
x-y,-y,-z
-x,-x+y,-z
y,x,-z
y,x,1/2+z
x-y,-y,1/2+z
-x,-x+y,1/2+z
loop_
_atom_site_type_symbol
_atom_site_label
_atom_site_fract_x
_atom_site_fract_y
_atom_site_fract_z
Si Si1 0.570391 0.999180 0.656956
Si Si2 0.110759 0.003509 0.250000
Si Si3 0.666668 0.333335 0.150326
Si Si4 0.406502 0.048648 0.343952
Si Si5 0.038388 0.237311 0.409629
Si Si6 0.259952 0.458598 0.610952
Si Si7 0.253091 0.352444 0.046458
O O1 0.582657 0.039154 0.750000
O O2 0.462758 0.970243 0.621674
O O3 0.589142 0.907052 0.655264
O O4 0.655478 0.084808 0.602241
O O5 0.170214 0.009755 0.166189
O O6 0.003065 0.904963 0.250000
O O7 0.666667 0.333334 0.250000
O O8 0.573916 0.336122 0.113296
O O9 0.380458 0.008873 0.250000
O O10 0.439120 0.163106 0.340787
O O11 0.311840 0.990368 0.401608
O O12 0.155254 0.287394 0.400646
O O13 0.000000 0.184600 0.500000
O O14 0.231279 0.417503 0.517720
O O15 0.277721 0.277721 0.000000
#
# Coordination Sequence:
#
# PCOD8328151 Si02
#       7
#    12   6   4  12  12  12  12
#     4  10  22  39  64  93 129 173 211 268 323 400
#     4  10  28  46  68  98 126 176 222 282 350 398
#     4  12  21  33  63  96 133 167 211 261 333 390
#     4  11  22  39  64  96 129 168 219 267 327 388
#     4  12  25  44  70  97 131 173 225 282 330 398
#     4  11  21  38  59  94 132 166 207 261 332 393
#     4  10  25  41  60  93 127 172 214 263 332 389
#
# _framework density 20.254760000000001
#
# number of rings (size 3 to 8) (size 9 to 14) (size 15 to 20)
#    0.171    1.029    4.286    1.543    3.600    3.429 
#    0.000    0.000    0.000    0.686    0.000    0.000 
#    0.000    0.000    0.000    0.000    0.000    0.000 
#
# Total GULP energy -867891.737200 kJ/mol
# GULP energy per Si atom -12398.453389 kJ/mol
# Density = 2.020866 g / cm^3
# Si number density = 20.254760 Si / 1000 Ang^3
#
#
#
# Elastic Constant Matrix: (Units=GPa)
#
#
# Indices 1 2 3 4 5 6 
#
# 1 91.0483 30.4038 33.8240 -0.0001 0.0000 0.0001
# 2 30.4038 91.0483 33.8241 0.0000 0.0001 0.0000
# 3 33.8240 33.8241 99.1823 0.0000 0.0000 -0.0001
# 4 -0.0001 0.0000 0.0000 26.3854 0.0000 -0.0001
# 5 0.0000 0.0001 0.0000 0.0000 26.3853 0.0000
# 6 0.0001 0.0000 -0.0001 -0.0001 0.0000 30.3221
#
#
#
# Elastic Compliance Matrix: (Units=1/GPa)
#
#
# Indices 1 2 3 4 5 6 
#
# 1 0.013327 -0.003163 -0.003466 0.000000 0.000000 0.000000
# 2 -0.003163 0.013327 -0.003466 0.000000 0.000000 0.000000
# 3 -0.003466 -0.003466 0.012447 0.000000 0.000000 0.000000
# 4 0.000000 0.000000 0.000000 0.037900 0.000000 0.000000
# 5 0.000000 0.000000 0.000000 0.000000 0.037900 0.000000
# 6 0.000000 0.000000 0.000000 0.000000 0.000000 0.032979
#
#
# Mechanical properties :
#
#
# Convention : Reuss Voigt Hill
#
# Bulk Modulus (GPa) = 52.88176 53.04254 52.96215
# Shear Modulus (GPa) = 28.67409 28.83371 28.75390
#
# Velocity S-wave (km/s) = 3.76662 3.77709 3.77186
# Velocity P-wave (km/s) = 6.71428 6.72803 6.72116
#
# Compressibility (1/GPa) = 0.01891011
#
# Stress axis : x y z
#
# Youngs Moduli (GPa) = 75.03569 75.03557 80.34243
#
# Poissons Ratio (x) = 0.23730 0.27850
# Poissons Ratio (y) = 0.23730 0.27850
# Poissons Ratio (z) = 0.26010 0.26010
#
# Static dielectric constant tensor:
#      x y z
#    x 3.675360 -0.000010 0.000000 
#    y -0.000010 3.675350 0.000000 
#    z 0.000000 0.000000 3.624950 
# 
# 
# High freq. dielectric constant tensor:
#      x y z
#    x 1.786460 0.000000 0.000000 
#    y 0.000000 1.786460 0.000000 
#    z 0.000000 0.000000 1.787650 
# 
# From -- ./inp_files/3792.got.cif
#   From: 2010.06.25/outbox.cif.g09.slc.cpg/sg190_2_cif.got.tgz:3792.got - 2010.06.28 13:08:06.
