data_PCOD8328601
_publ_section_title
;
Structure prediction by ZEFSAII (Michael W. Deem and Ramdas Pophale) SiO2 
 PCOD8328601
Probable space group: P 6/M M M
;
_chemical_formula_sum "Si O2"
_cell_formula_units_Z 132
_cell_length_a 18.076330
_cell_length_b 18.076330
_cell_length_c 29.797250
_cell_angle_alpha 90.000000
_cell_angle_beta 90.000000
_cell_angle_gamma 120.000000
_cell_volume 8431.936723
_symmetry_space_group_name_H-M "P 6/M M M"
_symmetry_group_IT_number 191
_symmetry_cell_setting 'hexagonal'
loop_
_space_group_symop_operation_xyz
x,y,z
x-y,x,z
-y,x-y,z
-x,-y,z
-x+y,-x,z
y,-x+y,z
x-y,-y,-z
-x,-x+y,-z
y,x,-z
-y,-x,-z
-x+y,y,-z
x,x-y,-z
-x,-y,-z
-x+y,-x,-z
y,-x+y,-z
x,y,-z
x-y,x,-z
-y,x-y,-z
-x+y,y,z
x,x-y,z
-y,-x,z
y,x,z
x-y,-y,z
-x,-x+y,z
loop_
_atom_site_type_symbol
_atom_site_label
_atom_site_fract_x
_atom_site_fract_y
_atom_site_fract_z
Si Si1 0.495514 0.333250 0.105384
Si Si2 0.666635 0.501890 0.208533
Si Si3 0.539858 0.904301 0.548597
Si Si4 0.904034 0.265945 0.283318
Si Si5 0.587968 0.587968 0.949338
Si Si6 0.502737 0.833275 0.641537
O O1 0.490419 0.245210 0.092120
O O2 0.590971 0.409030 0.094913
O O3 0.472619 0.336007 0.157248
O O4 0.425161 0.340789 0.075855
O O5 0.735317 0.470634 0.214565
O O6 0.575252 0.424749 0.224154
O O7 0.691654 0.584364 0.238417
O O8 0.548748 0.867413 0.500000
O O9 0.453258 0.906515 0.548608
O O10 0.538431 0.848023 0.590542
O O11 0.618761 0.000000 0.554681
O O12 0.835439 0.164562 0.285044
O O13 0.894077 0.314735 0.325866
O O14 0.000000 0.280722 0.283680
O O15 0.500000 0.500000 0.948186
O O16 0.618581 0.618581 0.000000
O O17 0.426943 0.853886 0.647921
O O18 0.469143 0.734572 0.653772
#
# Coordination Sequence:
#
# PCOD8328601 Si02
#       6
#    24  24  24  24  12  24
#     4   9  17  29  45  64  87 118 154 190 224 262
#     4   9  17  28  44  66  92 121 152 183 213 248
#     4   8  14  25  40  55  72 101 146 196 236 264
#     4  10  21  34  48  67  89 114 143 177 219 265
#     4   9  18  30  42  60  86 114 147 189 232 266
#     4  10  19  29  41  60  88 121 154 186 219 257
#
# _framework density 15.654764999999999
#
# number of rings (size 3 to 8) (size 9 to 14) (size 15 to 20)
#    0.000    2.818    0.000    2.182    1.273    4.364 
#    0.000    1.818    0.000    2.364    0.000    0.000 
#    0.000    0.000    0.000    0.273    0.000    1.182 
#
# Total GULP energy -1636190.804054 kJ/mol
# GULP energy per Si atom -12395.384879 kJ/mol
# Density = 1.561913 g / cm^3
# Si number density = 15.654765 Si / 1000 Ang^3
#
#
#
# Elastic Constant Matrix: (Units=GPa)
#
#
# Indices 1 2 3 4 5 6 
#
# 1 75.9552 46.9029 39.8853 0.0000 0.0000 0.0000
# 2 46.9029 75.9552 39.8853 0.0000 0.0000 0.0000
# 3 39.8853 39.8853 96.8423 0.0000 0.0000 0.0000
# 4 0.0000 0.0000 0.0000 19.4786 0.0000 0.0000
# 5 0.0000 0.0000 0.0000 0.0000 19.4786 0.0000
# 6 0.0000 0.0000 0.0000 0.0000 0.0000 14.5262
#
#
#
# Elastic Compliance Matrix: (Units=1/GPa)
#
#
# Indices 1 2 3 4 5 6 
#
# 1 0.022766 -0.011655 -0.004576 0.000000 0.000000 0.000000
# 2 -0.011655 0.022766 -0.004576 0.000000 0.000000 0.000000
# 3 -0.004576 -0.004576 0.014095 0.000000 0.000000 0.000000
# 4 0.000000 0.000000 0.000000 0.051338 0.000000 0.000000
# 5 0.000000 0.000000 0.000000 0.000000 0.051338 0.000000
# 6 0.000000 0.000000 0.000000 0.000000 0.000000 0.068841
#
#
# Mechanical properties :
#
#
# Convention : Reuss Voigt Hill
#
# Bulk Modulus (GPa) = 55.51660 55.78887 55.65273
# Shear Modulus (GPa) = 17.93637 18.83528 18.38583
#
# Velocity S-wave (km/s) = 3.38856 3.47243 3.43075
# Velocity P-wave (km/s) = 7.13091 7.19662 7.16384
#
# Compressibility (1/GPa) = 0.01801263
#
# Stress axis : x y z
#
# Youngs Moduli (GPa) = 43.92585 43.92585 70.94516
#
# Poissons Ratio (x) = 0.51196 0.32465
# Poissons Ratio (y) = 0.51196 0.32465
# Poissons Ratio (z) = 0.20100 0.20100
#
# Static dielectric constant tensor:
#      x y z
#    x 2.738830 0.000000 0.000000 
#    y 0.000000 2.738830 0.000000 
#    z 0.000000 0.000000 3.336230 
# 
# 
# High freq. dielectric constant tensor:
#      x y z
#    x 1.568050 0.000000 0.000000 
#    y 0.000000 1.568050 0.000000 
#    z 0.000000 0.000000 1.618660 
# 
# From -- ./inp_files/10488.got.cif
#   From: 2010.03.12/outbox.cif.g09.slc.cpg/sg191_6_cif.got.tgz:10488.got - 2010.04.01 12:09:02.
