data_PCOD8328862
_publ_section_title
;
Structure prediction by ZEFSAII (Michael W. Deem and Ramdas Pophale) SiO2 
 PCOD8328862
Probable space group: P 6/M M M
;
_chemical_formula_sum "Si O2"
_cell_formula_units_Z 144
_cell_length_a 21.269875
_cell_length_b 21.269875
_cell_length_c 20.389765
_cell_angle_alpha 90.000000
_cell_angle_beta 90.000000
_cell_angle_gamma 120.000000
_cell_volume 7988.637733
_symmetry_space_group_name_H-M "P 6/M M M"
_symmetry_group_IT_number 191
_symmetry_cell_setting 'hexagonal'
loop_
_space_group_symop_operation_xyz
x,y,z
x-y,x,z
-y,x-y,z
-x,-y,z
-x+y,-x,z
y,-x+y,z
x-y,-y,-z
-x,-x+y,-z
y,x,-z
-y,-x,-z
-x+y,y,-z
x,x-y,-z
-x,-y,-z
-x+y,-x,-z
y,-x+y,-z
x,y,-z
x-y,x,-z
-y,x-y,-z
-x+y,y,z
x,x-y,z
-y,-x,z
y,x,z
x-y,-y,z
-x,-x+y,z
loop_
_atom_site_type_symbol
_atom_site_label
_atom_site_fract_x
_atom_site_fract_y
_atom_site_fract_z
Si Si1 0.476272 0.811595 0.234021
Si Si2 0.299614 0.451027 0.367803
Si Si3 0.220289 0.300250 0.314936
Si Si4 0.521006 0.335943 0.000000
Si Si5 0.297193 0.217904 0.836414
Si Si6 0.479728 0.665038 0.500000
Si Si7 0.351833 0.915738 0.120528
O O1 0.390693 0.781386 0.224538
O O2 0.492720 0.746360 0.218385
O O3 0.496929 0.841326 0.307906
O O4 0.521596 0.880388 0.187394
O O5 0.224807 0.449613 0.373923
O O6 0.281073 0.368747 0.355286
O O7 0.343459 0.480516 0.435691
O O8 0.138475 0.276949 0.336797
O O9 0.232205 0.232205 0.327994
O O10 0.232188 0.324007 0.238842
O O11 0.485821 0.352334 0.062098
O O12 0.607236 0.392765 0.000000
O O13 0.508747 0.254374 0.000000
O O14 0.274405 0.137203 0.859322
O O15 0.226726 0.226726 0.845185
O O16 0.361933 0.275171 0.881625
O O17 0.396560 0.603441 0.500000
O O18 0.481596 0.740798 0.500000
O O19 0.417075 0.000000 0.115296
#
# Coordination Sequence:
#
# PCOD8328862 Si02
#       7
#    24  24  24  12  24  12  24
#     4  11  21  34  52  75 104 137 177 222 268 318
#     4   9  18  31  49  72 100 135 176 221 264 309
#     4   9  16  29  51  76 101 130 168 212 256 304
#     4  12  26  43  61  79 106 139 173 213 265 326
#     4   9  16  29  51  77 103 131 168 210 253 299
#     4  10  19  32  49  71 100 135 176 222 275 327
#     4  11  23  38  57  79 104 136 173 217 263 310
#
# _framework density 18.025601000000002
#
# number of rings (size 3 to 8) (size 9 to 14) (size 15 to 20)
#    0.000    2.000    1.667    3.083    0.000    1.667 
#    0.000    3.750    0.000    2.333    0.000    2.333 
#    0.000    0.000    0.000    0.000    0.000   27.167 
#
# Total GULP energy -1785073.396500 kJ/mol
# GULP energy per Si atom -12396.343031 kJ/mol
# Density = 1.798457 g / cm^3
# Si number density = 18.025601 Si / 1000 Ang^3
#
#
#
# Elastic Constant Matrix: (Units=GPa)
#
#
# Indices 1 2 3 4 5 6 
#
# 1 98.0790 49.0450 33.8464 0.0000 0.0000 0.0000
# 2 49.0450 98.0790 33.8464 0.0000 0.0000 0.0000
# 3 33.8464 33.8464 73.0225 0.0000 0.0000 0.0000
# 4 0.0000 0.0000 0.0000 -5.7172 0.0000 0.0000
# 5 0.0000 0.0000 0.0000 0.0000 -5.7172 0.0000
# 6 0.0000 0.0000 0.0000 0.0000 0.0000 24.5170
#
#
#
# Elastic Compliance Matrix: (Units=1/GPa)
#
#
# Indices 1 2 3 4 5 6 
#
# 1 0.014517 -0.005877 -0.004004 0.000000 0.000000 0.000000
# 2 -0.005877 0.014517 -0.004004 0.000000 0.000000 0.000000
# 3 -0.004004 -0.004004 0.017407 0.000000 0.000000 0.000000
# 4 0.000000 0.000000 0.000000 -0.174909 0.000000 0.000000
# 5 0.000000 0.000000 0.000000 0.000000 -0.174909 0.000000
# 6 0.000000 0.000000 0.000000 0.000000 0.000000 0.040788
#
#
# Mechanical properties :
#
#
# Convention : Reuss Voigt Hill
#
# Bulk Modulus (GPa) = 53.56839 55.85067 54.70953
# Shear Modulus (GPa) = -21.87268 12.77933 -4.54667
#
# Velocity S-wave (km/s) = -3.48720 2.66551 -1.58991
# Velocity P-wave (km/s) = 3.68353 6.36589 5.20062
#
# Compressibility (1/GPa) = 0.01866773
#
# Stress axis : x y z
#
# Youngs Moduli (GPa) = 68.88595 68.88595 57.44947
#
# Poissons Ratio (x) = 0.40486 0.23005
# Poissons Ratio (y) = 0.40486 0.23005
# Poissons Ratio (z) = 0.27585 0.27585
#
# Static dielectric constant tensor:
#      x y z
#    x 3.302200 0.000000 0.000000 
#    y 0.000000 3.302200 0.000000 
#    z 0.000000 0.000000 3.534820 
# 
# 
# High freq. dielectric constant tensor:
#      x y z
#    x 1.688120 0.000000 0.000000 
#    y 0.000000 1.688120 0.000000 
#    z 0.000000 0.000000 1.688100 
# 
# From -- ./inp_files/7678.got.cif
#   From: 2010.03.12/outbox.cif.g09.slc.cpg/sg191_4_cif.got.tgz:7678.got - 2010.04.01 12:09:02.
