data_PCOD8328427
_publ_section_title
;
Structure prediction by ZEFSAII (Michael W. Deem and Ramdas Pophale) SiO2 
 PCOD8328427
Probable space group: P 6/M M M
;
_chemical_formula_sum "Si O2"
_cell_formula_units_Z 192
_cell_length_a 23.692793
_cell_length_b 23.692793
_cell_length_c 23.736692
_cell_angle_alpha 90.000000
_cell_angle_beta 90.000000
_cell_angle_gamma 120.000000
_cell_volume 11539.403149
_symmetry_space_group_name_H-M "P 6/M M M"
_symmetry_group_IT_number 191
_symmetry_cell_setting 'hexagonal'
loop_
_space_group_symop_operation_xyz
x,y,z
x-y,x,z
-y,x-y,z
-x,-y,z
-x+y,-x,z
y,-x+y,z
x-y,-y,-z
-x,-x+y,-z
y,x,-z
-y,-x,-z
-x+y,y,-z
x,x-y,-z
-x,-y,-z
-x+y,-x,-z
y,-x+y,-z
x,y,-z
x-y,x,-z
-y,x-y,-z
-x+y,y,z
x,x-y,z
-y,-x,z
y,x,z
x-y,-y,z
-x,-x+y,z
loop_
_atom_site_type_symbol
_atom_site_label
_atom_site_fract_x
_atom_site_fract_y
_atom_site_fract_z
Si Si1 0.537370 0.202376 0.178984
Si Si2 0.601270 0.524003 0.437570
Si Si3 0.271858 0.072834 0.435995
Si Si4 0.378959 0.302661 0.357373
Si Si5 0.516732 0.823848 0.937907
Si Si6 0.925838 0.266081 0.062530
Si Si7 0.135895 0.404347 0.236004
Si Si8 0.201870 0.276091 0.171308
O O1 0.599549 0.199098 0.202700
O O2 0.547618 0.273809 0.191335
O O3 0.534505 0.189085 0.111593
O O4 0.471457 0.145881 0.208761
O O5 0.627565 0.521964 0.500000
O O6 0.548847 0.451154 0.417688
O O7 0.568506 0.568506 0.440229
O O8 0.659972 0.554771 0.393442
O O9 0.298327 0.078553 0.500000
O O10 0.245026 0.122513 0.426109
O O11 0.329626 0.090183 0.392580
O O12 0.212244 0.000000 0.424884
O O13 0.347836 0.347836 0.344072
O O14 0.399737 0.282984 0.300634
O O15 0.533644 0.766822 0.939285
O O16 0.584043 0.887324 0.921466
O O17 0.490582 0.830297 0.000000
O O18 0.912911 0.208524 0.105641
O O19 0.000000 0.322516 0.065504
O O20 0.906346 0.234827 0.000000
O O21 0.203209 0.406418 0.229032
O O22 0.081921 0.339191 0.204648
O O23 0.127599 0.255197 0.190245
O O24 0.216757 0.216757 0.181823
#
# Coordination Sequence:
#
# PCOD8328427 Si02
#       8
#    24  24  24  24  24  24  24  24
#     4  10  20  34  50  68  90 119 155 196 242 289
#     4   8  14  25  41  62  89 119 148 177 212 259
#     4   9  17  29  46  69  96 125 157 194 237 282
#     4  10  18  28  45  67  91 119 151 189 230 274
#     4   9  16  28  47  68  90 117 151 191 235 282
#     4   9  16  26  45  71  96 121 150 187 230 277
#     4  10  20  33  47  65  90 122 157 194 235 278
#     4  10  19  32  50  71  96 124 156 193 233 278
#
# _framework density 16.638642999999998
#
# number of rings (size 3 to 8) (size 9 to 14) (size 15 to 20)
#    0.000    2.625    1.250    2.000    0.000    3.000 
#    0.000    0.000    0.000    4.000    0.000    2.625 
#    0.000    0.000    0.000    7.125    0.000    9.375 
#
# Total GULP energy -2379505.701397 kJ/mol
# GULP energy per Si atom -12393.258861 kJ/mol
# Density = 1.660077 g / cm^3
# Si number density = 16.638643 Si / 1000 Ang^3
#
#
#
# Elastic Constant Matrix: (Units=GPa)
#
#
# Indices 1 2 3 4 5 6 
#
# 1 74.1497 36.9298 29.3467 0.0000 0.0000 0.0000
# 2 36.9298 74.1497 29.3467 0.0000 0.0000 0.0000
# 3 29.3467 29.3467 81.2269 0.0000 0.0000 0.0000
# 4 0.0000 0.0000 0.0000 19.0581 0.0000 0.0000
# 5 0.0000 0.0000 0.0000 0.0000 19.0581 0.0000
# 6 0.0000 0.0000 0.0000 0.0000 0.0000 18.6099
#
#
#
# Elastic Compliance Matrix: (Units=1/GPa)
#
#
# Indices 1 2 3 4 5 6 
#
# 1 0.018997 -0.007870 -0.004020 0.000000 0.000000 0.000000
# 2 -0.007870 0.018997 -0.004020 0.000000 0.000000 0.000000
# 3 -0.004020 -0.004020 0.015216 0.000000 0.000000 0.000000
# 4 0.000000 0.000000 0.000000 0.052471 0.000000 0.000000
# 5 0.000000 0.000000 0.000000 0.000000 0.052471 0.000000
# 6 0.000000 0.000000 0.000000 0.000000 0.000000 0.053735
#
#
# Mechanical properties :
#
#
# Convention : Reuss Voigt Hill
#
# Bulk Modulus (GPa) = 46.75216 46.75252 46.75234
# Shear Modulus (GPa) = 19.93322 20.27209 20.10265
#
# Velocity S-wave (km/s) = 3.46498 3.49431 3.47967
# Velocity P-wave (km/s) = 6.64587 6.66633 6.65611
#
# Compressibility (1/GPa) = 0.02138939
#
# Stress axis : x y z
#
# Youngs Moduli (GPa) = 52.63977 52.63977 65.72037
#
# Poissons Ratio (x) = 0.41429 0.26420
# Poissons Ratio (y) = 0.41429 0.26420
# Poissons Ratio (z) = 0.21161 0.21161
#
# Static dielectric constant tensor:
#      x y z
#    x 2.974640 0.000000 0.000000 
#    y 0.000000 2.974640 0.000000 
#    z 0.000000 0.000000 3.300750 
# 
# 
# High freq. dielectric constant tensor:
#      x y z
#    x 1.618040 0.000000 0.000000 
#    y 0.000000 1.618040 0.000000 
#    z 0.000000 0.000000 1.648320 
# 
# From -- ./inp_files/9355.got.cif
#   From: 2010.03.12/outbox.cif.g09.slc.cpg/sg191_5_cif.got.tgz:9355.got - 2010.04.01 12:09:02.
