data_PCOD8328464
_publ_section_title
;
Structure prediction by ZEFSAII (Michael W. Deem and Ramdas Pophale) SiO2 
 PCOD8328464
Probable space group: P 6/M M M
;
_chemical_formula_sum "Si O2"
_cell_formula_units_Z 108
_cell_length_a 18.130723
_cell_length_b 18.130723
_cell_length_c 24.448477
_cell_angle_alpha 90.000000
_cell_angle_beta 90.000000
_cell_angle_gamma 120.000000
_cell_volume 6960.055258
_symmetry_space_group_name_H-M "P 6/M M M"
_symmetry_group_IT_number 191
_symmetry_cell_setting 'hexagonal'
loop_
_space_group_symop_operation_xyz
x,y,z
x-y,x,z
-y,x-y,z
-x,-y,z
-x+y,-x,z
y,-x+y,z
x-y,-y,-z
-x,-x+y,-z
y,x,-z
-y,-x,-z
-x+y,y,-z
x,x-y,-z
-x,-y,-z
-x+y,-x,-z
y,-x+y,-z
x,y,-z
x-y,x,-z
-y,x-y,-z
-x+y,y,z
x,x-y,z
-y,-x,z
y,x,z
x-y,-y,z
-x,-x+y,z
loop_
_atom_site_type_symbol
_atom_site_label
_atom_site_fract_x
_atom_site_fract_y
_atom_site_fract_z
Si Si1 0.100811 0.468640 0.560826
Si Si2 0.164687 0.668472 0.874479
Si Si3 0.587733 0.587733 0.938013
Si Si4 0.368697 0.902590 0.242549
Si Si5 0.737983 0.638890 0.343420
O O1 0.130401 0.458805 0.500000
O O2 0.137801 0.568901 0.574114
O O3 0.131526 0.424593 0.604830
O O4 0.000000 0.423008 0.563650
O O5 0.177444 0.588722 0.886545
O O6 0.247144 0.752857 0.895781
O O7 0.154394 0.677968 0.809900
O O8 0.083860 0.659755 0.907493
O O9 0.500000 0.500000 0.935423
O O10 0.617047 0.617047 0.000000
O O11 0.441577 0.883153 0.264536
O O12 0.301522 0.883103 0.290067
O O13 0.412311 0.000000 0.223205
O O14 0.840809 0.681617 0.340648
O O15 0.712571 0.712571 0.347880
#
# Coordination Sequence:
#
# PCOD8328464 Si02
#       5
#    24  24  12  24  24
#     4   8  14  26  44  64  84 107 137 173 214 262
#     4  10  18  29  45  66  90 117 149 184 219 257
#     4   9  18  32  46  60  84 118 150 180 216 254
#     4   9  16  28  46  66  87 112 141 173 215 267
#     4  10  19  29  43  64  88 115 149 189 228 265
#
# _framework density 15.517118
#
# number of rings (size 3 to 8) (size 9 to 14) (size 15 to 20)
#    0.000    2.778    1.111    2.222    0.000    3.556 
#    0.000    0.000    0.000    6.444    0.000    0.000 
#    0.000    0.000    0.000    5.889    0.000    1.444 
#
# Total GULP energy -1338646.640782 kJ/mol
# GULP energy per Si atom -12394.876304 kJ/mol
# Density = 1.548180 g / cm^3
# Si number density = 15.517118 Si / 1000 Ang^3
#
#
#
# Elastic Constant Matrix: (Units=GPa)
#
#
# Indices 1 2 3 4 5 6 
#
# 1 84.1681 41.7494 38.0384 0.0000 0.0000 0.0000
# 2 41.7494 84.1681 38.0384 0.0000 0.0000 0.0000
# 3 38.0384 38.0384 79.0391 0.0000 0.0000 0.0000
# 4 0.0000 0.0000 0.0000 10.4139 0.0000 0.0000
# 5 0.0000 0.0000 0.0000 0.0000 10.4139 0.0000
# 6 0.0000 0.0000 0.0000 0.0000 0.0000 21.2094
#
#
#
# Elastic Compliance Matrix: (Units=1/GPa)
#
#
# Indices 1 2 3 4 5 6 
#
# 1 0.017386 -0.006188 -0.005389 0.000000 0.000000 0.000000
# 2 -0.006188 0.017386 -0.005389 0.000000 0.000000 0.000000
# 3 -0.005389 -0.005389 0.017839 0.000000 0.000000 0.000000
# 4 0.000000 0.000000 0.000000 0.096025 0.000000 0.000000
# 5 0.000000 0.000000 0.000000 0.000000 0.096025 0.000000
# 6 0.000000 0.000000 0.000000 0.000000 0.000000 0.047149
#
#
# Mechanical properties :
#
#
# Convention : Reuss Voigt Hill
#
# Bulk Modulus (GPa) = 53.53803 53.66975 53.60389
# Shear Modulus (GPa) = 15.06163 17.04406 16.05285
#
# Velocity S-wave (km/s) = 3.11890 3.31781 3.21989
# Velocity P-wave (km/s) = 6.89547 7.02422 6.96014
#
# Compressibility (1/GPa) = 0.01867831
#
# Stress axis : x y z
#
# Youngs Moduli (GPa) = 57.51743 57.51743 56.05706
#
# Poissons Ratio (x) = 0.35594 0.30209
# Poissons Ratio (y) = 0.35594 0.30209
# Poissons Ratio (z) = 0.30996 0.30996
#
# Static dielectric constant tensor:
#      x y z
#    x 2.747170 0.000000 0.000000 
#    y 0.000000 2.747170 0.000000 
#    z 0.000000 0.000000 3.110930 
# 
# 
# High freq. dielectric constant tensor:
#      x y z
#    x 1.566620 0.000000 0.000000 
#    y 0.000000 1.566620 0.000000 
#    z 0.000000 0.000000 1.606080 
# 
# From -- ./inp_files/8351.got.cif
#   From: 2010.03.12/outbox.cif.g09.slc.cpg/sg191_5_cif.got.tgz:8351.got - 2010.04.01 12:09:02.
