data_PCOD8328941
_publ_section_title
;
Structure prediction by ZEFSAII (Michael W. Deem and Ramdas Pophale) SiO2 
 PCOD8328941
Probable space group: P 6/M M M
;
_chemical_formula_sum "Si O2"
_cell_formula_units_Z 60
_cell_length_a 22.075233
_cell_length_b 22.075233
_cell_length_c 9.667189
_cell_angle_alpha 90.000000
_cell_angle_beta 90.000000
_cell_angle_gamma 120.000000
_cell_volume 4079.824047
_symmetry_space_group_name_H-M "P 6/M M M"
_symmetry_group_IT_number 191
_symmetry_cell_setting 'hexagonal'
loop_
_space_group_symop_operation_xyz
x,y,z
x-y,x,z
-y,x-y,z
-x,-y,z
-x+y,-x,z
y,-x+y,z
x-y,-y,-z
-x,-x+y,-z
y,x,-z
-y,-x,-z
-x+y,y,-z
x,x-y,-z
-x,-y,-z
-x+y,-x,-z
y,-x+y,-z
x,y,-z
x-y,x,-z
-y,x-y,-z
-x+y,y,z
x,x-y,z
-y,-x,z
y,x,z
x-y,-y,z
-x,-x+y,z
loop_
_atom_site_type_symbol
_atom_site_label
_atom_site_fract_x
_atom_site_fract_y
_atom_site_fract_z
Si Si1 0.668207 0.078559 0.847541
Si Si2 0.527637 0.333246 0.337480
Si Si3 0.293489 0.215671 0.000000
O O1 0.669917 0.131738 0.736090
O O2 0.745555 0.087052 0.864702
O O3 0.613538 0.000000 0.796962
O O4 0.644844 0.091486 0.000000
O O5 0.515243 0.332756 0.500000
O O6 0.534994 0.267497 0.291337
O O7 0.597672 0.402329 0.290861
O O8 0.225563 0.225563 0.000000
O O9 0.267378 0.133689 0.000000
#
# Coordination Sequence:
#
# PCOD8328941 Si02
#       3
#    24  24  12
#     4   8  17  31  47  66  84 107 140 180 220 260
#     4  10  20  32  45  61  84 115 148 181 218 262
#     4   8  14  26  45  66  87 111 139 171 206 246
#
# _framework density 14.706516000000001
#
# number of rings (size 3 to 8) (size 9 to 14) (size 15 to 20)
#    1.200    2.000    0.000    1.600    0.000    4.000 
#    0.000    4.000    0.000    2.600    0.000    0.000 
#    0.000    0.000    0.000    0.000    0.000    0.000 
#
# Total GULP energy -743303.293045 kJ/mol
# GULP energy per Si atom -12388.388217 kJ/mol
# Density = 1.467304 g / cm^3
# Si number density = 14.706516 Si / 1000 Ang^3
#
#
#
# Elastic Constant Matrix: (Units=GPa)
#
#
# Indices 1 2 3 4 5 6 
#
# 1 92.4033 80.4940 32.5021 0.0000 0.0000 0.0000
# 2 80.4940 92.4033 32.5021 0.0000 0.0000 0.0000
# 3 32.5021 32.5021 25.2646 0.0000 0.0000 0.0000
# 4 0.0000 0.0000 0.0000 21.6805 0.0000 0.0000
# 5 0.0000 0.0000 0.0000 0.0000 21.6805 0.0000
# 6 0.0000 0.0000 0.0000 0.0000 0.0000 5.9546
#
#
#
# Elastic Compliance Matrix: (Units=1/GPa)
#
#
# Indices 1 2 3 4 5 6 
#
# 1 0.047585 -0.036383 -0.014411 0.000000 0.000000 0.000000
# 2 -0.036383 0.047585 -0.014411 0.000000 0.000000 0.000000
# 3 -0.014411 -0.014411 0.076659 0.000000 0.000000 0.000000
# 4 0.000000 0.000000 0.000000 0.046124 0.000000 0.000000
# 5 0.000000 0.000000 0.000000 0.000000 0.046124 0.000000
# 6 0.000000 0.000000 0.000000 0.000000 0.000000 0.167937
#
#
# Mechanical properties :
#
#
# Convention : Reuss Voigt Hill
#
# Bulk Modulus (GPa) = 24.14313 55.67420 39.90867
# Shear Modulus (GPa) = 8.67706 14.16797 11.42251
#
# Velocity S-wave (km/s) = 2.43166 3.10720 2.78995
# Velocity P-wave (km/s) = 4.93317 7.12825 6.12977
#
# Compressibility (1/GPa) = 0.04141964
#
# Stress axis : x y z
#
# Youngs Moduli (GPa) = 21.01493 21.01493 13.04474
#
# Poissons Ratio (x) = 0.76459 0.18799
# Poissons Ratio (y) = 0.76459 0.18799
# Poissons Ratio (z) = 0.30284 0.30284
#
# Static dielectric constant tensor:
#      x y z
#    x 2.732550 0.000000 0.000000 
#    y 0.000000 2.732550 0.000000 
#    z 0.000000 0.000000 2.596560 
# 
# 
# High freq. dielectric constant tensor:
#      x y z
#    x 1.555920 0.000000 0.000000 
#    y 0.000000 1.555920 0.000000 
#    z 0.000000 0.000000 1.539850 
# 
# From -- ./inp_files/782.got.cif
#   From: 2010.03.12/outbox.cif.g09.slc.cpg/sg191_1_cif.got.tgz:782.got - 2010.04.01 12:09:02.
