data_PCOD8328967
_publ_section_title
;
Structure prediction by ZEFSAII (Michael W. Deem and Ramdas Pophale) SiO2 
 PCOD8328967
Probable space group: P 6/M M M
;
_chemical_formula_sum "Si O2"
_cell_formula_units_Z 84
_cell_length_a 17.552030
_cell_length_b 17.552030
_cell_length_c 18.019048
_cell_angle_alpha 90.000000
_cell_angle_beta 90.000000
_cell_angle_gamma 120.000000
_cell_volume 4807.476599
_symmetry_space_group_name_H-M "P 6/M M M"
_symmetry_group_IT_number 191
_symmetry_cell_setting 'hexagonal'
loop_
_space_group_symop_operation_xyz
x,y,z
x-y,x,z
-y,x-y,z
-x,-y,z
-x+y,-x,z
y,-x+y,z
x-y,-y,-z
-x,-x+y,-z
y,x,-z
-y,-x,-z
-x+y,y,-z
x,x-y,-z
-x,-y,-z
-x+y,-x,-z
y,-x+y,-z
x,y,-z
x-y,x,-z
-y,x-y,-z
-x+y,y,z
x,x-y,z
-y,-x,z
y,x,z
x-y,-y,z
-x,-x+y,z
loop_
_atom_site_type_symbol
_atom_site_label
_atom_site_fract_x
_atom_site_fract_y
_atom_site_fract_z
Si Si1 0.843355 0.511478 0.143117
Si Si2 0.363460 0.467581 0.581941
Si Si3 0.631717 0.731712 0.280333
Si Si4 0.901045 0.272172 0.000000
O O1 0.740529 0.481058 0.147301
O O2 0.854270 0.427135 0.139219
O O3 0.894856 0.567800 0.214744
O O4 0.887759 0.569762 0.071242
O O5 0.320019 0.454305 0.500000
O O6 0.428262 0.571739 0.597008
O O7 0.420930 0.420930 0.585509
O O8 0.289231 0.425372 0.644530
O O9 0.671348 0.835674 0.263788
O O10 0.711778 0.711778 0.287836
O O11 0.832738 0.167263 0.000000
O O12 0.000000 0.287992 0.000000
#
# Coordination Sequence:
#
# PCOD8328967 Si02
#       4
#    24  24  24  12
#     4  10  20  33  50  73 101 130 157 186 224 273
#     4   8  14  26  45  68  92 117 146 181 222 271
#     4  10  20  32  47  68  93 122 157 198 241 281
#     4  10  21  35  51  72  97 127 162 200 239 275
#
# _framework density 17.472784000000001
#
# number of rings (size 3 to 8) (size 9 to 14) (size 15 to 20)
#    0.000    2.571    0.000    3.286    0.000    4.571 
#    0.000    1.429    0.000    1.000    0.000    0.000 
#    0.000    6.857    0.000    7.143    0.000    0.571 
#
# Total GULP energy -1041271.614120 kJ/mol
# GULP energy per Si atom -12396.090644 kJ/mol
# Density = 1.743301 g / cm^3
# Si number density = 17.472784 Si / 1000 Ang^3
#
#
#
# Elastic Constant Matrix: (Units=GPa)
#
#
# Indices 1 2 3 4 5 6 
#
# 1 88.9736 59.3066 35.0087 0.0000 0.0000 0.0000
# 2 59.3066 88.9736 35.0087 0.0000 0.0000 0.0000
# 3 35.0087 35.0087 125.8946 0.0000 0.0000 0.0000
# 4 0.0000 0.0000 0.0000 20.9130 0.0000 0.0000
# 5 0.0000 0.0000 0.0000 0.0000 20.9130 0.0000
# 6 0.0000 0.0000 0.0000 0.0000 0.0000 14.8335
#
#
#
# Elastic Compliance Matrix: (Units=1/GPa)
#
#
# Indices 1 2 3 4 5 6 
#
# 1 0.020735 -0.012972 -0.002159 0.000000 0.000000 0.000000
# 2 -0.012972 0.020735 -0.002159 0.000000 0.000000 0.000000
# 3 -0.002159 -0.002159 0.009144 0.000000 0.000000 0.000000
# 4 0.000000 0.000000 0.000000 0.047817 0.000000 0.000000
# 5 0.000000 0.000000 0.000000 0.000000 0.047817 0.000000
# 6 0.000000 0.000000 0.000000 0.000000 0.000000 0.067415
#
#
# Mechanical properties :
#
#
# Convention : Reuss Voigt Hill
#
# Bulk Modulus (GPa) = 62.36268 62.49885 62.43076
# Shear Modulus (GPa) = 19.71699 22.96642 21.34171
#
# Velocity S-wave (km/s) = 3.36287 3.62941 3.49868
# Velocity P-wave (km/s) = 7.13073 7.30824 7.22003
#
# Compressibility (1/GPa) = 0.01603523
#
# Stress axis : x y z
#
# Youngs Moduli (GPa) = 48.22665 48.22665 109.36363
#
# Poissons Ratio (x) = 0.62560 0.23610
# Poissons Ratio (y) = 0.62560 0.23610
# Poissons Ratio (z) = 0.10411 0.10411
#
# Static dielectric constant tensor:
#      x y z
#    x 3.044050 0.000000 0.000000 
#    y 0.000000 3.044050 0.000000 
#    z 0.000000 0.000000 3.731590 
# 
# 
# High freq. dielectric constant tensor:
#      x y z
#    x 1.651400 0.000000 0.000000 
#    y 0.000000 1.651400 0.000000 
#    z 0.000000 0.000000 1.700250 
# 
# From -- ./inp_files/3979.got.cif
#   From: 2010.03.12/outbox.cif.g09.slc.cpg/sg191_2_cif.got.tgz:3979.got - 2010.04.01 12:09:02.
