data_PCOD8328103
_publ_section_title
;
Structure prediction by ZEFSAII (Michael W. Deem and Ramdas Pophale) SiO2 
 PCOD8328103
Probable space group: P -6 2 C
;
_chemical_formula_sum "Si O2"
_cell_formula_units_Z 84
_cell_length_a 17.499785
_cell_length_b 17.499785
_cell_length_c 13.798747
_cell_angle_alpha 90.000000
_cell_angle_beta 90.000000
_cell_angle_gamma 120.000000
_cell_volume 3659.617618
_symmetry_space_group_name_H-M "P -6 2 C"
_symmetry_group_IT_number 190
_symmetry_cell_setting 'hexagonal'
loop_
_space_group_symop_operation_xyz
x,y,z
-x+y,-x,1/2-z
-y,x-y,z
x,y,1/2-z
-x+y,-x,z
-y,x-y,1/2-z
x-y,-y,-z
-x,-x+y,-z
y,x,-z
y,x,1/2+z
x-y,-y,1/2+z
-x,-x+y,1/2+z
loop_
_atom_site_type_symbol
_atom_site_label
_atom_site_fract_x
_atom_site_fract_y
_atom_site_fract_z
Si Si1 0.343085 0.898384 0.527724
Si Si2 0.611122 0.817715 0.637544
Si Si3 0.932017 0.565416 0.640803
Si Si4 0.809860 0.869963 0.135976
Si Si5 0.938727 0.804941 0.365978
Si Si6 0.616768 0.115996 0.440552
Si Si7 0.783281 0.612032 0.640628
O O1 0.269184 0.884374 0.606574
O O2 0.404629 0.867707 0.587036
O O3 0.292801 0.838178 0.432788
O O4 0.402849 0.000000 0.500000
O O5 0.596661 0.818995 0.750000
O O6 0.703210 0.902443 0.603304
O O7 0.523332 0.807661 0.583678
O O8 0.919079 0.526298 0.750000
O O9 0.893722 0.492273 0.556866
O O10 0.879336 0.619149 0.630049
O O11 0.036027 0.620476 0.616291
O O12 0.827196 0.884203 0.250000
O O13 0.872613 0.836187 0.090708
O O14 0.708516 0.798703 0.115092
O O15 0.832451 0.964257 0.089953
O O16 0.938896 0.809193 0.250000
O O17 0.748001 0.582752 0.750000
#
# Coordination Sequence:
#
# PCOD8328103 Si02
#       7
#    12  12  12  12  12  12  12
#     4  12  25  43  65  98 135 172 221 280 348 409
#     4  11  24  43  67  96 134 181 229 280 343 409
#     4  10  20  40  70  97 124 166 221 275 336 404
#     4   9  16  29  53  90 132 177 220 264 315 376
#     4   9  17  31  55  91 134 177 222 266 314 379
#     4  11  23  44  67  98 132 169 223 285 340 413
#     4  10  21  39  65  94 129 174 224 275 336 407
#
# _framework density 22.953219000000001
#
# number of rings (size 3 to 8) (size 9 to 14) (size 15 to 20)
#    0.000    1.714    2.857    2.429    0.000    6.857 
#    0.857    0.000    0.000    0.000    0.000    2.000 
#    0.000    0.000    0.000    0.000    0.000    0.000 
#
# Total GULP energy -1040656.631100 kJ/mol
# GULP energy per Si atom -12388.769418 kJ/mol
# Density = 2.290098 g / cm^3
# Si number density = 22.953219 Si / 1000 Ang^3
#
#
#
# Elastic Constant Matrix: (Units=GPa)
#
#
# Indices 1 2 3 4 5 6 
#
# 1 108.6334 49.2488 24.3001 0.0000 0.0000 0.0000
# 2 49.2488 108.6334 24.3001 0.0000 0.0000 0.0000
# 3 24.3001 24.3001 92.1449 0.0000 0.0000 0.0000
# 4 0.0000 0.0000 0.0000 27.1483 0.0000 0.0000
# 5 0.0000 0.0000 0.0000 0.0000 27.1483 0.0000
# 6 0.0000 0.0000 0.0000 0.0000 0.0000 29.6923
#
#
#
# Elastic Compliance Matrix: (Units=1/GPa)
#
#
# Indices 1 2 3 4 5 6 
#
# 1 0.011866 -0.004973 -0.001818 0.000000 0.000000 0.000000
# 2 -0.004973 0.011866 -0.001818 0.000000 0.000000 0.000000
# 3 -0.001818 -0.001818 0.011811 0.000000 0.000000 0.000000
# 4 0.000000 0.000000 0.000000 0.036835 0.000000 0.000000
# 5 0.000000 0.000000 0.000000 0.000000 0.036835 0.000000
# 6 0.000000 0.000000 0.000000 0.000000 0.000000 0.033679
#
#
# Mechanical properties :
#
#
# Convention : Reuss Voigt Hill
#
# Bulk Modulus (GPa) = 54.56572 56.12331 55.34451
# Shear Modulus (GPa) = 30.08081 30.90193 30.49137
#
# Velocity S-wave (km/s) = 3.62405 3.67318 3.64870
# Velocity P-wave (km/s) = 6.42929 6.51873 6.47417
#
# Compressibility (1/GPa) = 0.01832653
#
# Stress axis : x y z
#
# Youngs Moduli (GPa) = 84.27139 84.27139 84.66467
#
# Poissons Ratio (x) = 0.41908 0.15391
# Poissons Ratio (y) = 0.41908 0.15391
# Poissons Ratio (z) = 0.15320 0.15320
#
# Static dielectric constant tensor:
#      x y z
#    x 4.024550 0.000000 0.000000 
#    y 0.000000 4.024550 0.000000 
#    z 0.000000 0.000000 4.155060 
# 
# 
# High freq. dielectric constant tensor:
#      x y z
#    x 1.889860 0.000000 0.000000 
#    y 0.000000 1.889860 0.000000 
#    z 0.000000 0.000000 1.913140 
# 
# From -- ./inp_files/3174.got.cif
#   From: 2010.06.25/outbox.cif.g09.slc.cpg/sg190_2_cif.got.tgz:3174.got - 2010.06.28 13:08:06.
