data_PCOD8328390
_publ_section_title
;
Structure prediction by ZEFSAII (Michael W. Deem and Ramdas Pophale) SiO2 
 PCOD8328390
Probable space group: P 6/M M M
;
_chemical_formula_sum "Si O2"
_cell_formula_units_Z 108
_cell_length_a 27.914256
_cell_length_b 27.914256
_cell_length_c 10.806777
_cell_angle_alpha 90.000000
_cell_angle_beta 90.000000
_cell_angle_gamma 120.000000
_cell_volume 7292.541943
_symmetry_space_group_name_H-M "P 6/M M M"
_symmetry_group_IT_number 191
_symmetry_cell_setting 'hexagonal'
loop_
_space_group_symop_operation_xyz
x,y,z
x-y,x,z
-y,x-y,z
-x,-y,z
-x+y,-x,z
y,-x+y,z
x-y,-y,-z
-x,-x+y,-z
y,x,-z
-y,-x,-z
-x+y,y,-z
x,x-y,-z
-x,-y,-z
-x+y,-x,-z
y,-x+y,-z
x,y,-z
x-y,x,-z
-y,x-y,-z
-x+y,y,z
x,x-y,z
-y,-x,z
y,x,z
x-y,-y,z
-x,-x+y,z
loop_
_atom_site_type_symbol
_atom_site_label
_atom_site_fract_x
_atom_site_fract_y
_atom_site_fract_z
Si Si1 0.174930 0.238096 0.000000
Si Si2 0.246684 0.934950 0.500000
Si Si3 0.315671 0.212012 0.235985
Si Si4 0.065109 0.585296 0.732098
Si Si5 0.611573 0.936892 0.139285
Si Si6 0.354906 0.934163 0.500000
O O1 0.202967 0.272313 0.873759
O O2 0.186019 0.186019 0.000000
O O3 0.109008 0.218016 0.000000
O O4 0.208674 0.915932 0.375619
O O5 0.288937 0.910721 0.500000
O O6 0.280498 0.000000 0.500000
O O7 0.334992 0.167496 0.220426
O O8 0.370589 0.271796 0.222959
O O9 0.092992 0.546496 0.745680
O O10 0.080388 0.627385 0.847837
O O11 0.088513 0.626271 0.615700
O O12 0.000000 0.545051 0.719739
O O13 0.648721 0.000000 0.185693
O O14 0.624376 0.929528 0.000000
O O15 0.385690 0.000000 0.500000
#
# Coordination Sequence:
#
# PCOD8328390 Si02
#       6
#    12  12  24  24  24  12
#     4  10  20  34  52  71  91 117 149 185 225 271
#     4  11  19  30  47  63  85 117 153 187 225 265
#     4  11  21  31  45  66  90 117 152 190 226 266
#     4   9  16  25  37  56  80 106 141 181 214 244
#     4  10  18  28  43  59  80 113 149 180 216 260
#     4   9  15  23  38  56  73 105 144 177 211 248
#
# _framework density 14.809651000000001
#
# number of rings (size 3 to 8) (size 9 to 14) (size 15 to 20)
#    0.000    2.000    3.333    2.667    0.000    1.778 
#    0.000    2.222    0.000    0.111    0.000    0.000 
#    0.000    0.000    0.000    0.667    0.000   28.889 
#
# Total GULP energy -1337941.988528 kJ/mol
# GULP energy per Si atom -12388.351746 kJ/mol
# Density = 1.477594 g / cm^3
# Si number density = 14.809651 Si / 1000 Ang^3
#
#
#
# Elastic Constant Matrix: (Units=GPa)
#
#
# Indices 1 2 3 4 5 6 
#
# 1 61.4245 32.5808 32.0749 0.0000 0.0000 0.0000
# 2 32.5808 61.4245 32.0749 0.0000 0.0000 0.0000
# 3 32.0749 32.0749 90.8500 0.0000 0.0000 0.0000
# 4 0.0000 0.0000 0.0000 14.3021 0.0000 0.0000
# 5 0.0000 0.0000 0.0000 0.0000 14.3021 0.0000
# 6 0.0000 0.0000 0.0000 0.0000 0.0000 14.4219
#
#
#
# Elastic Compliance Matrix: (Units=1/GPa)
#
#
# Indices 1 2 3 4 5 6 
#
# 1 0.024342 -0.010328 -0.004948 0.000000 0.000000 0.000000
# 2 -0.010328 0.024342 -0.004948 0.000000 0.000000 0.000000
# 3 -0.004948 -0.004948 0.014501 0.000000 0.000000 0.000000
# 4 0.000000 0.000000 0.000000 0.069920 0.000000 0.000000
# 5 0.000000 0.000000 0.000000 0.000000 0.069920 0.000000
# 6 0.000000 0.000000 0.000000 0.000000 0.000000 0.069339
#
#
# Mechanical properties :
#
#
# Convention : Reuss Voigt Hill
#
# Bulk Modulus (GPa) = 43.97920 45.24004 44.60962
# Shear Modulus (GPa) = 15.60605 16.40312 16.00458
#
# Velocity S-wave (km/s) = 3.24971 3.33167 3.29095
# Velocity P-wave (km/s) = 6.62130 6.73899 6.68041
#
# Compressibility (1/GPa) = 0.02273802
#
# Stress axis : x y z
#
# Youngs Moduli (GPa) = 41.08161 41.08161 68.96188
#
# Poissons Ratio (x) = 0.42428 0.34120
# Poissons Ratio (y) = 0.42428 0.34120
# Poissons Ratio (z) = 0.20326 0.20326
#
# Static dielectric constant tensor:
#      x y z
#    x 2.706790 0.000000 0.000000 
#    y 0.000000 2.706790 0.000000 
#    z 0.000000 0.000000 3.190810 
# 
# 
# High freq. dielectric constant tensor:
#      x y z
#    x 1.528420 0.000000 0.000000 
#    y 0.000000 1.528420 0.000000 
#    z 0.000000 0.000000 1.590180 
# 
# From -- ./inp_files/3139.got.cif
#   From: 2010.03.12/outbox.cif.g09.slc.cpg/sg191_2_cif.got.tgz:3139.got - 2010.04.01 12:09:02.
