data_PCOD8328901
_publ_section_title
;
Structure prediction by ZEFSAII (Michael W. Deem and Ramdas Pophale) SiO2 
 PCOD8328901
Probable space group: P 6/M M M
;
_chemical_formula_sum "Si O2"
_cell_formula_units_Z 108
_cell_length_a 17.108493
_cell_length_b 17.108493
_cell_length_c 23.779976
_cell_angle_alpha 90.000000
_cell_angle_beta 90.000000
_cell_angle_gamma 120.000000
_cell_volume 6027.893304
_symmetry_space_group_name_H-M "P 6/M M M"
_symmetry_group_IT_number 191
_symmetry_cell_setting 'hexagonal'
loop_
_space_group_symop_operation_xyz
x,y,z
x-y,x,z
-y,x-y,z
-x,-y,z
-x+y,-x,z
y,-x+y,z
x-y,-y,-z
-x,-x+y,-z
y,x,-z
-y,-x,-z
-x+y,y,-z
x,x-y,-z
-x,-y,-z
-x+y,-x,-z
y,-x+y,-z
x,y,-z
x-y,x,-z
-y,x-y,-z
-x+y,y,z
x,x-y,z
-y,-x,z
y,x,z
x-y,-y,z
-x,-x+y,z
loop_
_atom_site_type_symbol
_atom_site_label
_atom_site_fract_x
_atom_site_fract_y
_atom_site_fract_z
Si Si1 0.892483 0.606706 0.375017
Si Si2 0.824812 0.824812 0.066898
Si Si3 0.646970 0.000000 0.066635
Si Si4 0.893679 0.446840 0.562689
Si Si5 0.669460 0.510623 0.861769
Si Si6 0.104755 0.638434 0.740908
O O1 0.819660 0.639320 0.392856
O O2 0.864578 0.512292 0.406322
O O3 0.874513 0.583122 0.309216
O O4 0.000000 0.682900 0.386422
O O5 0.823707 0.911854 0.091361
O O6 0.736176 0.736176 0.087849
O O7 0.828464 0.828464 0.000000
O O8 0.645113 0.084795 0.091192
O O9 0.640373 0.000000 0.000000
O O10 0.851569 0.425785 0.500000
O O11 0.000000 0.500000 0.559754
O O12 0.754514 0.509028 0.886800
O O13 0.589192 0.410809 0.854154
O O14 0.692160 0.555571 0.799752
O O15 0.149250 0.574625 0.729706
O O16 0.000000 0.571611 0.745912
#
# Coordination Sequence:
#
# PCOD8328901 Si02
#       6
#    24  12  12  12  24  24
#     4  10  19  33  54  80 111 151 193 234 276 326
#     4   9  17  31  53  79 103 127 159 201 247 297
#     4  11  23  39  55  73  99 135 171 205 253 321
#     4   9  18  34  54  78 112 152 186 226 274 324
#     4  11  22  36  54  77 102 132 169 216 265 315
#     4   9  16  31  54  78 104 134 174 221 271 319
#
# _framework density 17.916706999999999
#
# number of rings (size 3 to 8) (size 9 to 14) (size 15 to 20)
#    0.000    2.111    2.222    2.000    0.000    3.111 
#    0.667    0.000    0.000    1.556    0.000    0.000 
#    0.000    0.000    0.000    5.556    0.000    0.000 
#
# Total GULP energy -1338068.382101 kJ/mol
# GULP energy per Si atom -12389.522056 kJ/mol
# Density = 1.787593 g / cm^3
# Si number density = 17.916707 Si / 1000 Ang^3
#
#
#
# Elastic Constant Matrix: (Units=GPa)
#
#
# Indices 1 2 3 4 5 6 
#
# 1 89.1809 32.9709 31.1542 0.0000 0.0000 0.0000
# 2 32.9709 89.1809 31.1542 0.0000 0.0000 0.0000
# 3 31.1542 31.1542 84.5884 0.0000 0.0000 0.0000
# 4 0.0000 0.0000 0.0000 13.1592 0.0000 0.0000
# 5 0.0000 0.0000 0.0000 0.0000 13.1592 0.0000
# 6 0.0000 0.0000 0.0000 0.0000 0.0000 28.1050
#
#
#
# Elastic Compliance Matrix: (Units=1/GPa)
#
#
# Indices 1 2 3 4 5 6 
#
# 1 0.013935 -0.003855 -0.003713 0.000000 0.000000 0.000000
# 2 -0.003855 0.013935 -0.003713 0.000000 0.000000 0.000000
# 3 -0.003713 -0.003713 0.014557 0.000000 0.000000 0.000000
# 4 0.000000 0.000000 0.000000 0.075993 0.000000 0.000000
# 5 0.000000 0.000000 0.000000 0.000000 0.075993 0.000000
# 6 0.000000 0.000000 0.000000 0.000000 0.000000 0.035581
#
#
# Mechanical properties :
#
#
# Convention : Reuss Voigt Hill
#
# Bulk Modulus (GPa) = 50.33511 50.38987 50.36249
# Shear Modulus (GPa) = 19.29186 22.06271 20.67729
#
# Velocity S-wave (km/s) = 3.28495 3.51294 3.40086
# Velocity P-wave (km/s) = 6.52249 6.68131 6.60238
#
# Compressibility (1/GPa) = 0.01986685
#
# Stress axis : x y z
#
# Youngs Moduli (GPa) = 71.75982 71.75982 68.69694
#
# Poissons Ratio (x) = 0.27664 0.25505
# Poissons Ratio (y) = 0.27664 0.25505
# Poissons Ratio (z) = 0.26642 0.26642
#
# Static dielectric constant tensor:
#      x y z
#    x 3.318080 0.000000 0.000000 
#    y 0.000000 3.318080 0.000000 
#    z 0.000000 0.000000 3.446040 
# 
# 
# High freq. dielectric constant tensor:
#      x y z
#    x 1.680960 0.000000 0.000000 
#    y 0.000000 1.680960 0.000000 
#    z 0.000000 0.000000 1.684460 
# 
# From -- ./inp_files/8464.got.cif
#   From: 2010.03.12/outbox.cif.g09.slc.cpg/sg191_5_cif.got.tgz:8464.got - 2010.04.01 12:09:02.
