data_PCOD8328396
_publ_section_title
;
Structure prediction by ZEFSAII (Michael W. Deem and Ramdas Pophale) SiO2 
 PCOD8328396
Probable space group: P 6/M M M
;
_chemical_formula_sum "Si O2"
_cell_formula_units_Z 120
_cell_length_a 16.782867
_cell_length_b 16.782867
_cell_length_c 31.322010
_cell_angle_alpha 90.000000
_cell_angle_beta 90.000000
_cell_angle_gamma 120.000000
_cell_volume 7640.337819
_symmetry_space_group_name_H-M "P 6/M M M"
_symmetry_group_IT_number 191
_symmetry_cell_setting 'hexagonal'
loop_
_space_group_symop_operation_xyz
x,y,z
x-y,x,z
-y,x-y,z
-x,-y,z
-x+y,-x,z
y,-x+y,z
x-y,-y,-z
-x,-x+y,-z
y,x,-z
-y,-x,-z
-x+y,y,-z
x,x-y,-z
-x,-y,-z
-x+y,-x,-z
y,-x+y,-z
x,y,-z
x-y,x,-z
-y,x-y,-z
-x+y,y,z
x,x-y,z
-y,-x,z
y,x,z
x-y,-y,z
-x,-x+y,z
loop_
_atom_site_type_symbol
_atom_site_label
_atom_site_fract_x
_atom_site_fract_y
_atom_site_fract_z
Si Si1 0.595249 0.000000 0.652416
Si Si2 0.593944 0.000000 0.747360
Si Si3 0.844679 0.515404 0.409285
Si Si4 0.518649 0.849888 0.813706
Si Si5 0.287568 0.893879 0.096235
Si Si6 0.445616 0.554385 0.952171
Si Si7 0.465896 0.358364 0.500000
O O1 0.672354 0.088028 0.626661
O O2 0.500000 0.000000 0.654940
O O3 0.632448 0.000000 0.700060
O O4 0.575086 0.908664 0.772650
O O5 0.500000 0.000000 0.742591
O O6 0.741482 0.482963 0.394518
O O7 0.862804 0.431402 0.412539
O O8 0.862098 0.563084 0.456261
O O9 0.429394 0.858787 0.822415
O O10 0.488038 0.744019 0.805423
O O11 0.586326 0.891456 0.853742
O O12 0.179436 0.820565 0.085605
O O13 0.348990 0.858693 0.071537
O O14 0.316614 0.000000 0.083780
O O15 0.500000 0.500000 0.953216
O O16 0.425019 0.574982 0.000000
O O17 0.420760 0.420760 0.500000
O O18 0.577015 0.422986 0.500000
#
# Coordination Sequence:
#
# PCOD8328396 Si02
#       7
#    12  12  24  24  24  12  12
#     4   9  18  31  42  57  82 114 145 174 226 270
#     4   9  18  30  45  60  81 114 145 185 226 269
#     4  10  18  28  43  61  84 111 144 181 213 255
#     4  10  18  29  46  67  89 116 152 194 233 274
#     4  10  19  32  51  72  98 131 167 204 245 292
#     4   9  18  32  50  72 102 134 162 194 236 286
#     4   9  15  26  42  59  78 108 143 174 211 253
#
# _framework density 15.706111
#
# number of rings (size 3 to 8) (size 9 to 14) (size 15 to 20)
#    0.000    2.400    3.000    0.700    0.000    1.200 
#    0.600    1.000    0.000    2.600    0.000    0.000 
#    0.000    0.000    0.000    5.300    0.000    3.700 
#
# Total GULP energy -1486964.448888 kJ/mol
# GULP energy per Si atom -12391.370407 kJ/mol
# Density = 1.567036 g / cm^3
# Si number density = 15.706111 Si / 1000 Ang^3
#
#
#
# Elastic Constant Matrix: (Units=GPa)
#
#
# Indices 1 2 3 4 5 6 
#
# 1 62.1472 27.8387 22.4451 0.0000 0.0000 0.0000
# 2 27.8387 62.1472 22.4451 0.0000 0.0000 0.0000
# 3 22.4451 22.4451 114.0130 0.0000 0.0000 0.0000
# 4 0.0000 0.0000 0.0000 -22.0661 0.0000 0.0000
# 5 0.0000 0.0000 0.0000 0.0000 -22.0661 0.0000
# 6 0.0000 0.0000 0.0000 0.0000 0.0000 17.1543
#
#
#
# Elastic Compliance Matrix: (Units=1/GPa)
#
#
# Indices 1 2 3 4 5 6 
#
# 1 0.020735 -0.008412 -0.002426 0.000000 0.000000 0.000000
# 2 -0.008412 0.020735 -0.002426 0.000000 0.000000 0.000000
# 3 -0.002426 -0.002426 0.009726 0.000000 0.000000 0.000000
# 4 0.000000 0.000000 0.000000 -0.045318 0.000000 0.000000
# 5 0.000000 0.000000 0.000000 0.000000 -0.045318 0.000000
# 6 0.000000 0.000000 0.000000 0.000000 0.000000 0.058295
#
#
# Mechanical properties :
#
#
# Convention : Reuss Voigt Hill
#
# Bulk Modulus (GPa) = 40.53776 42.64056 41.58916
# Shear Modulus (GPa) = 93.27450 5.64297 49.45873
#
# Velocity S-wave (km/s) = 7.71468 1.89754 5.61769
# Velocity P-wave (km/s) = 10.25774 5.65763 8.28342
#
# Compressibility (1/GPa) = 0.02466836
#
# Stress axis : x y z
#
# Youngs Moduli (GPa) = 48.22721 48.22721 102.81604
#
# Poissons Ratio (x) = 0.40569 0.24943
# Poissons Ratio (y) = 0.40569 0.24943
# Poissons Ratio (z) = 0.11700 0.11700
#
# Static dielectric constant tensor:
#      x y z
#    x 2.801200 0.000000 0.000000 
#    y 0.000000 2.801200 0.000000 
#    z 0.000000 0.000000 3.347500 
# 
# 
# High freq. dielectric constant tensor:
#      x y z
#    x 1.569730 0.000000 0.000000 
#    y 0.000000 1.569730 0.000000 
#    z 0.000000 0.000000 1.616770 
# 
# From -- ./inp_files/10345.got.cif
#   From: 2010.03.12/outbox.cif.g09.slc.cpg/sg191_6_cif.got.tgz:10345.got - 2010.04.01 12:09:02.
