data_PCOD8328270
_publ_section_title
;
Structure prediction by ZEFSAII (Michael W. Deem and Ramdas Pophale) SiO2 
 PCOD8328270
Probable space group: P 6/M M M
;
_chemical_formula_sum "Si O2"
_cell_formula_units_Z 120
_cell_length_a 18.928309
_cell_length_b 18.928309
_cell_length_c 25.501453
_cell_angle_alpha 90.000000
_cell_angle_beta 90.000000
_cell_angle_gamma 120.000000
_cell_volume 7912.599639
_symmetry_space_group_name_H-M "P 6/M M M"
_symmetry_group_IT_number 191
_symmetry_cell_setting 'hexagonal'
loop_
_space_group_symop_operation_xyz
x,y,z
x-y,x,z
-y,x-y,z
-x,-y,z
-x+y,-x,z
y,-x+y,z
x-y,-y,-z
-x,-x+y,-z
y,x,-z
-y,-x,-z
-x+y,y,-z
x,x-y,-z
-x,-y,-z
-x+y,-x,-z
y,-x+y,-z
x,y,-z
x-y,x,-z
-y,x-y,-z
-x+y,y,z
x,x-y,z
-y,-x,z
y,x,z
x-y,-y,z
-x,-x+y,z
loop_
_atom_site_type_symbol
_atom_site_label
_atom_site_fract_x
_atom_site_fract_y
_atom_site_fract_z
Si Si1 0.090659 0.629000 0.764384
Si Si2 0.173215 0.669182 0.339413
Si Si3 0.462160 0.092354 0.556989
Si Si4 0.170865 0.668328 0.872074
Si Si5 0.907608 0.252448 0.938563
O O1 0.087854 0.543927 0.759496
O O2 0.126045 0.679157 0.710331
O O3 0.147196 0.678743 0.813047
O O4 0.000000 0.614302 0.773248
O O5 0.157862 0.578931 0.340233
O O6 0.268587 0.731413 0.333302
O O7 0.142255 0.687769 0.394212
O O8 0.454202 0.127063 0.500000
O O9 0.548190 0.096379 0.559124
O O10 0.389815 0.000000 0.562965
O O11 0.156597 0.578299 0.882938
O O12 0.265698 0.734303 0.880900
O O13 0.113851 0.684143 0.911154
O O14 0.841416 0.158585 0.922211
O O15 0.000000 0.274769 0.922947
O O16 0.902236 0.264276 0.000000
#
# Coordination Sequence:
#
# PCOD8328270 Si02
#       5
#    24  24  24  24  24
#     4   9  17  28  41  55  71  96 132 170 203 237
#     4  10  18  26  36  51  72  95 118 148 191 241
#     4   8  14  25  39  51  63  84 116 150 181 217
#     4  10  19  30  44  63  88 116 145 177 213 252
#     4   9  18  32  49  68  89 114 144 178 216 256
#
# _framework density 15.165685
#
# number of rings (size 3 to 8) (size 9 to 14) (size 15 to 20)
#    0.000    2.800    0.000    2.800    0.000    4.400 
#    0.000    3.000    0.000    2.600    0.000    1.400 
#    0.000    0.000    0.000    0.000    0.000    0.000 
#
# Total GULP energy -1487045.669356 kJ/mol
# GULP energy per Si atom -12392.047245 kJ/mol
# Density = 1.513117 g / cm^3
# Si number density = 15.165685 Si / 1000 Ang^3
#
#
#
# Elastic Constant Matrix: (Units=GPa)
#
#
# Indices 1 2 3 4 5 6 
#
# 1 59.6973 36.8066 34.3569 0.0000 0.0000 0.0000
# 2 36.8066 59.6973 34.3569 0.0000 0.0000 0.0000
# 3 34.3569 34.3569 76.3449 0.0000 0.0000 0.0000
# 4 0.0000 0.0000 0.0000 18.5931 0.0000 0.0000
# 5 0.0000 0.0000 0.0000 0.0000 18.5931 0.0000
# 6 0.0000 0.0000 0.0000 0.0000 0.0000 11.4453
#
#
#
# Elastic Compliance Matrix: (Units=1/GPa)
#
#
# Indices 1 2 3 4 5 6 
#
# 1 0.029467 -0.014219 -0.006862 0.000000 0.000000 0.000000
# 2 -0.014219 0.029467 -0.006862 0.000000 0.000000 0.000000
# 3 -0.006862 -0.006862 0.019275 0.000000 0.000000 0.000000
# 4 0.000000 0.000000 0.000000 0.053783 0.000000 0.000000
# 5 0.000000 0.000000 0.000000 0.000000 0.053783 0.000000
# 6 0.000000 0.000000 0.000000 0.000000 0.000000 0.087372
#
#
# Mechanical properties :
#
#
# Convention : Reuss Voigt Hill
#
# Bulk Modulus (GPa) = 44.79701 45.19780 44.99741
# Shear Modulus (GPa) = 14.85998 15.74090 15.30044
#
# Velocity S-wave (km/s) = 3.13364 3.22519 3.17974
# Velocity P-wave (km/s) = 6.53418 6.61336 6.57388
#
# Compressibility (1/GPa) = 0.02232292
#
# Stress axis : x y z
#
# Youngs Moduli (GPa) = 33.93618 33.93618 51.88170
#
# Poissons Ratio (x) = 0.48253 0.35602
# Poissons Ratio (y) = 0.48253 0.35602
# Poissons Ratio (z) = 0.23287 0.23287
#
# Static dielectric constant tensor:
#      x y z
#    x 2.731410 0.000000 0.000000 
#    y 0.000000 2.731410 0.000000 
#    z 0.000000 0.000000 3.342480 
# 
# 
# High freq. dielectric constant tensor:
#      x y z
#    x 1.547620 0.000000 0.000000 
#    y 0.000000 1.547620 0.000000 
#    z 0.000000 0.000000 1.601980 
# 
# From -- ./inp_files/10262.got.cif
#   From: 2010.03.12/outbox.cif.g09.slc.cpg/sg191_6_cif.got.tgz:10262.got - 2010.04.01 12:09:02.
