data_PCOD8328079
_publ_section_title
;
Structure prediction by ZEFSAII (Michael W. Deem and Ramdas Pophale) SiO2 
 PCOD8328079
Probable space group: P -6 2 C
;
_chemical_formula_sum "Si O2"
_cell_formula_units_Z 68
_cell_length_a 10.833860
_cell_length_b 10.833860
_cell_length_c 32.449665
_cell_angle_alpha 90.000000
_cell_angle_beta 90.000000
_cell_angle_gamma 120.000000
_cell_volume 3298.430120
_symmetry_space_group_name_H-M "P -6 2 C"
_symmetry_group_IT_number 190
_symmetry_cell_setting 'hexagonal'
loop_
_space_group_symop_operation_xyz
x,y,z
-x+y,-x,1/2-z
-y,x-y,z
x,y,1/2-z
-x+y,-x,z
-y,x-y,1/2-z
x-y,-y,-z
-x,-x+y,-z
y,x,-z
y,x,1/2+z
x-y,-y,1/2+z
-x,-x+y,1/2+z
loop_
_atom_site_type_symbol
_atom_site_label
_atom_site_fract_x
_atom_site_fract_y
_atom_site_fract_z
Si Si1 0.663857 0.055845 0.663395
Si Si2 0.666668 0.333334 0.389944
Si Si3 0.286946 0.003151 0.250000
Si Si4 0.828199 0.656396 0.388232
Si Si5 0.336145 0.944156 0.163395
Si Si6 0.283795 0.286944 0.750000
Si Si7 0.333334 0.666668 0.512811
Si Si8 0.834290 0.165710 0.014217
O O1 0.779452 0.220550 0.667486
O O2 0.521764 0.043526 0.643996
O O3 0.625216 0.982849 0.708574
O O4 0.725922 0.984058 0.632117
O O5 0.746434 0.492859 0.373248
O O6 0.666668 0.333334 0.438794
O O7 0.240246 0.120123 0.250000
O O8 0.374786 0.017153 0.208574
O O9 0.145787 0.854214 0.250000
O O10 0.741862 0.725917 0.367883
O O11 0.838272 0.676543 0.436729
O O12 0.249159 0.750848 0.498362
O O13 0.000000 0.249923 0.000000
O O14 0.750072 0.000000 0.000000
#
# Coordination Sequence:
#
# PCOD8328079 Si02
#       8
#    12   4   6  12  12   6   4  12
#     4  11  23  40  63  93 128 167 212 261 319 380
#     4   9  18  39  66  91 124 156 198 270 316 370
#     4  10  20  36  58  90 126 167 209 262 314 376
#     4  11  22  40  67  90 126 166 211 261 326 380
#     4  11  23  40  63  93 128 167 212 261 319 380
#     4  10  20  36  58  90 126 167 209 262 314 376
#     4   9  21  45  75  96 127 175 222 259 340 411
#     4  11  25  45  68 101 137 173 219 284 344 409
#
# _framework density 20.615867000000001
#
# number of rings (size 3 to 8) (size 9 to 14) (size 15 to 20)
#    0.000    1.412    3.529    1.765    2.471    0.000 
#    1.059    1.765    0.000    0.000    0.000    0.000 
#    0.000    0.000    0.000    0.000    0.000    0.000 
#
# Total GULP energy -842849.638896 kJ/mol
# GULP energy per Si atom -12394.847631 kJ/mol
# Density = 2.056894 g / cm^3
# Si number density = 20.615867 Si / 1000 Ang^3
#
#
#
# Elastic Constant Matrix: (Units=GPa)
#
#
# Indices 1 2 3 4 5 6 
#
# 1 105.3930 49.9846 39.3014 0.0000 0.0000 0.0000
# 2 49.9846 105.3928 39.3013 0.0000 0.0000 0.0000
# 3 39.3014 39.3013 114.6103 0.0000 0.0000 0.0000
# 4 0.0000 0.0000 0.0000 26.4109 0.0000 0.0000
# 5 0.0000 0.0000 0.0000 0.0000 26.4109 0.0000
# 6 0.0000 0.0000 0.0000 0.0000 0.0000 27.7042
#
#
#
# Elastic Compliance Matrix: (Units=1/GPa)
#
#
# Indices 1 2 3 4 5 6 
#
# 1 0.012917 -0.005131 -0.002670 0.000000 0.000000 0.000000
# 2 -0.005131 0.012917 -0.002670 0.000000 0.000000 0.000000
# 3 -0.002670 -0.002670 0.010556 0.000000 0.000000 0.000000
# 4 0.000000 0.000000 0.000000 0.037863 0.000000 0.000000
# 5 0.000000 0.000000 0.000000 0.000000 0.037863 0.000000
# 6 0.000000 0.000000 0.000000 0.000000 0.000000 0.036096
#
#
# Mechanical properties :
#
#
# Convention : Reuss Voigt Hill
#
# Bulk Modulus (GPa) = 64.72799 64.73009 64.72904
# Shear Modulus (GPa) = 28.68542 29.22578 28.95560
#
# Velocity S-wave (km/s) = 3.73423 3.76923 3.75177
# Velocity P-wave (km/s) = 7.07516 7.09994 7.08756
#
# Compressibility (1/GPa) = 0.01544927
#
# Stress axis : x y z
#
# Youngs Moduli (GPa) = 77.41572 77.41558 94.72844
#
# Poissons Ratio (x) = 0.39718 0.25294
# Poissons Ratio (y) = 0.39719 0.25294
# Poissons Ratio (z) = 0.20671 0.20671
#
# Static dielectric constant tensor:
#      x y z
#    x 3.776860 0.000000 0.000000 
#    y 0.000000 3.776870 0.000000 
#    z 0.000000 0.000000 3.721920 
# 
# 
# High freq. dielectric constant tensor:
#      x y z
#    x 1.809330 0.000000 0.000000 
#    y 0.000000 1.809330 0.000000 
#    z 0.000000 0.000000 1.800480 
# 
# From -- ./inp_files/5170.got.cif
#   From: 2010.06.25/outbox.cif.g09.slc.cpg/sg190_3_cif.got.tgz:5170.got - 2010.06.28 13:08:06.
