data_PCOD8328422
_publ_section_title
;
Structure prediction by ZEFSAII (Michael W. Deem and Ramdas Pophale) SiO2 
 PCOD8328422
Probable space group: P 6/M M M
;
_chemical_formula_sum "Si O2"
_cell_formula_units_Z 168
_cell_length_a 22.751965
_cell_length_b 22.751965
_cell_length_c 23.894777
_cell_angle_alpha 90.000000
_cell_angle_beta 90.000000
_cell_angle_gamma 120.000000
_cell_volume 10712.021493
_symmetry_space_group_name_H-M "P 6/M M M"
_symmetry_group_IT_number 191
_symmetry_cell_setting 'hexagonal'
loop_
_space_group_symop_operation_xyz
x,y,z
x-y,x,z
-y,x-y,z
-x,-y,z
-x+y,-x,z
y,-x+y,z
x-y,-y,-z
-x,-x+y,-z
y,x,-z
-y,-x,-z
-x+y,y,-z
x,x-y,-z
-x,-y,-z
-x+y,-x,-z
y,-x+y,-z
x,y,-z
x-y,x,-z
-y,x-y,-z
-x+y,y,z
x,x-y,z
-y,-x,z
y,x,z
x-y,-y,z
-x,-x+y,z
loop_
_atom_site_type_symbol
_atom_site_label
_atom_site_fract_x
_atom_site_fract_y
_atom_site_fract_z
Si Si1 0.200866 0.274899 0.566563
Si Si2 0.797972 0.464512 0.934446
Si Si3 0.607420 0.076108 0.650659
Si Si4 0.589641 0.921384 0.884038
Si Si5 0.525166 0.920042 0.226599
Si Si6 0.714982 0.791043 0.935616
Si Si7 0.570826 0.718314 0.436005
O O1 0.200531 0.271645 0.500000
O O2 0.124566 0.249132 0.588590
O O3 0.227235 0.227235 0.593182
O O4 0.249536 0.351986 0.584910
O O5 0.737499 0.474997 0.908756
O O6 0.793221 0.396611 0.908330
O O7 0.872233 0.528395 0.923946
O O8 0.787699 0.455383 0.000000
O O9 0.536914 0.073828 0.646962
O O10 0.639885 0.104386 0.712296
O O11 0.655310 0.128672 0.603928
O O12 0.594559 0.000000 0.639967
O O13 0.562915 0.899947 0.820382
O O14 0.653086 0.910223 0.894996
O O15 0.611489 0.000000 0.896266
O O16 0.444874 0.889748 0.212297
O O17 0.558424 0.000000 0.230343
O O18 0.738747 0.869374 0.921768
O O19 0.778153 0.778153 0.925452
O O20 0.689934 0.773738 0.000000
O O21 0.562792 0.692936 0.500000
O O22 0.546122 0.773061 0.430361
#
# Coordination Sequence:
#
# PCOD8328422 Si02
#       7
#    24  24  24  24  24  24  24
#     4   8  13  21  34  52  74 101 130 158 190 230
#     4  10  20  32  44  58  80 110 142 177 217 259
#     4   9  17  29  46  66  85 106 134 171 212 248
#     4  10  18  28  45  66  86 110 140 176 218 261
#     4   8  15  28  43  60  85 114 140 167 205 254
#     4   9  17  29  45  66  93 122 150 182 222 265
#     4   9  17  28  41  59  85 112 134 161 201 249
#
# _framework density 15.683313999999999
#
# number of rings (size 3 to 8) (size 9 to 14) (size 15 to 20)
#    0.000    3.000    0.000    3.571    0.000    4.571 
#    0.000    2.857    0.000    0.571    0.000    2.000 
#    0.000    0.000    0.000    0.000    0.000    0.000 
#
# Total GULP energy -2081860.927573 kJ/mol
# GULP energy per Si atom -12392.029331 kJ/mol
# Density = 1.564762 g / cm^3
# Si number density = 15.683314 Si / 1000 Ang^3
#
#
#
# Elastic Constant Matrix: (Units=GPa)
#
#
# Indices 1 2 3 4 5 6 
#
# 1 78.1859 38.8038 33.8823 0.0000 0.0000 0.0000
# 2 38.8038 78.1859 33.8823 0.0000 0.0000 0.0000
# 3 33.8823 33.8823 66.7391 0.0000 0.0000 0.0000
# 4 0.0000 0.0000 0.0000 15.3300 0.0000 0.0000
# 5 0.0000 0.0000 0.0000 0.0000 15.3300 0.0000
# 6 0.0000 0.0000 0.0000 0.0000 0.0000 19.6910
#
#
#
# Elastic Compliance Matrix: (Units=1/GPa)
#
#
# Indices 1 2 3 4 5 6 
#
# 1 0.018750 -0.006642 -0.006147 0.000000 0.000000 0.000000
# 2 -0.006642 0.018750 -0.006147 0.000000 0.000000 0.000000
# 3 -0.006147 -0.006147 0.021225 0.000000 0.000000 0.000000
# 4 0.000000 0.000000 0.000000 0.065232 0.000000 0.000000
# 5 0.000000 0.000000 0.000000 0.000000 0.065232 0.000000
# 6 0.000000 0.000000 0.000000 0.000000 0.000000 0.050784
#
#
# Mechanical properties :
#
#
# Convention : Reuss Voigt Hill
#
# Bulk Modulus (GPa) = 47.95394 48.47194 48.21294
# Shear Modulus (GPa) = 17.55631 17.83970 17.69801
#
# Velocity S-wave (km/s) = 3.34941 3.37634 3.36290
# Velocity P-wave (km/s) = 6.75284 6.79510 6.77400
#
# Compressibility (1/GPa) = 0.02085334
#
# Stress axis : x y z
#
# Youngs Moduli (GPa) = 53.33231 53.33231 47.11330
#
# Poissons Ratio (x) = 0.35423 0.28962
# Poissons Ratio (y) = 0.35423 0.28962
# Poissons Ratio (z) = 0.32785 0.32785
#
# Static dielectric constant tensor:
#      x y z
#    x 2.983890 0.000000 0.000000 
#    y 0.000000 2.983890 0.000000 
#    z 0.000000 0.000000 2.963720 
# 
# 
# High freq. dielectric constant tensor:
#      x y z
#    x 1.588570 0.000000 0.000000 
#    y 0.000000 1.588570 0.000000 
#    z 0.000000 0.000000 1.577260 
# 
# From -- ./inp_files/10017.got.cif
#   From: 2010.03.12/outbox.cif.g09.slc.cpg/sg191_6_cif.got.tgz:10017.got - 2010.04.01 12:09:02.
