data_PCOD8328292
_publ_section_title
;
Structure prediction by ZEFSAII (Michael W. Deem and Ramdas Pophale) SiO2 
 PCOD8328292
Probable space group: P 6/M M M
;
_chemical_formula_sum "Si O2"
_cell_formula_units_Z 108
_cell_length_a 29.019435
_cell_length_b 29.019435
_cell_length_c 10.335197
_cell_angle_alpha 90.000000
_cell_angle_beta 90.000000
_cell_angle_gamma 120.000000
_cell_volume 7537.499495
_symmetry_space_group_name_H-M "P 6/M M M"
_symmetry_group_IT_number 191
_symmetry_cell_setting 'hexagonal'
loop_
_space_group_symop_operation_xyz
x,y,z
x-y,x,z
-y,x-y,z
-x,-y,z
-x+y,-x,z
y,-x+y,z
x-y,-y,-z
-x,-x+y,-z
y,x,-z
-y,-x,-z
-x+y,y,-z
x,x-y,-z
-x,-y,-z
-x+y,-x,-z
y,-x+y,-z
x,y,-z
x-y,x,-z
-y,x-y,-z
-x+y,y,z
x,x-y,z
-y,-x,z
y,x,z
x-y,-y,z
-x,-x+y,z
loop_
_atom_site_type_symbol
_atom_site_label
_atom_site_fract_x
_atom_site_fract_y
_atom_site_fract_z
Si Si1 0.904945 0.702669 0.000000
Si Si2 0.531704 0.468297 0.646985
Si Si3 0.063292 0.678212 0.000000
Si Si4 0.936391 0.312773 0.500000
Si Si5 0.936805 0.371166 0.258922
Si Si6 0.939437 0.776826 0.761888
Si Si7 0.726521 0.788945 0.500000
O O1 0.935168 0.736602 0.873585
O O2 0.843497 0.686993 0.000000
O O3 0.907330 0.649030 0.000000
O O4 0.500000 0.500000 0.644157
O O5 0.542473 0.457528 0.500000
O O6 0.497203 0.412372 0.721851
O O7 0.083029 0.659069 0.876745
O O8 0.000000 0.654731 0.000000
O O9 0.914623 0.327965 0.373568
O O10 0.911875 0.249091 0.500000
O O11 0.000000 0.343904 0.500000
O O12 0.000000 0.403271 0.263280
O O13 0.900118 0.800236 0.791977
O O14 0.919961 0.744852 0.627685
O O15 0.000000 0.825541 0.753940
O O16 0.751198 0.751198 0.500000
#
# Coordination Sequence:
#
# PCOD8328292 Si02
#       7
#    12  12  12  12  24  24  12
#     4  10  20  32  46  61  80 105 130 165 213 256
#     4   9  14  23  35  49  75 105 137 169 195 221
#     4  10  18  27  38  56  78  97 129 171 208 241
#     4   9  14  22  35  51  68  95 131 158 191 229
#     4   9  16  23  35  52  73 104 134 166 201 225
#     4  10  19  31  46  63  81 102 126 157 206 262
#     4   9  17  27  41  60  81 100 125 163 200 238
#
# _framework density 14.328359000000001
#
# number of rings (size 3 to 8) (size 9 to 14) (size 15 to 20)
#    0.000    2.556    1.111    2.667    0.000    4.000 
#    0.000    2.222    0.000    0.222    0.000    0.000 
#    0.000    5.333    0.000    0.000    0.000    0.889 
#
# Total GULP energy -1338872.526738 kJ/mol
# GULP energy per Si atom -12396.967840 kJ/mol
# Density = 1.429575 g / cm^3
# Si number density = 14.328359 Si / 1000 Ang^3
#
#
#
# Elastic Constant Matrix: (Units=GPa)
#
#
# Indices 1 2 3 4 5 6 
#
# 1 69.6503 35.2319 32.6262 0.0000 0.0000 0.0000
# 2 35.2319 69.6503 32.6262 0.0000 0.0000 0.0000
# 3 32.6262 32.6262 125.0262 0.0000 0.0000 0.0000
# 4 0.0000 0.0000 0.0000 17.5571 0.0000 0.0000
# 5 0.0000 0.0000 0.0000 0.0000 17.5571 0.0000
# 6 0.0000 0.0000 0.0000 0.0000 0.0000 17.2092
#
#
#
# Elastic Compliance Matrix: (Units=1/GPa)
#
#
# Indices 1 2 3 4 5 6 
#
# 1 0.020218 -0.008836 -0.002970 0.000000 0.000000 0.000000
# 2 -0.008836 0.020218 -0.002970 0.000000 0.000000 0.000000
# 3 -0.002970 -0.002970 0.009549 0.000000 0.000000 0.000000
# 4 0.000000 0.000000 0.000000 0.056957 0.000000 0.000000
# 5 0.000000 0.000000 0.000000 0.000000 0.056957 0.000000
# 6 0.000000 0.000000 0.000000 0.000000 0.000000 0.058108
#
#
# Mechanical properties :
#
#
# Convention : Reuss Voigt Hill
#
# Bulk Modulus (GPa) = 48.94220 51.69951 50.32086
# Shear Modulus (GPa) = 19.35196 21.38750 20.36973
#
# Velocity S-wave (km/s) = 3.67905 3.86770 3.77455
# Velocity P-wave (km/s) = 7.23041 7.49038 7.36154
#
# Compressibility (1/GPa) = 0.02043226
#
# Stress axis : x y z
#
# Youngs Moduli (GPa) = 49.46000 49.46000 104.72780
#
# Poissons Ratio (x) = 0.43702 0.31108
# Poissons Ratio (y) = 0.43702 0.31108
# Poissons Ratio (z) = 0.14691 0.14691
#
# Static dielectric constant tensor:
#      x y z
#    x 2.579920 0.000000 0.000000 
#    y 0.000000 2.579920 0.000000 
#    z 0.000000 0.000000 3.077610 
# 
# 
# High freq. dielectric constant tensor:
#      x y z
#    x 1.509720 0.000000 0.000000 
#    y 0.000000 1.509720 0.000000 
#    z 0.000000 0.000000 1.569510 
# 
# From -- ./inp_files/1798.got.cif
#   From: 2010.03.12/outbox.cif.g09.slc.cpg/sg191_1_cif.got.tgz:1798.got - 2010.04.01 12:09:02.
