data_PCOD8328455
_publ_section_title
;
Structure prediction by ZEFSAII (Michael W. Deem and Ramdas Pophale) SiO2 
 PCOD8328455
Probable space group: P 6/M M M
;
_chemical_formula_sum "Si O2"
_cell_formula_units_Z 84
_cell_length_a 22.417748
_cell_length_b 22.417748
_cell_length_c 12.531471
_cell_angle_alpha 90.000000
_cell_angle_beta 90.000000
_cell_angle_gamma 120.000000
_cell_volume 5454.019055
_symmetry_space_group_name_H-M "P 6/M M M"
_symmetry_group_IT_number 191
_symmetry_cell_setting 'hexagonal'
loop_
_space_group_symop_operation_xyz
x,y,z
x-y,x,z
-y,x-y,z
-x,-y,z
-x+y,-x,z
y,-x+y,z
x-y,-y,-z
-x,-x+y,-z
y,x,-z
-y,-x,-z
-x+y,y,-z
x,x-y,-z
-x,-y,-z
-x+y,-x,-z
y,-x+y,-z
x,y,-z
x-y,x,-z
-y,x-y,-z
-x+y,y,z
x,x-y,z
-y,-x,z
y,x,z
x-y,-y,z
-x,-x+y,z
loop_
_atom_site_type_symbol
_atom_site_label
_atom_site_fract_x
_atom_site_fract_y
_atom_site_fract_z
Si Si1 0.470273 0.666644 0.120757
Si Si2 0.079078 0.468937 0.500000
Si Si3 0.850880 0.565206 0.313522
Si Si4 0.208533 0.285194 0.623329
O O1 0.447041 0.723521 0.131313
O O2 0.405824 0.594177 0.155187
O O3 0.534345 0.684251 0.197464
O O4 0.493703 0.663908 0.000000
O O5 0.080003 0.540002 0.500000
O O6 0.119773 0.467386 0.396541
O O7 0.000000 0.405633 0.500000
O O8 0.774390 0.548780 0.348447
O O9 0.901123 0.647330 0.305717
O O10 0.227007 0.308140 0.500000
O O11 0.127309 0.254617 0.644430
O O12 0.226175 0.226175 0.654575
#
# Coordination Sequence:
#
# PCOD8328455 Si02
#       4
#    24  12  24  24
#     4   9  17  29  45  63  84 113 150 191 233 275
#     4  11  21  30  42  60  84 115 147 179 218 264
#     4  10  18  29  45  64  86 111 144 185 224 261
#     4   9  16  27  45  67  89 112 139 172 209 252
#
# _framework density 15.401484999999999
#
# number of rings (size 3 to 8) (size 9 to 14) (size 15 to 20)
#    0.000    2.429    1.429    2.429    0.000    1.143 
#    0.000    0.000    0.000    7.714    0.000   12.000 
#    0.000    0.000    0.000    0.000    0.000    0.000 
#
# Total GULP energy -1041459.851793 kJ/mol
# GULP energy per Si atom -12398.331569 kJ/mol
# Density = 1.536643 g / cm^3
# Si number density = 15.401485 Si / 1000 Ang^3
#
#
#
# Elastic Constant Matrix: (Units=GPa)
#
#
# Indices 1 2 3 4 5 6 
#
# 1 100.5344 58.4954 50.8132 0.0000 0.0000 0.0000
# 2 58.4954 100.5344 50.8132 0.0000 0.0000 0.0000
# 3 50.8132 50.8132 80.2749 0.0000 0.0000 0.0000
# 4 0.0000 0.0000 0.0000 15.6481 0.0000 0.0000
# 5 0.0000 0.0000 0.0000 0.0000 15.6481 0.0000
# 6 0.0000 0.0000 0.0000 0.0000 0.0000 21.0195
#
#
#
# Elastic Compliance Matrix: (Units=1/GPa)
#
#
# Indices 1 2 3 4 5 6 
#
# 1 0.017173 -0.006614 -0.006684 0.000000 0.000000 0.000000
# 2 -0.006614 0.017173 -0.006684 0.000000 0.000000 0.000000
# 3 -0.006684 -0.006684 0.020919 0.000000 0.000000 0.000000
# 4 0.000000 0.000000 0.000000 0.063906 0.000000 0.000000
# 5 0.000000 0.000000 0.000000 0.000000 0.063906 0.000000
# 6 0.000000 0.000000 0.000000 0.000000 0.000000 0.047575
#
#
# Mechanical properties :
#
#
# Convention : Reuss Voigt Hill
#
# Bulk Modulus (GPa) = 65.35159 66.84305 66.09732
# Shear Modulus (GPa) = 18.13456 18.54461 18.33959
#
# Velocity S-wave (km/s) = 3.43513 3.47375 3.45449
# Velocity P-wave (km/s) = 7.63267 7.71906 7.67598
#
# Compressibility (1/GPa) = 0.01530185
#
# Stress axis : x y z
#
# Youngs Moduli (GPa) = 58.22940 58.22940 47.80320
#
# Poissons Ratio (x) = 0.38513 0.31952
# Poissons Ratio (y) = 0.38513 0.31952
# Poissons Ratio (z) = 0.38921 0.38921
#
# Static dielectric constant tensor:
#      x y z
#    x 2.959960 0.000000 0.000000 
#    y 0.000000 2.959960 0.000000 
#    z 0.000000 0.000000 2.888430 
# 
# 
# High freq. dielectric constant tensor:
#      x y z
#    x 1.584950 0.000000 0.000000 
#    y 0.000000 1.584950 0.000000 
#    z 0.000000 0.000000 1.569480 
# 
# From -- ./inp_files/2413.got.cif
#   From: 2010.03.12/outbox.cif.g09.slc.cpg/sg191_2_cif.got.tgz:2413.got - 2010.04.01 12:09:02.
