data_PCOD8328262
_publ_section_title
;
Structure prediction by ZEFSAII (Michael W. Deem and Ramdas Pophale) SiO2 
 PCOD8328262
Probable space group: P 6/M M M
;
_chemical_formula_sum "Si O2"
_cell_formula_units_Z 192
_cell_length_a 23.100556
_cell_length_b 23.100556
_cell_length_c 28.201163
_cell_angle_alpha 90.000000
_cell_angle_beta 90.000000
_cell_angle_gamma 120.000000
_cell_volume 13032.943613
_symmetry_space_group_name_H-M "P 6/M M M"
_symmetry_group_IT_number 191
_symmetry_cell_setting 'hexagonal'
loop_
_space_group_symop_operation_xyz
x,y,z
x-y,x,z
-y,x-y,z
-x,-y,z
-x+y,-x,z
y,-x+y,z
x-y,-y,-z
-x,-x+y,-z
y,x,-z
-y,-x,-z
-x+y,y,-z
x,x-y,-z
-x,-y,-z
-x+y,-x,-z
y,-x+y,-z
x,y,-z
x-y,x,-z
-y,x-y,-z
-x+y,y,z
x,x-y,z
-y,-x,z
y,x,z
x-y,-y,z
-x,-x+y,z
loop_
_atom_site_type_symbol
_atom_site_label
_atom_site_fract_x
_atom_site_fract_y
_atom_site_fract_z
Si Si1 0.203234 0.276574 0.630017
Si Si2 0.799442 0.464849 0.050123
Si Si3 0.528486 0.924950 0.694011
Si Si4 0.716042 0.923468 0.261316
Si Si5 0.077483 0.602874 0.583806
Si Si6 0.569727 0.718365 0.764884
Si Si7 0.257386 0.383608 0.447287
Si Si8 0.334054 0.803561 0.846871
O O1 0.126629 0.253258 0.617918
O O2 0.211864 0.211864 0.624842
O O3 0.222580 0.305480 0.683344
O O4 0.252718 0.331879 0.592758
O O5 0.739268 0.478535 0.046806
O O6 0.771219 0.385610 0.052572
O O7 0.836690 0.494847 0.100349
O O8 0.841576 0.493585 0.000000
O O9 0.459309 0.918617 0.710891
O O10 0.525639 0.908179 0.639096
O O11 0.539576 0.871658 0.721676
O O12 0.588680 0.000000 0.704539
O O13 0.743749 0.871875 0.251089
O O14 0.649559 0.902195 0.230150
O O15 0.772660 0.000000 0.248717
O O16 0.098858 0.549429 0.567094
O O17 0.120985 0.670793 0.555061
O O18 0.000000 0.574486 0.572453
O O19 0.555826 0.777913 0.752647
O O20 0.531292 0.680737 0.812781
O O21 0.247332 0.351817 0.500000
O O22 0.202582 0.405163 0.436881
O O23 0.402231 0.804461 0.831742
O O24 0.273150 0.726851 0.845967
#
# Coordination Sequence:
#
# PCOD8328262 Si02
#       8
#    24  24  24  24  24  24  24  24
#     4   9  17  29  45  64  85 108 131 153 179 214
#     4   8  12  18  29  44  62  88 126 171 214 250
#     4   9  17  29  43  57  75  99 127 160 194 227
#     4   9  17  29  45  63  82 104 128 153 182 219
#     4   9  18  31  46  63  79  96 121 155 196 236
#     4  10  18  25  36  56  80 105 131 159 193 232
#     4  10  20  31  43  61  83 104 126 154 189 228
#     4   9  16  24  33  47  71 103 138 175 213 248
#
# _framework density 14.731897999999999
#
# number of rings (size 3 to 8) (size 9 to 14) (size 15 to 20)
#    0.000    2.875    0.000    2.875    0.000    6.250 
#    0.000    0.625    0.000    0.750    0.000    1.750 
#    0.000    2.000    0.000   17.750    0.000    6.625 
#
# Total GULP energy -2378707.299794 kJ/mol
# GULP energy per Si atom -12389.100520 kJ/mol
# Density = 1.469837 g / cm^3
# Si number density = 14.731898 Si / 1000 Ang^3
#
#
#
# Elastic Constant Matrix: (Units=GPa)
#
#
# Indices 1 2 3 4 5 6 
#
# 1 69.9399 35.1316 36.0489 0.0000 0.0000 0.0000
# 2 35.1316 69.9399 36.0489 0.0000 0.0000 0.0000
# 3 36.0489 36.0489 57.3364 0.0000 0.0000 0.0000
# 4 0.0000 0.0000 0.0000 11.8763 0.0000 0.0000
# 5 0.0000 0.0000 0.0000 0.0000 11.8763 0.0000
# 6 0.0000 0.0000 0.0000 0.0000 0.0000 17.4042
#
#
#
# Elastic Compliance Matrix: (Units=1/GPa)
#
#
# Indices 1 2 3 4 5 6 
#
# 1 0.022734 -0.005995 -0.010524 0.000000 0.000000 0.000000
# 2 -0.005995 0.022734 -0.010524 0.000000 0.000000 0.000000
# 3 -0.010524 -0.010524 0.030674 0.000000 0.000000 0.000000
# 4 0.000000 0.000000 0.000000 0.084201 0.000000 0.000000
# 5 0.000000 0.000000 0.000000 0.000000 0.084201 0.000000
# 6 0.000000 0.000000 0.000000 0.000000 0.000000 0.057458
#
#
# Mechanical properties :
#
#
# Convention : Reuss Voigt Hill
#
# Bulk Modulus (GPa) = 45.33998 45.74169 45.54083
# Shear Modulus (GPa) = 13.75740 14.23046 13.99393
#
# Velocity S-wave (km/s) = 3.05921 3.11137 3.08540
# Velocity P-wave (km/s) = 6.58194 6.63508 6.60856
#
# Compressibility (1/GPa) = 0.02205559
#
# Stress axis : x y z
#
# Youngs Moduli (GPa) = 43.98748 43.98748 32.60037
#
# Poissons Ratio (x) = 0.26371 0.34309
# Poissons Ratio (y) = 0.26371 0.34309
# Poissons Ratio (z) = 0.46293 0.46293
#
# Static dielectric constant tensor:
#      x y z
#    x 2.742600 0.000000 0.000000 
#    y 0.000000 2.742600 0.000000 
#    z 0.000000 0.000000 3.088130 
# 
# 
# High freq. dielectric constant tensor:
#      x y z
#    x 1.542240 0.000000 0.000000 
#    y 0.000000 1.542240 0.000000 
#    z 0.000000 0.000000 1.559220 
# 
# From -- ./inp_files/10172.got.cif
#   From: 2010.03.12/outbox.cif.g09.slc.cpg/sg191_6_cif.got.tgz:10172.got - 2010.04.01 12:09:02.
