data_PCOD8328114
_publ_section_title
;
Structure prediction by ZEFSAII (Michael W. Deem and Ramdas Pophale) SiO2 
 PCOD8328114
Probable space group: P -6 2 C
;
_chemical_formula_sum "Si O2"
_cell_formula_units_Z 76
_cell_length_a 18.189244
_cell_length_b 18.189244
_cell_length_c 14.412144
_cell_angle_alpha 90.000000
_cell_angle_beta 90.000000
_cell_angle_gamma 120.000000
_cell_volume 4129.414916
_symmetry_space_group_name_H-M "P -6 2 C"
_symmetry_group_IT_number 190
_symmetry_cell_setting 'hexagonal'
loop_
_space_group_symop_operation_xyz
x,y,z
-x+y,-x,1/2-z
-y,x-y,z
x,y,1/2-z
-x+y,-x,z
-y,x-y,1/2-z
x-y,-y,-z
-x,-x+y,-z
y,x,-z
y,x,1/2+z
x-y,-y,1/2+z
-x,-x+y,1/2+z
loop_
_atom_site_type_symbol
_atom_site_label
_atom_site_fract_x
_atom_site_fract_y
_atom_site_fract_z
Si Si1 0.160248 0.996364 0.148788
Si Si2 0.331193 0.283174 0.642449
Si Si3 0.825428 0.131019 0.145592
Si Si4 0.000000 0.000000 0.107923
Si Si5 0.510651 0.691398 0.139615
Si Si6 0.196420 0.873240 0.454234
Si Si7 0.360283 0.518078 0.141497
O O1 0.177244 0.968447 0.250000
O O2 0.208124 0.099095 0.142205
O O3 0.061062 0.965280 0.141998
O O4 0.194632 0.959443 0.068070
O O5 0.326272 0.258907 0.750000
O O6 0.265437 0.315194 0.619422
O O7 0.306671 0.199323 0.585854
O O8 0.428465 0.355411 0.617130
O O9 0.820503 0.164315 0.250000
O O10 0.851967 0.200845 0.063568
O O11 0.000000 0.000000 0.000000
O O12 0.520364 0.692277 0.250000
O O13 0.601786 0.720356 0.094293
O O14 0.443986 0.598363 0.098761
O O15 0.482247 0.758324 0.105924
O O16 0.366426 0.534135 0.250000
#
# Coordination Sequence:
#
# PCOD8328114 Si02
#       7
#    12  12  12   4  12  12  12
#     4  11  22  35  49  68  95 127 165 208 249 287
#     4   9  17  30  48  72 100 132 167 203 244 292
#     4  10  21  34  48  65  92 132 174 209 240 282
#     4  12  22  32  46  66  94 131 170 206 235 270
#     4   9  16  27  48  79 107 129 152 190 248 308
#     4  11  19  31  49  71  97 128 163 205 251 298
#     4   8  14  25  44  73 108 133 153 189 243 303
#
# _framework density 18.404543
#
# number of rings (size 3 to 8) (size 9 to 14) (size 15 to 20)
#    0.000    2.211    0.000    6.000    0.000    2.526 
#    0.000    0.000    0.000    7.579    0.000    8.842 
#    0.000    0.000    0.000    0.947    0.000   20.684 
#
# Total GULP energy -941596.685714 kJ/mol
# GULP energy per Si atom -12389.430075 kJ/mol
# Density = 1.836265 g / cm^3
# Si number density = 18.404543 Si / 1000 Ang^3
#
#
#
# Elastic Constant Matrix: (Units=GPa)
#
#
# Indices 1 2 3 4 5 6 
#
# 1 97.3486 47.5227 29.5653 0.0000 0.0000 0.0000
# 2 47.5227 97.3486 29.5653 0.0000 0.0000 0.0000
# 3 29.5653 29.5653 81.3475 0.0000 0.0000 0.0000
# 4 0.0000 0.0000 0.0000 15.8907 0.0000 0.0000
# 5 0.0000 0.0000 0.0000 0.0000 15.8907 0.0000
# 6 0.0000 0.0000 0.0000 0.0000 0.0000 24.9129
#
#
#
# Elastic Compliance Matrix: (Units=1/GPa)
#
#
# Indices 1 2 3 4 5 6 
#
# 1 0.014087 -0.005982 -0.002946 0.000000 0.000000 0.000000
# 2 -0.005982 0.014087 -0.002946 0.000000 0.000000 0.000000
# 3 -0.002946 -0.002946 0.014434 0.000000 0.000000 0.000000
# 4 0.000000 0.000000 0.000000 0.062930 0.000000 0.000000
# 5 0.000000 0.000000 0.000000 0.000000 0.062930 0.000000
# 6 0.000000 0.000000 0.000000 0.000000 0.000000 0.040140
#
#
# Mechanical properties :
#
#
# Convention : Reuss Voigt Hill
#
# Bulk Modulus (GPa) = 53.01864 54.37235 53.69549
# Shear Modulus (GPa) = 20.95173 22.63160 21.79167
#
# Velocity S-wave (km/s) = 3.37768 3.51048 3.44472
# Velocity P-wave (km/s) = 6.63939 6.78515 6.71267
#
# Compressibility (1/GPa) = 0.01886129
#
# Stress axis : x y z
#
# Youngs Moduli (GPa) = 70.98517 70.98517 69.28011
#
# Poissons Ratio (x) = 0.42467 0.20408
# Poissons Ratio (y) = 0.42467 0.20408
# Poissons Ratio (z) = 0.20910 0.20910
#
# Static dielectric constant tensor:
#      x y z
#    x 3.337470 0.000000 0.000000 
#    y 0.000000 3.337470 0.000000 
#    z 0.000000 0.000000 3.480540 
# 
# 
# High freq. dielectric constant tensor:
#      x y z
#    x 1.690660 0.000000 0.000000 
#    y 0.000000 1.690660 0.000000 
#    z 0.000000 0.000000 1.706670 
# 
# From -- ./inp_files/3085.got.cif
#   From: 2010.06.25/outbox.cif.g09.slc.cpg/sg190_2_cif.got.tgz:3085.got - 2010.06.28 13:08:06.
