data_PCOD8328276
_publ_section_title
;
Structure prediction by ZEFSAII (Michael W. Deem and Ramdas Pophale) SiO2 
 PCOD8328276
Probable space group: P 6/M M M
;
_chemical_formula_sum "Si O2"
_cell_formula_units_Z 132
_cell_length_a 17.775684
_cell_length_b 17.775684
_cell_length_c 28.899661
_cell_angle_alpha 90.000000
_cell_angle_beta 90.000000
_cell_angle_gamma 120.000000
_cell_volume 7908.170469
_symmetry_space_group_name_H-M "P 6/M M M"
_symmetry_group_IT_number 191
_symmetry_cell_setting 'hexagonal'
loop_
_space_group_symop_operation_xyz
x,y,z
x-y,x,z
-y,x-y,z
-x,-y,z
-x+y,-x,z
y,-x+y,z
x-y,-y,-z
-x,-x+y,-z
y,x,-z
-y,-x,-z
-x+y,y,-z
x,x-y,-z
-x,-y,-z
-x+y,-x,-z
y,-x+y,-z
x,y,-z
x-y,x,-z
-y,x-y,-z
-x+y,y,z
x,x-y,z
-y,-x,z
y,x,z
x-y,-y,z
-x,-x+y,z
loop_
_atom_site_type_symbol
_atom_site_label
_atom_site_fract_x
_atom_site_fract_y
_atom_site_fract_z
Si Si1 0.330661 0.497862 0.356123
Si Si2 0.466820 0.101207 0.739618
Si Si3 0.510060 0.841658 0.088439
Si Si4 0.269219 0.899669 0.825820
Si Si5 0.727713 0.099275 0.000000
Si Si6 0.363041 0.897863 0.450480
O O1 0.270623 0.541246 0.351302
O O2 0.431334 0.568667 0.358400
O O3 0.317417 0.440344 0.310377
O O4 0.303996 0.442523 0.404217
O O5 0.572256 0.144511 0.743847
O O6 0.428316 0.134218 0.779687
O O7 0.425577 0.000000 0.745340
O O8 0.426277 0.852553 0.086656
O O9 0.479585 0.739793 0.090195
O O10 0.567018 0.891795 0.132841
O O11 0.568975 0.886696 0.044112
O O12 0.165393 0.834608 0.833881
O O13 0.291199 0.000000 0.822203
O O14 0.832005 0.167996 0.000000
O O15 0.709632 0.000000 0.000000
O O16 0.311197 0.867027 0.500000
O O17 0.432404 0.864807 0.450358
O O18 0.410543 0.000000 0.447648
#
# Coordination Sequence:
#
# PCOD8328276 Si02
#       6
#    24  24  24  24  12  24
#     4  10  18  26  36  52  76 103 129 158 195 240
#     4   9  17  29  45  63  82 107 140 175 209 248
#     4  10  20  33  50  73 101 131 160 190 225 266
#     4  10  20  33  49  69  92 118 149 186 227 268
#     4  10  21  35  51  72  97 127 162 200 241 281
#     4   8  14  25  39  51  63  85 121 162 199 234
#
# _framework density 16.691597000000002
#
# number of rings (size 3 to 8) (size 9 to 14) (size 15 to 20)
#    0.000    2.545    0.000    3.364    0.000    5.091 
#    0.000    0.909    0.000    7.182    0.000    0.000 
#    0.000    4.364    0.000    0.000    0.000    0.364 
#
# Total GULP energy -1635294.773370 kJ/mol
# GULP energy per Si atom -12388.596768 kJ/mol
# Density = 1.665361 g / cm^3
# Si number density = 16.691597 Si / 1000 Ang^3
#
#
#
# Elastic Constant Matrix: (Units=GPa)
#
#
# Indices 1 2 3 4 5 6 
#
# 1 63.7803 36.7765 30.6449 0.0000 0.0000 0.0000
# 2 36.7765 63.7803 30.6449 0.0000 0.0000 0.0000
# 3 30.6449 30.6449 153.9302 0.0000 0.0000 0.0000
# 4 0.0000 0.0000 0.0000 22.4519 0.0000 0.0000
# 5 0.0000 0.0000 0.0000 0.0000 22.4519 0.0000
# 6 0.0000 0.0000 0.0000 0.0000 0.0000 13.5019
#
#
#
# Elastic Compliance Matrix: (Units=1/GPa)
#
#
# Indices 1 2 3 4 5 6 
#
# 1 0.024175 -0.012857 -0.002253 0.000000 0.000000 0.000000
# 2 -0.012857 0.024175 -0.002253 0.000000 0.000000 0.000000
# 3 -0.002253 -0.002253 0.007394 0.000000 0.000000 0.000000
# 4 0.000000 0.000000 0.000000 0.044540 0.000000 0.000000
# 5 0.000000 0.000000 0.000000 0.000000 0.044540 0.000000
# 6 0.000000 0.000000 0.000000 0.000000 0.000000 0.074064
#
#
# Mechanical properties :
#
#
# Convention : Reuss Voigt Hill
#
# Bulk Modulus (GPa) = 47.58120 53.06923 50.32522
# Shear Modulus (GPa) = 19.18512 23.90946 21.54729
#
# Velocity S-wave (km/s) = 3.39394 3.78884 3.59682
# Velocity P-wave (km/s) = 6.62770 7.14167 6.88948
#
# Compressibility (1/GPa) = 0.02101670
#
# Stress axis : x y z
#
# Youngs Moduli (GPa) = 41.36520 41.36520 135.25206
#
# Poissons Ratio (x) = 0.53183 0.30475
# Poissons Ratio (y) = 0.53183 0.30475
# Poissons Ratio (z) = 0.09320 0.09320
#
# Static dielectric constant tensor:
#      x y z
#    x 2.883640 0.000000 0.000000 
#    y 0.000000 2.883640 0.000000 
#    z 0.000000 0.000000 3.734050 
# 
# 
# High freq. dielectric constant tensor:
#      x y z
#    x 1.606690 0.000000 0.000000 
#    y 0.000000 1.606690 0.000000 
#    z 0.000000 0.000000 1.679020 
# 
# From -- ./inp_files/9806.got.cif
#   From: 2010.03.12/outbox.cif.g09.slc.cpg/sg191_5_cif.got.tgz:9806.got - 2010.04.01 12:09:02.
