data_PCOD8328578
_publ_section_title
;
Structure prediction by ZEFSAII (Michael W. Deem and Ramdas Pophale) SiO2 
 PCOD8328578
Probable space group: P 6/M M M
;
_chemical_formula_sum "Si O2"
_cell_formula_units_Z 108
_cell_length_a 22.912543
_cell_length_b 22.912543
_cell_length_c 15.139923
_cell_angle_alpha 90.000000
_cell_angle_beta 90.000000
_cell_angle_gamma 120.000000
_cell_volume 6883.366345
_symmetry_space_group_name_H-M "P 6/M M M"
_symmetry_group_IT_number 191
_symmetry_cell_setting 'hexagonal'
loop_
_space_group_symop_operation_xyz
x,y,z
x-y,x,z
-y,x-y,z
-x,-y,z
-x+y,-x,z
y,-x+y,z
x-y,-y,-z
-x,-x+y,-z
y,x,-z
-y,-x,-z
-x+y,y,-z
x,x-y,-z
-x,-y,-z
-x+y,-x,-z
y,-x+y,-z
x,y,-z
x-y,x,-z
-y,x-y,-z
-x+y,y,z
x,x-y,z
-y,-x,z
y,x,z
x-y,-y,z
-x,-x+y,z
loop_
_atom_site_type_symbol
_atom_site_label
_atom_site_fract_x
_atom_site_fract_y
_atom_site_fract_z
Si Si1 0.529491 0.606187 0.899408
Si Si2 0.077376 0.789199 0.692717
Si Si3 0.729298 0.927339 0.500000
Si Si4 0.149208 0.433594 0.243960
Si Si5 0.531152 0.197845 0.399615
O O1 0.453214 0.546787 0.890656
O O2 0.579974 0.579974 0.869367
O O3 0.538097 0.666440 0.838575
O O4 0.545094 0.632152 0.000000
O O5 0.131034 0.868967 0.711419
O O6 0.084489 0.771332 0.590031
O O7 0.096407 0.742356 0.749496
O O8 0.000000 0.770145 0.714318
O O9 0.763192 0.881596 0.500000
O O10 0.794358 0.000000 0.500000
O O11 0.223481 0.446962 0.224633
O O12 0.148918 0.471154 0.334033
O O13 0.507518 0.173195 0.500000
O O14 0.596784 0.193568 0.374879
O O15 0.549763 0.274882 0.388193
#
# Coordination Sequence:
#
# PCOD8328578 Si02
#       5
#    24  24  12  24  24
#     4   9  18  33  51  66  82 111 149 185 221 263
#     4   9  17  28  43  63  87 115 145 177 216 260
#     4   8  14  24  38  55  77 107 139 169 201 245
#     4  10  19  28  44  68  91 115 142 180 226 266
#     4   9  17  28  42  60  85 118 153 185 216 254
#
# _framework density 15.689997999999999
#
# number of rings (size 3 to 8) (size 9 to 14) (size 15 to 20)
#    0.000    2.889    0.000    2.222    1.556    1.333 
#    0.000    0.000    0.000    0.778    0.000    7.778 
#    0.000    0.000    0.000    0.000    0.000    0.000 
#
# Total GULP energy -1338270.987007 kJ/mol
# GULP energy per Si atom -12391.398028 kJ/mol
# Density = 1.565429 g / cm^3
# Si number density = 15.689998 Si / 1000 Ang^3
#
#
#
# Elastic Constant Matrix: (Units=GPa)
#
#
# Indices 1 2 3 4 5 6 
#
# 1 77.7085 43.6364 43.0588 0.0000 0.0000 0.0000
# 2 43.6364 77.7085 43.0588 0.0000 0.0000 0.0000
# 3 43.0588 43.0588 76.4562 0.0000 0.0000 0.0000
# 4 0.0000 0.0000 0.0000 23.8028 0.0000 0.0000
# 5 0.0000 0.0000 0.0000 0.0000 23.8028 0.0000
# 6 0.0000 0.0000 0.0000 0.0000 0.0000 17.0361
#
#
#
# Elastic Compliance Matrix: (Units=1/GPa)
#
#
# Indices 1 2 3 4 5 6 
#
# 1 0.021539 -0.007811 -0.007731 0.000000 0.000000 0.000000
# 2 -0.007811 0.021539 -0.007731 0.000000 0.000000 0.000000
# 3 -0.007731 -0.007731 0.021788 0.000000 0.000000 0.000000
# 4 0.000000 0.000000 0.000000 0.042012 0.000000 0.000000
# 5 0.000000 0.000000 0.000000 0.000000 0.042012 0.000000
# 6 0.000000 0.000000 0.000000 0.000000 0.000000 0.058699
#
#
# Mechanical properties :
#
#
# Convention : Reuss Voigt Hill
#
# Bulk Modulus (GPa) = 54.59062 54.59792 54.59427
# Shear Modulus (GPa) = 19.21298 19.73626 19.47462
#
# Velocity S-wave (km/s) = 3.50313 3.55052 3.52691
# Velocity P-wave (km/s) = 7.15761 7.18900 7.17332
#
# Compressibility (1/GPa) = 0.01831816
#
# Stress axis : x y z
#
# Youngs Moduli (GPa) = 46.42813 46.42813 45.89764
#
# Poissons Ratio (x) = 0.36264 0.35485
# Poissons Ratio (y) = 0.36264 0.35485
# Poissons Ratio (z) = 0.35895 0.35895
#
# Static dielectric constant tensor:
#      x y z
#    x 2.907000 0.000000 0.000000 
#    y 0.000000 2.907000 0.000000 
#    z 0.000000 0.000000 2.921290 
# 
# 
# High freq. dielectric constant tensor:
#      x y z
#    x 1.592160 0.000000 0.000000 
#    y 0.000000 1.592160 0.000000 
#    z 0.000000 0.000000 1.592370 
# 
# From -- ./inp_files/2904.got.cif
#   From: 2010.03.12/outbox.cif.g09.slc.cpg/sg191_2_cif.got.tgz:2904.got - 2010.04.01 12:09:02.
