data_PCOD8328325
_publ_section_title
;
Structure prediction by ZEFSAII (Michael W. Deem and Ramdas Pophale) SiO2 
 PCOD8328325
Probable space group: P 6/M M M
;
_chemical_formula_sum "Si O2"
_cell_formula_units_Z 132
_cell_length_a 18.120521
_cell_length_b 18.120521
_cell_length_c 28.490566
_cell_angle_alpha 90.000000
_cell_angle_beta 90.000000
_cell_angle_gamma 120.000000
_cell_volume 8101.642393
_symmetry_space_group_name_H-M "P 6/M M M"
_symmetry_group_IT_number 191
_symmetry_cell_setting 'hexagonal'
loop_
_space_group_symop_operation_xyz
x,y,z
x-y,x,z
-y,x-y,z
-x,-y,z
-x+y,-x,z
y,-x+y,z
x-y,-y,-z
-x,-x+y,-z
y,x,-z
-y,-x,-z
-x+y,y,-z
x,x-y,-z
-x,-y,-z
-x+y,-x,-z
y,-x+y,-z
x,y,-z
x-y,x,-z
-y,x-y,-z
-x+y,y,z
x,x-y,z
-y,-x,z
y,x,z
x-y,-y,z
-x,-x+y,z
loop_
_atom_site_type_symbol
_atom_site_label
_atom_site_fract_x
_atom_site_fract_y
_atom_site_fract_z
Si Si1 0.631718 0.099853 0.866082
Si Si2 0.642401 0.738690 0.946406
Si Si3 0.899145 0.633099 0.220864
Si Si4 0.500175 0.669055 0.404609
Si Si5 0.634157 0.534577 0.500000
Si Si6 0.467362 0.367621 0.692058
O O1 0.571438 0.142876 0.863840
O O2 0.684885 0.125857 0.914480
O O3 0.696156 0.127604 0.822695
O O4 0.570559 0.000000 0.863844
O O5 0.679421 0.839711 0.938223
O O6 0.716694 0.716694 0.933370
O O7 0.612619 0.713262 0.000000
O O8 0.837519 0.675038 0.219604
O O9 0.873389 0.573758 0.266617
O O10 0.000000 0.706319 0.219895
O O11 0.459204 0.729602 0.403441
O O12 0.429110 0.570890 0.405283
O O13 0.556533 0.689877 0.452219
O O14 0.554513 0.683753 0.357243
O O15 0.589707 0.589707 0.500000
O O16 0.566421 0.433579 0.500000
O O17 0.570017 0.429984 0.699325
O O18 0.426246 0.426246 0.691473
#
# Coordination Sequence:
#
# PCOD8328325 Si02
#       6
#    24  24  24  24  12  24
#     4   9  17  29  46  67  88 111 142 180 220 263
#     4   9  17  29  46  68  93 122 157 195 232 270
#     4  10  19  31  48  69  92 118 150 186 222 261
#     4  10  18  27  39  56  79 104 131 164 205 251
#     4   9  17  28  40  52  68  95 132 170 202 236
#     4   9  17  29  45  63  83 110 143 177 212 253
#
# _framework density 16.292992999999999
#
# number of rings (size 3 to 8) (size 9 to 14) (size 15 to 20)
#    0.000    2.636    0.000    2.636    0.000    4.727 
#    0.000    2.727    0.000    8.000    0.000    1.273 
#    0.000    4.364    0.000    0.182    0.000    0.000 
#
# Total GULP energy -1635501.552649 kJ/mol
# GULP energy per Si atom -12390.163278 kJ/mol
# Density = 1.625591 g / cm^3
# Si number density = 16.292993 Si / 1000 Ang^3
#
#
#
# Elastic Constant Matrix: (Units=GPa)
#
#
# Indices 1 2 3 4 5 6 
#
# 1 62.0666 37.3557 38.7484 0.0000 0.0000 0.0000
# 2 37.3557 62.0666 38.7484 0.0000 0.0000 0.0000
# 3 38.7484 38.7484 131.0360 0.0000 0.0000 0.0000
# 4 0.0000 0.0000 0.0000 43.1287 0.0000 0.0000
# 5 0.0000 0.0000 0.0000 0.0000 43.1287 0.0000
# 6 0.0000 0.0000 0.0000 0.0000 0.0000 12.3555
#
#
#
# Elastic Compliance Matrix: (Units=1/GPa)
#
#
# Indices 1 2 3 4 5 6 
#
# 1 0.026769 -0.013699 -0.003865 0.000000 0.000000 0.000000
# 2 -0.013699 0.026769 -0.003865 0.000000 0.000000 0.000000
# 3 -0.003865 -0.003865 0.009917 0.000000 0.000000 0.000000
# 4 0.000000 0.000000 0.000000 0.023186 0.000000 0.000000
# 5 0.000000 0.000000 0.000000 0.000000 0.023186 0.000000
# 6 0.000000 0.000000 0.000000 0.000000 0.000000 0.080936
#
#
# Mechanical properties :
#
#
# Convention : Reuss Voigt Hill
#
# Bulk Modulus (GPa) = 48.54714 53.87489 51.21101
# Shear Modulus (GPa) = 20.79099 29.07704 24.93401
#
# Velocity S-wave (km/s) = 3.57609 4.22908 3.91622
# Velocity P-wave (km/s) = 6.84925 7.54883 7.20753
#
# Compressibility (1/GPa) = 0.02059854
#
# Stress axis : x y z
#
# Youngs Moduli (GPa) = 37.35606 37.35606 100.83277
#
# Poissons Ratio (x) = 0.51172 0.38974
# Poissons Ratio (y) = 0.51172 0.38974
# Poissons Ratio (z) = 0.14439 0.14439
#
# Static dielectric constant tensor:
#      x y z
#    x 2.911400 0.000000 0.000000 
#    y 0.000000 2.911400 0.000000 
#    z 0.000000 0.000000 3.525810 
# 
# 
# High freq. dielectric constant tensor:
#      x y z
#    x 1.594260 0.000000 0.000000 
#    y 0.000000 1.594260 0.000000 
#    z 0.000000 0.000000 1.654600 
# 
# From -- ./inp_files/9780.got.cif
#   From: 2010.03.12/outbox.cif.g09.slc.cpg/sg191_5_cif.got.tgz:9780.got - 2010.04.01 12:09:02.
