data_PCOD8328031
_publ_section_title
;
Structure prediction by ZEFSAII (Michael W. Deem and Ramdas Pophale) SiO2 
 PCOD8328031
Probable space group: P -6 2 C
;
_chemical_formula_sum "Si O2"
_cell_formula_units_Z 56
_cell_length_a 13.570457
_cell_length_b 13.570457
_cell_length_c 14.896500
_cell_angle_alpha 90.000000
_cell_angle_beta 90.000000
_cell_angle_gamma 120.000000
_cell_volume 2375.766855
_symmetry_space_group_name_H-M "P -6 2 C"
_symmetry_group_IT_number 190
_symmetry_cell_setting 'hexagonal'
loop_
_space_group_symop_operation_xyz
x,y,z
-x+y,-x,1/2-z
-y,x-y,z
x,y,1/2-z
-x+y,-x,z
-y,x-y,1/2-z
x-y,-y,-z
-x,-x+y,-z
y,x,-z
y,x,1/2+z
x-y,-y,1/2+z
-x,-x+y,1/2+z
loop_
_atom_site_type_symbol
_atom_site_label
_atom_site_fract_x
_atom_site_fract_y
_atom_site_fract_z
Si Si1 0.333335 0.666668 0.642252
Si Si2 0.276758 0.433478 0.143600
Si Si3 0.239032 0.191087 0.356405
Si Si4 0.000000 0.000000 0.142699
Si Si5 0.852898 0.282971 0.150624
Si Si6 0.076250 0.468162 0.409954
O O1 0.333334 0.666668 0.750000
O O2 0.325550 0.773701 0.602125
O O3 0.257267 0.440062 0.250000
O O4 0.269043 0.316302 0.114812
O O5 0.181307 0.444690 0.087562
O O6 0.401413 0.531070 0.116307
O O7 0.234912 0.177613 0.250000
O O8 0.331960 0.162012 0.398251
O O9 0.116965 0.101679 0.396531
O O10 0.000000 0.000000 0.250000
O O11 0.802266 0.244454 0.250000
O O12 0.983231 0.383508 0.161393
O O13 0.000000 0.430699 0.500000
#
# Coordination Sequence:
#
# PCOD8328031 Si02
#       6
#     4  12  12   4  12  12
#     4   9  18  30  54  87 117 150 199 266 349 423
#     4  11  23  44  70  97 133 188 246 298 363 460
#     4   9  18  32  59  92 121 156 211 277 345 419
#     4   9  15  27  48  84 121 146 181 249 328 398
#     4  10  19  36  60  90 126 172 229 295 362 436
#     4  12  27  43  65  98 136 182 241 311 379 442
#
# _framework density 23.571337
#
# number of rings (size 3 to 8) (size 9 to 14) (size 15 to 20)
#    0.000    1.714    0.000    4.929    0.000   10.286 
#    0.000    0.000    0.000    0.000    0.000    0.000 
#    0.000    0.000    0.000    0.000    0.000    0.000 
#
# Total GULP energy -694179.600716 kJ/mol
# GULP energy per Si atom -12396.064298 kJ/mol
# Density = 2.351769 g / cm^3
# Si number density = 23.571337 Si / 1000 Ang^3
#
#
#
# Elastic Constant Matrix: (Units=GPa)
#
#
# Indices 1 2 3 4 5 6 
#
# 1 207.4224 92.0018 10.6941 0.0000 0.0000 0.0000
# 2 92.0018 207.4216 10.6942 -0.0001 0.0000 -0.0002
# 3 10.6941 10.6942 43.9122 0.0000 0.0000 0.0000
# 4 0.0000 -0.0001 0.0000 14.0387 0.0000 0.0000
# 5 0.0000 0.0000 0.0000 0.0000 14.0389 0.0000
# 6 0.0000 -0.0002 0.0000 0.0000 0.0000 57.7098
#
#
#
# Elastic Compliance Matrix: (Units=1/GPa)
#
#
# Indices 1 2 3 4 5 6 
#
# 1 0.006031 -0.002633 -0.000828 0.000000 0.000000 0.000000
# 2 -0.002633 0.006031 -0.000828 0.000000 0.000000 0.000000
# 3 -0.000828 -0.000828 0.023176 0.000000 0.000000 0.000000
# 4 0.000000 0.000000 0.000000 0.071231 0.000000 0.000000
# 5 0.000000 0.000000 0.000000 0.000000 0.071231 0.000000
# 6 0.000000 0.000000 0.000000 0.000000 0.000000 0.017328
#
#
# Mechanical properties :
#
#
# Convention : Reuss Voigt Hill
#
# Bulk Modulus (GPa) = 37.50561 76.17070 56.83815
# Shear Modulus (GPa) = 23.53021 40.18190 31.85605
#
# Velocity S-wave (km/s) = 3.16295 4.13327 3.68023
# Velocity P-wave (km/s) = 5.41157 7.42723 6.49803
#
# Compressibility (1/GPa) = 0.02666268
#
# Stress axis : x y z
#
# Youngs Moduli (GPa) = 165.79833 165.79767 43.14826
#
# Poissons Ratio (x) = 0.43647 0.03572
# Poissons Ratio (y) = 0.43647 0.03572
# Poissons Ratio (z) = 0.13724 0.13724
#
# Static dielectric constant tensor:
#      x y z
#    x 4.505280 0.000000 0.000000 
#    y 0.000000 4.505280 0.000000 
#    z 0.000000 0.000000 3.885660 
# 
# 
# High freq. dielectric constant tensor:
#      x y z
#    x 1.948520 0.000000 0.000000 
#    y 0.000000 1.948520 0.000000 
#    z 0.000000 0.000000 1.905200 
# 
# From -- ./inp_files/3633.got.cif
#   From: 2010.06.25/outbox.cif.g09.slc.cpg/sg190_2_cif.got.tgz:3633.got - 2010.06.28 13:08:06.
