data_PCOD8328804
_publ_section_title
;
Structure prediction by ZEFSAII (Michael W. Deem and Ramdas Pophale) SiO2 
 PCOD8328804
Probable space group: P 6/M M M
;
_chemical_formula_sum "Si O2"
_cell_formula_units_Z 144
_cell_length_a 32.415792
_cell_length_b 32.415792
_cell_length_c 9.157902
_cell_angle_alpha 90.000000
_cell_angle_beta 90.000000
_cell_angle_gamma 120.000000
_cell_volume 8333.739049
_symmetry_space_group_name_H-M "P 6/M M M"
_symmetry_group_IT_number 191
_symmetry_cell_setting 'hexagonal'
loop_
_space_group_symop_operation_xyz
x,y,z
x-y,x,z
-y,x-y,z
-x,-y,z
-x+y,-x,z
y,-x+y,z
x-y,-y,-z
-x,-x+y,-z
y,x,-z
-y,-x,-z
-x+y,y,-z
x,x-y,-z
-x,-y,-z
-x+y,-x,-z
y,-x+y,-z
x,y,-z
x-y,x,-z
-y,x-y,-z
-x+y,y,z
x,x-y,z
-y,-x,z
y,x,z
x-y,-y,z
-x,-x+y,z
loop_
_atom_site_type_symbol
_atom_site_label
_atom_site_fract_x
_atom_site_fract_y
_atom_site_fract_z
Si Si1 0.280814 0.899600 0.171503
Si Si2 0.286055 0.807633 0.829116
Si Si3 0.525285 0.143512 0.671243
Si Si4 0.854184 0.053309 0.831856
Si Si5 0.295226 0.099858 0.669650
Si Si6 0.053375 0.428732 0.667490
O O1 0.272237 0.847488 0.212172
O O2 0.241687 0.907772 0.248210
O O3 0.332084 0.939245 0.230347
O O4 0.278220 0.906153 0.000000
O O5 0.243120 0.756881 0.777441
O O6 0.333636 0.816876 0.747553
O O7 0.295595 0.808452 0.000000
O O8 0.528113 0.152891 0.500000
O O9 0.574333 0.148665 0.730719
O O10 0.483189 0.090316 0.710635
O O11 0.909407 0.090594 0.793512
O O12 0.819212 0.062890 0.732901
O O13 0.843983 0.000000 0.799786
O O14 0.843440 0.058953 0.000000
O O15 0.295768 0.088738 0.500000
O O16 0.307038 0.153519 0.697237
O O17 0.061466 0.419130 0.500000
O O18 0.000000 0.419163 0.691801
#
# Coordination Sequence:
#
# PCOD8328804 Si02
#       6
#    24  24  24  24  24  24
#     4  10  19  31  48  69  96 129 163 199 237 277
#     4   9  18  32  50  72  96 123 156 193 235 284
#     4   9  18  32  50  73  98 123 155 195 238 284
#     4   9  18  33  52  72  94 122 156 192 231 277
#     4  10  20  32  47  69  96 125 158 195 233 275
#     4   9  18  32  48  67  94 128 164 200 237 276
#
# _framework density 17.279160000000001
#
# number of rings (size 3 to 8) (size 9 to 14) (size 15 to 20)
#    0.000    2.667    0.000    1.500    0.000    4.667 
#    0.000    1.667    0.000    0.500    0.000    5.833 
#    0.000    0.000    0.000    4.167    0.000    4.333 
#
# Total GULP energy -1785729.059018 kJ/mol
# GULP energy per Si atom -12400.896243 kJ/mol
# Density = 1.723983 g / cm^3
# Si number density = 17.279160 Si / 1000 Ang^3
#
#
#
# Elastic Constant Matrix: (Units=GPa)
#
#
# Indices 1 2 3 4 5 6 
#
# 1 110.4753 69.1460 41.3102 0.0000 0.0000 0.0000
# 2 69.1460 110.4753 41.3102 0.0000 0.0000 0.0000
# 3 41.3102 41.3102 60.6160 0.0000 0.0000 0.0000
# 4 0.0000 0.0000 0.0000 25.1562 0.0000 0.0000
# 5 0.0000 0.0000 0.0000 0.0000 25.1562 0.0000
# 6 0.0000 0.0000 0.0000 0.0000 0.0000 20.6646
#
#
#
# Elastic Compliance Matrix: (Units=1/GPa)
#
#
# Indices 1 2 3 4 5 6 
#
# 1 0.016153 -0.008043 -0.005527 0.000000 0.000000 0.000000
# 2 -0.008043 0.016153 -0.005527 0.000000 0.000000 0.000000
# 3 -0.005527 -0.005527 0.024030 0.000000 0.000000 0.000000
# 4 0.000000 0.000000 0.000000 0.039752 0.000000 0.000000
# 5 0.000000 0.000000 0.000000 0.000000 0.039752 0.000000
# 6 0.000000 0.000000 0.000000 0.000000 0.000000 0.048392
#
#
# Mechanical properties :
#
#
# Convention : Reuss Voigt Hill
#
# Bulk Modulus (GPa) = 55.11924 65.01105 60.06515
# Shear Modulus (GPa) = 21.88465 22.84876 22.36670
#
# Velocity S-wave (km/s) = 3.56270 3.64033 3.60173
# Velocity P-wave (km/s) = 6.99230 7.44144 7.22036
#
# Compressibility (1/GPa) = 0.01814248
#
# Stress axis : x y z
#
# Youngs Moduli (GPa) = 61.90947 61.90947 41.61453
#
# Poissons Ratio (x) = 0.49796 0.22998
# Poissons Ratio (y) = 0.49796 0.22998
# Poissons Ratio (z) = 0.34215 0.34215
#
# Static dielectric constant tensor:
#      x y z
#    x 3.200640 0.000000 0.000000 
#    y 0.000000 3.200640 0.000000 
#    z 0.000000 0.000000 3.261960 
# 
# 
# High freq. dielectric constant tensor:
#      x y z
#    x 1.657370 0.000000 0.000000 
#    y 0.000000 1.657370 0.000000 
#    z 0.000000 0.000000 1.669410 
# 
# From -- ./inp_files/1935.got.cif
#   From: 2010.03.12/outbox.cif.g09.slc.cpg/sg191_1_cif.got.tgz:1935.got - 2010.04.01 12:09:02.
