data_PCOD8328798
_publ_section_title
;
Structure prediction by ZEFSAII (Michael W. Deem and Ramdas Pophale) SiO2 
 PCOD8328798
Probable space group: P 6/M M M
;
_chemical_formula_sum "Si O2"
_cell_formula_units_Z 192
_cell_length_a 22.633668
_cell_length_b 22.633668
_cell_length_c 25.490629
_cell_angle_alpha 90.000000
_cell_angle_beta 90.000000
_cell_angle_gamma 120.000000
_cell_volume 11308.918291
_symmetry_space_group_name_H-M "P 6/M M M"
_symmetry_group_IT_number 191
_symmetry_cell_setting 'hexagonal'
loop_
_space_group_symop_operation_xyz
x,y,z
x-y,x,z
-y,x-y,z
-x,-y,z
-x+y,-x,z
y,-x+y,z
x-y,-y,-z
-x,-x+y,-z
y,x,-z
-y,-x,-z
-x+y,y,-z
x,x-y,-z
-x,-y,-z
-x+y,-x,-z
y,-x+y,-z
x,y,-z
x-y,x,-z
-y,x-y,-z
-x+y,y,z
x,x-y,z
-y,-x,z
y,x,z
x-y,-y,z
-x,-x+y,z
loop_
_atom_site_type_symbol
_atom_site_label
_atom_site_fract_x
_atom_site_fract_y
_atom_site_fract_z
Si Si1 0.076548 0.285328 0.730770
Si Si2 0.472680 0.805994 0.848740
Si Si3 0.470127 0.078711 0.658008
Si Si4 0.433990 0.147018 0.942003
Si Si5 0.281797 0.206387 0.937601
Si Si6 0.919309 0.595598 0.557557
Si Si7 0.718645 0.924132 0.391270
Si Si8 0.286287 0.849380 0.749112
O O1 0.128640 0.257279 0.743340
O O2 0.078243 0.301998 0.669293
O O3 0.100441 0.356510 0.760629
O O4 0.000000 0.229060 0.748741
O O5 0.401906 0.803812 0.841219
O O6 0.458175 0.729088 0.851892
O O7 0.509453 0.848244 0.901457
O O8 0.522283 0.846770 0.800978
O O9 0.543679 0.087358 0.662750
O O10 0.464188 0.106231 0.600683
O O11 0.463671 0.124540 0.702021
O O12 0.411068 0.000000 0.665717
O O13 0.438215 0.219107 0.945467
O O14 0.357999 0.092710 0.921743
O O15 0.448257 0.127017 0.000000
O O16 0.264690 0.132345 0.914431
O O17 0.227736 0.227736 0.915670
O O18 0.278119 0.201363 0.000000
O O19 0.887520 0.565694 0.500000
O O20 0.897758 0.650403 0.574940
O O21 0.000000 0.632341 0.553948
O O22 0.749110 0.874555 0.402225
O O23 0.776656 0.000000 0.407585
O O24 0.225160 0.774841 0.733457
#
# Coordination Sequence:
#
# PCOD8328798 Si02
#       8
#    24  24  24  24  24  24  24  24
#     4   9  16  28  48  70  93 123 159 197 235 276
#     4  10  20  33  49  70  96 125 157 195 238 282
#     4  10  19  31  48  68  92 121 151 190 240 288
#     4   8  15  29  48  69  93 123 160 199 238 279
#     4   8  13  23  42  66  90 119 156 195 232 272
#     4   9  17  28  42  63  91 120 150 186 231 283
#     4   9  16  27  44  66  92 122 156 193 234 278
#     4  10  19  31  48  68  93 126 162 196 228 272
#
# _framework density 16.977751000000001
#
# number of rings (size 3 to 8) (size 9 to 14) (size 15 to 20)
#    0.000    2.875    1.250    1.625    0.000    0.750 
#    0.000    2.500    0.000    3.250    0.000    4.375 
#    0.000    0.000    0.000    3.125    0.000   18.000 
#
# Total GULP energy -2379684.625737 kJ/mol
# GULP energy per Si atom -12394.190759 kJ/mol
# Density = 1.693911 g / cm^3
# Si number density = 16.977751 Si / 1000 Ang^3
#
#
#
# Elastic Constant Matrix: (Units=GPa)
#
#
# Indices 1 2 3 4 5 6 
#
# 1 92.1621 49.9452 48.4209 0.0000 0.0000 0.0000
# 2 49.9452 92.1621 48.4209 0.0000 0.0000 0.0000
# 3 48.4209 48.4209 82.4155 0.0000 0.0000 0.0000
# 4 0.0000 0.0000 0.0000 16.6440 0.0000 0.0000
# 5 0.0000 0.0000 0.0000 0.0000 16.6440 0.0000
# 6 0.0000 0.0000 0.0000 0.0000 0.0000 21.1085
#
#
#
# Elastic Compliance Matrix: (Units=1/GPa)
#
#
# Indices 1 2 3 4 5 6 
#
# 1 0.017711 -0.005976 -0.006895 0.000000 0.000000 0.000000
# 2 -0.005976 0.017711 -0.006895 0.000000 0.000000 0.000000
# 3 -0.006895 -0.006895 0.020235 0.000000 0.000000 0.000000
# 4 0.000000 0.000000 0.000000 0.060082 0.000000 0.000000
# 5 0.000000 0.000000 0.000000 0.000000 0.060082 0.000000
# 6 0.000000 0.000000 0.000000 0.000000 0.000000 0.047374
#
#
# Mechanical properties :
#
#
# Convention : Reuss Voigt Hill
#
# Bulk Modulus (GPa) = 62.00781 62.25706 62.13244
# Shear Modulus (GPa) = 18.64956 18.87616 18.76286
#
# Velocity S-wave (km/s) = 3.31791 3.33801 3.32798
# Velocity P-wave (km/s) = 7.16103 7.18372 7.17238
#
# Compressibility (1/GPa) = 0.01612700
#
# Stress axis : x y z
#
# Youngs Moduli (GPa) = 56.46085 56.46085 49.41821
#
# Poissons Ratio (x) = 0.33740 0.34073
# Poissons Ratio (y) = 0.33740 0.34073
# Poissons Ratio (z) = 0.38929 0.38929
#
# Static dielectric constant tensor:
#      x y z
#    x 3.142250 0.000000 0.000000 
#    y 0.000000 3.142250 0.000000 
#    z 0.000000 0.000000 3.328030 
# 
# 
# High freq. dielectric constant tensor:
#      x y z
#    x 1.636650 0.000000 0.000000 
#    y 0.000000 1.636650 0.000000 
#    z 0.000000 0.000000 1.646840 
# 
# From -- ./inp_files/9297.got.cif
#   From: 2010.03.12/outbox.cif.g09.slc.cpg/sg191_5_cif.got.tgz:9297.got - 2010.04.01 12:09:02.
