data_PCOD8328424
_publ_section_title
;
Structure prediction by ZEFSAII (Michael W. Deem and Ramdas Pophale) SiO2 
 PCOD8328424
Probable space group: P 6/M M M
;
_chemical_formula_sum "Si O2"
_cell_formula_units_Z 168
_cell_length_a 22.101083
_cell_length_b 22.101083
_cell_length_c 25.878503
_cell_angle_alpha 90.000000
_cell_angle_beta 90.000000
_cell_angle_gamma 120.000000
_cell_volume 10947.044734
_symmetry_space_group_name_H-M "P 6/M M M"
_symmetry_group_IT_number 191
_symmetry_cell_setting 'hexagonal'
loop_
_space_group_symop_operation_xyz
x,y,z
x-y,x,z
-y,x-y,z
-x,-y,z
-x+y,-x,z
y,-x+y,z
x-y,-y,-z
-x,-x+y,-z
y,x,-z
-y,-x,-z
-x+y,y,-z
x,x-y,-z
-x,-y,-z
-x+y,-x,-z
y,-x+y,-z
x,y,-z
x-y,x,-z
-y,x-y,-z
-x+y,y,z
x,x-y,z
-y,-x,z
y,x,z
x-y,-y,z
-x,-x+y,z
loop_
_atom_site_type_symbol
_atom_site_label
_atom_site_fract_x
_atom_site_fract_y
_atom_site_fract_z
Si Si1 0.810201 0.334609 0.244158
Si Si2 0.707948 0.149094 0.345566
Si Si3 0.807980 0.474717 0.557616
Si Si4 0.081883 0.660622 0.162745
Si Si5 0.791209 0.076628 0.802587
Si Si6 0.077036 0.289522 0.319058
Si Si7 0.390921 0.917262 0.944012
O O1 0.789021 0.394511 0.244316
O O2 0.740489 0.259512 0.234924
O O3 0.847698 0.337658 0.298435
O O4 0.868081 0.352166 0.200315
O O5 0.781174 0.218827 0.344841
O O6 0.668565 0.139662 0.400018
O O7 0.724305 0.086044 0.341283
O O8 0.835670 0.504372 0.500000
O O9 0.730550 0.461100 0.566225
O O10 0.803725 0.401863 0.566558
O O11 0.093914 0.737301 0.170091
O O12 0.107638 0.661640 0.104165
O O13 0.000000 0.601802 0.172038
O O14 0.868820 0.131180 0.821899
O O15 0.783677 0.083534 0.741983
O O16 0.776866 0.000000 0.817655
O O17 0.135772 0.271544 0.339656
O O18 0.000000 0.227117 0.335226
O O19 0.443906 0.887811 0.936349
O O20 0.434213 0.000000 0.944550
O O21 0.352088 0.890838 0.000000
#
# Coordination Sequence:
#
# PCOD8328424 Si02
#       7
#    24  24  24  24  24  24  24
#     4  11  21  31  42  58  85 118 149 181 219 264
#     4   9  17  28  42  61  84 111 144 182 220 257
#     4   9  16  26  41  60  82 110 148 193 235 270
#     4  10  18  28  45  67  87 108 139 180 223 265
#     4   9  16  27  44  65  89 115 141 172 212 257
#     4   9  16  28  46  67  90 115 143 174 212 257
#     4   8  14  25  40  59  84 111 139 175 221 268
#
# _framework density 15.346608
#
# number of rings (size 3 to 8) (size 9 to 14) (size 15 to 20)
#    0.000    2.714    1.429    2.000    0.000    1.429 
#    0.000    1.429    0.000    3.714    0.000    3.000 
#    0.000    1.143    0.000    0.000    0.000    0.000 
#
# Total GULP energy -2081890.983301 kJ/mol
# GULP energy per Si atom -12392.208234 kJ/mol
# Density = 1.531168 g / cm^3
# Si number density = 15.346608 Si / 1000 Ang^3
#
#
#
# Elastic Constant Matrix: (Units=GPa)
#
#
# Indices 1 2 3 4 5 6 
#
# 1 78.2482 40.7566 37.5082 0.0000 0.0000 0.0000
# 2 40.7566 78.2482 37.5082 0.0000 0.0000 0.0000
# 3 37.5082 37.5082 81.8026 0.0000 0.0000 0.0000
# 4 0.0000 0.0000 0.0000 15.3620 0.0000 0.0000
# 5 0.0000 0.0000 0.0000 0.0000 15.3620 0.0000
# 6 0.0000 0.0000 0.0000 0.0000 0.0000 18.7458
#
#
#
# Elastic Compliance Matrix: (Units=1/GPa)
#
#
# Indices 1 2 3 4 5 6 
#
# 1 0.019246 -0.007427 -0.005419 0.000000 0.000000 0.000000
# 2 -0.007427 0.019246 -0.005419 0.000000 0.000000 0.000000
# 3 -0.005419 -0.005419 0.017194 0.000000 0.000000 0.000000
# 4 0.000000 0.000000 0.000000 0.065096 0.000000 0.000000
# 5 0.000000 0.000000 0.000000 0.000000 0.065096 0.000000
# 6 0.000000 0.000000 0.000000 0.000000 0.000000 0.053345
#
#
# Mechanical properties :
#
#
# Convention : Reuss Voigt Hill
#
# Bulk Modulus (GPa) = 52.20483 52.20499 52.20491
# Shear Modulus (GPa) = 17.72177 18.06236 17.89207
#
# Velocity S-wave (km/s) = 3.40187 3.43441 3.41818
# Velocity P-wave (km/s) = 7.03714 7.05819 7.04767
#
# Compressibility (1/GPa) = 0.01915531
#
# Stress axis : x y z
#
# Youngs Moduli (GPa) = 51.95909 51.95909 58.15875
#
# Poissons Ratio (x) = 0.38589 0.31518
# Poissons Ratio (y) = 0.38589 0.31518
# Poissons Ratio (z) = 0.28158 0.28158
#
# Static dielectric constant tensor:
#      x y z
#    x 2.944060 0.000000 0.000000 
#    y 0.000000 2.944060 0.000000 
#    z 0.000000 0.000000 3.207130 
# 
# 
# High freq. dielectric constant tensor:
#      x y z
#    x 1.569690 0.000000 0.000000 
#    y 0.000000 1.569690 0.000000 
#    z 0.000000 0.000000 1.581030 
# 
# From -- ./inp_files/10058.got.cif
#   From: 2010.03.12/outbox.cif.g09.slc.cpg/sg191_6_cif.got.tgz:10058.got - 2010.04.01 12:09:02.
