data_PCOD8328285
_publ_section_title
;
Structure prediction by ZEFSAII (Michael W. Deem and Ramdas Pophale) SiO2 
 PCOD8328285
Probable space group: P 6/M M M
;
_chemical_formula_sum "Si O2"
_cell_formula_units_Z 168
_cell_length_a 22.722065
_cell_length_b 22.722065
_cell_length_c 25.549823
_cell_angle_alpha 90.000000
_cell_angle_beta 90.000000
_cell_angle_gamma 120.000000
_cell_volume 11423.892910
_symmetry_space_group_name_H-M "P 6/M M M"
_symmetry_group_IT_number 191
_symmetry_cell_setting 'hexagonal'
loop_
_space_group_symop_operation_xyz
x,y,z
x-y,x,z
-y,x-y,z
-x,-y,z
-x+y,-x,z
y,-x+y,z
x-y,-y,-z
-x,-x+y,-z
y,x,-z
-y,-x,-z
-x+y,y,-z
x,x-y,-z
-x,-y,-z
-x+y,-x,-z
y,-x+y,-z
x,y,-z
x-y,x,-z
-y,x-y,-z
-x+y,y,z
x,x-y,z
-y,-x,z
y,x,z
x-y,-y,z
-x,-x+y,z
loop_
_atom_site_type_symbol
_atom_site_label
_atom_site_fract_x
_atom_site_fract_y
_atom_site_fract_z
Si Si1 0.080882 0.473983 0.442364
Si Si2 0.919735 0.326968 0.657111
Si Si3 0.801864 0.468454 0.940471
Si Si4 0.284200 0.208012 0.820875
Si Si5 0.149236 0.715652 0.151608
Si Si6 0.530211 0.921632 0.760217
Si Si7 0.924078 0.718242 0.300577
O O1 0.106407 0.466139 0.500000
O O2 0.105638 0.552819 0.431246
O O3 0.111796 0.446899 0.397463
O O4 0.000000 0.431567 0.441075
O O5 0.892674 0.351959 0.705547
O O6 0.900020 0.248961 0.664601
O O7 0.000000 0.374183 0.655460
O O8 0.722935 0.445869 0.934406
O O9 0.810144 0.405072 0.923046
O O10 0.848822 0.533300 0.904478
O O11 0.826501 0.490043 0.000000
O O12 0.256271 0.128136 0.832614
O O13 0.226397 0.226397 0.837031
O O14 0.352777 0.255265 0.853110
O O15 0.303395 0.224160 0.759808
O O16 0.223498 0.776503 0.168242
O O17 0.124721 0.656549 0.193789
O O18 0.457034 0.914068 0.759104
O O19 0.588571 0.000000 0.769297
O O20 0.873681 0.747361 0.311964
O O21 0.000000 0.777109 0.315402
#
# Coordination Sequence:
#
# PCOD8328285 Si02
#       7
#    24  24  24  24  24  24  24
#     4   8  13  21  33  50  74 104 136 168 199 230
#     4   9  15  23  36  55  78 104 135 166 198 240
#     4   9  17  29  44  60  79 107 145 185 218 245
#     4   9  16  27  43  62  83 106 134 167 205 250
#     4  10  18  27  41  60  82 107 137 172 209 249
#     4  10  18  26  38  57  81 107 134 166 203 243
#     4   9  16  26  41  60  81 105 134 169 208 252
#
# _framework density 14.706020000000001
#
# number of rings (size 3 to 8) (size 9 to 14) (size 15 to 20)
#    0.000    2.857    1.429    1.857    0.000    2.286 
#    0.000    0.000    0.000    2.714    0.000    7.000 
#    0.000    0.000    0.000    0.000    0.000    1.429 
#
# Total GULP energy -2082389.821107 kJ/mol
# GULP energy per Si atom -12395.177507 kJ/mol
# Density = 1.467255 g / cm^3
# Si number density = 14.706020 Si / 1000 Ang^3
#
#
#
# Elastic Constant Matrix: (Units=GPa)
#
#
# Indices 1 2 3 4 5 6 
#
# 1 77.2728 46.0870 43.3893 0.0000 0.0000 0.0000
# 2 46.0870 77.2728 43.3893 0.0000 0.0000 0.0000
# 3 43.3893 43.3893 84.0887 0.0000 0.0000 0.0000
# 4 0.0000 0.0000 0.0000 15.8219 0.0000 0.0000
# 5 0.0000 0.0000 0.0000 0.0000 15.8219 0.0000
# 6 0.0000 0.0000 0.0000 0.0000 0.0000 15.5929
#
#
#
# Elastic Compliance Matrix: (Units=1/GPa)
#
#
# Indices 1 2 3 4 5 6 
#
# 1 0.022396 -0.009670 -0.006566 0.000000 0.000000 0.000000
# 2 -0.009670 0.022396 -0.006566 0.000000 0.000000 0.000000
# 3 -0.006566 -0.006566 0.018669 0.000000 0.000000 0.000000
# 4 0.000000 0.000000 0.000000 0.063203 0.000000 0.000000
# 5 0.000000 0.000000 0.000000 0.000000 0.063203 0.000000
# 6 0.000000 0.000000 0.000000 0.000000 0.000000 0.064132
#
#
# Mechanical properties :
#
#
# Convention : Reuss Voigt Hill
#
# Bulk Modulus (GPa) = 56.00869 56.04063 56.02466
# Shear Modulus (GPa) = 16.36362 16.49857 16.43110
#
# Velocity S-wave (km/s) = 3.33936 3.35310 3.34624
# Velocity P-wave (km/s) = 7.28263 7.29253 7.28758
#
# Compressibility (1/GPa) = 0.01785437
#
# Stress axis : x y z
#
# Youngs Moduli (GPa) = 44.65139 44.65139 53.56600
#
# Poissons Ratio (x) = 0.43179 0.35173
# Poissons Ratio (y) = 0.43179 0.35173
# Poissons Ratio (z) = 0.29319 0.29319
#
# Static dielectric constant tensor:
#      x y z
#    x 2.745660 0.000000 0.000000 
#    y 0.000000 2.745660 0.000000 
#    z 0.000000 0.000000 2.981820 
# 
# 
# High freq. dielectric constant tensor:
#      x y z
#    x 1.542470 0.000000 0.000000 
#    y 0.000000 1.542470 0.000000 
#    z 0.000000 0.000000 1.550920 
# 
# From -- ./inp_files/7916.got.cif
#   From: 2010.03.12/outbox.cif.g09.slc.cpg/sg191_4_cif.got.tgz:7916.got - 2010.04.01 12:09:02.
