data_PCOD8328890
_publ_section_title
;
Structure prediction by ZEFSAII (Michael W. Deem and Ramdas Pophale) SiO2 
 PCOD8328890
Probable space group: P 6/M M M
;
_chemical_formula_sum "Si O2"
_cell_formula_units_Z 84
_cell_length_a 21.781961
_cell_length_b 21.781961
_cell_length_c 12.352903
_cell_angle_alpha 90.000000
_cell_angle_beta 90.000000
_cell_angle_gamma 120.000000
_cell_volume 5075.672768
_symmetry_space_group_name_H-M "P 6/M M M"
_symmetry_group_IT_number 191
_symmetry_cell_setting 'hexagonal'
loop_
_space_group_symop_operation_xyz
x,y,z
x-y,x,z
-y,x-y,z
-x,-y,z
-x+y,-x,z
y,-x+y,z
x-y,-y,-z
-x,-x+y,-z
y,x,-z
-y,-x,-z
-x+y,y,-z
x,x-y,-z
-x,-y,-z
-x+y,-x,-z
y,-x+y,-z
x,y,-z
x-y,x,-z
-y,x-y,-z
-x+y,y,z
x,x-y,z
-y,-x,z
y,x,z
x-y,-y,z
-x,-x+y,z
loop_
_atom_site_type_symbol
_atom_site_label
_atom_site_fract_x
_atom_site_fract_y
_atom_site_fract_z
Si Si1 0.158654 0.317307 0.128347
Si Si2 0.320075 0.402121 0.127929
Si Si3 0.803330 0.332351 0.500000
Si Si4 0.159136 0.079568 0.870731
Si Si5 0.809297 0.477122 0.735077
O O1 0.239325 0.356243 0.169310
O O2 0.119183 0.238366 0.176525
O O3 0.156905 0.313810 0.000000
O O4 0.363127 0.363127 0.162948
O O5 0.353318 0.478352 0.184833
O O6 0.324109 0.413989 0.000000
O O7 0.717984 0.282017 0.500000
O O8 0.826544 0.413272 0.500000
O O9 0.831868 0.318948 0.385950
O O10 0.119137 0.119137 0.825779
O O11 0.159828 0.079914 0.000000
O O12 0.738870 0.477739 0.775727
O O13 0.792288 0.396144 0.733251
#
# Coordination Sequence:
#
# PCOD8328890 Si02
#       5
#    12  24  12  12  24
#     4   9  16  29  46  62  85 121 165 201 229 274
#     4  10  20  33  49  69  95 128 164 201 238 278
#     4   8  15  28  49  73  95 120 151 191 238 286
#     4   9  15  22  35  58  87 117 151 194 241 283
#     4  10  19  33  52  74  98 124 157 197 240 286
#
# _framework density 16.549530000000001
#
# number of rings (size 3 to 8) (size 9 to 14) (size 15 to 20)
#    0.000    2.571    1.429    1.429    0.000    7.429 
#    0.000    2.143    0.000    4.286    0.000    0.000 
#    0.000    0.000    0.000    0.000    0.000    0.429 
#
# Total GULP energy -1040902.188708 kJ/mol
# GULP energy per Si atom -12391.692723 kJ/mol
# Density = 1.651186 g / cm^3
# Si number density = 16.549530 Si / 1000 Ang^3
#
#
#
# Elastic Constant Matrix: (Units=GPa)
#
#
# Indices 1 2 3 4 5 6 
#
# 1 93.0924 33.4310 34.5523 0.0000 0.0000 0.0000
# 2 33.4310 93.0924 34.5523 0.0000 0.0000 0.0000
# 3 34.5523 34.5523 46.4635 0.0000 0.0000 0.0000
# 4 0.0000 0.0000 0.0000 14.2015 0.0000 0.0000
# 5 0.0000 0.0000 0.0000 0.0000 14.2015 0.0000
# 6 0.0000 0.0000 0.0000 0.0000 0.0000 29.8307
#
#
#
# Elastic Compliance Matrix: (Units=1/GPa)
#
#
# Indices 1 2 3 4 5 6 
#
# 1 0.015035 -0.001726 -0.009898 0.000000 0.000000 0.000000
# 2 -0.001726 0.015035 -0.009898 0.000000 0.000000 0.000000
# 3 -0.009898 -0.009898 0.036243 0.000000 0.000000 0.000000
# 4 0.000000 0.000000 0.000000 0.070415 0.000000 0.000000
# 5 0.000000 0.000000 0.000000 0.000000 0.070415 0.000000
# 6 0.000000 0.000000 0.000000 0.000000 0.000000 0.033523
#
#
# Mechanical properties :
#
#
# Convention : Reuss Voigt Hill
#
# Bulk Modulus (GPa) = 42.97078 48.63550 45.80314
# Shear Modulus (GPa) = 17.15469 20.32092 18.73781
#
# Velocity S-wave (km/s) = 3.22307 3.50792 3.36851
# Velocity P-wave (km/s) = 6.31445 6.77193 6.54718
#
# Compressibility (1/GPa) = 0.02327163
#
# Stress axis : x y z
#
# Youngs Moduli (GPa) = 66.50972 66.50972 27.59169
#
# Poissons Ratio (x) = 0.11479 0.27309
# Poissons Ratio (y) = 0.11479 0.27309
# Poissons Ratio (z) = 0.65828 0.65828
#
# Static dielectric constant tensor:
#      x y z
#    x 3.091820 0.000000 0.000000 
#    y 0.000000 3.091820 0.000000 
#    z 0.000000 0.000000 2.991430 
# 
# 
# High freq. dielectric constant tensor:
#      x y z
#    x 1.633550 0.000000 0.000000 
#    y 0.000000 1.633550 0.000000 
#    z 0.000000 0.000000 1.600540 
# 
# From -- ./inp_files/2469.got.cif
#   From: 2010.03.12/outbox.cif.g09.slc.cpg/sg191_2_cif.got.tgz:2469.got - 2010.04.01 12:09:02.
