data_PCOD8328863
_publ_section_title
;
Structure prediction by ZEFSAII (Michael W. Deem and Ramdas Pophale) SiO2 
 PCOD8328863
Probable space group: P 6/M M M
;
_chemical_formula_sum "Si O2"
_cell_formula_units_Z 120
_cell_length_a 22.354032
_cell_length_b 22.354032
_cell_length_c 15.687847
_cell_angle_alpha 90.000000
_cell_angle_beta 90.000000
_cell_angle_gamma 120.000000
_cell_volume 6788.998510
_symmetry_space_group_name_H-M "P 6/M M M"
_symmetry_group_IT_number 191
_symmetry_cell_setting 'hexagonal'
loop_
_space_group_symop_operation_xyz
x,y,z
x-y,x,z
-y,x-y,z
-x,-y,z
-x+y,-x,z
y,-x+y,z
x-y,-y,-z
-x,-x+y,-z
y,x,-z
-y,-x,-z
-x+y,y,-z
x,x-y,-z
-x,-y,-z
-x+y,-x,-z
y,-x+y,-z
x,y,-z
x-y,x,-z
-y,x-y,-z
-x+y,y,z
x,x-y,z
-y,-x,z
y,x,z
x-y,-y,z
-x,-x+y,z
loop_
_atom_site_type_symbol
_atom_site_label
_atom_site_fract_x
_atom_site_fract_y
_atom_site_fract_z
Si Si1 0.288749 0.435752 0.406017
Si Si2 0.564248 0.852997 0.093983
Si Si3 0.474009 0.665592 0.250000
Si Si4 0.713439 0.790014 0.649665
Si Si5 0.286561 0.076576 0.149665
O O1 0.322663 0.460110 0.500000
O O2 0.218790 0.437579 0.399333
O O3 0.340113 0.486653 0.333729
O O4 0.269846 0.356991 0.391657
O O5 0.562421 0.781211 0.100666
O O6 0.513347 0.853460 0.166271
O O7 0.643009 0.912854 0.108344
O O8 0.539890 0.862553 0.000000
O O9 0.471108 0.735554 0.250000
O O10 0.396786 0.603215 0.250000
O O11 0.732934 0.866467 0.616305
O O12 0.775009 0.775009 0.624856
O O13 0.701110 0.785635 0.750000
O O14 0.267066 0.133533 0.116305
O O15 0.224991 0.000000 0.124857
#
# Coordination Sequence:
#
# PCOD8328863 Si02
#       5
#    24  24  24  24  24
#     4   9  17  30  48  69  94 126 164 203 240 279
#     4   9  17  30  48  69  94 126 164 203 240 279
#     4  10  19  32  49  71  98 127 158 196 243 295
#     4   9  16  28  48  73  99 127 161 201 242 283
#     4   9  16  28  48  73  99 127 161 201 242 283
#
# _framework density 17.675656
#
# number of rings (size 3 to 8) (size 9 to 14) (size 15 to 20)
#    0.000    2.800    2.000    0.200    0.000    1.600 
#    0.000    0.000    0.000    5.200    0.000    5.600 
#    0.000    0.000    0.000   10.000    0.000   10.400 
#
# Total GULP energy -1487190.487152 kJ/mol
# GULP energy per Si atom -12393.254060 kJ/mol
# Density = 1.763543 g / cm^3
# Si number density = 17.675656 Si / 1000 Ang^3
#
#
#
# Elastic Constant Matrix: (Units=GPa)
#
#
# Indices 1 2 3 4 5 6 
#
# 1 79.5081 34.2502 42.6475 0.0000 0.0000 0.0000
# 2 34.2502 79.5081 42.6475 0.0000 0.0000 0.0000
# 3 42.6475 42.6475 109.5341 0.0000 0.0000 0.0000
# 4 0.0000 0.0000 0.0000 9.7225 0.0000 0.0000
# 5 0.0000 0.0000 0.0000 0.0000 9.7225 0.0000
# 6 0.0000 0.0000 0.0000 0.0000 0.0000 22.6289
#
#
#
# Elastic Compliance Matrix: (Units=1/GPa)
#
#
# Indices 1 2 3 4 5 6 
#
# 1 0.017255 -0.004840 -0.004834 0.000000 0.000000 0.000000
# 2 -0.004840 0.017255 -0.004834 0.000000 0.000000 0.000000
# 3 -0.004834 -0.004834 0.012894 0.000000 0.000000 0.000000
# 4 0.000000 0.000000 0.000000 0.102855 0.000000 0.000000
# 5 0.000000 0.000000 0.000000 0.000000 0.102855 0.000000
# 6 0.000000 0.000000 0.000000 0.000000 0.000000 0.044191
#
#
# Mechanical properties :
#
#
# Convention : Reuss Voigt Hill
#
# Bulk Modulus (GPa) = 54.38231 56.40454 55.39342
# Shear Modulus (GPa) = 15.03986 18.34844 16.69415
#
# Velocity S-wave (km/s) = 2.92015 3.22539 3.07656
# Velocity P-wave (km/s) = 6.49640 6.77134 6.63530
#
# Compressibility (1/GPa) = 0.01838833
#
# Stress axis : x y z
#
# Youngs Moduli (GPa) = 57.95336 57.95336 77.55733
#
# Poissons Ratio (x) = 0.28051 0.37490
# Poissons Ratio (y) = 0.28051 0.37490
# Poissons Ratio (z) = 0.28013 0.28013
#
# Static dielectric constant tensor:
#      x y z
#    x 3.101750 0.000000 0.000000 
#    y 0.000000 3.101750 0.000000 
#    z 0.000000 0.000000 3.571320 
# 
# 
# High freq. dielectric constant tensor:
#      x y z
#    x 1.652030 0.000000 0.000000 
#    y 0.000000 1.652030 0.000000 
#    z 0.000000 0.000000 1.696030 
# 
# From -- ./inp_files/4711.got.cif
#   From: 2010.03.12/outbox.cif.g09.slc.cpg/sg191_3_cif.got.tgz:4711.got - 2010.04.01 12:09:02.
