data_PCOD8328469
_publ_section_title
;
Structure prediction by ZEFSAII (Michael W. Deem and Ramdas Pophale) SiO2 
 PCOD8328469
Probable space group: P 6/M M M
;
_chemical_formula_sum "Si O2"
_cell_formula_units_Z 132
_cell_length_a 18.119640
_cell_length_b 18.119640
_cell_length_c 29.697960
_cell_angle_alpha 90.000000
_cell_angle_beta 90.000000
_cell_angle_gamma 120.000000
_cell_volume 8444.158556
_symmetry_space_group_name_H-M "P 6/M M M"
_symmetry_group_IT_number 191
_symmetry_cell_setting 'hexagonal'
loop_
_space_group_symop_operation_xyz
x,y,z
x-y,x,z
-y,x-y,z
-x,-y,z
-x+y,-x,z
y,-x+y,z
x-y,-y,-z
-x,-x+y,-z
y,x,-z
-y,-x,-z
-x+y,y,-z
x,x-y,-z
-x,-y,-z
-x+y,-x,-z
y,-x+y,-z
x,y,-z
x-y,x,-z
-y,x-y,-z
-x+y,y,z
x,x-y,z
-y,-x,z
y,x,z
x-y,-y,z
-x,-x+y,z
loop_
_atom_site_type_symbol
_atom_site_label
_atom_site_fract_x
_atom_site_fract_y
_atom_site_fract_z
Si Si1 0.164314 0.495892 0.103865
Si Si2 0.533567 0.632099 0.799080
Si Si3 0.539774 0.904642 0.548787
Si Si4 0.833394 0.330636 0.357957
Si Si5 0.412212 0.000000 0.948995
Si Si6 0.637986 0.735208 0.716420
O O1 0.247139 0.494277 0.086592
O O2 0.177303 0.588652 0.094292
O O3 0.152600 0.474811 0.156798
O O4 0.083891 0.424204 0.076197
O O5 0.440161 0.559840 0.781848
O O6 0.588405 0.588405 0.812662
O O7 0.578894 0.701590 0.760413
O O8 0.548924 0.868134 0.500000
O O9 0.453813 0.907625 0.548585
O O10 0.537254 0.847595 0.590671
O O11 0.618750 0.000000 0.555241
O O12 0.853143 0.426572 0.351225
O O13 0.735395 0.264606 0.345372
O O14 0.896182 0.315785 0.326197
O O15 0.500000 0.000000 0.946967
O O16 0.382725 0.000000 0.000000
O O17 0.673728 0.836864 0.712209
O O18 0.716565 0.716565 0.719069
#
# Coordination Sequence:
#
# PCOD8328469 Si02
#       6
#    24  24  24  24  12  24
#     4  10  18  29  45  66  90 118 153 191 226 262
#     4   9  16  28  46  67  91 120 150 176 207 252
#     4   8  14  25  40  55  72 101 145 191 227 258
#     4  10  19  29  41  60  87 118 150 184 221 260
#     4   9  18  32  46  60  84 118 151 185 228 270
#     4  10  20  32  47  67  89 114 144 179 219 263
#
# _framework density 15.632108000000001
#
# number of rings (size 3 to 8) (size 9 to 14) (size 15 to 20)
#    0.000    2.636    0.909    2.545    0.000    2.545 
#    0.000    0.000    0.000    8.182    0.000    0.000 
#    0.000    0.000    0.000    0.273    0.000    1.182 
#
# Total GULP energy -1636155.812087 kJ/mol
# GULP energy per Si atom -12395.119789 kJ/mol
# Density = 1.559653 g / cm^3
# Si number density = 15.632108 Si / 1000 Ang^3
#
#
#
# Elastic Constant Matrix: (Units=GPa)
#
#
# Indices 1 2 3 4 5 6 
#
# 1 74.4950 38.4067 35.4357 0.0000 0.0000 0.0000
# 2 38.4067 74.4950 35.4357 0.0000 0.0000 0.0000
# 3 35.4357 35.4357 85.1305 0.0000 0.0000 0.0000
# 4 0.0000 0.0000 0.0000 14.1076 0.0000 0.0000
# 5 0.0000 0.0000 0.0000 0.0000 14.1076 0.0000
# 6 0.0000 0.0000 0.0000 0.0000 0.0000 18.0442
#
#
#
# Elastic Compliance Matrix: (Units=1/GPa)
#
#
# Indices 1 2 3 4 5 6 
#
# 1 0.019850 -0.007860 -0.004991 0.000000 0.000000 0.000000
# 2 -0.007860 0.019850 -0.004991 0.000000 0.000000 0.000000
# 3 -0.004991 -0.004991 0.015902 0.000000 0.000000 0.000000
# 4 0.000000 0.000000 0.000000 0.070884 0.000000 0.000000
# 5 0.000000 0.000000 0.000000 0.000000 0.070884 0.000000
# 6 0.000000 0.000000 0.000000 0.000000 0.000000 0.055420
#
#
# Mechanical properties :
#
#
# Convention : Reuss Voigt Hill
#
# Bulk Modulus (GPa) = 50.20510 50.29741 50.25126
# Shear Modulus (GPa) = 16.94275 17.57470 17.25872
#
# Velocity S-wave (km/s) = 3.29575 3.35665 3.32634
# Velocity P-wave (km/s) = 6.83147 6.87520 6.85337
#
# Compressibility (1/GPa) = 0.01991829
#
# Stress axis : x y z
#
# Youngs Moduli (GPa) = 50.37778 50.37778 62.88647
#
# Poissons Ratio (x) = 0.39596 0.31386
# Poissons Ratio (y) = 0.39596 0.31386
# Poissons Ratio (z) = 0.25143 0.25143
#
# Static dielectric constant tensor:
#      x y z
#    x 2.732000 0.000000 0.000000 
#    y 0.000000 2.732000 0.000000 
#    z 0.000000 0.000000 3.233500 
# 
# 
# High freq. dielectric constant tensor:
#      x y z
#    x 1.569910 0.000000 0.000000 
#    y 0.000000 1.569910 0.000000 
#    z 0.000000 0.000000 1.614860 
# 
# From -- ./inp_files/10390.got.cif
#   From: 2010.03.12/outbox.cif.g09.slc.cpg/sg191_6_cif.got.tgz:10390.got - 2010.04.01 12:09:02.
