data_PCOD8328795
_publ_section_title
;
Structure prediction by ZEFSAII (Michael W. Deem and Ramdas Pophale) SiO2 
 PCOD8328795
Probable space group: P 6/M M M
;
_chemical_formula_sum "Si O2"
_cell_formula_units_Z 120
_cell_length_a 18.063878
_cell_length_b 18.063878
_cell_length_c 25.629178
_cell_angle_alpha 90.000000
_cell_angle_beta 90.000000
_cell_angle_gamma 120.000000
_cell_volume 7242.479789
_symmetry_space_group_name_H-M "P 6/M M M"
_symmetry_group_IT_number 191
_symmetry_cell_setting 'hexagonal'
loop_
_space_group_symop_operation_xyz
x,y,z
x-y,x,z
-y,x-y,z
-x,-y,z
-x+y,-x,z
y,-x+y,z
x-y,-y,-z
-x,-x+y,-z
y,x,-z
-y,-x,-z
-x+y,y,-z
x,x-y,-z
-x,-y,-z
-x+y,-x,-z
y,-x+y,-z
x,y,-z
x-y,x,-z
-y,x-y,-z
-x+y,y,z
x,x-y,z
-y,-x,z
y,x,z
x-y,-y,z
-x,-x+y,z
loop_
_atom_site_type_symbol
_atom_site_label
_atom_site_fract_x
_atom_site_fract_y
_atom_site_fract_z
Si Si1 0.467962 0.096555 0.186305
Si Si2 0.835813 0.333530 0.294732
Si Si3 0.265983 0.903972 0.500000
Si Si4 0.666749 0.161849 0.410223
Si Si5 0.099823 0.467598 0.000000
Si Si6 0.365490 0.264541 0.903475
O O1 0.571389 0.142778 0.177243
O O2 0.448624 0.098120 0.247961
O O3 0.420719 0.132357 0.150040
O O4 0.429224 0.000000 0.168382
O O5 0.804642 0.402321 0.295838
O O6 0.756474 0.243527 0.281006
O O7 0.874542 0.334733 0.351949
O O8 0.164493 0.835508 0.500000
O O9 0.311473 0.893091 0.449301
O O10 0.280758 0.000000 0.500000
O O11 0.575998 0.151996 0.425654
O O12 0.738016 0.261985 0.413244
O O13 0.126038 0.434804 0.050936
O O14 0.143068 0.571534 0.000000
O O15 0.000000 0.429668 0.000000
O O16 0.322100 0.161050 0.909126
O O17 0.292103 0.292103 0.904427
#
# Coordination Sequence:
#
# PCOD8328795 Si02
#       6
#    24  24  12  24  12  24
#     4   9  17  28  42  61  85 114 148 186 228 271
#     4   9  16  26  40  59  85 117 151 182 211 245
#     4  10  21  35  49  66  87 111 140 178 225 269
#     4   9  17  28  43  64  92 126 158 184 209 243
#     4   9  17  30  49  70  90 114 142 171 207 254
#     4  10  19  31  48  68  90 118 153 191 229 271
#
# _framework density 16.568911
#
# number of rings (size 3 to 8) (size 9 to 14) (size 15 to 20)
#    0.000    2.700    0.000    2.200    0.000    5.600 
#    0.000    3.000    0.000    7.100    0.000    0.000 
#    0.000    2.400    0.000    0.000    0.000   26.000 
#
# Total GULP energy -1486661.835717 kJ/mol
# GULP energy per Si atom -12388.848631 kJ/mol
# Density = 1.653120 g / cm^3
# Si number density = 16.568911 Si / 1000 Ang^3
#
#
#
# Elastic Constant Matrix: (Units=GPa)
#
#
# Indices 1 2 3 4 5 6 
#
# 1 74.0740 41.4537 33.4365 0.0000 0.0000 0.0000
# 2 41.4537 74.0740 33.4365 0.0000 0.0000 0.0000
# 3 33.4365 33.4365 110.2782 0.0000 0.0000 0.0000
# 4 0.0000 0.0000 0.0000 22.6779 0.0000 0.0000
# 5 0.0000 0.0000 0.0000 0.0000 22.6779 0.0000
# 6 0.0000 0.0000 0.0000 0.0000 0.0000 16.3102
#
#
#
# Elastic Compliance Matrix: (Units=1/GPa)
#
#
# Indices 1 2 3 4 5 6 
#
# 1 0.020577 -0.010079 -0.003183 0.000000 0.000000 0.000000
# 2 -0.010079 0.020577 -0.003183 0.000000 0.000000 0.000000
# 3 -0.003183 -0.003183 0.010998 0.000000 0.000000 0.000000
# 4 0.000000 0.000000 0.000000 0.044096 0.000000 0.000000
# 5 0.000000 0.000000 0.000000 0.000000 0.044096 0.000000
# 6 0.000000 0.000000 0.000000 0.000000 0.000000 0.061311
#
#
# Mechanical properties :
#
#
# Convention : Reuss Voigt Hill
#
# Bulk Modulus (GPa) = 51.91403 52.78661 52.35032
# Shear Modulus (GPa) = 20.74981 22.33985 21.54483
#
# Velocity S-wave (km/s) = 3.54267 3.67590 3.60990
# Velocity P-wave (km/s) = 6.93788 7.06713 7.00281
#
# Compressibility (1/GPa) = 0.01926262
#
# Stress axis : x y z
#
# Youngs Moduli (GPa) = 48.59773 48.59773 90.92363
#
# Poissons Ratio (x) = 0.48980 0.28942
# Poissons Ratio (y) = 0.48980 0.28942
# Poissons Ratio (z) = 0.15469 0.15469
#
# Static dielectric constant tensor:
#      x y z
#    x 2.899450 0.000000 0.000000 
#    y 0.000000 2.899450 0.000000 
#    z 0.000000 0.000000 3.448250 
# 
# 
# High freq. dielectric constant tensor:
#      x y z
#    x 1.605850 0.000000 0.000000 
#    y 0.000000 1.605850 0.000000 
#    z 0.000000 0.000000 1.661810 
# 
# From -- ./inp_files/9589.got.cif
#   From: 2010.03.12/outbox.cif.g09.slc.cpg/sg191_5_cif.got.tgz:9589.got - 2010.04.01 12:09:02.
