data_PCOD8328536
_publ_section_title
;
Structure prediction by ZEFSAII (Michael W. Deem and Ramdas Pophale) SiO2 
 PCOD8328536
Probable space group: P 6/M M M
;
_chemical_formula_sum "Si O2"
_cell_formula_units_Z 144
_cell_length_a 21.515032
_cell_length_b 21.515032
_cell_length_c 21.306875
_cell_angle_alpha 90.000000
_cell_angle_beta 90.000000
_cell_angle_gamma 120.000000
_cell_volume 8541.504666
_symmetry_space_group_name_H-M "P 6/M M M"
_symmetry_group_IT_number 191
_symmetry_cell_setting 'hexagonal'
loop_
_space_group_symop_operation_xyz
x,y,z
x-y,x,z
-y,x-y,z
-x,-y,z
-x+y,-x,z
y,-x+y,z
x-y,-y,-z
-x,-x+y,-z
y,x,-z
-y,-x,-z
-x+y,y,-z
x,x-y,-z
-x,-y,-z
-x+y,-x,-z
y,-x+y,-z
x,y,-z
x-y,x,-z
-y,x-y,-z
-x+y,y,z
x,x-y,z
-y,-x,z
y,x,z
x-y,-y,z
-x,-x+y,z
loop_
_atom_site_type_symbol
_atom_site_label
_atom_site_fract_x
_atom_site_fract_y
_atom_site_fract_z
Si Si1 0.084890 0.613316 0.500000
Si Si2 0.083020 0.541510 0.074112
Si Si3 0.919090 0.219966 0.838467
Si Si4 0.299332 0.841537 0.870241
Si Si5 0.078537 0.784124 0.693757
Si Si6 0.291025 0.853436 0.378347
Si Si7 0.666901 0.473931 0.740122
O O1 0.112249 0.556125 0.500000
O O2 0.114340 0.662232 0.560609
O O3 0.000000 0.574156 0.500000
O O4 0.127065 0.624775 0.094839
O O5 0.000000 0.500000 0.100068
O O6 0.080461 0.540231 0.000000
O O7 0.864639 0.135362 0.852331
O O8 0.894993 0.267656 0.879556
O O9 0.914848 0.236255 0.765202
O O10 0.000000 0.240925 0.857839
O O11 0.239553 0.760448 0.893831
O O12 0.308996 0.839839 0.795814
O O13 0.132459 0.867542 0.680762
O O14 0.093909 0.735757 0.646553
O O15 0.000000 0.771383 0.679536
O O16 0.224336 0.775665 0.394139
O O17 0.340355 0.848472 0.324279
O O18 0.723208 0.446415 0.730961
O O19 0.591196 0.408805 0.759753
#
# Coordination Sequence:
#
# PCOD8328536 Si02
#       7
#    12  12  24  24  24  24  24
#     4  11  23  36  46  62  94 129 159 193 240 294
#     4  11  24  40  54  74 108 145 179 217 263 312
#     4   9  16  28  48  74 101 128 162 206 252 297
#     4  10  19  34  54  76 101 131 172 217 257 303
#     4   9  16  27  45  69  94 119 151 192 238 284
#     4  10  19  33  51  68  89 122 159 201 247 292
#     4  10  18  30  49  72  97 121 155 205 256 298
#
# _framework density 16.858857
#
# number of rings (size 3 to 8) (size 9 to 14) (size 15 to 20)
#    0.000    2.167    2.500    1.917    0.000    0.333 
#    0.500    0.000    0.000    2.667    0.000    2.333 
#    0.000    0.000    0.000    0.000    0.000   17.333 
#
# Total GULP energy -1784836.128835 kJ/mol
# GULP energy per Si atom -12394.695339 kJ/mol
# Density = 1.682049 g / cm^3
# Si number density = 16.858857 Si / 1000 Ang^3
#
#
#
# Elastic Constant Matrix: (Units=GPa)
#
#
# Indices 1 2 3 4 5 6 
#
# 1 112.8291 69.7984 26.5206 0.0000 0.0000 0.0000
# 2 69.7984 112.8291 26.5206 0.0000 0.0000 0.0000
# 3 26.5206 26.5206 48.4407 0.0000 0.0000 0.0000
# 4 0.0000 0.0000 0.0000 18.1992 0.0000 0.0000
# 5 0.0000 0.0000 0.0000 0.0000 18.1992 0.0000
# 6 0.0000 0.0000 0.0000 0.0000 0.0000 21.5154
#
#
#
# Elastic Compliance Matrix: (Units=1/GPa)
#
#
# Indices 1 2 3 4 5 6 
#
# 1 0.014875 -0.008364 -0.003565 0.000000 0.000000 0.000000
# 2 -0.008364 0.014875 -0.003565 0.000000 0.000000 0.000000
# 3 -0.003565 -0.003565 0.024547 0.000000 0.000000 0.000000
# 4 0.000000 0.000000 0.000000 0.054947 0.000000 0.000000
# 5 0.000000 0.000000 0.000000 0.000000 0.054947 0.000000
# 6 0.000000 0.000000 0.000000 0.000000 0.000000 0.046478
#
#
# Mechanical properties :
#
#
# Convention : Reuss Voigt Hill
#
# Bulk Modulus (GPa) = 42.89952 57.75311 50.32632
# Shear Modulus (GPa) = 20.04594 21.66673 20.85634
#
# Velocity S-wave (km/s) = 3.45199 3.58884 3.52108
# Velocity P-wave (km/s) = 6.43350 7.17664 6.81521
#
# Compressibility (1/GPa) = 0.02331028
#
# Stress axis : x y z
#
# Youngs Moduli (GPa) = 67.22664 67.22664 40.73820
#
# Poissons Ratio (x) = 0.56229 0.14522
# Poissons Ratio (y) = 0.56229 0.14522
# Poissons Ratio (z) = 0.23964 0.23964
#
# Static dielectric constant tensor:
#      x y z
#    x 3.231410 0.000000 0.000000 
#    y 0.000000 3.231410 0.000000 
#    z 0.000000 0.000000 2.918390 
# 
# 
# High freq. dielectric constant tensor:
#      x y z
#    x 1.647730 0.000000 0.000000 
#    y 0.000000 1.647730 0.000000 
#    z 0.000000 0.000000 1.628690 
# 
# From -- ./inp_files/7658.got.cif
#   From: 2010.03.12/outbox.cif.g09.slc.cpg/sg191_4_cif.got.tgz:7658.got - 2010.04.01 12:09:02.
