data_PCOD8328076
_publ_section_title
;
Structure prediction by ZEFSAII (Michael W. Deem and Ramdas Pophale) SiO2 
 PCOD8328076
Probable space group: P -6 2 C
;
_chemical_formula_sum "Si O2"
_cell_formula_units_Z 48
_cell_length_a 18.789430
_cell_length_b 18.789430
_cell_length_c 8.628112
_cell_angle_alpha 90.000000
_cell_angle_beta 90.000000
_cell_angle_gamma 120.000000
_cell_volume 2637.992865
_symmetry_space_group_name_H-M "P -6 2 C"
_symmetry_group_IT_number 190
_symmetry_cell_setting 'hexagonal'
loop_
_space_group_symop_operation_xyz
x,y,z
-x+y,-x,1/2-z
-y,x-y,z
x,y,1/2-z
-x+y,-x,z
-y,x-y,1/2-z
x-y,-y,-z
-x,-x+y,-z
y,x,-z
y,x,1/2+z
x-y,-y,1/2+z
-x,-x+y,1/2+z
loop_
_atom_site_type_symbol
_atom_site_label
_atom_site_fract_x
_atom_site_fract_y
_atom_site_fract_z
Si Si1 0.756021 0.087032 0.066793
Si Si2 0.665932 0.489495 0.932511
Si Si3 0.760314 0.672663 0.566448
Si Si4 0.334344 0.505409 0.434617
O O1 0.758976 0.086067 0.250000
O O2 0.844647 0.153432 0.002621
O O3 0.684404 0.104906 0.012261
O O4 0.737124 0.000000 0.000000
O O5 0.659165 0.480479 0.750000
O O6 0.688967 0.581129 0.984301
O O7 0.577717 0.421594 0.000437
O O8 0.737654 0.472084 0.988029
O O9 0.768703 0.679909 0.750000
O O10 0.738845 0.738845 0.500000
O O11 0.333283 0.494346 0.250000
#
# Coordination Sequence:
#
# PCOD8328076 Si02
#       4
#    12  12  12  12
#     4  11  22  37  55  77 103 135 172 215 262 312
#     4   8  15  27  48  74 104 140 179 217 256 298
#     4  10  20  36  56  80 106 136 171 211 258 313
#     4   9  16  30  50  75 105 141 181 221 261 305
#
# _framework density 18.195651000000002
#
# number of rings (size 3 to 8) (size 9 to 14) (size 15 to 20)
#    0.000    2.500    0.000    5.000    0.000    3.000 
#    0.000    8.750    0.000    0.500    0.000    3.500 
#    0.000    0.000    0.000    0.000    0.000    0.000 
#
# Total GULP energy -595101.743210 kJ/mol
# GULP energy per Si atom -12397.952984 kJ/mol
# Density = 1.815424 g / cm^3
# Si number density = 18.195651 Si / 1000 Ang^3
#
#
#
# Elastic Constant Matrix: (Units=GPa)
#
#
# Indices 1 2 3 4 5 6 
#
# 1 117.2983 85.4076 49.2163 0.0000 0.0000 0.0000
# 2 85.4076 117.2983 49.2163 0.0000 0.0000 0.0000
# 3 49.2163 49.2163 92.2156 0.0000 0.0000 0.0000
# 4 0.0000 0.0000 0.0000 23.8875 0.0000 0.0000
# 5 0.0000 0.0000 0.0000 0.0000 23.8875 0.0000
# 6 0.0000 0.0000 0.0000 0.0000 0.0000 15.9454
#
#
#
# Elastic Compliance Matrix: (Units=1/GPa)
#
#
# Indices 1 2 3 4 5 6 
#
# 1 0.019008 -0.012349 -0.003554 0.000000 0.000000 0.000000
# 2 -0.012349 0.019008 -0.003554 0.000000 0.000000 0.000000
# 3 -0.003554 -0.003554 0.014638 0.000000 0.000000 0.000000
# 4 0.000000 0.000000 0.000000 0.041863 0.000000 0.000000
# 5 0.000000 0.000000 0.000000 0.000000 0.041863 0.000000
# 6 0.000000 0.000000 0.000000 0.000000 0.000000 0.062714
#
#
# Mechanical properties :
#
#
# Convention : Reuss Voigt Hill
#
# Bulk Modulus (GPa) = 72.78091 77.16587 74.97339
# Shear Modulus (GPa) = 20.61109 22.27554 21.44331
#
# Velocity S-wave (km/s) = 3.36928 3.50269 3.43663
# Velocity P-wave (km/s) = 7.43115 7.67199 7.55253
#
# Compressibility (1/GPa) = 0.01373987
#
# Stress axis : x y z
#
# Youngs Moduli (GPa) = 52.60926 52.60926 68.31651
#
# Poissons Ratio (x) = 0.64967 0.24280
# Poissons Ratio (y) = 0.64967 0.24280
# Poissons Ratio (z) = 0.18697 0.18697
#
# Static dielectric constant tensor:
#      x y z
#    x 3.364240 0.000000 0.000000 
#    y 0.000000 3.364240 0.000000 
#    z 0.000000 0.000000 3.143870 
# 
# 
# High freq. dielectric constant tensor:
#      x y z
#    x 1.698950 0.000000 0.000000 
#    y 0.000000 1.698950 0.000000 
#    z 0.000000 0.000000 1.688900 
# 
# From -- ./inp_files/606.got.cif
#   From: 2010.06.25/outbox.cif.g09.slc.cpg/sg190_1_cif.got.tgz:606.got - 2010.06.28 13:08:06.
