data_PCOD8328143
_publ_section_title
;
Structure prediction by ZEFSAII (Michael W. Deem and Ramdas Pophale) SiO2 
 PCOD8328143
Probable space group: P -6 2 C
;
_chemical_formula_sum "Si O2"
_cell_formula_units_Z 48
_cell_length_a 10.616932
_cell_length_b 10.616932
_cell_length_c 27.544157
_cell_angle_alpha 90.000000
_cell_angle_beta 90.000000
_cell_angle_gamma 120.000000
_cell_volume 2688.798074
_symmetry_space_group_name_H-M "P -6 2 C"
_symmetry_group_IT_number 190
_symmetry_cell_setting 'hexagonal'
loop_
_space_group_symop_operation_xyz
x,y,z
-x+y,-x,1/2-z
-y,x-y,z
x,y,1/2-z
-x+y,-x,z
-y,x-y,1/2-z
x-y,-y,-z
-x,-x+y,-z
y,x,-z
y,x,1/2+z
x-y,-y,1/2+z
-x,-x+y,1/2+z
loop_
_atom_site_type_symbol
_atom_site_label
_atom_site_fract_x
_atom_site_fract_y
_atom_site_fract_z
Si Si1 0.326047 0.183001 0.529083
Si Si2 0.638278 0.160045 0.695794
Si Si3 0.891337 0.272884 0.066829
Si Si4 0.586832 0.978508 0.896572
O O1 0.202623 0.202623 0.500000
O O2 0.431402 0.177539 0.487384
O O3 0.421600 0.317008 0.564745
O O4 0.258017 0.035657 0.561215
O O5 0.794965 0.308097 0.688967
O O6 0.627892 0.096931 0.750000
O O7 0.618310 0.038676 0.657805
O O8 0.776982 0.145710 0.101891
O O9 0.918707 0.421151 0.089886
#
# Coordination Sequence:
#
# PCOD8328143 Si02
#       4
#    12  12  12  12
#     4   9  21  37  50  76 114 157 190 226 280 341
#     4   8  17  35  61  88 111 143 192 238 284 350
#     4  10  22  35  52  82 113 146 198 232 279 348
#     4  11  20  38  56  82 115 154 188 246 290 336
#
# _framework density 17.851842000000001
#
# number of rings (size 3 to 8) (size 9 to 14) (size 15 to 20)
#    0.500    2.000    0.000    2.000   10.500    0.000 
#   40.500    1.250    0.000    1.500    0.000    0.000 
#    0.000    0.000    0.000    0.000    0.000    0.000 
#
# Total GULP energy -594687.182624 kJ/mol
# GULP energy per Si atom -12389.316305 kJ/mol
# Density = 1.781121 g / cm^3
# Si number density = 17.851842 Si / 1000 Ang^3
#
#
#
# Elastic Constant Matrix: (Units=GPa)
#
#
# Indices 1 2 3 4 5 6 
#
# 1 72.6707 31.1947 59.5143 0.0000 0.0000 0.0000
# 2 31.1947 72.6707 59.5143 0.0000 0.0000 0.0000
# 3 59.5143 59.5143 141.3559 0.0000 0.0000 0.0000
# 4 0.0000 0.0000 0.0000 30.7360 0.0000 0.0000
# 5 0.0000 0.0000 0.0000 0.0000 30.7360 0.0000
# 6 0.0000 0.0000 0.0000 0.0000 0.0000 20.7380
#
#
#
# Elastic Compliance Matrix: (Units=1/GPa)
#
#
# Indices 1 2 3 4 5 6 
#
# 1 0.021357 -0.002753 -0.007833 0.000000 0.000000 0.000000
# 2 -0.002753 0.021357 -0.007833 0.000000 0.000000 0.000000
# 3 -0.007833 -0.007833 0.013670 0.000000 0.000000 0.000000
# 4 0.000000 0.000000 0.000000 0.032535 0.000000 0.000000
# 5 0.000000 0.000000 0.000000 0.000000 0.032535 0.000000
# 6 0.000000 0.000000 0.000000 0.000000 0.000000 0.048221
#
#
# Mechanical properties :
#
#
# Convention : Reuss Voigt Hill
#
# Bulk Modulus (GPa) = 51.15866 65.23821 58.19844
# Shear Modulus (GPa) = 23.47107 25.54029 24.50568
#
# Velocity S-wave (km/s) = 3.62991 3.78654 3.70905
# Velocity P-wave (km/s) = 6.80352 7.46597 7.14243
#
# Compressibility (1/GPa) = 0.01954703
#
# Stress axis : x y z
#
# Youngs Moduli (GPa) = 46.82256 46.82256 73.15319
#
# Poissons Ratio (x) = 0.12891 0.57299
# Poissons Ratio (y) = 0.12891 0.57299
# Poissons Ratio (z) = 0.36675 0.36675
#
# Static dielectric constant tensor:
#      x y z
#    x 3.250910 0.000000 0.000000 
#    y 0.000000 3.250910 0.000000 
#    z 0.000000 0.000000 3.185550 
# 
# 
# High freq. dielectric constant tensor:
#      x y z
#    x 1.677240 0.000000 0.000000 
#    y 0.000000 1.677240 0.000000 
#    z 0.000000 0.000000 1.677330 
# 
# From -- ./inp_files/4829.got.cif
#   From: 2010.06.25/outbox.cif.g09.slc.cpg/sg190_3_cif.got.tgz:4829.got - 2010.06.28 13:08:06.
