data_PCOD8328770
_publ_section_title
;
Structure prediction by ZEFSAII (Michael W. Deem and Ramdas Pophale) SiO2 
 PCOD8328770
Probable space group: P 6/M M M
;
_chemical_formula_sum "Si O2"
_cell_formula_units_Z 96
_cell_length_a 23.017613
_cell_length_b 23.017613
_cell_length_c 12.192900
_cell_angle_alpha 90.000000
_cell_angle_beta 90.000000
_cell_angle_gamma 120.000000
_cell_volume 5594.460495
_symmetry_space_group_name_H-M "P 6/M M M"
_symmetry_group_IT_number 191
_symmetry_cell_setting 'hexagonal'
loop_
_space_group_symop_operation_xyz
x,y,z
x-y,x,z
-y,x-y,z
-x,-y,z
-x+y,-x,z
y,-x+y,z
x-y,-y,-z
-x,-x+y,-z
y,x,-z
-y,-x,-z
-x+y,y,-z
x,x-y,-z
-x,-y,-z
-x+y,-x,-z
y,-x+y,-z
x,y,-z
x-y,x,-z
-y,x-y,-z
-x+y,y,z
x,x-y,z
-y,-x,z
y,x,z
x-y,-y,z
-x,-x+y,z
loop_
_atom_site_type_symbol
_atom_site_label
_atom_site_fract_x
_atom_site_fract_y
_atom_site_fract_z
Si Si1 0.634577 0.139066 0.777854
Si Si2 0.927550 0.395216 0.000000
Si Si3 0.076042 0.284661 0.500000
Si Si4 0.737743 0.262258 0.875422
Si Si5 0.360864 0.078057 0.284623
Si Si6 0.634412 0.817206 0.123637
O O1 0.557155 0.114310 0.743663
O O2 0.671151 0.218799 0.801719
O O3 0.670991 0.113199 0.693955
O O4 0.644457 0.110285 0.892727
O O5 0.933032 0.466516 0.000000
O O6 0.000000 0.401708 0.000000
O O7 0.128754 0.257507 0.500000
O O8 0.088432 0.331165 0.604218
O O9 0.000000 0.221180 0.500000
O O10 0.777502 0.222499 0.880800
O O11 0.722398 0.277603 0.000000
O O12 0.341535 0.112988 0.187665
O O13 0.330770 0.000000 0.255982
O O14 0.664589 0.832295 0.000000
#
# Coordination Sequence:
#
# PCOD8328770 Si02
#       6
#    24  12  12  12  24  12
#     4  10  19  31  45  65  96 129 168 220 271 316
#     4   9  16  25  40  62  90 125 159 199 259 325
#     4  10  20  38  61  84 107 137 175 207 241 289
#     4   9  16  28  43  59  89 131 172 209 261 324
#     4  10  20  33  53  77 102 136 174 212 255 305
#     4   9  18  31  47  73 107 138 163 202 253 309
#
# _framework density 17.159832000000002
#
# number of rings (size 3 to 8) (size 9 to 14) (size 15 to 20)
#    0.000    2.375    2.500    0.750    1.750    2.000 
#    0.750    0.625    0.000    2.375    0.000    0.000 
#    0.000    0.000    0.000    0.000    0.000   11.375 
#
# Total GULP energy -1189444.986153 kJ/mol
# GULP energy per Si atom -12390.051939 kJ/mol
# Density = 1.712078 g / cm^3
# Si number density = 17.159832 Si / 1000 Ang^3
#
#
#
# Elastic Constant Matrix: (Units=GPa)
#
#
# Indices 1 2 3 4 5 6 
#
# 1 90.8533 48.5798 31.5815 0.0000 0.0000 0.0000
# 2 48.5798 90.8533 31.5815 0.0000 0.0000 0.0000
# 3 31.5815 31.5815 77.2979 0.0000 0.0000 0.0000
# 4 0.0000 0.0000 0.0000 42.5441 0.0000 0.0000
# 5 0.0000 0.0000 0.0000 0.0000 42.5441 0.0000
# 6 0.0000 0.0000 0.0000 0.0000 0.0000 21.1368
#
#
#
# Elastic Compliance Matrix: (Units=1/GPa)
#
#
# Indices 1 2 3 4 5 6 
#
# 1 0.016228 -0.007427 -0.003596 0.000000 0.000000 0.000000
# 2 -0.007427 0.016228 -0.003596 0.000000 0.000000 0.000000
# 3 -0.003596 -0.003596 0.015875 0.000000 0.000000 0.000000
# 4 0.000000 0.000000 0.000000 0.023505 0.000000 0.000000
# 5 0.000000 0.000000 0.000000 0.000000 0.023505 0.000000
# 6 0.000000 0.000000 0.000000 0.000000 0.000000 0.047311
#
#
# Mechanical properties :
#
#
# Convention : Reuss Voigt Hill
#
# Bulk Modulus (GPa) = 52.37301 53.61003 52.99152
# Shear Modulus (GPa) = 28.04978 31.06243 29.55610
#
# Velocity S-wave (km/s) = 4.04743 4.25924 4.15468
# Velocity P-wave (km/s) = 7.24080 7.44967 7.34598
#
# Compressibility (1/GPa) = 0.01909380
#
# Stress axis : x y z
#
# Youngs Moduli (GPa) = 61.62149 61.62149 62.99144
#
# Poissons Ratio (x) = 0.45768 0.22650
# Poissons Ratio (y) = 0.45768 0.22650
# Poissons Ratio (z) = 0.22157 0.22157
#
# Static dielectric constant tensor:
#      x y z
#    x 3.328920 0.000000 0.000000 
#    y 0.000000 3.328920 0.000000 
#    z 0.000000 0.000000 3.170210 
# 
# 
# High freq. dielectric constant tensor:
#      x y z
#    x 1.652670 0.000000 0.000000 
#    y 0.000000 1.652670 0.000000 
#    z 0.000000 0.000000 1.636930 
# 
# From -- ./inp_files/2853.got.cif
#   From: 2010.03.12/outbox.cif.g09.slc.cpg/sg191_2_cif.got.tgz:2853.got - 2010.04.01 12:09:02.
