data_PCOD8328472
_publ_section_title
;
Structure prediction by ZEFSAII (Michael W. Deem and Ramdas Pophale) SiO2 
 PCOD8328472
Probable space group: P 6/M M M
;
_chemical_formula_sum "Si O2"
_cell_formula_units_Z 168
_cell_length_a 22.583910
_cell_length_b 22.583910
_cell_length_c 25.018106
_cell_angle_alpha 90.000000
_cell_angle_beta 90.000000
_cell_angle_gamma 120.000000
_cell_volume 11050.535620
_symmetry_space_group_name_H-M "P 6/M M M"
_symmetry_group_IT_number 191
_symmetry_cell_setting 'hexagonal'
loop_
_space_group_symop_operation_xyz
x,y,z
x-y,x,z
-y,x-y,z
-x,-y,z
-x+y,-x,z
y,-x+y,z
x-y,-y,-z
-x,-x+y,-z
y,x,-z
-y,-x,-z
-x+y,y,-z
x,x-y,-z
-x,-y,-z
-x+y,-x,-z
y,-x+y,-z
x,y,-z
x-y,x,-z
-y,x-y,-z
-x+y,y,z
x,x-y,z
-y,-x,z
y,x,z
x-y,-y,z
-x,-x+y,z
loop_
_atom_site_type_symbol
_atom_site_label
_atom_site_fract_x
_atom_site_fract_y
_atom_site_fract_z
Si Si1 0.674899 0.593979 0.160410
Si Si2 0.790578 0.075720 0.330973
Si Si3 0.793809 0.717694 0.208151
Si Si4 0.197533 0.666734 0.436622
Si Si5 0.918701 0.393091 0.738035
Si Si6 0.585455 0.664876 0.628933
Si Si7 0.607526 0.081324 0.058926
O O1 0.625674 0.625674 0.160888
O O2 0.752730 0.653650 0.168592
O O3 0.653833 0.541055 0.209536
O O4 0.666594 0.554980 0.104209
O O5 0.868653 0.131348 0.344922
O O6 0.772635 0.080809 0.269084
O O7 0.739913 0.087768 0.368442
O O8 0.779401 0.000000 0.341716
O O9 0.874210 0.748420 0.198717
O O10 0.777880 0.777880 0.194678
O O11 0.195205 0.667532 0.500000
O O12 0.200924 0.600462 0.416430
O O13 0.264735 0.735266 0.415488
O O14 0.128028 0.663187 0.416738
O O15 0.890021 0.445010 0.736533
O O16 0.894021 0.348030 0.684820
O O17 0.000000 0.432275 0.740696
O O18 0.608025 0.608025 0.617222
O O19 0.552732 0.105464 0.071710
O O20 0.569296 0.000000 0.059381
O O21 0.640277 0.108014 0.000000
#
# Coordination Sequence:
#
# PCOD8328472 Si02
#       7
#    24  24  24  24  24  24  24
#     4   9  14  22  35  52  76 106 137 166 198 240
#     4   9  16  27  43  63  87 113 141 174 214 261
#     4   9  16  26  40  58  80 106 138 174 213 260
#     4  10  21  36  51  64  81 111 151 188 218 252
#     4   9  15  22  34  55  83 110 132 158 196 243
#     4  10  18  29  45  67  91 111 135 173 220 266
#     4   8  13  20  31  50  76 106 138 166 191 225
#
# _framework density 15.202883
#
# number of rings (size 3 to 8) (size 9 to 14) (size 15 to 20)
#    0.000    2.857    1.429    1.857    0.000    3.429 
#    0.000    0.714    0.000    0.714    0.000    2.000 
#    0.000    0.000    0.000    0.571    0.000    2.286 
#
# Total GULP energy -2082141.950706 kJ/mol
# GULP energy per Si atom -12393.702088 kJ/mol
# Density = 1.516828 g / cm^3
# Si number density = 15.202883 Si / 1000 Ang^3
#
#
#
# Elastic Constant Matrix: (Units=GPa)
#
#
# Indices 1 2 3 4 5 6 
#
# 1 80.2576 48.1495 27.1549 0.0000 0.0000 0.0000
# 2 48.1495 80.2576 27.1549 0.0000 0.0000 0.0000
# 3 27.1549 27.1549 43.7498 0.0000 0.0000 0.0000
# 4 0.0000 0.0000 0.0000 15.6179 0.0000 0.0000
# 5 0.0000 0.0000 0.0000 0.0000 15.6179 0.0000
# 6 0.0000 0.0000 0.0000 0.0000 0.0000 16.0541
#
#
#
# Elastic Compliance Matrix: (Units=1/GPa)
#
#
# Indices 1 2 3 4 5 6 
#
# 1 0.020852 -0.010292 -0.006554 0.000000 0.000000 0.000000
# 2 -0.010292 0.020852 -0.006554 0.000000 0.000000 0.000000
# 3 -0.006554 -0.006554 0.030994 0.000000 0.000000 0.000000
# 4 0.000000 0.000000 0.000000 0.064029 0.000000 0.000000
# 5 0.000000 0.000000 0.000000 0.000000 0.064029 0.000000
# 6 0.000000 0.000000 0.000000 0.000000 0.000000 0.062289
#
#
# Mechanical properties :
#
#
# Convention : Reuss Voigt Hill
#
# Bulk Modulus (GPa) = 38.61609 45.46484 42.04046
# Shear Modulus (GPa) = 15.69955 16.24502 15.97229
#
# Velocity S-wave (km/s) = 3.21700 3.27241 3.24483
# Velocity P-wave (km/s) = 6.26534 6.65196 6.46154
#
# Compressibility (1/GPa) = 0.02589594
#
# Stress axis : x y z
#
# Youngs Moduli (GPa) = 47.95634 47.95634 32.26467
#
# Poissons Ratio (x) = 0.49359 0.21147
# Poissons Ratio (y) = 0.49359 0.21147
# Poissons Ratio (z) = 0.31432 0.31432
#
# Static dielectric constant tensor:
#      x y z
#    x 2.754510 0.000000 0.000000 
#    y 0.000000 2.754510 0.000000 
#    z 0.000000 0.000000 2.992540 
# 
# 
# High freq. dielectric constant tensor:
#      x y z
#    x 1.557980 0.000000 0.000000 
#    y 0.000000 1.557980 0.000000 
#    z 0.000000 0.000000 1.569800 
# 
# From -- ./inp_files/9214.got.cif
#   From: 2010.03.12/outbox.cif.g09.slc.cpg/sg191_5_cif.got.tgz:9214.got - 2010.04.01 12:09:02.
