data_PCOD8328283
_publ_section_title
;
Structure prediction by ZEFSAII (Michael W. Deem and Ramdas Pophale) SiO2 
 PCOD8328283
Probable space group: P 6/M M M
;
_chemical_formula_sum "Si O2"
_cell_formula_units_Z 192
_cell_length_a 22.654566
_cell_length_b 22.654566
_cell_length_c 33.457204
_cell_angle_alpha 90.000000
_cell_angle_beta 90.000000
_cell_angle_gamma 120.000000
_cell_volume 14870.712230
_symmetry_space_group_name_H-M "P 6/M M M"
_symmetry_group_IT_number 191
_symmetry_cell_setting 'hexagonal'
loop_
_space_group_symop_operation_xyz
x,y,z
x-y,x,z
-y,x-y,z
-x,-y,z
-x+y,-x,z
y,-x+y,z
x-y,-y,-z
-x,-x+y,-z
y,x,-z
-y,-x,-z
-x+y,y,-z
x,x-y,-z
-x,-y,-z
-x+y,-x,-z
y,-x+y,-z
x,y,-z
x-y,x,-z
-y,x-y,-z
-x+y,y,z
x,x-y,z
-y,-x,z
y,x,z
x-y,-y,z
-x,-x+y,z
loop_
_atom_site_type_symbol
_atom_site_label
_atom_site_fract_x
_atom_site_fract_y
_atom_site_fract_z
Si Si1 0.470366 0.803354 0.192693
Si Si2 0.209618 0.923980 0.545376
Si Si3 0.531618 0.924827 0.752966
Si Si4 0.606321 0.526383 0.661846
Si Si5 0.665463 0.463051 0.546771
Si Si6 0.470197 0.667019 0.900024
Si Si7 0.412642 0.274567 0.599123
Si Si8 0.924443 0.392132 0.044967
O O1 0.395269 0.790537 0.202563
O O2 0.471988 0.735994 0.205467
O O3 0.528783 0.867263 0.217489
O O4 0.487974 0.820273 0.146314
O O5 0.230222 0.914435 0.500000
O O6 0.129967 0.870034 0.552610
O O7 0.254736 0.914327 0.579313
O O8 0.221695 0.000000 0.550612
O O9 0.465224 0.930448 0.760346
O O10 0.533399 0.902726 0.707565
O O11 0.597088 0.000000 0.761892
O O12 0.554198 0.445803 0.651409
O O13 0.565442 0.565442 0.654455
O O14 0.675567 0.564641 0.636749
O O15 0.660438 0.468443 0.500000
O O16 0.720791 0.441581 0.558543
O O17 0.593774 0.406227 0.565004
O O18 0.684575 0.535386 0.563989
O O19 0.472144 0.736072 0.912923
O O20 0.394922 0.605079 0.909671
O O21 0.528130 0.661058 0.924922
O O22 0.414420 0.207210 0.612385
O O23 0.924807 0.462404 0.046935
O O24 0.000000 0.406662 0.057373
O O25 0.907120 0.362329 0.000000
#
# Coordination Sequence:
#
# PCOD8328283 Si02
#       8
#    24  24  24  24  24  24  24  24
#     4   9  16  25  37  52  70  89 109 136 172 213
#     4   9  17  29  44  60  77  95 113 133 158 189
#     4   8  15  27  40  52  65  84 112 144 174 204
#     4   9  17  29  42  53  68  91 117 144 173 203
#     4   9  16  25  36  49  67  92 121 150 176 199
#     4   9  16  24  34  49  68  89 111 137 172 213
#     4  10  18  26  38  56  75  93 114 140 168 200
#     4   8  14  24  35  46  62  85 113 143 172 201
#
# _framework density 12.911284999999999
#
# number of rings (size 3 to 8) (size 9 to 14) (size 15 to 20)
#    0.000    3.125    0.000    2.625    0.000    4.250 
#    0.000    2.500    0.000    1.125    0.000    6.125 
#    0.000    0.000    0.000    0.000    0.000    0.000 
#
# Total GULP energy -2379145.172294 kJ/mol
# GULP energy per Si atom -12391.381106 kJ/mol
# Density = 1.288190 g / cm^3
# Si number density = 12.911285 Si / 1000 Ang^3
#
#
#
# Elastic Constant Matrix: (Units=GPa)
#
#
# Indices 1 2 3 4 5 6 
#
# 1 70.2597 39.7135 41.7857 0.0000 0.0000 0.0000
# 2 39.7135 70.2597 41.7857 0.0000 0.0000 0.0000
# 3 41.7857 41.7857 58.1207 0.0000 0.0000 0.0000
# 4 0.0000 0.0000 0.0000 18.2238 0.0000 0.0000
# 5 0.0000 0.0000 0.0000 0.0000 18.2238 0.0000
# 6 0.0000 0.0000 0.0000 0.0000 0.0000 15.2731
#
#
#
# Elastic Compliance Matrix: (Units=1/GPa)
#
#
# Indices 1 2 3 4 5 6 
#
# 1 0.026391 -0.006347 -0.014411 0.000000 0.000000 0.000000
# 2 -0.006347 0.026391 -0.014411 0.000000 0.000000 0.000000
# 3 -0.014411 -0.014411 0.037927 0.000000 0.000000 0.000000
# 4 0.000000 0.000000 0.000000 0.054873 0.000000 0.000000
# 5 0.000000 0.000000 0.000000 0.000000 0.054873 0.000000
# 6 0.000000 0.000000 0.000000 0.000000 0.000000 0.065475
#
#
# Mechanical properties :
#
#
# Convention : Reuss Voigt Hill
#
# Bulk Modulus (GPa) = 49.08653 49.46777 49.27715
# Shear Modulus (GPa) = 14.57487 15.36780 14.97134
#
# Velocity S-wave (km/s) = 3.36348 3.45376 3.40892
# Velocity P-wave (km/s) = 7.29279 7.36895 7.33097
#
# Compressibility (1/GPa) = 0.02037219
#
# Stress axis : x y z
#
# Youngs Moduli (GPa) = 37.89209 37.89209 26.36670
#
# Poissons Ratio (x) = 0.24049 0.37996
# Poissons Ratio (y) = 0.24049 0.37996
# Poissons Ratio (z) = 0.54605 0.54605
#
# Static dielectric constant tensor:
#      x y z
#    x 2.566320 0.000000 0.000000 
#    y 0.000000 2.566320 0.000000 
#    z 0.000000 0.000000 2.642800 
# 
# 
# High freq. dielectric constant tensor:
#      x y z
#    x 1.470030 0.000000 0.000000 
#    y 0.000000 1.470030 0.000000 
#    z 0.000000 0.000000 1.486550 
# 
# From -- ./inp_files/10128.got.cif
#   From: 2010.03.12/outbox.cif.g09.slc.cpg/sg191_6_cif.got.tgz:10128.got - 2010.04.01 12:09:02.
