data_PCOD8328145
_publ_section_title
;
Structure prediction by ZEFSAII (Michael W. Deem and Ramdas Pophale) SiO2 
 PCOD8328145
Probable space group: P -6 2 C
;
_chemical_formula_sum "Si O2"
_cell_formula_units_Z 72
_cell_length_a 15.473541
_cell_length_b 15.473541
_cell_length_c 17.022109
_cell_angle_alpha 90.000000
_cell_angle_beta 90.000000
_cell_angle_gamma 120.000000
_cell_volume 3529.583161
_symmetry_space_group_name_H-M "P -6 2 C"
_symmetry_group_IT_number 190
_symmetry_cell_setting 'hexagonal'
loop_
_space_group_symop_operation_xyz
x,y,z
-x+y,-x,1/2-z
-y,x-y,z
x,y,1/2-z
-x+y,-x,z
-y,x-y,1/2-z
x-y,-y,-z
-x,-x+y,-z
y,x,-z
y,x,1/2+z
x-y,-y,1/2+z
-x,-x+y,1/2+z
loop_
_atom_site_type_symbol
_atom_site_label
_atom_site_fract_x
_atom_site_fract_y
_atom_site_fract_z
Si Si1 0.000000 0.717816 0.160613
Si Si2 0.109448 0.109448 0.913516
Si Si3 0.735308 0.199407 0.157057
Si Si4 0.199407 0.735308 0.342943
Si Si5 0.523003 0.116369 0.407593
Si Si6 0.523003 0.116369 0.907593
O O1 0.000000 0.688039 0.250000
O O2 0.000000 0.820792 0.154557
O O3 0.099943 0.730446 0.121681
O O4 0.900057 0.630503 0.121681
O O5 0.000000 0.098248 0.904777
O O6 0.153574 0.153574 0.000000
O O7 0.754056 0.213085 0.250000
O O8 0.627726 0.185332 0.136453
O O9 0.829518 0.289993 0.113967
O O10 0.213085 0.754056 0.250000
O O11 0.185332 0.627726 0.363547
O O12 0.289993 0.829518 0.386033
O O13 0.541392 0.120887 0.500000
O O14 0.464899 0.000000 0.379054
#
# Coordination Sequence:
#
# PCOD8328145 Si02
#       6
#    12  12  12  12  12  12
#     4  10  22  38  60  89 118 155 200 247 302 361
#     4   8  18  36  56  81 114 153 194 237 290 353
#     4  11  23  41  64  90 125 164 207 258 314 373
#     4  11  23  41  64  90 125 164 207 258 314 373
#     4  11  24  42  64  93 127 166 214 262 316 381
#     4  11  24  42  64  93 127 166 214 262 316 381
#
# _framework density 20.399010000000001
#
# number of rings (size 3 to 8) (size 9 to 14) (size 15 to 20)
#    0.333    1.333    1.667    2.667    0.000    6.667 
#    0.000    6.667    0.000    0.000    0.000    0.000 
#    0.000    0.000    0.000    0.000    0.000    0.000 
#
# Total GULP energy -892523.608789 kJ/mol
# GULP energy per Si atom -12396.161233 kJ/mol
# Density = 2.035258 g / cm^3
# Si number density = 20.399010 Si / 1000 Ang^3
#
#
#
# Elastic Constant Matrix: (Units=GPa)
#
#
# Indices 1 2 3 4 5 6 
#
# 1 112.8626 37.9973 19.2981 0.0000 0.0000 0.0000
# 2 37.9973 112.8626 19.2981 0.0000 0.0000 0.0000
# 3 19.2981 19.2981 45.9623 0.0000 0.0000 0.0000
# 4 0.0000 0.0000 0.0000 31.8198 0.0000 0.0000
# 5 0.0000 0.0000 0.0000 0.0000 31.8198 0.0000
# 6 0.0000 0.0000 0.0000 0.0000 0.0000 37.4326
#
#
#
# Elastic Compliance Matrix: (Units=1/GPa)
#
#
# Indices 1 2 3 4 5 6 
#
# 1 0.010392 -0.002965 -0.003118 0.000000 0.000000 0.000000
# 2 -0.002965 0.010392 -0.003118 0.000000 0.000000 0.000000
# 3 -0.003118 -0.003118 0.024375 0.000000 0.000000 0.000000
# 4 0.000000 0.000000 0.000000 0.031427 0.000000 0.000000
# 5 0.000000 0.000000 0.000000 0.000000 0.031427 0.000000
# 6 0.000000 0.000000 0.000000 0.000000 0.000000 0.026715
#
#
# Mechanical properties :
#
#
# Convention : Reuss Voigt Hill
#
# Bulk Modulus (GPa) = 37.37516 47.20827 42.29171
# Shear Modulus (GPa) = 30.85474 33.22071 32.03773
#
# Velocity S-wave (km/s) = 3.89338 4.03990 3.96732
# Velocity P-wave (km/s) = 6.21072 6.70476 6.46246
#
# Compressibility (1/GPa) = 0.02675574
#
# Stress axis : x y z
#
# Youngs Moduli (GPa) = 96.22907 96.22907 41.02502
#
# Poissons Ratio (x) = 0.28536 0.12792
# Poissons Ratio (y) = 0.28536 0.12792
# Poissons Ratio (z) = 0.30005 0.30005
#
# Static dielectric constant tensor:
#      x y z
#    x 3.733820 0.000000 0.000000 
#    y 0.000000 3.733820 0.000000 
#    z 0.000000 0.000000 3.461020 
# 
# 
# High freq. dielectric constant tensor:
#      x y z
#    x 1.799630 0.000000 0.000000 
#    y 0.000000 1.799630 0.000000 
#    z 0.000000 0.000000 1.790910 
# 
# From -- ./inp_files/3754.got.cif
#   From: 2010.06.25/outbox.cif.g09.slc.cpg/sg190_2_cif.got.tgz:3754.got - 2010.06.28 13:08:06.
