data_PCOD8328066
_publ_section_title
;
Structure prediction by ZEFSAII (Michael W. Deem and Ramdas Pophale) SiO2 
 PCOD8328066
Probable space group: P -6 2 C
;
_chemical_formula_sum "Si O2"
_cell_formula_units_Z 72
_cell_length_a 23.694593
_cell_length_b 23.694593
_cell_length_c 8.519288
_cell_angle_alpha 90.000000
_cell_angle_beta 90.000000
_cell_angle_gamma 120.000000
_cell_volume 4142.213105
_symmetry_space_group_name_H-M "P -6 2 C"
_symmetry_group_IT_number 190
_symmetry_cell_setting 'hexagonal'
loop_
_space_group_symop_operation_xyz
x,y,z
-x+y,-x,1/2-z
-y,x-y,z
x,y,1/2-z
-x+y,-x,z
-y,x-y,1/2-z
x-y,-y,-z
-x,-x+y,-z
y,x,-z
y,x,1/2+z
x-y,-y,1/2+z
-x,-x+y,1/2+z
loop_
_atom_site_type_symbol
_atom_site_label
_atom_site_fract_x
_atom_site_fract_y
_atom_site_fract_z
Si Si1 0.474314 0.069528 0.066354
Si Si2 0.930307 0.191452 0.565125
Si Si3 0.598953 0.741790 0.936397
Si Si4 0.594008 0.397841 0.434747
Si Si5 0.069609 0.929433 0.935380
Si Si6 0.524633 0.259543 0.934426
O O1 0.467337 0.063390 0.250000
O O2 0.424991 0.093170 0.004530
O O3 0.547819 0.122577 0.018534
O O4 0.457221 0.000000 0.000000
O O5 0.935559 0.186633 0.750000
O O6 0.875991 0.209675 0.520113
O O7 0.909211 0.121744 0.490088
O O8 0.000000 0.246652 0.500000
O O9 0.607046 0.748371 0.750000
O O10 0.546557 0.761807 0.991118
O O11 0.586765 0.383327 0.250000
O O12 0.668215 0.422774 0.483225
O O13 0.545398 0.333931 0.531180
O O14 0.068150 0.931508 0.750000
O O15 0.000000 0.875450 0.000000
O O16 0.087566 0.000000 0.000000
O O17 0.523020 0.246744 0.750000
#
# Coordination Sequence:
#
# PCOD8328066 Si02
#       6
#    12  12  12  12  12  12
#     4   9  19  32  50  73  99 130 165 200 243 292
#     4  11  21  34  52  77 105 136 171 210 253 301
#     4  10  20  35  52  74 103 137 169 204 252 305
#     4  10  20  35  51  71 101 137 167 200 249 305
#     4  11  21  35  53  76 104 136 171 210 254 304
#     4  11  21  33  51  77 102 130 168 212 253 297
#
# _framework density 17.382012
#
# number of rings (size 3 to 8) (size 9 to 14) (size 15 to 20)
#    0.000    1.667    0.000    8.500    0.000    5.333 
#    0.000    0.000    0.000    1.000    0.000    4.667 
#    0.000    0.000    0.000    0.000    0.000    0.000 
#
# Total GULP energy -893069.295498 kJ/mol
# GULP energy per Si atom -12403.740215 kJ/mol
# Density = 1.734245 g / cm^3
# Si number density = 17.382012 Si / 1000 Ang^3
#
#
#
# Elastic Constant Matrix: (Units=GPa)
#
#
# Indices 1 2 3 4 5 6 
#
# 1 108.6301 57.1196 29.6968 0.0000 0.0000 0.0000
# 2 57.1196 108.6301 29.6968 0.0000 0.0000 0.0000
# 3 29.6968 29.6968 95.7147 0.0000 0.0000 0.0000
# 4 0.0000 0.0000 0.0000 30.2014 0.0000 0.0000
# 5 0.0000 0.0000 0.0000 0.0000 30.2014 0.0000
# 6 0.0000 0.0000 0.0000 0.0000 0.0000 25.7552
#
#
#
# Elastic Compliance Matrix: (Units=1/GPa)
#
#
# Indices 1 2 3 4 5 6 
#
# 1 0.013101 -0.006313 -0.002106 0.000000 0.000000 0.000000
# 2 -0.006313 0.013101 -0.002106 0.000000 0.000000 0.000000
# 3 -0.002106 -0.002106 0.011755 0.000000 0.000000 0.000000
# 4 0.000000 0.000000 0.000000 0.033111 0.000000 0.000000
# 5 0.000000 0.000000 0.000000 0.000000 0.033111 0.000000
# 6 0.000000 0.000000 0.000000 0.000000 0.000000 0.038827
#
#
# Mechanical properties :
#
#
# Convention : Reuss Voigt Hill
#
# Bulk Modulus (GPa) = 59.14999 60.66680 59.90840
# Shear Modulus (GPa) = 29.46544 30.32904 29.89724
#
# Velocity S-wave (km/s) = 4.12171 4.18167 4.15180
# Velocity P-wave (km/s) = 7.53357 7.63499 7.58445
#
# Compressibility (1/GPa) = 0.01690617
#
# Stress axis : x y z
#
# Youngs Moduli (GPa) = 76.33188 76.33188 85.07334
#
# Poissons Ratio (x) = 0.48187 0.17917
# Poissons Ratio (y) = 0.48187 0.17917
# Poissons Ratio (z) = 0.16076 0.16076
#
# Static dielectric constant tensor:
#      x y z
#    x 2.783480 0.000000 0.000000 
#    y 0.000000 2.783480 0.000000 
#    z 0.000000 0.000000 3.316250 
# 
# 
# High freq. dielectric constant tensor:
#      x y z
#    x 1.661810 0.000000 0.000000 
#    y 0.000000 1.661810 0.000000 
#    z 0.000000 0.000000 1.689750 
# 
# From -- ./inp_files/1261.got.cif
#   From: 2010.06.25/outbox.cif.g09.slc.cpg/sg190_1_cif.got.tgz:1261.got - 2010.06.28 13:08:06.
