data_PCOD8328946
_publ_section_title
;
Structure prediction by ZEFSAII (Michael W. Deem and Ramdas Pophale) SiO2 
 PCOD8328946
Probable space group: P 6/M M M
;
_chemical_formula_sum "Si O2"
_cell_formula_units_Z 72
_cell_length_a 17.971453
_cell_length_b 17.971453
_cell_length_c 15.147917
_cell_angle_alpha 90.000000
_cell_angle_beta 90.000000
_cell_angle_gamma 120.000000
_cell_volume 4236.916756
_symmetry_space_group_name_H-M "P 6/M M M"
_symmetry_group_IT_number 191
_symmetry_cell_setting 'hexagonal'
loop_
_space_group_symop_operation_xyz
x,y,z
x-y,x,z
-y,x-y,z
-x,-y,z
-x+y,-x,z
y,-x+y,z
x-y,-y,-z
-x,-x+y,-z
y,x,-z
-y,-x,-z
-x+y,y,-z
x,x-y,-z
-x,-y,-z
-x+y,-x,-z
y,-x+y,-z
x,y,-z
x-y,x,-z
-y,x-y,-z
-x+y,y,z
x,x-y,z
-y,-x,z
y,x,z
x-y,-y,z
-x,-x+y,z
loop_
_atom_site_type_symbol
_atom_site_label
_atom_site_fract_x
_atom_site_fract_y
_atom_site_fract_z
Si Si1 0.898181 0.366483 0.902026
Si Si2 0.360878 0.097669 0.253354
Si Si3 0.504082 0.666476 0.398887
O O1 0.861154 0.430577 0.881329
O O2 0.866036 0.291787 0.829772
O O3 0.000000 0.421116 0.898008
O O4 0.868004 0.326090 0.000000
O O5 0.321024 0.160512 0.264501
O O6 0.414290 0.100432 0.339609
O O7 0.283675 0.000000 0.239932
O O8 0.529864 0.664073 0.500000
O O9 0.477260 0.738630 0.384751
O O10 0.424344 0.575657 0.370031
#
# Coordination Sequence:
#
# PCOD8328946 Si02
#       3
#    24  24  24
#     4   8  14  26  45  68  92 116 141 170 207 255
#     4  10  20  32  46  65  89 117 151 192 235 274
#     4   9  17  29  46  69  97 126 151 174 205 252
#
# _framework density 16.993489
#
# number of rings (size 3 to 8) (size 9 to 14) (size 15 to 20)
#    0.000    3.000    0.000    2.333    0.000    4.667 
#    0.000    1.667    0.000    1.000    0.000    0.000 
#    0.000    0.000    0.000   16.667    0.000    0.000 
#
# Total GULP energy -892446.499439 kJ/mol
# GULP energy per Si atom -12395.090270 kJ/mol
# Density = 1.695481 g / cm^3
# Si number density = 16.993489 Si / 1000 Ang^3
#
#
#
# Elastic Constant Matrix: (Units=GPa)
#
#
# Indices 1 2 3 4 5 6 
#
# 1 70.4898 41.6148 31.8569 0.0000 0.0000 0.0000
# 2 41.6148 70.4898 31.8569 0.0000 0.0000 0.0000
# 3 31.8569 31.8569 86.6729 0.0000 0.0000 0.0000
# 4 0.0000 0.0000 0.0000 18.7165 0.0000 0.0000
# 5 0.0000 0.0000 0.0000 0.0000 18.7165 0.0000
# 6 0.0000 0.0000 0.0000 0.0000 0.0000 14.4375
#
#
#
# Elastic Compliance Matrix: (Units=1/GPa)
#
#
# Indices 1 2 3 4 5 6 
#
# 1 0.022954 -0.011678 -0.004144 0.000000 0.000000 0.000000
# 2 -0.011678 0.022954 -0.004144 0.000000 0.000000 0.000000
# 3 -0.004144 -0.004144 0.014584 0.000000 0.000000 0.000000
# 4 0.000000 0.000000 0.000000 0.053429 0.000000 0.000000
# 5 0.000000 0.000000 0.000000 0.000000 0.053429 0.000000
# 6 0.000000 0.000000 0.000000 0.000000 0.000000 0.069264
#
#
# Mechanical properties :
#
#
# Convention : Reuss Voigt Hill
#
# Bulk Modulus (GPa) = 48.64300 48.70106 48.67203
# Shear Modulus (GPa) = 17.64289 18.52903 18.08596
#
# Velocity S-wave (km/s) = 3.22563 3.30564 3.26588
# Velocity P-wave (km/s) = 6.52377 6.57956 6.55172
#
# Compressibility (1/GPa) = 0.02055794
#
# Stress axis : x y z
#
# Youngs Moduli (GPa) = 43.56566 43.56566 68.56732
#
# Poissons Ratio (x) = 0.50877 0.28417
# Poissons Ratio (y) = 0.50877 0.28417
# Poissons Ratio (z) = 0.18055 0.18055
#
# Static dielectric constant tensor:
#      x y z
#    x 2.887430 0.000000 0.000000 
#    y 0.000000 2.887430 0.000000 
#    z 0.000000 0.000000 3.519650 
# 
# 
# High freq. dielectric constant tensor:
#      x y z
#    x 1.624200 0.000000 0.000000 
#    y 0.000000 1.624200 0.000000 
#    z 0.000000 0.000000 1.672670 
# 
# From -- ./inp_files/3804.got.cif
#   From: 2010.03.12/outbox.cif.g09.slc.cpg/sg191_2_cif.got.tgz:3804.got - 2010.04.01 12:09:02.
