data_PCOD8328972
_publ_section_title
;
Structure prediction by ZEFSAII (Michael W. Deem and Ramdas Pophale) SiO2 
 PCOD8328972
Probable space group: P 6/M M M
;
_chemical_formula_sum "Si O2"
_cell_formula_units_Z 144
_cell_length_a 32.189002
_cell_length_b 32.189002
_cell_length_c 9.035507
_cell_angle_alpha 90.000000
_cell_angle_beta 90.000000
_cell_angle_gamma 120.000000
_cell_volume 8107.709549
_symmetry_space_group_name_H-M "P 6/M M M"
_symmetry_group_IT_number 191
_symmetry_cell_setting 'hexagonal'
loop_
_space_group_symop_operation_xyz
x,y,z
x-y,x,z
-y,x-y,z
-x,-y,z
-x+y,-x,z
y,-x+y,z
x-y,-y,-z
-x,-x+y,-z
y,x,-z
-y,-x,-z
-x+y,y,-z
x,x-y,-z
-x,-y,-z
-x+y,-x,-z
y,-x+y,-z
x,y,-z
x-y,x,-z
-y,x-y,-z
-x+y,y,z
x,x-y,z
-y,-x,z
y,x,z
x-y,-y,z
-x,-x+y,z
loop_
_atom_site_type_symbol
_atom_site_label
_atom_site_fract_x
_atom_site_fract_y
_atom_site_fract_z
Si Si1 0.139197 0.765203 0.173858
Si Si2 0.946435 0.146385 0.830089
Si Si3 0.477001 0.424558 0.665353
Si Si4 0.944762 0.714089 0.327425
Si Si5 0.526717 0.715584 0.671314
Si Si6 0.621011 0.145865 0.827358
O O1 0.180288 0.819713 0.210711
O O2 0.088790 0.754042 0.241489
O O3 0.152614 0.727929 0.244580
O O4 0.133321 0.755977 0.000000
O O5 0.909317 0.090684 0.795136
O O6 0.933734 0.178827 0.727577
O O7 0.000000 0.156343 0.796930
O O8 0.941805 0.158906 0.000000
O O9 0.467145 0.402168 0.500000
O O10 0.525127 0.474874 0.664416
O O11 0.433420 0.433420 0.714207
O O12 0.482363 0.389377 0.779416
O O13 0.932738 0.705891 0.500000
O O14 0.000000 0.729821 0.294885
O O15 0.533487 0.708190 0.500000
O O16 0.513222 0.756611 0.696060
O O17 0.482599 0.667511 0.739361
O O18 0.576895 0.153790 0.784475
O O19 0.631608 0.152053 0.000000
#
# Coordination Sequence:
#
# PCOD8328972 Si02
#       6
#    24  24  24  24  24  24
#     4  10  20  34  53  75  99 129 164 202 245 294
#     4   9  17  29  45  65  90 122 161 205 254 308
#     4   8  14  26  45  69  98 132 167 201 236 275
#     4  10  20  32  47  70 100 131 163 202 247 294
#     4  10  21  37  57  79 102 131 168 209 250 291
#     4  10  20  33  52  79 108 137 168 204 248 295
#
# _framework density 17.760871999999999
#
# number of rings (size 3 to 8) (size 9 to 14) (size 15 to 20)
#    0.000    2.500    0.000    3.000    0.000    6.667 
#    0.000    2.500    0.000    5.500    0.000    1.167 
#    0.000    0.000    0.000    4.167    0.000    4.333 
#
# Total GULP energy -1785500.842714 kJ/mol
# GULP energy per Si atom -12399.311408 kJ/mol
# Density = 1.772045 g / cm^3
# Si number density = 17.760872 Si / 1000 Ang^3
#
#
#
# Elastic Constant Matrix: (Units=GPa)
#
#
# Indices 1 2 3 4 5 6 
#
# 1 97.0997 54.7951 57.0229 0.0000 0.0000 0.0000
# 2 54.7951 97.0997 57.0229 0.0000 0.0000 0.0000
# 3 57.0229 57.0229 104.2526 0.0000 0.0000 0.0000
# 4 0.0000 0.0000 0.0000 27.5357 0.0000 0.0000
# 5 0.0000 0.0000 0.0000 0.0000 27.5357 0.0000
# 6 0.0000 0.0000 0.0000 0.0000 0.0000 21.1523
#
#
#
# Elastic Compliance Matrix: (Units=1/GPa)
#
#
# Indices 1 2 3 4 5 6 
#
# 1 0.017405 -0.006233 -0.006110 0.000000 0.000000 0.000000
# 2 -0.006233 0.017405 -0.006110 0.000000 0.000000 0.000000
# 3 -0.006110 -0.006110 0.016276 0.000000 0.000000 0.000000
# 4 0.000000 0.000000 0.000000 0.036316 0.000000 0.000000
# 5 0.000000 0.000000 0.000000 0.000000 0.036316 0.000000
# 6 0.000000 0.000000 0.000000 0.000000 0.000000 0.047276
#
#
# Mechanical properties :
#
#
# Convention : Reuss Voigt Hill
#
# Bulk Modulus (GPa) = 70.53376 70.68156 70.60766
# Shear Modulus (GPa) = 23.51515 23.88548 23.70032
#
# Velocity S-wave (km/s) = 3.64261 3.67118 3.65692
# Velocity P-wave (km/s) = 7.58226 7.60610 7.59419
#
# Compressibility (1/GPa) = 0.01417761
#
# Stress axis : x y z
#
# Youngs Moduli (GPa) = 57.45584 57.45584 61.43856
#
# Poissons Ratio (x) = 0.35814 0.37541
# Poissons Ratio (y) = 0.35814 0.37541
# Poissons Ratio (z) = 0.35107 0.35107
#
# Static dielectric constant tensor:
#      x y z
#    x 3.260160 0.000000 0.000000 
#    y 0.000000 3.260160 0.000000 
#    z 0.000000 0.000000 3.384510 
# 
# 
# High freq. dielectric constant tensor:
#      x y z
#    x 1.672880 0.000000 0.000000 
#    y 0.000000 1.672880 0.000000 
#    z 0.000000 0.000000 1.696660 
# 
# From -- ./inp_files/1955.got.cif
#   From: 2010.03.12/outbox.cif.g09.slc.cpg/sg191_1_cif.got.tgz:1955.got - 2010.04.01 12:09:02.
