data_PCOD8328596
_publ_section_title
;
Structure prediction by ZEFSAII (Michael W. Deem and Ramdas Pophale) SiO2 
 PCOD8328596
Probable space group: P 6/M M M
;
_chemical_formula_sum "Si O2"
_cell_formula_units_Z 132
_cell_length_a 18.564249
_cell_length_b 18.564249
_cell_length_c 27.604300
_cell_angle_alpha 90.000000
_cell_angle_beta 90.000000
_cell_angle_gamma 120.000000
_cell_volume 8238.765471
_symmetry_space_group_name_H-M "P 6/M M M"
_symmetry_group_IT_number 191
_symmetry_cell_setting 'hexagonal'
loop_
_space_group_symop_operation_xyz
x,y,z
x-y,x,z
-y,x-y,z
-x,-y,z
-x+y,-x,z
y,-x+y,z
x-y,-y,-z
-x,-x+y,-z
y,x,-z
-y,-x,-z
-x+y,y,-z
x,x-y,-z
-x,-y,-z
-x+y,-x,-z
y,-x+y,-z
x,y,-z
x-y,x,-z
-y,x-y,-z
-x+y,y,z
x,x-y,z
-y,-x,z
y,x,z
x-y,-y,z
-x,-x+y,z
loop_
_atom_site_type_symbol
_atom_site_label
_atom_site_fract_x
_atom_site_fract_y
_atom_site_fract_z
Si Si1 0.093334 0.744592 0.330552
Si Si2 0.093081 0.348285 0.781523
Si Si3 0.368007 0.461166 0.052719
Si Si4 0.331537 0.499608 0.600846
Si Si5 0.461113 0.368334 0.500000
Si Si6 0.500646 0.331051 0.151459
O O1 0.159453 0.840548 0.344467
O O2 0.102000 0.728016 0.274483
O O3 0.111700 0.681349 0.360192
O O4 0.000000 0.725751 0.342319
O O5 0.159517 0.319034 0.795550
O O6 0.109990 0.429035 0.811645
O O7 0.000000 0.273115 0.792898
O O8 0.454582 0.545419 0.052642
O O9 0.384547 0.384547 0.060742
O O10 0.313069 0.463736 0.096809
O O11 0.324100 0.451237 0.000000
O O12 0.264963 0.529925 0.608367
O O13 0.423247 0.576753 0.608387
O O14 0.317965 0.459295 0.547588
O O15 0.381512 0.381512 0.500000
O O16 0.543829 0.456172 0.500000
O O17 0.531382 0.265691 0.162631
O O18 0.576225 0.423776 0.158505
#
# Coordination Sequence:
#
# PCOD8328596 Si02
#       6
#    24  24  24  24  12  24
#     4   9  18  32  49  68  89 113 141 175 216 261
#     4   9  18  32  49  68  88 111 140 174 215 262
#     4   8  14  25  40  56  74 100 138 183 226 263
#     4  10  19  30  44  63  89 121 155 188 221 257
#     4   9  17  28  42  60  82 111 149 191 229 262
#     4  10  19  29  41  59  85 117 152 187 219 250
#
# _framework density 16.021816999999999
#
# number of rings (size 3 to 8) (size 9 to 14) (size 15 to 20)
#    0.000    2.818    0.000    2.273    0.000    3.273 
#    0.000    2.727    0.000    3.636    0.000    2.545 
#    0.000    0.000    0.000    0.000    0.000   18.909 
#
# Total GULP energy -1636125.907685 kJ/mol
# GULP energy per Si atom -12394.893240 kJ/mol
# Density = 1.598535 g / cm^3
# Si number density = 16.021817 Si / 1000 Ang^3
#
#
#
# Elastic Constant Matrix: (Units=GPa)
#
#
# Indices 1 2 3 4 5 6 
#
# 1 82.0904 55.0668 43.3338 0.0000 0.0000 0.0000
# 2 55.0668 82.0904 43.3338 0.0000 0.0000 0.0000
# 3 43.3338 43.3338 78.2863 0.0000 0.0000 0.0000
# 4 0.0000 0.0000 0.0000 21.8698 0.0000 0.0000
# 5 0.0000 0.0000 0.0000 0.0000 21.8698 0.0000
# 6 0.0000 0.0000 0.0000 0.0000 0.0000 13.5118
#
#
#
# Elastic Compliance Matrix: (Units=1/GPa)
#
#
# Indices 1 2 3 4 5 6 
#
# 1 0.024109 -0.012896 -0.006207 0.000000 0.000000 0.000000
# 2 -0.012896 0.024109 -0.006207 0.000000 0.000000 0.000000
# 3 -0.006207 -0.006207 0.019645 0.000000 0.000000 0.000000
# 4 0.000000 0.000000 0.000000 0.045725 0.000000 0.000000
# 5 0.000000 0.000000 0.000000 0.000000 0.045725 0.000000
# 6 0.000000 0.000000 0.000000 0.000000 0.000000 0.074009
#
#
# Mechanical properties :
#
#
# Convention : Reuss Voigt Hill
#
# Bulk Modulus (GPa) = 57.99178 58.43735 58.21457
# Shear Modulus (GPa) = 17.25992 18.16577 17.71285
#
# Velocity S-wave (km/s) = 3.28575 3.37087 3.32858
# Velocity P-wave (km/s) = 7.11821 7.19049 7.15444
#
# Compressibility (1/GPa) = 0.01724382
#
# Stress axis : x y z
#
# Youngs Moduli (GPa) = 41.47872 41.47872 50.90431
#
# Poissons Ratio (x) = 0.53491 0.31594
# Poissons Ratio (y) = 0.53491 0.31594
# Poissons Ratio (z) = 0.25744 0.25744
#
# Static dielectric constant tensor:
#      x y z
#    x 2.933690 0.000000 0.000000 
#    y 0.000000 2.933690 0.000000 
#    z 0.000000 0.000000 3.338160 
# 
# 
# High freq. dielectric constant tensor:
#      x y z
#    x 1.595360 0.000000 0.000000 
#    y 0.000000 1.595360 0.000000 
#    z 0.000000 0.000000 1.628480 
# 
# From -- ./inp_files/10555.got.cif
#   From: 2010.03.12/outbox.cif.g09.slc.cpg/sg191_6_cif.got.tgz:10555.got - 2010.04.01 12:09:02.
