data_PCOD8328712
_publ_section_title
;
Structure prediction by ZEFSAII (Michael W. Deem and Ramdas Pophale) SiO2 
 PCOD8328712
Probable space group: P 6/M M M
;
_chemical_formula_sum "Si O2"
_cell_formula_units_Z 132
_cell_length_a 17.769031
_cell_length_b 17.769031
_cell_length_c 27.996943
_cell_angle_alpha 90.000000
_cell_angle_beta 90.000000
_cell_angle_gamma 120.000000
_cell_volume 7655.414931
_symmetry_space_group_name_H-M "P 6/M M M"
_symmetry_group_IT_number 191
_symmetry_cell_setting 'hexagonal'
loop_
_space_group_symop_operation_xyz
x,y,z
x-y,x,z
-y,x-y,z
-x,-y,z
-x+y,-x,z
y,-x+y,z
x-y,-y,-z
-x,-x+y,-z
y,x,-z
-y,-x,-z
-x+y,y,-z
x,x-y,-z
-x,-y,-z
-x+y,-x,-z
y,-x+y,-z
x,y,-z
x-y,x,-z
-y,x-y,-z
-x+y,y,z
x,x-y,z
-y,-x,z
y,x,z
x-y,-y,z
-x,-x+y,z
loop_
_atom_site_type_symbol
_atom_site_label
_atom_site_fract_x
_atom_site_fract_y
_atom_site_fract_z
Si Si1 0.102424 0.467518 0.774417
Si Si2 0.901164 0.268223 0.684953
Si Si3 0.540974 0.903793 0.500000
Si Si4 0.160889 0.494263 0.945526
Si Si5 0.098453 0.365603 0.863024
Si Si6 0.836725 0.505869 0.601322
O O1 0.144929 0.572465 0.774130
O O2 0.131962 0.436962 0.727670
O O3 0.132248 0.437690 0.821392
O O4 0.000000 0.424876 0.774550
O O5 0.836021 0.163980 0.682116
O O6 0.898678 0.315152 0.636444
O O7 0.000000 0.288618 0.692995
O O8 0.454548 0.909096 0.500000
O O9 0.542935 0.854365 0.452515
O O10 0.624331 0.000000 0.500000
O O11 0.261740 0.523480 0.938814
O O12 0.148327 0.574164 0.930189
O O13 0.100639 0.412153 0.912609
O O14 0.130984 0.466488 0.000000
O O15 0.162896 0.325792 0.864834
O O16 0.000000 0.287557 0.854043
O O17 0.736049 0.472098 0.613257
O O18 0.857330 0.428665 0.608349
#
# Coordination Sequence:
#
# PCOD8328712 Si02
#       6
#    24  24  12  24  24  24
#     4   9  17  30  49  72  96 121 149 180 216 263
#     4  10  20  33  50  71  94 122 156 195 237 279
#     4   9  17  28  42  60  84 119 161 197 227 264
#     4   9  17  29  46  69  97 127 156 186 223 270
#     4  10  20  33  49  69  93 122 157 197 239 280
#     4  10  19  30  45  66  93 124 157 193 232 274
#
# _framework density 17.242697
#
# number of rings (size 3 to 8) (size 9 to 14) (size 15 to 20)
#    0.000    2.455    0.000    2.818    0.000    4.000 
#    0.000    1.818    0.000    5.455    0.000    0.000 
#    0.000    4.364    0.000    4.545    0.000   18.909 
#
# Total GULP energy -1636560.282957 kJ/mol
# GULP energy per Si atom -12398.183962 kJ/mol
# Density = 1.720345 g / cm^3
# Si number density = 17.242697 Si / 1000 Ang^3
#
#
#
# Elastic Constant Matrix: (Units=GPa)
#
#
# Indices 1 2 3 4 5 6 
#
# 1 80.9124 47.7503 29.1566 0.0000 0.0000 0.0000
# 2 47.7503 80.9124 29.1566 0.0000 0.0000 0.0000
# 3 29.1566 29.1566 102.1281 0.0000 0.0000 0.0000
# 4 0.0000 0.0000 0.0000 21.3155 0.0000 0.0000
# 5 0.0000 0.0000 0.0000 0.0000 21.3155 0.0000
# 6 0.0000 0.0000 0.0000 0.0000 0.0000 16.5810
#
#
#
# Elastic Compliance Matrix: (Units=1/GPa)
#
#
# Indices 1 2 3 4 5 6 
#
# 1 0.019541 -0.010614 -0.002549 0.000000 0.000000 0.000000
# 2 -0.010614 0.019541 -0.002549 0.000000 0.000000 0.000000
# 3 -0.002549 -0.002549 0.011247 0.000000 0.000000 0.000000
# 4 0.000000 0.000000 0.000000 0.046914 0.000000 0.000000
# 5 0.000000 0.000000 0.000000 0.000000 0.046914 0.000000
# 6 0.000000 0.000000 0.000000 0.000000 0.000000 0.060310
#
#
# Mechanical properties :
#
#
# Convention : Reuss Voigt Hill
#
# Bulk Modulus (GPa) = 52.89072 52.89779 52.89425
# Shear Modulus (GPa) = 20.64477 22.36837 21.50657
#
# Velocity S-wave (km/s) = 3.46396 3.60567 3.53552
# Velocity P-wave (km/s) = 6.83664 6.93393 6.88546
#
# Compressibility (1/GPa) = 0.01890691
#
# Stress axis : x y z
#
# Youngs Moduli (GPa) = 51.17400 51.17400 88.91362
#
# Poissons Ratio (x) = 0.54315 0.22661
# Poissons Ratio (y) = 0.54315 0.22661
# Poissons Ratio (z) = 0.13043 0.13043
#
# Static dielectric constant tensor:
#      x y z
#    x 2.997110 0.000000 0.000000 
#    y 0.000000 2.997110 0.000000 
#    z 0.000000 0.000000 3.467490 
# 
# 
# High freq. dielectric constant tensor:
#      x y z
#    x 1.639860 0.000000 0.000000 
#    y 0.000000 1.639860 0.000000 
#    z 0.000000 0.000000 1.685650 
# 
# From -- ./inp_files/9773.got.cif
#   From: 2010.03.12/outbox.cif.g09.slc.cpg/sg191_5_cif.got.tgz:9773.got - 2010.04.01 12:09:02.
