data_PCOD8328916
_publ_section_title
;
Structure prediction by ZEFSAII (Michael W. Deem and Ramdas Pophale) SiO2 
 PCOD8328916
Probable space group: P 6/M M M
;
_chemical_formula_sum "Si O2"
_cell_formula_units_Z 96
_cell_length_a 32.820781
_cell_length_b 32.820781
_cell_length_c 7.733521
_cell_angle_alpha 90.000000
_cell_angle_beta 90.000000
_cell_angle_gamma 120.000000
_cell_volume 7214.491456
_symmetry_space_group_name_H-M "P 6/M M M"
_symmetry_group_IT_number 191
_symmetry_cell_setting 'hexagonal'
loop_
_space_group_symop_operation_xyz
x,y,z
x-y,x,z
-y,x-y,z
-x,-y,z
-x+y,-x,z
y,-x+y,z
x-y,-y,-z
-x,-x+y,-z
y,x,-z
-y,-x,-z
-x+y,y,-z
x,x-y,-z
-x,-y,-z
-x+y,-x,-z
y,-x+y,-z
x,y,-z
x-y,x,-z
-y,x-y,-z
-x+y,y,z
x,x-y,z
-y,-x,z
y,x,z
x-y,-y,z
-x,-x+y,z
loop_
_atom_site_type_symbol
_atom_site_label
_atom_site_fract_x
_atom_site_fract_y
_atom_site_fract_z
Si Si1 0.629632 0.056117 0.192191
Si Si2 0.088945 0.269799 0.693378
Si Si3 0.517813 0.573968 0.500000
Si Si4 0.199760 0.147216 0.000000
Si Si5 0.718194 0.052795 0.796545
O O1 0.606418 0.075415 0.329117
O O2 0.683417 0.073117 0.247776
O O3 0.602041 0.000000 0.188870
O O4 0.627636 0.074883 0.000000
O O5 0.073981 0.248703 0.500000
O O6 0.143176 0.286351 0.730666
O O7 0.056533 0.229951 0.830288
O O8 0.084999 0.316514 0.709190
O O9 0.545953 0.545953 0.500000
O O10 0.462031 0.537970 0.500000
O O11 0.154156 0.154156 0.000000
O O12 0.183365 0.091683 0.000000
O O13 0.696483 0.000000 0.722733
O O14 0.724604 0.052553 0.000000
#
# Coordination Sequence:
#
# PCOD8328916 Si02
#       5
#    24  24  12  12  24
#     4   8  15  25  34  48  68  87 114 150 184 218
#     4  10  20  30  41  60  83 105 127 151 185 229
#     4   9  16  24  34  48  65  88 118 148 184 224
#     4  10  20  34  48  63  84 104 125 151 183 229
#     4   9  16  26  40  56  73  95 124 155 186 221
#
# _framework density 13.306551000000001
#
# number of rings (size 3 to 8) (size 9 to 14) (size 15 to 20)
#    0.000    2.875    1.250    2.250    1.750    2.500 
#    0.000    2.500    0.000    0.125    0.000    0.000 
#    0.000    0.000    0.000    6.250    0.000    0.000 
#
# Total GULP energy -1189836.988404 kJ/mol
# GULP energy per Si atom -12394.135296 kJ/mol
# Density = 1.327626 g / cm^3
# Si number density = 13.306551 Si / 1000 Ang^3
#
#
#
# Elastic Constant Matrix: (Units=GPa)
#
#
# Indices 1 2 3 4 5 6 
#
# 1 68.1479 33.3115 37.1070 0.0000 0.0000 0.0000
# 2 33.3115 68.1479 37.1070 0.0000 0.0000 0.0000
# 3 37.1070 37.1070 86.5279 0.0000 0.0000 0.0000
# 4 0.0000 0.0000 0.0000 13.5249 0.0000 0.0000
# 5 0.0000 0.0000 0.0000 0.0000 13.5249 0.0000
# 6 0.0000 0.0000 0.0000 0.0000 0.0000 17.4182
#
#
#
# Elastic Compliance Matrix: (Units=1/GPa)
#
#
# Indices 1 2 3 4 5 6 
#
# 1 0.021533 -0.007172 -0.006159 0.000000 0.000000 0.000000
# 2 -0.007172 0.021533 -0.006159 0.000000 0.000000 0.000000
# 3 -0.006159 -0.006159 0.016839 0.000000 0.000000 0.000000
# 4 0.000000 0.000000 0.000000 0.073938 0.000000 0.000000
# 5 0.000000 0.000000 0.000000 0.000000 0.073938 0.000000
# 6 0.000000 0.000000 0.000000 0.000000 0.000000 0.057411
#
#
# Mechanical properties :
#
#
# Convention : Reuss Voigt Hill
#
# Bulk Modulus (GPa) = 47.78606 48.65275 48.21940
# Shear Modulus (GPa) = 16.06956 16.58013 16.32484
#
# Velocity S-wave (km/s) = 3.47889 3.53372 3.50641
# Velocity P-wave (km/s) = 7.21987 7.30013 7.26011
#
# Compressibility (1/GPa) = 0.02092661
#
# Stress axis : x y z
#
# Youngs Moduli (GPa) = 46.43964 46.43964 59.38543
#
# Poissons Ratio (x) = 0.33308 0.36573
# Poissons Ratio (y) = 0.33308 0.36573
# Poissons Ratio (z) = 0.28600 0.28600
#
# Static dielectric constant tensor:
#      x y z
#    x 2.500250 0.000000 0.000000 
#    y 0.000000 2.500250 0.000000 
#    z 0.000000 0.000000 2.912120 
# 
# 
# High freq. dielectric constant tensor:
#      x y z
#    x 1.467530 0.000000 0.000000 
#    y 0.000000 1.467530 0.000000 
#    z 0.000000 0.000000 1.526280 
# 
# From -- ./inp_files/1584.got.cif
#   From: 2010.03.12/outbox.cif.g09.slc.cpg/sg191_1_cif.got.tgz:1584.got - 2010.04.01 12:09:02.
