data_PCOD8328666
_publ_section_title
;
Structure prediction by ZEFSAII (Michael W. Deem and Ramdas Pophale) SiO2 
 PCOD8328666
Probable space group: P 6/M M M
;
_chemical_formula_sum "Si O2"
_cell_formula_units_Z 120
_cell_length_a 18.151545
_cell_length_b 18.151545
_cell_length_c 25.358751
_cell_angle_alpha 90.000000
_cell_angle_beta 90.000000
_cell_angle_gamma 120.000000
_cell_volume 7235.785506
_symmetry_space_group_name_H-M "P 6/M M M"
_symmetry_group_IT_number 191
_symmetry_cell_setting 'hexagonal'
loop_
_space_group_symop_operation_xyz
x,y,z
x-y,x,z
-y,x-y,z
-x,-y,z
-x+y,-x,z
y,-x+y,z
x-y,-y,-z
-x,-x+y,-z
y,x,-z
-y,-x,-z
-x+y,y,-z
x,x-y,-z
-x,-y,-z
-x+y,-x,-z
y,-x+y,-z
x,y,-z
x-y,x,-z
-y,x-y,-z
-x+y,y,z
x,x-y,z
-y,-x,z
y,x,z
x-y,-y,z
-x,-x+y,z
loop_
_atom_site_type_symbol
_atom_site_label
_atom_site_fract_x
_atom_site_fract_y
_atom_site_fract_z
Si Si1 0.740730 0.093937 0.308390
Si Si2 0.267211 0.368397 0.000000
Si Si3 0.368510 0.900405 0.901711
Si Si4 0.165843 0.497131 0.610414
Si Si5 0.095050 0.460014 0.500000
Si Si6 0.903472 0.642588 0.188116
O O1 0.838844 0.161157 0.321443
O O2 0.677985 0.106937 0.346404
O O3 0.716917 0.103881 0.248601
O O4 0.727025 0.000000 0.317382
O O5 0.303097 0.430465 0.949890
O O6 0.295070 0.295070 0.000000
O O7 0.163567 0.327133 0.000000
O O8 0.428684 0.857368 0.904484
O O9 0.316090 0.874863 0.847078
O O10 0.429777 0.000000 0.904669
O O11 0.264478 0.528956 0.621199
O O12 0.148585 0.574293 0.615861
O O13 0.142482 0.455429 0.552291
O O14 0.094005 0.547003 0.500000
O O15 0.000000 0.380290 0.500000
O O16 0.839729 0.679458 0.177427
O O17 0.000000 0.716403 0.174059
#
# Coordination Sequence:
#
# PCOD8328666 Si02
#       6
#    24  12  24  24  12  24
#     4   9  18  31  47  67  90 117 149 187 229 270
#     4  10  19  31  49  72  97 125 158 194 231 273
#     4   9  17  29  46  67  89 115 149 188 226 264
#     4  10  19  30  44  63  89 120 152 184 220 263
#     4   9  17  28  42  60  82 111 149 189 221 252
#     4   9  17  30  48  69  92 119 152 187 224 268
#
# _framework density 16.584239
#
# number of rings (size 3 to 8) (size 9 to 14) (size 15 to 20)
#    0.000    2.700    0.000    2.000    0.000    3.200 
#    0.000    3.000    0.000    6.100    0.000    2.800 
#    0.000    4.800    0.000    0.200    0.000   21.200 
#
# Total GULP energy -1487300.558589 kJ/mol
# GULP energy per Si atom -12394.171322 kJ/mol
# Density = 1.654649 g / cm^3
# Si number density = 16.584239 Si / 1000 Ang^3
#
#
#
# Elastic Constant Matrix: (Units=GPa)
#
#
# Indices 1 2 3 4 5 6 
#
# 1 86.4325 53.4475 45.2864 0.0000 0.0000 0.0000
# 2 53.4475 86.4325 45.2864 0.0000 0.0000 0.0000
# 3 45.2864 45.2864 101.4535 0.0000 0.0000 0.0000
# 4 0.0000 0.0000 0.0000 12.8464 0.0000 0.0000
# 5 0.0000 0.0000 0.0000 0.0000 12.8464 0.0000
# 6 0.0000 0.0000 0.0000 0.0000 0.0000 16.4925
#
#
#
# Elastic Compliance Matrix: (Units=1/GPa)
#
#
# Indices 1 2 3 4 5 6 
#
# 1 0.020186 -0.010131 -0.004488 0.000000 0.000000 0.000000
# 2 -0.010131 0.020186 -0.004488 0.000000 0.000000 0.000000
# 3 -0.004488 -0.004488 0.013864 0.000000 0.000000 0.000000
# 4 0.000000 0.000000 0.000000 0.077843 0.000000 0.000000
# 5 0.000000 0.000000 0.000000 0.000000 0.077843 0.000000
# 6 0.000000 0.000000 0.000000 0.000000 0.000000 0.060634
#
#
# Mechanical properties :
#
#
# Convention : Reuss Voigt Hill
#
# Bulk Modulus (GPa) = 62.41962 62.48432 62.45197
# Shear Modulus (GPa) = 15.91795 17.12360 16.52077
#
# Velocity S-wave (km/s) = 3.10146 3.21677 3.15965
# Velocity P-wave (km/s) = 7.10950 7.18022 7.14495
#
# Compressibility (1/GPa) = 0.01602060
#
# Stress axis : x y z
#
# Youngs Moduli (GPa) = 49.53920 49.53920 72.13046
#
# Poissons Ratio (x) = 0.50187 0.32375
# Poissons Ratio (y) = 0.50187 0.32375
# Poissons Ratio (z) = 0.22235 0.22235
#
# Static dielectric constant tensor:
#      x y z
#    x 3.054730 0.000000 0.000000 
#    y 0.000000 3.054730 0.000000 
#    z 0.000000 0.000000 3.366120 
# 
# 
# High freq. dielectric constant tensor:
#      x y z
#    x 1.618260 0.000000 0.000000 
#    y 0.000000 1.618260 0.000000 
#    z 0.000000 0.000000 1.656090 
# 
# From -- ./inp_files/8624.got.cif
#   From: 2010.03.12/outbox.cif.g09.slc.cpg/sg191_5_cif.got.tgz:8624.got - 2010.04.01 12:09:02.
