data_PCOD8328579
_publ_section_title
;
Structure prediction by ZEFSAII (Michael W. Deem and Ramdas Pophale) SiO2 
 PCOD8328579
Probable space group: P 6/M M M
;
_chemical_formula_sum "Si O2"
_cell_formula_units_Z 102
_cell_length_a 20.637878
_cell_length_b 20.637878
_cell_length_c 16.677329
_cell_angle_alpha 90.000000
_cell_angle_beta 90.000000
_cell_angle_gamma 120.000000
_cell_volume 6151.587555
_symmetry_space_group_name_H-M "P 6/M M M"
_symmetry_group_IT_number 191
_symmetry_cell_setting 'hexagonal'
loop_
_space_group_symop_operation_xyz
x,y,z
x-y,x,z
-y,x-y,z
-x,-y,z
-x+y,-x,z
y,-x+y,z
x-y,-y,-z
-x,-x+y,-z
y,x,-z
-y,-x,-z
-x+y,y,-z
x,x-y,-z
-x,-y,-z
-x+y,-x,-z
y,-x+y,-z
x,y,-z
x-y,x,-z
-y,x-y,-z
-x+y,y,z
x,x-y,z
-y,-x,z
y,x,z
x-y,-y,z
-x,-x+y,z
loop_
_atom_site_type_symbol
_atom_site_label
_atom_site_fract_x
_atom_site_fract_y
_atom_site_fract_z
Si Si1 0.459088 0.540913 0.321366
Si Si2 0.334642 0.912815 0.228694
Si Si3 0.682112 0.915348 0.643542
Si Si4 0.557788 0.442213 0.500000
Si Si5 0.576185 0.712800 0.500000
Si Si6 0.517760 0.332978 0.091809
O O1 0.500000 0.500000 0.283173
O O2 0.504866 0.625540 0.287324
O O3 0.464927 0.535074 0.417303
O O4 0.258683 0.899443 0.270885
O O5 0.314156 0.868275 0.145429
O O6 0.387599 0.000000 0.210170
O O7 0.709236 0.854618 0.629037
O O8 0.622295 0.910066 0.577562
O O9 0.753428 0.000000 0.640207
O O10 0.511108 0.352132 0.500000
O O11 0.571016 0.785508 0.500000
O O12 0.541838 0.270919 0.105232
O O13 0.587282 0.412719 0.116788
O O14 0.494611 0.333775 0.000000
#
# Coordination Sequence:
#
# PCOD8328579 Si02
#       6
#    12  24  24   6  12  24
#     4  10  19  28  45  72  95 119 156 195 238 287
#     4  10  19  32  49  71  96 120 153 198 242 290
#     4  10  20  34  52  73  98 126 158 197 240 291
#     4  12  19  32  52  66  96 138 168 204 246 276
#     4  10  21  33  47  70  97 130 170 206 243 283
#     4  10  20  33  48  65  89 122 161 203 243 285
#
# _framework density 16.581085999999999
#
# number of rings (size 3 to 8) (size 9 to 14) (size 15 to 20)
#    0.000    1.882    3.529    1.471    0.000    2.353 
#    0.353    1.176    0.000    0.235    0.000    0.000 
#    0.000    2.824    0.000    0.000    0.000    0.000 
#
# Total GULP energy -1263862.955350 kJ/mol
# GULP energy per Si atom -12390.813288 kJ/mol
# Density = 1.654335 g / cm^3
# Si number density = 16.581086 Si / 1000 Ang^3
#
#
#
# Elastic Constant Matrix: (Units=GPa)
#
#
# Indices 1 2 3 4 5 6 
#
# 1 72.1315 33.6335 30.3568 0.0000 0.0000 0.0000
# 2 33.6335 72.1315 30.3568 0.0000 0.0000 0.0000
# 3 30.3568 30.3568 89.9582 0.0000 0.0000 0.0000
# 4 0.0000 0.0000 0.0000 19.0517 0.0000 0.0000
# 5 0.0000 0.0000 0.0000 0.0000 19.0517 0.0000
# 6 0.0000 0.0000 0.0000 0.0000 0.0000 19.2490
#
#
#
# Elastic Compliance Matrix: (Units=1/GPa)
#
#
# Indices 1 2 3 4 5 6 
#
# 1 0.018851 -0.007124 -0.003957 0.000000 0.000000 0.000000
# 2 -0.007124 0.018851 -0.003957 0.000000 0.000000 0.000000
# 3 -0.003957 -0.003957 0.013787 0.000000 0.000000 0.000000
# 4 0.000000 0.000000 0.000000 0.052489 0.000000 0.000000
# 5 0.000000 0.000000 0.000000 0.000000 0.052489 0.000000
# 6 0.000000 0.000000 0.000000 0.000000 0.000000 0.051951
#
#
# Mechanical properties :
#
#
# Convention : Reuss Voigt Hill
#
# Bulk Modulus (GPa) = 46.70420 46.99062 46.84741
# Shear Modulus (GPa) = 20.35569 20.79543 20.57556
#
# Velocity S-wave (km/s) = 3.50758 3.54526 3.52647
# Velocity P-wave (km/s) = 6.68075 6.72011 6.70046
#
# Compressibility (1/GPa) = 0.02141135
#
# Stress axis : x y z
#
# Youngs Moduli (GPa) = 53.04777 53.04777 72.53209
#
# Poissons Ratio (x) = 0.37793 0.28702
# Poissons Ratio (y) = 0.37793 0.28702
# Poissons Ratio (z) = 0.20992 0.20992
#
# Static dielectric constant tensor:
#      x y z
#    x 2.920540 0.000000 0.000000 
#    y 0.000000 2.920540 0.000000 
#    z 0.000000 0.000000 3.394410 
# 
# 
# High freq. dielectric constant tensor:
#      x y z
#    x 1.616040 0.000000 0.000000 
#    y 0.000000 1.616040 0.000000 
#    z 0.000000 0.000000 1.643830 
# 
# From -- ./inp_files/4347.got.cif
#   From: 2010.03.12/outbox.cif.g09.slc.cpg/sg191_3_cif.got.tgz:4347.got - 2010.04.01 12:09:02.
