data_PCOD8328353
_publ_section_title
;
Structure prediction by ZEFSAII (Michael W. Deem and Ramdas Pophale) SiO2 
 PCOD8328353
Probable space group: P 6/M M M
;
_chemical_formula_sum "Si O2"
_cell_formula_units_Z 108
_cell_length_a 26.480383
_cell_length_b 26.480383
_cell_length_c 12.688200
_cell_angle_alpha 90.000000
_cell_angle_beta 90.000000
_cell_angle_gamma 120.000000
_cell_volume 7705.115831
_symmetry_space_group_name_H-M "P 6/M M M"
_symmetry_group_IT_number 191
_symmetry_cell_setting 'hexagonal'
loop_
_space_group_symop_operation_xyz
x,y,z
x-y,x,z
-y,x-y,z
-x,-y,z
-x+y,-x,z
y,-x+y,z
x-y,-y,-z
-x,-x+y,-z
y,x,-z
-y,-x,-z
-x+y,y,-z
x,x-y,-z
-x,-y,-z
-x+y,-x,-z
y,-x+y,-z
x,y,-z
x-y,x,-z
-y,x-y,-z
-x+y,y,z
x,x-y,z
-y,-x,z
y,x,z
x-y,-y,z
-x,-x+y,z
loop_
_atom_site_type_symbol
_atom_site_label
_atom_site_fract_x
_atom_site_fract_y
_atom_site_fract_z
Si Si1 0.548348 0.215861 0.000000
Si Si2 0.533675 0.708420 0.194916
Si Si3 0.666752 0.217635 0.379769
Si Si4 0.287873 0.354345 0.877338
Si Si5 0.174874 0.936424 0.874546
O O1 0.511245 0.183806 0.897185
O O2 0.605134 0.210267 0.000000
O O3 0.567325 0.283663 0.000000
O O4 0.553517 0.776759 0.185927
O O5 0.504051 0.681512 0.306690
O O6 0.589262 0.699668 0.188796
O O7 0.666089 0.198026 0.500000
O O8 0.605006 0.210012 0.346585
O O9 0.714707 0.285294 0.363421
O O10 0.339283 0.339283 0.858231
O O11 0.226689 0.300976 0.837158
O O12 0.283639 0.366658 0.000000
O O13 0.113516 0.886485 0.826809
O O14 0.187820 0.000000 0.834707
O O15 0.173141 0.935008 0.000000
#
# Coordination Sequence:
#
# PCOD8328353 Si02
#       5
#    12  24  24  24  24
#     4  10  19  28  39  57  81 105 124 147 189 243
#     4  10  18  27  42  62  82 104 128 159 197 236
#     4   9  17  29  45  63  81 102 129 161 196 234
#     4   9  16  26  40  57  78 103 130 162 199 237
#     4   8  13  20  32  50  72  99 129 161 195 231
#
# _framework density 14.016662
#
# number of rings (size 3 to 8) (size 9 to 14) (size 15 to 20)
#    0.000    2.889    1.111    3.000    0.000    1.778 
#    0.000    2.222    0.000    4.222    0.000    3.111 
#    0.000    0.000    0.000    0.000    0.000    0.000 
#
# Total GULP energy -1338877.258824 kJ/mol
# GULP energy per Si atom -12397.011656 kJ/mol
# Density = 1.398476 g / cm^3
# Si number density = 14.016662 Si / 1000 Ang^3
#
#
#
# Elastic Constant Matrix: (Units=GPa)
#
#
# Indices 1 2 3 4 5 6 
#
# 1 105.2082 60.1835 33.6645 0.0000 0.0000 0.0000
# 2 60.1835 105.2082 33.6645 0.0000 0.0000 0.0000
# 3 33.6645 33.6645 52.4296 0.0000 0.0000 0.0000
# 4 0.0000 0.0000 0.0000 13.3277 0.0000 0.0000
# 5 0.0000 0.0000 0.0000 0.0000 13.3277 0.0000
# 6 0.0000 0.0000 0.0000 0.0000 0.0000 22.5124
#
#
#
# Elastic Compliance Matrix: (Units=1/GPa)
#
#
# Indices 1 2 3 4 5 6 
#
# 1 0.015198 -0.007012 -0.005256 0.000000 0.000000 0.000000
# 2 -0.007012 0.015198 -0.005256 0.000000 0.000000 0.000000
# 3 -0.005256 -0.005256 0.025823 0.000000 0.000000 0.000000
# 4 0.000000 0.000000 0.000000 0.075032 0.000000 0.000000
# 5 0.000000 0.000000 0.000000 0.000000 0.075032 0.000000
# 6 0.000000 0.000000 0.000000 0.000000 0.000000 0.044420
#
#
# Mechanical properties :
#
#
# Convention : Reuss Voigt Hill
#
# Bulk Modulus (GPa) = 47.23568 57.54123 52.38845
# Shear Modulus (GPa) = 17.07605 18.85579 17.96592
#
# Velocity S-wave (km/s) = 3.49416 3.67173 3.58404
# Velocity P-wave (km/s) = 7.07472 7.68873 7.38811
#
# Compressibility (1/GPa) = 0.02117044
#
# Stress axis : x y z
#
# Youngs Moduli (GPa) = 65.79823 65.79823 38.72516
#
# Poissons Ratio (x) = 0.46138 0.20354
# Poissons Ratio (y) = 0.46138 0.20354
# Poissons Ratio (z) = 0.34584 0.34584
#
# Static dielectric constant tensor:
#      x y z
#    x 2.769890 0.000000 0.000000 
#    y 0.000000 2.769890 0.000000 
#    z 0.000000 0.000000 2.537720 
# 
# 
# High freq. dielectric constant tensor:
#      x y z
#    x 1.528000 0.000000 0.000000 
#    y 0.000000 1.528000 0.000000 
#    z 0.000000 0.000000 1.498570 
# 
# From -- ./inp_files/3119.got.cif
#   From: 2010.03.12/outbox.cif.g09.slc.cpg/sg191_2_cif.got.tgz:3119.got - 2010.04.01 12:09:02.
