data_PCOD8328583
_publ_section_title
;
Structure prediction by ZEFSAII (Michael W. Deem and Ramdas Pophale) SiO2 
 PCOD8328583
Probable space group: P 6/M M M
;
_chemical_formula_sum "Si O2"
_cell_formula_units_Z 168
_cell_length_a 21.379685
_cell_length_b 21.379685
_cell_length_c 28.959820
_cell_angle_alpha 90.000000
_cell_angle_beta 90.000000
_cell_angle_gamma 120.000000
_cell_volume 11463.813029
_symmetry_space_group_name_H-M "P 6/M M M"
_symmetry_group_IT_number 191
_symmetry_cell_setting 'hexagonal'
loop_
_space_group_symop_operation_xyz
x,y,z
x-y,x,z
-y,x-y,z
-x,-y,z
-x+y,-x,z
y,-x+y,z
x-y,-y,-z
-x,-x+y,-z
y,x,-z
-y,-x,-z
-x+y,y,-z
x,x-y,-z
-x,-y,-z
-x+y,-x,-z
y,-x+y,-z
x,y,-z
x-y,x,-z
-y,x-y,-z
-x+y,y,z
x,x-y,z
-y,-x,z
y,x,z
x-y,-y,z
-x,-x+y,z
loop_
_atom_site_type_symbol
_atom_site_label
_atom_site_fract_x
_atom_site_fract_y
_atom_site_fract_z
Si Si1 0.429141 0.143163 0.197542
Si Si2 0.680766 0.082643 0.947482
Si Si3 0.612878 0.530301 0.716881
Si Si4 0.301148 0.081043 0.129229
Si Si5 0.815018 0.333809 0.631435
Si Si6 0.523653 0.189439 0.888417
Si Si7 0.614472 0.080521 0.551758
O O1 0.438027 0.219014 0.214427
O O2 0.433063 0.099169 0.240546
O O3 0.352381 0.094594 0.173029
O O4 0.492556 0.157261 0.161908
O O5 0.749905 0.096729 0.917665
O O6 0.647518 0.130081 0.927985
O O7 0.617820 0.000000 0.943474
O O8 0.706572 0.104501 0.000000
O O9 0.547302 0.452699 0.732247
O O10 0.582091 0.582091 0.700638
O O11 0.656899 0.520952 0.675497
O O12 0.268401 0.134201 0.130549
O O13 0.234501 0.000000 0.130978
O O14 0.798333 0.399167 0.627421
O O15 0.740129 0.259872 0.635453
O O16 0.859181 0.330163 0.587083
O O17 0.607578 0.215155 0.889562
O O18 0.512338 0.256169 0.899514
O O19 0.646466 0.102214 0.500000
O O20 0.539064 0.078127 0.555310
O O21 0.599832 0.000000 0.563972
#
# Coordination Sequence:
#
# PCOD8328583 Si02
#       7
#    24  24  24  24  24  24  24
#     4   9  17  30  46  62  80 102 131 167 203 236
#     4   9  18  32  48  64  81 102 131 169 207 235
#     4  10  19  29  42  59  79 103 132 167 204 243
#     4   9  17  29  46  66  86 107 130 158 193 234
#     4  10  19  29  40  56  79 106 135 166 202 242
#     4  10  20  32  45  61  83 110 136 161 193 239
#     4   8  14  26  43  59  75  98 129 164 201 240
#
# _framework density 14.654809999999999
#
# number of rings (size 3 to 8) (size 9 to 14) (size 15 to 20)
#    0.000    2.714    0.000    3.714    0.000    4.286 
#    0.000    0.714    0.000    6.429    0.000    0.000 
#    0.000    0.000    0.000    3.571    0.000    0.000 
#
# Total GULP energy -2082914.576543 kJ/mol
# GULP energy per Si atom -12398.301051 kJ/mol
# Density = 1.462145 g / cm^3
# Si number density = 14.654810 Si / 1000 Ang^3
#
#
#
# Elastic Constant Matrix: (Units=GPa)
#
#
# Indices 1 2 3 4 5 6 
#
# 1 77.2277 38.6299 44.4168 0.0000 0.0000 0.0000
# 2 38.6299 77.2277 44.4168 0.0000 0.0000 0.0000
# 3 44.4168 44.4168 96.7365 0.0000 0.0000 0.0000
# 4 0.0000 0.0000 0.0000 17.2663 0.0000 0.0000
# 5 0.0000 0.0000 0.0000 0.0000 17.2663 0.0000
# 6 0.0000 0.0000 0.0000 0.0000 0.0000 19.2989
#
#
#
# Elastic Compliance Matrix: (Units=1/GPa)
#
#
# Indices 1 2 3 4 5 6 
#
# 1 0.019615 -0.006294 -0.006116 0.000000 0.000000 0.000000
# 2 -0.006294 0.019615 -0.006116 0.000000 0.000000 0.000000
# 3 -0.006116 -0.006116 0.015954 0.000000 0.000000 0.000000
# 4 0.000000 0.000000 0.000000 0.057916 0.000000 0.000000
# 5 0.000000 0.000000 0.000000 0.000000 0.057916 0.000000
# 6 0.000000 0.000000 0.000000 0.000000 0.000000 0.051816
#
#
# Mechanical properties :
#
#
# Convention : Reuss Voigt Hill
#
# Bulk Modulus (GPa) = 55.15547 56.23545 55.69546
# Shear Modulus (GPa) = 18.80206 19.01487 18.90846
#
# Velocity S-wave (km/s) = 3.58578 3.60601 3.59591
# Velocity P-wave (km/s) = 7.40688 7.46957 7.43829
#
# Compressibility (1/GPa) = 0.01813057
#
# Stress axis : x y z
#
# Youngs Moduli (GPa) = 50.98241 50.98241 62.67992
#
# Poissons Ratio (x) = 0.32086 0.38337
# Poissons Ratio (y) = 0.32086 0.38337
# Poissons Ratio (z) = 0.31183 0.31183
#
# Static dielectric constant tensor:
#      x y z
#    x 2.729670 0.000000 0.000000 
#    y 0.000000 2.729670 0.000000 
#    z 0.000000 0.000000 2.925940 
# 
# 
# High freq. dielectric constant tensor:
#      x y z
#    x 1.542880 0.000000 0.000000 
#    y 0.000000 1.542880 0.000000 
#    z 0.000000 0.000000 1.564270 
# 
# From -- ./inp_files/10047.got.cif
#   From: 2010.03.12/outbox.cif.g09.slc.cpg/sg191_6_cif.got.tgz:10047.got - 2010.04.01 12:09:02.
