data_PCOD8328988
_publ_section_title
;
Structure prediction by ZEFSAII (Michael W. Deem and Ramdas Pophale) SiO2 
 PCOD8328988
Probable space group: P 6/M M M
;
_chemical_formula_sum "Si O2"
_cell_formula_units_Z 120
_cell_length_a 31.169229
_cell_length_b 31.169229
_cell_length_c 9.874143
_cell_angle_alpha 90.000000
_cell_angle_beta 90.000000
_cell_angle_gamma 120.000000
_cell_volume 8307.725984
_symmetry_space_group_name_H-M "P 6/M M M"
_symmetry_group_IT_number 191
_symmetry_cell_setting 'hexagonal'
loop_
_space_group_symop_operation_xyz
x,y,z
x-y,x,z
-y,x-y,z
-x,-y,z
-x+y,-x,z
y,-x+y,z
x-y,-y,-z
-x,-x+y,-z
y,x,-z
-y,-x,-z
-x+y,y,-z
x,x-y,-z
-x,-y,-z
-x+y,-x,-z
y,-x+y,-z
x,y,-z
x-y,x,-z
-y,x-y,-z
-x+y,y,z
x,x-y,z
-y,-x,z
y,x,z
x-y,-y,z
-x,-x+y,z
loop_
_atom_site_type_symbol
_atom_site_label
_atom_site_fract_x
_atom_site_fract_y
_atom_site_fract_z
Si Si1 0.481389 0.189728 0.151859
Si Si2 0.816554 0.000000 0.340637
Si Si3 0.432531 0.766186 0.343726
Si Si4 0.371553 0.236783 0.152029
Si Si5 0.100268 0.100268 0.844526
Si Si6 0.907294 0.713257 0.653504
O O1 0.481234 0.240617 0.157886
O O2 0.522083 0.192051 0.256132
O O3 0.426499 0.145494 0.192703
O O4 0.494685 0.180908 0.000000
O O5 0.859718 0.000000 0.255469
O O6 0.812778 0.047580 0.298627
O O7 0.828142 0.000000 0.500000
O O8 0.445964 0.780250 0.500000
O O9 0.383333 0.766665 0.301117
O O10 0.423104 0.711552 0.312951
O O11 0.371077 0.185539 0.159888
O O12 0.330693 0.235437 0.254148
O O13 0.358518 0.245409 0.000000
O O14 0.095324 0.047662 0.813687
O O15 0.116457 0.116457 0.000000
O O16 0.914866 0.701283 0.500000
O O17 0.858555 0.717109 0.669412
#
# Coordination Sequence:
#
# PCOD8328988 Si02
#       6
#    24  12  24  24  12  24
#     4   8  14  24  36  50  68  91 122 160 199 235
#     4  10  20  33  47  65  90 114 135 163 198 236
#     4   9  16  24  33  46  67  97 132 168 203 236
#     4   8  14  25  40  56  74  96 123 157 194 231
#     4  10  21  36  52  68  86 110 142 179 213 240
#     4   9  17  28  42  60  81 105 131 157 187 225
#
# _framework density 14.444386
#
# number of rings (size 3 to 8) (size 9 to 14) (size 15 to 20)
#    0.000    3.200    0.000    2.100    0.000    4.400 
#    0.000    6.000    0.000    1.800    0.000    0.000 
#    0.000    0.000    0.000    0.900    0.000   17.600 
#
# Total GULP energy -1487445.787370 kJ/mol
# GULP energy per Si atom -12395.381561 kJ/mol
# Density = 1.441151 g / cm^3
# Si number density = 14.444386 Si / 1000 Ang^3
#
#
#
# Elastic Constant Matrix: (Units=GPa)
#
#
# Indices 1 2 3 4 5 6 
#
# 1 66.8407 53.4593 57.0068 0.0000 0.0000 0.0000
# 2 53.4593 66.8407 57.0068 0.0000 0.0000 0.0000
# 3 57.0068 57.0068 86.3593 0.0000 0.0000 0.0000
# 4 0.0000 0.0000 0.0000 24.3798 0.0000 0.0000
# 5 0.0000 0.0000 0.0000 0.0000 24.3798 0.0000
# 6 0.0000 0.0000 0.0000 0.0000 0.0000 6.6907
#
#
#
# Elastic Compliance Matrix: (Units=1/GPa)
#
#
# Indices 1 2 3 4 5 6 
#
# 1 0.048467 -0.026264 -0.014657 0.000000 0.000000 0.000000
# 2 -0.026264 0.048467 -0.014657 0.000000 0.000000 0.000000
# 3 -0.014657 -0.014657 0.030929 0.000000 0.000000 0.000000
# 4 0.000000 0.000000 0.000000 0.041018 0.000000 0.000000
# 5 0.000000 0.000000 0.000000 0.000000 0.041018 0.000000
# 6 0.000000 0.000000 0.000000 0.000000 0.000000 0.149461
#
#
# Mechanical properties :
#
#
# Convention : Reuss Voigt Hill
#
# Bulk Modulus (GPa) = 59.84599 61.66517 60.75558
# Shear Modulus (GPa) = 10.50237 14.59460 12.54848
#
# Velocity S-wave (km/s) = 2.69939 3.18213 2.95065
# Velocity P-wave (km/s) = 7.15804 7.50236 7.33222
#
# Compressibility (1/GPa) = 0.01670956
#
# Stress axis : x y z
#
# Youngs Moduli (GPa) = 20.63263 20.63263 32.33160
#
# Poissons Ratio (x) = 0.54189 0.47387
# Poissons Ratio (y) = 0.54189 0.47387
# Poissons Ratio (z) = 0.30240 0.30240
#
# Static dielectric constant tensor:
#      x y z
#    x 2.771330 0.000000 0.000000 
#    y 0.000000 2.771330 0.000000 
#    z 0.000000 0.000000 2.987860 
# 
# 
# High freq. dielectric constant tensor:
#      x y z
#    x 1.525940 0.000000 0.000000 
#    y 0.000000 1.525940 0.000000 
#    z 0.000000 0.000000 1.559090 
# 
# From -- ./inp_files/3246.got.cif
#   From: 2010.03.12/outbox.cif.g09.slc.cpg/sg191_2_cif.got.tgz:3246.got - 2010.04.01 12:09:02.
