data_PCOD8328500
_publ_section_title
;
Structure prediction by ZEFSAII (Michael W. Deem and Ramdas Pophale) SiO2 
 PCOD8328500
Probable space group: P 6/M M M
;
_chemical_formula_sum "Si O2"
_cell_formula_units_Z 168
_cell_length_a 29.185921
_cell_length_b 29.185921
_cell_length_c 14.215783
_cell_angle_alpha 90.000000
_cell_angle_beta 90.000000
_cell_angle_gamma 120.000000
_cell_volume 10486.926456
_symmetry_space_group_name_H-M "P 6/M M M"
_symmetry_group_IT_number 191
_symmetry_cell_setting 'hexagonal'
loop_
_space_group_symop_operation_xyz
x,y,z
x-y,x,z
-y,x-y,z
-x,-y,z
-x+y,-x,z
y,-x+y,z
x-y,-y,-z
-x,-x+y,-z
y,x,-z
-y,-x,-z
-x+y,y,-z
x,x-y,-z
-x,-y,-z
-x+y,-x,-z
y,-x+y,-z
x,y,-z
x-y,x,-z
-y,x-y,-z
-x+y,y,z
x,x-y,z
-y,-x,z
y,x,z
x-y,-y,z
-x,-x+y,z
loop_
_atom_site_type_symbol
_atom_site_label
_atom_site_fract_x
_atom_site_fract_y
_atom_site_fract_z
Si Si1 0.217219 0.888148 0.799540
Si Si2 0.628232 0.865627 0.603366
Si Si3 0.120974 0.471818 0.392345
Si Si4 0.062064 0.581865 0.223888
Si Si5 0.160870 0.941269 0.891250
Si Si6 0.435420 0.667072 0.612031
Si Si7 0.392152 0.061636 0.110773
O O1 0.171356 0.828645 0.828430
O O2 0.223143 0.893905 0.686174
O O3 0.201016 0.930535 0.831877
O O4 0.272335 0.901399 0.846726
O O5 0.654772 0.886254 0.500000
O O6 0.604088 0.802044 0.608795
O O7 0.582647 0.879519 0.618127
O O8 0.111807 0.482542 0.500000
O O9 0.075477 0.471789 0.330127
O O10 0.176371 0.517508 0.351335
O O11 0.086044 0.543022 0.201111
O O12 0.082125 0.630877 0.151277
O O13 0.000000 0.547317 0.215819
O O14 0.099991 0.900009 0.865031
O O15 0.171973 0.000000 0.868034
O O16 0.172217 0.935913 0.000000
O O17 0.436191 0.669124 0.500000
O O18 0.442898 0.721449 0.654251
O O19 0.380280 0.619721 0.649784
O O20 0.352515 0.000000 0.137285
O O21 0.397245 0.069708 0.000000
#
# Coordination Sequence:
#
# PCOD8328500 Si02
#       7
#    24  24  24  24  24  24  24
#     4  10  18  29  48  73  99 124 151 186 229 275
#     4   9  17  29  45  66  93 124 155 183 215 264
#     4  10  18  30  47  64  85 116 149 180 219 270
#     4  10  21  35  48  63  84 110 146 192 234 273
#     4   9  17  29  47  72 101 132 164 198 235 274
#     4   9  16  25  39  60  85 111 139 172 209 252
#     4  10  20  34  51  68  88 116 149 186 229 277
#
# _framework density 16.019946000000001
#
# number of rings (size 3 to 8) (size 9 to 14) (size 15 to 20)
#    0.000    2.429    1.429    1.857    0.000    5.714 
#    0.000    2.143    0.000    1.857    0.000    1.000 
#    0.000    0.000    0.000    0.000    0.000    2.143 
#
# Total GULP energy -2082416.093765 kJ/mol
# GULP energy per Si atom -12395.333891 kJ/mol
# Density = 1.598348 g / cm^3
# Si number density = 16.019946 Si / 1000 Ang^3
#
#
#
# Elastic Constant Matrix: (Units=GPa)
#
#
# Indices 1 2 3 4 5 6 
#
# 1 73.9235 38.1524 36.7892 0.0000 0.0000 0.0000
# 2 38.1524 73.9235 36.7892 0.0000 0.0000 0.0000
# 3 36.7892 36.7892 76.4493 0.0000 0.0000 0.0000
# 4 0.0000 0.0000 0.0000 18.6073 0.0000 0.0000
# 5 0.0000 0.0000 0.0000 0.0000 18.6073 0.0000
# 6 0.0000 0.0000 0.0000 0.0000 0.0000 17.8856
#
#
#
# Elastic Compliance Matrix: (Units=1/GPa)
#
#
# Indices 1 2 3 4 5 6 
#
# 1 0.020499 -0.007456 -0.006277 0.000000 0.000000 0.000000
# 2 -0.007456 0.020499 -0.006277 0.000000 0.000000 0.000000
# 3 -0.006277 -0.006277 0.019122 0.000000 0.000000 0.000000
# 4 0.000000 0.000000 0.000000 0.053742 0.000000 0.000000
# 5 0.000000 0.000000 0.000000 0.000000 0.053742 0.000000
# 6 0.000000 0.000000 0.000000 0.000000 0.000000 0.055911
#
#
# Mechanical properties :
#
#
# Convention : Reuss Voigt Hill
#
# Bulk Modulus (GPa) = 49.74835 49.75090 49.74962
# Shear Modulus (GPa) = 18.50238 18.52440 18.51339
#
# Velocity S-wave (km/s) = 3.40216 3.40418 3.40317
# Velocity P-wave (km/s) = 6.82307 6.82453 6.82380
#
# Compressibility (1/GPa) = 0.02010117
#
# Stress axis : x y z
#
# Youngs Moduli (GPa) = 48.78201 48.78201 52.29698
#
# Poissons Ratio (x) = 0.36373 0.32825
# Poissons Ratio (y) = 0.36373 0.32825
# Poissons Ratio (z) = 0.30619 0.30619
#
# Static dielectric constant tensor:
#      x y z
#    x 3.126620 0.000000 0.000000 
#    y 0.000000 3.126620 0.000000 
#    z 0.000000 0.000000 3.007230 
# 
# 
# High freq. dielectric constant tensor:
#      x y z
#    x 1.609270 0.000000 0.000000 
#    y 0.000000 1.609270 0.000000 
#    z 0.000000 0.000000 1.597040 
# 
# From -- ./inp_files/3637.got.cif
#   From: 2010.03.12/outbox.cif.g09.slc.cpg/sg191_2_cif.got.tgz:3637.got - 2010.04.01 12:09:02.
