data_PCOD8328671
_publ_section_title
;
Structure prediction by ZEFSAII (Michael W. Deem and Ramdas Pophale) SiO2 
 PCOD8328671
Probable space group: P 6/M M M
;
_chemical_formula_sum "Si O2"
_cell_formula_units_Z 132
_cell_length_a 18.022659
_cell_length_b 18.022659
_cell_length_c 28.036639
_cell_angle_alpha 90.000000
_cell_angle_beta 90.000000
_cell_angle_gamma 120.000000
_cell_volume 7886.681687
_symmetry_space_group_name_H-M "P 6/M M M"
_symmetry_group_IT_number 191
_symmetry_cell_setting 'hexagonal'
loop_
_space_group_symop_operation_xyz
x,y,z
x-y,x,z
-y,x-y,z
-x,-y,z
-x+y,-x,z
y,-x+y,z
x-y,-y,-z
-x,-x+y,-z
y,x,-z
-y,-x,-z
-x+y,y,-z
x,x-y,-z
-x,-y,-z
-x+y,-x,-z
y,-x+y,-z
x,y,-z
x-y,x,-z
-y,x-y,-z
-x+y,y,z
x,x-y,z
-y,-x,z
y,x,z
x-y,-y,z
-x,-x+y,z
loop_
_atom_site_type_symbol
_atom_site_label
_atom_site_fract_x
_atom_site_fract_y
_atom_site_fract_z
Si Si1 0.835387 0.504128 0.629274
Si Si2 0.459758 0.095149 0.729113
Si Si3 0.834479 0.503548 0.170045
Si Si4 0.632538 0.730427 0.912518
Si Si5 0.838771 0.331258 0.000000
Si Si6 0.739843 0.645239 0.554073
O O1 0.736049 0.472097 0.619766
O O2 0.851944 0.425972 0.625627
O O3 0.860361 0.548664 0.681298
O O4 0.893975 0.570156 0.588965
O O5 0.545476 0.090951 0.725953
O O6 0.462962 0.148118 0.775704
O O7 0.378420 0.000000 0.732853
O O8 0.734762 0.469523 0.158523
O O9 0.854743 0.427372 0.160984
O O10 0.894223 0.583660 0.136739
O O11 0.666204 0.833102 0.915003
O O12 0.712324 0.712324 0.916676
O O13 0.564885 0.680679 0.954085
O O14 0.737732 0.262269 0.000000
O O15 0.851455 0.425728 0.000000
O O16 0.718083 0.609881 0.500000
O O17 0.838332 0.676664 0.566922
O O18 0.726298 0.726298 0.560887
#
# Coordination Sequence:
#
# PCOD8328671 Si02
#       6
#    24  24  24  24  12  24
#     4  10  19  30  44  63  89 121 156 192 228 265
#     4   9  17  28  42  60  83 115 156 198 233 264
#     4  10  19  30  45  66  94 127 160 191 224 266
#     4  10  21  35  51  71  94 122 155 194 239 282
#     4  10  20  33  50  73 102 134 165 194 224 261
#     4   9  18  32  49  68  89 114 144 179 221 268
#
# _framework density 16.737076999999999
#
# number of rings (size 3 to 8) (size 9 to 14) (size 15 to 20)
#    0.000    2.364    0.000    2.909    0.000    4.000 
#    0.000    4.545    0.000    1.455    0.000    1.273 
#    0.000    2.182    0.000    0.000    0.000   37.818 
#
# Total GULP energy -1636435.660081 kJ/mol
# GULP energy per Si atom -12397.239849 kJ/mol
# Density = 1.669898 g / cm^3
# Si number density = 16.737077 Si / 1000 Ang^3
#
#
#
# Elastic Constant Matrix: (Units=GPa)
#
#
# Indices 1 2 3 4 5 6 
#
# 1 83.8136 55.0937 36.4407 0.0000 0.0000 0.0000
# 2 55.0937 83.8136 36.4407 0.0000 0.0000 0.0000
# 3 36.4407 36.4407 103.1587 0.0000 0.0000 0.0000
# 4 0.0000 0.0000 0.0000 20.4895 0.0000 0.0000
# 5 0.0000 0.0000 0.0000 0.0000 20.4895 0.0000
# 6 0.0000 0.0000 0.0000 0.0000 0.0000 14.3599
#
#
#
# Elastic Compliance Matrix: (Units=1/GPa)
#
#
# Indices 1 2 3 4 5 6 
#
# 1 0.021828 -0.012991 -0.003122 0.000000 0.000000 0.000000
# 2 -0.012991 0.021828 -0.003122 0.000000 0.000000 0.000000
# 3 -0.003122 -0.003122 0.011899 0.000000 0.000000 0.000000
# 4 0.000000 0.000000 0.000000 0.048805 0.000000 0.000000
# 5 0.000000 0.000000 0.000000 0.000000 0.048805 0.000000
# 6 0.000000 0.000000 0.000000 0.000000 0.000000 0.069638
#
#
# Mechanical properties :
#
#
# Convention : Reuss Voigt Hill
#
# Bulk Modulus (GPa) = 58.52571 58.52625 58.52598
# Shear Modulus (GPa) = 18.72880 20.58851 19.65865
#
# Velocity S-wave (km/s) = 3.34878 3.51110 3.43090
# Velocity P-wave (km/s) = 7.07079 7.17503 7.12310
#
# Compressibility (1/GPa) = 0.01708651
#
# Stress axis : x y z
#
# Youngs Moduli (GPa) = 45.81274 45.81274 84.03908
#
# Poissons Ratio (x) = 0.59516 0.26234
# Poissons Ratio (y) = 0.59516 0.26234
# Poissons Ratio (z) = 0.14301 0.14301
#
# Static dielectric constant tensor:
#      x y z
#    x 3.006550 0.000000 0.000000 
#    y 0.000000 3.006550 0.000000 
#    z 0.000000 0.000000 3.450640 
# 
# 
# High freq. dielectric constant tensor:
#      x y z
#    x 1.623410 0.000000 0.000000 
#    y 0.000000 1.623410 0.000000 
#    z 0.000000 0.000000 1.665760 
# 
# From -- ./inp_files/9804.got.cif
#   From: 2010.03.12/outbox.cif.g09.slc.cpg/sg191_5_cif.got.tgz:9804.got - 2010.04.01 12:09:02.
