data_PCOD8328001
_publ_section_title
;
Structure prediction by ZEFSAII (Michael W. Deem and Ramdas Pophale) SiO2 
 PCOD8328001
Probable space group: P -6 2 C
;
_chemical_formula_sum "Si O2"
_cell_formula_units_Z 76
_cell_length_a 17.800425
_cell_length_b 17.800425
_cell_length_c 13.197934
_cell_angle_alpha 90.000000
_cell_angle_beta 90.000000
_cell_angle_gamma 120.000000
_cell_volume 3621.573695
_symmetry_space_group_name_H-M "P -6 2 C"
_symmetry_group_IT_number 190
_symmetry_cell_setting 'hexagonal'
loop_
_space_group_symop_operation_xyz
x,y,z
-x+y,-x,1/2-z
-y,x-y,z
x,y,1/2-z
-x+y,-x,z
-y,x-y,1/2-z
x-y,-y,-z
-x,-x+y,-z
y,x,-z
y,x,1/2+z
x-y,-y,1/2+z
-x,-x+y,1/2+z
loop_
_atom_site_type_symbol
_atom_site_label
_atom_site_fract_x
_atom_site_fract_y
_atom_site_fract_z
Si Si1 0.528809 0.147585 0.369979
Si Si2 0.333334 0.666668 0.630269
Si Si3 0.204203 0.816709 0.551831
Si Si4 0.802105 0.863753 0.871626
Si Si5 0.632398 0.892907 0.363116
Si Si6 0.426256 0.367267 0.130846
Si Si7 0.880772 0.054277 0.636785
O O1 0.515950 0.147644 0.250000
O O2 0.608427 0.236910 0.410660
O O3 0.443122 0.137182 0.422383
O O4 0.554457 0.075637 0.402767
O O5 0.333334 0.666668 0.750000
O O6 0.181225 0.891064 0.573827
O O7 0.191833 0.788767 0.433391
O O8 0.141156 0.728153 0.611410
O O9 0.787010 0.857591 0.750000
O O10 0.858967 0.820707 0.910936
O O11 0.855254 0.962400 0.914484
O O12 0.593648 0.862921 0.250000
O O13 0.735520 0.941754 0.361653
O O14 0.611941 0.964853 0.413676
O O15 0.415480 0.370140 0.250000
O O16 0.912231 0.050478 0.750000
#
# Coordination Sequence:
#
# PCOD8328001 Si02
#       7
#    12   4  12  12  12  12  12
#     4  10  19  32  57  94 126 146 179 247 327 390
#     4   9  15  27  48  81 121 149 166 213 306 393
#     4  12  21  33  60  90 119 158 205 259 312 370
#     4  10  19  32  55  88 125 164 209 258 304 356
#     4  10  22  39  57  78 114 172 221 248 290 365
#     4  10  19  34  58  90 124 155 196 247 314 394
#     4   9  18  33  53  81 122 167 208 247 295 351
#
# _framework density 20.985351999999999
#
# number of rings (size 3 to 8) (size 9 to 14) (size 15 to 20)
#    0.000    1.895    3.158    2.211    0.000    1.895 
#    0.000    0.000    6.947    2.842    0.000    0.000 
#    0.000    0.000    0.000    0.000    0.000    0.000 
#
# Total GULP energy -941886.519835 kJ/mol
# GULP energy per Si atom -12393.243682 kJ/mol
# Density = 2.093759 g / cm^3
# Si number density = 20.985352 Si / 1000 Ang^3
#
#
#
# Elastic Constant Matrix: (Units=GPa)
#
#
# Indices 1 2 3 4 5 6 
#
# 1 132.5714 60.1822 33.6422 0.0000 0.0000 0.0001
# 2 60.1822 132.5725 33.6425 0.0000 0.0000 0.0001
# 3 33.6422 33.6425 47.3875 -0.0001 0.0000 0.0001
# 4 0.0000 0.0000 -0.0001 15.2402 0.0000 0.0000
# 5 0.0000 0.0000 0.0000 0.0000 15.2402 0.0000
# 6 0.0001 0.0001 0.0001 0.0000 0.0000 36.1946
#
#
#
# Elastic Compliance Matrix: (Units=1/GPa)
#
#
# Indices 1 2 3 4 5 6 
#
# 1 0.010356 -0.003458 -0.004897 0.000000 0.000000 0.000000
# 2 -0.003458 0.010356 -0.004897 0.000000 0.000000 0.000000
# 3 -0.004897 -0.004897 0.028055 0.000000 0.000000 0.000000
# 4 0.000000 0.000000 0.000000 0.065616 0.000000 0.000000
# 5 0.000000 0.000000 0.000000 0.000000 0.065616 0.000000
# 6 0.000000 0.000000 0.000000 0.000000 0.000000 0.027628
#
#
# Mechanical properties :
#
#
# Convention : Reuss Voigt Hill
#
# Bulk Modulus (GPa) = 44.91717 63.05167 53.98442
# Shear Modulus (GPa) = 20.69952 25.67263 23.18608
#
# Velocity S-wave (km/s) = 3.14408 3.50145 3.32756
# Velocity P-wave (km/s) = 5.88479 6.81599 6.36744
#
# Compressibility (1/GPa) = 0.02226320
#
# Stress axis : x y z
#
# Youngs Moduli (GPa) = 96.56520 96.56581 35.64397
#
# Poissons Ratio (x) = 0.33397 0.17453
# Poissons Ratio (y) = 0.33397 0.17454
# Poissons Ratio (z) = 0.47284 0.47285
#
# Static dielectric constant tensor:
#      x y z
#    x 3.779120 0.000000 0.000000 
#    y 0.000000 3.779110 0.000000 
#    z 0.000000 0.000000 3.943350 
# 
# 
# High freq. dielectric constant tensor:
#      x y z
#    x 1.808440 0.000000 0.000000 
#    y 0.000000 1.808440 0.000000 
#    z 0.000000 0.000000 1.823550 
# 
# From -- ./inp_files/3078.got.cif
#   From: 2010.06.25/outbox.cif.g09.slc.cpg/sg190_2_cif.got.tgz:3078.got - 2010.06.28 13:08:06.
