data_PCOD8328561
_publ_section_title
;
Structure prediction by ZEFSAII (Michael W. Deem and Ramdas Pophale) SiO2 
 PCOD8328561
Probable space group: P 6/M M M
;
_chemical_formula_sum "Si O2"
_cell_formula_units_Z 156
_cell_length_a 21.298274
_cell_length_b 21.298274
_cell_length_c 21.515157
_cell_angle_alpha 90.000000
_cell_angle_beta 90.000000
_cell_angle_gamma 120.000000
_cell_volume 8452.087239
_symmetry_space_group_name_H-M "P 6/M M M"
_symmetry_group_IT_number 191
_symmetry_cell_setting 'hexagonal'
loop_
_space_group_symop_operation_xyz
x,y,z
x-y,x,z
-y,x-y,z
-x,-y,z
-x+y,-x,z
y,-x+y,z
x-y,-y,-z
-x,-x+y,-z
y,x,-z
-y,-x,-z
-x+y,y,-z
x,x-y,-z
-x,-y,-z
-x+y,-x,-z
y,-x+y,-z
x,y,-z
x-y,x,-z
-y,x-y,-z
-x+y,y,z
x,x-y,z
-y,-x,z
y,x,z
x-y,-y,z
-x,-x+y,z
loop_
_atom_site_type_symbol
_atom_site_label
_atom_site_fract_x
_atom_site_fract_y
_atom_site_fract_z
Si Si1 0.186430 0.664430 0.857493
Si Si2 0.079587 0.784230 0.429240
Si Si3 0.778034 0.697228 0.185438
Si Si4 0.811631 0.476619 0.500000
Si Si5 0.611328 0.917731 0.929664
Si Si6 0.550898 0.703496 0.376244
Si Si7 0.084118 0.433613 0.250250
O O1 0.210188 0.605094 0.872224
O O2 0.257880 0.742121 0.845164
O O3 0.140453 0.668135 0.915635
O O4 0.133019 0.637256 0.798431
O O5 0.083134 0.760912 0.500000
O O6 0.129689 0.870312 0.420931
O O7 0.106016 0.742666 0.384862
O O8 0.000000 0.765782 0.409357
O O9 0.861682 0.723363 0.199627
O O10 0.766438 0.766438 0.189845
O O11 0.758268 0.662640 0.116605
O O12 0.727783 0.637245 0.235890
O O13 0.746200 0.492400 0.500000
O O14 0.783050 0.391525 0.500000
O O15 0.857117 0.511777 0.437051
O O16 0.626716 0.000000 0.919641
O O17 0.629231 0.906325 0.000000
O O18 0.525535 0.762768 0.364420
O O19 0.533136 0.651156 0.317374
O O20 0.000000 0.413413 0.246660
#
# Coordination Sequence:
#
# PCOD8328561 Si02
#       7
#    24  24  24  12  24  24  24
#     4  11  23  38  54  73 100 136 174 209 244 292
#     4   9  16  27  45  68  93 121 152 188 230 279
#     4   9  17  30  49  75 105 136 171 210 254 301
#     4  10  21  36  53  73  98 131 168 202 237 283
#     4   9  18  33  55  81 105 131 165 209 260 304
#     4  10  18  32  52  75 101 128 159 199 247 296
#     4  10  20  34  55  79 100 126 160 208 264 308
#
# _framework density 18.456980000000001
#
# number of rings (size 3 to 8) (size 9 to 14) (size 15 to 20)
#    0.000    2.308    0.769    4.846    0.000    3.385 
#    0.000    0.769    0.000    6.308    0.000    1.077 
#    0.000    0.000    0.000    8.769    0.000    3.385 
#
# Total GULP energy -1933891.749306 kJ/mol
# GULP energy per Si atom -12396.741983 kJ/mol
# Density = 1.841497 g / cm^3
# Si number density = 18.456980 Si / 1000 Ang^3
#
#
#
# Elastic Constant Matrix: (Units=GPa)
#
#
# Indices 1 2 3 4 5 6 
#
# 1 72.0895 30.1783 10.2526 0.0000 0.0000 0.0000
# 2 30.1783 72.0895 10.2526 0.0000 0.0000 0.0000
# 3 10.2526 10.2526 89.7316 0.0000 0.0000 0.0000
# 4 0.0000 0.0000 0.0000 14.1491 0.0000 0.0000
# 5 0.0000 0.0000 0.0000 0.0000 14.1491 0.0000
# 6 0.0000 0.0000 0.0000 0.0000 0.0000 20.9556
#
#
#
# Elastic Compliance Matrix: (Units=1/GPa)
#
#
# Indices 1 2 3 4 5 6 
#
# 1 0.016934 -0.006926 -0.001143 0.000000 0.000000 0.000000
# 2 -0.006926 0.016934 -0.001143 0.000000 0.000000 0.000000
# 3 -0.001143 -0.001143 0.011406 0.000000 0.000000 0.000000
# 4 0.000000 0.000000 0.000000 0.070676 0.000000 0.000000
# 5 0.000000 0.000000 0.000000 0.000000 0.070676 0.000000
# 6 0.000000 0.000000 0.000000 0.000000 0.000000 0.047720
#
#
# Mechanical properties :
#
#
# Convention : Reuss Voigt Hill
#
# Bulk Modulus (GPa) = 37.24824 37.25305 37.25065
# Shear Modulus (GPa) = 19.10441 22.06591 20.58516
#
# Velocity S-wave (km/s) = 3.22075 3.46140 3.34324
# Velocity P-wave (km/s) = 5.83575 6.01686 5.92699
#
# Compressibility (1/GPa) = 0.02684691
#
# Stress axis : x y z
#
# Youngs Moduli (GPa) = 59.05365 59.05365 87.67595
#
# Poissons Ratio (x) = 0.40902 0.10025
# Poissons Ratio (y) = 0.40902 0.10025
# Poissons Ratio (z) = 0.06752 0.06752
#
# Static dielectric constant tensor:
#      x y z
#    x 3.238890 0.000000 0.000000 
#    y 0.000000 3.238890 0.000000 
#    z 0.000000 0.000000 3.476430 
# 
# 
# High freq. dielectric constant tensor:
#      x y z
#    x 1.695170 0.000000 0.000000 
#    y 0.000000 1.695170 0.000000 
#    z 0.000000 0.000000 1.721470 
# 
# From -- ./inp_files/7725.got.cif
#   From: 2010.03.12/outbox.cif.g09.slc.cpg/sg191_4_cif.got.tgz:7725.got - 2010.04.01 12:09:02.
