data_PCOD8328675
_publ_section_title
;
Structure prediction by ZEFSAII (Michael W. Deem and Ramdas Pophale) SiO2 
 PCOD8328675
Probable space group: P 6/M M M
;
_chemical_formula_sum "Si O2"
_cell_formula_units_Z 168
_cell_length_a 18.412075
_cell_length_b 18.412075
_cell_length_c 34.776709
_cell_angle_alpha 90.000000
_cell_angle_beta 90.000000
_cell_angle_gamma 120.000000
_cell_volume 10209.972765
_symmetry_space_group_name_H-M "P 6/M M M"
_symmetry_group_IT_number 191
_symmetry_cell_setting 'hexagonal'
loop_
_space_group_symop_operation_xyz
x,y,z
x-y,x,z
-y,x-y,z
-x,-y,z
-x+y,-x,z
y,-x+y,z
x-y,-y,-z
-x,-x+y,-z
y,x,-z
-y,-x,-z
-x+y,y,-z
x,x-y,-z
-x,-y,-z
-x+y,-x,-z
y,-x+y,-z
x,y,-z
x-y,x,-z
-y,x-y,-z
-x+y,y,z
x,x-y,z
-y,-x,z
y,x,z
x-y,-y,z
-x,-x+y,z
loop_
_atom_site_type_symbol
_atom_site_label
_atom_site_fract_x
_atom_site_fract_y
_atom_site_fract_z
Si Si1 0.500165 0.666445 0.455926
Si Si2 0.744680 0.092826 0.402297
Si Si3 0.530859 0.630120 0.957085
Si Si4 0.903789 0.533708 0.179118
Si Si5 0.168134 0.667796 0.739537
Si Si6 0.738031 0.098546 0.890873
Si Si7 0.744430 0.093118 0.685645
O O1 0.526169 0.665602 0.500000
O O2 0.476328 0.738164 0.449088
O O3 0.420932 0.579069 0.443983
O O4 0.576350 0.680366 0.429069
O O5 0.840684 0.159317 0.413372
O O6 0.725509 0.105219 0.358373
O O7 0.730670 0.000000 0.408844
O O8 0.432640 0.567361 0.946292
O O9 0.576079 0.576079 0.955553
O O10 0.577523 0.706193 0.927479
O O11 0.537248 0.666911 0.000000
O O12 0.882621 0.441311 0.164569
O O13 0.849076 0.527020 0.216049
O O14 0.884216 0.580990 0.145899
O O15 0.000000 0.586333 0.191809
O O16 0.152344 0.576172 0.730552
O O17 0.263841 0.736160 0.730181
O O18 0.105852 0.680924 0.712226
O O19 0.839552 0.160449 0.888819
O O20 0.712888 0.000000 0.893267
O O21 0.840829 0.159172 0.696509
O O22 0.729452 0.000000 0.692614
#
# Coordination Sequence:
#
# PCOD8328675 Si02
#       7
#    24  24  24  24  24  24  24
#     4   9  17  29  45  65  90 120 152 184 217 253
#     4   9  18  32  48  66  88 114 144 179 221 266
#     4   8  14  26  45  67  88 110 137 170 211 260
#     4   9  17  29  46  67  88 111 142 181 224 268
#     4  10  19  30  44  64  92 124 155 183 211 246
#     4  10  19  30  45  65  89 117 151 190 228 266
#     4   9  18  32  49  67  87 113 145 181 221 264
#
# _framework density 16.454501
#
# number of rings (size 3 to 8) (size 9 to 14) (size 15 to 20)
#    0.000    2.857    0.000    2.000    0.000    4.571 
#    0.000    2.143    0.000    5.286    0.000    2.000 
#    0.000    0.000    0.000   11.714    0.000    6.857 
#
# Total GULP energy -2082464.441327 kJ/mol
# GULP energy per Si atom -12395.621675 kJ/mol
# Density = 1.641705 g / cm^3
# Si number density = 16.454501 Si / 1000 Ang^3
#
#
#
# Elastic Constant Matrix: (Units=GPa)
#
#
# Indices 1 2 3 4 5 6 
#
# 1 89.8497 55.8581 42.8513 0.0000 0.0000 0.0000
# 2 55.8581 89.8497 42.8513 0.0000 0.0000 0.0000
# 3 42.8513 42.8513 66.8874 0.0000 0.0000 0.0000
# 4 0.0000 0.0000 0.0000 20.5855 0.0000 0.0000
# 5 0.0000 0.0000 0.0000 0.0000 20.5855 0.0000
# 6 0.0000 0.0000 0.0000 0.0000 0.0000 16.9958
#
#
#
# Elastic Compliance Matrix: (Units=1/GPa)
#
#
# Indices 1 2 3 4 5 6 
#
# 1 0.020216 -0.009203 -0.007055 0.000000 0.000000 0.000000
# 2 -0.009203 0.020216 -0.007055 0.000000 0.000000 0.000000
# 3 -0.007055 -0.007055 0.023991 0.000000 0.000000 0.000000
# 4 0.000000 0.000000 0.000000 0.048578 0.000000 0.000000
# 5 0.000000 0.000000 0.000000 0.000000 0.048578 0.000000
# 6 0.000000 0.000000 0.000000 0.000000 0.000000 0.058838
#
#
# Mechanical properties :
#
#
# Convention : Reuss Voigt Hill
#
# Bulk Modulus (GPa) = 56.19628 58.85646 57.52637
# Shear Modulus (GPa) = 18.31666 18.63511 18.47589
#
# Velocity S-wave (km/s) = 3.34004 3.36895 3.35453
# Velocity P-wave (km/s) = 7.00722 7.14003 7.07394
#
# Compressibility (1/GPa) = 0.01779477
#
# Stress axis : x y z
#
# Youngs Moduli (GPa) = 49.46582 49.46582 41.68316
#
# Poissons Ratio (x) = 0.45524 0.29409
# Poissons Ratio (y) = 0.45524 0.29409
# Poissons Ratio (z) = 0.34900 0.34900
#
# Static dielectric constant tensor:
#      x y z
#    x 3.002170 0.000000 0.000000 
#    y 0.000000 3.002170 0.000000 
#    z 0.000000 0.000000 3.252410 
# 
# 
# High freq. dielectric constant tensor:
#      x y z
#    x 1.615360 0.000000 0.000000 
#    y 0.000000 1.615360 0.000000 
#    z 0.000000 0.000000 1.642390 
# 
# From -- ./inp_files/10766.got.cif
#   From: 2010.03.12/outbox.cif.g09.slc.cpg/sg191_6_cif.got.tgz:10766.got - 2010.04.01 12:09:02.
