data_PCOD8328829
_publ_section_title
;
Structure prediction by ZEFSAII (Michael W. Deem and Ramdas Pophale) SiO2 
 PCOD8328829
Probable space group: P 6/M M M
;
_chemical_formula_sum "Si O2"
_cell_formula_units_Z 84
_cell_length_a 17.763572
_cell_length_b 17.763572
_cell_length_c 17.967455
_cell_angle_alpha 90.000000
_cell_angle_beta 90.000000
_cell_angle_gamma 120.000000
_cell_volume 4909.958244
_symmetry_space_group_name_H-M "P 6/M M M"
_symmetry_group_IT_number 191
_symmetry_cell_setting 'hexagonal'
loop_
_space_group_symop_operation_xyz
x,y,z
x-y,x,z
-y,x-y,z
-x,-y,z
-x+y,-x,z
y,-x+y,z
x-y,-y,-z
-x,-x+y,-z
y,x,-z
-y,-x,-z
-x+y,y,-z
x,x-y,-z
-x,-y,-z
-x+y,-x,-z
y,-x+y,-z
x,y,-z
x-y,x,-z
-y,x-y,-z
-x+y,y,z
x,x-y,z
-y,-x,z
y,x,z
x-y,-y,z
-x,-x+y,z
loop_
_atom_site_type_symbol
_atom_site_label
_atom_site_fract_x
_atom_site_fract_y
_atom_site_fract_z
Si Si1 0.097743 0.735490 0.584132
Si Si2 0.102056 0.633840 0.716578
Si Si3 0.629757 0.897911 0.857878
Si Si4 0.634283 0.101825 0.000000
O O1 0.102013 0.705839 0.500000
O O2 0.160898 0.839103 0.593415
O O3 0.129872 0.685500 0.638665
O O4 0.000000 0.713490 0.604380
O O5 0.146131 0.573066 0.722280
O O6 0.130032 0.699958 0.784872
O O7 0.000000 0.572153 0.719309
O O8 0.674632 0.837316 0.860410
O O9 0.564371 0.870874 0.927029
O O10 0.704154 0.000000 0.858882
O O11 0.572821 0.145641 0.000000
O O12 0.571958 0.000000 0.000000
#
# Coordination Sequence:
#
# PCOD8328829 Si02
#       4
#    24  24  24  12
#     4   9  17  29  46  68  93 122 157 195 232 271
#     4   9  17  29  46  67  88 112 146 188 232 278
#     4  10  19  31  49  72  97 126 161 198 233 272
#     4   9  17  30  49  70  90 116 152 193 235 278
#
# _framework density 17.108089
#
# number of rings (size 3 to 8) (size 9 to 14) (size 15 to 20)
#    0.000    2.714    0.000    2.143    0.000    4.000 
#    0.000    2.857    0.000   14.286    0.000    2.000 
#    0.000   10.286    0.000    0.286    0.000    1.143 
#
# Total GULP energy -1040943.558683 kJ/mol
# GULP energy per Si atom -12392.185222 kJ/mol
# Density = 1.706915 g / cm^3
# Si number density = 17.108089 Si / 1000 Ang^3
#
#
#
# Elastic Constant Matrix: (Units=GPa)
#
#
# Indices 1 2 3 4 5 6 
#
# 1 92.2144 54.2214 41.7880 0.0000 0.0000 0.0000
# 2 54.2214 92.2144 41.7880 0.0000 0.0000 0.0000
# 3 41.7880 41.7880 123.0971 0.0000 0.0000 0.0000
# 4 0.0000 0.0000 0.0000 19.7232 0.0000 0.0000
# 5 0.0000 0.0000 0.0000 0.0000 19.7232 0.0000
# 6 0.0000 0.0000 0.0000 0.0000 0.0000 18.9965
#
#
#
# Elastic Compliance Matrix: (Units=1/GPa)
#
#
# Indices 1 2 3 4 5 6 
#
# 1 0.017395 -0.008925 -0.002875 0.000000 0.000000 0.000000
# 2 -0.008925 0.017395 -0.002875 0.000000 0.000000 0.000000
# 3 -0.002875 -0.002875 0.010076 0.000000 0.000000 0.000000
# 4 0.000000 0.000000 0.000000 0.050702 0.000000 0.000000
# 5 0.000000 0.000000 0.000000 0.000000 0.050702 0.000000
# 6 0.000000 0.000000 0.000000 0.000000 0.000000 0.052641
#
#
# Mechanical properties :
#
#
# Convention : Reuss Voigt Hill
#
# Bulk Modulus (GPa) = 64.45570 64.79117 64.62344
# Shear Modulus (GPa) = 21.41930 23.00384 22.21157
#
# Velocity S-wave (km/s) = 3.54220 3.67088 3.60711
# Velocity P-wave (km/s) = 7.38152 7.47804 7.42994
#
# Compressibility (1/GPa) = 0.01551453
#
# Stress axis : x y z
#
# Youngs Moduli (GPa) = 57.48679 57.48679 99.24730
#
# Poissons Ratio (x) = 0.51309 0.28537
# Poissons Ratio (y) = 0.51309 0.28537
# Poissons Ratio (z) = 0.16529 0.16529
#
# Static dielectric constant tensor:
#      x y z
#    x 3.119610 0.000000 0.000000 
#    y 0.000000 3.119610 0.000000 
#    z 0.000000 0.000000 3.505340 
# 
# 
# High freq. dielectric constant tensor:
#      x y z
#    x 1.634600 0.000000 0.000000 
#    y 0.000000 1.634600 0.000000 
#    z 0.000000 0.000000 1.682920 
# 
# From -- ./inp_files/3990.got.cif
#   From: 2010.03.12/outbox.cif.g09.slc.cpg/sg191_2_cif.got.tgz:3990.got - 2010.04.01 12:09:02.
