data_PCOD8328710
_publ_section_title
;
Structure prediction by ZEFSAII (Michael W. Deem and Ramdas Pophale) SiO2 
 PCOD8328710
Probable space group: P 6/M M M
;
_chemical_formula_sum "Si O2"
_cell_formula_units_Z 132
_cell_length_a 17.799550
_cell_length_b 17.799550
_cell_length_c 28.227157
_cell_angle_alpha 90.000000
_cell_angle_beta 90.000000
_cell_angle_gamma 120.000000
_cell_volume 7744.900027
_symmetry_space_group_name_H-M "P 6/M M M"
_symmetry_group_IT_number 191
_symmetry_cell_setting 'hexagonal'
loop_
_space_group_symop_operation_xyz
x,y,z
x-y,x,z
-y,x-y,z
-x,-y,z
-x+y,-x,z
y,-x+y,z
x-y,-y,-z
-x,-x+y,-z
y,x,-z
-y,-x,-z
-x+y,y,-z
x,x-y,-z
-x,-y,-z
-x+y,-x,-z
y,-x+y,-z
x,y,-z
x-y,x,-z
-y,x-y,-z
-x+y,y,z
x,x-y,z
-y,-x,z
y,x,z
x-y,-y,z
-x,-x+y,z
loop_
_atom_site_type_symbol
_atom_site_label
_atom_site_fract_x
_atom_site_fract_y
_atom_site_fract_z
Si Si1 0.634467 0.531896 0.947577
Si Si2 0.467495 0.101628 0.229737
Si Si3 0.267486 0.366393 0.317086
Si Si4 0.836664 0.505776 0.399531
Si Si5 0.367807 0.101374 0.860310
Si Si6 0.459111 0.363063 0.500000
O O1 0.570339 0.429662 0.936223
O O2 0.577305 0.577305 0.946165
O O3 0.709149 0.577374 0.908771
O O4 0.676046 0.542293 0.000000
O O5 0.572482 0.144963 0.229987
O O6 0.435371 0.134362 0.274146
O O7 0.437192 0.124594 0.181238
O O8 0.426694 0.000000 0.234464
O O9 0.163354 0.326707 0.321057
O O10 0.288557 0.288557 0.308851
O O11 0.315758 0.416848 0.364699
O O12 0.736288 0.472576 0.387687
O O13 0.856641 0.428321 0.392501
O O14 0.854480 0.542737 0.452935
O O15 0.323750 0.161875 0.854592
O O16 0.292986 0.000000 0.859773
O O17 0.375834 0.375834 0.500000
O O18 0.545280 0.454721 0.500000
#
# Coordination Sequence:
#
# PCOD8328710 Si02
#       6
#    24  24  24  24  24  12
#     4   8  14  26  45  67  88 111 142 181 226 277
#     4   9  17  30  49  71  92 115 145 180 220 269
#     4  10  20  33  50  71  94 122 156 194 233 273
#     4  10  19  30  45  66  93 124 157 193 232 274
#     4  10  19  30  46  68  93 122 158 199 238 275
#     4   9  17  28  42  60  84 119 161 197 227 264
#
# _framework density 17.043474
#
# number of rings (size 3 to 8) (size 9 to 14) (size 15 to 20)
#    0.000    2.636    0.000    3.182    0.000    4.364 
#    0.000    0.909    0.000    8.000    0.000    0.000 
#    0.000    4.364    0.000    4.545    0.000   18.909 
#
# Total GULP energy -1635967.478017 kJ/mol
# GULP energy per Si atom -12393.693015 kJ/mol
# Density = 1.700468 g / cm^3
# Si number density = 17.043474 Si / 1000 Ang^3
#
#
#
# Elastic Constant Matrix: (Units=GPa)
#
#
# Indices 1 2 3 4 5 6 
#
# 1 78.6191 44.4673 29.2084 0.0000 0.0000 0.0000
# 2 44.4673 78.6191 29.2084 0.0000 0.0000 0.0000
# 3 29.2084 29.2084 111.2057 0.0000 0.0000 0.0000
# 4 0.0000 0.0000 0.0000 10.7277 0.0000 0.0000
# 5 0.0000 0.0000 0.0000 0.0000 10.7277 0.0000
# 6 0.0000 0.0000 0.0000 0.0000 0.0000 17.0759
#
#
#
# Elastic Compliance Matrix: (Units=1/GPa)
#
#
# Indices 1 2 3 4 5 6 
#
# 1 0.019281 -0.010000 -0.002438 0.000000 0.000000 0.000000
# 2 -0.010000 0.019281 -0.002438 0.000000 0.000000 0.000000
# 3 -0.002438 -0.002438 0.010273 0.000000 0.000000 0.000000
# 4 0.000000 0.000000 0.000000 0.093216 0.000000 0.000000
# 5 0.000000 0.000000 0.000000 0.000000 0.093216 0.000000
# 6 0.000000 0.000000 0.000000 0.000000 0.000000 0.058562
#
#
# Mechanical properties :
#
#
# Convention : Reuss Voigt Hill
#
# Bulk Modulus (GPa) = 52.39844 52.69023 52.54434
# Shear Modulus (GPa) = 15.15417 18.74359 16.94888
#
# Velocity S-wave (km/s) = 2.98509 3.31985 3.15691
# Velocity P-wave (km/s) = 6.53389 6.75851 6.64715
#
# Compressibility (1/GPa) = 0.01908454
#
# Stress axis : x y z
#
# Youngs Moduli (GPa) = 51.86397 51.86397 97.34341
#
# Poissons Ratio (x) = 0.51863 0.23730
# Poissons Ratio (y) = 0.51863 0.23730
# Poissons Ratio (z) = 0.12643 0.12643
#
# Static dielectric constant tensor:
#      x y z
#    x 2.967280 0.000000 0.000000 
#    y 0.000000 2.967280 0.000000 
#    z 0.000000 0.000000 3.541840 
# 
# 
# High freq. dielectric constant tensor:
#      x y z
#    x 1.627730 0.000000 0.000000 
#    y 0.000000 1.627730 0.000000 
#    z 0.000000 0.000000 1.679700 
# 
# From -- ./inp_files/9820.got.cif
#   From: 2010.03.12/outbox.cif.g09.slc.cpg/sg191_5_cif.got.tgz:9820.got - 2010.04.01 12:09:02.
