data_PCOD8328268
_publ_section_title
;
Structure prediction by ZEFSAII (Michael W. Deem and Ramdas Pophale) SiO2 
 PCOD8328268
Probable space group: P 6/M M M
;
_chemical_formula_sum "Si O2"
_cell_formula_units_Z 132
_cell_length_a 18.970388
_cell_length_b 18.970388
_cell_length_c 28.202050
_cell_angle_alpha 90.000000
_cell_angle_beta 90.000000
_cell_angle_gamma 120.000000
_cell_volume 8789.491228
_symmetry_space_group_name_H-M "P 6/M M M"
_symmetry_group_IT_number 191
_symmetry_cell_setting 'hexagonal'
loop_
_space_group_symop_operation_xyz
x,y,z
x-y,x,z
-y,x-y,z
-x,-y,z
-x+y,-x,z
y,-x+y,z
x-y,-y,-z
-x,-x+y,-z
y,x,-z
-y,-x,-z
-x+y,y,-z
x,x-y,-z
-x,-y,-z
-x+y,-x,-z
y,-x+y,-z
x,y,-z
x-y,x,-z
-y,x-y,-z
-x+y,y,z
x,x-y,z
-y,-x,z
y,x,z
x-y,-y,z
-x,-x+y,z
loop_
_atom_site_type_symbol
_atom_site_label
_atom_site_fract_x
_atom_site_fract_y
_atom_site_fract_z
Si Si1 0.747895 0.092240 0.055593
Si Si2 0.494805 0.669134 0.594075
Si Si3 0.371651 0.467130 0.312902
Si Si4 0.668564 0.171844 0.885759
Si Si5 0.537896 0.630062 0.500000
Si Si6 0.090325 0.461677 0.210112
O O1 0.841438 0.158563 0.070550
O O2 0.684255 0.113473 0.080126
O O3 0.725528 0.000000 0.069749
O O4 0.736569 0.097582 0.000000
O O5 0.458861 0.729431 0.591931
O O6 0.422953 0.577048 0.594568
O O7 0.548506 0.687630 0.642284
O O8 0.549036 0.682652 0.547286
O O9 0.437812 0.562189 0.312557
O O10 0.412805 0.412805 0.320742
O O11 0.325983 0.445620 0.261431
O O12 0.578237 0.156474 0.895489
O O13 0.733942 0.266058 0.895416
O O14 0.680424 0.151830 0.831604
O O15 0.609346 0.609346 0.500000
O O16 0.449658 0.550343 0.500000
O O17 0.084803 0.542402 0.215293
O O18 0.000000 0.387354 0.197819
#
# Coordination Sequence:
#
# PCOD8328268 Si02
#       6
#    24  24  24  24  12  24
#     4   9  18  32  49  68  88 110 137 170 209 252
#     4  10  18  26  36  51  71  91 111 140 183 231
#     4   8  14  25  39  52  67  91 124 158 190 227
#     4  10  19  29  41  59  85 116 148 181 215 248
#     4   9  17  28  40  50  60  81 114 146 174 208
#     4   8  14  25  40  55  70  93 129 170 206 238
#
# _framework density 15.017934
#
# number of rings (size 3 to 8) (size 9 to 14) (size 15 to 20)
#    0.000    3.000    0.000    2.818    0.000    4.364 
#    0.000    1.818    0.000    3.455    0.000    1.273 
#    0.000    0.000    0.000    0.000    0.000    0.000 
#
# Total GULP energy -1635379.121935 kJ/mol
# GULP energy per Si atom -12389.235772 kJ/mol
# Density = 1.498375 g / cm^3
# Si number density = 15.017934 Si / 1000 Ang^3
#
#
#
# Elastic Constant Matrix: (Units=GPa)
#
#
# Indices 1 2 3 4 5 6 
#
# 1 53.6189 32.4096 33.4015 0.0000 0.0000 0.0000
# 2 32.4096 53.6189 33.4015 0.0000 0.0000 0.0000
# 3 33.4015 33.4015 78.7690 0.0000 0.0000 0.0000
# 4 0.0000 0.0000 0.0000 15.6526 0.0000 0.0000
# 5 0.0000 0.0000 0.0000 0.0000 15.6526 0.0000
# 6 0.0000 0.0000 0.0000 0.0000 0.0000 10.6046
#
#
#
# Elastic Compliance Matrix: (Units=1/GPa)
#
#
# Indices 1 2 3 4 5 6 
#
# 1 0.032240 -0.014909 -0.007349 0.000000 0.000000 0.000000
# 2 -0.014909 0.032240 -0.007349 0.000000 0.000000 0.000000
# 3 -0.007349 -0.007349 0.018928 0.000000 0.000000 0.000000
# 4 0.000000 0.000000 0.000000 0.063887 0.000000 0.000000
# 5 0.000000 0.000000 0.000000 0.000000 0.063887 0.000000
# 6 0.000000 0.000000 0.000000 0.000000 0.000000 0.094298
#
#
# Mechanical properties :
#
#
# Convention : Reuss Voigt Hill
#
# Bulk Modulus (GPa) = 41.33354 42.71465 42.02409
# Shear Modulus (GPa) = 13.41348 14.16824 13.79086
#
# Velocity S-wave (km/s) = 2.99183 3.07485 3.03362
# Velocity P-wave (km/s) = 6.28627 6.41174 6.34932
#
# Compressibility (1/GPa) = 0.02419343
#
# Stress axis : x y z
#
# Youngs Moduli (GPa) = 31.01745 31.01745 52.83202
#
# Poissons Ratio (x) = 0.46245 0.38826
# Poissons Ratio (y) = 0.46245 0.38826
# Poissons Ratio (z) = 0.22795 0.22795
#
# Static dielectric constant tensor:
#      x y z
#    x 2.636960 0.000000 0.000000 
#    y 0.000000 2.636960 0.000000 
#    z 0.000000 0.000000 3.381920 
# 
# 
# High freq. dielectric constant tensor:
#      x y z
#    x 1.536210 0.000000 0.000000 
#    y 0.000000 1.536210 0.000000 
#    z 0.000000 0.000000 1.599610 
# 
# From -- ./inp_files/10426.got.cif
#   From: 2010.03.12/outbox.cif.g09.slc.cpg/sg191_6_cif.got.tgz:10426.got - 2010.04.01 12:09:02.
