data_PCOD8328021
_publ_section_title
;
Structure prediction by ZEFSAII (Michael W. Deem and Ramdas Pophale) SiO2 
 PCOD8328021
Probable space group: P -6 2 C
;
_chemical_formula_sum "Si O2"
_cell_formula_units_Z 66
_cell_length_a 19.623113
_cell_length_b 19.623113
_cell_length_c 10.067133
_cell_angle_alpha 90.000000
_cell_angle_beta 90.000000
_cell_angle_gamma 120.000000
_cell_volume 3357.161604
_symmetry_space_group_name_H-M "P -6 2 C"
_symmetry_group_IT_number 190
_symmetry_cell_setting 'hexagonal'
loop_
_space_group_symop_operation_xyz
x,y,z
-x+y,-x,1/2-z
-y,x-y,z
x,y,1/2-z
-x+y,-x,z
-y,x-y,1/2-z
x-y,-y,-z
-x,-x+y,-z
y,x,-z
y,x,1/2+z
x-y,-y,1/2+z
-x,-x+y,1/2+z
loop_
_atom_site_type_symbol
_atom_site_label
_atom_site_fract_x
_atom_site_fract_y
_atom_site_fract_z
Si Si1 0.582537 0.072148 0.250000
Si Si2 0.908034 0.404693 0.482580
Si Si3 0.761793 0.117391 0.250000
Si Si4 0.384990 0.154855 0.006932
Si Si5 0.429245 0.540145 0.250000
Si Si6 0.044848 0.796950 0.250000
Si Si7 0.576426 0.827872 0.250000
Si Si8 0.842580 0.780740 0.898006
O O1 0.566174 0.110725 0.378452
O O2 0.669845 0.086883 0.250000
O O3 0.526105 0.979605 0.250000
O O4 0.873761 0.315839 0.431537
O O5 0.867906 0.404771 0.621456
O O6 0.000000 0.440594 0.500000
O O7 0.797708 0.166182 0.381946
O O8 0.783032 0.047326 0.250000
O O9 0.428748 0.208721 0.881198
O O10 0.302821 0.080781 0.959150
O O11 0.336265 0.499300 0.250000
O O12 0.088857 0.746421 0.250000
O O13 0.073788 0.855712 0.120064
O O14 0.814561 0.791141 0.750000
O O15 0.847833 0.847833 0.000000
#
# Coordination Sequence:
#
# PCOD8328021 Si02
#       8
#     6  12   6  12   6   6   6  12
#     4  10  21  38  56  87 114 166 199 257 305 379
#     4  10  21  37  58  84 116 149 216 247 315 365
#     4  12  23  36  63  88 138 164 205 258 347 372
#     4  11  22  36  58  91 126 167 202 282 312 386
#     4  10  19  34  61  80 107 162 197 258 310 370
#     4   8  20  37  57  92 127 158 206 255 298 426
#     4  10  19  37  55  85 124 156 209 256 338 367
#     4   9  20  38  60  88 129 164 201 249 327 380
#
# _framework density 19.659465999999998
#
# number of rings (size 3 to 8) (size 9 to 14) (size 15 to 20)
#    0.545    1.455    1.818    2.727    1.273    2.909 
#    3.273    0.000    2.000   14.545    0.000    0.000 
#   29.091    0.000    0.000    0.000    0.000    0.000 
#
# Total GULP energy -818020.134374 kJ/mol
# GULP energy per Si atom -12394.244460 kJ/mol
# Density = 1.961472 g / cm^3
# Si number density = 19.659466 Si / 1000 Ang^3
#
#
#
# Elastic Constant Matrix: (Units=GPa)
#
#
# Indices 1 2 3 4 5 6 
#
# 1 95.9439 38.3407 45.0299 0.0000 0.0000 0.0000
# 2 38.3407 95.9439 45.0299 0.0000 0.0000 0.0000
# 3 45.0299 45.0299 128.9174 0.0000 0.0000 0.0000
# 4 0.0000 0.0000 0.0000 35.9807 0.0000 0.0000
# 5 0.0000 0.0000 0.0000 0.0000 35.9807 0.0000
# 6 0.0000 0.0000 0.0000 0.0000 0.0000 28.8016
#
#
#
# Elastic Compliance Matrix: (Units=1/GPa)
#
#
# Indices 1 2 3 4 5 6 
#
# 1 0.013543 -0.003818 -0.003397 0.000000 0.000000 0.000000
# 2 -0.003818 0.013543 -0.003397 0.000000 0.000000 0.000000
# 3 -0.003397 -0.003397 0.010130 0.000000 0.000000 0.000000
# 4 0.000000 0.000000 0.000000 0.027793 0.000000 0.000000
# 5 0.000000 0.000000 0.000000 0.000000 0.027793 0.000000
# 6 0.000000 0.000000 0.000000 0.000000 0.000000 0.034720
#
#
# Mechanical properties :
#
#
# Convention : Reuss Voigt Hill
#
# Bulk Modulus (GPa) = 62.52948 64.17847 63.35398
# Shear Modulus (GPa) = 32.45188 32.97957 32.71572
#
# Velocity S-wave (km/s) = 4.06729 4.10022 4.08379
# Velocity P-wave (km/s) = 7.34387 7.42507 7.38458
#
# Compressibility (1/GPa) = 0.01599246
#
# Stress axis : x y z
#
# Youngs Moduli (GPa) = 73.84104 73.84104 98.71753
#
# Poissons Ratio (x) = 0.28189 0.33533
# Poissons Ratio (y) = 0.28189 0.33533
# Poissons Ratio (z) = 0.25083 0.25083
#
# Static dielectric constant tensor:
#      x y z
#    x 3.369570 0.000000 0.000000 
#    y 0.000000 3.369570 0.000000 
#    z 0.000000 0.000000 3.830360 
# 
# 
# High freq. dielectric constant tensor:
#      x y z
#    x 1.747740 0.000000 0.000000 
#    y 0.000000 1.747740 0.000000 
#    z 0.000000 0.000000 1.778960 
# 
# From -- ./inp_files/1118.got.cif
#   From: 2010.06.25/outbox.cif.g09.slc.cpg/sg190_1_cif.got.tgz:1118.got - 2010.06.28 13:08:06.
