data_PCOD8328514
_publ_section_title
;
Structure prediction by ZEFSAII (Michael W. Deem and Ramdas Pophale) SiO2 
 PCOD8328514
Probable space group: P 6/M M M
;
_chemical_formula_sum "Si O2"
_cell_formula_units_Z 90
_cell_length_a 21.637631
_cell_length_b 21.637631
_cell_length_c 14.177995
_cell_angle_alpha 90.000000
_cell_angle_beta 90.000000
_cell_angle_gamma 120.000000
_cell_volume 5748.636804
_symmetry_space_group_name_H-M "P 6/M M M"
_symmetry_group_IT_number 191
_symmetry_cell_setting 'hexagonal'
loop_
_space_group_symop_operation_xyz
x,y,z
x-y,x,z
-y,x-y,z
-x,-y,z
-x+y,-x,z
y,-x+y,z
x-y,-y,-z
-x,-x+y,-z
y,x,-z
-y,-x,-z
-x+y,y,-z
x,x-y,-z
-x,-y,-z
-x+y,-x,-z
y,-x+y,-z
x,y,-z
x-y,x,-z
-y,x-y,-z
-x+y,y,z
x,x-y,z
-y,-x,z
y,x,z
x-y,-y,z
-x,-x+y,z
loop_
_atom_site_type_symbol
_atom_site_label
_atom_site_fract_x
_atom_site_fract_y
_atom_site_fract_z
Si Si1 0.735818 0.735818 0.896793
Si Si2 0.523285 0.333735 0.891023
Si Si3 0.081029 0.778149 0.607060
Si Si4 0.854805 0.000000 0.000000
Si Si5 0.122741 0.387820 0.215930
O O1 0.810533 0.810533 0.907269
O O2 0.750226 0.680600 0.842632
O O3 0.704142 0.704142 0.000000
O O4 0.537560 0.268780 0.871601
O O5 0.594468 0.405533 0.863950
O O6 0.460846 0.331643 0.823940
O O7 0.501716 0.333633 0.000000
O O8 0.088516 0.758041 0.500000
O O9 0.137652 0.862349 0.626796
O O10 0.099463 0.728571 0.674071
O O11 0.000000 0.761627 0.626213
O O12 0.863876 0.931938 0.000000
O O13 0.199718 0.399436 0.197559
#
# Coordination Sequence:
#
# PCOD8328514 Si02
#       5
#    12  24  24   6  24
#     4  10  20  29  44  65  92 119 153 190 227 267
#     4   9  17  29  47  70  97 126 157 191 229 275
#     4   9  17  30  49  71  92 115 150 195 239 281
#     4  10  21  34  48  64  89 124 162 198 230 268
#     4  10  18  30  47  68  92 122 156 190 231 278
#
# _framework density 15.655885
#
# number of rings (size 3 to 8) (size 9 to 14) (size 15 to 20)
#    0.400    2.133    1.333    1.933    0.000    2.133 
#    0.000    0.667    0.000    3.467    0.000    3.733 
#    0.000    2.133    0.000    0.000    0.000    0.000 
#
# Total GULP energy -1115056.718169 kJ/mol
# GULP energy per Si atom -12389.519091 kJ/mol
# Density = 1.562025 g / cm^3
# Si number density = 15.655885 Si / 1000 Ang^3
#
#
#
# Elastic Constant Matrix: (Units=GPa)
#
#
# Indices 1 2 3 4 5 6 
#
# 1 116.4730 30.5122 52.3311 0.0000 0.0000 0.0000
# 2 30.5122 116.4730 52.3311 0.0000 0.0000 0.0000
# 3 52.3311 52.3311 97.1241 0.0000 0.0000 0.0000
# 4 0.0000 0.0000 0.0000 21.3362 0.0000 0.0000
# 5 0.0000 0.0000 0.0000 0.0000 21.3362 0.0000
# 6 0.0000 0.0000 0.0000 0.0000 0.0000 42.9804
#
#
#
# Elastic Compliance Matrix: (Units=1/GPa)
#
#
# Indices 1 2 3 4 5 6 
#
# 1 0.011336 -0.000297 -0.005948 0.000000 0.000000 0.000000
# 2 -0.000297 0.011336 -0.005948 0.000000 0.000000 0.000000
# 3 -0.005948 -0.005948 0.016705 0.000000 0.000000 0.000000
# 4 0.000000 0.000000 0.000000 0.046869 0.000000 0.000000
# 5 0.000000 0.000000 0.000000 0.000000 0.046869 0.000000
# 6 0.000000 0.000000 0.000000 0.000000 0.000000 0.023266
#
#
# Mechanical properties :
#
#
# Convention : Reuss Voigt Hill
#
# Bulk Modulus (GPa) = 66.70295 66.71322 66.70809
# Shear Modulus (GPa) = 26.91599 30.12360 28.51980
#
# Velocity S-wave (km/s) = 4.15085 4.39122 4.27273
# Velocity P-wave (km/s) = 8.10376 8.27135 8.18798
#
# Compressibility (1/GPa) = 0.01499184
#
# Stress axis : x y z
#
# Youngs Moduli (GPa) = 88.21592 88.21592 59.86124
#
# Poissons Ratio (x) = 0.02623 0.35603
# Poissons Ratio (y) = 0.02623 0.35603
# Poissons Ratio (z) = 0.52467 0.52467
#
# Static dielectric constant tensor:
#      x y z
#    x 3.011140 0.000000 0.000000 
#    y 0.000000 3.011140 0.000000 
#    z 0.000000 0.000000 3.171550 
# 
# 
# High freq. dielectric constant tensor:
#      x y z
#    x 1.588650 0.000000 0.000000 
#    y 0.000000 1.588650 0.000000 
#    z 0.000000 0.000000 1.599740 
# 
# From -- ./inp_files/4197.got.cif
#   From: 2010.03.12/outbox.cif.g09.slc.cpg/sg191_3_cif.got.tgz:4197.got - 2010.04.01 12:09:02.
