data_PCOD8328501
_publ_section_title
;
Structure prediction by ZEFSAII (Michael W. Deem and Ramdas Pophale) SiO2 
 PCOD8328501
Probable space group: P 6/M M M
;
_chemical_formula_sum "Si O2"
_cell_formula_units_Z 120
_cell_length_a 26.800562
_cell_length_b 26.800562
_cell_length_c 11.914482
_cell_angle_alpha 90.000000
_cell_angle_beta 90.000000
_cell_angle_gamma 120.000000
_cell_volume 7411.286453
_symmetry_space_group_name_H-M "P 6/M M M"
_symmetry_group_IT_number 191
_symmetry_cell_setting 'hexagonal'
loop_
_space_group_symop_operation_xyz
x,y,z
x-y,x,z
-y,x-y,z
-x,-y,z
-x+y,-x,z
y,-x+y,z
x-y,-y,-z
-x,-x+y,-z
y,x,-z
-y,-x,-z
-x+y,y,-z
x,x-y,-z
-x,-y,-z
-x+y,-x,-z
y,-x+y,-z
x,y,-z
x-y,x,-z
-y,x-y,-z
-x+y,y,z
x,x-y,z
-y,-x,z
y,x,z
x-y,-y,z
-x,-x+y,z
loop_
_atom_site_type_symbol
_atom_site_label
_atom_site_fract_x
_atom_site_fract_y
_atom_site_fract_z
Si Si1 0.447484 0.780567 0.760861
Si Si2 0.666574 0.065151 0.000000
Si Si3 0.500598 0.193513 0.000000
Si Si4 0.935898 0.174082 0.871607
Si Si5 0.064456 0.341035 0.769239
Si Si6 0.559811 0.838014 0.630396
O O1 0.393813 0.787626 0.725988
O O2 0.433913 0.716957 0.725830
O O3 0.458584 0.790134 0.892904
O O4 0.502613 0.828438 0.692910
O O5 0.701878 0.070305 0.890072
O O6 0.663466 0.123864 0.000000
O O7 0.607591 0.000000 0.000000
O O8 0.470925 0.235463 0.000000
O O9 0.892919 0.107082 0.846799
O O10 0.920316 0.211065 0.787253
O O11 0.000000 0.186057 0.848431
O O12 0.930164 0.190247 0.000000
O O13 0.105537 0.385725 0.677737
O O14 0.000000 0.315101 0.722146
O O15 0.553386 0.846755 0.500000
O O16 0.569397 0.784699 0.654903
#
# Coordination Sequence:
#
# PCOD8328501 Si02
#       6
#    24  12  12  24  24  24
#     4  10  20  34  53  76 100 124 154 194 241 288
#     4  10  18  29  48  76 102 122 152 196 240 291
#     4  10  19  31  52  78 101 129 158 190 243 298
#     4   9  16  25  40  65  95 125 157 196 241 286
#     4  10  18  30  49  72  97 123 155 196 243 288
#     4  10  21  35  50  70  95 126 165 200 230 276
#
# _framework density 16.191521999999999
#
# number of rings (size 3 to 8) (size 9 to 14) (size 15 to 20)
#    0.000    2.200    3.000    1.100    0.000    1.600 
#    0.000    1.000    0.000    4.400    0.000    2.800 
#    0.000    0.000    0.000    0.000    0.000    0.000 
#
# Total GULP energy -1487181.861511 kJ/mol
# GULP energy per Si atom -12393.182179 kJ/mol
# Density = 1.615467 g / cm^3
# Si number density = 16.191522 Si / 1000 Ang^3
#
#
#
# Elastic Constant Matrix: (Units=GPa)
#
#
# Indices 1 2 3 4 5 6 
#
# 1 103.8705 57.0354 32.9673 0.0000 0.0000 0.0000
# 2 57.0354 103.8705 32.9673 0.0000 0.0000 0.0000
# 3 32.9673 32.9673 79.0707 0.0000 0.0000 0.0000
# 4 0.0000 0.0000 0.0000 14.6128 0.0000 0.0000
# 5 0.0000 0.0000 0.0000 0.0000 14.6128 0.0000
# 6 0.0000 0.0000 0.0000 0.0000 0.0000 23.4176
#
#
#
# Elastic Compliance Matrix: (Units=1/GPa)
#
#
# Indices 1 2 3 4 5 6 
#
# 1 0.014423 -0.006928 -0.003125 0.000000 0.000000 0.000000
# 2 -0.006928 0.014423 -0.003125 0.000000 0.000000 0.000000
# 3 -0.003125 -0.003125 0.015253 0.000000 0.000000 0.000000
# 4 0.000000 0.000000 0.000000 0.068433 0.000000 0.000000
# 5 0.000000 0.000000 0.000000 0.000000 0.068433 0.000000
# 6 0.000000 0.000000 0.000000 0.000000 0.000000 0.042703
#
#
# Mechanical properties :
#
#
# Convention : Reuss Voigt Hill
#
# Bulk Modulus (GPa) = 56.35944 59.19462 57.77703
# Shear Modulus (GPa) = 19.53583 21.45140 20.49361
#
# Velocity S-wave (km/s) = 3.47731 3.64380 3.56153
# Velocity P-wave (km/s) = 7.14183 7.37167 7.25766
#
# Compressibility (1/GPa) = 0.01774326
#
# Stress axis : x y z
#
# Youngs Moduli (GPa) = 69.33158 69.33158 65.56161
#
# Poissons Ratio (x) = 0.48033 0.20489
# Poissons Ratio (y) = 0.48033 0.20489
# Poissons Ratio (z) = 0.21667 0.21667
#
# Static dielectric constant tensor:
#      x y z
#    x 3.093880 0.000000 0.000000 
#    y 0.000000 3.093880 0.000000 
#    z 0.000000 0.000000 2.930800 
# 
# 
# High freq. dielectric constant tensor:
#      x y z
#    x 1.613940 0.000000 0.000000 
#    y 0.000000 1.613940 0.000000 
#    z 0.000000 0.000000 1.610260 
# 
# From -- ./inp_files/3248.got.cif
#   From: 2010.03.12/outbox.cif.g09.slc.cpg/sg191_2_cif.got.tgz:3248.got - 2010.04.01 12:09:02.
