data_PCOD8328379
_publ_section_title
;
Structure prediction by ZEFSAII (Michael W. Deem and Ramdas Pophale) SiO2 
 PCOD8328379
Probable space group: P 6/M M M
;
_chemical_formula_sum "Si O2"
_cell_formula_units_Z 96
_cell_length_a 29.268499
_cell_length_b 29.268499
_cell_length_c 8.852199
_cell_angle_alpha 90.000000
_cell_angle_beta 90.000000
_cell_angle_gamma 120.000000
_cell_volume 6567.237183
_symmetry_space_group_name_H-M "P 6/M M M"
_symmetry_group_IT_number 191
_symmetry_cell_setting 'hexagonal'
loop_
_space_group_symop_operation_xyz
x,y,z
x-y,x,z
-y,x-y,z
-x,-y,z
-x+y,-x,z
y,-x+y,z
x-y,-y,-z
-x,-x+y,-z
y,x,-z
-y,-x,-z
-x+y,y,-z
x,x-y,-z
-x,-y,-z
-x+y,-x,-z
y,-x+y,-z
x,y,-z
x-y,x,-z
-y,x-y,-z
-x+y,y,z
x,x-y,z
-y,-x,z
y,x,z
x-y,-y,z
-x,-x+y,z
loop_
_atom_site_type_symbol
_atom_site_label
_atom_site_fract_x
_atom_site_fract_y
_atom_site_fract_z
Si Si1 0.215085 0.430170 0.677125
Si Si2 0.692198 0.123764 0.822101
Si Si3 0.840657 0.681314 0.824117
Si Si4 0.688266 0.745934 0.823339
Si Si5 0.060277 0.477449 0.674380
O O1 0.219935 0.439869 0.500000
O O2 0.181667 0.455513 0.746995
O O3 0.184363 0.368726 0.716582
O O4 0.713399 0.085112 0.762537
O O5 0.631633 0.099154 0.777097
O O6 0.698526 0.131070 0.000000
O O7 0.903762 0.712918 0.790253
O O8 0.831182 0.662364 0.000000
O O9 0.724383 0.724383 0.746036
O O10 0.687239 0.736302 0.000000
O O11 0.068754 0.468780 0.500000
O O12 0.074175 0.537088 0.702968
O O13 0.000000 0.437439 0.721995
#
# Coordination Sequence:
#
# PCOD8328379 Si02
#       5
#    12  24  12  24  24
#     4  10  18  28  42  58  78 104 130 161 205 247
#     4  10  18  28  42  60  81 104 136 173 205 241
#     4   8  14  24  36  52  74  98 127 164 198 232
#     4   8  13  21  34  52  73  98 127 160 199 236
#     4   9  18  31  44  60  86 117 144 171 205 245
#
# _framework density 14.61802
#
# number of rings (size 3 to 8) (size 9 to 14) (size 15 to 20)
#    0.000    3.000    0.000    4.875    0.000    2.000 
#    0.000    1.250    0.000    6.750    0.000    0.000 
#    1.250    0.000    2.250    0.375    2.250   12.000 
#
# Total GULP energy -1189389.924807 kJ/mol
# GULP energy per Si atom -12389.478383 kJ/mol
# Density = 1.458475 g / cm^3
# Si number density = 14.618020 Si / 1000 Ang^3
#
#
#
# Elastic Constant Matrix: (Units=GPa)
#
#
# Indices 1 2 3 4 5 6 
#
# 1 89.2337 41.0008 28.8734 0.0000 0.0000 0.0000
# 2 41.0008 89.2337 28.8734 0.0000 0.0000 0.0000
# 3 28.8734 28.8734 56.3423 0.0000 0.0000 0.0000
# 4 0.0000 0.0000 0.0000 17.6051 0.0000 0.0000
# 5 0.0000 0.0000 0.0000 0.0000 17.6051 0.0000
# 6 0.0000 0.0000 0.0000 0.0000 0.0000 24.1165
#
#
#
# Elastic Compliance Matrix: (Units=1/GPa)
#
#
# Indices 1 2 3 4 5 6 
#
# 1 0.015335 -0.005398 -0.005092 0.000000 0.000000 0.000000
# 2 -0.005398 0.015335 -0.005092 0.000000 0.000000 0.000000
# 3 -0.005092 -0.005092 0.022968 0.000000 0.000000 0.000000
# 4 0.000000 0.000000 0.000000 0.056802 0.000000 0.000000
# 5 0.000000 0.000000 0.000000 0.000000 0.056802 0.000000
# 6 0.000000 0.000000 0.000000 0.000000 0.000000 0.041465
#
#
# Mechanical properties :
#
#
# Convention : Reuss Voigt Hill
#
# Bulk Modulus (GPa) = 44.49948 48.03390 46.26669
# Shear Modulus (GPa) = 20.21341 20.93614 20.57477
#
# Velocity S-wave (km/s) = 3.72260 3.78857 3.75573
# Velocity P-wave (km/s) = 6.99890 7.21584 7.10820
#
# Compressibility (1/GPa) = 0.02247217
#
# Stress axis : x y z
#
# Youngs Moduli (GPa) = 65.21240 65.21240 43.53965
#
# Poissons Ratio (x) = 0.35203 0.22170
# Poissons Ratio (y) = 0.35203 0.22170
# Poissons Ratio (z) = 0.33206 0.33206
#
# Static dielectric constant tensor:
#      x y z
#    x 2.927720 0.000000 0.000000 
#    y 0.000000 2.927720 0.000000 
#    z 0.000000 0.000000 2.638860 
# 
# 
# High freq. dielectric constant tensor:
#      x y z
#    x 1.538650 0.000000 0.000000 
#    y 0.000000 1.538650 0.000000 
#    z 0.000000 0.000000 1.546540 
# 
# From -- ./inp_files/1514.got.cif
#   From: 2010.03.12/outbox.cif.g09.slc.cpg/sg191_1_cif.got.tgz:1514.got - 2010.04.01 12:09:02.
