data_PCOD8328182
_publ_section_title
;
Structure prediction by ZEFSAII (Michael W. Deem and Ramdas Pophale) SiO2 
 PCOD8328182
Probable space group: P -6 2 C
;
_chemical_formula_sum "Si O2"
_cell_formula_units_Z 34
_cell_length_a 9.993056
_cell_length_b 9.993056
_cell_length_c 15.557519
_cell_angle_alpha 90.000000
_cell_angle_beta 90.000000
_cell_angle_gamma 120.000000
_cell_volume 1345.450158
_symmetry_space_group_name_H-M "P -6 2 C"
_symmetry_group_IT_number 190
_symmetry_cell_setting 'hexagonal'
loop_
_space_group_symop_operation_xyz
x,y,z
-x+y,-x,1/2-z
-y,x-y,z
x,y,1/2-z
-x+y,-x,z
-y,x-y,1/2-z
x-y,-y,-z
-x,-x+y,-z
y,x,-z
y,x,1/2+z
x-y,-y,1/2+z
-x,-x+y,1/2+z
loop_
_atom_site_type_symbol
_atom_site_label
_atom_site_fract_x
_atom_site_fract_y
_atom_site_fract_z
Si Si1 0.251337 0.339868 0.649483
Si Si2 0.430150 0.022962 0.402698
Si Si3 0.819967 0.306237 0.750000
Si Si4 0.000000 0.000000 0.147412
O O1 0.274821 0.328019 0.750000
O O2 0.417906 0.423870 0.602978
O O3 0.185897 0.455821 0.630450
O O4 0.134909 0.167389 0.612738
O O5 0.371040 0.000000 0.500000
O O6 0.295345 0.899777 0.337952
O O7 0.643707 0.169212 0.750000
O O8 0.000000 0.000000 0.250000
#
# Coordination Sequence:
#
# PCOD8328182 Si02
#       4
#    12  12   6   4
#     4  11  23  45  69 101 137 186 227 287 344 412
#     4  12  27  43  71 101 141 178 233 282 348 412
#     4  10  26  42  70  94 140 180 228 274 348 410
#     4   9  24  39  76 101 136 175 236 280 349 401
#
# _framework density 25.270350000000001
#
# number of rings (size 3 to 8) (size 9 to 14) (size 15 to 20)
#    0.353    0.706    3.529    0.706    9.882    0.000 
#    0.000    1.765    0.000    0.000    0.000    0.000 
#    0.000    0.000    0.000    0.000    0.000    0.000 
#
# Total GULP energy -421360.778272 kJ/mol
# GULP energy per Si atom -12392.964067 kJ/mol
# Density = 2.521283 g / cm^3
# Si number density = 25.270350 Si / 1000 Ang^3
#
#
#
# Elastic Constant Matrix: (Units=GPa)
#
#
# Indices 1 2 3 4 5 6 
#
# 1 67.8651 -10.1999 -6.6759 0.0000 0.0000 0.0000
# 2 -10.1999 67.8651 -6.6759 0.0000 0.0000 0.0000
# 3 -6.6759 -6.6759 126.9458 0.0000 0.0000 0.0000
# 4 0.0000 0.0000 0.0000 22.0453 0.0000 0.0000
# 5 0.0000 0.0000 0.0000 0.0000 22.0453 0.0000
# 6 0.0000 0.0000 0.0000 0.0000 0.0000 39.0325
#
#
#
# Elastic Compliance Matrix: (Units=1/GPa)
#
#
# Indices 1 2 3 4 5 6 
#
# 1 0.015183 0.002373 0.000923 0.000000 0.000000 0.000000
# 2 0.002373 0.015183 0.000923 0.000000 0.000000 0.000000
# 3 0.000923 0.000923 0.007974 0.000000 0.000000 0.000000
# 4 0.000000 0.000000 0.000000 0.045361 0.000000 0.000000
# 5 0.000000 0.000000 0.000000 0.000000 0.045361 0.000000
# 6 0.000000 0.000000 0.000000 0.000000 0.000000 0.025620
#
#
# Mechanical properties :
#
#
# Convention : Reuss Voigt Hill
#
# Bulk Modulus (GPa) = 21.37766 23.95251 22.66508
# Shear Modulus (GPa) = 30.89547 35.70646 33.30096
#
# Velocity S-wave (km/s) = 3.50036 3.76304 3.63407
# Velocity P-wave (km/s) = 4.98143 5.32726 5.15724
#
# Compressibility (1/GPa) = 0.04677781
#
# Stress axis : x y z
#
# Youngs Moduli (GPa) = 65.86510 65.86510 125.40011
#
# Poissons Ratio (x) = -0.15628 -0.11577
# Poissons Ratio (y) = -0.15628 -0.11577
# Poissons Ratio (z) = -0.06081 -0.06081
#
# Static dielectric constant tensor:
#      x y z
#    x 4.512940 0.000000 0.000000 
#    y 0.000000 4.512940 0.000000 
#    z 0.000000 0.000000 4.197270 
# 
# 
# High freq. dielectric constant tensor:
#      x y z
#    x 2.013910 0.000000 0.000000 
#    y 0.000000 2.013910 0.000000 
#    z 0.000000 0.000000 1.982970 
# 
# From -- ./inp_files/2392.got.cif
#   From: 2010.06.25/outbox.cif.g09.slc.cpg/sg190_2_cif.got.tgz:2392.got - 2010.06.28 13:08:06.
