data_PCOD8328204
_publ_section_title
;
Structure prediction by ZEFSAII (Michael W. Deem and Ramdas Pophale) SiO2 
 PCOD8328204
Probable space group: P -6 2 C
;
_chemical_formula_sum "Si O2"
_cell_formula_units_Z 40
_cell_length_a 11.305301
_cell_length_b 11.305301
_cell_length_c 16.097998
_cell_angle_alpha 90.000000
_cell_angle_beta 90.000000
_cell_angle_gamma 120.000000
_cell_volume 1781.832025
_symmetry_space_group_name_H-M "P -6 2 C"
_symmetry_group_IT_number 190
_symmetry_cell_setting 'hexagonal'
loop_
_space_group_symop_operation_xyz
x,y,z
-x+y,-x,1/2-z
-y,x-y,z
x,y,1/2-z
-x+y,-x,z
-y,x-y,1/2-z
x-y,-y,-z
-x,-x+y,-z
y,x,-z
y,x,1/2+z
x-y,-y,1/2+z
-x,-x+y,1/2+z
loop_
_atom_site_type_symbol
_atom_site_label
_atom_site_fract_x
_atom_site_fract_y
_atom_site_fract_z
Si Si1 0.187395 0.378335 0.579850
Si Si2 0.333333 0.666666 0.846767
Si Si3 0.941142 0.591466 0.656498
Si Si4 0.694289 0.592442 0.896275
O O1 0.295351 0.519695 0.621089
O O2 0.269813 0.298421 0.600422
O O3 0.165071 0.402252 0.484870
O O4 0.038647 0.305576 0.623231
O O5 0.333334 0.666668 0.750000
O O6 0.000342 0.602782 0.750000
O O7 0.929537 0.460757 0.608542
O O8 0.790629 0.573135 0.668524
#
# Coordination Sequence:
#
# PCOD8328204 Si02
#       4
#    12   4  12  12
#     4  11  24  42  69 100 133 185 232 288 341 428
#     4  12  21  36  66  99 136 173 232 297 348 405
#     4  12  25  43  70 102 142 181 232 295 356 411
#     4  11  25  44  69  99 139 183 236 284 349 422
#
# _framework density 22.448805
#
# number of rings (size 3 to 8) (size 9 to 14) (size 15 to 20)
#    0.000    0.600    3.000    5.100    4.200    3.600 
#    1.800    0.000    0.000    0.000    0.000    0.000 
#    0.000    0.000    0.000    0.000    0.000    0.000 
#
# Total GULP energy -495800.307598 kJ/mol
# GULP energy per Si atom -12395.007690 kJ/mol
# Density = 2.239771 g / cm^3
# Si number density = 22.448805 Si / 1000 Ang^3
#
#
#
# Elastic Constant Matrix: (Units=GPa)
#
#
# Indices 1 2 3 4 5 6 
#
# 1 136.0623 46.9259 29.4859 0.0000 -0.0001 0.0000
# 2 46.9259 136.0624 29.4858 0.0001 0.0000 -0.0001
# 3 29.4859 29.4858 84.9713 0.0000 0.0000 -0.0001
# 4 0.0000 0.0001 0.0000 26.3616 0.0001 0.0000
# 5 -0.0001 0.0000 0.0000 0.0001 26.3616 0.0000
# 6 0.0000 -0.0001 -0.0001 0.0000 0.0000 44.5682
#
#
#
# Elastic Compliance Matrix: (Units=1/GPa)
#
#
# Indices 1 2 3 4 5 6 
#
# 1 0.008686 -0.002533 -0.002135 0.000000 0.000000 0.000000
# 2 -0.002533 0.008686 -0.002135 0.000000 0.000000 0.000000
# 3 -0.002135 -0.002135 0.013250 0.000000 0.000000 0.000000
# 4 0.000000 0.000000 0.000000 0.037934 0.000000 0.000000
# 5 0.000000 0.000000 0.000000 0.000000 0.037934 0.000000
# 6 0.000000 0.000000 0.000000 0.000000 0.000000 0.022438
#
#
# Mechanical properties :
#
#
# Convention : Reuss Voigt Hill
#
# Bulk Modulus (GPa) = 58.76878 63.21016 60.98947
# Shear Modulus (GPa) = 33.73685 36.20484 34.97085
#
# Velocity S-wave (km/s) = 3.88085 4.02029 3.95118
# Velocity P-wave (km/s) = 6.80567 7.05471 6.93131
#
# Compressibility (1/GPa) = 0.01701584
#
# Stress axis : x y z
#
# Youngs Moduli (GPa) = 115.12986 115.13007 75.46890
#
# Poissons Ratio (x) = 0.29162 0.16114
# Poissons Ratio (y) = 0.29161 0.16113
# Poissons Ratio (z) = 0.24582 0.24582
#
# Static dielectric constant tensor:
#      x y z
#    x 4.202190 0.000000 0.000000 
#    y 0.000000 4.202180 0.000000 
#    z 0.000000 0.000000 3.948730 
# 
# 
# High freq. dielectric constant tensor:
#      x y z
#    x 1.886140 0.000000 0.000000 
#    y 0.000000 1.886140 0.000000 
#    z 0.000000 0.000000 1.888450 
# 
# From -- ./inp_files/3392.got.cif
#   From: 2010.06.25/outbox.cif.g09.slc.cpg/sg190_2_cif.got.tgz:3392.got - 2010.06.28 13:08:06.
