data_PCOD8328962
_publ_section_title
;
Structure prediction by ZEFSAII (Michael W. Deem and Ramdas Pophale) SiO2 
 PCOD8328962
Probable space group: P 6/M M M
;
_chemical_formula_sum "Si O2"
_cell_formula_units_Z 132
_cell_length_a 17.624835
_cell_length_b 17.624835
_cell_length_c 28.480504
_cell_angle_alpha 90.000000
_cell_angle_beta 90.000000
_cell_angle_gamma 120.000000
_cell_volume 7661.757850
_symmetry_space_group_name_H-M "P 6/M M M"
_symmetry_group_IT_number 191
_symmetry_cell_setting 'hexagonal'
loop_
_space_group_symop_operation_xyz
x,y,z
x-y,x,z
-y,x-y,z
-x,-y,z
-x+y,-x,z
y,-x+y,z
x-y,-y,-z
-x,-x+y,-z
y,x,-z
-y,-x,-z
-x+y,y,-z
x,x-y,-z
-x,-y,-z
-x+y,-x,-z
y,-x+y,-z
x,y,-z
x-y,x,-z
-y,x-y,-z
-x+y,y,z
x,x-y,z
-y,-x,z
y,x,z
x-y,-y,z
-x,-x+y,z
loop_
_atom_site_type_symbol
_atom_site_label
_atom_site_fract_x
_atom_site_fract_y
_atom_site_fract_z
Si Si1 0.368884 0.097795 0.187820
Si Si2 0.488539 0.157252 0.898193
Si Si3 0.510391 0.842085 0.723230
Si Si4 0.636050 0.532306 0.448107
Si Si5 0.633759 0.900722 0.362040
Si Si6 0.162358 0.668330 0.000000
O O1 0.333672 0.166836 0.187986
O O2 0.414966 0.098412 0.139088
O O3 0.439663 0.120353 0.228250
O O4 0.286564 0.000000 0.195069
O O5 0.573336 0.146672 0.891962
O O6 0.518231 0.259115 0.890152
O O7 0.443659 0.124293 0.950360
O O8 0.427244 0.854487 0.722215
O O9 0.479891 0.739946 0.717724
O O10 0.573802 0.897783 0.680928
O O11 0.678991 0.545232 0.500000
O O12 0.571310 0.428691 0.438434
O O13 0.579257 0.579257 0.445744
O O14 0.710188 0.573973 0.408593
O O15 0.673550 0.836775 0.352422
O O16 0.713426 0.000000 0.368096
O O17 0.266552 0.733448 0.000000
O O18 0.142301 0.571151 0.000000
#
# Coordination Sequence:
#
# PCOD8328962 Si02
#       6
#    24  24  24  24  24  12
#     4  10  21  35  50  68  90 118 151 189 232 274
#     4   9  16  26  42  65  94 127 160 190 219 255
#     4  10  20  33  50  73 101 130 156 181 212 255
#     4   8  14  26  45  68  92 117 146 181 222 271
#     4  10  20  32  47  68  93 122 157 198 241 280
#     4   8  13  22  37  59  88 123 160 192 219 250
#
# _framework density 17.228421999999998
#
# number of rings (size 3 to 8) (size 9 to 14) (size 15 to 20)
#    0.000    2.727    0.000    2.636    0.000    5.091 
#    0.000    2.273    0.000    2.364    0.000    0.000 
#    0.000    4.364    0.000    4.545    0.000   10.727 
#
# Total GULP energy -1635671.229283 kJ/mol
# GULP energy per Si atom -12391.448707 kJ/mol
# Density = 1.718921 g / cm^3
# Si number density = 17.228422 Si / 1000 Ang^3
#
#
#
# Elastic Constant Matrix: (Units=GPa)
#
#
# Indices 1 2 3 4 5 6 
#
# 1 74.1073 48.5207 26.9885 0.0000 0.0000 0.0000
# 2 48.5207 74.1073 26.9885 0.0000 0.0000 0.0000
# 3 26.9885 26.9885 115.0968 0.0000 0.0000 0.0000
# 4 0.0000 0.0000 0.0000 18.1514 0.0000 0.0000
# 5 0.0000 0.0000 0.0000 0.0000 18.1514 0.0000
# 6 0.0000 0.0000 0.0000 0.0000 0.0000 12.7933
#
#
#
# Elastic Compliance Matrix: (Units=1/GPa)
#
#
# Indices 1 2 3 4 5 6 
#
# 1 0.024088 -0.014995 -0.002132 0.000000 0.000000 0.000000
# 2 -0.014995 0.024088 -0.002132 0.000000 0.000000 0.000000
# 3 -0.002132 -0.002132 0.009688 0.000000 0.000000 0.000000
# 4 0.000000 0.000000 0.000000 0.055092 0.000000 0.000000
# 5 0.000000 0.000000 0.000000 0.000000 0.055092 0.000000
# 6 0.000000 0.000000 0.000000 0.000000 0.000000 0.078166
#
#
# Mechanical properties :
#
#
# Convention : Reuss Voigt Hill
#
# Bulk Modulus (GPa) = 51.69050 52.03408 51.86229
# Shear Modulus (GPa) = 17.17136 20.54012 18.85574
#
# Velocity S-wave (km/s) = 3.16046 3.45660 3.31184
# Velocity P-wave (km/s) = 6.58682 6.79697 6.69272
#
# Compressibility (1/GPa) = 0.01934591
#
# Stress axis : x y z
#
# Youngs Moduli (GPa) = 41.51420 41.51420 103.21738
#
# Poissons Ratio (x) = 0.62250 0.22008
# Poissons Ratio (y) = 0.62250 0.22008
# Poissons Ratio (z) = 0.08852 0.08852
#
# Static dielectric constant tensor:
#      x y z
#    x 2.947010 0.000000 0.000000 
#    y 0.000000 2.947010 0.000000 
#    z 0.000000 0.000000 3.750080 
# 
# 
# High freq. dielectric constant tensor:
#      x y z
#    x 1.632090 0.000000 0.000000 
#    y 0.000000 1.632090 0.000000 
#    z 0.000000 0.000000 1.694160 
# 
# From -- ./inp_files/9739.got.cif
#   From: 2010.03.12/outbox.cif.g09.slc.cpg/sg191_5_cif.got.tgz:9739.got - 2010.04.01 12:09:02.
