data_PCOD8328127
_publ_section_title
;
Structure prediction by ZEFSAII (Michael W. Deem and Ramdas Pophale) SiO2 
 PCOD8328127
Probable space group: P -6 2 C
;
_chemical_formula_sum "Si O2"
_cell_formula_units_Z 76
_cell_length_a 17.592836
_cell_length_b 17.592836
_cell_length_c 14.235454
_cell_angle_alpha 90.000000
_cell_angle_beta 90.000000
_cell_angle_gamma 120.000000
_cell_volume 3815.695084
_symmetry_space_group_name_H-M "P -6 2 C"
_symmetry_group_IT_number 190
_symmetry_cell_setting 'hexagonal'
loop_
_space_group_symop_operation_xyz
x,y,z
-x+y,-x,1/2-z
-y,x-y,z
x,y,1/2-z
-x+y,-x,z
-y,x-y,1/2-z
x-y,-y,-z
-x,-x+y,-z
y,x,-z
y,x,1/2+z
x-y,-y,1/2+z
-x,-x+y,1/2+z
loop_
_atom_site_type_symbol
_atom_site_label
_atom_site_fract_x
_atom_site_fract_y
_atom_site_fract_z
Si Si1 0.625008 0.593051 0.353813
Si Si2 0.164373 0.561645 0.534675
Si Si3 0.120232 0.339146 0.139866
Si Si4 0.195981 0.095689 0.005363
Si Si5 0.464974 0.265079 0.520792
Si Si6 0.345143 0.171252 0.354685
Si Si7 0.666667 0.333334 0.142229
O O1 0.581093 0.568775 0.250000
O O2 0.577617 0.509063 0.423579
O O3 0.622411 0.678707 0.392596
O O4 0.723115 0.612927 0.345133
O O5 0.154278 0.629619 0.464892
O O6 0.214774 0.519995 0.482343
O O7 0.231897 0.627186 0.613059
O O8 0.109129 0.318374 0.250000
O O9 0.094247 0.251500 0.083394
O O10 0.221699 0.405880 0.113303
O O11 0.170599 0.170599 0.000000
O O12 0.247859 0.112789 0.103398
O O13 0.109484 0.000000 0.000000
O O14 0.404913 0.248593 0.427689
O O15 0.341429 0.206999 0.250000
O O16 0.666667 0.333334 0.250000
#
# Coordination Sequence:
#
# PCOD8328127 Si02
#       7
#    12  12  12  12  12  12   4
#     4   9  16  29  55  84 110 149 196 243 292 349
#     4   9  17  28  48  83 118 148 192 250 305 355
#     4  10  21  39  61  85 115 159 205 244 294 360
#     4  11  22  37  60  89 120 154 196 243 291 342
#     4   9  19  33  55  83 115 157 196 245 305 358
#     4   9  18  33  54  81 115 154 196 240 294 350
#     4   9  15  24  39  72 124 161 184 234 309 372
#
# _framework density 19.917733999999999
#
# number of rings (size 3 to 8) (size 9 to 14) (size 15 to 20)
#    0.000    2.526    1.579    0.947    0.000    5.053 
#    0.000    0.789   13.895    1.895    0.000    0.000 
#    0.000    0.000    0.000    0.000    0.000    0.000 
#
# Total GULP energy -941589.665312 kJ/mol
# GULP energy per Si atom -12389.337701 kJ/mol
# Density = 1.987240 g / cm^3
# Si number density = 19.917734 Si / 1000 Ang^3
#
#
#
# Elastic Constant Matrix: (Units=GPa)
#
#
# Indices 1 2 3 4 5 6 
#
# 1 90.9004 21.0869 26.3820 0.0001 0.0000 0.0017
# 2 21.0869 90.9016 26.3813 -0.0002 0.0000 -0.0008
# 3 26.3820 26.3813 78.6796 0.0000 0.0000 0.0001
# 4 0.0001 -0.0002 0.0000 16.3319 0.0000 0.0000
# 5 0.0000 0.0000 0.0000 0.0000 16.3320 -0.0001
# 6 0.0017 -0.0008 0.0001 0.0000 -0.0001 34.8926
#
#
#
# Elastic Compliance Matrix: (Units=1/GPa)
#
#
# Indices 1 2 3 4 5 6 
#
# 1 0.012464 -0.001859 -0.003556 0.000000 0.000000 -0.000001
# 2 -0.001859 0.012464 -0.003556 0.000000 0.000000 0.000000
# 3 -0.003556 -0.003556 0.015094 0.000000 0.000000 0.000000
# 4 0.000000 0.000000 0.000000 0.061230 0.000000 0.000000
# 5 0.000000 0.000000 0.000000 0.000000 0.061229 0.000000
# 6 -0.000001 0.000000 0.000000 0.000000 0.000000 0.028659
#
#
# Mechanical properties :
#
#
# Convention : Reuss Voigt Hill
#
# Bulk Modulus (GPa) = 45.28849 45.35357 45.32103
# Shear Modulus (GPa) = 23.10065 25.95339 24.52702
#
# Velocity S-wave (km/s) = 3.40928 3.61367 3.51296
# Velocity P-wave (km/s) = 6.18747 6.34282 6.26562
#
# Compressibility (1/GPa) = 0.02208067
#
# Stress axis : x y z
#
# Youngs Moduli (GPa) = 80.22810 80.22979 66.24981
#
# Poissons Ratio (x) = 0.14918 0.23558
# Poissons Ratio (y) = 0.14918 0.23557
# Poissons Ratio (z) = 0.28529 0.28528
#
# Static dielectric constant tensor:
#      x y z
#    x 4.775150 -0.000110 -0.000020 
#    y -0.000110 4.773840 -0.000010 
#    z -0.000020 -0.000010 3.739460 
# 
# 
# High freq. dielectric constant tensor:
#      x y z
#    x 1.761100 0.000000 0.000000 
#    y 0.000000 1.761100 0.000000 
#    z 0.000000 0.000000 1.761300 
# 
# From -- ./inp_files/3067.got.cif
#   From: 2010.06.25/outbox.cif.g09.slc.cpg/sg190_2_cif.got.tgz:3067.got - 2010.06.28 13:08:06.
