data_PCOD8328921
_publ_section_title
;
Structure prediction by ZEFSAII (Michael W. Deem and Ramdas Pophale) SiO2 
 PCOD8328921
Probable space group: P 6/M M M
;
_chemical_formula_sum "Si O2"
_cell_formula_units_Z 168
_cell_length_a 23.384285
_cell_length_b 23.384285
_cell_length_c 23.288837
_cell_angle_alpha 90.000000
_cell_angle_beta 90.000000
_cell_angle_gamma 120.000000
_cell_volume 11028.758419
_symmetry_space_group_name_H-M "P 6/M M M"
_symmetry_group_IT_number 191
_symmetry_cell_setting 'hexagonal'
loop_
_space_group_symop_operation_xyz
x,y,z
x-y,x,z
-y,x-y,z
-x,-y,z
-x+y,-x,z
y,-x+y,z
x-y,-y,-z
-x,-x+y,-z
y,x,-z
-y,-x,-z
-x+y,y,-z
x,x-y,-z
-x,-y,-z
-x+y,-x,-z
y,-x+y,-z
x,y,-z
x-y,x,-z
-y,x-y,-z
-x+y,y,z
x,x-y,z
-y,-x,z
y,x,z
x-y,-y,z
-x,-x+y,z
loop_
_atom_site_type_symbol
_atom_site_label
_atom_site_fract_x
_atom_site_fract_y
_atom_site_fract_z
Si Si1 0.921472 0.396422 0.436070
Si Si2 0.797625 0.073308 0.154254
Si Si3 0.387218 0.128977 0.936002
Si Si4 0.925205 0.202565 0.714054
Si Si5 0.319987 0.921820 0.333768
Si Si6 0.397880 0.476300 0.765488
Si Si7 0.526014 0.603699 0.105430
O O1 0.895120 0.368495 0.500000
O O2 0.898728 0.449364 0.418379
O O3 0.893002 0.334535 0.391876
O O4 0.000000 0.433621 0.435856
O O5 0.874121 0.125880 0.141030
O O6 0.749694 0.083396 0.111388
O O7 0.779059 0.080291 0.219861
O O8 0.786335 0.000000 0.144497
O O9 0.411137 0.205569 0.923699
O O10 0.449966 0.118218 0.933491
O O11 0.356226 0.109066 0.000000
O O12 0.875064 0.124937 0.702310
O O13 0.904148 0.244235 0.672220
O O14 0.000000 0.219267 0.700644
O O15 0.337362 0.890849 0.279081
O O16 0.366736 0.000000 0.332774
O O17 0.448857 0.551144 0.746340
O O18 0.434793 0.434793 0.765072
O O19 0.372817 0.475189 0.829718
O O20 0.452901 0.547100 0.086265
O O21 0.576313 0.576313 0.098630
#
# Coordination Sequence:
#
# PCOD8328921 Si02
#       7
#    24  24  24  24  24  24  24
#     4   8  13  20  30  48  77 110 138 159 178 205
#     4   9  17  29  44  61  81 104 129 159 198 244
#     4  10  20  31  42  57  78 104 132 161 194 236
#     4   9  17  28  42  59  78 101 130 166 208 254
#     4   9  14  20  34  54  75 102 134 162 189 225
#     4   8  13  21  34  54  79 103 126 153 185 221
#     4   9  17  28  42  60  80 100 123 157 201 240
#
# _framework density 15.232901999999999
#
# number of rings (size 3 to 8) (size 9 to 14) (size 15 to 20)
#    0.000    3.143    0.000    3.000    0.000    5.429 
#    0.000    0.714    0.000    1.000    0.000    2.000 
#    0.000    0.000    0.000    7.000    0.000    8.000 
#
# Total GULP energy -2081699.883864 kJ/mol
# GULP energy per Si atom -12391.070737 kJ/mol
# Density = 1.519823 g / cm^3
# Si number density = 15.232902 Si / 1000 Ang^3
#
#
#
# Elastic Constant Matrix: (Units=GPa)
#
#
# Indices 1 2 3 4 5 6 
#
# 1 72.1192 40.1542 32.6986 0.0000 0.0000 0.0000
# 2 40.1542 72.1192 32.6986 0.0000 0.0000 0.0000
# 3 32.6986 32.6986 65.6732 0.0000 0.0000 0.0000
# 4 0.0000 0.0000 0.0000 15.1861 0.0000 0.0000
# 5 0.0000 0.0000 0.0000 0.0000 15.1861 0.0000
# 6 0.0000 0.0000 0.0000 0.0000 0.0000 15.9825
#
#
#
# Elastic Compliance Matrix: (Units=1/GPa)
#
#
# Indices 1 2 3 4 5 6 
#
# 1 0.021915 -0.009370 -0.006246 0.000000 0.000000 0.000000
# 2 -0.009370 0.021915 -0.006246 0.000000 0.000000 0.000000
# 3 -0.006246 -0.006246 0.021447 0.000000 0.000000 0.000000
# 4 0.000000 0.000000 0.000000 0.065850 0.000000 0.000000
# 5 0.000000 0.000000 0.000000 0.000000 0.065850 0.000000
# 6 0.000000 0.000000 0.000000 0.000000 0.000000 0.062568
#
#
# Mechanical properties :
#
#
# Convention : Reuss Voigt Hill
#
# Bulk Modulus (GPa) = 46.39873 46.77937 46.58905
# Shear Modulus (GPa) = 16.10557 16.22831 16.16694
#
# Velocity S-wave (km/s) = 3.25513 3.26750 3.26132
# Velocity P-wave (km/s) = 6.68232 6.70906 6.69571
#
# Compressibility (1/GPa) = 0.02155231
#
# Stress axis : x y z
#
# Youngs Moduli (GPa) = 45.63158 45.63158 46.62686
#
# Poissons Ratio (x) = 0.42755 0.29124
# Poissons Ratio (y) = 0.42755 0.29124
# Poissons Ratio (z) = 0.28502 0.28502
#
# Static dielectric constant tensor:
#      x y z
#    x 2.711860 0.000000 0.000000 
#    y 0.000000 2.711860 0.000000 
#    z 0.000000 0.000000 3.141710 
# 
# 
# High freq. dielectric constant tensor:
#      x y z
#    x 1.549440 0.000000 0.000000 
#    y 0.000000 1.549440 0.000000 
#    z 0.000000 0.000000 1.584400 
# 
# From -- ./inp_files/9231.got.cif
#   From: 2010.03.12/outbox.cif.g09.slc.cpg/sg191_5_cif.got.tgz:9231.got - 2010.04.01 12:09:02.
