data_PCOD8328971
_publ_section_title
;
Structure prediction by ZEFSAII (Michael W. Deem and Ramdas Pophale) SiO2 
 PCOD8328971
Probable space group: P 6/M M M
;
_chemical_formula_sum "Si O2"
_cell_formula_units_Z 144
_cell_length_a 32.437885
_cell_length_b 32.437885
_cell_length_c 8.993988
_cell_angle_alpha 90.000000
_cell_angle_beta 90.000000
_cell_angle_gamma 120.000000
_cell_volume 8195.736652
_symmetry_space_group_name_H-M "P 6/M M M"
_symmetry_group_IT_number 191
_symmetry_cell_setting 'hexagonal'
loop_
_space_group_symop_operation_xyz
x,y,z
x-y,x,z
-y,x-y,z
-x,-y,z
-x+y,-x,z
y,-x+y,z
x-y,-y,-z
-x,-x+y,-z
y,x,-z
-y,-x,-z
-x+y,y,-z
x,x-y,-z
-x,-y,-z
-x+y,-x,-z
y,-x+y,-z
x,y,-z
x-y,x,-z
-y,x-y,-z
-x+y,y,z
x,x-y,z
-y,-x,z
y,x,z
x-y,-y,z
-x,-x+y,z
loop_
_atom_site_type_symbol
_atom_site_label
_atom_site_fract_x
_atom_site_fract_y
_atom_site_fract_z
Si Si1 0.715548 0.770280 0.673879
Si Si2 0.372546 0.138807 0.175117
Si Si3 0.053226 0.198700 0.828817
Si Si4 0.427625 0.950243 0.175180
Si Si5 0.187348 0.716818 0.669919
Si Si6 0.623997 0.471180 0.176240
O O1 0.708096 0.773532 0.500000
O O2 0.731259 0.731259 0.710123
O O3 0.666628 0.755438 0.757054
O O4 0.755881 0.821932 0.728505
O O5 0.360555 0.180278 0.216632
O O6 0.423359 0.151136 0.240450
O O7 0.374173 0.133061 0.000000
O O8 0.090264 0.180527 0.792479
O O9 0.000000 0.155636 0.793928
O O10 0.057581 0.214967 0.000000
O O11 0.475769 0.951537 0.218931
O O12 0.385499 0.899501 0.232479
O O13 0.431919 0.000000 0.238364
O O14 0.422496 0.950267 0.000000
O O15 0.170457 0.706930 0.500000
O O16 0.240507 0.759494 0.685306
O O17 0.189304 0.671949 0.739541
O O18 0.580727 0.419274 0.222528
O O19 0.631407 0.472813 0.000000
#
# Coordination Sequence:
#
# PCOD8328971 Si02
#       6
#    24  24  24  24  24  24
#     4  10  20  32  47  70 100 130 159 196 244 296
#     4  10  20  34  53  74  95 124 164 206 245 288
#     4   9  17  29  45  65  90 122 161 204 250 302
#     4   7  10  19  38  65  95 123 150 180 213 254
#     4  10  21  36  53  73  98 130 167 205 246 292
#     4   9  17  30  51  78 103 128 161 200 241 284
#
# _framework density 17.570112000000002
#
# number of rings (size 3 to 8) (size 9 to 14) (size 15 to 20)
#    0.000    2.833    0.000    3.500    0.000    5.667 
#    0.000    0.833    0.000    4.000    0.000    3.500 
#    0.000    0.000    0.000    4.167    0.000    4.333 
#
# Total GULP energy -1784239.070170 kJ/mol
# GULP energy per Si atom -12390.549098 kJ/mol
# Density = 1.753012 g / cm^3
# Si number density = 17.570112 Si / 1000 Ang^3
#
#
#
# Elastic Constant Matrix: (Units=GPa)
#
#
# Indices 1 2 3 4 5 6 
#
# 1 97.1701 54.0054 48.5984 0.0000 0.0000 0.0000
# 2 54.0054 97.1701 48.5984 0.0000 0.0000 0.0000
# 3 48.5984 48.5984 78.0344 0.0000 0.0000 0.0000
# 4 0.0000 0.0000 0.0000 22.8918 0.0000 0.0000
# 5 0.0000 0.0000 0.0000 0.0000 22.8918 0.0000
# 6 0.0000 0.0000 0.0000 0.0000 0.0000 21.5823
#
#
#
# Elastic Compliance Matrix: (Units=1/GPa)
#
#
# Indices 1 2 3 4 5 6 
#
# 1 0.017100 -0.006067 -0.006871 0.000000 0.000000 0.000000
# 2 -0.006067 0.017100 -0.006871 0.000000 0.000000 0.000000
# 3 -0.006871 -0.006871 0.021373 0.000000 0.000000 0.000000
# 4 0.000000 0.000000 0.000000 0.043684 0.000000 0.000000
# 5 0.000000 0.000000 0.000000 0.000000 0.043684 0.000000
# 6 0.000000 0.000000 0.000000 0.000000 0.000000 0.046334
#
#
# Mechanical properties :
#
#
# Convention : Reuss Voigt Hill
#
# Bulk Modulus (GPa) = 62.67820 63.86432 63.27126
# Shear Modulus (GPa) = 21.34840 21.55135 21.44988
#
# Velocity S-wave (km/s) = 3.48953 3.50607 3.49781
# Velocity P-wave (km/s) = 7.21016 7.26755 7.23891
#
# Compressibility (1/GPa) = 0.01595451
#
# Stress axis : x y z
#
# Youngs Moduli (GPa) = 58.48059 58.48059 46.78852
#
# Poissons Ratio (x) = 0.35483 0.32147
# Poissons Ratio (y) = 0.35483 0.32147
# Poissons Ratio (z) = 0.40180 0.40180
#
# Static dielectric constant tensor:
#      x y z
#    x 3.271820 0.000000 0.000000 
#    y 0.000000 3.271820 0.000000 
#    z 0.000000 0.000000 3.141420 
# 
# 
# High freq. dielectric constant tensor:
#      x y z
#    x 1.667990 0.000000 0.000000 
#    y 0.000000 1.667990 0.000000 
#    z 0.000000 0.000000 1.667520 
# 
# From -- ./inp_files/1959.got.cif
#   From: 2010.03.12/outbox.cif.g09.slc.cpg/sg191_1_cif.got.tgz:1959.got - 2010.04.01 12:09:02.
