data_PCOD8328673
_publ_section_title
;
Structure prediction by ZEFSAII (Michael W. Deem and Ramdas Pophale) SiO2 
 PCOD8328673
Probable space group: P 6/M M M
;
_chemical_formula_sum "Si O2"
_cell_formula_units_Z 108
_cell_length_a 26.473737
_cell_length_b 26.473737
_cell_length_c 10.839242
_cell_angle_alpha 90.000000
_cell_angle_beta 90.000000
_cell_angle_gamma 120.000000
_cell_volume 6579.002395
_symmetry_space_group_name_H-M "P 6/M M M"
_symmetry_group_IT_number 191
_symmetry_cell_setting 'hexagonal'
loop_
_space_group_symop_operation_xyz
x,y,z
x-y,x,z
-y,x-y,z
-x,-y,z
-x+y,-x,z
y,-x+y,z
x-y,-y,-z
-x,-x+y,-z
y,x,-z
-y,-x,-z
-x+y,y,-z
x,x-y,-z
-x,-y,-z
-x+y,-x,-z
y,-x+y,-z
x,y,-z
x-y,x,-z
-y,x-y,-z
-x+y,y,z
x,x-y,z
-y,-x,z
y,x,z
x-y,-y,z
-x,-x+y,z
loop_
_atom_site_type_symbol
_atom_site_label
_atom_site_fract_x
_atom_site_fract_y
_atom_site_fract_z
Si Si1 0.637390 0.876088 0.725408
Si Si2 0.854591 0.368936 0.500000
Si Si3 0.379961 0.066016 0.500000
Si Si4 0.756358 0.934501 0.854601
Si Si5 0.782380 0.447390 0.000000
Si Si6 0.495082 0.188903 0.245341
O O1 0.639413 0.819707 0.676130
O O2 0.647635 0.918709 0.614014
O O3 0.688715 0.911880 0.823335
O O4 0.573402 0.855376 0.779693
O O5 0.875328 0.437664 0.500000
O O6 0.907165 0.356114 0.500000
O O7 0.819673 0.340682 0.373426
O O8 0.360625 0.000000 0.500000
O O9 0.774605 0.887303 0.804947
O O10 0.799017 0.000000 0.799955
O O11 0.761489 0.937656 0.000000
O O12 0.820171 0.474051 0.125078
O O13 0.731064 0.462128 0.000000
O O14 0.756905 0.378453 0.000000
O O15 0.509512 0.254756 0.253830
#
# Coordination Sequence:
#
# PCOD8328673 Si02
#       6
#    24  12  12  24  12  24
#     4   9  17  29  46  67  90 114 144 180 225 272
#     4  10  19  32  47  63  85 118 154 188 224 270
#     4  10  19  30  45  65  90 116 145 181 223 265
#     4   9  17  28  44  66  93 122 150 182 218 260
#     4  10  19  30  44  64  89 117 146 183 226 274
#     4   9  18  30  47  67  88 113 146 188 234 279
#
# _framework density 16.415863999999999
#
# number of rings (size 3 to 8) (size 9 to 14) (size 15 to 20)
#    0.000    2.667    0.000    2.111    1.556    2.889 
#    0.000    0.000    0.000    3.333    0.000    1.556 
#    0.000    9.333    0.000    0.000    0.000   23.111 
#
# Total GULP energy -1338017.207512 kJ/mol
# GULP energy per Si atom -12389.048218 kJ/mol
# Density = 1.637850 g / cm^3
# Si number density = 16.415864 Si / 1000 Ang^3
#
#
#
# Elastic Constant Matrix: (Units=GPa)
#
#
# Indices 1 2 3 4 5 6 
#
# 1 74.1233 37.9373 30.3058 0.0000 0.0000 0.0000
# 2 37.9373 74.1233 30.3058 0.0000 0.0000 0.0000
# 3 30.3058 30.3058 94.6270 0.0000 0.0000 0.0000
# 4 0.0000 0.0000 0.0000 17.5925 0.0000 0.0000
# 5 0.0000 0.0000 0.0000 0.0000 17.5925 0.0000
# 6 0.0000 0.0000 0.0000 0.0000 0.0000 18.0930
#
#
#
# Elastic Compliance Matrix: (Units=1/GPa)
#
#
# Indices 1 2 3 4 5 6 
#
# 1 0.019214 -0.008421 -0.003457 0.000000 0.000000 0.000000
# 2 -0.008421 0.019214 -0.003457 0.000000 0.000000 0.000000
# 3 -0.003457 -0.003457 0.012782 0.000000 0.000000 0.000000
# 4 0.000000 0.000000 0.000000 0.056842 0.000000 0.000000
# 5 0.000000 0.000000 0.000000 0.000000 0.056842 0.000000
# 6 0.000000 0.000000 0.000000 0.000000 0.000000 0.055270
#
#
# Mechanical properties :
#
#
# Convention : Reuss Voigt Hill
#
# Bulk Modulus (GPa) = 48.68125 48.88570 48.78347
# Shear Modulus (GPa) = 19.40385 20.27727 19.84056
#
# Velocity S-wave (km/s) = 3.44178 3.51839 3.48029
# Velocity P-wave (km/s) = 6.74639 6.80805 6.77729
#
# Compressibility (1/GPa) = 0.02054179
#
# Stress axis : x y z
#
# Youngs Moduli (GPa) = 52.04485 52.04485 78.23518
#
# Poissons Ratio (x) = 0.43826 0.27044
# Poissons Ratio (y) = 0.43826 0.27044
# Poissons Ratio (z) = 0.17991 0.17991
#
# Static dielectric constant tensor:
#      x y z
#    x 3.122800 0.000000 0.000000 
#    y 0.000000 3.122800 0.000000 
#    z 0.000000 0.000000 3.326530 
# 
# 
# High freq. dielectric constant tensor:
#      x y z
#    x 1.621030 0.000000 0.000000 
#    y 0.000000 1.621030 0.000000 
#    z 0.000000 0.000000 1.630990 
# 
# From -- ./inp_files/2971.got.cif
#   From: 2010.03.12/outbox.cif.g09.slc.cpg/sg191_2_cif.got.tgz:2971.got - 2010.04.01 12:09:02.
