data_PCOD8328413
_publ_section_title
;
Structure prediction by ZEFSAII (Michael W. Deem and Ramdas Pophale) SiO2 
 PCOD8328413
Probable space group: P 6/M M M
;
_chemical_formula_sum "Si O2"
_cell_formula_units_Z 168
_cell_length_a 22.300484
_cell_length_b 22.300484
_cell_length_c 24.159645
_cell_angle_alpha 90.000000
_cell_angle_beta 90.000000
_cell_angle_gamma 120.000000
_cell_volume 10405.183845
_symmetry_space_group_name_H-M "P 6/M M M"
_symmetry_group_IT_number 191
_symmetry_cell_setting 'hexagonal'
loop_
_space_group_symop_operation_xyz
x,y,z
x-y,x,z
-y,x-y,z
-x,-y,z
-x+y,-x,z
y,-x+y,z
x-y,-y,-z
-x,-x+y,-z
y,x,-z
-y,-x,-z
-x+y,y,-z
x,x-y,-z
-x,-y,-z
-x+y,-x,-z
y,-x+y,-z
x,y,-z
x-y,x,-z
-y,x-y,-z
-x+y,y,z
x,x-y,z
-y,-x,z
y,x,z
x-y,-y,z
-x,-x+y,z
loop_
_atom_site_type_symbol
_atom_site_label
_atom_site_fract_x
_atom_site_fract_y
_atom_site_fract_z
Si Si1 0.296835 0.217702 0.762143
Si Si2 0.462520 0.796360 0.214589
Si Si3 0.380279 0.079330 0.342409
Si Si4 0.918317 0.525811 0.937530
Si Si5 0.467440 0.666485 0.656301
Si Si6 0.727176 0.592405 0.150141
Si Si7 0.923450 0.714014 0.562661
O O1 0.270038 0.135019 0.760793
O O2 0.232917 0.232917 0.755684
O O3 0.351458 0.253007 0.712107
O O4 0.333387 0.249553 0.821574
O O5 0.408218 0.816436 0.189207
O O6 0.446792 0.723396 0.188146
O O7 0.453843 0.787672 0.279405
O O8 0.539261 0.854908 0.199172
O O9 0.461980 0.126898 0.351158
O O10 0.348458 0.093437 0.396723
O O11 0.362502 0.000000 0.338794
O O12 0.892109 0.446055 0.917670
O O13 0.893635 0.570286 0.901982
O O14 0.000000 0.566445 0.935299
O O15 0.892049 0.523691 0.000000
O O16 0.471957 0.735979 0.630161
O O17 0.402783 0.597218 0.629566
O O18 0.794684 0.589368 0.131326
O O19 0.916320 0.685880 0.500000
O O20 0.871397 0.742793 0.573711
O O21 0.000000 0.778091 0.574110
#
# Coordination Sequence:
#
# PCOD8328413 Si02
#       7
#    24  24  24  24  24  24  24
#     4  10  19  31  47  68  93 120 147 178 223 274
#     4   9  16  25  38  57  83 115 147 178 214 258
#     4  10  19  31  48  68  94 123 150 189 235 276
#     4   9  18  32  47  61  81 113 151 187 221 259
#     4  10  18  29  44  63  90 121 153 185 222 269
#     4  10  18  28  44  65  88 113 143 180 224 268
#     4   9  17  29  47  70  93 120 155 192 230 274
#
# _framework density 16.145797999999999
#
# number of rings (size 3 to 8) (size 9 to 14) (size 15 to 20)
#    0.000    2.429    1.429    2.857    0.000    1.714 
#    0.000    0.000    0.000    1.000    0.000    3.000 
#    0.000    4.571    0.000    0.143    0.000    0.000 
#
# Total GULP energy -2081356.776068 kJ/mol
# GULP energy per Si atom -12389.028429 kJ/mol
# Density = 1.610905 g / cm^3
# Si number density = 16.145798 Si / 1000 Ang^3
#
#
#
# Elastic Constant Matrix: (Units=GPa)
#
#
# Indices 1 2 3 4 5 6 
#
# 1 100.1254 57.9928 28.5608 0.0000 0.0000 0.0000
# 2 57.9928 100.1254 28.5608 0.0000 0.0000 0.0000
# 3 28.5608 28.5608 60.4323 0.0000 0.0000 0.0000
# 4 0.0000 0.0000 0.0000 17.4304 0.0000 0.0000
# 5 0.0000 0.0000 0.0000 0.0000 17.4304 0.0000
# 6 0.0000 0.0000 0.0000 0.0000 0.0000 21.0663
#
#
#
# Elastic Compliance Matrix: (Units=1/GPa)
#
#
# Indices 1 2 3 4 5 6 
#
# 1 0.015681 -0.008054 -0.003604 0.000000 0.000000 0.000000
# 2 -0.008054 0.015681 -0.003604 0.000000 0.000000 0.000000
# 3 -0.003604 -0.003604 0.019954 0.000000 0.000000 0.000000
# 4 0.000000 0.000000 0.000000 0.057371 0.000000 0.000000
# 5 0.000000 0.000000 0.000000 0.000000 0.057371 0.000000
# 6 0.000000 0.000000 0.000000 0.000000 0.000000 0.047469
#
#
# Mechanical properties :
#
#
# Convention : Reuss Voigt Hill
#
# Bulk Modulus (GPa) = 48.10021 54.54578 51.32300
# Shear Modulus (GPa) = 19.92173 20.88999 20.40586
#
# Velocity S-wave (km/s) = 3.51645 3.60089 3.55892
# Velocity P-wave (km/s) = 6.80758 7.15159 6.98170
#
# Compressibility (1/GPa) = 0.02078993
#
# Stress axis : x y z
#
# Youngs Moduli (GPa) = 63.77329 63.77329 50.11440
#
# Poissons Ratio (x) = 0.51363 0.18063
# Poissons Ratio (y) = 0.51363 0.18063
# Poissons Ratio (z) = 0.22986 0.22986
#
# Static dielectric constant tensor:
#      x y z
#    x 3.105060 0.000000 0.000000 
#    y 0.000000 3.105060 0.000000 
#    z 0.000000 0.000000 2.959220 
# 
# 
# High freq. dielectric constant tensor:
#      x y z
#    x 1.613400 0.000000 0.000000 
#    y 0.000000 1.613400 0.000000 
#    z 0.000000 0.000000 1.599770 
# 
# From -- ./inp_files/10037.got.cif
#   From: 2010.03.12/outbox.cif.g09.slc.cpg/sg191_6_cif.got.tgz:10037.got - 2010.04.01 12:09:02.
