data_PCOD8328311
_publ_section_title
;
Structure prediction by ZEFSAII (Michael W. Deem and Ramdas Pophale) SiO2 
 PCOD8328311
Probable space group: P 6/M M M
;
_chemical_formula_sum "Si O2"
_cell_formula_units_Z 84
_cell_length_a 18.721651
_cell_length_b 18.721651
_cell_length_c 17.612299
_cell_angle_alpha 90.000000
_cell_angle_beta 90.000000
_cell_angle_gamma 120.000000
_cell_volume 5346.074070
_symmetry_space_group_name_H-M "P 6/M M M"
_symmetry_group_IT_number 191
_symmetry_cell_setting 'hexagonal'
loop_
_space_group_symop_operation_xyz
x,y,z
x-y,x,z
-y,x-y,z
-x,-y,z
-x+y,-x,z
y,-x+y,z
x-y,-y,-z
-x,-x+y,-z
y,x,-z
-y,-x,-z
-x+y,y,-z
x,x-y,-z
-x,-y,-z
-x+y,-x,-z
y,-x+y,-z
x,y,-z
x-y,x,-z
-y,x-y,-z
-x+y,y,z
x,x-y,z
-y,-x,z
y,x,z
x-y,-y,z
-x,-x+y,z
loop_
_atom_site_type_symbol
_atom_site_label
_atom_site_fract_x
_atom_site_fract_y
_atom_site_fract_z
Si Si1 0.331587 0.830208 0.689966
Si Si2 0.169854 0.500967 0.000000
Si Si3 0.908222 0.538769 0.846719
Si Si4 0.653315 0.746098 0.588277
O O1 0.422788 0.845576 0.675655
O O2 0.265472 0.734529 0.675708
O O3 0.319111 0.852582 0.775465
O O4 0.317398 0.888253 0.632574
O O5 0.128242 0.446752 0.075386
O O6 0.266215 0.532430 0.000000
O O7 0.158273 0.579137 0.000000
O O8 0.910330 0.455165 0.853494
O O9 0.000000 0.615334 0.834835
O O10 0.630809 0.731172 0.500000
O O11 0.682141 0.841071 0.610823
O O12 0.726342 0.726342 0.608121
#
# Coordination Sequence:
#
# PCOD8328311 Si02
#       4
#    24  12  24  24
#     4  10  19  30  44  63  88 117 149 184 220 257
#     4  10  18  27  39  55  76 101 130 166 211 262
#     4   9  17  28  41  56  75 102 137 176 215 255
#     4   9  18  32  49  68  89 114 144 178 217 261
#
# _framework density 15.712465
#
# number of rings (size 3 to 8) (size 9 to 14) (size 15 to 20)
#    0.000    2.571    0.000    2.571    0.000    4.000 
#    0.000    4.286    0.000    2.000    0.000    2.000 
#    0.000    0.000    0.000    0.000    0.000    0.000 
#
# Total GULP energy -1041342.226063 kJ/mol
# GULP energy per Si atom -12396.931263 kJ/mol
# Density = 1.567670 g / cm^3
# Si number density = 15.712465 Si / 1000 Ang^3
#
#
#
# Elastic Constant Matrix: (Units=GPa)
#
#
# Indices 1 2 3 4 5 6 
#
# 1 74.7646 47.9521 38.9696 0.0000 0.0000 0.0000
# 2 47.9521 74.7646 38.9696 0.0000 0.0000 0.0000
# 3 38.9696 38.9696 75.8048 0.0000 0.0000 0.0000
# 4 0.0000 0.0000 0.0000 21.1271 0.0000 0.0000
# 5 0.0000 0.0000 0.0000 0.0000 21.1271 0.0000
# 6 0.0000 0.0000 0.0000 0.0000 0.0000 13.4062
#
#
#
# Elastic Compliance Matrix: (Units=1/GPa)
#
#
# Indices 1 2 3 4 5 6 
#
# 1 0.024698 -0.012598 -0.006220 0.000000 0.000000 0.000000
# 2 -0.012598 0.024698 -0.006220 0.000000 0.000000 0.000000
# 3 -0.006220 -0.006220 0.019587 0.000000 0.000000 0.000000
# 4 0.000000 0.000000 0.000000 0.047332 0.000000 0.000000
# 5 0.000000 0.000000 0.000000 0.000000 0.047332 0.000000
# 6 0.000000 0.000000 0.000000 0.000000 0.000000 0.074592
#
#
# Mechanical properties :
#
#
# Convention : Reuss Voigt Hill
#
# Bulk Modulus (GPa) = 52.89463 53.01298 52.95380
# Shear Modulus (GPa) = 16.97114 17.76161 17.36637
#
# Velocity S-wave (km/s) = 3.29006 3.36581 3.32815
# Velocity P-wave (km/s) = 6.94045 6.99411 6.96733
#
# Compressibility (1/GPa) = 0.01890551
#
# Stress axis : x y z
#
# Youngs Moduli (GPa) = 40.48965 40.48965 51.05460
#
# Poissons Ratio (x) = 0.51011 0.31756
# Poissons Ratio (y) = 0.51011 0.31756
# Poissons Ratio (z) = 0.25184 0.25184
#
# Static dielectric constant tensor:
#      x y z
#    x 2.885830 0.000000 0.000000 
#    y 0.000000 2.885830 0.000000 
#    z 0.000000 0.000000 3.243960 
# 
# 
# High freq. dielectric constant tensor:
#      x y z
#    x 1.580360 0.000000 0.000000 
#    y 0.000000 1.580360 0.000000 
#    z 0.000000 0.000000 1.617680 
# 
# From -- ./inp_files/3986.got.cif
#   From: 2010.03.12/outbox.cif.g09.slc.cpg/sg191_2_cif.got.tgz:3986.got - 2010.04.01 12:09:02.
