data_PCOD8328058
_publ_section_title
;
Structure prediction by ZEFSAII (Michael W. Deem and Ramdas Pophale) SiO2 
 PCOD8328058
Probable space group: P -6 2 C
;
_chemical_formula_sum "Si O2"
_cell_formula_units_Z 60
_cell_length_a 20.295550
_cell_length_b 20.295550
_cell_length_c 9.198517
_cell_angle_alpha 90.000000
_cell_angle_beta 90.000000
_cell_angle_gamma 120.000000
_cell_volume 3281.331419
_symmetry_space_group_name_H-M "P -6 2 C"
_symmetry_group_IT_number 190
_symmetry_cell_setting 'hexagonal'
loop_
_space_group_symop_operation_xyz
x,y,z
-x+y,-x,1/2-z
-y,x-y,z
x,y,1/2-z
-x+y,-x,z
-y,x-y,1/2-z
x-y,-y,-z
-x,-x+y,-z
y,x,-z
y,x,1/2+z
x-y,-y,1/2+z
-x,-x+y,1/2+z
loop_
_atom_site_type_symbol
_atom_site_label
_atom_site_fract_x
_atom_site_fract_y
_atom_site_fract_z
Si Si1 0.504575 0.424229 0.579856
Si Si2 0.079314 0.430395 0.081672
Si Si3 0.000000 0.177444 0.500000
Si Si4 0.975522 0.070091 0.750000
Si Si5 0.864891 0.204680 0.414036
Si Si6 0.079884 0.698179 0.579533
O O1 0.483018 0.411823 0.750000
O O2 0.468225 0.468225 0.500000
O O3 0.595955 0.477813 0.560428
O O4 0.466455 0.342878 0.496376
O O5 0.063284 0.408294 0.250000
O O6 0.134636 0.402249 0.020264
O O7 0.000000 0.384851 0.000000
O O8 0.960659 0.109372 0.614227
O O9 0.064636 0.255565 0.567354
O O10 0.062181 0.083325 0.750000
O O11 0.865262 0.231807 0.250000
O O12 0.787810 0.127317 0.447941
O O13 0.068116 0.678050 0.750000
O O14 0.000000 0.669493 0.500000
#
# Coordination Sequence:
#
# PCOD8328058 Si02
#       6
#    12  12   6   6  12  12
#     4   9  17  32  54  82 107 135 172 213 261 328
#     4  10  20  33  56  82 111 143 178 220 276 338
#     4  12  22  42  58  82 114 144 198 264 306 352
#     4  10  24  42  62  76 100 148 208 254 306 368
#     4  11  24  38  54  84 117 150 191 243 297 348
#     4  10  21  37  55  81 113 148 190 234 287 346
#
# _framework density 18.285260000000001
#
# number of rings (size 3 to 8) (size 9 to 14) (size 15 to 20)
#    0.200    1.600    2.000    3.600    1.400    5.600 
#    0.000    0.000    0.000    0.800    0.000    0.000 
#    0.000    0.000    0.000    0.000    0.000    0.000 
#
# Total GULP energy -743527.109839 kJ/mol
# GULP energy per Si atom -12392.118497 kJ/mol
# Density = 1.824364 g / cm^3
# Si number density = 18.285260 Si / 1000 Ang^3
#
#
#
# Elastic Constant Matrix: (Units=GPa)
#
#
# Indices 1 2 3 4 5 6 
#
# 1 83.8572 37.2928 42.7011 0.0000 0.0000 0.0000
# 2 37.2928 83.8572 42.7011 0.0000 0.0000 0.0000
# 3 42.7011 42.7011 135.4157 0.0000 0.0000 0.0000
# 4 0.0000 0.0000 0.0000 30.0537 0.0000 0.0000
# 5 0.0000 0.0000 0.0000 0.0000 30.0537 0.0000
# 6 0.0000 0.0000 0.0000 0.0000 0.0000 23.2822
#
#
#
# Elastic Compliance Matrix: (Units=1/GPa)
#
#
# Indices 1 2 3 4 5 6 
#
# 1 0.016045 -0.005431 -0.003347 0.000000 0.000000 0.000000
# 2 -0.005431 0.016045 -0.003347 0.000000 0.000000 0.000000
# 3 -0.003347 -0.003347 0.009495 0.000000 0.000000 0.000000
# 4 0.000000 0.000000 0.000000 0.033274 0.000000 0.000000
# 5 0.000000 0.000000 0.000000 0.000000 0.033274 0.000000
# 6 0.000000 0.000000 0.000000 0.000000 0.000000 0.042951
#
#
# Mechanical properties :
#
#
# Convention : Reuss Voigt Hill
#
# Bulk Modulus (GPa) = 57.68611 60.94667 59.31639
# Shear Modulus (GPa) = 27.60736 28.70690 28.15713
#
# Velocity S-wave (km/s) = 3.88985 3.96655 3.92839
# Velocity P-wave (km/s) = 7.19659 7.37438 7.28603
#
# Compressibility (1/GPa) = 0.01733520
#
# Stress axis : x y z
#
# Youngs Moduli (GPa) = 62.32640 62.32640 105.31431
#
# Poissons Ratio (x) = 0.33850 0.35247
# Poissons Ratio (y) = 0.33850 0.35247
# Poissons Ratio (z) = 0.20859 0.20859
#
# Static dielectric constant tensor:
#      x y z
#    x 3.558230 0.000000 0.000000 
#    y 0.000000 3.558230 0.000000 
#    z 0.000000 0.000000 3.458620 
# 
# 
# High freq. dielectric constant tensor:
#      x y z
#    x 1.691530 0.000000 0.000000 
#    y 0.000000 1.691530 0.000000 
#    z 0.000000 0.000000 1.731060 
# 
# From -- ./inp_files/976.got.cif
#   From: 2010.06.25/outbox.cif.g09.slc.cpg/sg190_1_cif.got.tgz:976.got - 2010.06.28 13:08:06.
