data_PCOD8328463
_publ_section_title
;
Structure prediction by ZEFSAII (Michael W. Deem and Ramdas Pophale) SiO2 
 PCOD8328463
Probable space group: P 6/M M M
;
_chemical_formula_sum "Si O2"
_cell_formula_units_Z 132
_cell_length_a 18.034763
_cell_length_b 18.034763
_cell_length_c 29.746575
_cell_angle_alpha 90.000000
_cell_angle_beta 90.000000
_cell_angle_gamma 120.000000
_cell_volume 8378.928400
_symmetry_space_group_name_H-M "P 6/M M M"
_symmetry_group_IT_number 191
_symmetry_cell_setting 'hexagonal'
loop_
_space_group_symop_operation_xyz
x,y,z
x-y,x,z
-y,x-y,z
-x,-y,z
-x+y,-x,z
y,-x+y,z
x-y,-y,-z
-x,-x+y,-z
y,x,-z
-y,-x,-z
-x+y,y,-z
x,x-y,-z
-x,-y,-z
-x+y,-x,-z
y,-x+y,-z
x,y,-z
x-y,x,-z
-y,x-y,-z
-x+y,y,z
x,x-y,z
-y,-x,z
y,x,z
x-y,-y,z
-x,-x+y,z
loop_
_atom_site_type_symbol
_atom_site_label
_atom_site_fract_x
_atom_site_fract_y
_atom_site_fract_z
Si Si1 0.904957 0.364766 0.798258
Si Si2 0.163932 0.497344 0.448542
Si Si3 0.000000 0.411927 0.050552
Si Si4 0.669369 0.506448 0.893321
Si Si5 0.095868 0.361923 0.626545
Si Si6 0.496155 0.165051 0.703105
O O1 0.912832 0.456416 0.799265
O O2 0.853182 0.312972 0.842069
O O3 0.856602 0.314890 0.753383
O O4 0.000000 0.377246 0.799032
O O5 0.135138 0.472026 0.500000
O O6 0.263582 0.527163 0.442070
O O7 0.151265 0.575633 0.433003
O O8 0.105646 0.414995 0.418550
O O9 0.084421 0.425891 0.076199
O O10 0.000000 0.500000 0.050451
O O11 0.000000 0.380025 0.000000
O O12 0.751282 0.502564 0.911119
O O13 0.587571 0.412430 0.897072
O O14 0.164564 0.329128 0.627823
O O15 0.106611 0.421072 0.669056
O O16 0.000000 0.280232 0.627424
O O17 0.573146 0.146291 0.695883
O O18 0.529676 0.264838 0.693639
#
# Coordination Sequence:
#
# PCOD8328463 Si02
#       6
#    24  24  12  24  24  24
#     4   9  16  27  42  60  85 119 155 188 222 257
#     4   9  17  29  46  68  95 127 160 190 218 252
#     4   9  18  32  46  60  84 116 147 183 228 270
#     4  10  18  29  45  65  88 116 152 191 227 266
#     4  10  21  35  49  66  88 115 148 188 235 282
#     4  10  19  29  43  65  95 128 158 186 215 251
#
# _framework density 15.753804000000001
#
# number of rings (size 3 to 8) (size 9 to 14) (size 15 to 20)
#    0.000    2.455    0.909    2.182    0.000    3.636 
#    0.000    4.545    0.000    1.273    0.000    0.000 
#    0.000    0.000    0.000    4.818    0.000    1.364 
#
# Total GULP energy -1636611.067938 kJ/mol
# GULP energy per Si atom -12398.568696 kJ/mol
# Density = 1.571795 g / cm^3
# Si number density = 15.753804 Si / 1000 Ang^3
#
#
#
# Elastic Constant Matrix: (Units=GPa)
#
#
# Indices 1 2 3 4 5 6 
#
# 1 79.7854 49.1488 35.1282 0.0000 0.0000 0.0000
# 2 49.1488 79.7854 35.1282 0.0000 0.0000 0.0000
# 3 35.1282 35.1282 102.9553 0.0000 0.0000 0.0000
# 4 0.0000 0.0000 0.0000 16.8307 0.0000 0.0000
# 5 0.0000 0.0000 0.0000 0.0000 16.8307 0.0000
# 6 0.0000 0.0000 0.0000 0.0000 0.0000 15.3183
#
#
#
# Elastic Compliance Matrix: (Units=1/GPa)
#
#
# Indices 1 2 3 4 5 6 
#
# 1 0.021084 -0.011557 -0.003251 0.000000 0.000000 0.000000
# 2 -0.011557 0.021084 -0.003251 0.000000 0.000000 0.000000
# 3 -0.003251 -0.003251 0.011931 0.000000 0.000000 0.000000
# 4 0.000000 0.000000 0.000000 0.059415 0.000000 0.000000
# 5 0.000000 0.000000 0.000000 0.000000 0.059415 0.000000
# 6 0.000000 0.000000 0.000000 0.000000 0.000000 0.065281
#
#
# Mechanical properties :
#
#
# Convention : Reuss Voigt Hill
#
# Bulk Modulus (GPa) = 55.60831 55.70403 55.65617
# Shear Modulus (GPa) = 17.83669 19.33735 18.58702
#
# Velocity S-wave (km/s) = 3.36849 3.50733 3.43861
# Velocity P-wave (km/s) = 7.10661 7.19984 7.15338
#
# Compressibility (1/GPa) = 0.01798292
#
# Stress axis : x y z
#
# Youngs Moduli (GPa) = 47.42945 47.42945 83.81395
#
# Poissons Ratio (x) = 0.54813 0.27245
# Poissons Ratio (y) = 0.54813 0.27245
# Poissons Ratio (z) = 0.15418 0.15418
#
# Static dielectric constant tensor:
#      x y z
#    x 2.771100 0.000000 0.000000 
#    y 0.000000 2.771100 0.000000 
#    z 0.000000 0.000000 3.273080 
# 
# 
# High freq. dielectric constant tensor:
#      x y z
#    x 1.574840 0.000000 0.000000 
#    y 0.000000 1.574840 0.000000 
#    z 0.000000 0.000000 1.621130 
# 
# From -- ./inp_files/10353.got.cif
#   From: 2010.03.12/outbox.cif.g09.slc.cpg/sg191_6_cif.got.tgz:10353.got - 2010.04.01 12:09:02.
