data_PCOD8328731
_publ_section_title
;
Structure prediction by ZEFSAII (Michael W. Deem and Ramdas Pophale) SiO2 
 PCOD8328731
Probable space group: P 6/M M M
;
_chemical_formula_sum "Si O2"
_cell_formula_units_Z 132
_cell_length_a 17.995596
_cell_length_b 17.995596
_cell_length_c 28.465976
_cell_angle_alpha 90.000000
_cell_angle_beta 90.000000
_cell_angle_gamma 120.000000
_cell_volume 7983.423719
_symmetry_space_group_name_H-M "P 6/M M M"
_symmetry_group_IT_number 191
_symmetry_cell_setting 'hexagonal'
loop_
_space_group_symop_operation_xyz
x,y,z
x-y,x,z
-y,x-y,z
-x,-y,z
-x+y,-x,z
y,-x+y,z
x-y,-y,-z
-x,-x+y,-z
y,x,-z
-y,-x,-z
-x+y,y,-z
x,x-y,-z
-x,-y,-z
-x+y,-x,-z
y,-x+y,-z
x,y,-z
x-y,x,-z
-y,x-y,-z
-x+y,y,z
x,x-y,z
-y,-x,z
y,x,z
x-y,-y,z
-x,-x+y,z
loop_
_atom_site_type_symbol
_atom_site_label
_atom_site_fract_x
_atom_site_fract_y
_atom_site_fract_z
Si Si1 0.904338 0.266861 0.733611
Si Si2 0.668166 0.508296 0.651534
Si Si3 0.466069 0.366872 0.087069
Si Si4 0.833874 0.331395 0.187580
Si Si5 0.362383 0.263260 0.000000
Si Si6 0.162764 0.494483 0.450411
O O1 0.834504 0.165497 0.731023
O O2 0.897363 0.318292 0.689378
O O3 0.893785 0.309754 0.780672
O O4 0.000000 0.279690 0.733824
O O5 0.740769 0.481538 0.657845
O O6 0.576085 0.423916 0.659039
O O7 0.675487 0.551911 0.599622
O O8 0.561500 0.438501 0.070842
O O9 0.411286 0.411286 0.100290
O O10 0.469542 0.318263 0.133311
O O11 0.422605 0.299985 0.045279
O O12 0.855414 0.427707 0.198192
O O13 0.734520 0.265481 0.199727
O O14 0.287076 0.287076 0.000000
O O15 0.319974 0.159987 0.000000
O O16 0.121829 0.441555 0.500000
O O17 0.263103 0.526206 0.449788
O O18 0.151992 0.575996 0.451921
#
# Coordination Sequence:
#
# PCOD8328731 Si02
#       6
#    24  24  24  24  12  24
#     4  10  21  35  50  67  86 110 141 179 223 268
#     4   9  16  25  39  61  90 123 156 186 213 243
#     4   9  17  29  46  67  90 118 152 189 226 262
#     4  10  19  30  45  67  97 130 160 185 208 238
#     4  10  19  31  47  66  89 117 152 192 233 277
#     4   8  12  18  30  50  78 113 152 189 218 241
#
# _framework density 16.534258999999999
#
# number of rings (size 3 to 8) (size 9 to 14) (size 15 to 20)
#    0.000    2.727    0.000    2.455    0.000    5.455 
#    0.000    1.818    0.000    3.364    0.000    2.545 
#    0.000    0.000    0.000    5.818    0.000    0.000 
#
# Total GULP energy -1635243.810972 kJ/mol
# GULP energy per Si atom -12388.210689 kJ/mol
# Density = 1.649663 g / cm^3
# Si number density = 16.534259 Si / 1000 Ang^3
#
#
#
# Elastic Constant Matrix: (Units=GPa)
#
#
# Indices 1 2 3 4 5 6 
#
# 1 71.5892 41.8477 36.0415 0.0000 0.0000 0.0000
# 2 41.8477 71.5892 36.0415 0.0000 0.0000 0.0000
# 3 36.0415 36.0415 97.4602 0.0000 0.0000 0.0000
# 4 0.0000 0.0000 0.0000 12.9901 0.0000 0.0000
# 5 0.0000 0.0000 0.0000 0.0000 12.9901 0.0000
# 6 0.0000 0.0000 0.0000 0.0000 0.0000 14.8707
#
#
#
# Elastic Compliance Matrix: (Units=1/GPa)
#
#
# Indices 1 2 3 4 5 6 
#
# 1 0.022573 -0.011050 -0.004261 0.000000 0.000000 0.000000
# 2 -0.011050 0.022573 -0.004261 0.000000 0.000000 0.000000
# 3 -0.004261 -0.004261 0.013412 0.000000 0.000000 0.000000
# 4 0.000000 0.000000 0.000000 0.076982 0.000000 0.000000
# 5 0.000000 0.000000 0.000000 0.000000 0.076982 0.000000
# 6 0.000000 0.000000 0.000000 0.000000 0.000000 0.067246
#
#
# Mechanical properties :
#
#
# Convention : Reuss Voigt Hill
#
# Bulk Modulus (GPa) = 51.51067 52.05556 51.78311
# Shear Modulus (GPa) = 15.36639 16.61736 15.99188
#
# Velocity S-wave (km/s) = 3.05186 3.17365 3.11335
# Velocity P-wave (km/s) = 6.60606 6.70681 6.65662
#
# Compressibility (1/GPa) = 0.01941345
#
# Stress axis : x y z
#
# Youngs Moduli (GPa) = 44.30025 44.30025 74.55778
#
# Poissons Ratio (x) = 0.48951 0.31772
# Poissons Ratio (y) = 0.48951 0.31772
# Poissons Ratio (z) = 0.18878 0.18878
#
# Static dielectric constant tensor:
#      x y z
#    x 2.834520 0.000000 0.000000 
#    y 0.000000 2.834520 0.000000 
#    z 0.000000 0.000000 3.701400 
# 
# 
# High freq. dielectric constant tensor:
#      x y z
#    x 1.598730 0.000000 0.000000 
#    y 0.000000 1.598730 0.000000 
#    z 0.000000 0.000000 1.667580 
# 
# From -- ./inp_files/9796.got.cif
#   From: 2010.03.12/outbox.cif.g09.slc.cpg/sg191_5_cif.got.tgz:9796.got - 2010.04.01 12:09:02.
