data_PCOD8328657
_publ_section_title
;
Structure prediction by ZEFSAII (Michael W. Deem and Ramdas Pophale) SiO2 
 PCOD8328657
Probable space group: P 6/M M M
;
_chemical_formula_sum "Si O2"
_cell_formula_units_Z 72
_cell_length_a 18.606832
_cell_length_b 18.606832
_cell_length_c 15.406249
_cell_angle_alpha 90.000000
_cell_angle_beta 90.000000
_cell_angle_gamma 120.000000
_cell_volume 4619.260103
_symmetry_space_group_name_H-M "P 6/M M M"
_symmetry_group_IT_number 191
_symmetry_cell_setting 'hexagonal'
loop_
_space_group_symop_operation_xyz
x,y,z
x-y,x,z
-y,x-y,z
-x,-y,z
-x+y,-x,z
y,-x+y,z
x-y,-y,-z
-x,-x+y,-z
y,x,-z
-y,-x,-z
-x+y,y,-z
x,x-y,-z
-x,-y,-z
-x+y,-x,-z
y,-x+y,-z
x,y,-z
x-y,x,-z
-y,x-y,-z
-x+y,y,z
x,x-y,z
-y,-x,z
y,x,z
x-y,-y,z
-x,-x+y,z
loop_
_atom_site_type_symbol
_atom_site_label
_atom_site_fract_x
_atom_site_fract_y
_atom_site_fract_z
Si Si1 0.168307 0.499874 0.819775
Si Si2 0.663834 0.909809 0.500000
Si Si3 0.260184 0.355023 0.310472
Si Si4 0.538822 0.631527 0.000000
O O1 0.264748 0.529495 0.806370
O O2 0.154575 0.577288 0.807569
O O3 0.111645 0.432002 0.749217
O O4 0.140863 0.458711 0.914729
O O5 0.704616 0.852308 0.500000
O O6 0.611922 0.895358 0.410719
O O7 0.743469 0.000000 0.500000
O O8 0.162806 0.325611 0.291028
O O9 0.279861 0.279861 0.294064
O O10 0.617803 0.617803 0.000000
O O11 0.455709 0.544292 0.000000
#
# Coordination Sequence:
#
# PCOD8328657 Si02
#       4
#    24  12  24  12
#     4  10  19  30  44  62  86 116 149 182 215 252
#     4   8  14  26  43  62  83 107 137 171 210 256
#     4   9  17  29  46  66  87 112 141 175 214 257
#     4   9  17  28  42  60  82 109 141 177 215 254
#
# _framework density 15.586912
#
# number of rings (size 3 to 8) (size 9 to 14) (size 15 to 20)
#    0.000    2.833    0.000    1.833    0.000    2.000 
#    0.000    2.500    0.000    3.500    0.000    7.000 
#    0.000    0.000    0.000    0.000    0.000   34.667 
#
# Total GULP energy -891943.058928 kJ/mol
# GULP energy per Si atom -12388.098041 kJ/mol
# Density = 1.555144 g / cm^3
# Si number density = 15.586912 Si / 1000 Ang^3
#
#
#
# Elastic Constant Matrix: (Units=GPa)
#
#
# Indices 1 2 3 4 5 6 
#
# 1 73.9068 47.8512 51.5786 0.0000 0.0000 0.0000
# 2 47.8512 73.9068 51.5786 0.0000 0.0000 0.0000
# 3 51.5786 51.5786 126.4586 0.0000 0.0000 0.0000
# 4 0.0000 0.0000 0.0000 23.1790 0.0000 0.0000
# 5 0.0000 0.0000 0.0000 0.0000 23.1790 0.0000
# 6 0.0000 0.0000 0.0000 0.0000 0.0000 13.0278
#
#
#
# Elastic Compliance Matrix: (Units=1/GPa)
#
#
# Indices 1 2 3 4 5 6 
#
# 1 0.025465 -0.012915 -0.005119 0.000000 0.000000 0.000000
# 2 -0.012915 0.025465 -0.005119 0.000000 0.000000 0.000000
# 3 -0.005119 -0.005119 0.012083 0.000000 0.000000 0.000000
# 4 0.000000 0.000000 0.000000 0.043143 0.000000 0.000000
# 5 0.000000 0.000000 0.000000 0.000000 0.043143 0.000000
# 6 0.000000 0.000000 0.000000 0.000000 0.000000 0.076759
#
#
# Mechanical properties :
#
#
# Convention : Reuss Voigt Hill
#
# Bulk Modulus (GPa) = 59.85146 64.03212 61.94179
# Shear Modulus (GPa) = 17.99013 20.09473 19.04243
#
# Velocity S-wave (km/s) = 3.40101 3.59445 3.49907
# Velocity P-wave (km/s) = 7.34196 7.64177 7.49336
#
# Compressibility (1/GPa) = 0.01670803
#
# Stress axis : x y z
#
# Youngs Moduli (GPa) = 39.27019 39.27019 82.75956
#
# Poissons Ratio (x) = 0.50717 0.42362
# Poissons Ratio (y) = 0.50717 0.42362
# Poissons Ratio (z) = 0.20101 0.20101
#
# Static dielectric constant tensor:
#      x y z
#    x 2.875990 0.000000 0.000000 
#    y 0.000000 2.875990 0.000000 
#    z 0.000000 0.000000 3.350860 
# 
# 
# High freq. dielectric constant tensor:
#      x y z
#    x 1.579530 0.000000 0.000000 
#    y 0.000000 1.579530 0.000000 
#    z 0.000000 0.000000 1.617880 
# 
# From -- ./inp_files/2344.got.cif
#   From: 2010.03.12/outbox.cif.g09.slc.cpg/sg191_2_cif.got.tgz:2344.got - 2010.04.01 12:09:02.
