data_PCOD8328692
_publ_section_title
;
Structure prediction by ZEFSAII (Michael W. Deem and Ramdas Pophale) SiO2 
 PCOD8328692
Probable space group: P 6/M M M
;
_chemical_formula_sum "Si O2"
_cell_formula_units_Z 180
_cell_length_a 21.548843
_cell_length_b 21.548843
_cell_length_c 28.352432
_cell_angle_alpha 90.000000
_cell_angle_beta 90.000000
_cell_angle_gamma 120.000000
_cell_volume 11401.680401
_symmetry_space_group_name_H-M "P 6/M M M"
_symmetry_group_IT_number 191
_symmetry_cell_setting 'hexagonal'
loop_
_space_group_symop_operation_xyz
x,y,z
x-y,x,z
-y,x-y,z
-x,-y,z
-x+y,-x,z
y,-x+y,z
x-y,-y,-z
-x,-x+y,-z
y,x,-z
-y,-x,-z
-x+y,y,-z
x,x-y,-z
-x,-y,-z
-x+y,-x,-z
y,-x+y,-z
x,y,-z
x-y,x,-z
-y,x-y,-z
-x+y,y,z
x,x-y,z
-y,-x,z
y,x,z
x-y,-y,z
-x,-x+y,z
loop_
_atom_site_type_symbol
_atom_site_label
_atom_site_fract_x
_atom_site_fract_y
_atom_site_fract_z
Si Si1 0.295197 0.847472 0.089990
Si Si2 0.704009 0.920509 0.868322
Si Si3 0.079706 0.467173 0.000000
Si Si4 0.078615 0.783586 0.759085
Si Si5 0.566080 0.916646 0.267438
Si Si6 0.807482 0.475468 0.549817
Si Si7 0.521801 0.188802 0.347932
Si Si8 0.523903 0.334406 0.186564
O O1 0.228517 0.771484 0.075718
O O2 0.269071 0.903360 0.102292
O O3 0.347031 0.877178 0.046095
O O4 0.336937 0.838496 0.133853
O O5 0.732522 0.866261 0.881484
O O6 0.681696 0.912033 0.813651
O O7 0.767247 0.000000 0.880645
O O8 0.072598 0.536299 0.000000
O O9 0.000000 0.397476 0.000000
O O10 0.136559 0.863442 0.742944
O O11 0.088906 0.726469 0.729330
O O12 0.000000 0.773351 0.750173
O O13 0.520142 0.877969 0.313399
O O14 0.520543 0.876593 0.221471
O O15 0.586431 0.000000 0.265953
O O16 0.838164 0.520863 0.500000
O O17 0.722424 0.444847 0.552167
O O18 0.823021 0.411511 0.546295
O O19 0.838995 0.515282 0.599967
O O20 0.605358 0.210716 0.349426
O O21 0.517117 0.258559 0.331384
O O22 0.511637 0.255819 0.199270
O O23 0.607848 0.392153 0.190928
#
# Coordination Sequence:
#
# PCOD8328692 Si02
#       8
#    24  24  12  24  24  24  24  24
#     4  10  20  35  54  71  90 117 150 187 222 262
#     4   9  16  28  48  71  93 118 149 184 219 257
#     4  11  23  36  50  70  96 121 145 177 220 266
#     4   9  16  28  46  67  90 116 148 181 215 256
#     4  11  22  33  46  64  89 121 155 190 223 261
#     4   8  13  22  38  60  83 108 140 180 226 274
#     4  10  19  30  45  64  89 117 147 186 233 282
#     4  11  22  36  53  71  92 116 146 184 229 280
#
# _framework density 15.787146999999999
#
# number of rings (size 3 to 8) (size 9 to 14) (size 15 to 20)
#    0.000    2.200    1.333    3.000    0.000    3.200 
#    0.000    1.333    0.000    2.533    0.000    3.733 
#    0.000    0.000    0.000    0.000    0.000   13.867 
#
# Total GULP energy -2230549.089957 kJ/mol
# GULP energy per Si atom -12391.939389 kJ/mol
# Density = 1.575121 g / cm^3
# Si number density = 15.787147 Si / 1000 Ang^3
#
#
#
# Elastic Constant Matrix: (Units=GPa)
#
#
# Indices 1 2 3 4 5 6 
#
# 1 77.3075 38.8851 39.6265 0.0000 0.0000 0.0000
# 2 38.8851 77.3075 39.6265 0.0000 0.0000 0.0000
# 3 39.6265 39.6265 90.9201 0.0000 0.0000 0.0000
# 4 0.0000 0.0000 0.0000 16.3965 0.0000 0.0000
# 5 0.0000 0.0000 0.0000 0.0000 16.3965 0.0000
# 6 0.0000 0.0000 0.0000 0.0000 0.0000 19.2112
#
#
#
# Elastic Compliance Matrix: (Units=1/GPa)
#
#
# Indices 1 2 3 4 5 6 
#
# 1 0.019137 -0.006890 -0.005338 0.000000 0.000000 0.000000
# 2 -0.006890 0.019137 -0.005338 0.000000 0.000000 0.000000
# 3 -0.005338 -0.005338 0.015652 0.000000 0.000000 0.000000
# 4 0.000000 0.000000 0.000000 0.060989 0.000000 0.000000
# 5 0.000000 0.000000 0.000000 0.000000 0.060989 0.000000
# 6 0.000000 0.000000 0.000000 0.000000 0.000000 0.052053
#
#
# Mechanical properties :
#
#
# Convention : Reuss Voigt Hill
#
# Bulk Modulus (GPa) = 53.20645 53.53460 53.37053
# Shear Modulus (GPa) = 18.56313 18.89396 18.72854
#
# Velocity S-wave (km/s) = 3.43277 3.46322 3.44803
# Velocity P-wave (km/s) = 7.03473 7.06935 7.05206
#
# Compressibility (1/GPa) = 0.01879471
#
# Stress axis : x y z
#
# Youngs Moduli (GPa) = 52.25515 52.25515 63.89145
#
# Poissons Ratio (x) = 0.36002 0.34104
# Poissons Ratio (y) = 0.36002 0.34104
# Poissons Ratio (z) = 0.27893 0.27893
#
# Static dielectric constant tensor:
#      x y z
#    x 2.927890 0.000000 0.000000 
#    y 0.000000 2.927890 0.000000 
#    z 0.000000 0.000000 3.250140 
# 
# 
# High freq. dielectric constant tensor:
#      x y z
#    x 1.589660 0.000000 0.000000 
#    y 0.000000 1.589660 0.000000 
#    z 0.000000 0.000000 1.604450 
# 
# From -- ./inp_files/10842.got.cif
#   From: 2010.03.12/outbox.cif.g09.slc.cpg/sg191_6_cif.got.tgz:10842.got - 2010.04.01 12:09:02.
