data_PCOD8328045
_publ_section_title
;
Structure prediction by ZEFSAII (Michael W. Deem and Ramdas Pophale) SiO2 
 PCOD8328045
Probable space group: P -6 2 C
;
_chemical_formula_sum "Si O2"
_cell_formula_units_Z 72
_cell_length_a 23.507166
_cell_length_b 23.507166
_cell_length_c 8.992781
_cell_angle_alpha 90.000000
_cell_angle_beta 90.000000
_cell_angle_gamma 120.000000
_cell_volume 4303.533592
_symmetry_space_group_name_H-M "P -6 2 C"
_symmetry_group_IT_number 190
_symmetry_cell_setting 'hexagonal'
loop_
_space_group_symop_operation_xyz
x,y,z
-x+y,-x,1/2-z
-y,x-y,z
x,y,1/2-z
-x+y,-x,z
-y,x-y,1/2-z
x-y,-y,-z
-x,-x+y,-z
y,x,-z
y,x,1/2+z
x-y,-y,1/2+z
-x,-x+y,1/2+z
loop_
_atom_site_type_symbol
_atom_site_label
_atom_site_fract_x
_atom_site_fract_y
_atom_site_fract_z
Si Si1 0.483843 0.737318 0.576999
Si Si2 0.068040 0.803052 0.922914
Si Si3 0.587281 0.404367 0.077131
Si Si4 0.068258 0.934550 0.923356
Si Si5 0.400389 0.470067 0.075909
Si Si6 0.248468 0.398438 0.075794
O O1 0.502728 0.745891 0.750000
O O2 0.450054 0.662061 0.526271
O O3 0.433057 0.762549 0.542237
O O4 0.550000 0.777616 0.482210
O O5 0.060995 0.785098 0.750000
O O6 0.085383 0.877394 0.950925
O O7 0.126923 0.796802 0.993470
O O8 0.000000 0.751794 0.000000
O O9 0.577909 0.413626 0.250000
O O10 0.543252 0.426165 0.984141
O O11 0.063414 0.946558 0.750000
O O12 0.000000 0.917057 0.000000
O O13 0.125714 0.000000 0.000000
O O14 0.412603 0.473693 0.250000
O O15 0.324076 0.423966 0.034858
O O16 0.441367 0.441367 0.000000
O O17 0.235223 0.388301 0.250000
#
# Coordination Sequence:
#
# PCOD8328045 Si02
#       6
#    12  12  12  12  12  12
#     4   9  17  30  49  72  98 127 159 194 234 281
#     4  10  20  33  50  72  97 126 159 196 238 283
#     4   9  17  30  49  72  97 126 158 193 233 279
#     4  10  20  33  50  72  98 127 158 193 234 279
#     4  10  20  32  47  69  96 126 159 195 236 281
#     4  10  20  32  48  71  98 128 160 195 237 283
#
# _framework density 16.730436999999998
#
# number of rings (size 3 to 8) (size 9 to 14) (size 15 to 20)
#    0.000    2.333    0.000    3.000    0.000    7.333 
#    0.000    0.000    0.000    3.000    0.000    4.667 
#    0.000    0.000    0.000    0.000    0.000    0.000 
#
# Total GULP energy -893091.429055 kJ/mol
# GULP energy per Si atom -12404.047626 kJ/mol
# Density = 1.669236 g / cm^3
# Si number density = 16.730437 Si / 1000 Ang^3
#
#
#
# Elastic Constant Matrix: (Units=GPa)
#
#
# Indices 1 2 3 4 5 6 
#
# 1 105.8153 57.3813 59.0848 0.0000 0.0000 0.0000
# 2 57.3813 105.8153 59.0848 0.0000 0.0000 0.0000
# 3 59.0848 59.0848 94.0410 0.0000 0.0000 0.0000
# 4 0.0000 0.0000 0.0000 28.6204 0.0000 0.0000
# 5 0.0000 0.0000 0.0000 0.0000 28.6204 0.0000
# 6 0.0000 0.0000 0.0000 0.0000 0.0000 24.2170
#
#
#
# Elastic Compliance Matrix: (Units=1/GPa)
#
#
# Indices 1 2 3 4 5 6 
#
# 1 0.015944 -0.004702 -0.007063 0.000000 0.000000 0.000000
# 2 -0.004702 0.015944 -0.007063 0.000000 0.000000 0.000000
# 3 -0.007063 -0.007063 0.019509 0.000000 0.000000 0.000000
# 4 0.000000 0.000000 0.000000 0.034940 0.000000 0.000000
# 5 0.000000 0.000000 0.000000 0.000000 0.034940 0.000000
# 6 0.000000 0.000000 0.000000 0.000000 0.000000 0.041293
#
#
# Mechanical properties :
#
#
# Convention : Reuss Voigt Hill
#
# Bulk Modulus (GPa) = 72.77874 72.97482 72.87678
# Shear Modulus (GPa) = 24.41301 24.96627 24.68964
#
# Velocity S-wave (km/s) = 3.82409 3.86718 3.84569
# Velocity P-wave (km/s) = 7.94314 7.97827 7.96072
#
# Compressibility (1/GPa) = 0.01374028
#
# Stress axis : x y z
#
# Youngs Moduli (GPa) = 62.71822 62.71822 51.25818
#
# Poissons Ratio (x) = 0.29492 0.36205
# Poissons Ratio (y) = 0.29492 0.36205
# Poissons Ratio (z) = 0.44299 0.44299
#
# Static dielectric constant tensor:
#      x y z
#    x 3.077680 0.000000 0.000000 
#    y 0.000000 3.077680 0.000000 
#    z 0.000000 0.000000 3.209300 
# 
# 
# High freq. dielectric constant tensor:
#      x y z
#    x 1.634610 0.000000 0.000000 
#    y 0.000000 1.634610 0.000000 
#    z 0.000000 0.000000 1.656450 
# 
# From -- ./inp_files/1198.got.cif
#   From: 2010.06.25/outbox.cif.g09.slc.cpg/sg190_1_cif.got.tgz:1198.got - 2010.06.28 13:08:06.
