data_PCOD8328166
_publ_section_title
;
Structure prediction by ZEFSAII (Michael W. Deem and Ramdas Pophale) SiO2 
 PCOD8328166
Probable space group: P -6 2 C
;
_chemical_formula_sum "Si O2"
_cell_formula_units_Z 54
_cell_length_a 11.667951
_cell_length_b 11.667951
_cell_length_c 23.535160
_cell_angle_alpha 90.000000
_cell_angle_beta 90.000000
_cell_angle_gamma 120.000000
_cell_volume 2774.833826
_symmetry_space_group_name_H-M "P -6 2 C"
_symmetry_group_IT_number 190
_symmetry_cell_setting 'hexagonal'
loop_
_space_group_symop_operation_xyz
x,y,z
-x+y,-x,1/2-z
-y,x-y,z
x,y,1/2-z
-x+y,-x,z
-y,x-y,1/2-z
x-y,-y,-z
-x,-x+y,-z
y,x,-z
y,x,1/2+z
x-y,-y,1/2+z
-x,-x+y,1/2+z
loop_
_atom_site_type_symbol
_atom_site_label
_atom_site_fract_x
_atom_site_fract_y
_atom_site_fract_z
Si Si1 0.000000 0.000000 0.569000
Si Si2 0.843255 0.220026 0.989946
Si Si3 0.548346 0.931123 0.812882
Si Si4 0.762709 0.024808 0.412686
Si Si5 0.666668 0.333335 0.495600
Si Si6 0.836605 0.420983 0.750000
Si Si7 0.666666 0.333333 0.138610
O O1 0.852689 0.938318 0.592992
O O2 0.000000 0.000000 0.500000
O O3 0.806037 0.125356 0.935446
O O4 0.761649 0.130751 0.043944
O O5 0.790477 0.322267 0.980380
O O6 0.000000 0.299100 0.000000
O O7 0.571448 0.887823 0.750000
O O8 0.671528 0.960453 0.852136
O O9 0.410897 0.817341 0.838834
O O10 0.542868 0.067724 0.805769
O O11 0.666668 0.333334 0.428210
O O12 0.745978 0.261766 0.750000
#
# Coordination Sequence:
#
# PCOD8328166 Si02
#       7
#     4  12  12  12   4   6   4
#     4  12  18  39  67  95 124 171 234 262 335 400
#     4  11  23  42  64  90 131 172 216 273 328 391
#     4  10  23  42  66  93 132 172 223 264 326 395
#     4  11  20  41  65  92 124 173 223 263 325 395
#     4  12  27  40  61 105 133 166 222 274 329 397
#     4   8  20  48  64  88 126 164 218 266 322 394
#     4  12  22  43  69  96 129 178 220 268 326 388
#
# _framework density 19.460626000000001
#
# number of rings (size 3 to 8) (size 9 to 14) (size 15 to 20)
#    0.889    0.444    6.667    0.667    3.111    0.000 
#   12.000    1.111    0.000    0.000    0.000    0.000 
#    0.000    0.000    0.000    0.000    0.000    0.000 
#
# Total GULP energy -669271.860995 kJ/mol
# GULP energy per Si atom -12393.923352 kJ/mol
# Density = 1.941633 g / cm^3
# Si number density = 19.460626 Si / 1000 Ang^3
#
#
#
# Elastic Constant Matrix: (Units=GPa)
#
#
# Indices 1 2 3 4 5 6 
#
# 1 106.1037 41.6341 16.1065 -0.0001 0.0001 0.0000
# 2 41.6341 106.1037 16.1068 0.0000 -0.0001 -0.0001
# 3 16.1065 16.1068 59.6744 -0.0001 0.0001 0.0000
# 4 -0.0001 0.0000 -0.0001 21.7171 -0.0002 0.0001
# 5 0.0001 -0.0001 0.0001 -0.0002 21.7177 0.0000
# 6 0.0000 -0.0001 0.0000 0.0001 0.0000 32.2346
#
#
#
# Elastic Compliance Matrix: (Units=1/GPa)
#
#
# Indices 1 2 3 4 5 6 
#
# 1 0.011352 -0.004160 -0.001941 0.000000 0.000000 0.000000
# 2 -0.004160 0.011352 -0.001941 0.000000 0.000000 0.000000
# 3 -0.001941 -0.001941 0.017805 0.000000 0.000000 0.000000
# 4 0.000000 0.000000 0.000000 0.046047 0.000000 0.000000
# 5 0.000000 0.000000 0.000000 0.000000 0.046045 0.000000
# 6 0.000000 0.000000 0.000000 0.000000 0.000000 0.031023
#
#
# Mechanical properties :
#
#
# Convention : Reuss Voigt Hill
#
# Bulk Modulus (GPa) = 40.94205 46.61961 43.78083
# Shear Modulus (GPa) = 26.61715 28.33617 27.47666
#
# Velocity S-wave (km/s) = 3.70231 3.82000 3.76162
# Velocity P-wave (km/s) = 6.27377 6.59275 6.43524
#
# Compressibility (1/GPa) = 0.02442477
#
# Stress axis : x y z
#
# Youngs Moduli (GPa) = 88.09341 88.09325 56.16247
#
# Poissons Ratio (x) = 0.36643 0.10902
# Poissons Ratio (y) = 0.36643 0.10902
# Poissons Ratio (z) = 0.17100 0.17101
#
# Static dielectric constant tensor:
#      x y z
#    x 3.592940 0.000000 0.000000 
#    y 0.000000 3.592950 0.000000 
#    z 0.000000 0.000000 3.316030 
# 
# 
# High freq. dielectric constant tensor:
#      x y z
#    x 1.759210 0.000000 0.000000 
#    y 0.000000 1.759210 0.000000 
#    z 0.000000 0.000000 1.733720 
# 
# From -- ./inp_files/4639.got.cif
#   From: 2010.06.25/outbox.cif.g09.slc.cpg/sg190_3_cif.got.tgz:4639.got - 2010.06.28 13:08:06.
