data_PCOD8328029
_publ_section_title
;
Structure prediction by ZEFSAII (Michael W. Deem and Ramdas Pophale) SiO2 
 PCOD8328029
Probable space group: P -6 2 C
;
_chemical_formula_sum "Si O2"
_cell_formula_units_Z 84
_cell_length_a 18.123806
_cell_length_b 18.123806
_cell_length_c 15.402386
_cell_angle_alpha 90.000000
_cell_angle_beta 90.000000
_cell_angle_gamma 120.000000
_cell_volume 4381.445806
_symmetry_space_group_name_H-M "P -6 2 C"
_symmetry_group_IT_number 190
_symmetry_cell_setting 'hexagonal'
loop_
_space_group_symop_operation_xyz
x,y,z
-x+y,-x,1/2-z
-y,x-y,z
x,y,1/2-z
-x+y,-x,z
-y,x-y,1/2-z
x-y,-y,-z
-x,-x+y,-z
y,x,-z
y,x,1/2+z
x-y,-y,1/2+z
-x,-x+y,1/2+z
loop_
_atom_site_type_symbol
_atom_site_label
_atom_site_fract_x
_atom_site_fract_y
_atom_site_fract_z
Si Si1 0.922044 0.498619 0.439870
Si Si2 0.769373 0.773121 0.595180
Si Si3 0.596423 0.842738 0.996549
Si Si4 0.287431 0.804396 0.750000
Si Si5 0.614763 0.134147 0.250000
Si Si6 0.912810 0.730603 0.346794
Si Si7 0.419360 0.103438 0.074103
Si Si8 0.104045 0.817362 0.346263
O O1 0.844220 0.508559 0.479422
O O2 0.927060 0.515539 0.335455
O O3 0.913738 0.407578 0.454410
O O4 0.000000 0.565574 0.500000
O O5 0.807755 0.807755 0.500000
O O6 0.770187 0.851171 0.644784
O O7 0.673034 0.691632 0.582549
O O8 0.826752 0.743120 0.644308
O O9 0.639199 0.883819 0.088113
O O10 0.659281 0.894596 0.917701
O O11 0.579467 0.746903 0.999150
O O12 0.378191 0.809311 0.750000
O O13 0.206904 0.711474 0.750000
O O14 0.280784 0.851097 0.834310
O O15 0.900177 0.690166 0.250000
O O16 0.010337 0.805673 0.359308
O O17 0.113717 0.788669 0.250000
#
# Coordination Sequence:
#
# PCOD8328029 Si02
#       8
#    12  12  12   6   6  12  12  12
#     4  11  23  38  59  89 125 156 195 250 305 370
#     4  11  21  36  61  84 121 160 198 248 301 361
#     4  11  22  40  62  85 118 158 197 250 306 366
#     4  10  19  36  58  90 119 151 191 247 309 379
#     4  10  21  36  60  94 119 155 193 253 319 363
#     4  10  22  37  60  85 116 156 202 247 305 357
#     4  10  22  37  60  87 124 154 199 239 310 367
#     4  11  23  40  61  89 117 160 211 253 295 363
#
# _framework density 19.171754
#
# number of rings (size 3 to 8) (size 9 to 14) (size 15 to 20)
#    0.000    1.429    4.286    2.286    6.000    0.000 
#    3.000    0.000    0.000    0.000    0.000    0.000 
#    0.000    0.000    0.000    0.000    0.000    0.000 
#
# Total GULP energy -1041030.844459 kJ/mol
# GULP energy per Si atom -12393.224339 kJ/mol
# Density = 1.912812 g / cm^3
# Si number density = 19.171754 Si / 1000 Ang^3
#
#
#
# Elastic Constant Matrix: (Units=GPa)
#
#
# Indices 1 2 3 4 5 6 
#
# 1 89.3993 40.4466 37.7472 0.0000 0.0000 0.0000
# 2 40.4466 89.3993 37.7472 0.0000 0.0000 0.0000
# 3 37.7472 37.7472 134.7052 0.0000 0.0000 0.0000
# 4 0.0000 0.0000 0.0000 26.8162 0.0000 0.0000
# 5 0.0000 0.0000 0.0000 0.0000 26.8162 0.0000
# 6 0.0000 0.0000 0.0000 0.0000 0.0000 24.4763
#
#
#
# Elastic Compliance Matrix: (Units=1/GPa)
#
#
# Indices 1 2 3 4 5 6 
#
# 1 0.014814 -0.005614 -0.002578 0.000000 0.000000 0.000000
# 2 -0.005614 0.014814 -0.002578 0.000000 0.000000 0.000000
# 3 -0.002578 -0.002578 0.008869 0.000000 0.000000 0.000000
# 4 0.000000 0.000000 0.000000 0.037291 0.000000 0.000000
# 5 0.000000 0.000000 0.000000 0.000000 0.037291 0.000000
# 6 0.000000 0.000000 0.000000 0.000000 0.000000 0.040856
#
#
# Mechanical properties :
#
#
# Convention : Reuss Voigt Hill
#
# Bulk Modulus (GPa) = 58.97356 60.59843 59.78600
# Shear Modulus (GPa) = 27.60498 28.79259 28.19878
#
# Velocity S-wave (km/s) = 3.79869 3.87954 3.83933
# Velocity P-wave (km/s) = 7.07584 7.19337 7.13485
#
# Compressibility (1/GPa) = 0.01695675
#
# Stress axis : x y z
#
# Youngs Moduli (GPa) = 67.50295 67.50295 112.75841
#
# Poissons Ratio (x) = 0.37895 0.29071
# Poissons Ratio (y) = 0.37895 0.29071
# Poissons Ratio (z) = 0.17403 0.17403
#
# Static dielectric constant tensor:
#      x y z
#    x 3.566200 0.000000 0.000000 
#    y 0.000000 3.566200 0.000000 
#    z 0.000000 0.000000 3.896760 
# 
# 
# High freq. dielectric constant tensor:
#      x y z
#    x 1.738570 0.000000 0.000000 
#    y 0.000000 1.738570 0.000000 
#    z 0.000000 0.000000 1.758420 
# 
# From -- ./inp_files/3209.got.cif
#   From: 2010.06.25/outbox.cif.g09.slc.cpg/sg190_2_cif.got.tgz:3209.got - 2010.06.28 13:08:06.
