data_PCOD8328133
_publ_section_title
;
Structure prediction by ZEFSAII (Michael W. Deem and Ramdas Pophale) SiO2 
 PCOD8328133
Probable space group: P -6 2 C
;
_chemical_formula_sum "Si O2"
_cell_formula_units_Z 72
_cell_length_a 15.441370
_cell_length_b 15.441370
_cell_length_c 17.491357
_cell_angle_alpha 90.000000
_cell_angle_beta 90.000000
_cell_angle_gamma 120.000000
_cell_volume 3611.817472
_symmetry_space_group_name_H-M "P -6 2 C"
_symmetry_group_IT_number 190
_symmetry_cell_setting 'hexagonal'
loop_
_space_group_symop_operation_xyz
x,y,z
-x+y,-x,1/2-z
-y,x-y,z
x,y,1/2-z
-x+y,-x,z
-y,x-y,1/2-z
x-y,-y,-z
-x,-x+y,-z
y,x,-z
y,x,1/2+z
x-y,-y,1/2+z
-x,-x+y,1/2+z
loop_
_atom_site_type_symbol
_atom_site_label
_atom_site_fract_x
_atom_site_fract_y
_atom_site_fract_z
Si Si1 0.351429 0.489124 0.338769
Si Si2 0.720585 0.979312 0.087751
Si Si3 0.856892 0.188750 0.338602
Si Si4 0.266985 0.052756 0.922173
Si Si5 0.684385 0.505237 0.584130
Si Si6 0.250363 0.544439 0.583664
O O1 0.380265 0.499489 0.250000
O O2 0.329349 0.382534 0.369602
O O3 0.254108 0.500803 0.349217
O O4 0.443830 0.570964 0.387904
O O5 0.803821 0.080038 0.125194
O O6 0.754607 0.896625 0.097455
O O7 0.708206 0.000000 0.000000
O O8 0.834178 0.181982 0.250000
O O9 0.819548 0.260445 0.374516
O O10 0.974213 0.232134 0.352835
O O11 0.383412 0.092554 0.933564
O O12 0.209125 0.000000 0.000000
O O13 0.709727 0.466434 0.507469
O O14 0.369145 0.591098 0.605050
#
# Coordination Sequence:
#
# PCOD8328133 Si02
#       6
#    12  12  12  12  12  12
#     4  11  22  36  59  96 135 170 210 268 332 386
#     4  11  24  44  70  91 125 171 224 270 331 402
#     4  12  26  45  67  98 136 169 216 287 339 384
#     4  11  23  43  70  94 122 170 225 271 329 403
#     4  11  20  37  65  94 132 175 219 263 316 393
#     4  10  21  40  68  98 133 181 225 256 315 398
#
# _framework density 19.934560999999999
#
# number of rings (size 3 to 8) (size 9 to 14) (size 15 to 20)
#    0.333    0.667    5.000    2.333    0.000    6.667 
#    1.000    0.833    0.000    0.000    0.000    0.000 
#    0.000    0.000    0.000    0.000    0.000    0.000 
#
# Total GULP energy -892727.882616 kJ/mol
# GULP energy per Si atom -12398.998370 kJ/mol
# Density = 1.988919 g / cm^3
# Si number density = 19.934561 Si / 1000 Ang^3
#
#
#
# Elastic Constant Matrix: (Units=GPa)
#
#
# Indices 1 2 3 4 5 6 
#
# 1 73.1941 7.5297 19.2634 0.0000 0.0000 0.0000
# 2 7.5297 73.1941 19.2634 0.0000 0.0000 0.0000
# 3 19.2634 19.2634 121.9449 0.0000 0.0000 0.0000
# 4 0.0000 0.0000 0.0000 24.2309 0.0000 0.0000
# 5 0.0000 0.0000 0.0000 0.0000 24.2309 0.0000
# 6 0.0000 0.0000 0.0000 0.0000 0.0000 32.8322
#
#
#
# Elastic Compliance Matrix: (Units=1/GPa)
#
#
# Indices 1 2 3 4 5 6 
#
# 1 0.014314 -0.000915 -0.002116 0.000000 0.000000 0.000000
# 2 -0.000915 0.014314 -0.002116 0.000000 0.000000 0.000000
# 3 -0.002116 -0.002116 0.008869 0.000000 0.000000 0.000000
# 4 0.000000 0.000000 0.000000 0.041270 0.000000 0.000000
# 5 0.000000 0.000000 0.000000 0.000000 0.041270 0.000000
# 6 0.000000 0.000000 0.000000 0.000000 0.000000 0.030458
#
#
# Mechanical properties :
#
#
# Convention : Reuss Voigt Hill
#
# Bulk Modulus (GPa) = 36.76563 40.04957 38.40760
# Shear Modulus (GPa) = 29.43660 31.07721 30.25690
#
# Velocity S-wave (km/s) = 3.84690 3.95265 3.90014
# Velocity P-wave (km/s) = 6.18181 6.40042 6.29207
#
# Compressibility (1/GPa) = 0.02719932
#
# Stress axis : x y z
#
# Youngs Moduli (GPa) = 69.86408 69.86408 112.75105
#
# Poissons Ratio (x) = 0.06396 0.23863
# Poissons Ratio (y) = 0.06396 0.23863
# Poissons Ratio (z) = 0.14786 0.14786
#
# Static dielectric constant tensor:
#      x y z
#    x 3.686920 0.000000 0.000000 
#    y 0.000000 3.686920 0.000000 
#    z 0.000000 0.000000 3.559600 
# 
# 
# High freq. dielectric constant tensor:
#      x y z
#    x 1.779780 0.000000 0.000000 
#    y 0.000000 1.779780 0.000000 
#    z 0.000000 0.000000 1.775360 
# 
# From -- ./inp_files/3767.got.cif
#   From: 2010.06.25/outbox.cif.g09.slc.cpg/sg190_2_cif.got.tgz:3767.got - 2010.06.28 13:08:06.
