data_PCOD8328139
_publ_section_title
;
Structure prediction by ZEFSAII (Michael W. Deem and Ramdas Pophale) SiO2 
 PCOD8328139
Probable space group: P -6 2 C
;
_chemical_formula_sum "Si O2"
_cell_formula_units_Z 58
_cell_length_a 14.389511
_cell_length_b 14.389511
_cell_length_c 16.258178
_cell_angle_alpha 90.000000
_cell_angle_beta 90.000000
_cell_angle_gamma 120.000000
_cell_volume 2915.376017
_symmetry_space_group_name_H-M "P -6 2 C"
_symmetry_group_IT_number 190
_symmetry_cell_setting 'hexagonal'
loop_
_space_group_symop_operation_xyz
x,y,z
-x+y,-x,1/2-z
-y,x-y,z
x,y,1/2-z
-x+y,-x,z
-y,x-y,1/2-z
x-y,-y,-z
-x,-x+y,-z
y,x,-z
y,x,1/2+z
x-y,-y,1/2+z
-x,-x+y,1/2+z
loop_
_atom_site_type_symbol
_atom_site_label
_atom_site_fract_x
_atom_site_fract_y
_atom_site_fract_z
Si Si1 0.862487 0.751037 0.151365
Si Si2 0.798805 0.425251 0.750000
Si Si3 0.666668 0.333335 0.152557
Si Si4 0.669375 0.098883 0.606030
Si Si5 0.125599 0.229154 0.155451
Si Si6 0.550524 0.849504 0.920852
O O1 0.856620 0.732031 0.250000
O O2 0.797063 0.807973 0.118476
O O3 0.812787 0.636017 0.105565
O O4 0.984124 0.827931 0.118937
O O5 0.750995 0.297680 0.750000
O O6 0.866224 0.471167 0.666942
O O7 0.666667 0.333334 0.250000
O O8 0.663001 0.225930 0.121334
O O9 0.788115 0.140771 0.641271
O O10 0.685680 0.155044 0.518202
O O11 0.598538 0.971165 0.607675
O O12 0.103271 0.199506 0.250000
#
# Coordination Sequence:
#
# PCOD8328139 Si02
#       6
#    12   6   4  12  12  12
#     4   9  17  32  55  88 122 162 203 247 301 360
#     4  10  24  40  68  92 112 148 198 254 300 358
#     4  12  27  45  66  91 119 166 204 240 291 357
#     4  10  21  43  63  89 119 158 195 251 309 344
#     4   9  16  30  56  85 123 160 201 247 298 361
#     4  10  24  41  63  86 125 160 198 249 297 358
#
# _framework density 19.894518000000001
#
# number of rings (size 3 to 8) (size 9 to 14) (size 15 to 20)
#    0.207    2.069    1.034    1.034    5.793    2.483 
#    3.724    0.000    0.000    2.483    0.000    0.000 
#    0.000    0.000    0.000    0.000    0.000    0.000 
#
# Total GULP energy -718979.339858 kJ/mol
# GULP energy per Si atom -12396.195515 kJ/mol
# Density = 1.984924 g / cm^3
# Si number density = 19.894518 Si / 1000 Ang^3
#
#
#
# Elastic Constant Matrix: (Units=GPa)
#
#
# Indices 1 2 3 4 5 6 
#
# 1 78.0604 26.1329 37.0950 -0.0002 -0.0001 0.0001
# 2 26.1329 78.0595 37.0952 -0.0001 0.0000 0.0001
# 3 37.0950 37.0952 95.9513 0.0000 0.0000 0.0000
# 4 -0.0002 -0.0001 0.0000 24.4156 0.0000 0.0000
# 5 -0.0001 0.0000 0.0000 0.0000 24.4157 0.0001
# 6 0.0001 0.0001 0.0000 0.0000 0.0001 25.9632
#
#
#
# Elastic Compliance Matrix: (Units=1/GPa)
#
#
# Indices 1 2 3 4 5 6 
#
# 1 0.016250 -0.003007 -0.005120 0.000000 0.000000 0.000000
# 2 -0.003007 0.016251 -0.005120 0.000000 0.000000 0.000000
# 3 -0.005120 -0.005120 0.014381 0.000000 0.000000 0.000000
# 4 0.000000 0.000000 0.000000 0.040957 0.000000 0.000000
# 5 0.000000 0.000000 0.000000 0.000000 0.040957 0.000000
# 6 0.000000 0.000000 0.000000 0.000000 0.000000 0.038516
#
#
# Mechanical properties :
#
#
# Convention : Reuss Voigt Hill
#
# Bulk Modulus (GPa) = 49.04949 50.30195 49.67572
# Shear Modulus (GPa) = 24.92495 25.07544 25.00019
#
# Velocity S-wave (km/s) = 3.54341 3.55409 3.54875
# Velocity P-wave (km/s) = 6.43811 6.49471 6.46647
#
# Compressibility (1/GPa) = 0.02038757
#
# Stress axis : x y z
#
# Youngs Moduli (GPa) = 61.53716 61.53610 69.53781
#
# Poissons Ratio (x) = 0.18506 0.35602
# Poissons Ratio (y) = 0.18506 0.35603
# Poissons Ratio (z) = 0.31506 0.31506
#
# Static dielectric constant tensor:
#      x y z
#    x 3.550690 0.000000 0.000000 
#    y 0.000000 3.550680 0.000000 
#    z 0.000000 0.000000 3.562730 
# 
# 
# High freq. dielectric constant tensor:
#      x y z
#    x 1.768350 0.000000 0.000000 
#    y 0.000000 1.768350 0.000000 
#    z 0.000000 0.000000 1.772190 
# 
# From -- ./inp_files/2866.got.cif
#   From: 2010.06.25/outbox.cif.g09.slc.cpg/sg190_2_cif.got.tgz:2866.got - 2010.06.28 13:08:06.
