data_PCOD8328594
_publ_section_title
;
Structure prediction by ZEFSAII (Michael W. Deem and Ramdas Pophale) SiO2 
 PCOD8328594
Probable space group: P 6/M M M
;
_chemical_formula_sum "Si O2"
_cell_formula_units_Z 168
_cell_length_a 18.634381
_cell_length_b 18.634381
_cell_length_c 34.406505
_cell_angle_alpha 90.000000
_cell_angle_beta 90.000000
_cell_angle_gamma 120.000000
_cell_volume 10346.682747
_symmetry_space_group_name_H-M "P 6/M M M"
_symmetry_group_IT_number 191
_symmetry_cell_setting 'hexagonal'
loop_
_space_group_symop_operation_xyz
x,y,z
x-y,x,z
-y,x-y,z
-x,-y,z
-x+y,-x,z
y,-x+y,z
x-y,-y,-z
-x,-x+y,-z
y,x,-z
-y,-x,-z
-x+y,y,-z
x,x-y,-z
-x,-y,-z
-x+y,-x,-z
y,-x+y,-z
x,y,-z
x-y,x,-z
-y,x-y,-z
-x+y,y,z
x,x-y,z
-y,-x,z
y,x,z
x-y,-y,z
-x,-x+y,z
loop_
_atom_site_type_symbol
_atom_site_label
_atom_site_fract_x
_atom_site_fract_y
_atom_site_fract_z
Si Si1 0.654137 0.907625 0.044802
Si Si2 0.831463 0.333664 0.814839
Si Si3 0.831463 0.497789 0.095437
Si Si4 0.654323 0.907748 0.764267
Si Si5 0.652095 0.745207 0.674424
Si Si6 0.461307 0.092755 0.457674
Si Si7 0.331086 0.501071 0.378614
O O1 0.682887 0.841444 0.056383
O O2 0.576101 0.893905 0.070001
O O3 0.730343 0.000000 0.052936
O O4 0.626733 0.896883 0.000000
O O5 0.840781 0.420390 0.801736
O O6 0.737051 0.262950 0.807361
O O7 0.855925 0.335685 0.859701
O O8 0.893839 0.317706 0.789409
O O9 0.737090 0.474180 0.087954
O O10 0.840758 0.420379 0.082353
O O11 0.682976 0.841488 0.775764
O O12 0.627281 0.897703 0.719491
O O13 0.730529 0.000000 0.772637
O O14 0.681195 0.840598 0.662958
O O15 0.726390 0.726390 0.665135
O O16 0.570763 0.681390 0.650826
O O17 0.451096 0.126233 0.500000
O O18 0.545076 0.090152 0.457843
O O19 0.464465 0.150691 0.422481
O O20 0.384923 0.000000 0.450971
O O21 0.265764 0.531527 0.369863
O O22 0.423414 0.576587 0.372713
#
# Coordination Sequence:
#
# PCOD8328594 Si02
#       7
#    24  24  24  24  24  24  24
#     4   9  18  32  48  65  86 113 144 178 218 263
#     4   9  17  29  45  65  90 120 152 184 216 249
#     4   9  17  29  45  65  90 120 152 183 214 249
#     4   9  18  32  48  66  88 113 141 174 214 259
#     4   9  18  32  49  67  86 110 140 174 214 260
#     4   8  14  25  40  56  74 100 138 183 226 262
#     4  10  19  29  41  59  85 117 152 186 216 246
#
# _framework density 16.237089000000001
#
# number of rings (size 3 to 8) (size 9 to 14) (size 15 to 20)
#    0.000    3.000    0.000    1.286    0.000    4.286 
#    0.000    3.571    0.000    3.857    0.000    3.000 
#    0.000    0.000    0.000    7.143    0.000    7.429 
#
# Total GULP energy -2082494.193629 kJ/mol
# GULP energy per Si atom -12395.798772 kJ/mol
# Density = 1.620013 g / cm^3
# Si number density = 16.237089 Si / 1000 Ang^3
#
#
#
# Elastic Constant Matrix: (Units=GPa)
#
#
# Indices 1 2 3 4 5 6 
#
# 1 92.8466 63.0001 43.1871 0.0000 0.0000 0.0000
# 2 63.0001 92.8466 43.1871 0.0000 0.0000 0.0000
# 3 43.1871 43.1871 58.6958 0.0000 0.0000 0.0000
# 4 0.0000 0.0000 0.0000 22.2234 0.0000 0.0000
# 5 0.0000 0.0000 0.0000 0.0000 22.2234 0.0000
# 6 0.0000 0.0000 0.0000 0.0000 0.0000 14.9232
#
#
#
# Elastic Compliance Matrix: (Units=1/GPa)
#
#
# Indices 1 2 3 4 5 6 
#
# 1 0.022170 -0.011335 -0.007972 0.000000 0.000000 0.000000
# 2 -0.011335 0.022170 -0.007972 0.000000 0.000000 0.000000
# 3 -0.007972 -0.007972 0.028768 0.000000 0.000000 0.000000
# 4 0.000000 0.000000 0.000000 0.044998 0.000000 0.000000
# 5 0.000000 0.000000 0.000000 0.000000 0.044998 0.000000
# 6 0.000000 0.000000 0.000000 0.000000 0.000000 0.067010
#
#
# Mechanical properties :
#
#
# Convention : Reuss Voigt Hill
#
# Bulk Modulus (GPa) = 53.90887 60.34862 57.12874
# Shear Modulus (GPa) = 17.19073 18.20832 17.69953
#
# Velocity S-wave (km/s) = 3.25735 3.35237 3.30520
# Velocity P-wave (km/s) = 6.88623 7.22719 7.05877
#
# Compressibility (1/GPa) = 0.01854982
#
# Stress axis : x y z
#
# Youngs Moduli (GPa) = 45.10630 45.10630 34.76045
#
# Poissons Ratio (x) = 0.51128 0.27711
# Poissons Ratio (y) = 0.51128 0.27711
# Poissons Ratio (z) = 0.35959 0.35959
#
# Static dielectric constant tensor:
#      x y z
#    x 3.006870 0.000000 0.000000 
#    y 0.000000 3.006870 0.000000 
#    z 0.000000 0.000000 3.266080 
# 
# 
# High freq. dielectric constant tensor:
#      x y z
#    x 1.607290 0.000000 0.000000 
#    y 0.000000 1.607290 0.000000 
#    z 0.000000 0.000000 1.631060 
# 
# From -- ./inp_files/10743.got.cif
#   From: 2010.03.12/outbox.cif.g09.slc.cpg/sg191_6_cif.got.tgz:10743.got - 2010.04.01 12:09:02.
