data_PCOD8328776
_publ_section_title
;
Structure prediction by ZEFSAII (Michael W. Deem and Ramdas Pophale) SiO2 
 PCOD8328776
Probable space group: P 6/M M M
;
_chemical_formula_sum "Si O2"
_cell_formula_units_Z 78
_cell_length_a 25.143024
_cell_length_b 25.143024
_cell_length_c 9.068881
_cell_angle_alpha 90.000000
_cell_angle_beta 90.000000
_cell_angle_gamma 120.000000
_cell_volume 4965.001165
_symmetry_space_group_name_H-M "P 6/M M M"
_symmetry_group_IT_number 191
_symmetry_cell_setting 'hexagonal'
loop_
_space_group_symop_operation_xyz
x,y,z
x-y,x,z
-y,x-y,z
-x,-y,z
-x+y,-x,z
y,-x+y,z
x-y,-y,-z
-x,-x+y,-z
y,x,-z
-y,-x,-z
-x+y,y,-z
x,x-y,-z
-x,-y,-z
-x+y,-x,-z
y,-x+y,-z
x,y,-z
x-y,x,-z
-y,x-y,-z
-x+y,y,z
x,x-y,z
-y,-x,z
y,x,z
x-y,-y,z
-x,-x+y,z
loop_
_atom_site_type_symbol
_atom_site_label
_atom_site_fract_x
_atom_site_fract_y
_atom_site_fract_z
Si Si1 0.536596 0.463405 0.333348
Si Si2 0.854493 0.927247 0.000000
Si Si3 0.867883 0.132118 0.836720
Si Si4 0.432431 0.073268 0.166667
Si Si5 0.328808 0.256255 0.665466
O O1 0.500000 0.500000 0.333529
O O2 0.549244 0.450757 0.500000
O O3 0.601219 0.502901 0.249912
O O4 0.897324 0.897324 0.000000
O O5 0.810169 0.905085 0.855016
O O6 0.805800 0.090083 0.749896
O O7 0.852563 0.147438 0.000000
O O8 0.393581 0.099400 0.249940
O O9 0.395419 0.000000 0.166862
O O10 0.445238 0.098482 0.000000
O O11 0.341464 0.241715 0.500000
O O12 0.296330 0.296330 0.660134
#
# Coordination Sequence:
#
# PCOD8328776 Si02
#       5
#    12   6  12  24  24
#     4   9  15  23  35  55  83 117 156 189 215 243
#     4  10  21  36  56  76  94 112 142 188 248 312
#     4  10  21  32  50  68  92 115 146 185 235 300
#     4   9  16  25  39  58  84 117 152 187 220 255
#     4  10  19  31  46  65  89 117 149 187 233 286
#
# _framework density 15.709967000000001
#
# number of rings (size 3 to 8) (size 9 to 14) (size 15 to 20)
#    0.462    2.000    0.000    3.769    0.000    6.769 
#    0.000    0.000    0.000    0.000    0.000    0.000 
#    0.000    7.385    0.000    0.923    0.000   13.077 
#
# Total GULP energy -966915.207274 kJ/mol
# GULP energy per Si atom -12396.348811 kJ/mol
# Density = 1.567421 g / cm^3
# Si number density = 15.709967 Si / 1000 Ang^3
#
#
#
# Elastic Constant Matrix: (Units=GPa)
#
#
# Indices 1 2 3 4 5 6 
#
# 1 79.7790 33.3755 46.0229 0.0000 0.0000 0.0000
# 2 33.3755 79.7790 46.0229 0.0000 0.0000 0.0000
# 3 46.0229 46.0229 155.7374 0.0000 0.0000 0.0000
# 4 0.0000 0.0000 0.0000 24.3710 0.0000 0.0000
# 5 0.0000 0.0000 0.0000 0.0000 24.3710 0.0000
# 6 0.0000 0.0000 0.0000 0.0000 0.0000 23.2017
#
#
#
# Elastic Compliance Matrix: (Units=1/GPa)
#
#
# Indices 1 2 3 4 5 6 
#
# 1 0.016592 -0.004958 -0.003438 0.000000 0.000000 0.000000
# 2 -0.004958 0.016592 -0.003438 0.000000 0.000000 0.000000
# 3 -0.003438 -0.003438 0.008453 0.000000 0.000000 0.000000
# 4 0.000000 0.000000 0.000000 0.041032 0.000000 0.000000
# 5 0.000000 0.000000 0.000000 0.000000 0.041032 0.000000
# 6 0.000000 0.000000 0.000000 0.000000 0.000000 0.043100
#
#
# Mechanical properties :
#
#
# Convention : Reuss Voigt Hill
#
# Bulk Modulus (GPa) = 55.65103 62.90421 59.27762
# Shear Modulus (GPa) = 25.45041 27.04700 26.24870
#
# Velocity S-wave (km/s) = 4.02931 4.15377 4.09201
# Velocity P-wave (km/s) = 7.55963 7.94563 7.75503
#
# Compressibility (1/GPa) = 0.01796912
#
# Stress axis : x y z
#
# Youngs Moduli (GPa) = 60.26943 60.26943 118.30005
#
# Poissons Ratio (x) = 0.29881 0.40673
# Poissons Ratio (y) = 0.29881 0.40673
# Poissons Ratio (z) = 0.20721 0.20721
#
# Static dielectric constant tensor:
#      x y z
#    x 2.773460 0.000000 0.000000 
#    y 0.000000 2.773460 0.000000 
#    z 0.000000 0.000000 3.283110 
# 
# 
# High freq. dielectric constant tensor:
#      x y z
#    x 1.570180 0.000000 0.000000 
#    y 0.000000 1.570180 0.000000 
#    z 0.000000 0.000000 1.622070 
# 
# From -- ./inp_files/1084.got.cif
#   From: 2010.03.12/outbox.cif.g09.slc.cpg/sg191_1_cif.got.tgz:1084.got - 2010.04.01 12:09:02.
