data_PCOD8328951
_publ_section_title
;
Structure prediction by ZEFSAII (Michael W. Deem and Ramdas Pophale) SiO2 
 PCOD8328951
Probable space group: P 6/M M M
;
_chemical_formula_sum "Si O2"
_cell_formula_units_Z 96
_cell_length_a 21.637704
_cell_length_b 21.637704
_cell_length_c 14.176345
_cell_angle_alpha 90.000000
_cell_angle_beta 90.000000
_cell_angle_gamma 120.000000
_cell_volume 5748.006576
_symmetry_space_group_name_H-M "P 6/M M M"
_symmetry_group_IT_number 191
_symmetry_cell_setting 'hexagonal'
loop_
_space_group_symop_operation_xyz
x,y,z
x-y,x,z
-y,x-y,z
-x,-y,z
-x+y,-x,z
y,-x+y,z
x-y,-y,-z
-x,-x+y,-z
y,x,-z
-y,-x,-z
-x+y,y,-z
x,x-y,-z
-x,-y,-z
-x+y,-x,-z
y,-x+y,-z
x,y,-z
x-y,x,-z
-y,x-y,-z
-x+y,y,z
x,x-y,z
-y,-x,z
y,x,z
x-y,-y,z
-x,-x+y,z
loop_
_atom_site_type_symbol
_atom_site_label
_atom_site_fract_x
_atom_site_fract_y
_atom_site_fract_z
Si Si1 0.860999 0.284403 0.396035
Si Si2 0.319776 0.401484 0.891471
Si Si3 0.219473 0.920587 0.740451
Si Si4 0.811780 0.477051 0.230885
O O1 0.889577 0.318048 0.500000
O O2 0.785343 0.214658 0.406542
O O3 0.915438 0.263464 0.348164
O O4 0.851356 0.339727 0.330016
O O5 0.382438 0.382438 0.877231
O O6 0.249096 0.345446 0.835312
O O7 0.347575 0.481216 0.853998
O O8 0.297863 0.397068 0.000000
O O9 0.135355 0.864646 0.732151
O O10 0.230598 0.000000 0.742347
O O11 0.741735 0.483469 0.217674
O O12 0.789721 0.394861 0.228526
#
# Coordination Sequence:
#
# PCOD8328951 Si02
#       4
#    24  24  24  24
#     4   8  15  29  47  65  86 114 150 191 228 258
#     4   9  18  33  52  70  87 112 150 197 242 275
#     4   9  17  29  47  71  96 121 150 186 228 273
#     4  10  20  32  46  66  94 126 156 186 225 278
#
# _framework density 16.701442
#
# number of rings (size 3 to 8) (size 9 to 14) (size 15 to 20)
#    0.000    3.000    0.000    2.500    0.000    4.000 
#    0.000    1.250    0.000    3.250    0.000    7.000 
#    0.000    0.000    0.000   12.500    0.000    0.000 
#
# Total GULP energy -1190040.231711 kJ/mol
# GULP energy per Si atom -12396.252414 kJ/mol
# Density = 1.666343 g / cm^3
# Si number density = 16.701442 Si / 1000 Ang^3
#
#
#
# Elastic Constant Matrix: (Units=GPa)
#
#
# Indices 1 2 3 4 5 6 
#
# 1 79.9620 42.2156 34.6774 0.0000 0.0000 0.0000
# 2 42.2156 79.9620 34.6774 0.0000 0.0000 0.0000
# 3 34.6774 34.6774 119.1281 0.0000 0.0000 0.0000
# 4 0.0000 0.0000 0.0000 15.3265 0.0000 0.0000
# 5 0.0000 0.0000 0.0000 0.0000 15.3265 0.0000
# 6 0.0000 0.0000 0.0000 0.0000 0.0000 18.8732
#
#
#
# Elastic Compliance Matrix: (Units=1/GPa)
#
#
# Indices 1 2 3 4 5 6 
#
# 1 0.018149 -0.008344 -0.002854 0.000000 0.000000 0.000000
# 2 -0.008344 0.018149 -0.002854 0.000000 0.000000 0.000000
# 3 -0.002854 -0.002854 0.010056 0.000000 0.000000 0.000000
# 4 0.000000 0.000000 0.000000 0.065247 0.000000 0.000000
# 5 0.000000 0.000000 0.000000 0.000000 0.065247 0.000000
# 6 0.000000 0.000000 0.000000 0.000000 0.000000 0.052985
#
#
# Mechanical properties :
#
#
# Convention : Reuss Voigt Hill
#
# Bulk Modulus (GPa) = 54.79663 55.79921 55.29792
# Shear Modulus (GPa) = 18.93802 21.07068 20.00435
#
# Velocity S-wave (km/s) = 3.37102 3.55577 3.46462
# Velocity P-wave (km/s) = 6.93054 7.09509 7.01330
#
# Compressibility (1/GPa) = 0.01824930
#
# Stress axis : x y z
#
# Youngs Moduli (GPa) = 55.10009 55.10009 99.44323
#
# Poissons Ratio (x) = 0.45974 0.28383
# Poissons Ratio (y) = 0.45974 0.28383
# Poissons Ratio (z) = 0.15727 0.15727
#
# Static dielectric constant tensor:
#      x y z
#    x 2.936580 0.000000 0.000000 
#    y 0.000000 2.936580 0.000000 
#    z 0.000000 0.000000 3.519490 
# 
# 
# High freq. dielectric constant tensor:
#      x y z
#    x 1.622260 0.000000 0.000000 
#    y 0.000000 1.622260 0.000000 
#    z 0.000000 0.000000 1.653210 
# 
# From -- ./inp_files/4162.got.cif
#   From: 2010.03.12/outbox.cif.g09.slc.cpg/sg191_3_cif.got.tgz:4162.got - 2010.04.01 12:09:02.
