data_PCOD8328440
_publ_section_title
;
Structure prediction by ZEFSAII (Michael W. Deem and Ramdas Pophale) SiO2 
 PCOD8328440
Probable space group: P 6/M M M
;
_chemical_formula_sum "Si O2"
_cell_formula_units_Z 192
_cell_length_a 29.156682
_cell_length_b 29.156682
_cell_length_c 17.383665
_cell_angle_alpha 90.000000
_cell_angle_beta 90.000000
_cell_angle_gamma 120.000000
_cell_volume 12798.178886
_symmetry_space_group_name_H-M "P 6/M M M"
_symmetry_group_IT_number 191
_symmetry_cell_setting 'hexagonal'
loop_
_space_group_symop_operation_xyz
x,y,z
x-y,x,z
-y,x-y,z
-x,-y,z
-x+y,-x,z
y,-x+y,z
x-y,-y,-z
-x,-x+y,-z
y,x,-z
-y,-x,-z
-x+y,y,-z
x,x-y,-z
-x,-y,-z
-x+y,-x,-z
y,-x+y,-z
x,y,-z
x-y,x,-z
-y,x-y,-z
-x+y,y,z
x,x-y,z
-y,-x,z
y,x,z
x-y,-y,z
-x,-x+y,z
loop_
_atom_site_type_symbol
_atom_site_label
_atom_site_fract_x
_atom_site_fract_y
_atom_site_fract_z
Si Si1 0.058458 0.841709 0.586328
Si Si2 0.334879 0.471548 0.309161
Si Si3 0.333152 0.558927 0.587446
Si Si4 0.246176 0.860527 0.798022
Si Si5 0.606212 0.939564 0.089892
Si Si6 0.700706 0.940541 0.306355
Si Si7 0.059608 0.478079 0.806974
Si Si8 0.614214 0.672923 0.414110
O O1 0.061797 0.822628 0.500000
O O2 0.095667 0.904334 0.595339
O O3 0.077196 0.813118 0.646177
O O4 0.000000 0.830095 0.605261
O O5 0.330640 0.519506 0.345847
O O6 0.282225 0.433458 0.260175
O O7 0.386556 0.490784 0.256624
O O8 0.343392 0.442628 0.381119
O O9 0.332236 0.538052 0.500000
O O10 0.283774 0.567547 0.599937
O O11 0.385597 0.614404 0.600757
O O12 0.195462 0.804539 0.823143
O O13 0.279374 0.894733 0.871286
O O14 0.225713 0.897115 0.759169
O O15 0.550967 0.932469 0.120148
O O16 0.653563 0.000000 0.108168
O O17 0.600892 0.928312 0.000000
O O18 0.658872 0.940127 0.364473
O O19 0.735942 0.000000 0.271504
O O20 0.066910 0.533455 0.836762
O O21 0.000000 0.440925 0.772635
O O22 0.618383 0.694589 0.500000
O O23 0.621809 0.621809 0.412542
#
# Coordination Sequence:
#
# PCOD8328440 Si02
#       8
#    24  24  24  24  24  24  24  24
#     4   9  16  25  37  53  74 101 134 172 211 246
#     4  10  18  29  43  61  85 110 134 162 199 240
#     4  10  20  33  47  60  75  99 135 178 218 249
#     4  10  19  29  43  63  86 110 134 160 192 234
#     4   9  18  32  48  65  85 108 133 161 193 229
#     4   9  16  26  40  57  79 107 138 170 200 230
#     4   9  17  29  46  67  88 109 132 158 190 230
#     4   9  16  25  38  57  82 112 142 167 192 227
#
# _framework density 15.002135000000001
#
# number of rings (size 3 to 8) (size 9 to 14) (size 15 to 20)
#    0.000    2.625    0.000    2.750    0.000    5.500 
#    0.000    1.250    0.000    6.125    0.000    6.125 
#    0.000    0.000    0.000    0.000    0.000   37.250 
#
# Total GULP energy -2379478.964331 kJ/mol
# GULP energy per Si atom -12393.119606 kJ/mol
# Density = 1.496799 g / cm^3
# Si number density = 15.002135 Si / 1000 Ang^3
#
#
#
# Elastic Constant Matrix: (Units=GPa)
#
#
# Indices 1 2 3 4 5 6 
#
# 1 84.1742 46.4268 35.3830 0.0000 0.0000 0.0000
# 2 46.4268 84.1742 35.3830 0.0000 0.0000 0.0000
# 3 35.3830 35.3830 64.3416 0.0000 0.0000 0.0000
# 4 0.0000 0.0000 0.0000 17.3754 0.0000 0.0000
# 5 0.0000 0.0000 0.0000 0.0000 17.3754 0.0000
# 6 0.0000 0.0000 0.0000 0.0000 0.0000 18.8737
#
#
#
# Elastic Compliance Matrix: (Units=1/GPa)
#
#
# Indices 1 2 3 4 5 6 
#
# 1 0.018699 -0.007793 -0.005998 0.000000 0.000000 0.000000
# 2 -0.007793 0.018699 -0.005998 0.000000 0.000000 0.000000
# 3 -0.005998 -0.005998 0.022139 0.000000 0.000000 0.000000
# 4 0.000000 0.000000 0.000000 0.057552 0.000000 0.000000
# 5 0.000000 0.000000 0.000000 0.000000 0.057552 0.000000
# 6 0.000000 0.000000 0.000000 0.000000 0.000000 0.052984
#
#
# Mechanical properties :
#
#
# Convention : Reuss Voigt Hill
#
# Bulk Modulus (GPa) = 50.09810 51.89728 50.99769
# Shear Modulus (GPa) = 18.25770 18.42472 18.34121
#
# Velocity S-wave (km/s) = 3.49235 3.50828 3.50033
# Velocity P-wave (km/s) = 7.05184 7.14697 7.09956
#
# Compressibility (1/GPa) = 0.01996083
#
# Stress axis : x y z
#
# Youngs Moduli (GPa) = 53.47761 53.47761 45.16940
#
# Poissons Ratio (x) = 0.41673 0.27092
# Poissons Ratio (y) = 0.41673 0.27092
# Poissons Ratio (z) = 0.32076 0.32076
#
# Static dielectric constant tensor:
#      x y z
#    x 2.922380 0.000000 0.000000 
#    y 0.000000 2.922380 0.000000 
#    z 0.000000 0.000000 2.778930 
# 
# 
# High freq. dielectric constant tensor:
#      x y z
#    x 1.569230 0.000000 0.000000 
#    y 0.000000 1.569230 0.000000 
#    z 0.000000 0.000000 1.557520 
# 
# From -- ./inp_files/5538.got.cif
#   From: 2010.03.12/outbox.cif.g09.slc.cpg/sg191_3_cif.got.tgz:5538.got - 2010.04.01 12:09:02.
