data_PCOD8328577
_publ_section_title
;
Structure prediction by ZEFSAII (Michael W. Deem and Ramdas Pophale) SiO2 
 PCOD8328577
Probable space group: P 6/M M M
;
_chemical_formula_sum "Si O2"
_cell_formula_units_Z 108
_cell_length_a 22.876541
_cell_length_b 22.876541
_cell_length_c 15.052118
_cell_angle_alpha 90.000000
_cell_angle_beta 90.000000
_cell_angle_gamma 120.000000
_cell_volume 6821.956769
_symmetry_space_group_name_H-M "P 6/M M M"
_symmetry_group_IT_number 191
_symmetry_cell_setting 'hexagonal'
loop_
_space_group_symop_operation_xyz
x,y,z
x-y,x,z
-y,x-y,z
-x,-y,z
-x+y,-x,z
y,-x+y,z
x-y,-y,-z
-x,-x+y,-z
y,x,-z
-y,-x,-z
-x+y,y,-z
x,x-y,-z
-x,-y,-z
-x+y,-x,-z
y,-x+y,-z
x,y,-z
x-y,x,-z
-y,x-y,-z
-x+y,y,z
x,x-y,z
-y,-x,z
y,x,z
x-y,-y,z
-x,-x+y,z
loop_
_atom_site_type_symbol
_atom_site_label
_atom_site_fract_x
_atom_site_fract_y
_atom_site_fract_z
Si Si1 0.210557 0.922761 0.194962
Si Si2 0.606994 0.076319 0.899540
Si Si3 0.666460 0.198376 0.398885
Si Si4 0.199939 0.926981 0.000000
Si Si5 0.715903 0.149487 0.755453
O O1 0.130245 0.869756 0.210959
O O2 0.230834 0.916541 0.091859
O O3 0.255742 0.902395 0.255140
O O4 0.229414 0.000000 0.216793
O O5 0.542999 0.085997 0.891826
O O6 0.663219 0.129145 0.834555
O O7 0.586423 0.000000 0.872500
O O8 0.635077 0.090870 0.000000
O O9 0.663729 0.174232 0.500000
O O10 0.596167 0.192334 0.370206
O O11 0.724012 0.275989 0.387328
O O12 0.680880 0.149489 0.337311
O O13 0.120283 0.879718 0.000000
O O14 0.207480 0.000000 0.000000
O O15 0.776585 0.223416 0.779291
#
# Coordination Sequence:
#
# PCOD8328577 Si02
#       5
#    24  24  24  12  24
#     4   9  17  28  43  64  89 116 145 178 218 261
#     4   9  18  31  45  60  81 114 153 187 218 256
#     4   9  17  30  48  68  89 115 149 188 228 270
#     4   8  14  24  38  57  81 109 139 171 207 249
#     4  10  19  28  43  67  91 114 142 181 228 272
#
# _framework density 15.831235
#
# number of rings (size 3 to 8) (size 9 to 14) (size 15 to 20)
#    0.000    2.889    0.000    2.222    1.556    1.333 
#    0.000    0.000    0.000    3.444    0.000   10.889 
#    0.000    0.000    0.000    0.000    0.000    0.000 
#
# Total GULP energy -1338307.783747 kJ/mol
# GULP energy per Si atom -12391.738738 kJ/mol
# Density = 1.579520 g / cm^3
# Si number density = 15.831235 Si / 1000 Ang^3
#
#
#
# Elastic Constant Matrix: (Units=GPa)
#
#
# Indices 1 2 3 4 5 6 
#
# 1 83.2881 46.5722 53.5967 0.0000 0.0000 0.0000
# 2 46.5722 83.2881 53.5967 0.0000 0.0000 0.0000
# 3 53.5967 53.5967 77.4911 0.0000 0.0000 0.0000
# 4 0.0000 0.0000 0.0000 21.3985 0.0000 0.0000
# 5 0.0000 0.0000 0.0000 0.0000 21.3985 0.0000
# 6 0.0000 0.0000 0.0000 0.0000 0.0000 18.3579
#
#
#
# Elastic Compliance Matrix: (Units=1/GPa)
#
#
# Indices 1 2 3 4 5 6 
#
# 1 0.022592 -0.004645 -0.012413 0.000000 0.000000 0.000000
# 2 -0.004645 0.022592 -0.012413 0.000000 0.000000 0.000000
# 3 -0.012413 -0.012413 0.030075 0.000000 0.000000 0.000000
# 4 0.000000 0.000000 0.000000 0.046732 0.000000 0.000000
# 5 0.000000 0.000000 0.000000 0.000000 0.046732 0.000000
# 6 0.000000 0.000000 0.000000 0.000000 0.000000 0.054472
#
#
# Mechanical properties :
#
#
# Convention : Reuss Voigt Hill
#
# Bulk Modulus (GPa) = 61.28397 61.28872 61.28634
# Shear Modulus (GPa) = 17.38673 18.25109 17.81891
#
# Velocity S-wave (km/s) = 3.31759 3.39905 3.35857
# Velocity P-wave (km/s) = 7.31232 7.36224 7.33732
#
# Compressibility (1/GPa) = 0.01631748
#
# Stress axis : x y z
#
# Youngs Moduli (GPa) = 44.26440 44.26440 33.24967
#
# Poissons Ratio (x) = 0.20559 0.41273
# Poissons Ratio (y) = 0.20559 0.41273
# Poissons Ratio (z) = 0.54945 0.54945
#
# Static dielectric constant tensor:
#      x y z
#    x 2.985660 0.000000 0.000000 
#    y 0.000000 2.985660 0.000000 
#    z 0.000000 0.000000 3.009950 
# 
# 
# High freq. dielectric constant tensor:
#      x y z
#    x 1.600480 0.000000 0.000000 
#    y 0.000000 1.600480 0.000000 
#    z 0.000000 0.000000 1.590220 
# 
# From -- ./inp_files/2908.got.cif
#   From: 2010.03.12/outbox.cif.g09.slc.cpg/sg191_2_cif.got.tgz:2908.got - 2010.04.01 12:09:02.
