data_PCOD8328853
_publ_section_title
;
Structure prediction by ZEFSAII (Michael W. Deem and Ramdas Pophale) SiO2 
 PCOD8328853
Probable space group: P 6/M M M
;
_chemical_formula_sum "Si O2"
_cell_formula_units_Z 96
_cell_length_a 27.882301
_cell_length_b 27.882301
_cell_length_c 8.878942
_cell_angle_alpha 90.000000
_cell_angle_beta 90.000000
_cell_angle_gamma 120.000000
_cell_volume 5977.905884
_symmetry_space_group_name_H-M "P 6/M M M"
_symmetry_group_IT_number 191
_symmetry_cell_setting 'hexagonal'
loop_
_space_group_symop_operation_xyz
x,y,z
x-y,x,z
-y,x-y,z
-x,-y,z
-x+y,-x,z
y,-x+y,z
x-y,-y,-z
-x,-x+y,-z
y,x,-z
-y,-x,-z
-x+y,y,-z
x,x-y,-z
-x,-y,-z
-x+y,-x,-z
y,-x+y,-z
x,y,-z
x-y,x,-z
-y,x-y,-z
-x+y,y,z
x,x-y,z
-y,-x,z
y,x,z
x-y,-y,z
-x,-x+y,z
loop_
_atom_site_type_symbol
_atom_site_label
_atom_site_fract_x
_atom_site_fract_y
_atom_site_fract_z
Si Si1 0.710754 0.000000 0.322473
Si Si2 0.780093 0.668956 0.176964
Si Si3 0.391914 0.000000 0.825706
Si Si4 0.447387 0.169154 0.673642
Si Si5 0.112615 0.501568 0.824238
O O1 0.711184 0.946084 0.258153
O O2 0.655392 0.000000 0.274788
O O3 0.714941 0.000000 0.500000
O O4 0.842698 0.685395 0.220743
O O5 0.737249 0.606991 0.229760
O O6 0.772845 0.671637 0.000000
O O7 0.397793 0.947346 0.785345
O O8 0.376040 0.000000 0.000000
O O9 0.433442 0.151905 0.500000
O O10 0.466987 0.233494 0.698089
O O11 0.496377 0.159507 0.731915
O O12 0.114381 0.557191 0.769750
O O13 0.125913 0.503966 0.000000
#
# Coordination Sequence:
#
# PCOD8328853 Si02
#       5
#    12  24  12  24  24
#     4  12  22  31  49  75 105 135 165 205 248 284
#     4  10  20  34  52  72  96 131 171 205 239 283
#     4  10  19  32  48  68  97 131 162 193 235 291
#     4  10  20  33  49  70  95 121 152 195 245 294
#     4  10  20  33  50  71  95 125 159 197 243 294
#
# _framework density 16.059135999999999
#
# number of rings (size 3 to 8) (size 9 to 14) (size 15 to 20)
#    0.000    1.750    2.500    3.000    0.000    5.000 
#    0.000    0.000    0.000    2.750    0.000    0.000 
#    0.000    0.000    0.000    0.375    0.000    7.250 
#
# Total GULP energy -1190738.205737 kJ/mol
# GULP energy per Si atom -12403.522976 kJ/mol
# Density = 1.602258 g / cm^3
# Si number density = 16.059136 Si / 1000 Ang^3
#
#
#
# Elastic Constant Matrix: (Units=GPa)
#
#
# Indices 1 2 3 4 5 6 
#
# 1 103.4504 54.6790 49.0331 0.0000 0.0000 0.0000
# 2 54.6790 103.4504 49.0331 0.0000 0.0000 0.0000
# 3 49.0331 49.0331 86.6060 0.0000 0.0000 0.0000
# 4 0.0000 0.0000 0.0000 22.0418 0.0000 0.0000
# 5 0.0000 0.0000 0.0000 0.0000 22.0418 0.0000
# 6 0.0000 0.0000 0.0000 0.0000 0.0000 24.3857
#
#
#
# Elastic Compliance Matrix: (Units=1/GPa)
#
#
# Indices 1 2 3 4 5 6 
#
# 1 0.015125 -0.005379 -0.005518 0.000000 0.000000 0.000000
# 2 -0.005379 0.015125 -0.005518 0.000000 0.000000 0.000000
# 3 -0.005518 -0.005518 0.017794 0.000000 0.000000 0.000000
# 4 0.000000 0.000000 0.000000 0.045368 0.000000 0.000000
# 5 0.000000 0.000000 0.000000 0.000000 0.045368 0.000000
# 6 0.000000 0.000000 0.000000 0.000000 0.000000 0.041008
#
#
# Mechanical properties :
#
#
# Convention : Reuss Voigt Hill
#
# Bulk Modulus (GPa) = 65.72392 66.55526 66.13959
# Shear Modulus (GPa) = 22.96854 23.07797 23.02325
#
# Velocity S-wave (km/s) = 3.78596 3.79497 3.79047
# Velocity P-wave (km/s) = 7.75412 7.79335 7.77376
#
# Compressibility (1/GPa) = 0.01521516
#
# Stress axis : x y z
#
# Youngs Moduli (GPa) = 66.11648 66.11648 56.19738
#
# Poissons Ratio (x) = 0.35564 0.31008
# Poissons Ratio (y) = 0.35564 0.31008
# Poissons Ratio (z) = 0.36481 0.36481
#
# Static dielectric constant tensor:
#      x y z
#    x 3.061530 0.000000 0.000000 
#    y 0.000000 3.061530 0.000000 
#    z 0.000000 0.000000 3.065180 
# 
# 
# High freq. dielectric constant tensor:
#      x y z
#    x 1.600750 0.000000 0.000000 
#    y 0.000000 1.600750 0.000000 
#    z 0.000000 0.000000 1.627200 
# 
# From -- ./inp_files/1566.got.cif
#   From: 2010.03.12/outbox.cif.g09.slc.cpg/sg191_1_cif.got.tgz:1566.got - 2010.04.01 12:09:02.
