data_PCOD8328554
_publ_section_title
;
Structure prediction by ZEFSAII (Michael W. Deem and Ramdas Pophale) SiO2 
 PCOD8328554
Probable space group: P 6/M M M
;
_chemical_formula_sum "Si O2"
_cell_formula_units_Z 168
_cell_length_a 26.576511
_cell_length_b 26.576511
_cell_length_c 15.221551
_cell_angle_alpha 90.000000
_cell_angle_beta 90.000000
_cell_angle_gamma 120.000000
_cell_volume 9310.767243
_symmetry_space_group_name_H-M "P 6/M M M"
_symmetry_group_IT_number 191
_symmetry_cell_setting 'hexagonal'
loop_
_space_group_symop_operation_xyz
x,y,z
x-y,x,z
-y,x-y,z
-x,-y,z
-x+y,-x,z
y,-x+y,z
x-y,-y,-z
-x,-x+y,-z
y,x,-z
-y,-x,-z
-x+y,y,-z
x,x-y,-z
-x,-y,-z
-x+y,-x,-z
y,-x+y,-z
x,y,-z
x-y,x,-z
-y,x-y,-z
-x+y,y,z
x,x-y,z
-y,-x,z
y,x,z
x-y,-y,z
-x,-x+y,z
loop_
_atom_site_type_symbol
_atom_site_label
_atom_site_fract_x
_atom_site_fract_y
_atom_site_fract_z
Si Si1 0.278102 0.343888 0.336663
Si Si2 0.450291 0.667799 0.746399
Si Si3 0.936052 0.468026 0.396191
Si Si4 0.664115 0.525754 0.396757
Si Si5 0.824132 0.295083 0.096172
Si Si6 0.183986 0.251479 0.000000
Si Si7 0.769475 0.113645 0.151190
Si Si8 0.828442 0.062792 0.398775
O O1 0.330333 0.330333 0.350620
O O2 0.297594 0.407293 0.372146
O O3 0.259062 0.333633 0.235880
O O4 0.222406 0.300686 0.393549
O O5 0.432120 0.716060 0.765318
O O6 0.393372 0.606629 0.731889
O O7 0.489516 0.686880 0.658349
O O8 0.486718 0.662506 0.828086
O O9 0.940951 0.470476 0.500000
O O10 0.903434 0.401718 0.364896
O O11 0.000000 0.500000 0.353275
O O12 0.668909 0.516076 0.500000
O O13 0.763505 0.236496 0.100574
O O14 0.874839 0.279455 0.109110
O O15 0.832631 0.324642 0.000000
O O16 0.213154 0.291258 0.915018
O O17 0.198556 0.198556 0.000000
O O18 0.113945 0.227889 0.000000
O O19 0.825866 0.174135 0.178368
O O20 0.841680 0.059597 0.500000
O O21 0.887135 0.112866 0.352081
O O22 0.808049 0.000000 0.353549
#
# Coordination Sequence:
#
# PCOD8328554 Si02
#       8
#    24  24  12  24  24  12  24  24
#     4  11  21  32  50  79 111 140 176 222 270 325
#     4  11  23  39  58  80 107 140 182 231 280 332
#     4   9  18  34  54  72  95 133 181 231 276 320
#     4  11  22  36  54  76 105 142 185 227 274 334
#     4   9  17  33  57  81 104 134 170 215 272 328
#     4  10  20  34  54  81 115 151 189 233 279 331
#     4  10  18  31  52  78 109 143 180 220 268 328
#     4   9  18  32  49  70 100 137 173 211 259 312
#
# _framework density 18.043626
#
# number of rings (size 3 to 8) (size 9 to 14) (size 15 to 20)
#    0.000    1.929    2.857    1.857    0.000    2.571 
#    0.000    0.000    0.000    1.929    0.000    1.000 
#    0.000    2.286    0.000    4.571    0.000    3.143 
#
# Total GULP energy -2082670.481333 kJ/mol
# GULP energy per Si atom -12396.848103 kJ/mol
# Density = 1.800256 g / cm^3
# Si number density = 18.043626 Si / 1000 Ang^3
#
#
#
# Elastic Constant Matrix: (Units=GPa)
#
#
# Indices 1 2 3 4 5 6 
#
# 1 97.4654 52.2260 24.5340 0.0000 0.0000 0.0000
# 2 52.2260 97.4654 24.5340 0.0000 0.0000 0.0000
# 3 24.5340 24.5340 90.1231 0.0000 0.0000 0.0000
# 4 0.0000 0.0000 0.0000 20.7491 0.0000 0.0000
# 5 0.0000 0.0000 0.0000 0.0000 20.7491 0.0000
# 6 0.0000 0.0000 0.0000 0.0000 0.0000 22.6197
#
#
#
# Elastic Compliance Matrix: (Units=1/GPa)
#
#
# Indices 1 2 3 4 5 6 
#
# 1 0.014720 -0.007385 -0.001997 0.000000 0.000000 0.000000
# 2 -0.007385 0.014720 -0.001997 0.000000 0.000000 0.000000
# 3 -0.001997 -0.001997 0.012183 0.000000 0.000000 0.000000
# 4 0.000000 0.000000 0.000000 0.048195 0.000000 0.000000
# 5 0.000000 0.000000 0.000000 0.000000 0.048195 0.000000
# 6 0.000000 0.000000 0.000000 0.000000 0.000000 0.044209
#
#
# Mechanical properties :
#
#
# Convention : Reuss Voigt Hill
#
# Bulk Modulus (GPa) = 53.00576 54.18244 53.59410
# Shear Modulus (GPa) = 23.66675 25.07425 24.37050
#
# Velocity S-wave (km/s) = 3.62559 3.73184 3.67910
# Velocity P-wave (km/s) = 6.85323 6.97586 6.91481
#
# Compressibility (1/GPa) = 0.01886587
#
# Stress axis : x y z
#
# Youngs Moduli (GPa) = 67.93581 67.93581 82.08100
#
# Poissons Ratio (x) = 0.50169 0.16390
# Poissons Ratio (y) = 0.50169 0.16390
# Poissons Ratio (z) = 0.13565 0.13565
#
# Static dielectric constant tensor:
#      x y z
#    x 3.371380 0.000000 0.000000 
#    y 0.000000 3.371380 0.000000 
#    z 0.000000 0.000000 3.370880 
# 
# 
# High freq. dielectric constant tensor:
#      x y z
#    x 1.687630 0.000000 0.000000 
#    y 0.000000 1.687630 0.000000 
#    z 0.000000 0.000000 1.695930 
# 
# From -- ./inp_files/5328.got.cif
#   From: 2010.03.12/outbox.cif.g09.slc.cpg/sg191_3_cif.got.tgz:5328.got - 2010.04.01 12:09:02.
