data_PCOD8328612
_publ_section_title
;
Structure prediction by ZEFSAII (Michael W. Deem and Ramdas Pophale) SiO2 
 PCOD8328612
Probable space group: P 6/M M M
;
_chemical_formula_sum "Si O2"
_cell_formula_units_Z 132
_cell_length_a 18.100874
_cell_length_b 18.100874
_cell_length_c 27.999815
_cell_angle_alpha 90.000000
_cell_angle_beta 90.000000
_cell_angle_gamma 120.000000
_cell_volume 7944.835037
_symmetry_space_group_name_H-M "P 6/M M M"
_symmetry_group_IT_number 191
_symmetry_cell_setting 'hexagonal'
loop_
_space_group_symop_operation_xyz
x,y,z
x-y,x,z
-y,x-y,z
-x,-y,z
-x+y,-x,z
y,-x+y,z
x-y,-y,-z
-x,-x+y,-z
y,x,-z
-y,-x,-z
-x+y,y,-z
x,x-y,-z
-x,-y,-z
-x+y,-x,-z
y,-x+y,-z
x,y,-z
x-y,x,-z
-y,x-y,-z
-x+y,y,z
x,x-y,z
-y,-x,z
y,x,z
x-y,-y,z
-x,-x+y,z
loop_
_atom_site_type_symbol
_atom_site_label
_atom_site_fract_x
_atom_site_fract_y
_atom_site_fract_z
Si Si1 0.903973 0.266335 0.730751
Si Si2 0.669474 0.502534 0.650596
Si Si3 0.466137 0.367738 0.087929
Si Si4 0.833400 0.331590 0.190032
Si Si5 0.361784 0.263036 0.000000
Si Si6 0.095515 0.460186 0.448274
O O1 0.835065 0.164936 0.729753
O O2 0.893521 0.314092 0.685144
O O3 0.893833 0.310408 0.778173
O O4 0.000000 0.281181 0.730248
O O5 0.734359 0.468718 0.663317
O O6 0.573156 0.426845 0.657782
O O7 0.689996 0.538034 0.596305
O O8 0.560249 0.439752 0.070608
O O9 0.411126 0.411126 0.102035
O O10 0.471785 0.320164 0.134684
O O11 0.421761 0.300280 0.045961
O O12 0.853498 0.426749 0.201713
O O13 0.734893 0.265108 0.202256
O O14 0.286492 0.286492 0.000000
O O15 0.320661 0.160331 0.000000
O O16 0.132306 0.451288 0.500000
O O17 0.093012 0.546506 0.448300
O O18 0.000000 0.381266 0.441714
#
# Coordination Sequence:
#
# PCOD8328612 Si02
#       6
#    24  24  24  24  12  24
#     4  10  21  35  51  70  90 114 145 183 226 270
#     4  10  19  29  42  62  90 123 157 190 222 257
#     4   9  17  29  46  67  90 118 152 189 227 267
#     4  10  19  30  45  67  97 130 161 189 216 248
#     4  10  19  31  47  66  89 117 152 192 233 277
#     4   8  14  25  40  56  75 105 149 197 237 268
#
# _framework density 16.614567999999998
#
# number of rings (size 3 to 8) (size 9 to 14) (size 15 to 20)
#    0.000    2.545    0.000    3.364    0.000    4.364 
#    0.000    1.818    0.000    3.909    0.000    0.000 
#    0.000    0.000    0.000    5.818    0.000    0.000 
#
# Total GULP energy -1636131.504471 kJ/mol
# GULP energy per Si atom -12394.935640 kJ/mol
# Density = 1.657675 g / cm^3
# Si number density = 16.614568 Si / 1000 Ang^3
#
#
#
# Elastic Constant Matrix: (Units=GPa)
#
#
# Indices 1 2 3 4 5 6 
#
# 1 79.9782 46.1832 34.3550 0.0000 0.0000 0.0000
# 2 46.1832 79.9782 34.3550 0.0000 0.0000 0.0000
# 3 34.3550 34.3550 87.4907 0.0000 0.0000 0.0000
# 4 0.0000 0.0000 0.0000 19.6064 0.0000 0.0000
# 5 0.0000 0.0000 0.0000 0.0000 19.6064 0.0000
# 6 0.0000 0.0000 0.0000 0.0000 0.0000 16.8975
#
#
#
# Elastic Compliance Matrix: (Units=1/GPa)
#
#
# Indices 1 2 3 4 5 6 
#
# 1 0.019836 -0.009754 -0.003959 0.000000 0.000000 0.000000
# 2 -0.009754 0.019836 -0.003959 0.000000 0.000000 0.000000
# 3 -0.003959 -0.003959 0.014539 0.000000 0.000000 0.000000
# 4 0.000000 0.000000 0.000000 0.051004 0.000000 0.000000
# 5 0.000000 0.000000 0.000000 0.000000 0.051004 0.000000
# 6 0.000000 0.000000 0.000000 0.000000 0.000000 0.059180
#
#
# Mechanical properties :
#
#
# Convention : Reuss Voigt Hill
#
# Bulk Modulus (GPa) = 53.00068 53.02596 53.01332
# Shear Modulus (GPa) = 19.45274 20.05898 19.75586
#
# Velocity S-wave (km/s) = 3.42544 3.47841 3.45203
# Velocity P-wave (km/s) = 6.90031 6.93665 6.91850
#
# Compressibility (1/GPa) = 0.01886768
#
# Stress axis : x y z
#
# Youngs Moduli (GPa) = 50.41246 50.41246 68.78033
#
# Poissons Ratio (x) = 0.49171 0.27231
# Poissons Ratio (y) = 0.49171 0.27231
# Poissons Ratio (z) = 0.19959 0.19959
#
# Static dielectric constant tensor:
#      x y z
#    x 2.889510 0.000000 0.000000 
#    y 0.000000 2.889510 0.000000 
#    z 0.000000 0.000000 3.485040 
# 
# 
# High freq. dielectric constant tensor:
#      x y z
#    x 1.610620 0.000000 0.000000 
#    y 0.000000 1.610620 0.000000 
#    z 0.000000 0.000000 1.662310 
# 
# From -- ./inp_files/9769.got.cif
#   From: 2010.03.12/outbox.cif.g09.slc.cpg/sg191_5_cif.got.tgz:9769.got - 2010.04.01 12:09:02.
