data_PCOD8328447
_publ_section_title
;
Structure prediction by ZEFSAII (Michael W. Deem and Ramdas Pophale) SiO2 
 PCOD8328447
Probable space group: P 6/M M M
;
_chemical_formula_sum "Si O2"
_cell_formula_units_Z 192
_cell_length_a 31.626339
_cell_length_b 31.626339
_cell_length_c 13.769997
_cell_angle_alpha 90.000000
_cell_angle_beta 90.000000
_cell_angle_gamma 120.000000
_cell_volume 11927.854173
_symmetry_space_group_name_H-M "P 6/M M M"
_symmetry_group_IT_number 191
_symmetry_cell_setting 'hexagonal'
loop_
_space_group_symop_operation_xyz
x,y,z
x-y,x,z
-y,x-y,z
-x,-y,z
-x+y,-x,z
y,-x+y,z
x-y,-y,-z
-x,-x+y,-z
y,x,-z
-y,-x,-z
-x+y,y,-z
x,x-y,-z
-x,-y,-z
-x+y,-x,-z
y,-x+y,-z
x,y,-z
x-y,x,-z
-y,x-y,-z
-x+y,y,z
x,x-y,z
-y,-x,z
y,x,z
x-y,-y,z
-x,-x+y,z
loop_
_atom_site_type_symbol
_atom_site_label
_atom_site_fract_x
_atom_site_fract_y
_atom_site_fract_z
Si Si1 0.422893 0.479160 0.244873
Si Si2 0.946003 0.798383 0.609901
Si Si3 0.295667 0.098441 0.732658
Si Si4 0.142474 0.384133 0.393197
Si Si5 0.380036 0.521788 0.389002
Si Si6 0.444564 0.332028 0.886353
Si Si7 0.479263 0.289499 0.729818
Si Si8 0.724694 0.055372 0.111917
O O1 0.469753 0.530248 0.215243
O O2 0.438885 0.438885 0.267605
O O3 0.396665 0.485788 0.339877
O O4 0.385965 0.462450 0.154479
O O5 0.939125 0.777700 0.500000
O O6 0.909325 0.818649 0.630311
O O7 0.936507 0.755913 0.683894
O O8 0.000000 0.843397 0.626829
O O9 0.303801 0.151901 0.755138
O O10 0.336601 0.100497 0.660082
O O11 0.299015 0.074599 0.832446
O O12 0.124049 0.389065 0.500000
O O13 0.188942 0.377883 0.405088
O O14 0.154921 0.430761 0.329693
O O15 0.365175 0.504735 0.500000
O O16 0.422733 0.577268 0.384083
O O17 0.335066 0.521046 0.330516
O O18 0.472965 0.306796 0.836549
O O19 0.387489 0.298574 0.864479
O O20 0.456508 0.336492 0.000000
O O21 0.491207 0.245604 0.738052
O O22 0.686151 0.000000 0.142615
O O23 0.738586 0.058483 0.000000
#
# Coordination Sequence:
#
# PCOD8328447 Si02
#       8
#    24  24  24  24  24  24  24  24
#     4   9  18  32  50  72  96 123 158 197 235 278
#     4   9  17  29  46  67  90 117 149 186 229 277
#     4  10  18  29  44  64  88 116 151 190 231 272
#     4   9  16  26  42  65  90 114 143 181 225 272
#     4   9  18  32  50  73 100 128 158 192 231 279
#     4  10  20  33  48  67  93 123 156 197 240 280
#     4  10  19  32  50  72  95 123 156 193 238 283
#     4  10  20  32  45  61  85 121 160 194 232 278
#
# _framework density 16.096775999999998
#
# number of rings (size 3 to 8) (size 9 to 14) (size 15 to 20)
#    0.000    2.500    1.250    1.500    0.000    4.000 
#    0.000    3.125    0.000    0.375    0.000    0.875 
#    0.000    0.000    0.000    0.375    0.000    0.500 
#
# Total GULP energy -2380394.782424 kJ/mol
# GULP energy per Si atom -12397.889492 kJ/mol
# Density = 1.606014 g / cm^3
# Si number density = 16.096776 Si / 1000 Ang^3
#
#
#
# Elastic Constant Matrix: (Units=GPa)
#
#
# Indices 1 2 3 4 5 6 
#
# 1 81.8139 40.8669 47.0170 0.0000 0.0000 0.0000
# 2 40.8669 81.8139 47.0170 0.0000 0.0000 0.0000
# 3 47.0170 47.0170 106.2828 0.0000 0.0000 0.0000
# 4 0.0000 0.0000 0.0000 19.6477 0.0000 0.0000
# 5 0.0000 0.0000 0.0000 0.0000 19.6477 0.0000
# 6 0.0000 0.0000 0.0000 0.0000 0.0000 20.4735
#
#
#
# Elastic Compliance Matrix: (Units=1/GPa)
#
#
# Indices 1 2 3 4 5 6 
#
# 1 0.018377 -0.006044 -0.005456 0.000000 0.000000 0.000000
# 2 -0.006044 0.018377 -0.005456 0.000000 0.000000 0.000000
# 3 -0.005456 -0.005456 0.014236 0.000000 0.000000 0.000000
# 4 0.000000 0.000000 0.000000 0.050897 0.000000 0.000000
# 5 0.000000 0.000000 0.000000 0.000000 0.050897 0.000000
# 6 0.000000 0.000000 0.000000 0.000000 0.000000 0.048844
#
#
# Mechanical properties :
#
#
# Convention : Reuss Voigt Hill
#
# Bulk Modulus (GPa) = 58.55250 59.96805 59.26027
# Shear Modulus (GPa) = 20.72687 20.95443 20.84065
#
# Velocity S-wave (km/s) = 3.59226 3.61193 3.60211
# Velocity P-wave (km/s) = 7.32530 7.39799 7.36174
#
# Compressibility (1/GPa) = 0.01707869
#
# Stress axis : x y z
#
# Youngs Moduli (GPa) = 54.41445 54.41445 70.24456
#
# Poissons Ratio (x) = 0.32890 0.38325
# Poissons Ratio (y) = 0.32890 0.38325
# Poissons Ratio (z) = 0.29688 0.29688
#
# Static dielectric constant tensor:
#      x y z
#    x 2.991700 0.000000 0.000000 
#    y 0.000000 2.991700 0.000000 
#    z 0.000000 0.000000 3.121630 
# 
# 
# High freq. dielectric constant tensor:
#      x y z
#    x 1.606730 0.000000 0.000000 
#    y 0.000000 1.606730 0.000000 
#    z 0.000000 0.000000 1.621650 
# 
# From -- ./inp_files/5493.got.cif
#   From: 2010.03.12/outbox.cif.g09.slc.cpg/sg191_3_cif.got.tgz:5493.got - 2010.04.01 12:09:02.
