data_PCOD8328685
_publ_section_title
;
Structure prediction by ZEFSAII (Michael W. Deem and Ramdas Pophale) SiO2 
 PCOD8328685
Probable space group: P 6/M M M
;
_chemical_formula_sum "Si O2"
_cell_formula_units_Z 132
_cell_length_a 27.507820
_cell_length_b 27.507820
_cell_length_c 12.353992
_cell_angle_alpha 90.000000
_cell_angle_beta 90.000000
_cell_angle_gamma 120.000000
_cell_volume 8095.623364
_symmetry_space_group_name_H-M "P 6/M M M"
_symmetry_group_IT_number 191
_symmetry_cell_setting 'hexagonal'
loop_
_space_group_symop_operation_xyz
x,y,z
x-y,x,z
-y,x-y,z
-x,-y,z
-x+y,-x,z
y,-x+y,z
x-y,-y,-z
-x,-x+y,-z
y,x,-z
-y,-x,-z
-x+y,y,-z
x,x-y,-z
-x,-y,-z
-x+y,-x,-z
y,-x+y,-z
x,y,-z
x-y,x,-z
-y,x-y,-z
-x+y,y,z
x,x-y,z
-y,-x,z
y,x,z
x-y,-y,z
-x,-x+y,z
loop_
_atom_site_type_symbol
_atom_site_label
_atom_site_fract_x
_atom_site_fract_y
_atom_site_fract_z
Si Si1 0.172570 0.236154 0.874522
Si Si2 0.834291 0.278308 0.380239
Si Si3 0.357878 0.123620 0.799729
Si Si4 0.519464 0.368374 0.782928
Si Si5 0.354144 0.938063 0.879034
Si Si6 0.553881 0.219813 0.000000
O O1 0.106058 0.212116 0.853161
O O2 0.188402 0.188402 0.844575
O O3 0.209146 0.290822 0.799991
O O4 0.186961 0.254304 0.000000
O O5 0.860234 0.299898 0.500000
O O6 0.772065 0.227936 0.391612
O O7 0.873206 0.257928 0.318719
O O8 0.827494 0.325804 0.317231
O O9 0.371192 0.185596 0.837563
O O10 0.387297 0.100649 0.880414
O O11 0.577536 0.422465 0.749950
O O12 0.471656 0.384778 0.805303
O O13 0.524097 0.339134 0.892325
O O14 0.372118 0.000000 0.834447
O O15 0.376036 0.941621 0.000000
O O16 0.618974 0.237948 0.000000
O O17 0.548286 0.274143 0.000000
#
# Coordination Sequence:
#
# PCOD8328685 Si02
#       6
#    24  24  24  24  24  12
#     4   9  16  26  42  66  97 130 162 197 237 281
#     4   9  18  33  51  70  92 119 152 191 237 287
#     4   9  17  28  44  68  92 117 150 191 237 284
#     4  10  20  33  48  69  93 120 156 195 231 277
#     4  10  19  30  44  65  93 124 153 185 228 275
#     4  10  19  32  49  71  97 121 146 183 238 296
#
# _framework density 16.305105999999999
#
# number of rings (size 3 to 8) (size 9 to 14) (size 15 to 20)
#    0.000    2.545    0.909    1.727    0.000    4.000 
#    0.000    0.909    0.000   14.182    0.000    6.364 
#    0.000    0.000    0.000    0.000    0.000    0.000 
#
# Total GULP energy -1635942.498450 kJ/mol
# GULP energy per Si atom -12393.503776 kJ/mol
# Density = 1.626799 g / cm^3
# Si number density = 16.305106 Si / 1000 Ang^3
#
#
#
# Elastic Constant Matrix: (Units=GPa)
#
#
# Indices 1 2 3 4 5 6 
#
# 1 94.4348 50.9286 39.7834 0.0000 0.0000 0.0000
# 2 50.9286 94.4348 39.7834 0.0000 0.0000 0.0000
# 3 39.7834 39.7834 89.5659 0.0000 0.0000 0.0000
# 4 0.0000 0.0000 0.0000 14.6346 0.0000 0.0000
# 5 0.0000 0.0000 0.0000 0.0000 14.6346 0.0000
# 6 0.0000 0.0000 0.0000 0.0000 0.0000 21.7531
#
#
#
# Elastic Compliance Matrix: (Units=1/GPa)
#
#
# Indices 1 2 3 4 5 6 
#
# 1 0.016037 -0.006948 -0.004037 0.000000 0.000000 0.000000
# 2 -0.006948 0.016037 -0.004037 0.000000 0.000000 0.000000
# 3 -0.004037 -0.004037 0.014751 0.000000 0.000000 0.000000
# 4 0.000000 0.000000 0.000000 0.068331 0.000000 0.000000
# 5 0.000000 0.000000 0.000000 0.000000 0.068331 0.000000
# 6 0.000000 0.000000 0.000000 0.000000 0.000000 0.045970
#
#
# Mechanical properties :
#
#
# Convention : Reuss Voigt Hill
#
# Bulk Modulus (GPa) = 59.59163 59.93626 59.76395
# Shear Modulus (GPa) = 18.86101 20.06715 19.46408
#
# Velocity S-wave (km/s) = 3.40480 3.51198 3.45880
# Velocity P-wave (km/s) = 7.21693 7.29961 7.25839
#
# Compressibility (1/GPa) = 0.01678088
#
# Stress axis : x y z
#
# Youngs Moduli (GPa) = 62.35510 62.35510 67.78991
#
# Poissons Ratio (x) = 0.43325 0.27368
# Poissons Ratio (y) = 0.43325 0.27368
# Poissons Ratio (z) = 0.25174 0.25174
#
# Static dielectric constant tensor:
#      x y z
#    x 3.115930 0.000000 0.000000 
#    y 0.000000 3.115930 0.000000 
#    z 0.000000 0.000000 3.022580 
# 
# 
# High freq. dielectric constant tensor:
#      x y z
#    x 1.622920 0.000000 0.000000 
#    y 0.000000 1.622920 0.000000 
#    z 0.000000 0.000000 1.600330 
# 
# From -- ./inp_files/3356.got.cif
#   From: 2010.03.12/outbox.cif.g09.slc.cpg/sg191_2_cif.got.tgz:3356.got - 2010.04.01 12:09:02.
