data_PCOD8328615
_publ_section_title
;
Structure prediction by ZEFSAII (Michael W. Deem and Ramdas Pophale) SiO2 
 PCOD8328615
Probable space group: P 6/M M M
;
_chemical_formula_sum "Si O2"
_cell_formula_units_Z 132
_cell_length_a 17.629324
_cell_length_b 17.629324
_cell_length_c 28.341017
_cell_angle_alpha 90.000000
_cell_angle_beta 90.000000
_cell_angle_gamma 120.000000
_cell_volume 7628.117626
_symmetry_space_group_name_H-M "P 6/M M M"
_symmetry_group_IT_number 191
_symmetry_cell_setting 'hexagonal'
loop_
_space_group_symop_operation_xyz
x,y,z
x-y,x,z
-y,x-y,z
-x,-y,z
-x+y,-x,z
y,-x+y,z
x-y,-y,-z
-x,-x+y,-z
y,x,-z
-y,-x,-z
-x+y,y,-z
x,x-y,-z
-x,-y,-z
-x+y,-x,-z
y,-x+y,-z
x,y,-z
x-y,x,-z
-y,x-y,-z
-x+y,y,z
x,x-y,z
-y,-x,z
y,x,z
x-y,-y,z
-x,-x+y,z
loop_
_atom_site_type_symbol
_atom_site_label
_atom_site_fract_x
_atom_site_fract_y
_atom_site_fract_z
Si Si1 0.369539 0.098275 0.089205
Si Si2 0.158490 0.668427 0.000000
Si Si3 0.361006 0.901866 0.449149
Si Si4 0.494417 0.164184 0.649778
Si Si5 0.490520 0.158914 0.821999
Si Si6 0.369726 0.098290 0.266346
O O1 0.334070 0.167035 0.087589
O O2 0.433003 0.112758 0.045820
O O3 0.422364 0.108145 0.136663
O O4 0.286464 0.000000 0.087057
O O5 0.261760 0.738241 0.000000
O O6 0.144419 0.572210 0.000000
O O7 0.313461 0.862227 0.500000
O O8 0.451784 0.903568 0.448984
O O9 0.306253 0.847273 0.403956
O O10 0.378184 0.000000 0.444142
O O11 0.569765 0.139529 0.656133
O O12 0.531371 0.265686 0.663584
O O13 0.413743 0.102820 0.683312
O O14 0.571828 0.143656 0.827252
O O15 0.524590 0.262295 0.824781
O O16 0.443201 0.119300 0.772727
O O17 0.334413 0.167207 0.262858
O O18 0.288079 0.000000 0.259731
#
# Coordination Sequence:
#
# PCOD8328615 Si02
#       6
#    24  12  24  24  24  24
#     4  10  21  35  51  72  97 127 162 202 247 289
#     4  10  20  33  50  73 102 134 165 196 232 277
#     4   8  14  25  40  56  75 105 149 197 237 269
#     4  10  19  29  42  62  90 123 157 191 226 265
#     4  10  20  33  50  73 102 134 165 195 227 265
#     4  10  21  35  51  71  93 119 151 189 233 277
#
# _framework density 17.304400000000001
#
# number of rings (size 3 to 8) (size 9 to 14) (size 15 to 20)
#    0.000    2.364    0.000    3.455    0.000    5.091 
#    0.000    3.636    0.000    1.455    0.000    0.000 
#    0.000    6.545    0.000    0.000    0.000    0.727 
#
# Total GULP energy -1636208.391439 kJ/mol
# GULP energy per Si atom -12395.518117 kJ/mol
# Density = 1.726501 g / cm^3
# Si number density = 17.304400 Si / 1000 Ang^3
#
#
#
# Elastic Constant Matrix: (Units=GPa)
#
#
# Indices 1 2 3 4 5 6 
#
# 1 89.2237 62.2455 25.9151 0.0000 0.0000 0.0000
# 2 62.2455 89.2237 25.9151 0.0000 0.0000 0.0000
# 3 25.9151 25.9151 102.9797 0.0000 0.0000 0.0000
# 4 0.0000 0.0000 0.0000 23.0481 0.0000 0.0000
# 5 0.0000 0.0000 0.0000 0.0000 23.0481 0.0000
# 6 0.0000 0.0000 0.0000 0.0000 0.0000 13.4891
#
#
#
# Elastic Compliance Matrix: (Units=1/GPa)
#
#
# Indices 1 2 3 4 5 6 
#
# 1 0.022146 -0.014921 -0.001818 0.000000 0.000000 0.000000
# 2 -0.014921 0.022146 -0.001818 0.000000 0.000000 0.000000
# 3 -0.001818 -0.001818 0.010626 0.000000 0.000000 0.000000
# 4 0.000000 0.000000 0.000000 0.043387 0.000000 0.000000
# 5 0.000000 0.000000 0.000000 0.000000 0.043387 0.000000
# 6 0.000000 0.000000 0.000000 0.000000 0.000000 0.074134
#
#
# Mechanical properties :
#
#
# Convention : Reuss Voigt Hill
#
# Bulk Modulus (GPa) = 56.17358 56.61983 56.39671
# Shear Modulus (GPa) = 19.31440 23.07382 21.19411
#
# Velocity S-wave (km/s) = 3.34452 3.65555 3.50348
# Velocity P-wave (km/s) = 6.88817 7.11395 7.00197
#
# Compressibility (1/GPa) = 0.01780196
#
# Stress axis : x y z
#
# Youngs Moduli (GPa) = 45.15588 45.15588 94.11192
#
# Poissons Ratio (x) = 0.67379 0.17109
# Poissons Ratio (y) = 0.67379 0.17109
# Poissons Ratio (z) = 0.08209 0.08209
#
# Static dielectric constant tensor:
#      x y z
#    x 3.031280 0.000000 0.000000 
#    y 0.000000 3.031280 0.000000 
#    z 0.000000 0.000000 3.797360 
# 
# 
# High freq. dielectric constant tensor:
#      x y z
#    x 1.640710 0.000000 0.000000 
#    y 0.000000 1.640710 0.000000 
#    z 0.000000 0.000000 1.697260 
# 
# From -- ./inp_files/9702.got.cif
#   From: 2010.03.12/outbox.cif.g09.slc.cpg/sg191_5_cif.got.tgz:9702.got - 2010.04.01 12:09:02.
