data_PCOD8328939
_publ_section_title
;
Structure prediction by ZEFSAII (Michael W. Deem and Ramdas Pophale) SiO2 
 PCOD8328939
Probable space group: P 6/M M M
;
_chemical_formula_sum "Si O2"
_cell_formula_units_Z 96
_cell_length_a 28.454406
_cell_length_b 28.454406
_cell_length_c 9.128658
_cell_angle_alpha 90.000000
_cell_angle_beta 90.000000
_cell_angle_gamma 120.000000
_cell_volume 6400.834767
_symmetry_space_group_name_H-M "P 6/M M M"
_symmetry_group_IT_number 191
_symmetry_cell_setting 'hexagonal'
loop_
_space_group_symop_operation_xyz
x,y,z
x-y,x,z
-y,x-y,z
-x,-y,z
-x+y,-x,z
y,-x+y,z
x-y,-y,-z
-x,-x+y,-z
y,x,-z
-y,-x,-z
-x+y,y,-z
x,x-y,-z
-x,-y,-z
-x+y,-x,-z
y,-x+y,-z
x,y,-z
x-y,x,-z
-y,x-y,-z
-x+y,y,z
x,x-y,z
-y,-x,z
y,x,z
x-y,-y,z
-x,-x+y,z
loop_
_atom_site_type_symbol
_atom_site_label
_atom_site_fract_x
_atom_site_fract_y
_atom_site_fract_z
Si Si1 0.703310 0.000000 0.173722
Si Si2 0.780600 0.664264 0.173514
Si Si3 0.403644 0.000000 0.173950
Si Si4 0.447036 0.171601 0.667588
Si Si5 0.101746 0.497690 0.668938
O O1 0.757999 0.054284 0.228491
O O2 0.649920 0.000000 0.233456
O O3 0.701332 0.000000 0.000000
O O4 0.842704 0.685407 0.227491
O O5 0.740252 0.604629 0.232243
O O6 0.777787 0.660044 0.000000
O O7 0.404154 0.947439 0.231031
O O8 0.405392 0.000000 0.000000
O O9 0.427274 0.158651 0.500000
O O10 0.471367 0.235684 0.701319
O O11 0.492349 0.154903 0.700857
O O12 0.083549 0.484351 0.500000
O O13 0.117899 0.558950 0.709131
#
# Coordination Sequence:
#
# PCOD8328939 Si02
#       5
#    12  24  12  24  24
#     4   9  16  26  40  61  86 106 131 166 197 229
#     4   9  16  27  43  60  80 107 134 161 196 234
#     4  11  20  30  43  62  86 110 136 169 202 237
#     4   9  17  29  44  60  77  98 129 167 200 236
#     4  10  20  32  44  59  82 110 136 164 205 254
#
# _framework density 14.998044
#
# number of rings (size 3 to 8) (size 9 to 14) (size 15 to 20)
#    0.000    2.500    2.500    0.750    0.000    2.000 
#    0.000    0.625    0.000    0.500    0.000    3.500 
#    0.000    0.000    0.000    6.125    0.000   19.000 
#
# Total GULP energy -1189637.051699 kJ/mol
# GULP energy per Si atom -12392.052622 kJ/mol
# Density = 1.496391 g / cm^3
# Si number density = 14.998044 Si / 1000 Ang^3
#
#
#
# Elastic Constant Matrix: (Units=GPa)
#
#
# Indices 1 2 3 4 5 6 
#
# 1 121.6078 73.9293 21.3928 0.0000 0.0000 0.0000
# 2 73.9293 121.6078 21.3928 0.0000 0.0000 0.0000
# 3 21.3928 21.3928 22.7989 0.0000 0.0000 0.0000
# 4 0.0000 0.0000 0.0000 13.9193 0.0000 0.0000
# 5 0.0000 0.0000 0.0000 0.0000 13.9193 0.0000
# 6 0.0000 0.0000 0.0000 0.0000 0.0000 23.8392
#
#
#
# Elastic Compliance Matrix: (Units=1/GPa)
#
#
# Indices 1 2 3 4 5 6 
#
# 1 0.013705 -0.007269 -0.006038 0.000000 0.000000 0.000000
# 2 -0.007269 0.013705 -0.006038 0.000000 0.000000 0.000000
# 3 -0.006038 -0.006038 0.055194 0.000000 0.000000 0.000000
# 4 0.000000 0.000000 0.000000 0.071842 0.000000 0.000000
# 5 0.000000 0.000000 0.000000 0.000000 0.071842 0.000000
# 6 0.000000 0.000000 0.000000 0.000000 0.000000 0.041948
#
#
# Mechanical properties :
#
#
# Convention : Reuss Voigt Hill
#
# Bulk Modulus (GPa) = 22.77351 55.49382 39.13367
# Shear Modulus (GPa) = 15.54896 20.28889 17.91892
#
# Velocity S-wave (km/s) = 3.22333 3.68199 3.46027
# Velocity P-wave (km/s) = 5.39170 7.42678 6.48951
#
# Compressibility (1/GPa) = 0.04391066
#
# Stress axis : x y z
#
# Youngs Moduli (GPa) = 72.96812 72.96812 18.11797
#
# Poissons Ratio (x) = 0.53042 0.10941
# Poissons Ratio (y) = 0.53042 0.10941
# Poissons Ratio (z) = 0.44062 0.44062
#
# Static dielectric constant tensor:
#      x y z
#    x 3.142020 0.000000 0.000000 
#    y 0.000000 3.142020 0.000000 
#    z 0.000000 0.000000 2.839440 
# 
# 
# High freq. dielectric constant tensor:
#      x y z
#    x 1.559720 0.000000 0.000000 
#    y 0.000000 1.559720 0.000000 
#    z 0.000000 0.000000 1.567210 
# 
# From -- ./inp_files/1557.got.cif
#   From: 2010.03.12/outbox.cif.g09.slc.cpg/sg191_1_cif.got.tgz:1557.got - 2010.04.01 12:09:02.
