data_PCOD8328716
_publ_section_title
;
Structure prediction by ZEFSAII (Michael W. Deem and Ramdas Pophale) SiO2 
 PCOD8328716
Probable space group: P 6/M M M
;
_chemical_formula_sum "Si O2"
_cell_formula_units_Z 132
_cell_length_a 18.436247
_cell_length_b 18.436247
_cell_length_c 27.530398
_cell_angle_alpha 90.000000
_cell_angle_beta 90.000000
_cell_angle_gamma 120.000000
_cell_volume 8103.789613
_symmetry_space_group_name_H-M "P 6/M M M"
_symmetry_group_IT_number 191
_symmetry_cell_setting 'hexagonal'
loop_
_space_group_symop_operation_xyz
x,y,z
x-y,x,z
-y,x-y,z
-x,-y,z
-x+y,-x,z
y,-x+y,z
x-y,-y,-z
-x,-x+y,-z
y,x,-z
-y,-x,-z
-x+y,y,-z
x,x-y,-z
-x,-y,-z
-x+y,-x,-z
y,-x+y,-z
x,y,-z
x-y,x,-z
-y,x-y,-z
-x+y,y,z
x,x-y,z
-y,-x,z
y,x,z
x-y,-y,z
-x,-x+y,z
loop_
_atom_site_type_symbol
_atom_site_label
_atom_site_fract_x
_atom_site_fract_y
_atom_site_fract_z
Si Si1 0.096794 0.466748 0.817629
Si Si2 0.254671 0.348310 0.260899
Si Si3 0.651927 0.905646 0.371358
Si Si4 0.500120 0.668305 0.920798
Si Si5 0.362555 0.265962 0.000000
Si Si6 0.469390 0.370071 0.553986
O O1 0.116727 0.558364 0.800799
O O2 0.122600 0.428634 0.773081
O O3 0.150064 0.472734 0.864808
O O4 0.000000 0.409251 0.831533
O O5 0.155764 0.311528 0.252825
O O6 0.274552 0.274552 0.247957
O O7 0.281328 0.378869 0.316200
O O8 0.692927 0.846464 0.377237
O O9 0.570424 0.868252 0.405739
O O10 0.721992 0.000000 0.386060
O O11 0.469813 0.734907 0.931900
O O12 0.424644 0.575357 0.933022
O O13 0.580669 0.689465 0.953024
O O14 0.284486 0.284486 0.000000
O O15 0.330495 0.165248 0.000000
O O16 0.459111 0.330870 0.500000
O O17 0.567760 0.432241 0.565322
O O18 0.422877 0.422877 0.556294
#
# Coordination Sequence:
#
# PCOD8328716 Si02
#       6
#    24  24  24  24  12  24
#     4   9  17  28  43  64  88 114 146 184 222 260
#     4   9  17  29  44  62  85 113 146 183 223 265
#     4   9  17  28  43  63  86 113 145 182 221 260
#     4  10  19  30  45  66  94 126 157 185 212 246
#     4  10  21  35  51  70  91 117 148 184 225 267
#     4   8  14  25  41  61  83 105 131 165 205 249
#
# _framework density 16.288675000000001
#
# number of rings (size 3 to 8) (size 9 to 14) (size 15 to 20)
#    0.000    2.909    0.000    2.091    0.000    2.545 
#    0.000    4.545    0.000    1.182    0.000    2.545 
#    0.000    0.000    0.000   10.364    0.000    8.727 
#
# Total GULP energy -1636047.282238 kJ/mol
# GULP energy per Si atom -12394.297593 kJ/mol
# Density = 1.625160 g / cm^3
# Si number density = 16.288675 Si / 1000 Ang^3
#
#
#
# Elastic Constant Matrix: (Units=GPa)
#
#
# Indices 1 2 3 4 5 6 
#
# 1 83.6259 46.3655 44.3045 0.0000 0.0000 0.0000
# 2 46.3655 83.6259 44.3045 0.0000 0.0000 0.0000
# 3 44.3045 44.3045 81.8173 0.0000 0.0000 0.0000
# 4 0.0000 0.0000 0.0000 21.0240 0.0000 0.0000
# 5 0.0000 0.0000 0.0000 0.0000 21.0240 0.0000
# 6 0.0000 0.0000 0.0000 0.0000 0.0000 18.6302
#
#
#
# Elastic Compliance Matrix: (Units=1/GPa)
#
#
# Indices 1 2 3 4 5 6 
#
# 1 0.019516 -0.007322 -0.006603 0.000000 0.000000 0.000000
# 2 -0.007322 0.019516 -0.006603 0.000000 0.000000 0.000000
# 3 -0.006603 -0.006603 0.019373 0.000000 0.000000 0.000000
# 4 0.000000 0.000000 0.000000 0.047565 0.000000 0.000000
# 5 0.000000 0.000000 0.000000 0.000000 0.047565 0.000000
# 6 0.000000 0.000000 0.000000 0.000000 0.000000 0.053676
#
#
# Mechanical properties :
#
#
# Convention : Reuss Voigt Hill
#
# Bulk Modulus (GPa) = 57.64009 57.66867 57.65438
# Shear Modulus (GPa) = 19.68112 19.74193 19.71152
#
# Velocity S-wave (km/s) = 3.47979 3.48516 3.48248
# Velocity P-wave (km/s) = 7.18392 7.18861 7.18626
#
# Compressibility (1/GPa) = 0.01734904
#
# Stress axis : x y z
#
# Youngs Moduli (GPa) = 51.24008 51.24008 51.61699
#
# Poissons Ratio (x) = 0.37519 0.34083
# Poissons Ratio (y) = 0.37519 0.34083
# Poissons Ratio (z) = 0.33834 0.33834
#
# Static dielectric constant tensor:
#      x y z
#    x 3.006120 0.000000 0.000000 
#    y 0.000000 3.006120 0.000000 
#    z 0.000000 0.000000 3.247340 
# 
# 
# High freq. dielectric constant tensor:
#      x y z
#    x 1.606920 0.000000 0.000000 
#    y 0.000000 1.606920 0.000000 
#    z 0.000000 0.000000 1.637260 
# 
# From -- ./inp_files/9738.got.cif
#   From: 2010.03.12/outbox.cif.g09.slc.cpg/sg191_5_cif.got.tgz:9738.got - 2010.04.01 12:09:02.
