data_PCOD8328593
_publ_section_title
;
Structure prediction by ZEFSAII (Michael W. Deem and Ramdas Pophale) SiO2 
 PCOD8328593
Probable space group: P 6/M M M
;
_chemical_formula_sum "Si O2"
_cell_formula_units_Z 132
_cell_length_a 18.589943
_cell_length_b 18.589943
_cell_length_c 27.727958
_cell_angle_alpha 90.000000
_cell_angle_beta 90.000000
_cell_angle_gamma 120.000000
_cell_volume 8298.596252
_symmetry_space_group_name_H-M "P 6/M M M"
_symmetry_group_IT_number 191
_symmetry_cell_setting 'hexagonal'
loop_
_space_group_symop_operation_xyz
x,y,z
x-y,x,z
-y,x-y,z
-x,-y,z
-x+y,-x,z
y,-x+y,z
x-y,-y,-z
-x,-x+y,-z
y,x,-z
-y,-x,-z
-x+y,y,-z
x,x-y,-z
-x,-y,-z
-x+y,-x,-z
y,-x+y,-z
x,y,-z
x-y,x,-z
-y,x-y,-z
-x+y,y,z
x,x-y,z
-y,-x,z
y,x,z
x-y,-y,z
-x,-x+y,z
loop_
_atom_site_type_symbol
_atom_site_label
_atom_site_fract_x
_atom_site_fract_y
_atom_site_fract_z
Si Si1 0.906871 0.651852 0.282920
Si Si2 0.499641 0.335135 0.104622
Si Si3 0.506032 0.334445 0.000000
Si Si4 0.092706 0.745745 0.828557
Si Si5 0.461218 0.368206 0.552498
Si Si6 0.499197 0.668933 0.349276
O O1 0.840531 0.681061 0.297085
O O2 0.897560 0.626470 0.227074
O O3 0.889804 0.570887 0.312617
O O4 0.000000 0.726686 0.294230
O O5 0.517968 0.258984 0.103860
O O6 0.582711 0.417290 0.121991
O O7 0.426712 0.318519 0.141162
O O8 0.472004 0.349599 0.050776
O O9 0.605924 0.394077 0.000000
O O10 0.479745 0.239873 0.000000
O O11 0.158881 0.841120 0.842678
O O12 0.000000 0.728840 0.839333
O O13 0.451183 0.324378 0.500000
O O14 0.545298 0.454703 0.552372
O O15 0.384687 0.384687 0.560606
O O16 0.463991 0.313319 0.596309
O O17 0.468588 0.734294 0.338242
O O18 0.423642 0.576359 0.342172
#
# Coordination Sequence:
#
# PCOD8328593 Si02
#       6
#    24  24  12  24  24  24
#     4   9  18  32  49  67  85 107 136 170 210 256
#     4   9  16  26  41  62  88 118 150 181 211 243
#     4   8  13  22  37  57  82 113 148 182 213 244
#     4   9  18  32  48  65  85 109 137 170 210 255
#     4   8  14  25  40  56  74 100 138 183 226 262
#     4  10  19  29  41  59  85 117 152 186 215 242
#
# _framework density 15.906305
#
# number of rings (size 3 to 8) (size 9 to 14) (size 15 to 20)
#    0.000    3.091    0.000    1.545    0.000    4.000 
#    0.000    2.273    0.000    5.273    0.000    2.545 
#    0.000    0.000    0.000    0.000    0.000   10.727 
#
# Total GULP energy -1635397.763370 kJ/mol
# GULP energy per Si atom -12389.376995 kJ/mol
# Density = 1.587010 g / cm^3
# Si number density = 15.906305 Si / 1000 Ang^3
#
#
#
# Elastic Constant Matrix: (Units=GPa)
#
#
# Indices 1 2 3 4 5 6 
#
# 1 77.0553 49.8513 43.0979 0.0000 0.0000 0.0000
# 2 49.8513 77.0553 43.0979 0.0000 0.0000 0.0000
# 3 43.0979 43.0979 78.0055 0.0000 0.0000 0.0000
# 4 0.0000 0.0000 0.0000 18.4348 0.0000 0.0000
# 5 0.0000 0.0000 0.0000 0.0000 18.4348 0.0000
# 6 0.0000 0.0000 0.0000 0.0000 0.0000 13.6020
#
#
#
# Elastic Compliance Matrix: (Units=1/GPa)
#
#
# Indices 1 2 3 4 5 6 
#
# 1 0.024686 -0.012073 -0.006969 0.000000 0.000000 0.000000
# 2 -0.012073 0.024686 -0.006969 0.000000 0.000000 0.000000
# 3 -0.006969 -0.006969 0.020520 0.000000 0.000000 0.000000
# 4 0.000000 0.000000 0.000000 0.054245 0.000000 0.000000
# 5 0.000000 0.000000 0.000000 0.000000 0.054245 0.000000
# 6 0.000000 0.000000 0.000000 0.000000 0.000000 0.073519
#
#
# Mechanical properties :
#
#
# Convention : Reuss Voigt Hill
#
# Bulk Modulus (GPa) = 55.95565 56.02336 55.98951
# Shear Modulus (GPa) = 16.13531 16.49892 16.31712
#
# Velocity S-wave (km/s) = 3.18842 3.22414 3.20633
# Velocity P-wave (km/s) = 6.98637 7.01124 6.99881
#
# Compressibility (1/GPa) = 0.01787130
#
# Stress axis : x y z
#
# Youngs Moduli (GPa) = 40.50856 40.50856 48.73313
#
# Poissons Ratio (x) = 0.48907 0.33960
# Poissons Ratio (y) = 0.48907 0.33960
# Poissons Ratio (z) = 0.28229 0.28229
#
# Static dielectric constant tensor:
#      x y z
#    x 2.856890 0.000000 0.000000 
#    y 0.000000 2.856890 0.000000 
#    z 0.000000 0.000000 3.413500 
# 
# 
# High freq. dielectric constant tensor:
#      x y z
#    x 1.584380 0.000000 0.000000 
#    y 0.000000 1.584380 0.000000 
#    z 0.000000 0.000000 1.626230 
# 
# From -- ./inp_files/10400.got.cif
#   From: 2010.03.12/outbox.cif.g09.slc.cpg/sg191_6_cif.got.tgz:10400.got - 2010.04.01 12:09:02.
