data_PCOD8328832
_publ_section_title
;
Structure prediction by ZEFSAII (Michael W. Deem and Ramdas Pophale) SiO2 
 PCOD8328832
Probable space group: P 6/M M M
;
_chemical_formula_sum "Si O2"
_cell_formula_units_Z 132
_cell_length_a 17.521969
_cell_length_b 17.521969
_cell_length_c 28.342882
_cell_angle_alpha 90.000000
_cell_angle_beta 90.000000
_cell_angle_gamma 120.000000
_cell_volume 7535.992467
_symmetry_space_group_name_H-M "P 6/M M M"
_symmetry_group_IT_number 191
_symmetry_cell_setting 'hexagonal'
loop_
_space_group_symop_operation_xyz
x,y,z
x-y,x,z
-y,x-y,z
-x,-y,z
-x+y,-x,z
y,-x+y,z
x-y,-y,-z
-x,-x+y,-z
y,x,-z
-y,-x,-z
-x+y,y,-z
x,x-y,-z
-x,-y,-z
-x+y,-x,-z
y,-x+y,-z
x,y,-z
x-y,x,-z
-y,x-y,-z
-x+y,y,z
x,x-y,z
-y,-x,z
y,x,z
x-y,-y,z
-x,-x+y,z
loop_
_atom_site_type_symbol
_atom_site_label
_atom_site_fract_x
_atom_site_fract_y
_atom_site_fract_z
Si Si1 0.731352 0.100289 0.639983
Si Si2 0.896499 0.532687 0.907523
Si Si3 0.270472 0.370838 0.182290
Si Si4 0.270559 0.897361 0.000000
Si Si5 0.487546 0.332236 0.728086
Si Si6 0.636746 0.104279 0.552070
O O1 0.835509 0.164492 0.650592
O O2 0.672466 0.106629 0.681261
O O3 0.710927 0.136198 0.591943
O O4 0.711122 0.000000 0.635684
O O5 0.852511 0.426256 0.907592
O O6 0.864166 0.563756 0.862362
O O7 0.000000 0.574536 0.904528
O O8 0.870910 0.563608 0.954972
O O9 0.165037 0.330073 0.188531
O O10 0.291202 0.291202 0.175342
O O11 0.322542 0.426919 0.227583
O O12 0.163885 0.836116 0.000000
O O13 0.296797 0.000000 0.000000
O O14 0.515074 0.257537 0.728197
O O15 0.573531 0.426470 0.730491
O O16 0.680438 0.134420 0.500000
O O17 0.571929 0.143858 0.561516
O O18 0.579007 0.000000 0.554346
#
# Coordination Sequence:
#
# PCOD8328832 Si02
#       6
#    24  24  24  12  24  24
#     4  10  20  32  47  68  93 122 157 197 238 278
#     4   9  17  30  49  71  93 119 153 192 234 283
#     4  10  20  33  50  72  97 127 163 201 238 276
#     4  10  19  31  49  72  97 127 164 204 243 283
#     4  10  20  33  50  73 100 127 153 184 226 277
#     4   8  14  26  45  68  92 117 146 181 222 271
#
# _framework density 17.515941000000002
#
# number of rings (size 3 to 8) (size 9 to 14) (size 15 to 20)
#    0.000    2.545    0.000    3.182    0.000    4.364 
#    0.000    0.000    0.000    7.000    0.000    0.000 
#    0.000    8.727    0.000    4.545    0.000    1.091 
#
# Total GULP energy -1636242.119140 kJ/mol
# GULP energy per Si atom -12395.773630 kJ/mol
# Density = 1.747607 g / cm^3
# Si number density = 17.515941 Si / 1000 Ang^3
#
#
#
# Elastic Constant Matrix: (Units=GPa)
#
#
# Indices 1 2 3 4 5 6 
#
# 1 86.7890 53.7455 30.8367 0.0000 0.0000 0.0000
# 2 53.7455 86.7890 30.8367 0.0000 0.0000 0.0000
# 3 30.8367 30.8367 129.6848 0.0000 0.0000 0.0000
# 4 0.0000 0.0000 0.0000 47.5250 0.0000 0.0000
# 5 0.0000 0.0000 0.0000 0.0000 47.5250 0.0000
# 6 0.0000 0.0000 0.0000 0.0000 0.0000 16.5218
#
#
#
# Elastic Compliance Matrix: (Units=1/GPa)
#
#
# Indices 1 2 3 4 5 6 
#
# 1 0.019104 -0.011159 -0.001889 0.000000 0.000000 0.000000
# 2 -0.011159 0.019104 -0.001889 0.000000 0.000000 0.000000
# 3 -0.001889 -0.001889 0.008609 0.000000 0.000000 0.000000
# 4 0.000000 0.000000 0.000000 0.021042 0.000000 0.000000
# 5 0.000000 0.000000 0.000000 0.000000 0.021042 0.000000
# 6 0.000000 0.000000 0.000000 0.000000 0.000000 0.060526
#
#
# Mechanical properties :
#
#
# Convention : Reuss Voigt Hill
#
# Bulk Modulus (GPa) = 59.02353 59.34452 59.18402
# Shear Modulus (GPa) = 27.03450 34.83729 30.93590
#
# Velocity S-wave (km/s) = 3.93290 4.46454 4.20713
# Velocity P-wave (km/s) = 7.37522 7.78010 7.58036
#
# Compressibility (1/GPa) = 0.01694240
#
# Stress axis : x y z
#
# Youngs Moduli (GPa) = 52.34528 52.34528 116.15218
#
# Poissons Ratio (x) = 0.58413 0.21942
# Poissons Ratio (y) = 0.58413 0.21942
# Poissons Ratio (z) = 0.09889 0.09889
#
# Static dielectric constant tensor:
#      x y z
#    x 3.056120 0.000000 0.000000 
#    y 0.000000 3.056120 0.000000 
#    z 0.000000 0.000000 3.592390 
# 
# 
# High freq. dielectric constant tensor:
#      x y z
#    x 1.653120 0.000000 0.000000 
#    y 0.000000 1.653120 0.000000 
#    z 0.000000 0.000000 1.701170 
# 
# From -- ./inp_files/9783.got.cif
#   From: 2010.03.12/outbox.cif.g09.slc.cpg/sg191_5_cif.got.tgz:9783.got - 2010.04.01 12:09:02.
