data_PCOD8328277
_publ_section_title
;
Structure prediction by ZEFSAII (Michael W. Deem and Ramdas Pophale) SiO2 
 PCOD8328277
Probable space group: P 6/M M M
;
_chemical_formula_sum "Si O2"
_cell_formula_units_Z 120
_cell_length_a 25.677275
_cell_length_b 25.677275
_cell_length_c 12.937798
_cell_angle_alpha 90.000000
_cell_angle_beta 90.000000
_cell_angle_gamma 120.000000
_cell_volume 7387.353179
_symmetry_space_group_name_H-M "P 6/M M M"
_symmetry_group_IT_number 191
_symmetry_cell_setting 'hexagonal'
loop_
_space_group_symop_operation_xyz
x,y,z
x-y,x,z
-y,x-y,z
-x,-y,z
-x+y,-x,z
y,-x+y,z
x-y,-y,-z
-x,-x+y,-z
y,x,-z
-y,-x,-z
-x+y,y,-z
x,x-y,-z
-x,-y,-z
-x+y,-x,-z
y,-x+y,-z
x,y,-z
x-y,x,-z
-y,x-y,-z
-x+y,y,z
x,x-y,z
-y,-x,z
y,x,z
x-y,-y,z
-x,-x+y,z
loop_
_atom_site_type_symbol
_atom_site_label
_atom_site_fract_x
_atom_site_fract_y
_atom_site_fract_z
Si Si1 0.531241 0.827457 0.114901
Si Si2 0.704983 0.171322 0.500000
Si Si3 0.105388 0.332558 0.500000
Si Si4 0.105929 0.770959 0.113984
Si Si5 0.789812 0.334033 0.306445
Si Si6 0.187874 0.253638 0.303748
O O1 0.533117 0.766559 0.122201
O O2 0.598310 0.882985 0.138154
O O3 0.484566 0.825369 0.199601
O O4 0.510358 0.834509 0.000000
O O5 0.768695 0.231306 0.500000
O O6 0.713957 0.113026 0.500000
O O7 0.668178 0.169421 0.601424
O O8 0.171093 0.342185 0.500000
O O9 0.071063 0.296312 0.601703
O O10 0.169816 0.830185 0.115198
O O11 0.064920 0.777253 0.199989
O O12 0.076121 0.762375 0.000000
O O13 0.781511 0.390756 0.321889
O O14 0.724173 0.275828 0.306691
O O15 0.117725 0.235449 0.305369
O O16 0.193255 0.193255 0.310605
#
# Coordination Sequence:
#
# PCOD8328277 Si02
#       6
#    24  12  12  24  24  24
#     4   8  14  25  40  56  76 106 143 183 227 268
#     4   9  17  28  42  57  75 104 141 181 225 267
#     4   9  17  30  47  65  84 109 141 178 223 265
#     4   8  14  26  44  64  86 113 144 180 224 265
#     4  10  18  26  36  53  81 116 150 181 214 258
#     4  10  19  30  46  69  97 124 146 170 202 243
#
# _framework density 16.243977999999998
#
# number of rings (size 3 to 8) (size 9 to 14) (size 15 to 20)
#    0.000    3.000    0.000    3.200    0.000    5.600 
#    0.000    1.000    0.000    1.400    0.000    0.000 
#    0.000   35.200    0.000   22.600    0.000    1.600 
#
# Total GULP energy -1486991.403637 kJ/mol
# GULP energy per Si atom -12391.595030 kJ/mol
# Density = 1.620701 g / cm^3
# Si number density = 16.243978 Si / 1000 Ang^3
#
#
#
# Elastic Constant Matrix: (Units=GPa)
#
#
# Indices 1 2 3 4 5 6 
#
# 1 68.1646 37.0215 42.7427 0.0000 0.0000 0.0000
# 2 37.0215 68.1646 42.7427 0.0000 0.0000 0.0000
# 3 42.7427 42.7427 130.7293 0.0000 0.0000 0.0000
# 4 0.0000 0.0000 0.0000 -76.6214 0.0000 0.0000
# 5 0.0000 0.0000 0.0000 0.0000 -76.6214 0.0000
# 6 0.0000 0.0000 0.0000 0.0000 0.0000 15.5716
#
#
#
# Elastic Compliance Matrix: (Units=1/GPa)
#
#
# Indices 1 2 3 4 5 6 
#
# 1 0.022529 -0.009581 -0.004233 0.000000 0.000000 0.000000
# 2 -0.009581 0.022529 -0.004233 0.000000 0.000000 0.000000
# 3 -0.004233 -0.004233 0.010418 0.000000 0.000000 0.000000
# 4 0.000000 0.000000 0.000000 -0.013051 0.000000 0.000000
# 5 0.000000 0.000000 0.000000 0.000000 -0.013051 0.000000
# 6 0.000000 0.000000 0.000000 0.000000 0.000000 0.064220
#
#
# Mechanical properties :
#
#
# Convention : Reuss Voigt Hill
#
# Bulk Modulus (GPa) = 51.60131 56.89694 54.24913
# Shear Modulus (GPa) = 36.72502 -17.89749 9.41377
#
# Velocity S-wave (km/s) = 4.75999 -3.32293 2.40994
# Velocity P-wave (km/s) = 7.87689 4.51443 6.41971
#
# Compressibility (1/GPa) = 0.01937935
#
# Stress axis : x y z
#
# Youngs Moduli (GPa) = 44.38811 44.38811 95.99203
#
# Poissons Ratio (x) = 0.42529 0.40635
# Poissons Ratio (y) = 0.42529 0.40635
# Poissons Ratio (z) = 0.18790 0.18790
#
# Static dielectric constant tensor:
#      x y z
#    x 2.798130 0.000000 0.000000 
#    y 0.000000 2.798130 0.000000 
#    z 0.000000 0.000000 3.660630 
# 
# 
# High freq. dielectric constant tensor:
#      x y z
#    x 1.586660 0.000000 0.000000 
#    y 0.000000 1.586660 0.000000 
#    z 0.000000 0.000000 1.649310 
# 
# From -- ./inp_files/3251.got.cif
#   From: 2010.03.12/outbox.cif.g09.slc.cpg/sg191_2_cif.got.tgz:3251.got - 2010.04.01 12:09:02.
