data_PCOD8328642
_publ_section_title
;
Structure prediction by ZEFSAII (Michael W. Deem and Ramdas Pophale) SiO2 
 PCOD8328642
Probable space group: P 6/M M M
;
_chemical_formula_sum "Si O2"
_cell_formula_units_Z 132
_cell_length_a 27.116606
_cell_length_b 27.116606
_cell_length_c 12.872727
_cell_angle_alpha 90.000000
_cell_angle_beta 90.000000
_cell_angle_gamma 120.000000
_cell_volume 8197.319311
_symmetry_space_group_name_H-M "P 6/M M M"
_symmetry_group_IT_number 191
_symmetry_cell_setting 'hexagonal'
loop_
_space_group_symop_operation_xyz
x,y,z
x-y,x,z
-y,x-y,z
-x,-y,z
-x+y,-x,z
y,-x+y,z
x-y,-y,-z
-x,-x+y,-z
y,x,-z
-y,-x,-z
-x+y,y,-z
x,x-y,-z
-x,-y,-z
-x+y,-x,-z
y,-x+y,-z
x,y,-z
x-y,x,-z
-y,x-y,-z
-x+y,y,z
x,x-y,z
-y,-x,z
y,x,z
x-y,-y,z
-x,-x+y,z
loop_
_atom_site_type_symbol
_atom_site_label
_atom_site_fract_x
_atom_site_fract_y
_atom_site_fract_z
Si Si1 0.744000 0.872000 0.123117
Si Si2 0.477410 0.410610 0.382456
Si Si3 0.066561 0.741957 0.876946
Si Si4 0.667790 0.116532 0.192820
Si Si5 0.064189 0.935812 0.876019
Si Si6 0.445138 0.778648 0.879525
Si Si7 0.479324 0.412988 0.000000
O O1 0.713105 0.806854 0.161470
O O2 0.807697 0.903849 0.168786
O O3 0.746458 0.873229 0.000000
O O4 0.476288 0.389653 0.500000
O O5 0.541352 0.458649 0.351626
O O6 0.435864 0.435864 0.371670
O O7 0.455357 0.357197 0.307344
O O8 0.104021 0.719363 0.819173
O O9 0.000000 0.706212 0.844894
O O10 0.073040 0.738164 0.000000
O O11 0.686867 0.182909 0.181684
O O12 0.622432 0.081450 0.104670
O O13 0.000000 0.903898 0.833334
O O14 0.064469 0.935532 0.000000
O O15 0.393959 0.787918 0.838656
O O16 0.425842 0.712921 0.862482
O O17 0.457691 0.796021 0.000000
O O18 0.453023 0.453023 0.000000
O O19 0.548168 0.451833 0.000000
#
# Coordination Sequence:
#
# PCOD8328642 Si02
#       7
#    12  24  24  24  12  24  12
#     4   9  18  29  42  57  87 127 167 193 235 288
#     4   9  18  32  49  69  93 122 155 190 232 285
#     4  10  19  30  43  63  93 125 156 191 231 281
#     4  12  20  30  48  68  97 118 155 192 237 282
#     4   9  15  24  39  60  84 117 165 219 260 285
#     4  10  20  33  48  67  93 125 159 196 239 291
#     4  11  20  28  41  66  98 124 144 177 234 287
#
# _framework density 16.102824999999999
#
# number of rings (size 3 to 8) (size 9 to 14) (size 15 to 20)
#    0.000    1.909    1.818    4.636    1.273    4.727 
#    0.000    0.000    0.000    0.545    0.000    0.000 
#    0.000    1.455    0.000    0.000    0.000    0.182 
#
# Total GULP energy -1636726.879609 kJ/mol
# GULP energy per Si atom -12399.446058 kJ/mol
# Density = 1.606617 g / cm^3
# Si number density = 16.102825 Si / 1000 Ang^3
#
#
#
# Elastic Constant Matrix: (Units=GPa)
#
#
# Indices 1 2 3 4 5 6 
#
# 1 117.2459 59.5562 23.3838 0.0000 0.0000 0.0000
# 2 59.5562 117.2459 23.3838 0.0000 0.0000 0.0000
# 3 23.3838 23.3838 50.3490 0.0000 0.0000 0.0000
# 4 0.0000 0.0000 0.0000 14.1546 0.0000 0.0000
# 5 0.0000 0.0000 0.0000 0.0000 14.1546 0.0000
# 6 0.0000 0.0000 0.0000 0.0000 0.0000 28.8448
#
#
#
# Elastic Compliance Matrix: (Units=1/GPa)
#
#
# Indices 1 2 3 4 5 6 
#
# 1 0.011891 -0.005443 -0.002995 0.000000 0.000000 0.000000
# 2 -0.005443 0.011891 -0.002995 0.000000 0.000000 0.000000
# 3 -0.002995 -0.002995 0.022643 0.000000 0.000000 0.000000
# 4 0.000000 0.000000 0.000000 0.070648 0.000000 0.000000
# 5 0.000000 0.000000 0.000000 0.000000 0.070648 0.000000
# 6 0.000000 0.000000 0.000000 0.000000 0.000000 0.034668
#
#
# Mechanical properties :
#
#
# Convention : Reuss Voigt Hill
#
# Bulk Modulus (GPa) = 42.44400 55.27650 48.86025
# Shear Modulus (GPa) = 19.75432 23.33192 21.54312
#
# Velocity S-wave (km/s) = 3.50631 3.81061 3.66163
# Velocity P-wave (km/s) = 6.54276 7.33231 6.94876
#
# Compressibility (1/GPa) = 0.02356045
#
# Stress axis : x y z
#
# Youngs Moduli (GPa) = 84.09593 84.09593 44.16351
#
# Poissons Ratio (x) = 0.45773 0.13226
# Poissons Ratio (y) = 0.45773 0.13226
# Poissons Ratio (z) = 0.25185 0.25185
#
# Static dielectric constant tensor:
#      x y z
#    x 3.144040 0.000000 0.000000 
#    y 0.000000 3.144040 0.000000 
#    z 0.000000 0.000000 2.705800 
# 
# 
# High freq. dielectric constant tensor:
#      x y z
#    x 1.626040 0.000000 0.000000 
#    y 0.000000 1.626040 0.000000 
#    z 0.000000 0.000000 1.557230 
# 
# From -- ./inp_files/3387.got.cif
#   From: 2010.03.12/outbox.cif.g09.slc.cpg/sg191_2_cif.got.tgz:3387.got - 2010.04.01 12:09:02.
