data_PCOD8328656
_publ_section_title
;
Structure prediction by ZEFSAII (Michael W. Deem and Ramdas Pophale) SiO2 
 PCOD8328656
Probable space group: P 6/M M M
;
_chemical_formula_sum "Si O2"
_cell_formula_units_Z 168
_cell_length_a 22.157753
_cell_length_b 22.157753
_cell_length_c 24.367100
_cell_angle_alpha 90.000000
_cell_angle_beta 90.000000
_cell_angle_gamma 120.000000
_cell_volume 10360.623954
_symmetry_space_group_name_H-M "P 6/M M M"
_symmetry_group_IT_number 191
_symmetry_cell_setting 'hexagonal'
loop_
_space_group_symop_operation_xyz
x,y,z
x-y,x,z
-y,x-y,z
-x,-y,z
-x+y,-x,z
y,-x+y,z
x-y,-y,-z
-x,-x+y,-z
y,x,-z
-y,-x,-z
-x+y,y,-z
x,x-y,-z
-x,-y,-z
-x+y,-x,-z
y,-x+y,-z
x,y,-z
x-y,x,-z
-y,x-y,-z
-x+y,y,z
x,x-y,z
-y,-x,z
y,x,z
x-y,-y,z
-x,-x+y,z
loop_
_atom_site_type_symbol
_atom_site_label
_atom_site_fract_x
_atom_site_fract_y
_atom_site_fract_z
Si Si1 0.533669 0.200302 0.425348
Si Si2 0.609133 0.079500 0.850079
Si Si3 0.921684 0.594273 0.260506
Si Si4 0.920716 0.301217 0.561398
Si Si5 0.333472 0.536248 0.299460
Si Si6 0.216672 0.920195 0.335714
Si Si7 0.471848 0.804812 0.062846
O O1 0.597328 0.194655 0.452537
O O2 0.527259 0.263630 0.452630
O O3 0.463090 0.128107 0.435009
O O4 0.551716 0.219061 0.362524
O O5 0.546314 0.092627 0.829813
O O6 0.667300 0.096470 0.802980
O O7 0.650269 0.128227 0.901010
O O8 0.576459 0.000000 0.869834
O O9 0.874049 0.528341 0.297104
O O10 0.910713 0.657718 0.280684
O O11 0.000000 0.612796 0.272944
O O12 0.913199 0.268491 0.500000
O O13 0.900737 0.243377 0.608820
O O14 0.000000 0.362468 0.571417
O O15 0.260365 0.520729 0.271778
O O16 0.396387 0.603614 0.269809
O O17 0.133745 0.866256 0.330869
O O18 0.232337 0.000000 0.338671
O O19 0.391587 0.783173 0.070421
O O20 0.479788 0.739894 0.082157
O O21 0.495420 0.824703 0.000000
#
# Coordination Sequence:
#
# PCOD8328656 Si02
#       7
#    24  24  24  24  24  24  24
#     4  10  20  33  48  65  87 117 152 188 226 270
#     4   9  18  31  45  64  91 121 155 194 233 274
#     4  10  19  31  48  69  92 117 149 190 231 271
#     4  10  21  36  53  73  94 116 147 190 236 278
#     4  10  19  30  44  62  86 115 148 184 223 268
#     4  10  20  35  54  76  99 123 150 180 220 269
#     4   9  17  29  45  65  89 118 153 193 236 279
#
# _framework density 16.215240000000001
#
# number of rings (size 3 to 8) (size 9 to 14) (size 15 to 20)
#    0.000    2.286    1.429    1.714    0.000    5.714 
#    0.000    3.571    0.000    2.714    0.000    0.000 
#    0.000    0.000    0.000    3.571    0.000    0.000 
#
# Total GULP energy -2081629.615786 kJ/mol
# GULP energy per Si atom -12390.652475 kJ/mol
# Density = 1.617833 g / cm^3
# Si number density = 16.215240 Si / 1000 Ang^3
#
#
#
# Elastic Constant Matrix: (Units=GPa)
#
#
# Indices 1 2 3 4 5 6 
#
# 1 99.7087 55.2668 35.5736 0.0000 0.0000 0.0000
# 2 55.2668 99.7087 35.5736 0.0000 0.0000 0.0000
# 3 35.5736 35.5736 73.0373 0.0000 0.0000 0.0000
# 4 0.0000 0.0000 0.0000 39.9334 0.0000 0.0000
# 5 0.0000 0.0000 0.0000 0.0000 39.9334 0.0000
# 6 0.0000 0.0000 0.0000 0.0000 0.0000 22.2210
#
#
#
# Elastic Compliance Matrix: (Units=1/GPa)
#
#
# Indices 1 2 3 4 5 6 
#
# 1 0.015406 -0.007095 -0.004048 0.000000 0.000000 0.000000
# 2 -0.007095 0.015406 -0.004048 0.000000 0.000000 0.000000
# 3 -0.004048 -0.004048 0.017635 0.000000 0.000000 0.000000
# 4 0.000000 0.000000 0.000000 0.025042 0.000000 0.000000
# 5 0.000000 0.000000 0.000000 0.000000 0.025042 0.000000
# 6 0.000000 0.000000 0.000000 0.000000 0.000000 0.045003
#
#
# Mechanical properties :
#
#
# Convention : Reuss Voigt Hill
#
# Bulk Modulus (GPa) = 55.35568 58.36475 56.86022
# Shear Modulus (GPa) = 27.78753 30.15360 28.97057
#
# Velocity S-wave (km/s) = 4.14414 4.31697 4.23144
# Velocity P-wave (km/s) = 7.55716 7.80514 7.68215
#
# Compressibility (1/GPa) = 0.01806499
#
# Stress axis : x y z
#
# Youngs Moduli (GPa) = 64.90923 64.90923 56.70592
#
# Poissons Ratio (x) = 0.46054 0.22954
# Poissons Ratio (y) = 0.46054 0.22954
# Poissons Ratio (z) = 0.26275 0.26275
#
# Static dielectric constant tensor:
#      x y z
#    x 3.047570 0.000000 0.000000 
#    y 0.000000 3.047570 0.000000 
#    z 0.000000 0.000000 3.080480 
# 
# 
# High freq. dielectric constant tensor:
#      x y z
#    x 1.609910 0.000000 0.000000 
#    y 0.000000 1.609910 0.000000 
#    z 0.000000 0.000000 1.615840 
# 
# From -- ./inp_files/9000.got.cif
#   From: 2010.03.12/outbox.cif.g09.slc.cpg/sg191_5_cif.got.tgz:9000.got - 2010.04.01 12:09:02.
