data_PCOD8328651
_publ_section_title
;
Structure prediction by ZEFSAII (Michael W. Deem and Ramdas Pophale) SiO2 
 PCOD8328651
Probable space group: P 6/M M M
;
_chemical_formula_sum "Si O2"
_cell_formula_units_Z 168
_cell_length_a 20.854894
_cell_length_b 20.854894
_cell_length_c 29.044694
_cell_angle_alpha 90.000000
_cell_angle_beta 90.000000
_cell_angle_gamma 120.000000
_cell_volume 10939.901471
_symmetry_space_group_name_H-M "P 6/M M M"
_symmetry_group_IT_number 191
_symmetry_cell_setting 'hexagonal'
loop_
_space_group_symop_operation_xyz
x,y,z
x-y,x,z
-y,x-y,z
-x,-y,z
-x+y,-x,z
y,-x+y,z
x-y,-y,-z
-x,-x+y,-z
y,x,-z
-y,-x,-z
-x+y,y,-z
x,x-y,-z
-x,-y,-z
-x+y,-x,-z
y,-x+y,-z
x,y,-z
x-y,x,-z
-y,x-y,-z
-x+y,y,z
x,x-y,z
-y,-x,z
y,x,z
x-y,-y,z
-x,-x+y,z
loop_
_atom_site_type_symbol
_atom_site_label
_atom_site_fract_x
_atom_site_fract_y
_atom_site_fract_z
Si Si1 0.187594 0.522915 0.112801
Si Si2 0.652982 0.566291 0.808321
Si Si3 0.878006 0.271365 0.050067
Si Si4 0.082723 0.617043 0.634137
Si Si5 0.079214 0.304369 0.861575
Si Si6 0.184648 0.666637 0.552435
Si Si7 0.333672 0.819653 0.280164
O O1 0.255655 0.511310 0.127982
O O2 0.217435 0.608718 0.102190
O O3 0.127830 0.496997 0.153579
O O4 0.149054 0.476897 0.066640
O O5 0.590613 0.590613 0.805986
O O6 0.732887 0.635511 0.821687
O O7 0.658766 0.533801 0.760082
O O8 0.809160 0.190841 0.043946
O O9 0.928895 0.266114 0.089579
O O10 0.918238 0.297906 0.000000
O O11 0.075159 0.537580 0.637522
O O12 0.117179 0.654862 0.585009
O O13 0.138499 0.668671 0.673777
O O14 0.000000 0.606042 0.638931
O O15 0.139416 0.278832 0.861904
O O16 0.000000 0.231830 0.852009
O O17 0.159706 0.666609 0.500000
O O18 0.204517 0.602259 0.560605
O O19 0.257027 0.742974 0.565437
O O20 0.402316 0.804631 0.279630
O O21 0.258639 0.741362 0.275690
#
# Coordination Sequence:
#
# PCOD8328651 Si02
#       7
#    24  24  24  24  24  24  24
#     4  10  19  30  44  62  85 111 140 174 212 255
#     4  10  20  33  48  63  81 108 140 174 209 246
#     4   8  15  28  43  59  81 108 137 168 199 233
#     4   9  18  30  42  58  80 107 139 173 210 253
#     4   9  17  30  48  68  88 110 138 170 204 244
#     4   9  16  26  41  60  82 108 139 176 217 259
#     4  11  21  32  46  63  85 110 138 174 216 262
#
# _framework density 15.356627
#
# number of rings (size 3 to 8) (size 9 to 14) (size 15 to 20)
#    0.000    2.571    0.000    3.857    0.000    3.143 
#    0.000    4.286    0.000    1.000    0.000    4.000 
#    0.000    0.000    0.000    3.571    0.000    0.000 
#
# Total GULP energy -2082072.394420 kJ/mol
# GULP energy per Si atom -12393.288062 kJ/mol
# Density = 1.532167 g / cm^3
# Si number density = 15.356627 Si / 1000 Ang^3
#
#
#
# Elastic Constant Matrix: (Units=GPa)
#
#
# Indices 1 2 3 4 5 6 
#
# 1 70.3099 42.0460 22.9108 0.0000 0.0000 0.0000
# 2 42.0460 70.3099 22.9108 0.0000 0.0000 0.0000
# 3 22.9108 22.9108 69.2991 0.0000 0.0000 0.0000
# 4 0.0000 0.0000 0.0000 11.1512 0.0000 0.0000
# 5 0.0000 0.0000 0.0000 0.0000 11.1512 0.0000
# 6 0.0000 0.0000 0.0000 0.0000 0.0000 14.1320
#
#
#
# Elastic Compliance Matrix: (Units=1/GPa)
#
#
# Indices 1 2 3 4 5 6 
#
# 1 0.022834 -0.012547 -0.003401 0.000000 0.000000 0.000000
# 2 -0.012547 0.022834 -0.003401 0.000000 0.000000 0.000000
# 3 -0.003401 -0.003401 0.016679 0.000000 0.000000 0.000000
# 4 0.000000 0.000000 0.000000 0.089676 0.000000 0.000000
# 5 0.000000 0.000000 0.000000 0.000000 0.089676 0.000000
# 6 0.000000 0.000000 0.000000 0.000000 0.000000 0.070762
#
#
# Mechanical properties :
#
#
# Convention : Reuss Voigt Hill
#
# Bulk Modulus (GPa) = 42.28430 42.85044 42.56737
# Shear Modulus (GPa) = 13.92594 15.42363 14.67479
#
# Velocity S-wave (km/s) = 3.01464 3.17261 3.09463
# Velocity P-wave (km/s) = 6.30175 6.43309 6.36776
#
# Compressibility (1/GPa) = 0.02364944
#
# Stress axis : x y z
#
# Youngs Moduli (GPa) = 43.79421 43.79421 59.95547
#
# Poissons Ratio (x) = 0.54947 0.20391
# Poissons Ratio (y) = 0.54947 0.20391
# Poissons Ratio (z) = 0.14895 0.14895
#
# Static dielectric constant tensor:
#      x y z
#    x 2.810240 0.000000 0.000000 
#    y 0.000000 2.810240 0.000000 
#    z 0.000000 0.000000 3.473390 
# 
# 
# High freq. dielectric constant tensor:
#      x y z
#    x 1.569120 0.000000 0.000000 
#    y 0.000000 1.569120 0.000000 
#    z 0.000000 0.000000 1.593980 
# 
# From -- ./inp_files/10028.got.cif
#   From: 2010.03.12/outbox.cif.g09.slc.cpg/sg191_6_cif.got.tgz:10028.got - 2010.04.01 12:09:02.
