data_PCOD8328289
_publ_section_title
;
Structure prediction by ZEFSAII (Michael W. Deem and Ramdas Pophale) SiO2 
 PCOD8328289
Probable space group: P 6/M M M
;
_chemical_formula_sum "Si O2"
_cell_formula_units_Z 168
_cell_length_a 23.151884
_cell_length_b 23.151884
_cell_length_c 22.369609
_cell_angle_alpha 90.000000
_cell_angle_beta 90.000000
_cell_angle_gamma 120.000000
_cell_volume 10383.928771
_symmetry_space_group_name_H-M "P 6/M M M"
_symmetry_group_IT_number 191
_symmetry_cell_setting 'hexagonal'
loop_
_space_group_symop_operation_xyz
x,y,z
x-y,x,z
-y,x-y,z
-x,-y,z
-x+y,-x,z
y,-x+y,z
x-y,-y,-z
-x,-x+y,-z
y,x,-z
-y,-x,-z
-x+y,y,-z
x,x-y,-z
-x,-y,-z
-x+y,-x,-z
y,-x+y,-z
x,y,-z
x-y,x,-z
-y,x-y,-z
-x+y,y,z
x,x-y,z
-y,-x,z
y,x,z
x-y,-y,z
-x,-x+y,z
loop_
_atom_site_type_symbol
_atom_site_label
_atom_site_fract_x
_atom_site_fract_y
_atom_site_fract_z
Si Si1 0.466384 0.666434 0.931306
Si Si2 0.077214 0.602655 0.394356
Si Si3 0.925040 0.396722 0.744757
Si Si4 0.126691 0.384225 0.433470
Si Si5 0.926716 0.202932 0.663066
Si Si6 0.716952 0.923795 0.800224
Si Si7 0.148088 0.719304 0.832955
O O1 0.446431 0.723216 0.921896
O O2 0.403685 0.596316 0.910353
O O3 0.532813 0.683442 0.894020
O O4 0.484079 0.662682 0.000000
O O5 0.098373 0.549187 0.415443
O O6 0.091066 0.616775 0.324582
O O7 0.121071 0.670635 0.430202
O O8 0.000000 0.574662 0.409057
O O9 0.917805 0.458903 0.766155
O O10 0.872131 0.332037 0.779277
O O11 0.000000 0.412117 0.758431
O O12 0.105238 0.352765 0.500000
O O13 0.202963 0.405925 0.420304
O O14 0.079662 0.332079 0.383343
O O15 0.873547 0.126454 0.647769
O O16 0.917433 0.221888 0.730480
O O17 0.000000 0.211897 0.655954
O O18 0.744215 0.872108 0.813448
O O19 0.650695 0.903366 0.839414
O O20 0.773794 0.000000 0.816040
O O21 0.220473 0.779528 0.816067
#
# Coordination Sequence:
#
# PCOD8328289 Si02
#       7
#    24  24  24  24  24  24  24
#     4   9  17  29  44  61  84 117 156 193 224 253
#     4   9  18  31  46  64  83 104 134 172 212 253
#     4   9  17  29  44  61  83 111 140 170 207 253
#     4  10  20  31  43  61  84 109 137 170 210 255
#     4   9  17  29  45  65  89 115 141 170 205 246
#     4   9  17  29  46  67  89 113 141 173 209 250
#     4  10  18  26  41  66  90 112 142 179 217 255
#
# _framework density 16.178847000000001
#
# number of rings (size 3 to 8) (size 9 to 14) (size 15 to 20)
#    0.000    2.714    0.000    3.143    0.000    6.000 
#    0.000    0.714    0.000    2.571    0.000    7.000 
#    0.000    0.000    0.000    3.571    0.000    3.714 
#
# Total GULP energy -2082582.799565 kJ/mol
# GULP energy per Si atom -12396.326188 kJ/mol
# Density = 1.614202 g / cm^3
# Si number density = 16.178847 Si / 1000 Ang^3
#
#
#
# Elastic Constant Matrix: (Units=GPa)
#
#
# Indices 1 2 3 4 5 6 
#
# 1 92.8001 48.5614 38.0620 0.0000 0.0000 0.0000
# 2 48.5614 92.8001 38.0620 0.0000 0.0000 0.0000
# 3 38.0620 38.0620 45.2590 0.0000 0.0000 0.0000
# 4 0.0000 0.0000 0.0000 18.1955 0.0000 0.0000
# 5 0.0000 0.0000 0.0000 0.0000 18.1955 0.0000
# 6 0.0000 0.0000 0.0000 0.0000 0.0000 22.1193
#
#
#
# Elastic Compliance Matrix: (Units=1/GPa)
#
#
# Indices 1 2 3 4 5 6 
#
# 1 0.017767 -0.004838 -0.010873 0.000000 0.000000 0.000000
# 2 -0.004838 0.017767 -0.010873 0.000000 0.000000 0.000000
# 3 -0.010873 -0.010873 0.040384 0.000000 0.000000 0.000000
# 4 0.000000 0.000000 0.000000 0.054959 0.000000 0.000000
# 5 0.000000 0.000000 0.000000 0.000000 0.054959 0.000000
# 6 0.000000 0.000000 0.000000 0.000000 0.000000 0.045209
#
#
# Mechanical properties :
#
#
# Convention : Reuss Voigt Hill
#
# Bulk Modulus (GPa) = 43.95809 53.35888 48.65849
# Shear Modulus (GPa) = 17.13523 18.78031 17.95777
#
# Velocity S-wave (km/s) = 3.25793 3.41074 3.33521
# Velocity P-wave (km/s) = 6.43283 6.96872 6.70613
#
# Compressibility (1/GPa) = 0.02274894
#
# Stress axis : x y z
#
# Youngs Moduli (GPa) = 56.28388 56.28388 24.76242
#
# Poissons Ratio (x) = 0.27228 0.26925
# Poissons Ratio (y) = 0.27228 0.26925
# Poissons Ratio (z) = 0.61200 0.61200
#
# Static dielectric constant tensor:
#      x y z
#    x 3.048590 0.000000 0.000000 
#    y 0.000000 3.048590 0.000000 
#    z 0.000000 0.000000 2.991000 
# 
# 
# High freq. dielectric constant tensor:
#      x y z
#    x 1.612880 0.000000 0.000000 
#    y 0.000000 1.612880 0.000000 
#    z 0.000000 0.000000 1.607760 
# 
# From -- ./inp_files/7920.got.cif
#   From: 2010.03.12/outbox.cif.g09.slc.cpg/sg191_4_cif.got.tgz:7920.got - 2010.04.01 12:09:02.
