data_PCOD8328212
_publ_section_title
;
Structure prediction by ZEFSAII (Michael W. Deem and Ramdas Pophale) SiO2 
 PCOD8328212
Probable space group: P -6 2 C
;
_chemical_formula_sum "Si O2"
_cell_formula_units_Z 48
_cell_length_a 16.405769
_cell_length_b 16.405769
_cell_length_c 9.788559
_cell_angle_alpha 90.000000
_cell_angle_beta 90.000000
_cell_angle_gamma 120.000000
_cell_volume 2281.616133
_symmetry_space_group_name_H-M "P -6 2 C"
_symmetry_group_IT_number 190
_symmetry_cell_setting 'hexagonal'
loop_
_space_group_symop_operation_xyz
x,y,z
-x+y,-x,1/2-z
-y,x-y,z
x,y,1/2-z
-x+y,-x,z
-y,x-y,1/2-z
x-y,-y,-z
-x,-x+y,-z
y,x,-z
y,x,1/2+z
x-y,-y,1/2+z
-x,-x+y,1/2+z
loop_
_atom_site_type_symbol
_atom_site_label
_atom_site_fract_x
_atom_site_fract_y
_atom_site_fract_z
Si Si1 0.817689 0.272456 0.003922
Si Si2 0.837882 0.458591 0.094381
Si Si3 0.000000 0.644550 0.500000
Si Si4 0.185841 0.868145 0.750000
Si Si5 0.234489 0.264840 0.250000
Si Si6 0.770316 0.679291 0.750000
O O1 0.863665 0.381521 0.042060
O O2 0.705048 0.234941 0.993435
O O3 0.825221 0.207495 0.119182
O O4 0.872663 0.265584 0.875116
O O5 0.798807 0.435706 0.250000
O O6 0.933848 0.556075 0.092180
O O7 0.052354 0.725632 0.387458
O O8 0.072679 0.829876 0.750000
O O9 0.251462 0.979873 0.750000
O O10 0.127945 0.245669 0.250000
#
# Coordination Sequence:
#
# PCOD8328212 Si02
#       6
#    12  12   6   6   6   6
#     4  12  25  43  68 100 143 183 227 288 337 408
#     4  12  23  41  67  97 133 184 230 264 339 430
#     4  12  22  38  72  96 122 184 234 268 340 424
#     4  12  24  47  69  98 135 187 237 284 356 430
#     4  12  22  48  70  94 136 182 232 296 356 412
#     4  12  28  43  67 108 139 175 237 306 358 394
#
# _framework density 21.037718000000002
#
# number of rings (size 3 to 8) (size 9 to 14) (size 15 to 20)
#    0.000    0.000    8.750    1.250    3.500    2.000 
#    0.750    0.000    0.000    0.000    0.000    0.000 
#    0.000    0.000    0.000    0.000    0.000    0.000 
#
# Total GULP energy -594889.891039 kJ/mol
# GULP energy per Si atom -12393.539397 kJ/mol
# Density = 2.098984 g / cm^3
# Si number density = 21.037718 Si / 1000 Ang^3
#
#
#
# Elastic Constant Matrix: (Units=GPa)
#
#
# Indices 1 2 3 4 5 6 
#
# 1 110.3012 49.6137 30.2880 0.0000 0.0000 0.0000
# 2 49.6137 110.3012 30.2880 0.0000 0.0000 0.0000
# 3 30.2880 30.2880 115.3500 0.0000 0.0000 0.0000
# 4 0.0000 0.0000 0.0000 24.8248 0.0000 0.0000
# 5 0.0000 0.0000 0.0000 0.0000 24.8248 0.0000
# 6 0.0000 0.0000 0.0000 0.0000 0.0000 30.3438
#
#
#
# Elastic Compliance Matrix: (Units=1/GPa)
#
#
# Indices 1 2 3 4 5 6 
#
# 1 0.011711 -0.004767 -0.001823 0.000000 0.000000 0.000000
# 2 -0.004767 0.011711 -0.001823 0.000000 0.000000 0.000000
# 3 -0.001823 -0.001823 0.009627 0.000000 0.000000 0.000000
# 4 0.000000 0.000000 0.000000 0.040282 0.000000 0.000000
# 5 0.000000 0.000000 0.000000 0.000000 0.040282 0.000000
# 6 0.000000 0.000000 0.000000 0.000000 0.000000 0.032956
#
#
# Mechanical properties :
#
#
# Convention : Reuss Voigt Hill
#
# Bulk Modulus (GPa) = 61.64653 61.81462 61.73057
# Shear Modulus (GPa) = 29.62032 31.04955 30.33493
#
# Velocity S-wave (km/s) = 3.75635 3.84591 3.80140
# Velocity P-wave (km/s) = 6.94119 7.01198 6.97667
#
# Compressibility (1/GPa) = 0.01622151
#
# Stress axis : x y z
#
# Youngs Moduli (GPa) = 85.39036 85.39036 103.87687
#
# Poissons Ratio (x) = 0.40705 0.18940
# Poissons Ratio (y) = 0.40705 0.18940
# Poissons Ratio (z) = 0.15569 0.15569
#
# Static dielectric constant tensor:
#      x y z
#    x 3.889580 0.000000 0.000000 
#    y 0.000000 3.889580 0.000000 
#    z 0.000000 0.000000 3.826000 
# 
# 
# High freq. dielectric constant tensor:
#      x y z
#    x 1.826080 0.000000 0.000000 
#    y 0.000000 1.826080 0.000000 
#    z 0.000000 0.000000 1.826470 
# 
# From -- ./inp_files/726.got.cif
#   From: 2010.06.25/outbox.cif.g09.slc.cpg/sg190_1_cif.got.tgz:726.got - 2010.06.28 13:08:06.
