data_PCOD8328976
_publ_section_title
;
Structure prediction by ZEFSAII (Michael W. Deem and Ramdas Pophale) SiO2 
 PCOD8328976
Probable space group: P 6/M M M
;
_chemical_formula_sum "Si O2"
_cell_formula_units_Z 132
_cell_length_a 27.007441
_cell_length_b 27.007441
_cell_length_c 12.836036
_cell_angle_alpha 90.000000
_cell_angle_beta 90.000000
_cell_angle_gamma 120.000000
_cell_volume 8108.274260
_symmetry_space_group_name_H-M "P 6/M M M"
_symmetry_group_IT_number 191
_symmetry_cell_setting 'hexagonal'
loop_
_space_group_symop_operation_xyz
x,y,z
x-y,x,z
-y,x-y,z
-x,-y,z
-x+y,-x,z
y,-x+y,z
x-y,-y,-z
-x,-x+y,-z
y,x,-z
-y,-x,-z
-x+y,y,-z
x,x-y,-z
-x,-y,-z
-x+y,-x,-z
y,-x+y,-z
x,y,-z
x-y,x,-z
-y,x-y,-z
-x+y,y,z
x,x-y,z
-y,-x,z
y,x,z
x-y,-y,z
-x,-x+y,z
loop_
_atom_site_type_symbol
_atom_site_label
_atom_site_fract_x
_atom_site_fract_y
_atom_site_fract_z
Si Si1 0.759406 0.240595 0.376841
Si Si2 0.932193 0.410092 0.000000
Si Si3 0.321249 0.256935 0.268073
Si Si4 0.933093 0.368563 0.219820
Si Si5 0.154099 0.633741 0.379630
Si Si6 0.232668 0.170556 0.121859
Si Si7 0.823152 0.176849 0.621598
O O1 0.761186 0.238815 0.500000
O O2 0.792411 0.306490 0.339729
O O3 0.791368 0.208633 0.328829
O O4 0.910180 0.371778 0.895278
O O5 0.908540 0.454270 0.000000
O O6 0.000000 0.443496 0.000000
O O7 0.286281 0.286281 0.316688
O O8 0.384701 0.304511 0.237418
O O9 0.291180 0.223134 0.163366
O O10 0.320932 0.210720 0.347114
O O11 0.901161 0.383752 0.308840
O O12 0.000000 0.414381 0.230861
O O13 0.138236 0.638265 0.500000
O O14 0.173097 0.586549 0.367861
O O15 0.220388 0.110194 0.169804
O O16 0.179125 0.179125 0.151345
O O17 0.241318 0.171400 0.000000
O O18 0.821007 0.178994 0.500000
#
# Coordination Sequence:
#
# PCOD8328976 Si02
#       7
#    12  12  24  24  24  24  12
#     4   9  18  34  50  68  94 124 154 193 244 296
#     4   9  18  32  48  67  96 134 167 195 237 286
#     4  10  20  32  48  73 100 129 167 206 245 292
#     4  10  20  32  49  73 101 130 162 200 239 287
#     4  10  20  34  52  72  94 123 159 200 245 290
#     4   9  17  29  47  70  97 128 161 200 246 293
#     4  11  20  34  53  69  97 137 167 201 250 300
#
# _framework density 16.279667
#
# number of rings (size 3 to 8) (size 9 to 14) (size 15 to 20)
#    0.000    2.273    2.727    0.545    1.273    1.818 
#    0.545    2.727    0.000    1.818    0.000    1.273 
#    0.000    0.000    0.000    0.000    0.000    8.273 
#
# Total GULP energy -1636200.247862 kJ/mol
# GULP energy per Si atom -12395.456423 kJ/mol
# Density = 1.624261 g / cm^3
# Si number density = 16.279667 Si / 1000 Ang^3
#
#
#
# Elastic Constant Matrix: (Units=GPa)
#
#
# Indices 1 2 3 4 5 6 
#
# 1 91.0806 50.3186 36.6303 0.0000 0.0000 0.0000
# 2 50.3186 91.0806 36.6303 0.0000 0.0000 0.0000
# 3 36.6303 36.6303 69.5316 0.0000 0.0000 0.0000
# 4 0.0000 0.0000 0.0000 20.2139 0.0000 0.0000
# 5 0.0000 0.0000 0.0000 0.0000 20.2139 0.0000
# 6 0.0000 0.0000 0.0000 0.0000 0.0000 20.3810
#
#
#
# Elastic Compliance Matrix: (Units=1/GPa)
#
#
# Indices 1 2 3 4 5 6 
#
# 1 0.017130 -0.007403 -0.005124 0.000000 0.000000 0.000000
# 2 -0.007403 0.017130 -0.005124 0.000000 0.000000 0.000000
# 3 -0.005124 -0.005124 0.019781 0.000000 0.000000 0.000000
# 4 0.000000 0.000000 0.000000 0.049471 0.000000 0.000000
# 5 0.000000 0.000000 0.000000 0.000000 0.049471 0.000000
# 6 0.000000 0.000000 0.000000 0.000000 0.000000 0.049065
#
#
# Mechanical properties :
#
#
# Convention : Reuss Voigt Hill
#
# Bulk Modulus (GPa) = 53.36783 55.42787 54.39785
# Shear Modulus (GPa) = 20.52566 20.70266 20.61416
#
# Velocity S-wave (km/s) = 3.55465 3.56994 3.56230
# Velocity P-wave (km/s) = 7.04985 7.14940 7.09980
#
# Compressibility (1/GPa) = 0.01873788
#
# Stress axis : x y z
#
# Youngs Moduli (GPa) = 58.37735 58.37735 50.55306
#
# Poissons Ratio (x) = 0.43215 0.25906
# Poissons Ratio (y) = 0.43215 0.25906
# Poissons Ratio (z) = 0.29915 0.29915
#
# Static dielectric constant tensor:
#      x y z
#    x 3.250460 0.000000 0.000000 
#    y 0.000000 3.250460 0.000000 
#    z 0.000000 0.000000 2.980250 
# 
# 
# High freq. dielectric constant tensor:
#      x y z
#    x 1.623770 0.000000 0.000000 
#    y 0.000000 1.623770 0.000000 
#    z 0.000000 0.000000 1.610180 
# 
# From -- ./inp_files/4994.got.cif
#   From: 2010.03.12/outbox.cif.g09.slc.cpg/sg191_3_cif.got.tgz:4994.got - 2010.04.01 12:09:02.
