data_PCOD8328016
_publ_section_title
;
Structure prediction by ZEFSAII (Michael W. Deem and Ramdas Pophale) SiO2 
 PCOD8328016
Probable space group: P -6 2 C
;
_chemical_formula_sum "Si O2"
_cell_formula_units_Z 52
_cell_length_a 14.277741
_cell_length_b 14.277741
_cell_length_c 13.432602
_cell_angle_alpha 90.000000
_cell_angle_beta 90.000000
_cell_angle_gamma 120.000000
_cell_volume 2371.427096
_symmetry_space_group_name_H-M "P -6 2 C"
_symmetry_group_IT_number 190
_symmetry_cell_setting 'hexagonal'
loop_
_space_group_symop_operation_xyz
x,y,z
-x+y,-x,1/2-z
-y,x-y,z
x,y,1/2-z
-x+y,-x,z
-y,x-y,1/2-z
x-y,-y,-z
-x,-x+y,-z
y,x,-z
y,x,1/2+z
x-y,-y,1/2+z
-x,-x+y,1/2+z
loop_
_atom_site_type_symbol
_atom_site_label
_atom_site_fract_x
_atom_site_fract_y
_atom_site_fract_z
Si Si1 0.445973 0.215497 0.952061
Si Si2 0.000000 0.000000 0.367313
Si Si3 0.932784 0.765136 0.634998
Si Si4 0.456747 0.897352 0.363738
Si Si5 0.902373 0.584502 0.363226
O O1 0.318952 0.148365 0.928304
O O2 0.492196 0.134158 0.939573
O O3 0.503554 0.313703 0.873635
O O4 0.467322 0.266126 0.063735
O O5 0.882380 0.967450 0.408212
O O6 0.000000 0.000000 0.250000
O O7 0.898390 0.753172 0.750000
O O8 0.033089 0.745758 0.619660
O O9 0.419610 0.894837 0.250000
O O10 0.555815 0.017057 0.390122
O O11 0.860216 0.555418 0.250000
#
# Coordination Sequence:
#
# PCOD8328016 Si02
#       5
#    12   4  12  12  12
#     4  11  20  36  60  88 120 158 201 249 303 359
#     4   9  18  33  55  86 122 155 190 234 289 356
#     4   9  17  33  57  85 119 157 193 237 295 358
#     4  10  19  33  59  92 119 150 197 254 307 356
#     4   9  20  39  59  81 118 162 201 246 304 363
#
# _framework density 21.927726
#
# number of rings (size 3 to 8) (size 9 to 14) (size 15 to 20)
#    0.000    2.308    0.000    6.692    0.000    0.000 
#    0.000   10.385    0.000   12.462    0.000    0.000 
#    0.000    0.000    0.000    0.000    0.000    0.000 
#
# Total GULP energy -644764.826766 kJ/mol
# GULP energy per Si atom -12399.323592 kJ/mol
# Density = 2.187782 g / cm^3
# Si number density = 21.927726 Si / 1000 Ang^3
#
#
#
# Elastic Constant Matrix: (Units=GPa)
#
#
# Indices 1 2 3 4 5 6 
#
# 1 106.9276 72.9907 65.1557 0.0000 0.0000 0.0000
# 2 72.9907 106.9276 65.1557 0.0000 0.0000 0.0000
# 3 65.1557 65.1557 123.5531 0.0000 0.0000 0.0000
# 4 0.0000 0.0000 0.0000 25.4132 0.0000 0.0000
# 5 0.0000 0.0000 0.0000 0.0000 25.4132 0.0000
# 6 0.0000 0.0000 0.0000 0.0000 0.0000 16.9684
#
#
#
# Elastic Compliance Matrix: (Units=1/GPa)
#
#
# Indices 1 2 3 4 5 6 
#
# 1 0.019230 -0.010237 -0.004742 0.000000 0.000000 0.000000
# 2 -0.010237 0.019230 -0.004742 0.000000 0.000000 0.000000
# 3 -0.004742 -0.004742 0.013096 0.000000 0.000000 0.000000
# 4 0.000000 0.000000 0.000000 0.039350 0.000000 0.000000
# 5 0.000000 0.000000 0.000000 0.000000 0.039350 0.000000
# 6 0.000000 0.000000 0.000000 0.000000 0.000000 0.058933
#
#
# Mechanical properties :
#
#
# Convention : Reuss Voigt Hill
#
# Bulk Modulus (GPa) = 82.56488 82.66807 82.61647
# Shear Modulus (GPa) = 21.48990 22.49938 21.99464
#
# Velocity S-wave (km/s) = 3.13394 3.20671 3.17053
# Velocity P-wave (km/s) = 7.12954 7.17584 7.15273
#
# Compressibility (1/GPa) = 0.01211169
#
# Stress axis : x y z
#
# Youngs Moduli (GPa) = 52.00293 52.00293 76.36205
#
# Poissons Ratio (x) = 0.53234 0.36214
# Poissons Ratio (y) = 0.53234 0.36214
# Poissons Ratio (z) = 0.24662 0.24662
#
# Static dielectric constant tensor:
#      x y z
#    x 3.783920 0.000000 0.000000 
#    y 0.000000 3.783920 0.000000 
#    z 0.000000 0.000000 4.004680 
# 
# 
# High freq. dielectric constant tensor:
#      x y z
#    x 1.841110 0.000000 0.000000 
#    y 0.000000 1.841110 0.000000 
#    z 0.000000 0.000000 1.876510 
# 
# From -- ./inp_files/2676.got.cif
#   From: 2010.06.25/outbox.cif.g09.slc.cpg/sg190_2_cif.got.tgz:2676.got - 2010.06.28 13:08:06.
