data_PCOD8328194
_publ_section_title
;
Structure prediction by ZEFSAII (Michael W. Deem and Ramdas Pophale) SiO2 
 PCOD8328194
Probable space group: P -6 2 C
;
_chemical_formula_sum "Si O2"
_cell_formula_units_Z 60
_cell_length_a 11.779482
_cell_length_b 11.779482
_cell_length_c 28.012583
_cell_angle_alpha 90.000000
_cell_angle_beta 90.000000
_cell_angle_gamma 120.000000
_cell_volume 3366.170997
_symmetry_space_group_name_H-M "P -6 2 C"
_symmetry_group_IT_number 190
_symmetry_cell_setting 'hexagonal'
loop_
_space_group_symop_operation_xyz
x,y,z
-x+y,-x,1/2-z
-y,x-y,z
x,y,1/2-z
-x+y,-x,z
-y,x-y,1/2-z
x-y,-y,-z
-x,-x+y,-z
y,x,-z
y,x,1/2+z
x-y,-y,1/2+z
-x,-x+y,1/2+z
loop_
_atom_site_type_symbol
_atom_site_label
_atom_site_fract_x
_atom_site_fract_y
_atom_site_fract_z
Si Si1 0.271114 0.235176 0.445037
Si Si2 0.093827 0.428006 0.958239
Si Si3 0.519619 0.959786 0.115321
Si Si4 0.333334 0.666668 0.999712
Si Si5 0.445956 0.830150 0.696052
Si Si6 0.333334 0.666668 0.113317
Si Si7 0.000000 0.000000 0.943371
O O1 0.270113 0.270113 0.500000
O O2 0.366732 0.176781 0.436881
O O3 0.322428 0.367037 0.415030
O O4 0.127211 0.131677 0.425176
O O5 0.009450 0.439571 0.916157
O O6 0.187519 0.571720 0.980176
O O7 0.000000 0.333127 0.000000
O O8 0.420431 0.813521 0.133162
O O9 0.581685 0.051145 0.161032
O O10 0.333334 0.666667 0.056199
O O11 0.288281 0.766400 0.687844
O O12 0.482813 0.883723 0.750000
O O13 0.000000 0.000000 0.000000
#
# Coordination Sequence:
#
# PCOD8328194 Si02
#       7
#    12  12  12   4  12   4   4
#     4  11  22  37  53  77 109 150 200 241 277 326
#     4  12  22  33  55  76 113 154 198 235 279 328
#     4  12  23  36  55  84 114 152 188 231 279 350
#     4  12  21  36  45  82 116 163 195 237 273 331
#     4   8  18  39  66  90 105 127 179 244 285 318
#     4  12  27  36  49  82 132 160 184 219 291 343
#     4   9  21  36  54  72 106 152 196 243 285 312
#
# _framework density 17.824406
#
# number of rings (size 3 to 8) (size 9 to 14) (size 15 to 20)
#    0.400    0.800    4.000    4.800    2.800    0.000 
#    0.000    1.000    0.000    0.000    0.000    0.000 
#    0.000    0.000    0.000    0.000    0.000    0.000 
#
# Total GULP energy -744121.190801 kJ/mol
# GULP energy per Si atom -12402.019847 kJ/mol
# Density = 1.778384 g / cm^3
# Si number density = 17.824406 Si / 1000 Ang^3
#
#
#
# Elastic Constant Matrix: (Units=GPa)
#
#
# Indices 1 2 3 4 5 6 
#
# 1 91.8325 32.3061 28.4518 0.0000 -0.0001 -0.0001
# 2 32.3061 91.8326 28.4517 0.0001 0.0000 -0.0001
# 3 28.4518 28.4517 72.8022 -0.0001 -0.0001 0.0000
# 4 0.0000 0.0001 -0.0001 17.6990 0.0001 0.0000
# 5 -0.0001 0.0000 -0.0001 0.0001 17.6989 0.0000
# 6 -0.0001 -0.0001 0.0000 0.0000 0.0000 29.7630
#
#
#
# Elastic Compliance Matrix: (Units=1/GPa)
#
#
# Indices 1 2 3 4 5 6 
#
# 1 0.013306 -0.003493 -0.003835 0.000000 0.000000 0.000000
# 2 -0.003493 0.013306 -0.003835 0.000000 0.000000 0.000000
# 3 -0.003835 -0.003835 0.016734 0.000000 0.000000 0.000000
# 4 0.000000 0.000000 0.000000 0.056500 0.000000 0.000000
# 5 0.000000 0.000000 0.000000 0.000000 0.056501 0.000000
# 6 0.000000 0.000000 0.000000 0.000000 0.000000 0.033599
#
#
# Mechanical properties :
#
#
# Convention : Reuss Voigt Hill
#
# Bulk Modulus (GPa) = 47.57439 48.32073 47.94756
# Shear Modulus (GPa) = 22.80197 24.18269 23.49233
#
# Velocity S-wave (km/s) = 3.58055 3.68736 3.63435
# Velocity P-wave (km/s) = 6.62135 6.73030 6.67605
#
# Compressibility (1/GPa) = 0.02101971
#
# Stress axis : x y z
#
# Youngs Moduli (GPa) = 75.15180 75.15190 59.76028
#
# Poissons Ratio (x) = 0.26250 0.22919
# Poissons Ratio (y) = 0.26250 0.22919
# Poissons Ratio (z) = 0.28822 0.28822
#
# Static dielectric constant tensor:
#      x y z
#    x 3.383650 0.000000 0.000000 
#    y 0.000000 3.383650 0.000000 
#    z 0.000000 0.000000 2.927680 
# 
# 
# High freq. dielectric constant tensor:
#      x y z
#    x 1.694370 0.000000 0.000000 
#    y 0.000000 1.694370 0.000000 
#    z 0.000000 0.000000 1.646880 
# 
# From -- ./inp_files/4922.got.cif
#   From: 2010.06.25/outbox.cif.g09.slc.cpg/sg190_3_cif.got.tgz:4922.got - 2010.06.28 13:08:06.
