data_PCOD8328081
_publ_section_title
;
Structure prediction by ZEFSAII (Michael W. Deem and Ramdas Pophale) SiO2 
 PCOD8328081
Probable space group: P -6 2 C
;
_chemical_formula_sum "Si O2"
_cell_formula_units_Z 84
_cell_length_a 18.303921
_cell_length_b 18.303921
_cell_length_c 13.705041
_cell_angle_alpha 90.000000
_cell_angle_beta 90.000000
_cell_angle_gamma 120.000000
_cell_volume 3976.483971
_symmetry_space_group_name_H-M "P -6 2 C"
_symmetry_group_IT_number 190
_symmetry_cell_setting 'hexagonal'
loop_
_space_group_symop_operation_xyz
x,y,z
-x+y,-x,1/2-z
-y,x-y,z
x,y,1/2-z
-x+y,-x,z
-y,x-y,1/2-z
x-y,-y,-z
-x,-x+y,-z
y,x,-z
y,x,1/2+z
x-y,-y,1/2+z
-x,-x+y,1/2+z
loop_
_atom_site_type_symbol
_atom_site_label
_atom_site_fract_x
_atom_site_fract_y
_atom_site_fract_z
Si Si1 0.470042 0.651341 0.047042
Si Si2 0.223224 0.004634 0.637201
Si Si3 0.401527 0.308599 0.016918
Si Si4 0.601956 0.620161 0.141213
Si Si5 0.756342 0.898322 0.508533
Si Si6 0.441809 0.870344 0.640171
Si Si7 0.680482 0.193420 0.639119
O O1 0.544746 0.630726 0.060098
O O2 0.504647 0.748612 0.065091
O O3 0.398502 0.606934 0.131355
O O4 0.428570 0.624133 0.939127
O O5 0.209494 0.012030 0.750000
O O6 0.300426 0.986240 0.616543
O O7 0.241148 0.092956 0.590606
O O8 0.137441 0.926568 0.595422
O O9 0.343317 0.207727 0.031548
O O10 0.464059 0.357340 0.107385
O O11 0.328909 0.328909 0.000000
O O12 0.450271 0.344104 0.913180
O O13 0.582102 0.641190 0.250000
O O14 0.575120 0.522869 0.138996
O O15 0.816967 0.000000 0.500000
O O16 0.426151 0.831955 0.750000
O O17 0.709960 0.198040 0.750000
#
# Coordination Sequence:
#
# PCOD8328081 Si02
#       7
#    12  12  12  12  12  12  12
#     4  11  22  36  57  85 121 160 202 261 316 365
#     4  10  23  42  68 100 128 168 223 278 341 404
#     4  10  22  39  59  90 127 171 208 261 326 390
#     4  10  20  36  63  94 122 158 213 272 320 375
#     4  10  23  42  65  94 135 170 216 272 340 413
#     4  10  22  38  58  89 126 169 217 263 317 386
#     4  11  22  36  57  86 120 159 208 257 315 375
#
# _framework density 21.124188
#
# number of rings (size 3 to 8) (size 9 to 14) (size 15 to 20)
#    0.000    1.714    0.000    4.571    6.000    4.571 
#    3.429    5.714    0.000    0.000    0.000    0.000 
#    0.000    0.000    0.000    0.000    0.000    0.000 
#
# Total GULP energy -1040740.362172 kJ/mol
# GULP energy per Si atom -12389.766216 kJ/mol
# Density = 2.107611 g / cm^3
# Si number density = 21.124188 Si / 1000 Ang^3
#
#
#
# Elastic Constant Matrix: (Units=GPa)
#
#
# Indices 1 2 3 4 5 6 
#
# 1 92.9697 32.5915 44.6895 0.0000 0.0000 0.0000
# 2 32.5915 92.9697 44.6895 0.0000 0.0000 0.0000
# 3 44.6895 44.6895 168.3072 0.0000 0.0000 0.0000
# 4 0.0000 0.0000 0.0000 23.7066 0.0000 0.0000
# 5 0.0000 0.0000 0.0000 0.0000 23.7066 0.0000
# 6 0.0000 0.0000 0.0000 0.0000 0.0000 30.1891
#
#
#
# Elastic Compliance Matrix: (Units=1/GPa)
#
#
# Indices 1 2 3 4 5 6 
#
# 1 0.013191 -0.003371 -0.002608 0.000000 0.000000 0.000000
# 2 -0.003371 0.013191 -0.002608 0.000000 0.000000 0.000000
# 3 -0.002608 -0.002608 0.007326 0.000000 0.000000 0.000000
# 4 0.000000 0.000000 0.000000 0.042182 0.000000 0.000000
# 5 0.000000 0.000000 0.000000 0.000000 0.042182 0.000000
# 6 0.000000 0.000000 0.000000 0.000000 0.000000 0.033125
#
#
# Mechanical properties :
#
#
# Convention : Reuss Voigt Hill
#
# Bulk Modulus (GPa) = 60.47102 66.46528 63.46815
# Shear Modulus (GPa) = 28.75503 31.00551 29.88027
#
# Velocity S-wave (km/s) = 3.69350 3.83531 3.76507
# Velocity P-wave (km/s) = 6.84674 7.15158 7.00082
#
# Compressibility (1/GPa) = 0.01653685
#
# Stress axis : x y z
#
# Youngs Moduli (GPa) = 75.80736 75.80736 136.49556
#
# Poissons Ratio (x) = 0.25554 0.35592
# Poissons Ratio (y) = 0.25554 0.35592
# Poissons Ratio (z) = 0.19767 0.19767
#
# Static dielectric constant tensor:
#      x y z
#    x 3.789660 0.000000 0.000000 
#    y 0.000000 3.789660 0.000000 
#    z 0.000000 0.000000 4.047100 
# 
# 
# High freq. dielectric constant tensor:
#      x y z
#    x 1.825610 0.000000 0.000000 
#    y 0.000000 1.825610 0.000000 
#    z 0.000000 0.000000 1.830580 
# 
# From -- ./inp_files/3159.got.cif
#   From: 2010.06.25/outbox.cif.g09.slc.cpg/sg190_2_cif.got.tgz:3159.got - 2010.06.28 13:08:06.
