data_PCOD8328110
_publ_section_title
;
Structure prediction by ZEFSAII (Michael W. Deem and Ramdas Pophale) SiO2 
 PCOD8328110
Probable space group: P -6 2 C
;
_chemical_formula_sum "Si O2"
_cell_formula_units_Z 42
_cell_length_a 8.544338
_cell_length_b 8.544338
_cell_length_c 32.623740
_cell_angle_alpha 90.000000
_cell_angle_beta 90.000000
_cell_angle_gamma 120.000000
_cell_volume 2062.629472
_symmetry_space_group_name_H-M "P -6 2 C"
_symmetry_group_IT_number 190
_symmetry_cell_setting 'hexagonal'
loop_
_space_group_symop_operation_xyz
x,y,z
-x+y,-x,1/2-z
-y,x-y,z
x,y,1/2-z
-x+y,-x,z
-y,x-y,1/2-z
x-y,-y,-z
-x,-x+y,-z
y,x,-z
y,x,1/2+z
x-y,-y,1/2+z
-x,-x+y,1/2+z
loop_
_atom_site_type_symbol
_atom_site_label
_atom_site_fract_x
_atom_site_fract_y
_atom_site_fract_z
Si Si1 0.004362 0.801145 0.295245
Si Si2 0.671839 0.671116 0.412267
Si Si3 0.797532 0.797532 0.500000
Si Si4 0.000137 0.663012 0.379259
O O1 0.006330 0.723150 0.250000
O O2 0.005509 0.666274 0.329567
O O3 0.824925 0.821123 0.299944
O O4 0.683128 0.680518 0.461383
O O5 0.799393 0.599212 0.394734
O O6 0.469123 0.534900 0.397193
O O7 0.735171 0.870066 0.395409
O O8 0.000000 0.822386 0.500000
#
# Coordination Sequence:
#
# PCOD8328110 Si02
#       4
#    12  12   6  12
#     4   8  15  33  66  93 123 174 221 259 313 381
#     4  12  24  39  68  89 134 168 217 274 323 386
#     4  10  20  42  68  88 116 178 226 270 320 378
#     4  12  22  42  60 102 126 172 215 271 325 388
#
# _framework density 20.362355999999998
#
# number of rings (size 3 to 8) (size 9 to 14) (size 15 to 20)
#    0.857    0.571    5.714    1.714    0.000    2.286 
#    0.000    2.857    0.000    0.000    0.000    0.000 
#    0.000    0.000    0.000    0.000    0.000    0.000 
#
# Total GULP energy -520673.001001 kJ/mol
# GULP energy per Si atom -12396.976214 kJ/mol
# Density = 2.031601 g / cm^3
# Si number density = 20.362356 Si / 1000 Ang^3
#
#
#
# Elastic Constant Matrix: (Units=GPa)
#
#
# Indices 1 2 3 4 5 6 
#
# 1 68.5508 16.3842 47.0324 0.0000 0.0000 0.0000
# 2 16.3842 68.5508 47.0324 0.0000 0.0000 0.0000
# 3 47.0324 47.0324 229.5895 0.0000 0.0000 0.0000
# 4 0.0000 0.0000 0.0000 30.7908 0.0000 0.0000
# 5 0.0000 0.0000 0.0000 0.0000 30.7908 0.0000
# 6 0.0000 0.0000 0.0000 0.0000 0.0000 26.0833
#
#
#
# Elastic Compliance Matrix: (Units=1/GPa)
#
#
# Indices 1 2 3 4 5 6 
#
# 1 0.017199 -0.001970 -0.003120 0.000000 0.000000 0.000000
# 2 -0.001970 0.017199 -0.003120 0.000000 0.000000 0.000000
# 3 -0.003120 -0.003120 0.005634 0.000000 0.000000 0.000000
# 4 0.000000 0.000000 0.000000 0.032477 0.000000 0.000000
# 5 0.000000 0.000000 0.000000 0.000000 0.032477 0.000000
# 6 0.000000 0.000000 0.000000 0.000000 0.000000 0.038339
#
#
# Mechanical properties :
#
#
# Convention : Reuss Voigt Hill
#
# Bulk Modulus (GPa) = 42.35039 65.28764 53.81902
# Shear Modulus (GPa) = 29.83023 34.61578 32.22301
#
# Velocity S-wave (km/s) = 3.83164 4.12757 3.98235
# Velocity P-wave (km/s) = 6.35758 7.40596 6.90171
#
# Compressibility (1/GPa) = 0.02361253
#
# Stress axis : x y z
#
# Youngs Moduli (GPa) = 58.14279 58.14279 177.50158
#
# Poissons Ratio (x) = 0.11456 0.55375
# Poissons Ratio (y) = 0.11456 0.55375
# Poissons Ratio (z) = 0.18139 0.18139
#
# Static dielectric constant tensor:
#      x y z
#    x 3.215500 0.000000 0.000000 
#    y 0.000000 3.215500 0.000000 
#    z 0.000000 0.000000 3.784280 
# 
# 
# High freq. dielectric constant tensor:
#      x y z
#    x 1.764240 0.000000 0.000000 
#    y 0.000000 1.764240 0.000000 
#    z 0.000000 0.000000 1.814840 
# 
# From -- ./inp_files/5076.got.cif
#   From: 2010.06.25/outbox.cif.g09.slc.cpg/sg190_3_cif.got.tgz:5076.got - 2010.06.28 13:08:06.
