data_PCOD8328637
_publ_section_title
;
Structure prediction by ZEFSAII (Michael W. Deem and Ramdas Pophale) SiO2 
 PCOD8328637
Probable space group: P 6/M M M
;
_chemical_formula_sum "Si O2"
_cell_formula_units_Z 78
_cell_length_a 28.091312
_cell_length_b 28.091312
_cell_length_c 7.340384
_cell_angle_alpha 90.000000
_cell_angle_beta 90.000000
_cell_angle_gamma 120.000000
_cell_volume 5016.415005
_symmetry_space_group_name_H-M "P 6/M M M"
_symmetry_group_IT_number 191
_symmetry_cell_setting 'hexagonal'
loop_
_space_group_symop_operation_xyz
x,y,z
x-y,x,z
-y,x-y,z
-x,-y,z
-x+y,-x,z
y,-x+y,z
x-y,-y,-z
-x,-x+y,-z
y,x,-z
-y,-x,-z
-x+y,y,-z
x,x-y,-z
-x,-y,-z
-x+y,-x,-z
y,-x+y,-z
x,y,-z
x-y,x,-z
-y,x-y,-z
-x+y,y,z
x,x-y,z
-y,-x,z
y,x,z
x-y,-y,z
-x,-x+y,z
loop_
_atom_site_type_symbol
_atom_site_label
_atom_site_fract_x
_atom_site_fract_y
_atom_site_fract_z
Si Si1 0.349657 0.228727 0.000000
Si Si2 0.442378 0.274067 0.709692
Si Si3 0.309402 0.000000 0.000000
Si Si4 0.892946 0.394242 0.285918
Si Si5 0.391656 0.391656 0.715710
O O1 0.386969 0.254420 0.178127
O O2 0.323615 0.161808 0.000000
O O3 0.304170 0.248581 0.000000
O O4 0.426128 0.275431 0.500000
O O5 0.465840 0.232920 0.741239
O O6 0.491004 0.334172 0.771432
O O7 0.341555 0.000000 0.819056
O O8 0.895293 0.402383 0.500000
O O9 0.885622 0.442811 0.194216
O O10 0.948357 0.396828 0.219055
O O11 0.381225 0.381225 0.500000
#
# Coordination Sequence:
#
# PCOD8328637 Si02
#       5
#    12  24   6  24  12
#     4  10  20  32  46  66  88 110 141 174 202 242
#     4   9  17  30  46  61  80 109 143 178 216 258
#     4  12  20  30  49  68  88 116 143 172 208 242
#     4   9  16  27  43  61  84 113 140 173 220 264
#     4  10  19  30  42  62  90 116 142 173 211 258
#
# _framework density 15.548952
#
# number of rings (size 3 to 8) (size 9 to 14) (size 15 to 20)
#    0.000    2.462    3.077    0.462    0.000    1.846 
#    0.000    3.846    0.000    0.615    0.000    4.308 
#    0.000    0.000    0.000    0.231    0.000    0.000 
#
# Total GULP energy -966433.421531 kJ/mol
# GULP energy per Si atom -12390.172071 kJ/mol
# Density = 1.551356 g / cm^3
# Si number density = 15.548952 Si / 1000 Ang^3
#
#
#
# Elastic Constant Matrix: (Units=GPa)
#
#
# Indices 1 2 3 4 5 6 
#
# 1 108.8307 64.0144 15.2105 0.0000 0.0000 0.0000
# 2 64.0144 108.8307 15.2105 0.0000 0.0000 0.0000
# 3 15.2105 15.2105 54.3701 0.0000 0.0000 0.0000
# 4 0.0000 0.0000 0.0000 7.1349 0.0000 0.0000
# 5 0.0000 0.0000 0.0000 0.0000 7.1349 0.0000
# 6 0.0000 0.0000 0.0000 0.0000 0.0000 22.4082
#
#
#
# Elastic Compliance Matrix: (Units=1/GPa)
#
#
# Indices 1 2 3 4 5 6 
#
# 1 0.014199 -0.008114 -0.001702 0.000000 0.000000 0.000000
# 2 -0.008114 0.014199 -0.001702 0.000000 0.000000 0.000000
# 3 -0.001702 -0.001702 0.019345 0.000000 0.000000 0.000000
# 4 0.000000 0.000000 0.000000 0.140157 0.000000 0.000000
# 5 0.000000 0.000000 0.000000 0.000000 0.140157 0.000000
# 6 0.000000 0.000000 0.000000 0.000000 0.000000 0.044627
#
#
# Mechanical properties :
#
#
# Convention : Reuss Voigt Hill
#
# Bulk Modulus (GPa) = 40.47638 51.21138 45.84388
# Shear Modulus (GPa) = 12.37758 19.17532 15.77645
#
# Velocity S-wave (km/s) = 2.82448 3.51554 3.18878
# Velocity P-wave (km/s) = 6.06011 7.03461 6.56547
#
# Compressibility (1/GPa) = 0.02470577
#
# Stress axis : x y z
#
# Youngs Moduli (GPa) = 70.42637 70.42637 51.69303
#
# Poissons Ratio (x) = 0.57145 0.08800
# Poissons Ratio (y) = 0.57145 0.08800
# Poissons Ratio (z) = 0.11989 0.11989
#
# Static dielectric constant tensor:
#      x y z
#    x 3.055640 0.000000 0.000000 
#    y 0.000000 3.055640 0.000000 
#    z 0.000000 0.000000 2.990610 
# 
# 
# High freq. dielectric constant tensor:
#      x y z
#    x 1.569520 0.000000 0.000000 
#    y 0.000000 1.569520 0.000000 
#    z 0.000000 0.000000 1.607200 
# 
# From -- ./inp_files/1218.got.cif
#   From: 2010.03.12/outbox.cif.g09.slc.cpg/sg191_1_cif.got.tgz:1218.got - 2010.04.01 12:09:02.
