data_PCOD8328830
_publ_section_title
;
Structure prediction by ZEFSAII (Michael W. Deem and Ramdas Pophale) SiO2 
 PCOD8328830
Probable space group: P 6/M M M
;
_chemical_formula_sum "Si O2"
_cell_formula_units_Z 132
_cell_length_a 17.595476
_cell_length_b 17.595476
_cell_length_c 28.123032
_cell_angle_alpha 90.000000
_cell_angle_beta 90.000000
_cell_angle_gamma 120.000000
_cell_volume 7540.407432
_symmetry_space_group_name_H-M "P 6/M M M"
_symmetry_group_IT_number 191
_symmetry_cell_setting 'hexagonal'
loop_
_space_group_symop_operation_xyz
x,y,z
x-y,x,z
-y,x-y,z
-x,-y,z
-x+y,-x,z
y,-x+y,z
x-y,-y,-z
-x,-x+y,-z
y,x,-z
-y,-x,-z
-x+y,y,-z
x,x-y,-z
-x,-y,-z
-x+y,-x,-z
y,-x+y,-z
x,y,-z
x-y,x,-z
-y,x-y,-z
-x+y,y,z
x,x-y,z
-y,-x,z
y,x,z
x-y,-y,z
-x,-x+y,z
loop_
_atom_site_type_symbol
_atom_site_label
_atom_site_fract_x
_atom_site_fract_y
_atom_site_fract_z
Si Si1 0.901735 0.633539 0.054151
Si Si2 0.635483 0.532577 0.500000
Si Si3 0.368281 0.268704 0.773914
Si Si4 0.635624 0.103058 0.684833
Si Si5 0.730181 0.627651 0.592057
Si Si6 0.509348 0.667648 0.138761
O O1 0.834780 0.669559 0.064933
O O2 0.878708 0.550439 0.087123
O O3 0.000000 0.712838 0.064225
O O4 0.892038 0.600115 0.000000
O O5 0.572863 0.572863 0.500000
O O6 0.573557 0.426444 0.500000
O O7 0.695177 0.564428 0.546634
O O8 0.326957 0.163479 0.777925
O O9 0.289824 0.289824 0.765206
O O10 0.438020 0.302431 0.730877
O O11 0.418310 0.316117 0.821913
O O12 0.573413 0.146826 0.684000
O O13 0.692981 0.128173 0.637429
O O14 0.574223 0.000000 0.687939
O O15 0.836530 0.673059 0.592664
O O16 0.703342 0.703342 0.591411
O O17 0.478297 0.739148 0.143226
O O18 0.427790 0.572211 0.146663
#
# Coordination Sequence:
#
# PCOD8328830 Si02
#       6
#    24  12  24  24  24  24
#     4   9  18  32  49  69  93 122 156 193 233 276
#     4   9  17  30  49  70  90 116 152 193 237 286
#     4  10  20  33  50  72  97 126 160 197 236 278
#     4   9  17  30  49  71  93 119 153 192 233 279
#     4  10  19  31  49  72  97 127 164 203 240 280
#     4  10  20  33  49  70  96 125 156 191 232 277
#
# _framework density 17.505685
#
# number of rings (size 3 to 8) (size 9 to 14) (size 15 to 20)
#    0.000    2.455    0.000    2.636    0.000    4.727 
#    0.000    0.909    0.000   11.455    0.000    1.273 
#    0.000   10.909    0.000    0.182    0.000    1.455 
#
# Total GULP energy -1636392.303147 kJ/mol
# GULP energy per Si atom -12396.911387 kJ/mol
# Density = 1.746584 g / cm^3
# Si number density = 17.505685 Si / 1000 Ang^3
#
#
#
# Elastic Constant Matrix: (Units=GPa)
#
#
# Indices 1 2 3 4 5 6 
#
# 1 93.4567 59.7968 32.4769 0.0000 0.0000 0.0000
# 2 59.7968 93.4567 32.4769 0.0000 0.0000 0.0000
# 3 32.4769 32.4769 110.7823 0.0000 0.0000 0.0000
# 4 0.0000 0.0000 0.0000 20.0174 0.0000 0.0000
# 5 0.0000 0.0000 0.0000 0.0000 20.0174 0.0000
# 6 0.0000 0.0000 0.0000 0.0000 0.0000 16.8300
#
#
#
# Elastic Compliance Matrix: (Units=1/GPa)
#
#
# Indices 1 2 3 4 5 6 
#
# 1 0.018580 -0.011129 -0.002184 0.000000 0.000000 0.000000
# 2 -0.011129 0.018580 -0.002184 0.000000 0.000000 0.000000
# 3 -0.002184 -0.002184 0.010307 0.000000 0.000000 0.000000
# 4 0.000000 0.000000 0.000000 0.049957 0.000000 0.000000
# 5 0.000000 0.000000 0.000000 0.000000 0.049957 0.000000
# 6 0.000000 0.000000 0.000000 0.000000 0.000000 0.059418
#
#
# Mechanical properties :
#
#
# Convention : Reuss Voigt Hill
#
# Bulk Modulus (GPa) = 60.70901 60.79964 60.75432
# Shear Modulus (GPa) = 20.55209 22.90262 21.72736
#
# Velocity S-wave (km/s) = 3.43012 3.62096 3.52683
# Velocity P-wave (km/s) = 7.10229 7.23108 7.16698
#
# Compressibility (1/GPa) = 0.01647202
#
# Stress axis : x y z
#
# Youngs Moduli (GPa) = 53.82153 53.82153 97.01753
#
# Poissons Ratio (x) = 0.59898 0.21192
# Poissons Ratio (y) = 0.59898 0.21192
# Poissons Ratio (z) = 0.11756 0.11756
#
# Static dielectric constant tensor:
#      x y z
#    x 3.142970 0.000000 0.000000 
#    y 0.000000 3.142970 0.000000 
#    z 0.000000 0.000000 3.524230 
# 
# 
# High freq. dielectric constant tensor:
#      x y z
#    x 1.656180 0.000000 0.000000 
#    y 0.000000 1.656180 0.000000 
#    z 0.000000 0.000000 1.699470 
# 
# From -- ./inp_files/9762.got.cif
#   From: 2010.03.12/outbox.cif.g09.slc.cpg/sg191_5_cif.got.tgz:9762.got - 2010.04.01 12:09:02.
