data_PCOD8328908
_publ_section_title
;
Structure prediction by ZEFSAII (Michael W. Deem and Ramdas Pophale) SiO2 
 PCOD8328908
Probable space group: P 6/M M M
;
_chemical_formula_sum "Si O2"
_cell_formula_units_Z 78
_cell_length_a 25.352740
_cell_length_b 25.352740
_cell_length_c 8.011448
_cell_angle_alpha 90.000000
_cell_angle_beta 90.000000
_cell_angle_gamma 120.000000
_cell_volume 4459.554288
_symmetry_space_group_name_H-M "P 6/M M M"
_symmetry_group_IT_number 191
_symmetry_cell_setting 'hexagonal'
loop_
_space_group_symop_operation_xyz
x,y,z
x-y,x,z
-y,x-y,z
-x,-y,z
-x+y,-x,z
y,-x+y,z
x-y,-y,-z
-x,-x+y,-z
y,x,-z
-y,-x,-z
-x+y,y,-z
x,x-y,-z
-x,-y,-z
-x+y,-x,-z
y,-x+y,-z
x,y,-z
x-y,x,-z
-y,x-y,-z
-x+y,y,z
x,x-y,z
-y,-x,z
y,x,z
x-y,-y,z
-x,-x+y,z
loop_
_atom_site_type_symbol
_atom_site_label
_atom_site_fract_x
_atom_site_fract_y
_atom_site_fract_z
Si Si1 0.356946 0.424873 0.195758
Si Si2 0.668680 0.774205 0.804990
Si Si3 0.465822 0.534179 0.694806
Si Si4 0.874348 0.000000 0.000000
Si Si5 0.794677 0.000000 0.689288
O O1 0.390732 0.390732 0.274063
O O2 0.287692 0.389891 0.262313
O O3 0.395051 0.496712 0.245997
O O4 0.354878 0.419559 0.000000
O O5 0.652538 0.826269 0.768802
O O6 0.728871 0.788337 0.706251
O O7 0.681311 0.769711 0.000000
O O8 0.500000 0.500000 0.773069
O O9 0.466863 0.533138 0.500000
O O10 0.880953 0.940477 0.000000
O O11 0.839887 0.000000 0.830459
O O12 0.818733 0.000000 0.500000
#
# Coordination Sequence:
#
# PCOD8328908 Si02
#       5
#    24  24  12   6  12
#     4   9  16  28  46  69  97 132 171 205 245 299
#     4  10  19  34  55  78 107 141 176 218 269 325
#     4   9  17  27  41  63  95 133 167 201 243 289
#     4  12  27  48  68  84 106 135 180 236 288 342
#     4  12  24  39  61  86 111 143 179 220 279 348
#
# _framework density 17.490535999999999
#
# number of rings (size 3 to 8) (size 9 to 14) (size 15 to 20)
#    0.000    2.000    3.077    1.462    0.000    5.538 
#    0.000    0.000    0.000    0.923    0.000    0.000 
#    1.538    0.000    2.769    0.000    0.923    0.000 
#
# Total GULP energy -966618.946798 kJ/mol
# GULP energy per Si atom -12392.550600 kJ/mol
# Density = 1.745073 g / cm^3
# Si number density = 17.490536 Si / 1000 Ang^3
#
#
#
# Elastic Constant Matrix: (Units=GPa)
#
#
# Indices 1 2 3 4 5 6 
#
# 1 108.4081 80.0500 38.0692 0.0000 0.0000 0.0000
# 2 80.0500 108.4081 38.0692 0.0000 0.0000 0.0000
# 3 38.0692 38.0692 65.9521 0.0000 0.0000 0.0000
# 4 0.0000 0.0000 0.0000 9.2251 0.0000 0.0000
# 5 0.0000 0.0000 0.0000 0.0000 9.2251 0.0000
# 6 0.0000 0.0000 0.0000 0.0000 0.0000 14.1790
#
#
#
# Elastic Compliance Matrix: (Units=1/GPa)
#
#
# Indices 1 2 3 4 5 6 
#
# 1 0.021092 -0.014172 -0.003994 0.000000 0.000000 0.000000
# 2 -0.014172 0.021092 -0.003994 0.000000 0.000000 0.000000
# 3 -0.003994 -0.003994 0.019774 0.000000 0.000000 0.000000
# 4 0.000000 0.000000 0.000000 0.108400 0.000000 0.000000
# 5 0.000000 0.000000 0.000000 0.000000 0.108400 0.000000
# 6 0.000000 0.000000 0.000000 0.000000 0.000000 0.070527
#
#
# Mechanical properties :
#
#
# Convention : Reuss Voigt Hill
#
# Bulk Modulus (GPa) = 56.70138 66.12723 61.41431
# Shear Modulus (GPa) = 12.51618 14.96451 13.74035
#
# Velocity S-wave (km/s) = 2.67797 2.92820 2.80587
# Velocity P-wave (km/s) = 6.48465 7.02296 6.75917
#
# Compressibility (1/GPa) = 0.01763625
#
# Stress axis : x y z
#
# Youngs Moduli (GPa) = 47.41215 47.41215 50.57186
#
# Poissons Ratio (x) = 0.67191 0.20200
# Poissons Ratio (y) = 0.67191 0.20200
# Poissons Ratio (z) = 0.18938 0.18938
#
# Static dielectric constant tensor:
#      x y z
#    x 3.606080 0.000000 0.000000 
#    y 0.000000 3.606080 0.000000 
#    z 0.000000 0.000000 3.143220 
# 
# 
# High freq. dielectric constant tensor:
#      x y z
#    x 1.656360 0.000000 0.000000 
#    y 0.000000 1.656360 0.000000 
#    z 0.000000 0.000000 1.672500 
# 
# From -- ./inp_files/1097.got.cif
#   From: 2010.03.12/outbox.cif.g09.slc.cpg/sg191_1_cif.got.tgz:1097.got - 2010.04.01 12:09:02.
