data_PCOD8328370
_publ_section_title
;
Structure prediction by ZEFSAII (Michael W. Deem and Ramdas Pophale) SiO2 
 PCOD8328370
Probable space group: P 6/M M M
;
_chemical_formula_sum "Si O2"
_cell_formula_units_Z 168
_cell_length_a 22.642420
_cell_length_b 22.642420
_cell_length_c 22.960577
_cell_angle_alpha 90.000000
_cell_angle_beta 90.000000
_cell_angle_gamma 120.000000
_cell_volume 10194.339984
_symmetry_space_group_name_H-M "P 6/M M M"
_symmetry_group_IT_number 191
_symmetry_cell_setting 'hexagonal'
loop_
_space_group_symop_operation_xyz
x,y,z
x-y,x,z
-y,x-y,z
-x,-y,z
-x+y,-x,z
y,-x+y,z
x-y,-y,-z
-x,-x+y,-z
y,x,-z
-y,-x,-z
-x+y,y,-z
x,x-y,-z
-x,-y,-z
-x+y,-x,-z
y,-x+y,-z
x,y,-z
x-y,x,-z
-y,x-y,-z
-x+y,y,z
x,x-y,z
-y,-x,z
y,x,z
x-y,-y,z
-x,-x+y,z
loop_
_atom_site_type_symbol
_atom_site_label
_atom_site_fract_x
_atom_site_fract_y
_atom_site_fract_z
Si Si1 0.394677 0.317380 0.933756
Si Si2 0.791241 0.076853 0.852527
Si Si3 0.393687 0.921193 0.432883
Si Si4 0.333625 0.532225 0.244299
Si Si5 0.924257 0.716237 0.281287
Si Si6 0.856408 0.280526 0.338359
Si Si7 0.196278 0.666445 0.890506
O O1 0.377582 0.377582 0.919757
O O2 0.351696 0.253292 0.891788
O O3 0.474571 0.344640 0.925161
O O4 0.374484 0.292355 0.000000
O O5 0.871125 0.128876 0.865421
O O6 0.774124 0.082939 0.785431
O O7 0.774333 0.000000 0.867231
O O8 0.371201 0.909816 0.500000
O O9 0.448085 0.896170 0.421197
O O10 0.326760 0.878293 0.395144
O O11 0.427458 0.000000 0.415741
O O12 0.276408 0.552815 0.255809
O O13 0.404971 0.595030 0.263929
O O14 0.321574 0.468049 0.282414
O O15 0.333601 0.513281 0.177278
O O16 0.871382 0.742764 0.294271
O O17 0.910014 0.653948 0.323321
O O18 0.000000 0.778316 0.294142
O O19 0.783021 0.216980 0.352383
O O20 0.209727 0.604864 0.905993
O O21 0.263106 0.736895 0.909095
#
# Coordination Sequence:
#
# PCOD8328370 Si02
#       7
#    24  24  24  24  24  24  24
#     4  10  21  35  50  67  87 115 149 184 224 267
#     4   9  17  30  48  69  93 120 150 183 220 264
#     4   9  18  32  47  61  82 117 156 188 218 255
#     4   9  17  29  45  65  89 117 148 181 218 260
#     4   9  17  29  46  68  93 119 145 177 219 265
#     4  10  18  27  44  69  92 114 143 182 227 267
#     4  10  20  34  51  69  90 116 146 180 219 265
#
# _framework density 16.479733
#
# number of rings (size 3 to 8) (size 9 to 14) (size 15 to 20)
#    0.000    2.571    0.000    2.857    0.000    5.429 
#    0.000    1.429    0.000    3.143    0.000    2.000 
#    0.000    0.000    0.000    3.571    0.000    3.714 
#
# Total GULP energy -2083142.182288 kJ/mol
# GULP energy per Si atom -12399.655847 kJ/mol
# Density = 1.644222 g / cm^3
# Si number density = 16.479733 Si / 1000 Ang^3
#
#
#
# Elastic Constant Matrix: (Units=GPa)
#
#
# Indices 1 2 3 4 5 6 
#
# 1 97.4832 55.2263 38.1561 0.0000 0.0000 0.0000
# 2 55.2263 97.4832 38.1561 0.0000 0.0000 0.0000
# 3 38.1561 38.1561 58.5384 0.0000 0.0000 0.0000
# 4 0.0000 0.0000 0.0000 22.3939 0.0000 0.0000
# 5 0.0000 0.0000 0.0000 0.0000 22.3939 0.0000
# 6 0.0000 0.0000 0.0000 0.0000 0.0000 21.1285
#
#
#
# Elastic Compliance Matrix: (Units=1/GPa)
#
#
# Indices 1 2 3 4 5 6 
#
# 1 0.016688 -0.006977 -0.006330 0.000000 0.000000 0.000000
# 2 -0.006977 0.016688 -0.006330 0.000000 0.000000 0.000000
# 3 -0.006330 -0.006330 0.025335 0.000000 0.000000 0.000000
# 4 0.000000 0.000000 0.000000 0.044655 0.000000 0.000000
# 5 0.000000 0.000000 0.000000 0.000000 0.044655 0.000000
# 6 0.000000 0.000000 0.000000 0.000000 0.000000 0.047330
#
#
# Mechanical properties :
#
#
# Convention : Reuss Voigt Hill
#
# Bulk Modulus (GPa) = 51.44670 57.39798 54.42234
# Shear Modulus (GPa) = 20.73793 21.31436 21.02615
#
# Velocity S-wave (km/s) = 3.55123 3.60024 3.57582
# Velocity P-wave (km/s) = 6.93548 7.22408 7.08125
#
# Compressibility (1/GPa) = 0.01943759
#
# Stress axis : x y z
#
# Youngs Moduli (GPa) = 59.92242 59.92242 39.47098
#
# Poissons Ratio (x) = 0.41805 0.24986
# Poissons Ratio (y) = 0.41805 0.24986
# Poissons Ratio (z) = 0.37932 0.37932
#
# Static dielectric constant tensor:
#      x y z
#    x 3.063200 0.000000 0.000000 
#    y 0.000000 3.063200 0.000000 
#    z 0.000000 0.000000 3.000580 
# 
# 
# High freq. dielectric constant tensor:
#      x y z
#    x 1.627840 0.000000 0.000000 
#    y 0.000000 1.627840 0.000000 
#    z 0.000000 0.000000 1.625410 
# 
# From -- ./inp_files/7951.got.cif
#   From: 2010.03.12/outbox.cif.g09.slc.cpg/sg191_4_cif.got.tgz:7951.got - 2010.04.01 12:09:02.
