data_PCOD8328046
_publ_section_title
;
Structure prediction by ZEFSAII (Michael W. Deem and Ramdas Pophale) SiO2 
 PCOD8328046
Probable space group: P -6 2 C
;
_chemical_formula_sum "Si O2"
_cell_formula_units_Z 78
_cell_length_a 23.927822
_cell_length_b 23.927822
_cell_length_c 8.440082
_cell_angle_alpha 90.000000
_cell_angle_beta 90.000000
_cell_angle_gamma 120.000000
_cell_volume 4184.886043
_symmetry_space_group_name_H-M "P -6 2 C"
_symmetry_group_IT_number 190
_symmetry_cell_setting 'hexagonal'
loop_
_space_group_symop_operation_xyz
x,y,z
-x+y,-x,1/2-z
-y,x-y,z
x,y,1/2-z
-x+y,-x,z
-y,x-y,1/2-z
x-y,-y,-z
-x,-x+y,-z
y,x,-z
y,x,1/2+z
x-y,-y,1/2+z
-x,-x+y,1/2+z
loop_
_atom_site_type_symbol
_atom_site_label
_atom_site_fract_x
_atom_site_fract_y
_atom_site_fract_z
Si Si1 0.475749 0.616300 0.070377
Si Si2 0.588655 0.068901 0.062003
Si Si3 0.679747 0.269674 0.250000
Si Si4 0.375084 0.183195 0.927644
Si Si5 0.615075 0.686102 0.933490
Si Si6 0.527470 0.268018 0.927375
Si Si7 0.066970 0.713526 0.934219
O O1 0.496166 0.613047 0.250000
O O2 0.446585 0.664053 0.058724
O O3 0.420711 0.546195 0.012066
O O4 0.539378 0.640689 0.965237
O O5 0.586135 0.072429 0.250000
O O6 0.657341 0.079947 0.998097
O O7 0.531794 0.000000 0.000000
O O8 0.609693 0.264154 0.250000
O O9 0.686119 0.237907 0.415431
O O10 0.349577 0.174085 0.750000
O O11 0.451190 0.229345 0.937954
O O12 0.356015 0.113546 0.994794
O O13 0.340652 0.215781 0.023010
O O14 0.626912 0.695339 0.750000
O O15 0.654703 0.654703 0.000000
O O16 0.548692 0.302259 0.750000
O O17 0.059288 0.704742 0.750000
O O18 0.000000 0.704569 0.000000
#
# Coordination Sequence:
#
# PCOD8328046 Si02
#       7
#    12  12   6  12  12  12  12
#     4  10  20  33  50  73  99 131 166 211 267 320
#     4  10  20  32  47  70  98 128 162 207 256 310
#     4  10  24  38  52  74  92 130 168 226 262 326
#     4  10  21  37  57  80 104 137 173 217 265 321
#     4  11  21  34  54  79 108 140 173 213 257 316
#     4   9  21  38  55  74 100 129 172 216 268 329
#     4  10  21  36  54  78 105 137 174 217 262 317
#
# _framework density 18.638501000000002
#
# number of rings (size 3 to 8) (size 9 to 14) (size 15 to 20)
#    0.154    1.846    0.000    4.615    6.462    3.692 
#    0.000    3.077    0.000    0.000    0.000    0.000 
#    0.000    0.000    0.000    0.462    0.000    6.462 
#
# Total GULP energy -966986.698415 kJ/mol
# GULP energy per Si atom -12397.265364 kJ/mol
# Density = 1.859608 g / cm^3
# Si number density = 18.638501 Si / 1000 Ang^3
#
#
#
# Elastic Constant Matrix: (Units=GPa)
#
#
# Indices 1 2 3 4 5 6 
#
# 1 36.4254 3.6626 6.5895 0.0000 0.0000 0.0000
# 2 3.6626 36.4254 6.5895 0.0000 0.0000 0.0000
# 3 6.5895 6.5895 93.9875 0.0000 0.0000 0.0000
# 4 0.0000 0.0000 0.0000 24.6011 0.0000 0.0000
# 5 0.0000 0.0000 0.0000 0.0000 24.6011 0.0000
# 6 0.0000 0.0000 0.0000 0.0000 0.0000 16.3814
#
#
#
# Elastic Compliance Matrix: (Units=1/GPa)
#
#
# Indices 1 2 3 4 5 6 
#
# 1 0.028028 -0.002494 -0.001790 0.000000 0.000000 0.000000
# 2 -0.002494 0.028028 -0.001790 0.000000 0.000000 0.000000
# 3 -0.001790 -0.001790 0.010891 0.000000 0.000000 0.000000
# 4 0.000000 0.000000 0.000000 0.040649 0.000000 0.000000
# 5 0.000000 0.000000 0.000000 0.000000 0.040649 0.000000
# 6 0.000000 0.000000 0.000000 0.000000 0.000000 0.061045
#
#
# Mechanical properties :
#
#
# Convention : Reuss Voigt Hill
#
# Bulk Modulus (GPa) = 18.24905 22.28016 20.26460
# Shear Modulus (GPa) = 20.85907 23.11650 21.98779
#
# Velocity S-wave (km/s) = 3.34898 3.52555 3.43840
# Velocity P-wave (km/s) = 4.97660 5.34345 5.16328
#
# Compressibility (1/GPa) = 0.05479736
#
# Stress axis : x y z
#
# Youngs Moduli (GPa) = 35.67860 35.67860 91.82125
#
# Poissons Ratio (x) = 0.08900 0.16438
# Poissons Ratio (y) = 0.08900 0.16438
# Poissons Ratio (z) = 0.06387 0.06387
#
# Static dielectric constant tensor:
#      x y z
#    x 3.319880 0.000000 0.000000 
#    y 0.000000 3.319880 0.000000 
#    z 0.000000 0.000000 3.645630 
# 
# 
# High freq. dielectric constant tensor:
#      x y z
#    x 1.691300 0.000000 0.000000 
#    y 0.000000 1.691300 0.000000 
#    z 0.000000 0.000000 1.748120 
# 
# From -- ./inp_files/1346.got.cif
#   From: 2010.06.25/outbox.cif.g09.slc.cpg/sg190_1_cif.got.tgz:1346.got - 2010.06.28 13:08:06.
