data_PCOD8328093
_publ_section_title
;
Structure prediction by ZEFSAII (Michael W. Deem and Ramdas Pophale) SiO2 
 PCOD8328093
Probable space group: P -6 2 C
;
_chemical_formula_sum "Si O2"
_cell_formula_units_Z 52
_cell_length_a 14.098135
_cell_length_b 14.098135
_cell_length_c 15.068189
_cell_angle_alpha 90.000000
_cell_angle_beta 90.000000
_cell_angle_gamma 120.000000
_cell_volume 2593.671802
_symmetry_space_group_name_H-M "P -6 2 C"
_symmetry_group_IT_number 190
_symmetry_cell_setting 'hexagonal'
loop_
_space_group_symop_operation_xyz
x,y,z
-x+y,-x,1/2-z
-y,x-y,z
x,y,1/2-z
-x+y,-x,z
-y,x-y,1/2-z
x-y,-y,-z
-x,-x+y,-z
y,x,-z
y,x,1/2+z
x-y,-y,1/2+z
-x,-x+y,1/2+z
loop_
_atom_site_type_symbol
_atom_site_label
_atom_site_fract_x
_atom_site_fract_y
_atom_site_fract_z
Si Si1 0.239451 0.872340 0.851950
Si Si2 0.779111 0.317262 0.499999
Si Si3 0.000000 0.000000 0.143330
Si Si4 0.208924 0.208924 0.145284
Si Si5 0.872341 0.239453 0.851950
O O1 0.254816 0.848453 0.750000
O O2 0.313130 0.841255 0.912160
O O3 0.112697 0.795723 0.883568
O O4 0.276127 1.000000 0.863972
O O5 0.781379 0.433374 0.500000
O O6 0.841256 0.313130 0.587838
O O7 0.894996 0.999995 0.103178
O O8 0.000000 0.000000 0.250000
O O9 0.198074 0.198064 0.250000
O O10 0.204279 0.316977 0.116439
O O11 0.848457 0.254823 0.750000
#
# Coordination Sequence:
#
# PCOD8328093 Si02
#       5
#    12  12   4  12  12
#     4  10  20  38  65  94 123 154 190 237 299 367
#     4  10  25  45  59  75 114 162 206 260 292 324
#     4   9  12  24  51  85 128 163 175 212 298 376
#     4   9  16  29  57  93 125 156 185 225 297 378
#     4  10  20  38  65  94 123 154 190 237 299 367
#
# _framework density 20.048795999999999
#
# number of rings (size 3 to 8) (size 9 to 14) (size 15 to 20)
#    0.462    1.846    2.308    0.692    0.000    2.769 
#    8.308    0.000    0.000    0.000    0.000    0.000 
#    0.000    0.000    0.000    0.000    0.000    0.000 
#
# Total GULP energy -644435.127414 kJ/mol
# GULP energy per Si atom -12392.983220 kJ/mol
# Density = 2.000316 g / cm^3
# Si number density = 20.048796 Si / 1000 Ang^3
#
#
#
# Elastic Constant Matrix: (Units=GPa)
#
#
# Indices 1 2 3 4 5 6 
#
# 1 75.8551 5.5221 37.3499 0.0000 0.0000 0.0000
# 2 5.5221 75.8551 37.3499 0.0000 0.0000 0.0000
# 3 37.3499 37.3499 99.9505 0.0000 0.0000 0.0000
# 4 0.0000 0.0000 0.0000 26.7466 0.0000 0.0000
# 5 0.0000 0.0000 0.0000 0.0000 26.7466 0.0000
# 6 0.0000 0.0000 0.0000 0.0000 0.0000 35.1665
#
#
#
# Elastic Compliance Matrix: (Units=1/GPa)
#
#
# Indices 1 2 3 4 5 6 
#
# 1 0.016461 0.002243 -0.006990 0.000000 0.000000 0.000000
# 2 0.002243 0.016461 -0.006990 0.000000 0.000000 0.000000
# 3 -0.006990 -0.006990 0.015229 0.000000 0.000000 0.000000
# 4 0.000000 0.000000 0.000000 0.037388 0.000000 0.000000
# 5 0.000000 0.000000 0.000000 0.000000 0.037388 0.000000
# 6 0.000000 0.000000 0.000000 0.000000 0.000000 0.028436
#
#
# Mechanical properties :
#
#
# Convention : Reuss Voigt Hill
#
# Bulk Modulus (GPa) = 40.51957 45.78940 43.15448
# Shear Modulus (GPa) = 27.31320 29.16119 28.23720
#
# Velocity S-wave (km/s) = 3.69499 3.81794 3.75697
# Velocity P-wave (km/s) = 6.20147 6.50570 6.35541
#
# Compressibility (1/GPa) = 0.02467943
#
# Stress axis : x y z
#
# Youngs Moduli (GPa) = 60.74866 60.74866 65.66542
#
# Poissons Ratio (x) = -0.13627 0.45897
# Poissons Ratio (y) = -0.13627 0.45897
# Poissons Ratio (z) = 0.42461 0.42461
#
# Static dielectric constant tensor:
#      x y z
#    x 3.514250 0.000000 0.000000 
#    y 0.000000 3.514250 0.000000 
#    z 0.000000 0.000000 3.394380 
# 
# 
# High freq. dielectric constant tensor:
#      x y z
#    x 1.766340 0.000000 0.000000 
#    y 0.000000 1.766340 0.000000 
#    z 0.000000 0.000000 1.776100 
# 
# From -- ./inp_files/2700.got.cif
#   From: 2010.06.25/outbox.cif.g09.slc.cpg/sg190_2_cif.got.tgz:2700.got - 2010.06.28 13:08:06.
