data_PCOD8328221
_publ_section_title
;
Structure prediction by ZEFSAII (Michael W. Deem and Ramdas Pophale) SiO2 
 PCOD8328221
Probable space group: P 6/M M M
;
_chemical_formula_sum "Si O2"
_cell_formula_units_Z 120
_cell_length_a 26.961509
_cell_length_b 26.961509
_cell_length_c 12.188818
_cell_angle_alpha 90.000000
_cell_angle_beta 90.000000
_cell_angle_gamma 120.000000
_cell_volume 7673.272383
_symmetry_space_group_name_H-M "P 6/M M M"
_symmetry_group_IT_number 191
_symmetry_cell_setting 'hexagonal'
loop_
_space_group_symop_operation_xyz
x,y,z
x-y,x,z
-y,x-y,z
-x,-y,z
-x+y,-x,z
y,-x+y,z
x-y,-y,-z
-x,-x+y,-z
y,x,-z
-y,-x,-z
-x+y,y,-z
x,x-y,-z
-x,-y,-z
-x+y,-x,-z
y,-x+y,-z
x,y,-z
x-y,x,-z
-y,x-y,-z
-x+y,y,z
x,x-y,z
-y,-x,z
y,x,z
x-y,-y,z
-x,-x+y,z
loop_
_atom_site_type_symbol
_atom_site_label
_atom_site_fract_x
_atom_site_fract_y
_atom_site_fract_z
Si Si1 0.111753 0.772238 0.000000
Si Si2 0.645436 0.580147 0.000000
Si Si3 0.934099 0.681960 0.233387
Si Si4 0.474567 0.636554 0.627947
Si Si5 0.064149 0.630048 0.236364
Si Si6 0.341225 0.170613 0.369270
Si Si7 0.236527 0.763474 0.630082
O O1 0.111628 0.712592 0.000000
O O2 0.079780 0.774600 0.110574
O O3 0.176953 0.823048 0.000000
O O4 0.617071 0.543618 0.109815
O O5 0.635912 0.635912 0.000000
O O6 0.921932 0.617291 0.244300
O O7 0.893617 0.689548 0.320991
O O8 0.000000 0.727513 0.261298
O O9 0.488507 0.640164 0.500000
O O10 0.407643 0.592357 0.651424
O O11 0.513049 0.614901 0.686199
O O12 0.492149 0.698833 0.675835
O O13 0.000000 0.587693 0.275425
O O14 0.335254 0.167627 0.500000
O O15 0.407525 0.203763 0.329405
O O16 0.237073 0.762928 0.500000
#
# Coordination Sequence:
#
# PCOD8328221 Si02
#       7
#    12  12  24  24  24  12  12
#     4  10  16  26  46  70  94 126 165 202 240 277
#     4   8  16  30  45  66  96 125 154 190 227 269
#     4  10  19  31  47  70  99 129 163 203 242 284
#     4  10  20  33  49  68  90 117 149 192 242 286
#     4   9  17  30  48  68  94 124 151 186 231 279
#     4  11  20  31  49  71  95 132 168 196 239 289
#     4   9  18  34  49  65  91 117 152 198 235 289
#
# _framework density 15.6387
#
# number of rings (size 3 to 8) (size 9 to 14) (size 15 to 20)
#    0.000    2.400    3.000    2.100    0.000    1.200 
#    0.600    3.500    0.000    1.800    0.000    0.000 
#    0.000    0.000    0.000    0.300    0.000    2.600 
#
# Total GULP energy -1487393.950325 kJ/mol
# GULP energy per Si atom -12394.949586 kJ/mol
# Density = 1.560311 g / cm^3
# Si number density = 15.638700 Si / 1000 Ang^3
#
#
#
# Elastic Constant Matrix: (Units=GPa)
#
#
# Indices 1 2 3 4 5 6 
#
# 1 82.1981 39.0385 37.1989 0.0000 0.0000 0.0000
# 2 39.0385 82.1981 37.1989 0.0000 0.0000 0.0000
# 3 37.1989 37.1989 75.2106 0.0000 0.0000 0.0000
# 4 0.0000 0.0000 0.0000 20.7857 0.0000 0.0000
# 5 0.0000 0.0000 0.0000 0.0000 20.7857 0.0000
# 6 0.0000 0.0000 0.0000 0.0000 0.0000 21.5798
#
#
#
# Elastic Compliance Matrix: (Units=1/GPa)
#
#
# Indices 1 2 3 4 5 6 
#
# 1 0.017506 -0.005664 -0.005857 0.000000 0.000000 0.000000
# 2 -0.005664 0.017506 -0.005857 0.000000 0.000000 0.000000
# 3 -0.005857 -0.005857 0.019090 0.000000 0.000000 0.000000
# 4 0.000000 0.000000 0.000000 0.048110 0.000000 0.000000
# 5 0.000000 0.000000 0.000000 0.000000 0.048110 0.000000
# 6 0.000000 0.000000 0.000000 0.000000 0.000000 0.046340
#
#
# Mechanical properties :
#
#
# Convention : Reuss Voigt Hill
#
# Bulk Modulus (GPa) = 51.69012 51.83105 51.76058
# Shear Modulus (GPa) = 21.02010 21.04161 21.03085
#
# Velocity S-wave (km/s) = 3.67019 3.67206 3.67112
# Velocity P-wave (km/s) = 7.14736 7.15496 7.15116
#
# Compressibility (1/GPa) = 0.01934606
#
# Stress axis : x y z
#
# Youngs Moduli (GPa) = 57.12232 57.12232 52.38329
#
# Poissons Ratio (x) = 0.32351 0.30683
# Poissons Ratio (y) = 0.32351 0.30683
# Poissons Ratio (z) = 0.33459 0.33459
#
# Static dielectric constant tensor:
#      x y z
#    x 2.871940 0.000000 0.000000 
#    y 0.000000 2.871940 0.000000 
#    z 0.000000 0.000000 3.060890 
# 
# 
# High freq. dielectric constant tensor:
#      x y z
#    x 1.577520 0.000000 0.000000 
#    y 0.000000 1.577520 0.000000 
#    z 0.000000 0.000000 1.603400 
# 
# From -- ./inp_files/3318.got.cif
#   From: 2010.03.12/outbox.cif.g09.slc.cpg/sg191_2_cif.got.tgz:3318.got - 2010.04.01 12:09:02.
