data_PCOD8328564
_publ_section_title
;
Structure prediction by ZEFSAII (Michael W. Deem and Ramdas Pophale) SiO2 
 PCOD8328564
Probable space group: P 6/M M M
;
_chemical_formula_sum "Si O2"
_cell_formula_units_Z 168
_cell_length_a 28.641085
_cell_length_b 28.641085
_cell_length_c 12.879510
_cell_angle_alpha 90.000000
_cell_angle_beta 90.000000
_cell_angle_gamma 120.000000
_cell_volume 9149.743190
_symmetry_space_group_name_H-M "P 6/M M M"
_symmetry_group_IT_number 191
_symmetry_cell_setting 'hexagonal'
loop_
_space_group_symop_operation_xyz
x,y,z
x-y,x,z
-y,x-y,z
-x,-y,z
-x+y,-x,z
y,-x+y,z
x-y,-y,-z
-x,-x+y,-z
y,x,-z
-y,-x,-z
-x+y,y,-z
x,x-y,-z
-x,-y,-z
-x+y,-x,-z
y,-x+y,-z
x,y,-z
x-y,x,-z
-y,x-y,-z
-x+y,y,z
x,x-y,z
-y,-x,z
y,x,z
x-y,-y,z
-x,-x+y,z
loop_
_atom_site_type_symbol
_atom_site_label
_atom_site_fract_x
_atom_site_fract_y
_atom_site_fract_z
Si Si1 0.667666 0.440403 0.500000
Si Si2 0.522530 0.583709 0.218578
Si Si3 0.064152 0.658856 0.613784
Si Si4 0.148267 0.675757 0.116025
Si Si5 0.644234 0.875843 0.116573
Si Si6 0.241341 0.304323 0.313218
Si Si7 0.829371 0.765918 0.500000
Si Si8 0.225878 0.668124 0.275278
O O1 0.609374 0.390627 0.500000
O O2 0.709369 0.418737 0.500000
O O3 0.673683 0.470480 0.389515
O O4 0.466427 0.533574 0.255758
O O5 0.564918 0.564918 0.187780
O O6 0.543931 0.628024 0.310189
O O7 0.514577 0.613768 0.120820
O O8 0.086960 0.658033 0.500000
O O9 0.085561 0.720742 0.644569
O O10 0.000000 0.627737 0.612370
O O11 0.123007 0.713228 0.145727
O O12 0.195929 0.684518 0.191273
O O13 0.171880 0.688475 0.000000
O O14 0.628334 0.814167 0.120373
O O15 0.691032 0.909414 0.201197
O O16 0.664625 0.899653 0.000000
O O17 0.275462 0.275462 0.292267
O O18 0.194712 0.270657 0.397085
O O19 0.813996 0.813996 0.500000
O O20 0.894478 0.788956 0.500000
O O21 0.216236 0.608118 0.256132
O O22 0.289518 0.710482 0.266141
#
# Coordination Sequence:
#
# PCOD8328564 Si02
#       8
#    12  24  24  24  24  24  12  24
#     4   8  15  30  53  77  96 113 139 181 236 297
#     4  10  21  36  53  73  96 127 169 213 261 319
#     4   9  16  30  51  74 102 132 164 207 260 316
#     4  11  23  38  54  71  98 134 169 210 261 317
#     4  10  21  36  53  73 100 137 179 222 270 327
#     4  10  18  32  55  82 110 141 180 227 276 322
#     4  10  20  34  57  90 126 163 199 237 280 323
#     4  10  20  36  57  78  98 122 156 201 256 318
#
# _framework density 18.361170999999999
#
# number of rings (size 3 to 8) (size 9 to 14) (size 15 to 20)
#    0.000    2.143    2.143    1.500    0.000    4.000 
#    1.286    4.286    0.000    1.786    0.000    0.000 
#    0.000    0.000    0.000    0.000    0.000    0.000 
#
# Total GULP energy -2081858.050071 kJ/mol
# GULP energy per Si atom -12392.012203 kJ/mol
# Density = 1.831938 g / cm^3
# Si number density = 18.361171 Si / 1000 Ang^3
#
#
#
# Elastic Constant Matrix: (Units=GPa)
#
#
# Indices 1 2 3 4 5 6 
#
# 1 65.9940 22.9138 37.5419 0.0000 0.0000 0.0000
# 2 22.9138 65.9940 37.5419 0.0000 0.0000 0.0000
# 3 37.5419 37.5419 129.2770 0.0000 0.0000 0.0000
# 4 0.0000 0.0000 0.0000 25.1706 0.0000 0.0000
# 5 0.0000 0.0000 0.0000 0.0000 25.1706 0.0000
# 6 0.0000 0.0000 0.0000 0.0000 0.0000 21.5401
#
#
#
# Elastic Compliance Matrix: (Units=1/GPa)
#
#
# Indices 1 2 3 4 5 6 
#
# 1 0.019057 -0.004155 -0.004328 0.000000 0.000000 0.000000
# 2 -0.004155 0.019057 -0.004328 0.000000 0.000000 0.000000
# 3 -0.004328 -0.004328 0.010249 0.000000 0.000000 0.000000
# 4 0.000000 0.000000 0.000000 0.039729 0.000000 0.000000
# 5 0.000000 0.000000 0.000000 0.000000 0.039729 0.000000
# 6 0.000000 0.000000 0.000000 0.000000 0.000000 0.046425
#
#
# Mechanical properties :
#
#
# Convention : Reuss Voigt Hill
#
# Bulk Modulus (GPa) = 43.96963 50.80670 47.38816
# Shear Modulus (GPa) = 24.10240 25.26075 24.68158
#
# Velocity S-wave (km/s) = 3.62703 3.71316 3.67035
# Velocity P-wave (km/s) = 6.44511 6.79075 6.62019
#
# Compressibility (1/GPa) = 0.02274297
#
# Stress axis : x y z
#
# Youngs Moduli (GPa) = 52.47301 52.47301 97.57244
#
# Poissons Ratio (x) = 0.21803 0.42226
# Poissons Ratio (y) = 0.21803 0.42226
# Poissons Ratio (z) = 0.22708 0.22708
#
# Static dielectric constant tensor:
#      x y z
#    x 3.170710 0.000000 0.000000 
#    y 0.000000 3.170710 0.000000 
#    z 0.000000 0.000000 3.732340 
# 
# 
# High freq. dielectric constant tensor:
#      x y z
#    x 1.689060 0.000000 0.000000 
#    y 0.000000 1.689060 0.000000 
#    z 0.000000 0.000000 1.725190 
# 
# From -- ./inp_files/3664.got.cif
#   From: 2010.03.12/outbox.cif.g09.slc.cpg/sg191_2_cif.got.tgz:3664.got - 2010.04.01 12:09:02.
