data_PCOD8328003
_publ_section_title
;
Structure prediction by ZEFSAII (Michael W. Deem and Ramdas Pophale) SiO2 
 PCOD8328003
Probable space group: P -6 2 C
;
_chemical_formula_sum "Si O2"
_cell_formula_units_Z 76
_cell_length_a 18.091604
_cell_length_b 18.091604
_cell_length_c 14.683705
_cell_angle_alpha 90.000000
_cell_angle_beta 90.000000
_cell_angle_gamma 120.000000
_cell_volume 4162.175885
_symmetry_space_group_name_H-M "P -6 2 C"
_symmetry_group_IT_number 190
_symmetry_cell_setting 'hexagonal'
loop_
_space_group_symop_operation_xyz
x,y,z
-x+y,-x,1/2-z
-y,x-y,z
x,y,1/2-z
-x+y,-x,z
-y,x-y,1/2-z
x-y,-y,-z
-x,-x+y,-z
y,x,-z
y,x,1/2+z
x-y,-y,1/2+z
-x,-x+y,1/2+z
loop_
_atom_site_type_symbol
_atom_site_label
_atom_site_fract_x
_atom_site_fract_y
_atom_site_fract_z
Si Si1 0.159165 0.638774 0.147031
Si Si2 0.833752 0.843589 0.149821
Si Si3 0.171039 0.303169 0.849583
Si Si4 0.000000 0.000000 0.606493
Si Si5 0.694991 0.032838 0.597766
Si Si6 0.133392 0.325080 0.454482
Si Si7 0.513298 0.693969 0.141205
O O1 0.184531 0.636465 0.250000
O O2 0.069162 0.637428 0.141713
O O3 0.237740 0.724273 0.104927
O O4 0.154553 0.554610 0.103319
O O5 0.789801 0.827872 0.250000
O O6 0.886339 0.793201 0.141414
O O7 0.764184 0.812749 0.068630
O O8 0.903541 0.942639 0.141247
O O9 0.165178 0.341543 0.750000
O O10 0.261973 0.306864 0.847808
O O11 0.157643 0.348824 0.938249
O O12 0.000000 0.000000 0.500000
O O13 0.791925 0.108622 0.595017
O O14 0.654543 0.000000 0.500000
O O15 0.118708 0.397787 0.409224
O O16 0.527012 0.698334 0.250000
#
# Coordination Sequence:
#
# PCOD8328003 Si02
#       7
#    12  12  12   4  12  12  12
#     4   9  16  28  48  74 102 127 153 192 243 298
#     4  11  22  34  48  68  95 128 167 206 245 286
#     4  10  20  33  49  68  93 129 171 209 242 284
#     4  12  22  32  46  66  94 128 167 209 241 273
#     4   9  18  31  48  70  96 128 168 205 242 287
#     4  10  19  33  49  69  97 130 163 203 250 297
#     4   9  17  29  49  77 104 128 155 192 245 305
#
# _framework density 18.259681
#
# number of rings (size 3 to 8) (size 9 to 14) (size 15 to 20)
#    0.000    2.211    0.000    4.105    0.000    5.684 
#    0.000    1.579    0.000    0.000    0.000    9.947 
#    0.000    0.000    0.000    0.947    0.000   14.211 
#
# Total GULP energy -941578.231496 kJ/mol
# GULP energy per Si atom -12389.187257 kJ/mol
# Density = 1.821812 g / cm^3
# Si number density = 18.259681 Si / 1000 Ang^3
#
#
#
# Elastic Constant Matrix: (Units=GPa)
#
#
# Indices 1 2 3 4 5 6 
#
# 1 100.5980 45.9694 30.4628 0.0000 0.0000 0.0000
# 2 45.9694 100.5980 30.4628 0.0000 0.0000 0.0000
# 3 30.4628 30.4628 97.3216 0.0000 0.0000 0.0000
# 4 0.0000 0.0000 0.0000 20.6198 0.0000 0.0000
# 5 0.0000 0.0000 0.0000 0.0000 20.6198 0.0000
# 6 0.0000 0.0000 0.0000 0.0000 0.0000 27.3143
#
#
#
# Elastic Compliance Matrix: (Units=1/GPa)
#
#
# Indices 1 2 3 4 5 6 
#
# 1 0.013074 -0.005231 -0.002455 0.000000 0.000000 0.000000
# 2 -0.005231 0.013074 -0.002455 0.000000 0.000000 0.000000
# 3 -0.002455 -0.002455 0.011812 0.000000 0.000000 0.000000
# 4 0.000000 0.000000 0.000000 0.048497 0.000000 0.000000
# 5 0.000000 0.000000 0.000000 0.000000 0.048497 0.000000
# 6 0.000000 0.000000 0.000000 0.000000 0.000000 0.036611
#
#
# Mechanical properties :
#
#
# Convention : Reuss Voigt Hill
#
# Bulk Modulus (GPa) = 56.56567 56.92307 56.74437
# Shear Modulus (GPa) = 25.28556 26.48559 25.88558
#
# Velocity S-wave (km/s) = 3.72529 3.81267 3.76924
# Velocity P-wave (km/s) = 7.03914 7.11504 7.07719
#
# Compressibility (1/GPa) = 0.01767857
#
# Stress axis : x y z
#
# Youngs Moduli (GPa) = 76.48545 76.48545 84.65867
#
# Poissons Ratio (x) = 0.40010 0.20784
# Poissons Ratio (y) = 0.40010 0.20784
# Poissons Ratio (z) = 0.18778 0.18778
#
# Static dielectric constant tensor:
#      x y z
#    x 3.052110 0.000000 0.000000 
#    y 0.000000 3.052110 0.000000 
#    z 0.000000 0.000000 3.443580 
# 
# 
# High freq. dielectric constant tensor:
#      x y z
#    x 1.686970 0.000000 0.000000 
#    y 0.000000 1.686970 0.000000 
#    z 0.000000 0.000000 1.704340 
# 
# From -- ./inp_files/3072.got.cif
#   From: 2010.06.25/outbox.cif.g09.slc.cpg/sg190_2_cif.got.tgz:3072.got - 2010.06.28 13:08:06.
