data_PCOD8328467
_publ_section_title
;
Structure prediction by ZEFSAII (Michael W. Deem and Ramdas Pophale) SiO2 
 PCOD8328467
Probable space group: P 6/M M M
;
_chemical_formula_sum "Si O2"
_cell_formula_units_Z 108
_cell_length_a 18.060164
_cell_length_b 18.060164
_cell_length_c 24.317923
_cell_angle_alpha 90.000000
_cell_angle_beta 90.000000
_cell_angle_gamma 120.000000
_cell_volume 6869.110301
_symmetry_space_group_name_H-M "P 6/M M M"
_symmetry_group_IT_number 191
_symmetry_cell_setting 'hexagonal'
loop_
_space_group_symop_operation_xyz
x,y,z
x-y,x,z
-y,x-y,z
-x,-y,z
-x+y,-x,z
y,-x+y,z
x-y,-y,-z
-x,-x+y,-z
y,x,-z
-y,-x,-z
-x+y,y,-z
x,x-y,-z
-x,-y,-z
-x+y,-x,-z
y,-x+y,-z
x,y,-z
x-y,x,-z
-y,x-y,-z
-x+y,y,z
x,x-y,z
-y,-x,z
y,x,z
x-y,-y,z
-x,-x+y,z
loop_
_atom_site_type_symbol
_atom_site_label
_atom_site_fract_x
_atom_site_fract_y
_atom_site_fract_z
Si Si1 0.163589 0.497007 0.563096
Si Si2 0.163843 0.668701 0.872226
Si Si3 0.588101 0.588101 0.937770
Si Si4 0.367167 0.900806 0.246439
Si Si5 0.736204 0.639252 0.346859
O O1 0.136369 0.471735 0.500000
O O2 0.262308 0.524616 0.572350
O O3 0.151514 0.575757 0.581102
O O4 0.102313 0.414969 0.599420
O O5 0.176126 0.588063 0.882736
O O6 0.247446 0.752555 0.893636
O O7 0.151670 0.679579 0.807836
O O8 0.083920 0.660093 0.906792
O O9 0.500000 0.500000 0.935691
O O10 0.617995 0.617995 0.000000
O O11 0.439175 0.878349 0.266146
O O12 0.298473 0.875497 0.294491
O O13 0.411093 0.000000 0.231048
O O14 0.838189 0.676378 0.351291
O O15 0.717876 0.717876 0.341752
#
# Coordination Sequence:
#
# PCOD8328467 Si02
#       5
#    24  24  12  24  24
#     4   9  17  29  45  66  93 124 154 182 214 256
#     4  10  18  29  45  66  90 118 152 188 222 259
#     4   9  18  32  46  60  84 118 150 182 224 264
#     4   9  16  28  46  67  91 118 145 173 211 261
#     4  10  20  32  46  65  88 115 148 187 229 270
#
# _framework density 15.72256
#
# number of rings (size 3 to 8) (size 9 to 14) (size 15 to 20)
#    0.000    2.556    1.111    1.778    0.000    3.111 
#    0.000    1.111    0.000    8.667    0.000    0.000 
#    0.000    0.000    0.000    5.889    0.000    1.444 
#
# Total GULP energy -1339173.194900 kJ/mol
# GULP energy per Si atom -12399.751805 kJ/mol
# Density = 1.568677 g / cm^3
# Si number density = 15.722560 Si / 1000 Ang^3
#
#
#
# Elastic Constant Matrix: (Units=GPa)
#
#
# Indices 1 2 3 4 5 6 
#
# 1 83.3715 44.3608 40.0798 0.0000 0.0000 0.0000
# 2 44.3608 83.3715 40.0798 0.0000 0.0000 0.0000
# 3 40.0798 40.0798 76.1898 0.0000 0.0000 0.0000
# 4 0.0000 0.0000 0.0000 15.1671 0.0000 0.0000
# 5 0.0000 0.0000 0.0000 0.0000 15.1671 0.0000
# 6 0.0000 0.0000 0.0000 0.0000 0.0000 19.5054
#
#
#
# Elastic Compliance Matrix: (Units=1/GPa)
#
#
# Indices 1 2 3 4 5 6 
#
# 1 0.018661 -0.006973 -0.006148 0.000000 0.000000 0.000000
# 2 -0.006973 0.018661 -0.006148 0.000000 0.000000 0.000000
# 3 -0.006148 -0.006148 0.019593 0.000000 0.000000 0.000000
# 4 0.000000 0.000000 0.000000 0.065932 0.000000 0.000000
# 5 0.000000 0.000000 0.000000 0.000000 0.065932 0.000000
# 6 0.000000 0.000000 0.000000 0.000000 0.000000 0.051268
#
#
# Mechanical properties :
#
#
# Convention : Reuss Voigt Hill
#
# Bulk Modulus (GPa) = 54.41997 54.66371 54.54184
# Shear Modulus (GPa) = 17.56168 17.86209 17.71188
#
# Velocity S-wave (km/s) = 3.34574 3.37424 3.36002
# Velocity P-wave (km/s) = 7.04366 7.07275 7.05822
#
# Compressibility (1/GPa) = 0.01837561
#
# Stress axis : x y z
#
# Youngs Moduli (GPa) = 53.58896 53.58896 51.03735
#
# Poissons Ratio (x) = 0.37370 0.31378
# Poissons Ratio (y) = 0.37370 0.31378
# Poissons Ratio (z) = 0.32947 0.32947
#
# Static dielectric constant tensor:
#      x y z
#    x 2.791540 0.000000 0.000000 
#    y 0.000000 2.791540 0.000000 
#    z 0.000000 0.000000 3.084040 
# 
# 
# High freq. dielectric constant tensor:
#      x y z
#    x 1.579910 0.000000 0.000000 
#    y 0.000000 1.579910 0.000000 
#    z 0.000000 0.000000 1.612510 
# 
# From -- ./inp_files/8340.got.cif
#   From: 2010.03.12/outbox.cif.g09.slc.cpg/sg191_5_cif.got.tgz:8340.got - 2010.04.01 12:09:02.
