data_PCOD8328357
_publ_section_title
;
Structure prediction by ZEFSAII (Michael W. Deem and Ramdas Pophale) SiO2 
 PCOD8328357
Probable space group: P 6/M M M
;
_chemical_formula_sum "Si O2"
_cell_formula_units_Z 108
_cell_length_a 26.237270
_cell_length_b 26.237270
_cell_length_c 11.684897
_cell_angle_alpha 90.000000
_cell_angle_beta 90.000000
_cell_angle_gamma 120.000000
_cell_volume 6966.149799
_symmetry_space_group_name_H-M "P 6/M M M"
_symmetry_group_IT_number 191
_symmetry_cell_setting 'hexagonal'
loop_
_space_group_symop_operation_xyz
x,y,z
x-y,x,z
-y,x-y,z
-x,-y,z
-x+y,-x,z
y,-x+y,z
x-y,-y,-z
-x,-x+y,-z
y,x,-z
-y,-x,-z
-x+y,y,-z
x,x-y,-z
-x,-y,-z
-x+y,-x,-z
y,-x+y,-z
x,y,-z
x-y,x,-z
-y,x-y,-z
-x+y,y,z
x,x-y,z
-y,-x,z
y,x,z
x-y,-y,z
-x,-x+y,z
loop_
_atom_site_type_symbol
_atom_site_label
_atom_site_fract_x
_atom_site_fract_y
_atom_site_fract_z
Si Si1 0.068925 0.432720 0.749353
Si Si2 0.069875 0.534938 0.128701
Si Si3 0.307793 0.212559 0.500000
Si Si4 0.876504 0.240094 0.867543
Si Si5 0.661483 0.594488 0.500000
Si Si6 0.180918 0.246077 0.734691
O O1 0.092919 0.496112 0.807471
O O2 0.107242 0.405177 0.795601
O O3 0.080014 0.445019 0.613460
O O4 0.000000 0.388594 0.776981
O O5 0.000000 0.500000 0.129544
O O6 0.094806 0.547403 0.000000
O O7 0.322156 0.161078 0.500000
O O8 0.372635 0.268508 0.500000
O O9 0.271693 0.210077 0.387992
O O10 0.807996 0.192005 0.845692
O O11 0.916682 0.212878 0.829765
O O12 0.889141 0.257370 0.000000
O O13 0.646815 0.646815 0.500000
O O14 0.110846 0.221692 0.733640
O O15 0.192381 0.192381 0.763756
#
# Coordination Sequence:
#
# PCOD8328357 Si02
#       6
#    24  12  12  24  12  24
#     4  10  19  30  46  65  90 122 152 184 219 261
#     4   9  18  31  45  63  87 120 159 185 207 249
#     4  10  18  28  44  65  90 118 149 185 225 276
#     4  10  20  31  44  65  91 118 150 188 231 278
#     4  10  18  27  42  64  88 116 149 180 219 263
#     4  10  19  30  45  64  87 116 151 191 235 285
#
# _framework density 15.503541999999999
#
# number of rings (size 3 to 8) (size 9 to 14) (size 15 to 20)
#    0.000    2.111    2.222    2.333    0.000    3.111 
#    0.000    2.222    0.000    0.222    0.000    0.000 
#    1.111    2.667    1.333    5.556    1.556    0.000 
#
# Total GULP energy -1339082.247698 kJ/mol
# GULP energy per Si atom -12398.909701 kJ/mol
# Density = 1.546826 g / cm^3
# Si number density = 15.503542 Si / 1000 Ang^3
#
#
#
# Elastic Constant Matrix: (Units=GPa)
#
#
# Indices 1 2 3 4 5 6 
#
# 1 80.4108 34.1571 38.5405 0.0000 0.0000 0.0000
# 2 34.1571 80.4108 38.5405 0.0000 0.0000 0.0000
# 3 38.5405 38.5405 113.7192 0.0000 0.0000 0.0000
# 4 0.0000 0.0000 0.0000 15.4203 0.0000 0.0000
# 5 0.0000 0.0000 0.0000 0.0000 15.4203 0.0000
# 6 0.0000 0.0000 0.0000 0.0000 0.0000 23.1269
#
#
#
# Elastic Compliance Matrix: (Units=1/GPa)
#
#
# Indices 1 2 3 4 5 6 
#
# 1 0.016463 -0.005157 -0.003832 0.000000 0.000000 0.000000
# 2 -0.005157 0.016463 -0.003832 0.000000 0.000000 0.000000
# 3 -0.003832 -0.003832 0.011391 0.000000 0.000000 0.000000
# 4 0.000000 0.000000 0.000000 0.064850 0.000000 0.000000
# 5 0.000000 0.000000 0.000000 0.000000 0.064850 0.000000
# 6 0.000000 0.000000 0.000000 0.000000 0.000000 0.043240
#
#
# Mechanical properties :
#
#
# Convention : Reuss Voigt Hill
#
# Bulk Modulus (GPa) = 53.54344 55.22411 54.38377
# Shear Modulus (GPa) = 20.07042 21.68033 20.87537
#
# Velocity S-wave (km/s) = 3.60192 3.74359 3.67344
# Velocity P-wave (km/s) = 7.20483 7.37452 7.29017
#
# Compressibility (1/GPa) = 0.01867643
#
# Stress axis : x y z
#
# Youngs Moduli (GPa) = 60.74153 60.74153 87.78922
#
# Poissons Ratio (x) = 0.31322 0.33640
# Poissons Ratio (y) = 0.31322 0.33640
# Poissons Ratio (z) = 0.23275 0.23275
#
# Static dielectric constant tensor:
#      x y z
#    x 2.802140 0.000000 0.000000 
#    y 0.000000 2.802140 0.000000 
#    z 0.000000 0.000000 3.294840 
# 
# 
# High freq. dielectric constant tensor:
#      x y z
#    x 1.568540 0.000000 0.000000 
#    y 0.000000 1.568540 0.000000 
#    z 0.000000 0.000000 1.615380 
# 
# From -- ./inp_files/3006.got.cif
#   From: 2010.03.12/outbox.cif.g09.slc.cpg/sg191_2_cif.got.tgz:3006.got - 2010.04.01 12:09:02.
