data_PCOD8328884
_publ_section_title
;
Structure prediction by ZEFSAII (Michael W. Deem and Ramdas Pophale) SiO2 
 PCOD8328884
Probable space group: P 6/M M M
;
_chemical_formula_sum "Si O2"
_cell_formula_units_Z 144
_cell_length_a 22.610052
_cell_length_b 22.610052
_cell_length_c 22.458193
_cell_angle_alpha 90.000000
_cell_angle_beta 90.000000
_cell_angle_gamma 120.000000
_cell_volume 9942.796797
_symmetry_space_group_name_H-M "P 6/M M M"
_symmetry_group_IT_number 191
_symmetry_cell_setting 'hexagonal'
loop_
_space_group_symop_operation_xyz
x,y,z
x-y,x,z
-y,x-y,z
-x,-y,z
-x+y,-x,z
y,-x+y,z
x-y,-y,-z
-x,-x+y,-z
y,x,-z
-y,-x,-z
-x+y,y,-z
x,x-y,-z
-x,-y,-z
-x+y,-x,-z
y,-x+y,-z
x,y,-z
x-y,x,-z
-y,x-y,-z
-x+y,y,z
x,x-y,z
-y,-x,z
y,x,z
x-y,-y,z
-x,-x+y,z
loop_
_atom_site_type_symbol
_atom_site_label
_atom_site_fract_x
_atom_site_fract_y
_atom_site_fract_z
Si Si1 0.568269 0.568269 0.934154
Si Si2 0.195713 0.666439 0.650751
Si Si3 0.391908 0.924258 0.566959
Si Si4 0.288308 0.078192 0.069441
Si Si5 0.799633 0.466594 0.213667
Si Si6 0.309215 0.870530 0.891494
Si Si7 0.466104 0.796125 0.000000
O O1 0.500000 0.500000 0.945704
O O2 0.554630 0.617814 0.894738
O O3 0.599638 0.599638 0.000000
O O4 0.210943 0.605472 0.636079
O O5 0.262840 0.737161 0.634801
O O6 0.133281 0.661351 0.611764
O O7 0.173421 0.662461 0.719389
O O8 0.361922 0.906784 0.500000
O O9 0.462296 0.924592 0.569822
O O10 0.406449 0.000000 0.585295
O O11 0.257264 0.128632 0.081777
O O12 0.360115 0.109809 0.103761
O O13 0.235307 0.000000 0.090544
O O14 0.304000 0.077798 0.000000
O O15 0.718403 0.436805 0.212322
O O16 0.813442 0.406721 0.190982
O O17 0.836936 0.533216 0.172405
O O18 0.306016 0.820296 0.942795
O O19 0.410935 0.821870 0.000000
O O20 0.427133 0.713567 0.000000
#
# Coordination Sequence:
#
# PCOD8328884 Si02
#       7
#    12  24  24  24  24  24  12
#     4  11  20  32  46  60  82 104 130 174 226 270
#     4   9  17  29  44  62  84 110 141 178 219 259
#     4   8  14  26  43  61  83 110 136 164 203 251
#     4  10  19  33  51  70  88 107 132 164 204 255
#     4  10  20  33  46  60  82 114 148 181 218 259
#     4  12  21  33  46  64  81 109 143 175 220 258
#     4  12  23  33  45  61  82 109 144 185 223 259
#
# _framework density 14.482846
#
# number of rings (size 3 to 8) (size 9 to 14) (size 15 to 20)
#    0.000    1.917    2.500    3.917    0.000    1.667 
#    1.500    1.667    0.000    1.167    0.000    1.167 
#    0.000    0.000    0.000    0.000    0.000    0.000 
#
# Total GULP energy -1784877.650144 kJ/mol
# GULP energy per Si atom -12394.983682 kJ/mol
# Density = 1.444988 g / cm^3
# Si number density = 14.482846 Si / 1000 Ang^3
#
#
#
# Elastic Constant Matrix: (Units=GPa)
#
#
# Indices 1 2 3 4 5 6 
#
# 1 83.2121 43.4068 38.5234 0.0000 0.0000 0.0000
# 2 43.4068 83.2121 38.5234 0.0000 0.0000 0.0000
# 3 38.5234 38.5234 76.3931 0.0000 0.0000 0.0000
# 4 0.0000 0.0000 0.0000 22.7980 0.0000 0.0000
# 5 0.0000 0.0000 0.0000 0.0000 22.7980 0.0000
# 6 0.0000 0.0000 0.0000 0.0000 0.0000 19.9026
#
#
#
# Elastic Compliance Matrix: (Units=1/GPa)
#
#
# Indices 1 2 3 4 5 6 
#
# 1 0.018258 -0.006864 -0.005746 0.000000 0.000000 0.000000
# 2 -0.006864 0.018258 -0.005746 0.000000 0.000000 0.000000
# 3 -0.005746 -0.005746 0.018885 0.000000 0.000000 0.000000
# 4 0.000000 0.000000 0.000000 0.043863 0.000000 0.000000
# 5 0.000000 0.000000 0.000000 0.000000 0.043863 0.000000
# 6 0.000000 0.000000 0.000000 0.000000 0.000000 0.050245
#
#
# Mechanical properties :
#
#
# Convention : Reuss Voigt Hill
#
# Bulk Modulus (GPa) = 53.50432 53.74718 53.62575
# Shear Modulus (GPa) = 21.15827 21.25730 21.20779
#
# Velocity S-wave (km/s) = 3.82634 3.83529 3.83082
# Velocity P-wave (km/s) = 7.51962 7.53685 7.52824
#
# Compressibility (1/GPa) = 0.01869008
#
# Stress axis : x y z
#
# Youngs Moduli (GPa) = 54.77011 54.77011 52.95184
#
# Poissons Ratio (x) = 0.37595 0.30425
# Poissons Ratio (y) = 0.37595 0.30425
# Poissons Ratio (z) = 0.31469 0.31469
#
# Static dielectric constant tensor:
#      x y z
#    x 2.852780 0.000000 0.000000 
#    y 0.000000 2.852780 0.000000 
#    z 0.000000 0.000000 2.782230 
# 
# 
# High freq. dielectric constant tensor:
#      x y z
#    x 1.539230 0.000000 0.000000 
#    y 0.000000 1.539230 0.000000 
#    z 0.000000 0.000000 1.535220 
# 
# From -- ./inp_files/7844.got.cif
#   From: 2010.03.12/outbox.cif.g09.slc.cpg/sg191_4_cif.got.tgz:7844.got - 2010.04.01 12:09:02.
