data_PCOD8328719
_publ_section_title
;
Structure prediction by ZEFSAII (Michael W. Deem and Ramdas Pophale) SiO2 
 PCOD8328719
Probable space group: P 6/M M M
;
_chemical_formula_sum "Si O2"
_cell_formula_units_Z 120
_cell_length_a 18.147037
_cell_length_b 18.147037
_cell_length_c 26.040374
_cell_angle_alpha 90.000000
_cell_angle_beta 90.000000
_cell_angle_gamma 120.000000
_cell_volume 7426.587436
_symmetry_space_group_name_H-M "P 6/M M M"
_symmetry_group_IT_number 191
_symmetry_cell_setting 'hexagonal'
loop_
_space_group_symop_operation_xyz
x,y,z
x-y,x,z
-y,x-y,z
-x,-y,z
-x+y,-x,z
y,-x+y,z
x-y,-y,-z
-x,-x+y,-z
y,x,-z
-y,-x,-z
-x+y,y,-z
x,x-y,-z
-x,-y,-z
-x+y,-x,-z
y,-x+y,-z
x,y,-z
x-y,x,-z
-y,x-y,-z
-x+y,y,z
x,x-y,z
-y,-x,z
y,x,z
x-y,-y,z
-x,-x+y,z
loop_
_atom_site_type_symbol
_atom_site_label
_atom_site_fract_x
_atom_site_fract_y
_atom_site_fract_z
Si Si1 0.505874 0.837066 0.283913
Si Si2 0.331352 0.831011 0.603067
Si Si3 0.365774 0.460111 0.000000
Si Si4 0.096138 0.732694 0.804167
Si Si5 0.099125 0.632934 0.500000
Si Si6 0.503075 0.668991 0.108146
O O1 0.424158 0.848316 0.275540
O O2 0.476725 0.738362 0.273614
O O3 0.545231 0.865205 0.341699
O O4 0.580683 0.896365 0.245502
O O5 0.428264 0.856528 0.599615
O O6 0.270511 0.729490 0.601538
O O7 0.310948 0.870596 0.552602
O O8 0.315334 0.459479 0.949345
O O9 0.377890 0.377890 0.000000
O O10 0.456344 0.543657 0.000000
O O11 0.166151 0.833850 0.803034
O O12 0.108100 0.687432 0.853773
O O13 0.000000 0.717693 0.805306
O O14 0.136623 0.568312 0.500000
O O15 0.000000 0.582821 0.500000
O O16 0.469370 0.734685 0.118551
O O17 0.426292 0.573709 0.117222
#
# Coordination Sequence:
#
# PCOD8328719 Si02
#       6
#    24  24  12  24  12  24
#     4   9  17  28  43  64  90 119 149 180 213 251
#     4   9  16  26  40  57  77 103 137 175 211 246
#     4   9  17  28  42  60  84 119 163 205 235 256
#     4  10  21  35  50  68  89 114 144 180 222 266
#     4   9  17  26  34  48  72 101 134 174 218 256
#     4  10  19  30  45  66  94 127 160 191 222 259
#
# _framework density 16.158162000000001
#
# number of rings (size 3 to 8) (size 9 to 14) (size 15 to 20)
#    0.000    2.600    0.000    2.400    0.000    4.800 
#    0.000    6.000    0.000    0.200    0.000    0.000 
#    0.000    0.000    0.000    0.000    0.000   20.800 
#
# Total GULP energy -1486784.448077 kJ/mol
# GULP energy per Si atom -12389.870401 kJ/mol
# Density = 1.612138 g / cm^3
# Si number density = 16.158162 Si / 1000 Ang^3
#
#
#
# Elastic Constant Matrix: (Units=GPa)
#
#
# Indices 1 2 3 4 5 6 
#
# 1 61.3884 36.2724 33.0220 0.0000 0.0000 0.0000
# 2 36.2724 61.3884 33.0220 0.0000 0.0000 0.0000
# 3 33.0220 33.0220 135.5847 0.0000 0.0000 0.0000
# 4 0.0000 0.0000 0.0000 15.8018 0.0000 0.0000
# 5 0.0000 0.0000 0.0000 0.0000 15.8018 0.0000
# 6 0.0000 0.0000 0.0000 0.0000 0.0000 12.5580
#
#
#
# Elastic Compliance Matrix: (Units=1/GPa)
#
#
# Indices 1 2 3 4 5 6 
#
# 1 0.026037 -0.013778 -0.002986 0.000000 0.000000 0.000000
# 2 -0.013778 0.026037 -0.002986 0.000000 0.000000 0.000000
# 3 -0.002986 -0.002986 0.008830 0.000000 0.000000 0.000000
# 4 0.000000 0.000000 0.000000 0.063284 0.000000 0.000000
# 5 0.000000 0.000000 0.000000 0.000000 0.063284 0.000000
# 6 0.000000 0.000000 0.000000 0.000000 0.000000 0.079631
#
#
# Mechanical properties :
#
#
# Convention : Reuss Voigt Hill
#
# Bulk Modulus (GPa) = 46.71917 51.44381 49.08149
# Shear Modulus (GPa) = 15.93698 19.23534 17.58616
#
# Velocity S-wave (km/s) = 3.14397 3.45402 3.30263
# Velocity P-wave (km/s) = 6.49275 6.91475 6.70707
#
# Compressibility (1/GPa) = 0.02140449
#
# Stress axis : x y z
#
# Youngs Moduli (GPa) = 38.40700 38.40700 113.25325
#
# Poissons Ratio (x) = 0.52918 0.33813
# Poissons Ratio (y) = 0.52918 0.33813
# Poissons Ratio (z) = 0.11467 0.11467
#
# Static dielectric constant tensor:
#      x y z
#    x 2.768090 0.000000 0.000000 
#    y 0.000000 2.768090 0.000000 
#    z 0.000000 0.000000 3.657010 
# 
# 
# High freq. dielectric constant tensor:
#      x y z
#    x 1.580080 0.000000 0.000000 
#    y 0.000000 1.580080 0.000000 
#    z 0.000000 0.000000 1.654920 
# 
# From -- ./inp_files/9626.got.cif
#   From: 2010.03.12/outbox.cif.g09.slc.cpg/sg191_5_cif.got.tgz:9626.got - 2010.04.01 12:09:02.
