data_PCOD8328051
_publ_section_title
;
Structure prediction by ZEFSAII (Michael W. Deem and Ramdas Pophale) SiO2 
 PCOD8328051
Probable space group: P -6 2 C
;
_chemical_formula_sum "Si O2"
_cell_formula_units_Z 48
_cell_length_a 19.942944
_cell_length_b 19.942944
_cell_length_c 8.782078
_cell_angle_alpha 90.000000
_cell_angle_beta 90.000000
_cell_angle_gamma 120.000000
_cell_volume 3024.868235
_symmetry_space_group_name_H-M "P -6 2 C"
_symmetry_group_IT_number 190
_symmetry_cell_setting 'hexagonal'
loop_
_space_group_symop_operation_xyz
x,y,z
-x+y,-x,1/2-z
-y,x-y,z
x,y,1/2-z
-x+y,-x,z
-y,x-y,1/2-z
x-y,-y,-z
-x,-x+y,-z
y,x,-z
y,x,1/2+z
x-y,-y,1/2+z
-x,-x+y,1/2+z
loop_
_atom_site_type_symbol
_atom_site_label
_atom_site_fract_x
_atom_site_fract_y
_atom_site_fract_z
Si Si1 0.526414 0.610528 0.569332
Si Si2 0.505710 0.353890 0.420626
Si Si3 0.201284 0.431086 0.071364
Si Si4 0.922099 0.664292 0.079356
O O1 0.528094 0.605443 0.750000
O O2 0.575947 0.575947 0.500000
O O3 0.437976 0.562145 0.508419
O O4 0.564054 0.698223 0.516308
O O5 0.532930 0.347624 0.250000
O O6 0.504314 0.285568 0.524339
O O7 0.417712 0.338991 0.414643
O O8 0.188243 0.430390 0.250000
O O9 0.196977 0.350808 0.017041
O O10 0.918086 0.692269 0.250000
O O11 0.000000 0.729443 0.000000
#
# Coordination Sequence:
#
# PCOD8328051 Si02
#       4
#    12  12  12  12
#     4  11  21  35  52  71  97 131 170 209 256 312
#     4   8  18  33  49  67  91 122 160 204 250 297
#     4  10  20  33  48  69  95 122 159 205 250 298
#     4   9  16  29  47  68  89 116 150 192 241 287
#
# _framework density 15.868460000000001
#
# number of rings (size 3 to 8) (size 9 to 14) (size 15 to 20)
#    1.500    1.000    0.000    3.750    0.000    2.000 
#    1.500    0.000    0.000    0.000    0.000    0.000 
#    0.000    0.000    0.000    0.750    0.000   10.500 
#
# Total GULP energy -594641.712340 kJ/mol
# GULP energy per Si atom -12388.369007 kJ/mol
# Density = 1.583234 g / cm^3
# Si number density = 15.868460 Si / 1000 Ang^3
#
#
#
# Elastic Constant Matrix: (Units=GPa)
#
#
# Indices 1 2 3 4 5 6 
#
# 1 62.9319 38.3297 28.2718 0.0000 0.0000 0.0000
# 2 38.3297 62.9319 28.2718 0.0000 0.0000 0.0000
# 3 28.2718 28.2718 75.3004 0.0000 0.0000 0.0000
# 4 0.0000 0.0000 0.0000 19.7047 0.0000 0.0000
# 5 0.0000 0.0000 0.0000 0.0000 19.7047 0.0000
# 6 0.0000 0.0000 0.0000 0.0000 0.0000 12.3011
#
#
#
# Elastic Compliance Matrix: (Units=1/GPa)
#
#
# Indices 1 2 3 4 5 6 
#
# 1 0.026571 -0.014076 -0.004691 0.000000 0.000000 0.000000
# 2 -0.014076 0.026571 -0.004691 0.000000 0.000000 0.000000
# 3 -0.004691 -0.004691 0.016803 0.000000 0.000000 0.000000
# 4 0.000000 0.000000 0.000000 0.050749 0.000000 0.000000
# 5 0.000000 0.000000 0.000000 0.000000 0.050749 0.000000
# 6 0.000000 0.000000 0.000000 0.000000 0.000000 0.081294
#
#
# Mechanical properties :
#
#
# Convention : Reuss Voigt Hill
#
# Bulk Modulus (GPa) = 43.42600 43.43455 43.43028
# Shear Modulus (GPa) = 16.26915 17.42813 16.84864
#
# Velocity S-wave (km/s) = 3.20543 3.31764 3.26202
# Velocity P-wave (km/s) = 6.41290 6.48897 6.45105
#
# Compressibility (1/GPa) = 0.02302768
#
# Stress axis : x y z
#
# Youngs Moduli (GPa) = 37.63514 37.63514 59.51364
#
# Poissons Ratio (x) = 0.52975 0.27920
# Poissons Ratio (y) = 0.52975 0.27920
# Poissons Ratio (z) = 0.17656 0.17656
#
# Static dielectric constant tensor:
#      x y z
#    x 2.739290 0.000000 0.000000 
#    y 0.000000 2.739290 0.000000 
#    z 0.000000 0.000000 3.012660 
# 
# 
# High freq. dielectric constant tensor:
#      x y z
#    x 1.575810 0.000000 0.000000 
#    y 0.000000 1.575810 0.000000 
#    z 0.000000 0.000000 1.622410 
# 
# From -- ./inp_files/792.got.cif
#   From: 2010.06.25/outbox.cif.g09.slc.cpg/sg190_1_cif.got.tgz:792.got - 2010.06.28 13:08:06.
