data_PCOD8328803
_publ_section_title
;
Structure prediction by ZEFSAII (Michael W. Deem and Ramdas Pophale) SiO2 
 PCOD8328803
Probable space group: P 6/M M M
;
_chemical_formula_sum "Si O2"
_cell_formula_units_Z 192
_cell_length_a 23.086664
_cell_length_b 23.086664
_cell_length_c 23.049543
_cell_angle_alpha 90.000000
_cell_angle_beta 90.000000
_cell_angle_gamma 120.000000
_cell_volume 10639.355377
_symmetry_space_group_name_H-M "P 6/M M M"
_symmetry_group_IT_number 191
_symmetry_cell_setting 'hexagonal'
loop_
_space_group_symop_operation_xyz
x,y,z
x-y,x,z
-y,x-y,z
-x,-y,z
-x+y,-x,z
y,-x+y,z
x-y,-y,-z
-x,-x+y,-z
y,x,-z
-y,-x,-z
-x+y,y,-z
x,x-y,-z
-x,-y,-z
-x+y,-x,-z
y,-x+y,-z
x,y,-z
x-y,x,-z
-y,x-y,-z
-x+y,y,z
x,x-y,z
-y,-x,z
y,x,z
x-y,-y,z
-x,-x+y,z
loop_
_atom_site_type_symbol
_atom_site_label
_atom_site_fract_x
_atom_site_fract_y
_atom_site_fract_z
Si Si1 0.270840 0.071387 0.180803
Si Si2 0.135752 0.732035 0.744717
Si Si3 0.798195 0.724574 0.431601
Si Si4 0.372105 0.922200 0.062058
Si Si5 0.677322 0.078154 0.620645
Si Si6 0.398631 0.475170 0.187655
Si Si7 0.198283 0.531749 0.431652
Si Si8 0.766836 0.667581 0.936842
O O1 0.239581 0.119791 0.179037
O O2 0.334704 0.101808 0.221537
O O3 0.287916 0.055590 0.116627
O O4 0.214804 0.000000 0.206174
O O5 0.214188 0.785813 0.733499
O O6 0.095044 0.702080 0.686189
O O7 0.129273 0.670668 0.782835
O O8 0.805328 0.731726 0.500000
O O9 0.868845 0.737689 0.404503
O O10 0.778469 0.778469 0.406541
O O11 0.740081 0.649905 0.417955
O O12 0.400038 0.905431 0.119526
O O13 0.292938 0.885226 0.067984
O O14 0.396354 0.000000 0.060314
O O15 0.392640 0.902169 0.000000
O O16 0.654285 0.129976 0.598929
O O17 0.617419 0.000000 0.616086
O O18 0.458309 0.541692 0.217374
O O19 0.413666 0.413666 0.194707
O O20 0.188266 0.520087 0.500000
O O21 0.263723 0.527446 0.411509
O O22 0.209454 0.604727 0.414794
O O23 0.829397 0.658794 0.929077
O O24 0.766056 0.699254 0.000000
#
# Coordination Sequence:
#
# PCOD8328803 Si02
#       8
#    24  24  24  24  24  24  24  24
#     4  10  19  31  48  69  95 127 163 204 250 302
#     4  11  22  36  54  73  98 133 171 211 253 304
#     4   9  17  30  49  73 101 132 166 206 256 313
#     4   9  16  26  42  63  90 123 157 196 244 299
#     4  11  22  35  54  79 107 137 172 220 273 319
#     4  10  20  33  49  70  99 132 164 203 252 308
#     4  10  21  38  60  85 115 151 188 222 254 293
#     4   9  16  25  41  67  95 123 156 196 245 298
#
# _framework density 18.046206999999999
#
# number of rings (size 3 to 8) (size 9 to 14) (size 15 to 20)
#    0.000    2.125    1.250    3.125    0.000    4.000 
#    0.000    1.875    0.000    0.500    0.000    0.875 
#    0.000    0.000    0.000    7.125    0.000    2.750 
#
# Total GULP energy -2378587.634747 kJ/mol
# GULP energy per Si atom -12388.477264 kJ/mol
# Density = 1.800513 g / cm^3
# Si number density = 18.046207 Si / 1000 Ang^3
#
#
#
# Elastic Constant Matrix: (Units=GPa)
#
#
# Indices 1 2 3 4 5 6 
#
# 1 126.5924 27.5342 27.0166 0.0000 0.0000 0.0000
# 2 27.5342 126.5924 27.0166 0.0000 0.0000 0.0000
# 3 27.0166 27.0166 50.4844 0.0000 0.0000 0.0000
# 4 0.0000 0.0000 0.0000 22.5046 0.0000 0.0000
# 5 0.0000 0.0000 0.0000 0.0000 22.5046 0.0000
# 6 0.0000 0.0000 0.0000 0.0000 0.0000 49.5291
#
#
#
# Elastic Compliance Matrix: (Units=1/GPa)
#
#
# Indices 1 2 3 4 5 6 
#
# 1 0.009041 -0.001054 -0.004274 0.000000 0.000000 0.000000
# 2 -0.001054 0.009041 -0.004274 0.000000 0.000000 0.000000
# 3 -0.004274 -0.004274 0.024382 0.000000 0.000000 0.000000
# 4 0.000000 0.000000 0.000000 0.044435 0.000000 0.000000
# 5 0.000000 0.000000 0.000000 0.000000 0.044435 0.000000
# 6 0.000000 0.000000 0.000000 0.000000 0.000000 0.020190
#
#
# Mechanical properties :
#
#
# Convention : Reuss Voigt Hill
#
# Bulk Modulus (GPa) = 42.99285 51.86711 47.42998
# Shear Modulus (GPa) = 28.01392 33.71443 30.86417
#
# Velocity S-wave (km/s) = 3.94425 4.32699 4.14005
# Velocity P-wave (km/s) = 6.67970 7.33263 7.01376
#
# Compressibility (1/GPa) = 0.02325968
#
# Stress axis : x y z
#
# Youngs Moduli (GPa) = 110.60966 110.60966 41.01303
#
# Poissons Ratio (x) = 0.11661 0.17529
# Poissons Ratio (y) = 0.11661 0.17529
# Poissons Ratio (z) = 0.47274 0.47274
#
# Static dielectric constant tensor:
#      x y z
#    x 3.351130 0.000000 0.000000 
#    y 0.000000 3.351130 0.000000 
#    z 0.000000 0.000000 3.376850 
# 
# 
# High freq. dielectric constant tensor:
#      x y z
#    x 1.683880 0.000000 0.000000 
#    y 0.000000 1.683880 0.000000 
#    z 0.000000 0.000000 1.705010 
# 
# From -- ./inp_files/8148.got.cif
#   From: 2010.03.12/outbox.cif.g09.slc.cpg/sg191_5_cif.got.tgz:8148.got - 2010.04.01 12:09:02.
