data_PCOD8328039
_publ_section_title
;
Structure prediction by ZEFSAII (Michael W. Deem and Ramdas Pophale) SiO2 
 PCOD8328039
Probable space group: P -6 2 C
;
_chemical_formula_sum "Si O2"
_cell_formula_units_Z 78
_cell_length_a 24.245823
_cell_length_b 24.245823
_cell_length_c 8.410430
_cell_angle_alpha 90.000000
_cell_angle_beta 90.000000
_cell_angle_gamma 120.000000
_cell_volume 4281.763671
_symmetry_space_group_name_H-M "P -6 2 C"
_symmetry_group_IT_number 190
_symmetry_cell_setting 'hexagonal'
loop_
_space_group_symop_operation_xyz
x,y,z
-x+y,-x,1/2-z
-y,x-y,z
x,y,1/2-z
-x+y,-x,z
-y,x-y,1/2-z
x-y,-y,-z
-x,-x+y,-z
y,x,-z
y,x,1/2+z
x-y,-y,1/2+z
-x,-x+y,1/2+z
loop_
_atom_site_type_symbol
_atom_site_label
_atom_site_fract_x
_atom_site_fract_y
_atom_site_fract_z
Si Si1 0.189153 0.813323 0.428456
Si Si2 0.862820 0.388136 0.931144
Si Si3 0.411312 0.478120 0.563803
Si Si4 0.711194 0.066077 0.434636
Si Si5 0.590029 0.317800 0.250000
Si Si6 0.383244 0.069702 0.560665
Si Si7 0.526262 0.264067 0.928112
O O1 0.171241 0.821160 0.250000
O O2 0.123879 0.781496 0.527086
O O3 0.241231 0.882192 0.499652
O O4 0.219531 0.768351 0.433742
O O5 0.883031 0.406594 0.750000
O O6 0.906171 0.360545 0.005996
O O7 0.788560 0.336416 0.946197
O O8 0.875927 0.452325 0.018753
O O9 0.409025 0.472477 0.750000
O O10 0.468810 0.468810 0.500000
O O11 0.343841 0.422679 0.491647
O O12 0.701898 0.058440 0.250000
O O13 0.702919 0.000000 0.500000
O O14 0.652262 0.387943 0.250000
O O15 0.552194 0.310179 0.416367
O O16 0.386460 0.072923 0.750000
O O17 0.333897 0.000000 0.500000
O O18 0.549798 0.296983 0.750000
#
# Coordination Sequence:
#
# PCOD8328039 Si02
#       7
#    12  12  12  12   6  12  12
#     4   9  19  36  55  74 100 135 167 209 255 310
#     4   9  18  32  49  70  96 128 162 202 256 314
#     4  10  20  31  44  67  95 122 155 201 251 301
#     4  10  21  35  51  74 100 129 168 211 255 311
#     4  10  24  38  50  72  94 124 166 228 252 316
#     4   9  18  32  49  74 104 130 165 202 246 303
#     4   9  20  38  55  72  98 129 168 209 265 320
#
# _framework density 18.216792999999999
#
# number of rings (size 3 to 8) (size 9 to 14) (size 15 to 20)
#    0.154    2.462    0.000    3.231    2.154    6.154 
#    2.769    3.077    0.000    0.000    0.000    0.000 
#    0.000    0.000    0.000    0.462    0.000    7.385 
#
# Total GULP energy -966606.398581 kJ/mol
# GULP energy per Si atom -12392.389725 kJ/mol
# Density = 1.817533 g / cm^3
# Si number density = 18.216793 Si / 1000 Ang^3
#
#
#
# Elastic Constant Matrix: (Units=GPa)
#
#
# Indices 1 2 3 4 5 6 
#
# 1 57.3060 22.6390 19.1859 0.0000 0.0000 0.0000
# 2 22.6390 57.3060 19.1859 0.0000 0.0000 0.0000
# 3 19.1859 19.1859 77.9244 0.0000 0.0000 0.0000
# 4 0.0000 0.0000 0.0000 17.7457 0.0000 0.0000
# 5 0.0000 0.0000 0.0000 0.0000 17.7457 0.0000
# 6 0.0000 0.0000 0.0000 0.0000 0.0000 17.3335
#
#
#
# Elastic Compliance Matrix: (Units=1/GPa)
#
#
# Indices 1 2 3 4 5 6 
#
# 1 0.021515 -0.007330 -0.003492 0.000000 0.000000 0.000000
# 2 -0.007330 0.021515 -0.003492 0.000000 0.000000 0.000000
# 3 -0.003492 -0.003492 0.014553 0.000000 0.000000 0.000000
# 4 0.000000 0.000000 0.000000 0.056352 0.000000 0.000000
# 5 0.000000 0.000000 0.000000 0.000000 0.056352 0.000000
# 6 0.000000 0.000000 0.000000 0.000000 0.000000 0.057692
#
#
# Mechanical properties :
#
#
# Convention : Reuss Voigt Hill
#
# Bulk Modulus (GPa) = 34.53923 34.95090 34.74506
# Shear Modulus (GPa) = 18.77863 19.33337 19.05600
#
# Velocity S-wave (km/s) = 3.21416 3.26128 3.23781
# Velocity P-wave (km/s) = 5.72500 5.78006 5.75260
#
# Compressibility (1/GPa) = 0.02895259
#
# Stress axis : x y z
#
# Youngs Moduli (GPa) = 46.47835 46.47835 68.71559
#
# Poissons Ratio (x) = 0.34071 0.23999
# Poissons Ratio (y) = 0.34071 0.23999
# Poissons Ratio (z) = 0.16233 0.16233
#
# Static dielectric constant tensor:
#      x y z
#    x 3.394060 0.000000 0.000000 
#    y 0.000000 3.394060 0.000000 
#    z 0.000000 0.000000 3.373110 
# 
# 
# High freq. dielectric constant tensor:
#      x y z
#    x 1.675160 0.000000 0.000000 
#    y 0.000000 1.675160 0.000000 
#    z 0.000000 0.000000 1.709910 
# 
# From -- ./inp_files/1384.got.cif
#   From: 2010.06.25/outbox.cif.g09.slc.cpg/sg190_1_cif.got.tgz:1384.got - 2010.06.28 13:08:06.
