data_PCOD8328592
_publ_section_title
;
Structure prediction by ZEFSAII (Michael W. Deem and Ramdas Pophale) SiO2 
 PCOD8328592
Probable space group: P 6/M M M
;
_chemical_formula_sum "Si O2"
_cell_formula_units_Z 144
_cell_length_a 18.809179
_cell_length_b 18.809179
_cell_length_c 30.155819
_cell_angle_alpha 90.000000
_cell_angle_beta 90.000000
_cell_angle_gamma 120.000000
_cell_volume 9239.350415
_symmetry_space_group_name_H-M "P 6/M M M"
_symmetry_group_IT_number 191
_symmetry_cell_setting 'hexagonal'
loop_
_space_group_symop_operation_xyz
x,y,z
x-y,x,z
-y,x-y,z
-x,-y,z
-x+y,-x,z
y,-x+y,z
x-y,-y,-z
-x,-x+y,-z
y,x,-z
-y,-x,-z
-x+y,y,-z
x,x-y,-z
-x,-y,-z
-x+y,-x,-z
y,-x+y,-z
x,y,-z
x-y,x,-z
-y,x-y,-z
-x+y,y,z
x,x-y,z
-y,-x,z
y,x,z
x-y,-y,z
-x,-x+y,z
loop_
_atom_site_type_symbol
_atom_site_label
_atom_site_fract_x
_atom_site_fract_y
_atom_site_fract_z
Si Si1 0.530592 0.625299 0.860535
Si Si2 0.538339 0.630102 0.548372
Si Si3 0.170965 0.502114 0.638106
Si Si4 0.333972 0.831409 0.951332
Si Si5 0.749852 0.656674 0.200661
Si Si6 0.346938 0.092521 0.696765
O O1 0.432136 0.567865 0.851529
O O2 0.571982 0.571982 0.849767
O O3 0.547337 0.652389 0.912159
O O4 0.572728 0.703177 0.827967
O O5 0.549295 0.673282 0.500000
O O6 0.455736 0.544265 0.547859
O O7 0.614096 0.614096 0.556772
O O8 0.533733 0.684471 0.588005
O O9 0.266041 0.532082 0.647399
O O10 0.154821 0.577411 0.645570
O O11 0.112431 0.429644 0.671199
O O12 0.402413 0.804825 0.949755
O O13 0.248132 0.751869 0.942287
O O14 0.335429 0.869916 0.000000
O O15 0.847580 0.695159 0.192577
O O16 0.723983 0.723983 0.186548
O O17 0.728134 0.631313 0.251604
O O18 0.318751 0.159376 0.684666
O O19 0.274431 0.000000 0.684443
#
# Coordination Sequence:
#
# PCOD8328592 Si02
#       6
#    24  24  24  24  24  24
#     4   9  17  27  39  57  80 106 136 168 200 236
#     4   8  14  25  40  56  74 100 138 182 221 253
#     4  10  19  29  41  59  85 116 149 182 213 244
#     4   9  16  25  37  52  71  97 130 167 204 240
#     4   9  17  30  47  65  85 108 135 167 204 248
#     4   9  18  31  47  66  85 107 135 168 207 250
#
# _framework density 15.585509999999999
#
# number of rings (size 3 to 8) (size 9 to 14) (size 15 to 20)
#    0.000    3.000    0.000    1.833    0.000    3.000 
#    0.000    3.333    0.000    1.667    0.000    2.333 
#    0.000    0.000    0.000    0.000    0.000    0.000 
#
# Total GULP energy -1784136.580703 kJ/mol
# GULP energy per Si atom -12389.837366 kJ/mol
# Density = 1.555004 g / cm^3
# Si number density = 15.585510 Si / 1000 Ang^3
#
#
#
# Elastic Constant Matrix: (Units=GPa)
#
#
# Indices 1 2 3 4 5 6 
#
# 1 68.9160 41.8866 38.2335 0.0000 0.0000 0.0000
# 2 41.8866 68.9160 38.2335 0.0000 0.0000 0.0000
# 3 38.2335 38.2335 74.7161 0.0000 0.0000 0.0000
# 4 0.0000 0.0000 0.0000 21.2940 0.0000 0.0000
# 5 0.0000 0.0000 0.0000 0.0000 21.2940 0.0000
# 6 0.0000 0.0000 0.0000 0.0000 0.0000 13.5147
#
#
#
# Elastic Compliance Matrix: (Units=1/GPa)
#
#
# Indices 1 2 3 4 5 6 
#
# 1 0.025474 -0.011522 -0.007140 0.000000 0.000000 0.000000
# 2 -0.011522 0.025474 -0.007140 0.000000 0.000000 0.000000
# 3 -0.007140 -0.007140 0.020691 0.000000 0.000000 0.000000
# 4 0.000000 0.000000 0.000000 0.046962 0.000000 0.000000
# 5 0.000000 0.000000 0.000000 0.000000 0.046962 0.000000
# 6 0.000000 0.000000 0.000000 0.000000 0.000000 0.073993
#
#
# Mechanical properties :
#
#
# Convention : Reuss Voigt Hill
#
# Bulk Modulus (GPa) = 49.90769 49.91724 49.91247
# Shear Modulus (GPa) = 16.78765 17.50020 17.14393
#
# Velocity S-wave (km/s) = 3.28553 3.35453 3.32021
# Velocity P-wave (km/s) = 6.81794 6.86304 6.84053
#
# Compressibility (1/GPa) = 0.02003699
#
# Stress axis : x y z
#
# Youngs Moduli (GPa) = 39.25504 39.25504 48.33045
#
# Poissons Ratio (x) = 0.45231 0.34506
# Poissons Ratio (y) = 0.45231 0.34506
# Poissons Ratio (z) = 0.28026 0.28026
#
# Static dielectric constant tensor:
#      x y z
#    x 2.927850 0.000000 0.000000 
#    y 0.000000 2.927850 0.000000 
#    z 0.000000 0.000000 3.280590 
# 
# 
# High freq. dielectric constant tensor:
#      x y z
#    x 1.574520 0.000000 0.000000 
#    y 0.000000 1.574520 0.000000 
#    z 0.000000 0.000000 1.609720 
# 
# From -- ./inp_files/9926.got.cif
#   From: 2010.03.12/outbox.cif.g09.slc.cpg/sg191_5_cif.got.tgz:9926.got - 2010.04.01 12:09:02.
