data_PCOD8328129
_publ_section_title
;
Structure prediction by ZEFSAII (Michael W. Deem and Ramdas Pophale) SiO2 
 PCOD8328129
Probable space group: P -6 2 C
;
_chemical_formula_sum "Si O2"
_cell_formula_units_Z 36
_cell_length_a 14.991209
_cell_length_b 14.991209
_cell_length_c 9.600860
_cell_angle_alpha 90.000000
_cell_angle_beta 90.000000
_cell_angle_gamma 120.000000
_cell_volume 1868.590284
_symmetry_space_group_name_H-M "P -6 2 C"
_symmetry_group_IT_number 190
_symmetry_cell_setting 'hexagonal'
loop_
_space_group_symop_operation_xyz
x,y,z
-x+y,-x,1/2-z
-y,x-y,z
x,y,1/2-z
-x+y,-x,z
-y,x-y,1/2-z
x-y,-y,-z
-x,-x+y,-z
y,x,-z
y,x,1/2+z
x-y,-y,1/2+z
-x,-x+y,1/2+z
loop_
_atom_site_type_symbol
_atom_site_label
_atom_site_fract_x
_atom_site_fract_y
_atom_site_fract_z
Si Si1 0.549624 0.723339 0.589818
Si Si2 0.965473 0.092986 0.750000
Si Si3 0.230421 0.000000 0.500000
Si Si4 0.496378 0.394123 0.417470
O O1 0.521558 0.714730 0.750000
O O2 0.666820 0.753971 0.569839
O O3 0.528493 0.810571 0.528291
O O4 0.474110 0.610999 0.526152
O O5 0.945272 0.141693 0.614484
O O6 0.083408 0.113667 0.750000
O O7 0.483690 0.399812 0.250000
O O8 0.417559 0.417559 0.500000
#
# Coordination Sequence:
#
# PCOD8328129 Si02
#       4
#    12   6   6  12
#     4  10  21  39  64  91 120 159 200 243 304 359
#     4  10  24  40  58  82 120 158 204 252 302 358
#     4  12  20  40  64  86 120 158 202 252 294 358
#     4  10  21  40  62  89 122 158 200 248 297 366
#
# _framework density 19.265861000000001
#
# number of rings (size 3 to 8) (size 9 to 14) (size 15 to 20)
#    0.333    1.333    3.333    1.667    0.000    5.333 
#    3.000    0.000    0.000    0.000    0.000    0.000 
#    0.000    0.000    0.000    0.000    0.000    0.000 
#
# Total GULP energy -446365.758403 kJ/mol
# GULP energy per Si atom -12399.048845 kJ/mol
# Density = 1.922201 g / cm^3
# Si number density = 19.265861 Si / 1000 Ang^3
#
#
#
# Elastic Constant Matrix: (Units=GPa)
#
#
# Indices 1 2 3 4 5 6 
#
# 1 87.2852 22.2516 1.3807 0.0000 0.0000 0.0000
# 2 22.2516 87.2852 1.3807 0.0000 0.0000 0.0000
# 3 1.3807 1.3807 45.8051 0.0000 0.0000 0.0000
# 4 0.0000 0.0000 0.0000 35.1248 0.0000 0.0000
# 5 0.0000 0.0000 0.0000 0.0000 35.1248 0.0000
# 6 0.0000 0.0000 0.0000 0.0000 0.0000 32.5168
#
#
#
# Elastic Compliance Matrix: (Units=1/GPa)
#
#
# Indices 1 2 3 4 5 6 
#
# 1 0.012256 -0.003120 -0.000275 0.000000 0.000000 0.000000
# 2 -0.003120 0.012256 -0.000275 0.000000 0.000000 0.000000
# 3 -0.000275 -0.000275 0.021848 0.000000 0.000000 0.000000
# 4 0.000000 0.000000 0.000000 0.028470 0.000000 0.000000
# 5 0.000000 0.000000 0.000000 0.000000 0.028470 0.000000
# 6 0.000000 0.000000 0.000000 0.000000 0.000000 0.030753
#
#
# Mechanical properties :
#
#
# Convention : Reuss Voigt Hill
#
# Bulk Modulus (GPa) = 25.62841 30.04464 27.83652
# Shear Modulus (GPa) = 32.38286 33.57746 32.98016
#
# Velocity S-wave (km/s) = 4.10425 4.17927 4.14193
# Velocity P-wave (km/s) = 5.98258 6.23835 6.11180
#
# Compressibility (1/GPa) = 0.03901920
#
# Stress axis : x y z
#
# Youngs Moduli (GPa) = 81.58948 81.58948 45.77030
#
# Poissons Ratio (x) = 0.25457 0.01261
# Poissons Ratio (y) = 0.25457 0.01261
# Poissons Ratio (z) = 0.02247 0.02247
#
# Static dielectric constant tensor:
#      x y z
#    x 3.591880 0.000000 0.000000 
#    y 0.000000 3.591880 0.000000 
#    z 0.000000 0.000000 3.472280 
# 
# 
# High freq. dielectric constant tensor:
#      x y z
#    x 1.758310 0.000000 0.000000 
#    y 0.000000 1.758310 0.000000 
#    z 0.000000 0.000000 1.726720 
# 
# From -- ./inp_files/1691.got.cif
#   From: 2010.06.25/outbox.cif.g09.slc.cpg/sg190_1_cif.got.tgz:1691.got - 2010.06.28 13:08:06.
