data_PCOD8328872
_publ_section_title
;
Structure prediction by ZEFSAII (Michael W. Deem and Ramdas Pophale) SiO2 
 PCOD8328872
Probable space group: P 6/M M M
;
_chemical_formula_sum "Si O2"
_cell_formula_units_Z 144
_cell_length_a 22.145907
_cell_length_b 22.145907
_cell_length_c 20.353547
_cell_angle_alpha 90.000000
_cell_angle_beta 90.000000
_cell_angle_gamma 120.000000
_cell_volume 8644.854332
_symmetry_space_group_name_H-M "P 6/M M M"
_symmetry_group_IT_number 191
_symmetry_cell_setting 'hexagonal'
loop_
_space_group_symop_operation_xyz
x,y,z
x-y,x,z
-y,x-y,z
-x,-y,z
-x+y,-x,z
y,-x+y,z
x-y,-y,-z
-x,-x+y,-z
y,x,-z
-y,-x,-z
-x+y,y,-z
x,x-y,-z
-x,-y,-z
-x+y,-x,-z
y,-x+y,-z
x,y,-z
x-y,x,-z
-y,x-y,-z
-x+y,y,z
x,x-y,z
-y,-x,z
y,x,z
x-y,-y,z
-x,-x+y,z
loop_
_atom_site_type_symbol
_atom_site_label
_atom_site_fract_x
_atom_site_fract_y
_atom_site_fract_z
Si Si1 0.919756 0.388461 0.500000
Si Si2 0.439531 0.289291 0.379026
Si Si3 0.439531 0.150241 0.879028
Si Si4 0.080243 0.611539 0.000000
Si Si5 0.710557 0.788405 0.825962
Si Si6 0.524569 0.191856 0.750001
Si Si7 0.289444 0.211596 0.325958
O O1 0.914824 0.457412 0.500000
O O2 0.880088 0.344819 0.563538
O O3 0.000000 0.406930 0.500000
O O4 0.455149 0.227575 0.397436
O O5 0.480153 0.328567 0.313558
O O6 0.357409 0.258175 0.369050
O O7 0.455151 0.227576 0.897440
O O8 0.464732 0.119912 0.936461
O O9 0.357408 0.099236 0.869055
O O10 0.480149 0.151586 0.813557
O O11 0.085175 0.542588 0.000000
O O12 0.000000 0.593071 0.000000
O O13 0.740516 0.870258 0.840691
O O14 0.770329 0.770329 0.844873
O O15 0.688500 0.771864 0.750002
O O16 0.595019 0.190037 0.750004
O O17 0.542880 0.271440 0.749999
O O18 0.259486 0.129743 0.340688
O O19 0.229671 0.229671 0.344869
#
# Coordination Sequence:
#
# PCOD8328872 Si02
#       7
#    12  24  24  12  24  24  24
#     4  11  23  36  48  68 100 133 163 199 248 298
#     4  10  19  34  53  72  94 127 165 204 246 292
#     4  10  19  34  53  72  94 127 165 204 246 292
#     4  11  23  36  48  68 100 133 163 199 248 298
#     4   9  16  28  48  73  98 124 158 198 238 281
#     4  10  19  32  51  73  96 121 158 204 251 297
#     4   9  16  28  48  73  98 124 158 198 238 281
#
# _framework density 16.657306999999999
#
# number of rings (size 3 to 8) (size 9 to 14) (size 15 to 20)
#    0.000    2.167    1.667    2.667    0.000    0.000 
#    0.000    0.000    0.000    9.000    0.000    2.333 
#    0.000    0.000    0.000    0.000    0.000   34.667 
#
# Total GULP energy -1785617.204185 kJ/mol
# GULP energy per Si atom -12400.119474 kJ/mol
# Density = 1.661939 g / cm^3
# Si number density = 16.657307 Si / 1000 Ang^3
#
#
#
# Elastic Constant Matrix: (Units=GPa)
#
#
# Indices 1 2 3 4 5 6 
#
# 1 104.8771 58.7489 57.5591 0.0000 0.0000 0.0000
# 2 58.7489 104.8771 57.5591 0.0000 0.0000 0.0000
# 3 57.5591 57.5591 107.4484 0.0000 0.0000 0.0000
# 4 0.0000 0.0000 0.0000 21.0136 0.0000 0.0000
# 5 0.0000 0.0000 0.0000 0.0000 21.0136 0.0000
# 6 0.0000 0.0000 0.0000 0.0000 0.0000 23.0641
#
#
#
# Elastic Compliance Matrix: (Units=1/GPa)
#
#
# Indices 1 2 3 4 5 6 
#
# 1 0.015743 -0.005935 -0.005254 0.000000 0.000000 0.000000
# 2 -0.005935 0.015743 -0.005254 0.000000 0.000000 0.000000
# 3 -0.005254 -0.005254 0.014936 0.000000 0.000000 0.000000
# 4 0.000000 0.000000 0.000000 0.047588 0.000000 0.000000
# 5 0.000000 0.000000 0.000000 0.000000 0.047588 0.000000
# 6 0.000000 0.000000 0.000000 0.000000 0.000000 0.043357
#
#
# Mechanical properties :
#
#
# Convention : Reuss Voigt Hill
#
# Bulk Modulus (GPa) = 73.87899 73.88185 73.88042
# Shear Modulus (GPa) = 22.48653 22.57394 22.53023
#
# Velocity S-wave (km/s) = 3.67815 3.68529 3.68172
# Velocity P-wave (km/s) = 7.90487 7.90941 7.90714
#
# Compressibility (1/GPa) = 0.01353565
#
# Stress axis : x y z
#
# Youngs Moduli (GPa) = 63.51895 63.51895 66.95298
#
# Poissons Ratio (x) = 0.37701 0.35177
# Poissons Ratio (y) = 0.37701 0.35177
# Poissons Ratio (z) = 0.33373 0.33373
#
# Static dielectric constant tensor:
#      x y z
#    x 3.160650 0.000000 0.000000 
#    y 0.000000 3.160650 0.000000 
#    z 0.000000 0.000000 3.033340 
# 
# 
# High freq. dielectric constant tensor:
#      x y z
#    x 1.640220 0.000000 0.000000 
#    y 0.000000 1.640220 0.000000 
#    z 0.000000 0.000000 1.635480 
# 
# From -- ./inp_files/7691.got.cif
#   From: 2010.03.12/outbox.cif.g09.slc.cpg/sg191_4_cif.got.tgz:7691.got - 2010.04.01 12:09:02.
