data_PCOD8328412
_publ_section_title
;
Structure prediction by ZEFSAII (Michael W. Deem and Ramdas Pophale) SiO2 
 PCOD8328412
Probable space group: P 6/M M M
;
_chemical_formula_sum "Si O2"
_cell_formula_units_Z 108
_cell_length_a 31.474085
_cell_length_b 31.474085
_cell_length_c 8.025986
_cell_angle_alpha 90.000000
_cell_angle_beta 90.000000
_cell_angle_gamma 120.000000
_cell_volume 6885.496411
_symmetry_space_group_name_H-M "P 6/M M M"
_symmetry_group_IT_number 191
_symmetry_cell_setting 'hexagonal'
loop_
_space_group_symop_operation_xyz
x,y,z
x-y,x,z
-y,x-y,z
-x,-y,z
-x+y,-x,z
y,-x+y,z
x-y,-y,-z
-x,-x+y,-z
y,x,-z
-y,-x,-z
-x+y,y,-z
x,x-y,-z
-x,-y,-z
-x+y,-x,-z
y,-x+y,-z
x,y,-z
x-y,x,-z
-y,x-y,-z
-x+y,y,z
x,x-y,z
-y,-x,z
y,x,z
x-y,-y,z
-x,-x+y,z
loop_
_atom_site_type_symbol
_atom_site_label
_atom_site_fract_x
_atom_site_fract_y
_atom_site_fract_z
Si Si1 0.055726 0.267262 0.687025
Si Si2 0.428372 0.666319 0.803461
Si Si3 0.366195 0.232048 0.190988
Si Si4 0.056738 0.848495 0.000000
Si Si5 0.814339 0.282916 0.305790
O O1 0.063054 0.251388 0.500000
O O2 0.089050 0.325839 0.702072
O O3 0.069392 0.240634 0.831744
O O4 0.000000 0.254410 0.712109
O O5 0.424107 0.712054 0.729405
O O6 0.384118 0.615883 0.728881
O O7 0.480149 0.670257 0.751794
O O8 0.424388 0.666017 0.000000
O O9 0.366322 0.183161 0.250337
O O10 0.420303 0.279351 0.220671
O O11 0.351345 0.228946 0.000000
O O12 0.092548 0.907453 0.000000
O O13 0.000000 0.835157 0.000000
O O14 0.822770 0.284481 0.500000
O O15 0.764157 0.235844 0.245990
#
# Coordination Sequence:
#
# PCOD8328412 Si02
#       5
#    24  24  24  12  24
#     4  10  20  32  47  69  97 126 155 189 226 267
#     4   9  16  26  39  54  74 103 140 181 224 269
#     4  10  18  28  44  64  86 115 148 179 215 261
#     4  10  20  34  50  71  98 128 161 195 231 269
#     4   9  17  27  38  55  79 106 138 177 218 262
#
# _framework density 15.685143
#
# number of rings (size 3 to 8) (size 9 to 14) (size 15 to 20)
#    0.000    2.444    1.111    2.222    0.000    6.667 
#    0.000    0.000    0.000    1.444    0.000    0.000 
#    0.000    0.889    0.000   14.889    0.000    4.000 
#
# Total GULP energy -1338549.028865 kJ/mol
# GULP energy per Si atom -12393.972489 kJ/mol
# Density = 1.564944 g / cm^3
# Si number density = 15.685143 Si / 1000 Ang^3
#
#
#
# Elastic Constant Matrix: (Units=GPa)
#
#
# Indices 1 2 3 4 5 6 
#
# 1 87.4009 45.9497 28.0192 0.0000 0.0000 0.0000
# 2 45.9497 87.4009 28.0192 0.0000 0.0000 0.0000
# 3 28.0192 28.0192 69.0713 0.0000 0.0000 0.0000
# 4 0.0000 0.0000 0.0000 16.5760 0.0000 0.0000
# 5 0.0000 0.0000 0.0000 0.0000 16.5760 0.0000
# 6 0.0000 0.0000 0.0000 0.0000 0.0000 20.7256
#
#
#
# Elastic Compliance Matrix: (Units=1/GPa)
#
#
# Indices 1 2 3 4 5 6 
#
# 1 0.016582 -0.007542 -0.003667 0.000000 0.000000 0.000000
# 2 -0.007542 0.016582 -0.003667 0.000000 0.000000 0.000000
# 3 -0.003667 -0.003667 0.017453 0.000000 0.000000 0.000000
# 4 0.000000 0.000000 0.000000 0.060328 0.000000 0.000000
# 5 0.000000 0.000000 0.000000 0.000000 0.060328 0.000000
# 6 0.000000 0.000000 0.000000 0.000000 0.000000 0.048249
#
#
# Mechanical properties :
#
#
# Convention : Reuss Voigt Hill
#
# Bulk Modulus (GPa) = 47.92824 49.76103 48.84464
# Shear Modulus (GPa) = 19.51358 20.23453 19.87405
#
# Velocity S-wave (km/s) = 3.53098 3.59562 3.56344
# Velocity P-wave (km/s) = 6.87361 7.00227 6.93824
#
# Compressibility (1/GPa) = 0.02086453
#
# Stress axis : x y z
#
# Youngs Moduli (GPa) = 60.30485 60.30485 57.29665
#
# Poissons Ratio (x) = 0.45484 0.21012
# Poissons Ratio (y) = 0.45484 0.21012
# Poissons Ratio (z) = 0.22115 0.22115
#
# Static dielectric constant tensor:
#      x y z
#    x 2.937790 0.000000 0.000000 
#    y 0.000000 2.937790 0.000000 
#    z 0.000000 0.000000 3.069400 
# 
# 
# High freq. dielectric constant tensor:
#      x y z
#    x 1.572700 0.000000 0.000000 
#    y 0.000000 1.572700 0.000000 
#    z 0.000000 0.000000 1.616430 
# 
# From -- ./inp_files/1695.got.cif
#   From: 2010.03.12/outbox.cif.g09.slc.cpg/sg191_1_cif.got.tgz:1695.got - 2010.04.01 12:09:02.
