data_PCOD8328227
_publ_section_title
;
Structure prediction by ZEFSAII (Michael W. Deem and Ramdas Pophale) SiO2 
 PCOD8328227
Probable space group: P 6/M M M
;
_chemical_formula_sum "Si O2"
_cell_formula_units_Z 168
_cell_length_a 25.819998
_cell_length_b 25.819998
_cell_length_c 18.992427
_cell_angle_alpha 90.000000
_cell_angle_beta 90.000000
_cell_angle_gamma 120.000000
_cell_volume 10965.375444
_symmetry_space_group_name_H-M "P 6/M M M"
_symmetry_group_IT_number 191
_symmetry_cell_setting 'hexagonal'
loop_
_space_group_symop_operation_xyz
x,y,z
x-y,x,z
-y,x-y,z
-x,-y,z
-x+y,-x,z
y,-x+y,z
x-y,-y,-z
-x,-x+y,-z
y,x,-z
-y,-x,-z
-x+y,y,-z
x,x-y,-z
-x,-y,-z
-x+y,-x,-z
y,-x+y,-z
x,y,-z
x-y,x,-z
-y,x-y,-z
-x+y,y,z
x,x-y,z
-y,-x,z
y,x,z
x-y,-y,z
-x,-x+y,z
loop_
_atom_site_type_symbol
_atom_site_label
_atom_site_fract_x
_atom_site_fract_y
_atom_site_fract_z
Si Si1 0.181374 0.695882 0.577258
Si Si2 0.289891 0.358631 0.919259
Si Si3 0.066174 0.319812 0.721143
Si Si4 0.845020 0.569237 0.803558
Si Si5 0.236576 0.885473 0.577061
Si Si6 0.665752 0.452828 0.717536
Si Si7 0.817336 0.066579 0.152996
O O1 0.178801 0.666915 0.500000
O O2 0.240965 0.759036 0.583574
O O3 0.125661 0.707319 0.584193
O O4 0.180832 0.654577 0.641073
O O5 0.340990 0.340990 0.905918
O O6 0.303022 0.416193 0.872476
O O7 0.225619 0.303364 0.898335
O O8 0.288525 0.375414 0.000000
O O9 0.116474 0.386771 0.740456
O O10 0.070133 0.309397 0.638144
O O11 0.075742 0.272503 0.766489
O O12 0.000000 0.308814 0.738651
O O13 0.789207 0.578414 0.821461
O O14 0.822809 0.502423 0.777181
O O15 0.238845 0.913667 0.500000
O O16 0.176198 0.823803 0.586300
O O17 0.719113 0.438225 0.712812
O O18 0.606052 0.393949 0.741260
O O19 0.886038 0.113963 0.135341
O O20 0.806810 0.000000 0.141366
#
# Coordination Sequence:
#
# PCOD8328227 Si02
#       7
#    24  24  24  24  24  24  24
#     4   8  14  25  41  60  81 107 140 176 215 256
#     4   9  17  29  47  72  97 115 134 168 212 252
#     4  10  17  25  40  61  85 110 141 178 214 256
#     4  10  18  29  46  65  87 116 145 170 203 255
#     4   9  15  24  39  57  79 109 143 176 210 252
#     4  10  19  30  45  65  88 112 142 181 221 258
#     4   9  17  27  41  62  89 119 146 176 214 253
#
# _framework density 15.320952999999999
#
# number of rings (size 3 to 8) (size 9 to 14) (size 15 to 20)
#    0.000    2.714    1.429    4.857    0.000    1.714 
#    0.000    0.000    0.000    3.143    0.000    1.000 
#    0.000    3.429    0.000    3.571    0.000    0.000 
#
# Total GULP energy -2081996.646748 kJ/mol
# GULP energy per Si atom -12392.837183 kJ/mol
# Density = 1.528608 g / cm^3
# Si number density = 15.320953 Si / 1000 Ang^3
#
#
#
# Elastic Constant Matrix: (Units=GPa)
#
#
# Indices 1 2 3 4 5 6 
#
# 1 64.3220 27.3301 33.4486 0.0000 0.0000 0.0000
# 2 27.3301 64.3220 33.4486 0.0000 0.0000 0.0000
# 3 33.4486 33.4486 120.0757 0.0000 0.0000 0.0000
# 4 0.0000 0.0000 0.0000 17.4553 0.0000 0.0000
# 5 0.0000 0.0000 0.0000 0.0000 17.4553 0.0000
# 6 0.0000 0.0000 0.0000 0.0000 0.0000 18.4960
#
#
#
# Elastic Compliance Matrix: (Units=1/GPa)
#
#
# Indices 1 2 3 4 5 6 
#
# 1 0.020364 -0.006669 -0.003815 0.000000 0.000000 0.000000
# 2 -0.006669 0.020364 -0.003815 0.000000 0.000000 0.000000
# 3 -0.003815 -0.003815 0.010454 0.000000 0.000000 0.000000
# 4 0.000000 0.000000 0.000000 0.057289 0.000000 0.000000
# 5 0.000000 0.000000 0.000000 0.000000 0.057289 0.000000
# 6 0.000000 0.000000 0.000000 0.000000 0.000000 0.054066
#
#
# Mechanical properties :
#
#
# Convention : Reuss Voigt Hill
#
# Bulk Modulus (GPa) = 44.27865 48.57494 46.42680
# Shear Modulus (GPa) = 19.53490 20.98078 20.25784
#
# Velocity S-wave (km/s) = 3.57465 3.70458 3.64019
# Velocity P-wave (km/s) = 6.78240 7.07618 6.93085
#
# Compressibility (1/GPa) = 0.02258425
#
# Stress axis : x y z
#
# Youngs Moduli (GPa) = 49.10582 49.10582 95.66141
#
# Poissons Ratio (x) = 0.32747 0.36495
# Poissons Ratio (y) = 0.32747 0.36495
# Poissons Ratio (z) = 0.18734 0.18734
#
# Static dielectric constant tensor:
#      x y z
#    x 2.703050 0.000000 0.000000 
#    y 0.000000 2.703050 0.000000 
#    z 0.000000 0.000000 3.147810 
# 
# 
# High freq. dielectric constant tensor:
#      x y z
#    x 1.555340 0.000000 0.000000 
#    y 0.000000 1.555340 0.000000 
#    z 0.000000 0.000000 1.597310 
# 
# From -- ./inp_files/7995.got.cif
#   From: 2010.03.12/outbox.cif.g09.slc.cpg/sg191_4_cif.got.tgz:7995.got - 2010.04.01 12:09:02.
