data_PCOD8328109
_publ_section_title
;
Structure prediction by ZEFSAII (Michael W. Deem and Ramdas Pophale) SiO2 
 PCOD8328109
Probable space group: P -6 2 C
;
_chemical_formula_sum "Si O2"
_cell_formula_units_Z 42
_cell_length_a 8.534334
_cell_length_b 8.534334
_cell_length_c 32.267873
_cell_angle_alpha 90.000000
_cell_angle_beta 90.000000
_cell_angle_gamma 120.000000
_cell_volume 2035.355343
_symmetry_space_group_name_H-M "P -6 2 C"
_symmetry_group_IT_number 190
_symmetry_cell_setting 'hexagonal'
loop_
_space_group_symop_operation_xyz
x,y,z
-x+y,-x,1/2-z
-y,x-y,z
x,y,1/2-z
-x+y,-x,z
-y,x-y,1/2-z
x-y,-y,-z
-x,-x+y,-z
y,x,-z
y,x,1/2+z
x-y,-y,1/2+z
-x,-x+y,1/2+z
loop_
_atom_site_type_symbol
_atom_site_label
_atom_site_fract_x
_atom_site_fract_y
_atom_site_fract_z
Si Si1 0.006625 0.342724 0.628003
Si Si2 0.008257 0.676966 0.161372
Si Si3 0.143183 0.689027 0.250000
Si Si4 0.530062 0.657209 0.962416
O O1 0.130734 0.268825 0.647387
O O2 0.026526 0.366207 0.578888
O O3 0.799920 0.196688 0.637646
O O4 0.063115 0.533516 0.649111
O O5 0.037692 0.702883 0.210526
O O6 0.352879 0.853451 0.250000
O O7 0.515523 0.840142 0.964066
O O8 0.647750 0.647750 0.000000
#
# Coordination Sequence:
#
# PCOD8328109 Si02
#       4
#    12  12   6  12
#     4  12  24  45  65 105 135 188 223 283 346 411
#     4  12  24  42  72  94 144 180 228 288 339 405
#     4  10  20  42  66 104 130 178 238 276 342 408
#     4  10  23  41  65 100 135 173 227 277 336 412
#
# _framework density 20.635217999999998
#
# number of rings (size 3 to 8) (size 9 to 14) (size 15 to 20)
#    0.857    0.000    5.714    1.714    4.000    2.286 
#    0.000    0.000    0.000    0.571    0.000    0.000 
#    0.000    0.000    0.000    0.000    0.000    0.000 
#
# Total GULP energy -520889.242985 kJ/mol
# GULP energy per Si atom -12402.124833 kJ/mol
# Density = 2.058825 g / cm^3
# Si number density = 20.635218 Si / 1000 Ang^3
#
#
#
# Elastic Constant Matrix: (Units=GPa)
#
#
# Indices 1 2 3 4 5 6 
#
# 1 70.2485 13.7082 51.3275 0.0000 0.0000 0.0000
# 2 13.7082 70.2485 51.3275 0.0000 0.0000 0.0000
# 3 51.3275 51.3275 217.9654 0.0000 0.0000 0.0000
# 4 0.0000 0.0000 0.0000 25.9123 0.0000 0.0000
# 5 0.0000 0.0000 0.0000 0.0000 25.9123 0.0000
# 6 0.0000 0.0000 0.0000 0.0000 0.0000 28.2702
#
#
#
# Elastic Compliance Matrix: (Units=1/GPa)
#
#
# Indices 1 2 3 4 5 6 
#
# 1 0.017207 -0.000480 -0.003939 0.000000 0.000000 0.000000
# 2 -0.000480 0.017207 -0.003939 0.000000 0.000000 0.000000
# 3 -0.003939 -0.003939 0.006443 0.000000 0.000000 0.000000
# 4 0.000000 0.000000 0.000000 0.038592 0.000000 0.000000
# 5 0.000000 0.000000 0.000000 0.000000 0.038592 0.000000
# 6 0.000000 0.000000 0.000000 0.000000 0.000000 0.035373
#
#
# Mechanical properties :
#
#
# Convention : Reuss Voigt Hill
#
# Bulk Modulus (GPa) = 41.42262 65.68766 53.55514
# Shear Modulus (GPa) = 28.06222 32.15890 30.11056
#
# Velocity S-wave (km/s) = 3.69171 3.95200 3.82407
# Velocity P-wave (km/s) = 6.18781 7.26129 6.74593
#
# Compressibility (1/GPa) = 0.02414140
#
# Stress axis : x y z
#
# Youngs Moduli (GPa) = 58.11644 58.11644 155.20647
#
# Poissons Ratio (x) = 0.02788 0.61136
# Poissons Ratio (y) = 0.02788 0.61136
# Poissons Ratio (z) = 0.22892 0.22892
#
# Static dielectric constant tensor:
#      x y z
#    x 3.515700 0.000000 0.000000 
#    y 0.000000 3.515700 0.000000 
#    z 0.000000 0.000000 3.655370 
# 
# 
# High freq. dielectric constant tensor:
#      x y z
#    x 1.796840 0.000000 0.000000 
#    y 0.000000 1.796840 0.000000 
#    z 0.000000 0.000000 1.818150 
# 
# From -- ./inp_files/5074.got.cif
#   From: 2010.06.25/outbox.cif.g09.slc.cpg/sg190_3_cif.got.tgz:5074.got - 2010.06.28 13:08:06.
