data_PCOD8328234
_publ_section_title
;
Structure prediction by ZEFSAII (Michael W. Deem and Ramdas Pophale) SiO2 
 PCOD8328234
Probable space group: P 6/M M M
;
_chemical_formula_sum "Si O2"
_cell_formula_units_Z 138
_cell_length_a 30.691036
_cell_length_b 30.691036
_cell_length_c 9.230755
_cell_angle_alpha 90.000000
_cell_angle_beta 90.000000
_cell_angle_gamma 120.000000
_cell_volume 7529.930247
_symmetry_space_group_name_H-M "P 6/M M M"
_symmetry_group_IT_number 191
_symmetry_cell_setting 'hexagonal'
loop_
_space_group_symop_operation_xyz
x,y,z
x-y,x,z
-y,x-y,z
-x,-y,z
-x+y,-x,z
y,-x+y,z
x-y,-y,-z
-x,-x+y,-z
y,x,-z
-y,-x,-z
-x+y,y,-z
x,x-y,-z
-x,-y,-z
-x+y,-x,-z
y,-x+y,-z
x,y,-z
x-y,x,-z
-y,x-y,-z
-x+y,y,z
x,x-y,z
-y,-x,z
y,x,z
x-y,-y,z
-x,-x+y,z
loop_
_atom_site_type_symbol
_atom_site_label
_atom_site_fract_x
_atom_site_fract_y
_atom_site_fract_z
Si Si1 0.420857 0.941796 0.334198
Si Si2 0.939990 0.879980 0.500000
Si Si3 0.764103 0.135301 0.168007
Si Si4 0.108904 0.891097 0.340085
Si Si5 0.142787 0.474865 0.830245
Si Si6 0.767119 0.433948 0.331098
Si Si7 0.276622 0.056549 0.327442
O O1 0.402357 0.930063 0.500000
O O2 0.463337 0.926673 0.307112
O O3 0.374795 0.910852 0.227552
O O4 0.442403 0.000000 0.298551
O O5 0.914920 0.914920 0.500000
O O6 0.921788 0.843575 0.356711
O O7 0.817275 0.182726 0.209150
O O8 0.721593 0.148913 0.208548
O O9 0.756346 0.088475 0.262957
O O10 0.761159 0.120965 0.000000
O O11 0.121061 0.878940 0.500000
O O12 0.076117 0.836617 0.265057
O O13 0.186806 0.523727 0.756557
O O14 0.145499 0.484697 0.000000
O O15 0.778425 0.445946 0.500000
O O16 0.716536 0.433071 0.283695
O O17 0.760461 0.380231 0.291414
O O18 0.279530 0.058266 0.500000
O O19 0.253872 0.000000 0.270745
#
# Coordination Sequence:
#
# PCOD8328234 Si02
#       7
#    24   6  24  12  24  24  24
#     4   9  19  37  59  81 107 141 181 225 271 321
#     4  10  17  26  44  74 116 156 186 218 270 338
#     4  10  22  39  54  72 104 144 180 218 267 320
#     4   8  16  29  47  71 104 138 172 221 267 312
#     4  11  23  37  55  80 112 146 181 223 275 334
#     4  10  21  38  60  85 112 144 182 226 274 330
#     4  10  19  33  55  81 104 134 180 226 272 323
#
# _framework density 18.326861999999998
#
# number of rings (size 3 to 8) (size 9 to 14) (size 15 to 20)
#    0.261    1.913    0.870    2.826    0.000    7.304 
#    0.000    4.348    0.000    1.043    0.000    0.000 
#    0.000    0.000    0.000    0.000    0.000    6.174 
#
# Total GULP energy -1711143.430165 kJ/mol
# GULP energy per Si atom -12399.590074 kJ/mol
# Density = 1.828515 g / cm^3
# Si number density = 18.326862 Si / 1000 Ang^3
#
#
#
# Elastic Constant Matrix: (Units=GPa)
#
#
# Indices 1 2 3 4 5 6 
#
# 1 95.9669 32.2843 37.2947 0.0000 0.0000 0.0000
# 2 32.2843 95.9669 37.2947 0.0000 0.0000 0.0000
# 3 37.2947 37.2947 38.0730 0.0000 0.0000 0.0000
# 4 0.0000 0.0000 0.0000 19.1974 0.0000 0.0000
# 5 0.0000 0.0000 0.0000 0.0000 19.1974 0.0000
# 6 0.0000 0.0000 0.0000 0.0000 0.0000 31.8413
#
#
#
# Elastic Compliance Matrix: (Units=1/GPa)
#
#
# Indices 1 2 3 4 5 6 
#
# 1 0.016912 0.001209 -0.017750 0.000000 0.000000 0.000000
# 2 0.001209 0.016912 -0.017750 0.000000 0.000000 0.000000
# 3 -0.017750 -0.017750 0.061040 0.000000 0.000000 0.000000
# 4 0.000000 0.000000 0.000000 0.052090 0.000000 0.000000
# 5 0.000000 0.000000 0.000000 0.000000 0.052090 0.000000
# 6 0.000000 0.000000 0.000000 0.000000 0.000000 0.031406
#
#
# Mechanical properties :
#
#
# Convention : Reuss Voigt Hill
#
# Bulk Modulus (GPa) = 38.05104 49.30600 43.67852
# Shear Modulus (GPa) = 16.24475 22.25609 19.25042
#
# Velocity S-wave (km/s) = 2.98046 3.48860 3.24449
# Velocity P-wave (km/s) = 5.71417 6.57185 6.15796
#
# Compressibility (1/GPa) = 0.02628049
#
# Stress axis : x y z
#
# Youngs Moduli (GPa) = 59.13096 59.13096 16.38283
#
# Poissons Ratio (x) = -0.07147 0.29079
# Poissons Ratio (y) = -0.07147 0.29079
# Poissons Ratio (z) = 1.04957 1.04957
#
# Static dielectric constant tensor:
#      x y z
#    x 3.451450 0.000000 0.000000 
#    y 0.000000 3.451450 0.000000 
#    z 0.000000 0.000000 3.155740 
# 
# 
# High freq. dielectric constant tensor:
#      x y z
#    x 1.720720 0.000000 0.000000 
#    y 0.000000 1.720720 0.000000 
#    z 0.000000 0.000000 1.684760 
# 
# From -- ./inp_files/2046.got.cif
#   From: 2010.03.12/outbox.cif.g09.slc.cpg/sg191_2_cif.got.tgz:2046.got - 2010.04.01 12:09:02.
