data_PCOD8328628
_publ_section_title
;
Structure prediction by ZEFSAII (Michael W. Deem and Ramdas Pophale) SiO2 
 PCOD8328628
Probable space group: P 6/M M M
;
_chemical_formula_sum "Si O2"
_cell_formula_units_Z 120
_cell_length_a 17.763680
_cell_length_b 17.763680
_cell_length_c 24.856201
_cell_angle_alpha 90.000000
_cell_angle_beta 90.000000
_cell_angle_gamma 120.000000
_cell_volume 6792.525321
_symmetry_space_group_name_H-M "P 6/M M M"
_symmetry_group_IT_number 191
_symmetry_cell_setting 'hexagonal'
loop_
_space_group_symop_operation_xyz
x,y,z
x-y,x,z
-y,x-y,z
-x,-y,z
-x+y,-x,z
y,-x+y,z
x-y,-y,-z
-x,-x+y,-z
y,x,-z
-y,-x,-z
-x+y,y,-z
x,x-y,-z
-x,-y,-z
-x+y,-x,-z
y,-x+y,-z
x,y,-z
x-y,x,-z
-y,x-y,-z
-x+y,y,z
x,x-y,z
-y,-x,z
y,x,z
x-y,-y,z
-x,-x+y,z
loop_
_atom_site_type_symbol
_atom_site_label
_atom_site_fract_x
_atom_site_fract_y
_atom_site_fract_z
Si Si1 0.504853 0.835245 0.829513
Si Si2 0.801718 0.603435 0.563687
Si Si3 0.731123 0.633177 0.264012
Si Si4 0.902593 0.362041 0.058060
Si Si5 0.197934 0.098967 0.564054
Si Si6 0.464861 0.363514 0.632004
O O1 0.429213 0.858425 0.822371
O O2 0.469838 0.734919 0.813943
O O3 0.583918 0.897773 0.791071
O O4 0.540388 0.847600 0.890753
O O5 0.800994 0.601988 0.500000
O O6 0.851520 0.703039 0.585606
O O7 0.850295 0.553387 0.583864
O O8 0.834710 0.669419 0.263714
O O9 0.713995 0.713995 0.270623
O O10 0.687209 0.563949 0.311784
O O11 0.904398 0.452199 0.058235
O O12 0.000000 0.379123 0.064165
O O13 0.863723 0.315037 0.000000
O O14 0.148723 0.148723 0.585983
O O15 0.197190 0.098595 0.500000
O O16 0.567523 0.432478 0.634936
O O17 0.411612 0.411612 0.618994
#
# Coordination Sequence:
#
# PCOD8328628 Si02
#       6
#    24  12  24  24  12  24
#     4  10  19  29  44  69 100 135 175 218 259 298
#     4  11  22  37  56  79 106 140 176 215 258 309
#     4  10  20  36  58  81 103 129 164 207 255 305
#     4   8  14  25  40  58  84 123 171 218 261 304
#     4   9  17  30  51  80 112 142 172 208 253 308
#     4  10  21  38  58  79 104 136 174 214 257 304
#
# _framework density 17.666477
#
# number of rings (size 3 to 8) (size 9 to 14) (size 15 to 20)
#    0.000    2.400    1.000    2.700    0.000    4.400 
#    0.600    1.000    0.000    1.400    0.000    0.000 
#    0.000    0.000    0.000    0.000    0.000    0.000 
#
# Total GULP energy -1487500.977078 kJ/mol
# GULP energy per Si atom -12395.841476 kJ/mol
# Density = 1.762627 g / cm^3
# Si number density = 17.666477 Si / 1000 Ang^3
#
#
#
# Elastic Constant Matrix: (Units=GPa)
#
#
# Indices 1 2 3 4 5 6 
#
# 1 91.1775 53.3946 34.2222 0.0000 0.0000 0.0000
# 2 53.3946 91.1775 34.2222 0.0000 0.0000 0.0000
# 3 34.2222 34.2222 95.4768 0.0000 0.0000 0.0000
# 4 0.0000 0.0000 0.0000 22.1553 0.0000 0.0000
# 5 0.0000 0.0000 0.0000 0.0000 22.1553 0.0000
# 6 0.0000 0.0000 0.0000 0.0000 0.0000 18.8915
#
#
#
# Elastic Compliance Matrix: (Units=1/GPa)
#
#
# Indices 1 2 3 4 5 6 
#
# 1 0.017399 -0.009068 -0.002986 0.000000 0.000000 0.000000
# 2 -0.009068 0.017399 -0.002986 0.000000 0.000000 0.000000
# 3 -0.002986 -0.002986 0.012614 0.000000 0.000000 0.000000
# 4 0.000000 0.000000 0.000000 0.045136 0.000000 0.000000
# 5 0.000000 0.000000 0.000000 0.000000 0.045136 0.000000
# 6 0.000000 0.000000 0.000000 0.000000 0.000000 0.052934
#
#
# Mechanical properties :
#
#
# Convention : Reuss Voigt Hill
#
# Bulk Modulus (GPa) = 57.69807 57.94554 57.82181
# Shear Modulus (GPa) = 22.07750 23.03996 22.55873
#
# Velocity S-wave (km/s) = 3.53892 3.61524 3.57728
# Velocity P-wave (km/s) = 7.03059 7.09207 7.06140
#
# Compressibility (1/GPa) = 0.01733160
#
# Stress axis : x y z
#
# Youngs Moduli (GPa) = 57.47526 57.47526 79.27514
#
# Poissons Ratio (x) = 0.52120 0.23671
# Poissons Ratio (y) = 0.52120 0.23671
# Poissons Ratio (z) = 0.17162 0.17162
#
# Static dielectric constant tensor:
#      x y z
#    x 3.156460 0.000000 0.000000 
#    y 0.000000 3.156460 0.000000 
#    z 0.000000 0.000000 3.503390 
# 
# 
# High freq. dielectric constant tensor:
#      x y z
#    x 1.664890 0.000000 0.000000 
#    y 0.000000 1.664890 0.000000 
#    z 0.000000 0.000000 1.690330 
# 
# From -- ./inp_files/8577.got.cif
#   From: 2010.03.12/outbox.cif.g09.slc.cpg/sg191_5_cif.got.tgz:8577.got - 2010.04.01 12:09:02.
