data_PCOD8328958
_publ_section_title
;
Structure prediction by ZEFSAII (Michael W. Deem and Ramdas Pophale) SiO2 
 PCOD8328958
Probable space group: P 6/M M M
;
_chemical_formula_sum "Si O2"
_cell_formula_units_Z 108
_cell_length_a 17.965039
_cell_length_b 17.965039
_cell_length_c 23.089939
_cell_angle_alpha 90.000000
_cell_angle_beta 90.000000
_cell_angle_gamma 120.000000
_cell_volume 6453.714453
_symmetry_space_group_name_H-M "P 6/M M M"
_symmetry_group_IT_number 191
_symmetry_cell_setting 'hexagonal'
loop_
_space_group_symop_operation_xyz
x,y,z
x-y,x,z
-y,x-y,z
-x,-y,z
-x+y,-x,z
y,-x+y,z
x-y,-y,-z
-x,-x+y,-z
y,x,-z
-y,-x,-z
-x+y,y,-z
x,x-y,-z
-x,-y,-z
-x+y,-x,-z
y,-x+y,-z
x,y,-z
x-y,x,-z
-y,x-y,-z
-x+y,y,z
x,x-y,z
-y,-x,z
y,x,z
x-y,-y,z
-x,-x+y,z
loop_
_atom_site_type_symbol
_atom_site_label
_atom_site_fract_x
_atom_site_fract_y
_atom_site_fract_z
Si Si1 0.531945 0.898421 0.788303
Si Si2 0.900041 0.267596 0.894194
Si Si3 0.633176 0.531204 0.339796
Si Si4 0.490795 0.159022 0.000000
Si Si5 0.257567 0.904048 0.435098
O O1 0.430030 0.860059 0.801305
O O2 0.576959 0.868448 0.835286
O O3 0.544165 0.868840 0.724207
O O4 0.576284 0.000000 0.790521
O O5 0.835338 0.164663 0.904193
O O6 0.889592 0.322879 0.944557
O O7 0.000000 0.290424 0.891840
O O8 0.569952 0.430049 0.350852
O O9 0.579326 0.579326 0.343243
O O10 0.703525 0.567223 0.390363
O O11 0.575026 0.150051 0.000000
O O12 0.518571 0.259286 0.000000
O O13 0.291092 0.902100 0.500000
O O14 0.154490 0.845511 0.432188
O O15 0.281270 0.000000 0.417496
#
# Coordination Sequence:
#
# PCOD8328958 Si02
#       5
#    24  24  24  12  24
#     4   8  14  26  44  65  88 112 138 170 211 261
#     4  10  20  32  47  68  93 122 156 194 232 267
#     4   8  14  25  42  64  87 109 135 170 212 259
#     4  10  20  33  50  73 100 126 149 176 216 269
#     4   9  17  28  42  61  85 113 146 185 227 268
#
# _framework density 16.734548
#
# number of rings (size 3 to 8) (size 9 to 14) (size 15 to 20)
#    0.000    3.111    0.000    2.444    0.000    3.111 
#    0.000    2.222    0.000    1.333    0.000    1.556 
#    0.000    2.667    0.000   11.111    0.000    5.778 
#
# Total GULP energy -1338035.351986 kJ/mol
# GULP energy per Si atom -12389.216222 kJ/mol
# Density = 1.669646 g / cm^3
# Si number density = 16.734548 Si / 1000 Ang^3
#
#
#
# Elastic Constant Matrix: (Units=GPa)
#
#
# Indices 1 2 3 4 5 6 
#
# 1 73.8676 41.5524 41.0388 0.0000 0.0000 0.0000
# 2 41.5524 73.8676 41.0388 0.0000 0.0000 0.0000
# 3 41.0388 41.0388 113.0307 0.0000 0.0000 0.0000
# 4 0.0000 0.0000 0.0000 16.2723 0.0000 0.0000
# 5 0.0000 0.0000 0.0000 0.0000 16.2723 0.0000
# 6 0.0000 0.0000 0.0000 0.0000 0.0000 16.1576
#
#
#
# Elastic Compliance Matrix: (Units=1/GPa)
#
#
# Indices 1 2 3 4 5 6 
#
# 1 0.021312 -0.009633 -0.004241 0.000000 0.000000 0.000000
# 2 -0.009633 0.021312 -0.004241 0.000000 0.000000 0.000000
# 3 -0.004241 -0.004241 0.011926 0.000000 0.000000 0.000000
# 4 0.000000 0.000000 0.000000 0.061454 0.000000 0.000000
# 5 0.000000 0.000000 0.000000 0.000000 0.061454 0.000000
# 6 0.000000 0.000000 0.000000 0.000000 0.000000 0.061890
#
#
# Mechanical properties :
#
#
# Convention : Reuss Voigt Hill
#
# Bulk Modulus (GPa) = 54.57534 56.44734 55.51134
# Shear Modulus (GPa) = 17.75028 18.88283 18.31656
#
# Velocity S-wave (km/s) = 3.26037 3.36277 3.31197
# Velocity P-wave (km/s) = 6.84518 6.99156 6.91876
#
# Compressibility (1/GPa) = 0.01832330
#
# Stress axis : x y z
#
# Youngs Moduli (GPa) = 46.92106 46.92106 83.84711
#
# Poissons Ratio (x) = 0.45198 0.35556
# Poissons Ratio (y) = 0.45198 0.35556
# Poissons Ratio (z) = 0.19897 0.19897
#
# Static dielectric constant tensor:
#      x y z
#    x 2.956340 0.000000 0.000000 
#    y 0.000000 2.956340 0.000000 
#    z 0.000000 0.000000 3.568870 
# 
# 
# High freq. dielectric constant tensor:
#      x y z
#    x 1.615560 0.000000 0.000000 
#    y 0.000000 1.615560 0.000000 
#    z 0.000000 0.000000 1.665220 
# 
# From -- ./inp_files/8421.got.cif
#   From: 2010.03.12/outbox.cif.g09.slc.cpg/sg191_5_cif.got.tgz:8421.got - 2010.04.01 12:09:02.
