data_PCOD8328250
_publ_section_title
;
Structure prediction by ZEFSAII (Michael W. Deem and Ramdas Pophale) SiO2 
 PCOD8328250
Probable space group: P 6/M M M
;
_chemical_formula_sum "Si O2"
_cell_formula_units_Z 120
_cell_length_a 28.490751
_cell_length_b 28.490751
_cell_length_c 11.952548
_cell_angle_alpha 90.000000
_cell_angle_beta 90.000000
_cell_angle_gamma 120.000000
_cell_volume 8402.314291
_symmetry_space_group_name_H-M "P 6/M M M"
_symmetry_group_IT_number 191
_symmetry_cell_setting 'hexagonal'
loop_
_space_group_symop_operation_xyz
x,y,z
x-y,x,z
-y,x-y,z
-x,-y,z
-x+y,-x,z
y,-x+y,z
x-y,-y,-z
-x,-x+y,-z
y,x,-z
-y,-x,-z
-x+y,y,-z
x,x-y,-z
-x,-y,-z
-x+y,-x,-z
y,-x+y,-z
x,y,-z
x-y,x,-z
-y,x-y,-z
-x+y,y,z
x,x-y,z
-y,-x,z
y,x,z
x-y,-y,z
-x,-x+y,z
loop_
_atom_site_type_symbol
_atom_site_label
_atom_site_fract_x
_atom_site_fract_y
_atom_site_fract_z
Si Si1 0.750825 0.687590 0.721114
Si Si2 0.935697 0.361337 0.500000
Si Si3 0.222345 0.059498 0.872465
Si Si4 0.063869 0.480058 0.276310
Si Si5 0.124100 0.766413 0.500000
Si Si6 0.398026 0.064535 0.874791
O O1 0.712830 0.712830 0.690154
O O2 0.800873 0.726535 0.797067
O O3 0.776302 0.678490 0.609741
O O4 0.717074 0.631884 0.790525
O O5 0.920891 0.385015 0.606552
O O6 0.893766 0.297040 0.500000
O O7 0.000000 0.377963 0.500000
O O8 0.199973 0.099987 0.847720
O O9 0.172944 0.000000 0.844961
O O10 0.242067 0.063546 0.000000
O O11 0.090550 0.545275 0.267474
O O12 0.084777 0.458081 0.174235
O O13 0.000000 0.453131 0.268224
O O14 0.189453 0.810548 0.500000
O O15 0.363392 0.000000 0.879717
O O16 0.403559 0.088515 0.000000
#
# Coordination Sequence:
#
# PCOD8328250 Si02
#       6
#    24  12  24  24  12  24
#     4  10  18  30  44  58  80 110 142 172 208 253
#     4  10  17  30  44  57  79 112 146 175 210 250
#     4   9  17  29  45  63  82 105 136 175 215 257
#     4   9  16  25  40  61  83 109 142 174 199 229
#     4  12  22  29  41  60  80 105 140 181 218 252
#     4   9  16  25  39  59  83 111 141 170 202 238
#
# _framework density 14.281779
#
# number of rings (size 3 to 8) (size 9 to 14) (size 15 to 20)
#    0.000    2.400    2.000    2.400    0.000    4.000 
#    0.000    2.000    0.000    0.200    0.000    1.400 
#    0.000    0.000    0.000    2.400    0.000   20.800 
#
# Total GULP energy -1487157.446553 kJ/mol
# GULP energy per Si atom -12392.978721 kJ/mol
# Density = 1.424927 g / cm^3
# Si number density = 14.281779 Si / 1000 Ang^3
#
#
#
# Elastic Constant Matrix: (Units=GPa)
#
#
# Indices 1 2 3 4 5 6 
#
# 1 69.2086 47.9057 40.1453 0.0000 0.0000 0.0000
# 2 47.9057 69.2086 40.1453 0.0000 0.0000 0.0000
# 3 40.1453 40.1453 99.4958 0.0000 0.0000 0.0000
# 4 0.0000 0.0000 0.0000 20.5516 0.0000 0.0000
# 5 0.0000 0.0000 0.0000 0.0000 20.5516 0.0000
# 6 0.0000 0.0000 0.0000 0.0000 0.0000 10.6515
#
#
#
# Elastic Compliance Matrix: (Units=1/GPa)
#
#
# Indices 1 2 3 4 5 6 
#
# 1 0.029373 -0.017569 -0.004763 0.000000 0.000000 0.000000
# 2 -0.017569 0.029373 -0.004763 0.000000 0.000000 0.000000
# 3 -0.004763 -0.004763 0.013894 0.000000 0.000000 0.000000
# 4 0.000000 0.000000 0.000000 0.048658 0.000000 0.000000
# 5 0.000000 0.000000 0.000000 0.000000 0.048658 0.000000
# 6 0.000000 0.000000 0.000000 0.000000 0.000000 0.093884
#
#
# Mechanical properties :
#
#
# Convention : Reuss Voigt Hill
#
# Bulk Modulus (GPa) = 54.19776 54.92285 54.56031
# Shear Modulus (GPa) = 15.42358 17.66539 16.54448
#
# Velocity S-wave (km/s) = 3.28982 3.52080 3.40727
# Velocity P-wave (km/s) = 7.24305 7.42079 7.33246
#
# Compressibility (1/GPa) = 0.01845095
#
# Stress axis : x y z
#
# Youngs Moduli (GPa) = 34.04497 34.04497 71.97319
#
# Poissons Ratio (x) = 0.59814 0.34279
# Poissons Ratio (y) = 0.59814 0.34279
# Poissons Ratio (z) = 0.16215 0.16215
#
# Static dielectric constant tensor:
#      x y z
#    x 2.685170 0.000000 0.000000 
#    y 0.000000 2.685170 0.000000 
#    z 0.000000 0.000000 3.012740 
# 
# 
# High freq. dielectric constant tensor:
#      x y z
#    x 1.511770 0.000000 0.000000 
#    y 0.000000 1.511770 0.000000 
#    z 0.000000 0.000000 1.564180 
# 
# From -- ./inp_files/3231.got.cif
#   From: 2010.03.12/outbox.cif.g09.slc.cpg/sg191_2_cif.got.tgz:3231.got - 2010.04.01 12:09:02.
