data_PCOD8328668
_publ_section_title
;
Structure prediction by ZEFSAII (Michael W. Deem and Ramdas Pophale) SiO2 
 PCOD8328668
Probable space group: P 6/M M M
;
_chemical_formula_sum "Si O2"
_cell_formula_units_Z 120
_cell_length_a 18.523044
_cell_length_b 18.523044
_cell_length_c 25.125984
_cell_angle_alpha 90.000000
_cell_angle_beta 90.000000
_cell_angle_gamma 120.000000
_cell_volume 7465.835684
_symmetry_space_group_name_H-M "P 6/M M M"
_symmetry_group_IT_number 191
_symmetry_cell_setting 'hexagonal'
loop_
_space_group_symop_operation_xyz
x,y,z
x-y,x,z
-y,x-y,z
-x,-y,z
-x+y,-x,z
y,-x+y,z
x-y,-y,-z
-x,-x+y,-z
y,x,-z
-y,-x,-z
-x+y,y,-z
x,x-y,-z
-x,-y,-z
-x+y,-x,-z
y,-x+y,-z
x,y,-z
x-y,x,-z
-y,x-y,-z
-x+y,y,z
x,x-y,z
-y,-x,z
y,x,z
x-y,-y,z
-x,-x+y,z
loop_
_atom_site_type_symbol
_atom_site_label
_atom_site_fract_x
_atom_site_fract_y
_atom_site_fract_z
Si Si1 0.500919 0.664838 0.615413
Si Si2 0.331520 0.499369 0.889141
Si Si3 0.505314 0.334450 0.500000
Si Si4 0.906514 0.255712 0.186873
Si Si5 0.093000 0.632004 0.000000
Si Si6 0.092812 0.745234 0.309649
O O1 0.482881 0.741441 0.614534
O O2 0.417352 0.582649 0.634408
O O3 0.528940 0.650449 0.556040
O O4 0.573456 0.680870 0.656109
O O5 0.264895 0.529791 0.880594
O O6 0.423480 0.576521 0.881158
O O7 0.319080 0.430253 0.846242
O O8 0.317452 0.458894 0.947669
O O9 0.605535 0.394466 0.500000
O O10 0.479251 0.239626 0.500000
O O11 0.840408 0.159593 0.171538
O O12 0.896963 0.272376 0.248419
O O13 0.000000 0.274152 0.174543
O O14 0.088284 0.544142 0.000000
O O15 0.000000 0.618621 0.000000
O O16 0.159101 0.840900 0.325083
O O17 0.000000 0.729105 0.320923
#
# Coordination Sequence:
#
# PCOD8328668 Si02
#       6
#    24  24  12  24  12  24
#     4   9  16  26  41  62  88 118 150 181 211 244
#     4  10  19  30  44  63  89 121 155 187 217 250
#     4   8  13  22  37  57  82 113 148 182 213 244
#     4   9  18  32  49  67  86 110 140 175 216 261
#     4   9  17  28  42  60  82 111 149 191 229 260
#     4   9  18  32  48  65  85 110 140 174 215 261
#
# _framework density 16.073218000000001
#
# number of rings (size 3 to 8) (size 9 to 14) (size 15 to 20)
#    0.000    2.900    0.000    1.400    0.000    4.000 
#    0.000    3.500    0.000    4.600    0.000    2.800 
#    0.000    0.000    0.000    0.000    0.000   32.600 
#
# Total GULP energy -1487088.304412 kJ/mol
# GULP energy per Si atom -12392.402537 kJ/mol
# Density = 1.603663 g / cm^3
# Si number density = 16.073218 Si / 1000 Ang^3
#
#
#
# Elastic Constant Matrix: (Units=GPa)
#
#
# Indices 1 2 3 4 5 6 
#
# 1 83.7900 55.1264 45.4791 0.0000 0.0000 0.0000
# 2 55.1264 83.7900 45.4791 0.0000 0.0000 0.0000
# 3 45.4791 45.4791 80.4076 0.0000 0.0000 0.0000
# 4 0.0000 0.0000 0.0000 18.1909 0.0000 0.0000
# 5 0.0000 0.0000 0.0000 0.0000 18.1909 0.0000
# 6 0.0000 0.0000 0.0000 0.0000 0.0000 14.3318
#
#
#
# Elastic Compliance Matrix: (Units=1/GPa)
#
#
# Indices 1 2 3 4 5 6 
#
# 1 0.023160 -0.011727 -0.006466 0.000000 0.000000 0.000000
# 2 -0.011727 0.023160 -0.006466 0.000000 0.000000 0.000000
# 3 -0.006466 -0.006466 0.019751 0.000000 0.000000 0.000000
# 4 0.000000 0.000000 0.000000 0.054973 0.000000 0.000000
# 5 0.000000 0.000000 0.000000 0.000000 0.054973 0.000000
# 6 0.000000 0.000000 0.000000 0.000000 0.000000 0.069775
#
#
# Mechanical properties :
#
#
# Convention : Reuss Voigt Hill
#
# Bulk Modulus (GPa) = 59.69722 60.01744 59.85733
# Shear Modulus (GPa) = 16.62814 16.93626 16.78220
#
# Velocity S-wave (km/s) = 3.21989 3.24959 3.23477
# Velocity P-wave (km/s) = 7.14458 7.17641 7.16051
#
# Compressibility (1/GPa) = 0.01675120
#
# Stress axis : x y z
#
# Youngs Moduli (GPa) = 43.17799 43.17799 50.62924
#
# Poissons Ratio (x) = 0.50637 0.32738
# Poissons Ratio (y) = 0.50637 0.32738
# Poissons Ratio (z) = 0.27920 0.27920
#
# Static dielectric constant tensor:
#      x y z
#    x 2.928120 0.000000 0.000000 
#    y 0.000000 2.928120 0.000000 
#    z 0.000000 0.000000 3.326490 
# 
# 
# High freq. dielectric constant tensor:
#      x y z
#    x 1.597010 0.000000 0.000000 
#    y 0.000000 1.597010 0.000000 
#    z 0.000000 0.000000 1.631110 
# 
# From -- ./inp_files/8499.got.cif
#   From: 2010.03.12/outbox.cif.g09.slc.cpg/sg191_5_cif.got.tgz:8499.got - 2010.04.01 12:09:02.
