data_PCOD8328817
_publ_section_title
;
Structure prediction by ZEFSAII (Michael W. Deem and Ramdas Pophale) SiO2 
 PCOD8328817
Probable space group: P 6/M M M
;
_chemical_formula_sum "Si O2"
_cell_formula_units_Z 96
_cell_length_a 21.553988
_cell_length_b 21.553988
_cell_length_c 14.469498
_cell_angle_alpha 90.000000
_cell_angle_beta 90.000000
_cell_angle_gamma 120.000000
_cell_volume 5821.559885
_symmetry_space_group_name_H-M "P 6/M M M"
_symmetry_group_IT_number 191
_symmetry_cell_setting 'hexagonal'
loop_
_space_group_symop_operation_xyz
x,y,z
x-y,x,z
-y,x-y,z
-x,-y,z
-x+y,-x,z
y,-x+y,z
x-y,-y,-z
-x,-x+y,-z
y,x,-z
-y,-x,-z
-x+y,y,-z
x,x-y,-z
-x,-y,-z
-x+y,-x,-z
y,-x+y,-z
x,y,-z
x-y,x,-z
-y,x-y,-z
-x+y,y,z
x,x-y,z
-y,-x,z
y,x,z
x-y,-y,z
-x,-x+y,z
loop_
_atom_site_type_symbol
_atom_site_label
_atom_site_fract_x
_atom_site_fract_y
_atom_site_fract_z
Si Si1 0.921926 0.212608 0.500000
Si Si2 0.526843 0.332906 0.604397
Si Si3 0.084703 0.542352 0.897693
Si Si4 0.642235 0.082862 0.245644
Si Si5 0.918215 0.693973 0.703662
O O1 0.872338 0.127663 0.500000
O O2 0.909270 0.243813 0.403757
O O3 0.000000 0.222377 0.500000
O O4 0.497868 0.324316 0.500000
O O5 0.513676 0.256838 0.642277
O O6 0.611333 0.388668 0.608047
O O7 0.485479 0.361655 0.665491
O O8 0.109676 0.617354 0.844136
O O9 0.000000 0.500000 0.907294
O O10 0.119840 0.559920 0.000000
O O11 0.722540 0.095540 0.231917
O O12 0.586663 0.000000 0.264624
O O13 0.858693 0.717385 0.726785
O O14 0.000000 0.760235 0.719435
#
# Coordination Sequence:
#
# PCOD8328817 Si02
#       5
#    12  24  12  24  24
#     4   8  14  24  38  58  87 125 161 195 235 283
#     4  10  20  32  46  65  91 125 160 190 226 278
#     4   9  18  34  53  71  93 121 154 194 243 297
#     4  10  19  31  48  72  95 119 154 195 245 294
#     4   9  17  28  44  67  97 130 165 201 242 291
#
# _framework density 16.490427
#
# number of rings (size 3 to 8) (size 9 to 14) (size 15 to 20)
#    0.000    2.625    1.250    1.000    1.750    1.500 
#    0.000    1.250    0.000    3.375    0.000    3.500 
#    0.000    0.000    0.000    0.000    0.000    0.000 
#
# Total GULP energy -1189288.139972 kJ/mol
# GULP energy per Si atom -12388.418125 kJ/mol
# Density = 1.645289 g / cm^3
# Si number density = 16.490427 Si / 1000 Ang^3
#
#
#
# Elastic Constant Matrix: (Units=GPa)
#
#
# Indices 1 2 3 4 5 6 
#
# 1 81.7228 41.9020 46.8296 0.0000 0.0000 0.0000
# 2 41.9020 81.7228 46.8296 0.0000 0.0000 0.0000
# 3 46.8296 46.8296 81.4898 0.0000 0.0000 0.0000
# 4 0.0000 0.0000 0.0000 14.0400 0.0000 0.0000
# 5 0.0000 0.0000 0.0000 0.0000 14.0400 0.0000
# 6 0.0000 0.0000 0.0000 0.0000 0.0000 19.9104
#
#
#
# Elastic Compliance Matrix: (Units=1/GPa)
#
#
# Indices 1 2 3 4 5 6 
#
# 1 0.019719 -0.005393 -0.008233 0.000000 0.000000 0.000000
# 2 -0.005393 0.019719 -0.008233 0.000000 0.000000 0.000000
# 3 -0.008233 -0.008233 0.021734 0.000000 0.000000 0.000000
# 4 0.000000 0.000000 0.000000 0.071225 0.000000 0.000000
# 5 0.000000 0.000000 0.000000 0.000000 0.071225 0.000000
# 6 0.000000 0.000000 0.000000 0.000000 0.000000 0.050225
#
#
# Mechanical properties :
#
#
# Convention : Reuss Voigt Hill
#
# Bulk Modulus (GPa) = 57.29043 57.33976 57.31510
# Shear Modulus (GPa) = 16.48079 16.88970 16.68525
#
# Velocity S-wave (km/s) = 3.16478 3.20380 3.18435
# Velocity P-wave (km/s) = 6.94057 6.96655 6.95357
#
# Compressibility (1/GPa) = 0.01745492
#
# Stress axis : x y z
#
# Youngs Moduli (GPa) = 50.71154 50.71154 46.01131
#
# Poissons Ratio (x) = 0.27349 0.37880
# Poissons Ratio (y) = 0.27349 0.37880
# Poissons Ratio (z) = 0.41750 0.41750
#
# Static dielectric constant tensor:
#      x y z
#    x 3.094600 0.000000 0.000000 
#    y 0.000000 3.094600 0.000000 
#    z 0.000000 0.000000 3.076310 
# 
# 
# High freq. dielectric constant tensor:
#      x y z
#    x 1.627500 0.000000 0.000000 
#    y 0.000000 1.627500 0.000000 
#    z 0.000000 0.000000 1.598400 
# 
# From -- ./inp_files/2832.got.cif
#   From: 2010.03.12/outbox.cif.g09.slc.cpg/sg191_2_cif.got.tgz:2832.got - 2010.04.01 12:09:02.
