data_PCOD8328011
_publ_section_title
;
Structure prediction by ZEFSAII (Michael W. Deem and Ramdas Pophale) SiO2 
 PCOD8328011
Probable space group: P -6 2 C
;
_chemical_formula_sum "Si O2"
_cell_formula_units_Z 90
_cell_length_a 17.672861
_cell_length_b 17.672861
_cell_length_c 17.929952
_cell_angle_alpha 90.000000
_cell_angle_beta 90.000000
_cell_angle_gamma 120.000000
_cell_volume 4849.796123
_symmetry_space_group_name_H-M "P -6 2 C"
_symmetry_group_IT_number 190
_symmetry_cell_setting 'hexagonal'
loop_
_space_group_symop_operation_xyz
x,y,z
-x+y,-x,1/2-z
-y,x-y,z
x,y,1/2-z
-x+y,-x,z
-y,x-y,1/2-z
x-y,-y,-z
-x,-x+y,-z
y,x,-z
y,x,1/2+z
x-y,-y,1/2+z
-x,-x+y,1/2+z
loop_
_atom_site_type_symbol
_atom_site_label
_atom_site_fract_x
_atom_site_fract_y
_atom_site_fract_z
Si Si1 0.552710 0.781740 0.895627
Si Si2 0.354588 0.317632 0.336441
Si Si3 0.738649 0.294007 0.250000
Si Si4 0.905670 0.142660 0.666342
Si Si5 0.556033 0.286235 0.544336
Si Si6 0.421845 0.267008 0.665922
Si Si7 0.054479 0.264671 0.926327
Si Si8 0.804338 0.981719 0.918704
O O1 0.573403 0.881442 0.883449
O O2 0.504189 0.724142 0.823157
O O3 0.638184 0.774013 0.913546
O O4 0.489686 0.750113 0.965233
O O5 0.375576 0.316165 0.250000
O O6 0.346151 0.403037 0.355827
O O7 0.263178 0.231812 0.353846
O O8 0.631973 0.235404 0.250000
O O9 0.918924 0.119442 0.750000
O O10 0.822525 0.154857 0.659294
O O11 0.894837 0.065015 0.610215
O O12 0.988442 0.235181 0.643232
O O13 0.609608 0.234031 0.550455
O O14 0.488921 0.260737 0.611351
O O15 0.459015 0.281301 0.750000
O O16 0.085736 0.192706 0.929113
O O17 0.000000 0.260002 0.000000
O O18 0.776012 0.000000 0.000000
#
# Coordination Sequence:
#
# PCOD8328011 Si02
#       8
#    12  12   6  12  12  12  12  12
#     4  11  21  37  64  87 123 158 208 250 304 367
#     4   9  19  33  58  92 112 141 195 247 291 350
#     4  10  22  40  68  88 118 162 204 250 318 386
#     4  10  21  37  57  84 123 161 203 255 307 355
#     4  10  23  39  61  85 114 151 199 243 295 378
#     4   9  19  38  64  87 119 155 197 248 303 359
#     4  11  22  35  59  87 121 165 215 255 306 364
#     4  10  19  33  54  80 114 157 202 244 290 352
#
# _framework density 18.557480999999999
#
# number of rings (size 3 to 8) (size 9 to 14) (size 15 to 20)
#    0.400    1.600    2.000    2.800    6.533    1.600 
#    0.800    0.667   14.667    0.000    0.000    0.000 
#    0.000    0.000    0.000    0.000    0.000    0.000 
#
# Total GULP energy -1115065.783732 kJ/mol
# GULP energy per Si atom -12389.619819 kJ/mol
# Density = 1.851524 g / cm^3
# Si number density = 18.557481 Si / 1000 Ang^3
#
#
#
# Elastic Constant Matrix: (Units=GPa)
#
#
# Indices 1 2 3 4 5 6 
#
# 1 74.2601 21.5939 47.0281 0.0000 0.0000 0.0000
# 2 21.5939 74.2601 47.0281 0.0000 0.0000 0.0000
# 3 47.0281 47.0281 132.1787 0.0000 0.0000 0.0000
# 4 0.0000 0.0000 0.0000 12.6858 0.0000 0.0000
# 5 0.0000 0.0000 0.0000 0.0000 12.6858 0.0000
# 6 0.0000 0.0000 0.0000 0.0000 0.0000 26.3331
#
#
#
# Elastic Compliance Matrix: (Units=1/GPa)
#
#
# Indices 1 2 3 4 5 6 
#
# 1 0.017508 -0.001480 -0.005703 0.000000 0.000000 0.000000
# 2 -0.001480 0.017508 -0.005703 0.000000 0.000000 0.000000
# 3 -0.005703 -0.005703 0.011624 0.000000 0.000000 0.000000
# 4 0.000000 0.000000 0.000000 0.078829 0.000000 0.000000
# 5 0.000000 0.000000 0.000000 0.000000 0.078829 0.000000
# 6 0.000000 0.000000 0.000000 0.000000 0.000000 0.037975
#
#
# Mechanical properties :
#
#
# Convention : Reuss Voigt Hill
#
# Bulk Modulus (GPa) = 47.91760 56.88879 52.40319
# Shear Modulus (GPa) = 18.18194 21.34417 19.76305
#
# Velocity S-wave (km/s) = 3.13351 3.39509 3.26692
# Velocity P-wave (km/s) = 6.24252 6.78902 6.52150
#
# Compressibility (1/GPa) = 0.02086916
#
# Stress axis : x y z
#
# Youngs Moduli (GPa) = 57.11699 57.11699 86.03252
#
# Poissons Ratio (x) = 0.08451 0.49062
# Poissons Ratio (y) = 0.08451 0.49062
# Poissons Ratio (z) = 0.32572 0.32572
#
# Static dielectric constant tensor:
#      x y z
#    x 3.399180 0.000000 0.000000 
#    y 0.000000 3.399180 0.000000 
#    z 0.000000 0.000000 3.552640 
# 
# 
# High freq. dielectric constant tensor:
#      x y z
#    x 1.702970 0.000000 0.000000 
#    y 0.000000 1.702970 0.000000 
#    z 0.000000 0.000000 1.737090 
# 
# From -- ./inp_files/3959.got.cif
#   From: 2010.06.25/outbox.cif.g09.slc.cpg/sg190_2_cif.got.tgz:3959.got - 2010.06.28 13:08:06.
