data_PCOD8328755
_publ_section_title
;
Structure prediction by ZEFSAII (Michael W. Deem and Ramdas Pophale) SiO2 
 PCOD8328755
Probable space group: P 6/M M M
;
_chemical_formula_sum "Si O2"
_cell_formula_units_Z 192
_cell_length_a 23.921644
_cell_length_b 23.921644
_cell_length_c 22.518768
_cell_angle_alpha 90.000000
_cell_angle_beta 90.000000
_cell_angle_gamma 120.000000
_cell_volume 11159.822940
_symmetry_space_group_name_H-M "P 6/M M M"
_symmetry_group_IT_number 191
_symmetry_cell_setting 'hexagonal'
loop_
_space_group_symop_operation_xyz
x,y,z
x-y,x,z
-y,x-y,z
-x,-y,z
-x+y,-x,z
y,-x+y,z
x-y,-y,-z
-x,-x+y,-z
y,x,-z
-y,-x,-z
-x+y,y,-z
x,x-y,-z
-x,-y,-z
-x+y,-x,-z
y,-x+y,-z
x,y,-z
x-y,x,-z
-y,x-y,-z
-x+y,y,z
x,x-y,z
-y,-x,z
y,x,z
x-y,-y,z
-x,-x+y,z
loop_
_atom_site_type_symbol
_atom_site_label
_atom_site_fract_x
_atom_site_fract_y
_atom_site_fract_z
Si Si1 0.795878 0.463245 0.354789
Si Si2 0.483041 0.841282 0.776180
Si Si3 0.626827 0.700670 0.813152
Si Si4 0.456787 0.666710 0.902152
Si Si5 0.401972 0.266222 0.934399
Si Si6 0.734779 0.806755 0.745190
Si Si7 0.724515 0.926773 0.605886
Si Si8 0.417632 0.274856 0.566611
O O1 0.724730 0.449460 0.372824
O O2 0.801778 0.400889 0.371833
O O3 0.804605 0.477730 0.284754
O O4 0.851756 0.525783 0.389942
O O5 0.436088 0.872176 0.773840
O O6 0.555519 0.896338 0.787874
O O7 0.462190 0.791258 0.830538
O O8 0.658093 0.658093 0.798014
O O9 0.633044 0.715938 0.883518
O O10 0.666152 0.767854 0.778266
O O11 0.437166 0.718583 0.923195
O O12 0.403308 0.596693 0.924632
O O13 0.522657 0.680686 0.932987
O O14 0.392530 0.196265 0.920194
O O15 0.374658 0.267707 0.000000
O O16 0.764805 0.882403 0.760085
O O17 0.785650 0.785650 0.767453
O O18 0.720810 0.794391 0.676175
O O19 0.740706 0.870353 0.584240
O O20 0.654604 0.913090 0.583574
O O21 0.778787 0.000000 0.584289
O O22 0.433102 0.303405 0.500000
O O23 0.418068 0.209034 0.571080
#
# Coordination Sequence:
#
# PCOD8328755 Si02
#       8
#    24  24  24  24  24  24  24  24
#     4  10  19  31  48  69  93 121 154 194 241 292
#     4   9  18  30  43  62  88 116 146 185 234 284
#     4  10  19  30  47  68  87 113 151 190 227 268
#     4   9  16  26  41  60  81 105 136 177 224 273
#     4   9  18  31  44  59  83 114 143 174 218 270
#     4   9  17  29  47  72  98 121 147 182 223 265
#     4   9  17  30  50  75 101 128 159 196 235 275
#     4   9  18  31  46  66  93 125 159 194 232 274
#
# _framework density 17.204574000000001
#
# number of rings (size 3 to 8) (size 9 to 14) (size 15 to 20)
#    0.000    2.750    0.000    1.750    0.000    3.750 
#    0.000    1.250    0.000    2.875    0.000    6.125 
#    0.000    0.000    0.000    3.125    0.000    3.250 
#
# Total GULP energy -2379372.707443 kJ/mol
# GULP energy per Si atom -12392.566185 kJ/mol
# Density = 1.716542 g / cm^3
# Si number density = 17.204574 Si / 1000 Ang^3
#
#
#
# Elastic Constant Matrix: (Units=GPa)
#
#
# Indices 1 2 3 4 5 6 
#
# 1 74.0568 36.3515 23.4574 0.0000 0.0000 0.0000
# 2 36.3515 74.0568 23.4574 0.0000 0.0000 0.0000
# 3 23.4574 23.4574 52.2853 0.0000 0.0000 0.0000
# 4 0.0000 0.0000 0.0000 15.7662 0.0000 0.0000
# 5 0.0000 0.0000 0.0000 0.0000 15.7662 0.0000
# 6 0.0000 0.0000 0.0000 0.0000 0.0000 18.8527
#
#
#
# Elastic Compliance Matrix: (Units=1/GPa)
#
#
# Indices 1 2 3 4 5 6 
#
# 1 0.018856 -0.007665 -0.005021 0.000000 0.000000 0.000000
# 2 -0.007665 0.018856 -0.005021 0.000000 0.000000 0.000000
# 3 -0.005021 -0.005021 0.023631 0.000000 0.000000 0.000000
# 4 0.000000 0.000000 0.000000 0.063427 0.000000 0.000000
# 5 0.000000 0.000000 0.000000 0.000000 0.063427 0.000000
# 6 0.000000 0.000000 0.000000 0.000000 0.000000 0.053043
#
#
# Mechanical properties :
#
#
# Convention : Reuss Voigt Hill
#
# Bulk Modulus (GPa) = 38.56592 40.77018 39.66805
# Shear Modulus (GPa) = 17.52568 17.88586 17.70577
#
# Velocity S-wave (km/s) = 3.19511 3.22778 3.21149
# Velocity P-wave (km/s) = 6.00636 6.13516 6.07110
#
# Compressibility (1/GPa) = 0.02592963
#
# Stress axis : x y z
#
# Youngs Moduli (GPa) = 53.03336 53.03336 42.31779
#
# Poissons Ratio (x) = 0.40652 0.21246
# Poissons Ratio (y) = 0.40652 0.21246
# Poissons Ratio (z) = 0.26626 0.26626
#
# Static dielectric constant tensor:
#      x y z
#    x 3.203440 0.000000 0.000000 
#    y 0.000000 3.203440 0.000000 
#    z 0.000000 0.000000 3.280210 
# 
# 
# High freq. dielectric constant tensor:
#      x y z
#    x 1.645430 0.000000 0.000000 
#    y 0.000000 1.645430 0.000000 
#    z 0.000000 0.000000 1.667250 
# 
# From -- ./inp_files/8163.got.cif
#   From: 2010.03.12/outbox.cif.g09.slc.cpg/sg191_5_cif.got.tgz:8163.got - 2010.04.01 12:09:02.
