data_PCOD8328922
_publ_section_title
;
Structure prediction by ZEFSAII (Michael W. Deem and Ramdas Pophale) SiO2 
 PCOD8328922
Probable space group: P 6/M M M
;
_chemical_formula_sum "Si O2"
_cell_formula_units_Z 168
_cell_length_a 30.000305
_cell_length_b 30.000305
_cell_length_c 13.009450
_cell_angle_alpha 90.000000
_cell_angle_beta 90.000000
_cell_angle_gamma 120.000000
_cell_volume 10140.068949
_symmetry_space_group_name_H-M "P 6/M M M"
_symmetry_group_IT_number 191
_symmetry_cell_setting 'hexagonal'
loop_
_space_group_symop_operation_xyz
x,y,z
x-y,x,z
-y,x-y,z
-x,-y,z
-x+y,-x,z
y,-x+y,z
x-y,-y,-z
-x,-x+y,-z
y,x,-z
-y,-x,-z
-x+y,y,-z
x,x-y,-z
-x,-y,-z
-x+y,-x,-z
y,-x+y,-z
x,y,-z
x-y,x,-z
-y,x-y,-z
-x+y,y,z
x,x-y,z
-y,-x,z
y,x,z
x-y,-y,z
-x,-x+y,z
loop_
_atom_site_type_symbol
_atom_site_label
_atom_site_fract_x
_atom_site_fract_y
_atom_site_fract_z
Si Si1 0.941257 0.247382 0.722312
Si Si2 0.135326 0.761944 0.115587
Si Si3 0.438280 0.666671 0.118879
Si Si4 0.942355 0.156583 0.620903
Si Si5 0.055387 0.575717 0.118481
Si Si6 0.600619 0.660172 0.380408
Si Si7 0.671880 0.137362 0.214125
O O1 0.913428 0.240391 0.830523
O O2 0.922163 0.192598 0.669061
O O3 0.931763 0.283511 0.644589
O O4 0.000000 0.272203 0.752549
O O5 0.179705 0.820296 0.114562
O O6 0.155068 0.729747 0.181397
O O7 0.120436 0.740238 0.000000
O O8 0.433698 0.716849 0.140109
O O9 0.382937 0.617064 0.138057
O O10 0.477793 0.665312 0.203011
O O11 0.456249 0.667147 0.000000
O O12 0.942644 0.164186 0.500000
O O13 0.902602 0.097399 0.652434
O O14 0.000000 0.172450 0.658948
O O15 0.074347 0.537174 0.164669
O O16 0.095716 0.634810 0.132597
O O17 0.000000 0.560771 0.168532
O O18 0.047036 0.564981 0.000000
O O19 0.587463 0.656561 0.500000
O O20 0.616907 0.616907 0.351331
O O21 0.549870 0.654806 0.321877
#
# Coordination Sequence:
#
# PCOD8328922 Si02
#       7
#    24  24  24  24  24  24  24
#     4   9  17  29  46  65  85 116 156 192 224 259
#     4  10  20  31  42  61  93 126 150 177 218 268
#     4  10  20  34  53  76 100 124 152 190 237 285
#     4   9  16  26  42  63  85 110 144 187 230 269
#     4   9  17  28  42  63  91 118 144 178 218 258
#     4   9  18  32  48  68  96 126 156 192 230 265
#     4  11  19  29  48  70  91 121 157 188 221 270
#
# _framework density 16.567934999999999
#
# number of rings (size 3 to 8) (size 9 to 14) (size 15 to 20)
#    0.000    2.429    0.000    4.000    0.000    5.429 
#    0.000    0.000    0.000   10.429    0.000    6.000 
#    0.000    1.143    0.000    0.000    0.000    0.000 
#
# Total GULP energy -2081334.585250 kJ/mol
# GULP energy per Si atom -12388.896341 kJ/mol
# Density = 1.653023 g / cm^3
# Si number density = 16.567935 Si / 1000 Ang^3
#
#
#
# Elastic Constant Matrix: (Units=GPa)
#
#
# Indices 1 2 3 4 5 6 
#
# 1 90.9640 44.3273 37.2141 0.0000 0.0000 0.0000
# 2 44.3273 90.9640 37.2141 0.0000 0.0000 0.0000
# 3 37.2141 37.2141 75.1560 0.0000 0.0000 0.0000
# 4 0.0000 0.0000 0.0000 21.8801 0.0000 0.0000
# 5 0.0000 0.0000 0.0000 0.0000 21.8801 0.0000
# 6 0.0000 0.0000 0.0000 0.0000 0.0000 23.3183
#
#
#
# Elastic Compliance Matrix: (Units=1/GPa)
#
#
# Indices 1 2 3 4 5 6 
#
# 1 0.015801 -0.005642 -0.005030 0.000000 0.000000 0.000000
# 2 -0.005642 0.015801 -0.005030 0.000000 0.000000 0.000000
# 3 -0.005030 -0.005030 0.018287 0.000000 0.000000 0.000000
# 4 0.000000 0.000000 0.000000 0.045704 0.000000 0.000000
# 5 0.000000 0.000000 0.000000 0.000000 0.045704 0.000000
# 6 0.000000 0.000000 0.000000 0.000000 0.000000 0.042885
#
#
# Mechanical properties :
#
#
# Convention : Reuss Voigt Hill
#
# Bulk Modulus (GPa) = 54.10124 54.95501 54.52813
# Shear Modulus (GPa) = 22.54834 22.63760 22.59297
#
# Velocity S-wave (km/s) = 3.69313 3.70043 3.69678
# Velocity P-wave (km/s) = 7.13517 7.17628 7.15576
#
# Compressibility (1/GPa) = 0.01848386
#
# Stress axis : x y z
#
# Youngs Moduli (GPa) = 63.28899 63.28899 54.68331
#
# Poissons Ratio (x) = 0.35706 0.27507
# Poissons Ratio (y) = 0.35706 0.27507
# Poissons Ratio (z) = 0.31835 0.31835
#
# Static dielectric constant tensor:
#      x y z
#    x 3.214280 0.000000 0.000000 
#    y 0.000000 3.214280 0.000000 
#    z 0.000000 0.000000 2.957130 
# 
# 
# High freq. dielectric constant tensor:
#      x y z
#    x 1.638470 0.000000 0.000000 
#    y 0.000000 1.638470 0.000000 
#    z 0.000000 0.000000 1.606500 
# 
# From -- ./inp_files/3592.got.cif
#   From: 2010.03.12/outbox.cif.g09.slc.cpg/sg191_2_cif.got.tgz:3592.got - 2010.04.01 12:09:02.
