data_PCOD8328800
_publ_section_title
;
Structure prediction by ZEFSAII (Michael W. Deem and Ramdas Pophale) SiO2 
 PCOD8328800
Probable space group: P 6/M M M
;
_chemical_formula_sum "Si O2"
_cell_formula_units_Z 132
_cell_length_a 29.749533
_cell_length_b 29.749533
_cell_length_c 11.369738
_cell_angle_alpha 90.000000
_cell_angle_beta 90.000000
_cell_angle_gamma 120.000000
_cell_volume 8714.478327
_symmetry_space_group_name_H-M "P 6/M M M"
_symmetry_group_IT_number 191
_symmetry_cell_setting 'hexagonal'
loop_
_space_group_symop_operation_xyz
x,y,z
x-y,x,z
-y,x-y,z
-x,-y,z
-x+y,-x,z
y,-x+y,z
x-y,-y,-z
-x,-x+y,-z
y,x,-z
-y,-x,-z
-x+y,y,-z
x,x-y,-z
-x,-y,-z
-x+y,-x,-z
y,-x+y,-z
x,y,-z
x-y,x,-z
-y,x-y,-z
-x+y,y,z
x,x-y,z
-y,-x,z
y,x,z
x-y,-y,z
-x,-x+y,z
loop_
_atom_site_type_symbol
_atom_site_label
_atom_site_fract_x
_atom_site_fract_y
_atom_site_fract_z
Si Si1 0.358552 0.000000 0.870086
Si Si2 0.738749 0.157994 0.862463
Si Si3 0.747574 0.747574 0.130902
Si Si4 0.650793 0.062842 0.500000
Si Si5 0.545919 0.908320 0.250410
Si Si6 0.530487 0.060973 0.138592
Si Si7 0.651642 0.774334 0.500000
Si Si8 0.796104 0.692329 0.246526
O O1 0.305728 0.000000 0.872921
O O2 0.349456 0.949587 0.804255
O O3 0.380016 0.000000 0.000000
O O4 0.782531 0.217470 0.838892
O O5 0.688032 0.146806 0.785669
O O6 0.758234 0.119164 0.820517
O O7 0.724358 0.147622 0.000000
O O8 0.789447 0.739299 0.200428
O O9 0.767888 0.767888 0.000000
O O10 0.629099 0.079643 0.611135
O O11 0.712882 0.101090 0.500000
O O12 0.630280 0.000000 0.500000
O O13 0.498225 0.911355 0.196208
O O14 0.500000 0.000000 0.168571
O O15 0.535388 0.070775 0.000000
O O16 0.626613 0.813307 0.500000
O O17 0.686892 0.786129 0.614323
O O18 0.854817 0.709633 0.216640
#
# Coordination Sequence:
#
# PCOD8328800 Si02
#       8
#    12  24  12  12  24  12  12  24
#     4  11  18  28  45  65  88 115 158 194 225 279
#     4  10  19  31  48  69  93 117 146 193 241 278
#     4  11  20  29  46  67  89 125 160 200 247 284
#     4  12  22  33  48  66  95 131 161 197 231 279
#     4  12  22  34  48  68  93 125 161 192 236 283
#     4  11  22  35  51  69  91 122 160 202 240 282
#     4  10  20  32  47  67  94 126 159 196 237 278
#     4  10  20  31  44  67  93 121 161 200 235 281
#
# _framework density 15.147207
#
# number of rings (size 3 to 8) (size 9 to 14) (size 15 to 20)
#    0.000    1.182    5.455    2.182    1.273    1.455 
#    0.000    0.909    0.000    0.000    0.000    0.000 
#    0.909    0.000    1.091    0.273    1.273    1.182 
#
# Total GULP energy -1636362.338659 kJ/mol
# GULP energy per Si atom -12396.684384 kJ/mol
# Density = 1.511273 g / cm^3
# Si number density = 15.147207 Si / 1000 Ang^3
#
#
#
# Elastic Constant Matrix: (Units=GPa)
#
#
# Indices 1 2 3 4 5 6 
#
# 1 85.5340 38.8224 39.2690 0.0000 0.0000 0.0000
# 2 38.8224 85.5340 39.2690 0.0000 0.0000 0.0000
# 3 39.2690 39.2690 118.7274 0.0000 0.0000 0.0000
# 4 0.0000 0.0000 0.0000 22.6426 0.0000 0.0000
# 5 0.0000 0.0000 0.0000 0.0000 22.6426 0.0000
# 6 0.0000 0.0000 0.0000 0.0000 0.0000 23.3558
#
#
#
# Elastic Compliance Matrix: (Units=1/GPa)
#
#
# Indices 1 2 3 4 5 6 
#
# 1 0.015786 -0.005622 -0.003362 0.000000 0.000000 0.000000
# 2 -0.005622 0.015786 -0.003362 0.000000 0.000000 0.000000
# 3 -0.003362 -0.003362 0.010647 0.000000 0.000000 0.000000
# 4 0.000000 0.000000 0.000000 0.044165 0.000000 0.000000
# 5 0.000000 0.000000 0.000000 0.000000 0.044165 0.000000
# 6 0.000000 0.000000 0.000000 0.000000 0.000000 0.042816
#
#
# Mechanical properties :
#
#
# Convention : Reuss Voigt Hill
#
# Bulk Modulus (GPa) = 57.05128 58.27959 57.66544
# Shear Modulus (GPa) = 24.52207 25.22388 24.87297
#
# Velocity S-wave (km/s) = 4.02794 4.08517 4.05666
# Velocity P-wave (km/s) = 7.70576 7.79811 7.75207
#
# Compressibility (1/GPa) = 0.01752809
#
# Stress axis : x y z
#
# Youngs Moduli (GPa) = 63.34605 63.34605 93.92680
#
# Poissons Ratio (x) = 0.35611 0.31578
# Poissons Ratio (y) = 0.35611 0.31578
# Poissons Ratio (z) = 0.21297 0.21297
#
# Static dielectric constant tensor:
#      x y z
#    x 2.727670 0.000000 0.000000 
#    y 0.000000 2.727670 0.000000 
#    z 0.000000 0.000000 3.290430 
# 
# 
# High freq. dielectric constant tensor:
#      x y z
#    x 1.552880 0.000000 0.000000 
#    y 0.000000 1.552880 0.000000 
#    z 0.000000 0.000000 1.604710 
# 
# From -- ./inp_files/3545.got.cif
#   From: 2010.03.12/outbox.cif.g09.slc.cpg/sg191_2_cif.got.tgz:3545.got - 2010.04.01 12:09:02.
