data_PCOD8328361
_publ_section_title
;
Structure prediction by ZEFSAII (Michael W. Deem and Ramdas Pophale) SiO2 
 PCOD8328361
Probable space group: P 6/M M M
;
_chemical_formula_sum "Si O2"
_cell_formula_units_Z 168
_cell_length_a 23.115146
_cell_length_b 23.115146
_cell_length_c 24.215225
_cell_angle_alpha 90.000000
_cell_angle_beta 90.000000
_cell_angle_gamma 120.000000
_cell_volume 11205.014482
_symmetry_space_group_name_H-M "P 6/M M M"
_symmetry_group_IT_number 191
_symmetry_cell_setting 'hexagonal'
loop_
_space_group_symop_operation_xyz
x,y,z
x-y,x,z
-y,x-y,z
-x,-y,z
-x+y,-x,z
y,-x+y,z
x-y,-y,-z
-x,-x+y,-z
y,x,-z
-y,-x,-z
-x+y,y,-z
x,x-y,-z
-x,-y,-z
-x+y,-x,-z
y,-x+y,-z
x,y,-z
x-y,x,-z
-y,x-y,-z
-x+y,y,z
x,x-y,z
-y,-x,z
y,x,z
x-y,-y,z
-x,-x+y,z
loop_
_atom_site_type_symbol
_atom_site_label
_atom_site_fract_x
_atom_site_fract_y
_atom_site_fract_z
Si Si1 0.467248 0.666944 0.935368
Si Si2 0.271333 0.072381 0.227623
Si Si3 0.675061 0.076588 0.242950
Si Si4 0.394412 0.924283 0.562977
Si Si5 0.394299 0.925231 0.864086
Si Si6 0.270774 0.197681 0.641149
Si Si7 0.721351 0.144919 0.644341
O O1 0.472530 0.736265 0.915756
O O2 0.393154 0.606847 0.920775
O O3 0.524342 0.656811 0.905530
O O4 0.481253 0.668599 0.000000
O O5 0.257780 0.128890 0.201806
O O6 0.346240 0.089602 0.213448
O O7 0.264871 0.070666 0.293250
O O8 0.217260 0.000000 0.202975
O O9 0.634469 0.092392 0.197765
O O10 0.689971 0.125543 0.294487
O O11 0.633643 0.000000 0.264217
O O12 0.369051 0.912833 0.500000
O O13 0.456164 0.912328 0.569141
O O14 0.336295 0.869340 0.601014
O O15 0.416556 0.000000 0.581414
O O16 0.462901 0.925802 0.864371
O O17 0.408838 0.000000 0.881122
O O18 0.247175 0.123588 0.617609
O O19 0.224287 0.224287 0.614935
O O20 0.347110 0.247267 0.625250
O O21 0.776895 0.223106 0.643852
#
# Coordination Sequence:
#
# PCOD8328361 Si02
#       7
#    24  24  24  24  24  24  24
#     4   9  17  29  45  63  83 111 147 182 212 245
#     4   8  13  21  33  49  70  97 128 159 190 226
#     4   9  16  26  40  59  84 111 137 164 198 245
#     4   9  18  32  48  64  82 106 136 168 202 244
#     4   9  18  30  43  63  88 110 135 170 214 258
#     4   8  13  21  34  53  76 101 128 157 189 224
#     4  10  18  27  43  65  85 105 131 165 206 249
#
# _framework density 14.993287
#
# number of rings (size 3 to 8) (size 9 to 14) (size 15 to 20)
#    0.000    3.143    0.000    4.000    0.000    2.857 
#    0.000    2.857    0.000    0.571    0.000    3.000 
#    0.000    0.000    0.000    0.000    0.000    0.000 
#
# Total GULP energy -2082099.896867 kJ/mol
# GULP energy per Si atom -12393.451767 kJ/mol
# Density = 1.495916 g / cm^3
# Si number density = 14.993287 Si / 1000 Ang^3
#
#
#
# Elastic Constant Matrix: (Units=GPa)
#
#
# Indices 1 2 3 4 5 6 
#
# 1 66.9735 28.2395 35.3809 0.0000 0.0000 0.0000
# 2 28.2395 66.9735 35.3809 0.0000 0.0000 0.0000
# 3 35.3809 35.3809 50.9170 0.0000 0.0000 0.0000
# 4 0.0000 0.0000 0.0000 17.6103 0.0000 0.0000
# 5 0.0000 0.0000 0.0000 0.0000 17.6103 0.0000
# 6 0.0000 0.0000 0.0000 0.0000 0.0000 19.3670
#
#
#
# Elastic Compliance Matrix: (Units=1/GPa)
#
#
# Indices 1 2 3 4 5 6 
#
# 1 0.023768 -0.002049 -0.015092 0.000000 0.000000 0.000000
# 2 -0.002049 0.023768 -0.015092 0.000000 0.000000 0.000000
# 3 -0.015092 -0.015092 0.040614 0.000000 0.000000 0.000000
# 4 0.000000 0.000000 0.000000 0.056785 0.000000 0.000000
# 5 0.000000 0.000000 0.000000 0.000000 0.056785 0.000000
# 6 0.000000 0.000000 0.000000 0.000000 0.000000 0.051634
#
#
# Mechanical properties :
#
#
# Convention : Reuss Voigt Hill
#
# Bulk Modulus (GPa) = 42.22261 42.54070 42.38165
# Shear Modulus (GPa) = 15.35087 16.64172 15.99630
#
# Velocity S-wave (km/s) = 3.20324 3.33520 3.26988
# Velocity P-wave (km/s) = 6.47326 6.57770 6.52569
#
# Compressibility (1/GPa) = 0.02368400
#
# Stress axis : x y z
#
# Youngs Moduli (GPa) = 42.07327 42.07327 24.62219
#
# Poissons Ratio (x) = 0.08621 0.37160
# Poissons Ratio (y) = 0.08621 0.37160
# Poissons Ratio (z) = 0.63497 0.63497
#
# Static dielectric constant tensor:
#      x y z
#    x 3.025790 0.000000 0.000000 
#    y 0.000000 3.025790 0.000000 
#    z 0.000000 0.000000 2.573600 
# 
# 
# High freq. dielectric constant tensor:
#      x y z
#    x 1.567660 0.000000 0.000000 
#    y 0.000000 1.567660 0.000000 
#    z 0.000000 0.000000 1.536600 
# 
# From -- ./inp_files/9176.got.cif
#   From: 2010.03.12/outbox.cif.g09.slc.cpg/sg191_5_cif.got.tgz:9176.got - 2010.04.01 12:09:02.
