data_PCOD8328443
_publ_section_title
;
Structure prediction by ZEFSAII (Michael W. Deem and Ramdas Pophale) SiO2 
 PCOD8328443
Probable space group: P 6/M M M
;
_chemical_formula_sum "Si O2"
_cell_formula_units_Z 192
_cell_length_a 23.349726
_cell_length_b 23.349726
_cell_length_c 24.656751
_cell_angle_alpha 90.000000
_cell_angle_beta 90.000000
_cell_angle_gamma 120.000000
_cell_volume 11642.066037
_symmetry_space_group_name_H-M "P 6/M M M"
_symmetry_group_IT_number 191
_symmetry_cell_setting 'hexagonal'
loop_
_space_group_symop_operation_xyz
x,y,z
x-y,x,z
-y,x-y,z
-x,-y,z
-x+y,-x,z
y,-x+y,z
x-y,-y,-z
-x,-x+y,-z
y,x,-z
-y,-x,-z
-x+y,y,-z
x,x-y,-z
-x,-y,-z
-x+y,-x,-z
y,-x+y,-z
x,y,-z
x-y,x,-z
-y,x-y,-z
-x+y,y,z
x,x-y,z
-y,-x,z
y,x,z
x-y,-y,z
-x,-x+y,z
loop_
_atom_site_type_symbol
_atom_site_label
_atom_site_fract_x
_atom_site_fract_y
_atom_site_fract_z
Si Si1 0.271134 0.198511 0.216755
Si Si2 0.604515 0.525547 0.838954
Si Si3 0.796131 0.462061 0.563794
Si Si4 0.724922 0.798821 0.088882
Si Si5 0.922369 0.603189 0.259471
Si Si6 0.861475 0.589304 0.371525
Si Si7 0.078316 0.675083 0.059588
Si Si8 0.795064 0.074826 0.562530
O O1 0.246680 0.123340 0.234171
O O2 0.216319 0.216319 0.237549
O O3 0.280586 0.208802 0.153037
O O4 0.341522 0.245534 0.243434
O O5 0.552606 0.447395 0.837404
O O6 0.566846 0.566846 0.840172
O O7 0.651130 0.545332 0.785818
O O8 0.649693 0.541531 0.893157
O O9 0.805465 0.468516 0.500000
O O10 0.722958 0.445916 0.580383
O O11 0.806310 0.403155 0.586487
O O12 0.851330 0.531241 0.588263
O O13 0.748727 0.874364 0.071039
O O14 0.777262 0.777262 0.067037
O O15 0.651607 0.752027 0.065800
O O16 0.889945 0.575100 0.317255
O O17 0.000000 0.633273 0.264249
O O18 0.793279 0.586557 0.358023
O O19 0.911951 0.659037 0.399298
O O20 0.000000 0.633964 0.064537
O O21 0.101435 0.664603 0.000000
O O22 0.779453 0.082542 0.500000
O O23 0.872285 0.127716 0.575314
O O24 0.779957 0.000000 0.573877
#
# Coordination Sequence:
#
# PCOD8328443 Si02
#       8
#    24  24  24  24  24  24  24  24
#     4   9  16  27  44  63  85 115 152 192 232 276
#     4   9  17  29  43  60  84 114 145 174 209 259
#     4   9  17  30  48  68  90 117 150 189 231 272
#     4   9  16  27  43  63  88 119 155 195 239 285
#     4  10  18  29  44  62  87 119 152 185 222 271
#     4  10  19  29  44  68  93 117 152 195 235 273
#     4   9  16  27  43  63  86 111 143 183 226 273
#     4   9  17  30  48  69  94 124 157 195 241 290
#
# _framework density 16.491917999999998
#
# number of rings (size 3 to 8) (size 9 to 14) (size 15 to 20)
#    0.000    2.750    1.250    1.250    0.000    3.000 
#    0.000    1.250    0.000    1.500    0.000    7.000 
#    0.000    0.000    0.000    8.875    0.000   14.875 
#
# Total GULP energy -2379853.867779 kJ/mol
# GULP energy per Si atom -12395.072228 kJ/mol
# Density = 1.645438 g / cm^3
# Si number density = 16.491918 Si / 1000 Ang^3
#
#
#
# Elastic Constant Matrix: (Units=GPa)
#
#
# Indices 1 2 3 4 5 6 
#
# 1 80.3740 48.6264 38.3584 0.0000 0.0000 0.0000
# 2 48.6264 80.3740 38.3584 0.0000 0.0000 0.0000
# 3 38.3584 38.3584 73.2177 0.0000 0.0000 0.0000
# 4 0.0000 0.0000 0.0000 13.0592 0.0000 0.0000
# 5 0.0000 0.0000 0.0000 0.0000 13.0592 0.0000
# 6 0.0000 0.0000 0.0000 0.0000 0.0000 15.8738
#
#
#
# Elastic Compliance Matrix: (Units=1/GPa)
#
#
# Indices 1 2 3 4 5 6 
#
# 1 0.021379 -0.010119 -0.005899 0.000000 0.000000 0.000000
# 2 -0.010119 0.021379 -0.005899 0.000000 0.000000 0.000000
# 3 -0.005899 -0.005899 0.019839 0.000000 0.000000 0.000000
# 4 0.000000 0.000000 0.000000 0.076574 0.000000 0.000000
# 5 0.000000 0.000000 0.000000 0.000000 0.076574 0.000000
# 6 0.000000 0.000000 0.000000 0.000000 0.000000 0.062997
#
#
# Mechanical properties :
#
#
# Convention : Reuss Voigt Hill
#
# Bulk Modulus (GPa) = 53.29724 53.85024 53.57374
# Shear Modulus (GPa) = 15.20534 15.63995 15.42265
#
# Velocity S-wave (km/s) = 3.03972 3.08285 3.06136
# Velocity P-wave (km/s) = 6.68634 6.73761 6.71203
#
# Compressibility (1/GPa) = 0.01876270
#
# Stress axis : x y z
#
# Youngs Moduli (GPa) = 46.77421 46.77421 50.40585
#
# Poissons Ratio (x) = 0.47332 0.29735
# Poissons Ratio (y) = 0.47332 0.29735
# Poissons Ratio (z) = 0.27593 0.27593
#
# Static dielectric constant tensor:
#      x y z
#    x 3.049220 0.000000 0.000000 
#    y 0.000000 3.049220 0.000000 
#    z 0.000000 0.000000 3.203180 
# 
# 
# High freq. dielectric constant tensor:
#      x y z
#    x 1.610150 0.000000 0.000000 
#    y 0.000000 1.610150 0.000000 
#    z 0.000000 0.000000 1.640720 
# 
# From -- ./inp_files/9403.got.cif
#   From: 2010.03.12/outbox.cif.g09.slc.cpg/sg191_5_cif.got.tgz:9403.got - 2010.04.01 12:09:02.
