data_PCOD8328493
_publ_section_title
;
Structure prediction by ZEFSAII (Michael W. Deem and Ramdas Pophale) SiO2 
 PCOD8328493
Probable space group: P 6/M M M
;
_chemical_formula_sum "Si O2"
_cell_formula_units_Z 120
_cell_length_a 20.515049
_cell_length_b 20.515049
_cell_length_c 20.451618
_cell_angle_alpha 90.000000
_cell_angle_beta 90.000000
_cell_angle_gamma 120.000000
_cell_volume 7454.240855
_symmetry_space_group_name_H-M "P 6/M M M"
_symmetry_group_IT_number 191
_symmetry_cell_setting 'hexagonal'
loop_
_space_group_symop_operation_xyz
x,y,z
x-y,x,z
-y,x-y,z
-x,-y,z
-x+y,-x,z
y,-x+y,z
x-y,-y,-z
-x,-x+y,-z
y,x,-z
-y,-x,-z
-x+y,y,-z
x,x-y,-z
-x,-y,-z
-x+y,-x,-z
y,-x+y,-z
x,y,-z
x-y,x,-z
-y,x-y,-z
-x+y,y,z
x,x-y,z
-y,-x,z
y,x,z
x-y,-y,z
-x,-x+y,z
loop_
_atom_site_type_symbol
_atom_site_label
_atom_site_fract_x
_atom_site_fract_y
_atom_site_fract_z
Si Si1 0.465278 0.380231 0.373461
Si Si2 0.521634 0.184806 0.000000
Si Si3 0.305345 0.223903 0.926063
Si Si4 0.358319 0.913429 0.875348
Si Si5 0.483494 0.818786 0.251256
Si Si6 0.821952 0.488334 0.500000
O O1 0.539483 0.460518 0.371356
O O2 0.393359 0.393359 0.372965
O O3 0.463618 0.331212 0.311259
O O4 0.464840 0.335318 0.437761
O O5 0.493027 0.131836 0.937168
O O6 0.612519 0.225038 0.000000
O O7 0.497186 0.248593 0.000000
O O8 0.278170 0.139085 0.906415
O O9 0.231566 0.231566 0.921257
O O10 0.367704 0.279072 0.875461
O O11 0.339510 0.243797 0.000000
O O12 0.363417 0.872686 0.811180
O O13 0.426676 0.000000 0.877205
O O14 0.396150 0.792299 0.265759
O O15 0.491556 0.745778 0.239514
O O16 0.742016 0.484032 0.500000
O O17 0.806897 0.403449 0.500000
#
# Coordination Sequence:
#
# PCOD8328493 Si02
#       6
#    24  12  24  24  24  12
#     4   9  18  32  49  68  91 121 156 193 232 274
#     4  12  24  37  51  67  90 117 149 189 237 288
#     4   9  16  28  46  66  87 110 141 179 220 264
#     4  11  22  35  51  69  88 116 153 195 236 277
#     4  11  22  35  50  68  93 122 153 191 239 291
#     4  10  18  29  47  71  98 125 156 194 237 282
#
# _framework density 16.098217999999999
#
# number of rings (size 3 to 8) (size 9 to 14) (size 15 to 20)
#    0.000    1.800    1.000    4.600    0.000    4.000 
#    0.000    4.000    0.000    0.200    0.000    1.400 
#    0.000    0.000    0.000    0.000    0.000    0.000 
#
# Total GULP energy -1487652.373296 kJ/mol
# GULP energy per Si atom -12397.103111 kJ/mol
# Density = 1.606158 g / cm^3
# Si number density = 16.098218 Si / 1000 Ang^3
#
#
#
# Elastic Constant Matrix: (Units=GPa)
#
#
# Indices 1 2 3 4 5 6 
#
# 1 85.0992 48.8814 34.4351 0.0000 0.0000 0.0000
# 2 48.8814 85.0992 34.4351 0.0000 0.0000 0.0000
# 3 34.4351 34.4351 116.7458 0.0000 0.0000 0.0000
# 4 0.0000 0.0000 0.0000 92.2662 0.0000 0.0000
# 5 0.0000 0.0000 0.0000 0.0000 92.2661 0.0000
# 6 0.0000 0.0000 0.0000 0.0000 0.0000 18.1089
#
#
#
# Elastic Compliance Matrix: (Units=1/GPa)
#
#
# Indices 1 2 3 4 5 6 
#
# 1 0.018204 -0.009407 -0.002595 0.000000 0.000000 0.000000
# 2 -0.009407 0.018204 -0.002595 0.000000 0.000000 0.000000
# 3 -0.002595 -0.002595 0.010096 0.000000 0.000000 0.000000
# 4 0.000000 0.000000 0.000000 0.010838 0.000000 0.000000
# 5 0.000000 0.000000 0.000000 0.000000 0.010838 0.000000
# 6 0.000000 0.000000 0.000000 0.000000 0.000000 0.055221
#
#
# Mechanical properties :
#
#
# Convention : Reuss Voigt Hill
#
# Bulk Modulus (GPa) = 57.76354 58.04972 57.90663
# Shear Modulus (GPa) = 31.57240 51.80775 41.69007
#
# Velocity S-wave (km/s) = 4.43339 5.67910 5.09446
# Velocity P-wave (km/s) = 7.88457 8.89612 8.40557
#
# Compressibility (1/GPa) = 0.01731196
#
# Stress axis : x y z
#
# Youngs Moduli (GPa) = 54.93241 54.93241 99.04512
#
# Poissons Ratio (x) = 0.51672 0.25702
# Poissons Ratio (y) = 0.51672 0.25702
# Poissons Ratio (z) = 0.14255 0.14255
#
# Static dielectric constant tensor:
#      x y z
#    x 3.008480 0.000000 0.000000 
#    y 0.000000 3.008480 0.000000 
#    z 0.000000 0.000000 3.169240 
# 
# 
# High freq. dielectric constant tensor:
#      x y z
#    x 1.606560 0.000000 0.000000 
#    y 0.000000 1.606560 0.000000 
#    z 0.000000 0.000000 1.616650 
# 
# From -- ./inp_files/6237.got.cif
#   From: 2010.03.12/outbox.cif.g09.slc.cpg/sg191_4_cif.got.tgz:6237.got - 2010.04.01 12:09:02.
