data_PCOD8328688
_publ_section_title
;
Structure prediction by ZEFSAII (Michael W. Deem and Ramdas Pophale) SiO2 
 PCOD8328688
Probable space group: P 6/M M M
;
_chemical_formula_sum "Si O2"
_cell_formula_units_Z 192
_cell_length_a 22.268592
_cell_length_b 22.268592
_cell_length_c 28.398264
_cell_angle_alpha 90.000000
_cell_angle_beta 90.000000
_cell_angle_gamma 120.000000
_cell_volume 12195.733918
_symmetry_space_group_name_H-M "P 6/M M M"
_symmetry_group_IT_number 191
_symmetry_cell_setting 'hexagonal'
loop_
_space_group_symop_operation_xyz
x,y,z
x-y,x,z
-y,x-y,z
-x,-y,z
-x+y,-x,z
y,-x+y,z
x-y,-y,-z
-x,-x+y,-z
y,x,-z
-y,-x,-z
-x+y,y,-z
x,x-y,-z
-x,-y,-z
-x+y,-x,-z
y,-x+y,-z
x,y,-z
x-y,x,-z
-y,x-y,-z
-x+y,y,z
x,x-y,z
-y,-x,z
y,x,z
x-y,-y,z
-x,-x+y,z
loop_
_atom_site_type_symbol
_atom_site_label
_atom_site_fract_x
_atom_site_fract_y
_atom_site_fract_z
Si Si1 0.666941 0.195869 0.554208
Si Si2 0.706748 0.785080 0.769699
Si Si3 0.468747 0.077895 0.129609
Si Si4 0.526540 0.194435 0.202987
Si Si5 0.076859 0.794684 0.123680
Si Si6 0.080061 0.470746 0.371327
Si Si7 0.569475 0.852728 0.711137
Si Si8 0.918452 0.301948 0.051842
O O1 0.671250 0.178181 0.500000
O O2 0.609071 0.218141 0.561516
O O3 0.739996 0.260004 0.571535
O O4 0.647850 0.126839 0.583349
O O5 0.733046 0.866523 0.759601
O O6 0.767675 0.767675 0.756918
O O7 0.685467 0.767126 0.824551
O O8 0.639119 0.736303 0.739448
O O9 0.538938 0.077875 0.123505
O O10 0.475196 0.131396 0.169497
O O11 0.454423 0.100826 0.078870
O O12 0.406526 0.000000 0.143124
O O13 0.604180 0.208359 0.201934
O O14 0.527104 0.263552 0.185721
O O15 0.497348 0.174619 0.255568
O O16 0.122369 0.877632 0.122007
O O17 0.107811 0.764605 0.085273
O O18 0.000000 0.776765 0.110967
O O19 0.089940 0.544970 0.355656
O O20 0.102980 0.438172 0.329903
O O21 0.000000 0.417987 0.384333
O O22 0.572892 0.786446 0.690872
O O23 0.000000 0.337091 0.045403
O O24 0.882849 0.282547 0.000000
#
# Coordination Sequence:
#
# PCOD8328688 Si02
#       8
#    24  24  24  24  24  24  24  24
#     4   9  17  30  48  67  86 111 146 186 223 257
#     4   9  17  29  46  66  88 115 144 175 210 251
#     4   9  18  31  46  65  87 110 137 169 206 250
#     4  10  20  33  48  65  86 113 145 179 215 256
#     4   9  17  29  44  62  84 109 137 168 204 246
#     4  10  20  31  43  62  89 118 145 176 217 263
#     4  10  19  30  45  64  86 113 146 182 218 254
#     4   9  17  28  42  61  84 107 130 161 203 247
#
# _framework density 15.743209999999999
#
# number of rings (size 3 to 8) (size 9 to 14) (size 15 to 20)
#    0.000    2.625    0.000    2.125    0.000    4.750 
#    0.000    3.750    0.000    4.250    0.000    1.750 
#    0.000    1.000    0.000    3.125    0.000    3.250 
#
# Total GULP energy -2379759.236934 kJ/mol
# GULP energy per Si atom -12394.579359 kJ/mol
# Density = 1.570738 g / cm^3
# Si number density = 15.743210 Si / 1000 Ang^3
#
#
#
# Elastic Constant Matrix: (Units=GPa)
#
#
# Indices 1 2 3 4 5 6 
#
# 1 86.9811 49.4072 47.4626 0.0000 0.0000 0.0000
# 2 49.4072 86.9811 47.4626 0.0000 0.0000 0.0000
# 3 47.4626 47.4626 83.5455 0.0000 0.0000 0.0000
# 4 0.0000 0.0000 0.0000 19.7346 0.0000 0.0000
# 5 0.0000 0.0000 0.0000 0.0000 19.7346 0.0000
# 6 0.0000 0.0000 0.0000 0.0000 0.0000 18.7870
#
#
#
# Elastic Compliance Matrix: (Units=1/GPa)
#
#
# Indices 1 2 3 4 5 6 
#
# 1 0.019371 -0.007244 -0.006889 0.000000 0.000000 0.000000
# 2 -0.007244 0.019371 -0.006889 0.000000 0.000000 0.000000
# 3 -0.006889 -0.006889 0.019797 0.000000 0.000000 0.000000
# 4 0.000000 0.000000 0.000000 0.050672 0.000000 0.000000
# 5 0.000000 0.000000 0.000000 0.000000 0.050672 0.000000
# 6 0.000000 0.000000 0.000000 0.000000 0.000000 0.053228
#
#
# Mechanical properties :
#
#
# Convention : Reuss Voigt Hill
#
# Bulk Modulus (GPa) = 60.62923 60.68584 60.65753
# Shear Modulus (GPa) = 19.18249 19.19626 19.18938
#
# Velocity S-wave (km/s) = 3.49443 3.49569 3.49506
# Velocity P-wave (km/s) = 7.40786 7.41108 7.40947
#
# Compressibility (1/GPa) = 0.01649369
#
# Stress axis : x y z
#
# Youngs Moduli (GPa) = 51.62470 51.62470 50.51191
#
# Poissons Ratio (x) = 0.37395 0.34800
# Poissons Ratio (y) = 0.37395 0.34800
# Poissons Ratio (z) = 0.35566 0.35566
#
# Static dielectric constant tensor:
#      x y z
#    x 2.997760 0.000000 0.000000 
#    y 0.000000 2.997760 0.000000 
#    z 0.000000 0.000000 3.006910 
# 
# 
# High freq. dielectric constant tensor:
#      x y z
#    x 1.597450 0.000000 0.000000 
#    y 0.000000 1.597450 0.000000 
#    z 0.000000 0.000000 1.594030 
# 
# From -- ./inp_files/9341.got.cif
#   From: 2010.03.12/outbox.cif.g09.slc.cpg/sg191_5_cif.got.tgz:9341.got - 2010.04.01 12:09:02.
