data_PCOD8328895
_publ_section_title
;
Structure prediction by ZEFSAII (Michael W. Deem and Ramdas Pophale) SiO2 
 PCOD8328895
Probable space group: P 6/M M M
;
_chemical_formula_sum "Si O2"
_cell_formula_units_Z 136
_cell_length_a 17.503446
_cell_length_b 17.503446
_cell_length_c 28.588065
_cell_angle_alpha 90.000000
_cell_angle_beta 90.000000
_cell_angle_gamma 120.000000
_cell_volume 7585.120957
_symmetry_space_group_name_H-M "P 6/M M M"
_symmetry_group_IT_number 191
_symmetry_cell_setting 'hexagonal'
loop_
_space_group_symop_operation_xyz
x,y,z
x-y,x,z
-y,x-y,z
-x,-y,z
-x+y,-x,z
y,-x+y,z
x-y,-y,-z
-x,-x+y,-z
y,x,-z
-y,-x,-z
-x+y,y,-z
x,x-y,-z
-x,-y,-z
-x+y,-x,-z
y,-x+y,-z
x,y,-z
x-y,x,-z
-y,x-y,-z
-x+y,y,z
x,x-y,z
-y,-x,z
y,x,z
x-y,-y,z
-x,-x+y,z
loop_
_atom_site_type_symbol
_atom_site_label
_atom_site_fract_x
_atom_site_fract_y
_atom_site_fract_z
Si Si1 0.735785 0.640048 0.701361
Si Si2 0.614798 0.899004 0.404596
Si Si3 0.535306 0.637968 0.117760
Si Si4 0.666668 0.333334 0.555504
Si Si5 0.098839 0.901162 0.944343
Si Si6 0.159148 0.490772 0.217873
Si Si7 0.568863 0.137726 0.555522
Si Si8 0.800879 0.601757 0.944595
O O1 0.837132 0.674264 0.712956
O O2 0.726081 0.726081 0.703558
O O3 0.708748 0.595120 0.650494
O O4 0.673205 0.571111 0.739900
O O5 0.628195 0.814098 0.421504
O O6 0.531687 0.902361 0.427162
O O7 0.699853 0.000000 0.414513
O O8 0.431573 0.568428 0.116569
O O9 0.592540 0.592540 0.108909
O O10 0.559530 0.686599 0.168149
O O11 0.553817 0.702896 0.075044
O O12 0.666667 0.333334 0.500000
O O13 0.617948 0.235895 0.575429
O O14 0.148846 0.851155 0.926869
O O15 0.000000 0.850834 0.924024
O O16 0.096903 0.903098 0.000000
O O17 0.261832 0.523663 0.225498
O O18 0.141680 0.570840 0.218844
O O19 0.564921 0.129841 0.500000
O O20 0.797047 0.594094 0.000000
#
# Coordination Sequence:
#
# PCOD8328895 Si02
#       8
#    24  24  24   4  12  24  12  12
#     4   9  19  34  53  78 107 140 177 221 272 322
#     4  10  21  36  54  79 111 147 189 236 283 332
#     4  10  21  37  56  77 102 133 171 215 259 306
#     4   9  18  33  54  72 105 147 183 234 279 318
#     4   9  17  30  51  78 105 131 160 200 252 311
#     4  10  19  33  53  78 106 137 170 209 255 308
#     4  11  21  36  55  78 111 154 196 233 277 328
#     4  11  22  37  54  76 103 136 173 213 256 308
#
# _framework density 17.929839999999999
#
# number of rings (size 3 to 8) (size 9 to 14) (size 15 to 20)
#    0.000    2.118    1.765    1.588    1.235    3.529 
#    0.529    0.882    0.000    0.353    0.000    2.471 
#    0.000    0.000    0.000    1.588    0.000    1.765 
#
# Total GULP energy -1685064.076374 kJ/mol
# GULP energy per Si atom -12390.177032 kJ/mol
# Density = 1.788903 g / cm^3
# Si number density = 17.929840 Si / 1000 Ang^3
#
#
#
# Elastic Constant Matrix: (Units=GPa)
#
#
# Indices 1 2 3 4 5 6 
#
# 1 149.8131 2.0501 36.7256 0.0000 0.0000 0.0000
# 2 2.0501 149.8130 36.7256 0.0000 0.0000 0.0000
# 3 36.7256 36.7256 80.6741 0.0000 0.0000 0.0000
# 4 0.0000 0.0000 0.0000 19.7686 0.0000 0.0000
# 5 0.0000 0.0000 0.0000 0.0000 19.7686 0.0000
# 6 0.0000 0.0000 0.0000 0.0000 0.0000 73.8815
#
#
#
# Elastic Compliance Matrix: (Units=1/GPa)
#
#
# Indices 1 2 3 4 5 6 
#
# 1 0.007606 0.000838 -0.003844 0.000000 0.000000 0.000000
# 2 0.000838 0.007606 -0.003844 0.000000 0.000000 0.000000
# 3 -0.003844 -0.003844 0.015895 0.000000 0.000000 0.000000
# 4 0.000000 0.000000 0.000000 0.050585 0.000000 0.000000
# 5 0.000000 0.000000 0.000000 0.000000 0.050585 0.000000
# 6 0.000000 0.000000 0.000000 0.000000 0.000000 0.013535
#
#
# Mechanical properties :
#
#
# Convention : Reuss Voigt Hill
#
# Bulk Modulus (GPa) = 57.44660 59.03366 58.24013
# Shear Modulus (GPa) = 30.24527 43.00366 36.62447
#
# Velocity S-wave (km/s) = 4.11161 4.90270 4.52448
# Velocity P-wave (km/s) = 7.39254 8.06504 7.73610
#
# Compressibility (1/GPa) = 0.01740747
#
# Stress axis : x y z
#
# Youngs Moduli (GPa) = 131.47773 131.47755 62.91110
#
# Poissons Ratio (x) = -0.11021 0.24183
# Poissons Ratio (y) = -0.11021 0.24183
# Poissons Ratio (z) = 0.50541 0.50541
#
# Static dielectric constant tensor:
#      x y z
#    x 3.508800 0.000000 0.000000 
#    y 0.000000 3.508800 0.000000 
#    z 0.000000 0.000000 3.304320 
# 
# 
# High freq. dielectric constant tensor:
#      x y z
#    x 1.692210 0.000000 0.000000 
#    y 0.000000 1.692210 0.000000 
#    z 0.000000 0.000000 1.687770 
# 
# From -- ./inp_files/9898.got.cif
#   From: 2010.03.12/outbox.cif.g09.slc.cpg/sg191_5_cif.got.tgz:9898.got - 2010.04.01 12:09:02.
