data_PCOD8328286
_publ_section_title
;
Structure prediction by ZEFSAII (Michael W. Deem and Ramdas Pophale) SiO2 
 PCOD8328286
Probable space group: P 6/M M M
;
_chemical_formula_sum "Si O2"
_cell_formula_units_Z 168
_cell_length_a 22.517338
_cell_length_b 22.517338
_cell_length_c 26.003364
_cell_angle_alpha 90.000000
_cell_angle_beta 90.000000
_cell_angle_gamma 120.000000
_cell_volume 11418.111006
_symmetry_space_group_name_H-M "P 6/M M M"
_symmetry_group_IT_number 191
_symmetry_cell_setting 'hexagonal'
loop_
_space_group_symop_operation_xyz
x,y,z
x-y,x,z
-y,x-y,z
-x,-y,z
-x+y,-x,z
y,-x+y,z
x-y,-y,-z
-x,-x+y,-z
y,x,-z
-y,-x,-z
-x+y,y,-z
x,x-y,-z
-x,-y,-z
-x+y,-x,-z
y,-x+y,-z
x,y,-z
x-y,x,-z
-y,x-y,-z
-x+y,y,z
x,x-y,z
-y,-x,z
y,x,z
x-y,-y,z
-x,-x+y,z
loop_
_atom_site_type_symbol
_atom_site_label
_atom_site_fract_x
_atom_site_fract_y
_atom_site_fract_z
Si Si1 0.332088 0.530946 0.000000
Si Si2 0.850430 0.286413 0.793412
Si Si3 0.080447 0.412603 0.602458
Si Si4 0.391185 0.918097 0.500000
Si Si5 0.209706 0.923055 0.238224
Si Si6 0.805285 0.473404 0.888476
Si Si7 0.285174 0.208574 0.357136
Si Si8 0.469013 0.078104 0.705650
O O1 0.323660 0.491873 0.945605
O O2 0.407109 0.592892 0.000000
O O3 0.279923 0.559846 0.000000
O O4 0.774160 0.225841 0.779858
O O5 0.901865 0.255999 0.795614
O O6 0.853094 0.321125 0.848140
O O7 0.873257 0.344446 0.750830
O O8 0.112637 0.455110 0.550136
O O9 0.096769 0.350843 0.607107
O O10 0.109777 0.461703 0.651932
O O11 0.000000 0.383903 0.601224
O O12 0.446326 0.892651 0.500000
O O13 0.429083 0.000000 0.500000
O O14 0.128821 0.871180 0.227655
O O15 0.227185 0.918574 0.297898
O O16 0.227727 0.000000 0.223534
O O17 0.725904 0.451807 0.880454
O O18 0.811787 0.405894 0.880916
O O19 0.257555 0.128778 0.368870
O O20 0.223809 0.223809 0.369650
O O21 0.539756 0.079511 0.705068
O O22 0.406472 0.000000 0.713865
#
# Coordination Sequence:
#
# PCOD8328286 Si02
#       8
#    12  24  24  12  24  24  24  24
#     4   8  13  22  36  52  71  99 138 183 222 254
#     4  10  18  26  38  57  82 110 137 169 207 247
#     4   9  16  26  40  58  80 106 135 167 205 248
#     4   9  16  26  39  56  79 106 134 165 204 244
#     4   9  16  27  43  62  83 107 135 167 204 248
#     4   9  16  25  37  54  77 107 144 183 221 251
#     4   9  16  27  44  63  84 110 139 171 208 252
#     4  10  18  27  40  58  79 103 134 170 206 244
#
# _framework density 14.713468000000001
#
# number of rings (size 3 to 8) (size 9 to 14) (size 15 to 20)
#    0.000    2.786    1.429    1.500    0.000    2.857 
#    0.000    0.357    0.000    0.571    0.000    4.000 
#    0.000    8.000    0.000    0.571    0.000    9.286 
#
# Total GULP energy -2081916.577882 kJ/mol
# GULP energy per Si atom -12392.360583 kJ/mol
# Density = 1.467998 g / cm^3
# Si number density = 14.713468 Si / 1000 Ang^3
#
#
#
# Elastic Constant Matrix: (Units=GPa)
#
#
# Indices 1 2 3 4 5 6 
#
# 1 70.7187 40.5492 44.7358 0.0000 0.0000 0.0000
# 2 40.5492 70.7187 44.7358 0.0000 0.0000 0.0000
# 3 44.7358 44.7358 114.2625 0.0000 0.0000 0.0000
# 4 0.0000 0.0000 0.0000 16.3794 0.0000 0.0000
# 5 0.0000 0.0000 0.0000 0.0000 16.3794 0.0000
# 6 0.0000 0.0000 0.0000 0.0000 0.0000 15.0847
#
#
#
# Elastic Compliance Matrix: (Units=1/GPa)
#
#
# Indices 1 2 3 4 5 6 
#
# 1 0.023131 -0.010015 -0.005135 0.000000 0.000000 0.000000
# 2 -0.010015 0.023131 -0.005135 0.000000 0.000000 0.000000
# 3 -0.005135 -0.005135 0.012773 0.000000 0.000000 0.000000
# 4 0.000000 0.000000 0.000000 0.061052 0.000000 0.000000
# 5 0.000000 0.000000 0.000000 0.000000 0.061052 0.000000
# 6 0.000000 0.000000 0.000000 0.000000 0.000000 0.066292
#
#
# Mechanical properties :
#
#
# Convention : Reuss Voigt Hill
#
# Bulk Modulus (GPa) = 54.15715 57.30460 55.73088
# Shear Modulus (GPa) = 16.99761 17.94729 17.47245
#
# Velocity S-wave (km/s) = 3.40257 3.49633 3.44977
# Velocity P-wave (km/s) = 7.23356 7.43846 7.33673
#
# Compressibility (1/GPa) = 0.01846478
#
# Stress axis : x y z
#
# Youngs Moduli (GPa) = 43.23118 43.23118 78.29000
#
# Poissons Ratio (x) = 0.43295 0.40206
# Poissons Ratio (y) = 0.43295 0.40206
# Poissons Ratio (z) = 0.22201 0.22201
#
# Static dielectric constant tensor:
#      x y z
#    x 2.715930 0.000000 0.000000 
#    y 0.000000 2.715930 0.000000 
#    z 0.000000 0.000000 3.115640 
# 
# 
# High freq. dielectric constant tensor:
#      x y z
#    x 1.539370 0.000000 0.000000 
#    y 0.000000 1.539370 0.000000 
#    z 0.000000 0.000000 1.557750 
# 
# From -- ./inp_files/8029.got.cif
#   From: 2010.03.12/outbox.cif.g09.slc.cpg/sg191_5_cif.got.tgz:8029.got - 2010.04.01 12:09:02.
