data_PCOD8328730
_publ_section_title
;
Structure prediction by ZEFSAII (Michael W. Deem and Ramdas Pophale) SiO2 
 PCOD8328730
Probable space group: P 6/M M M
;
_chemical_formula_sum "Si O2"
_cell_formula_units_Z 136
_cell_length_a 18.100058
_cell_length_b 18.100058
_cell_length_c 29.647745
_cell_angle_alpha 90.000000
_cell_angle_beta 90.000000
_cell_angle_gamma 120.000000
_cell_volume 8411.670096
_symmetry_space_group_name_H-M "P 6/M M M"
_symmetry_group_IT_number 191
_symmetry_cell_setting 'hexagonal'
loop_
_space_group_symop_operation_xyz
x,y,z
x-y,x,z
-y,x-y,z
-x,-y,z
-x+y,-x,z
y,-x+y,z
x-y,-y,-z
-x,-x+y,-z
y,x,-z
-y,-x,-z
-x+y,y,-z
x,x-y,-z
-x,-y,-z
-x+y,-x,-z
y,-x+y,-z
x,y,-z
x-y,x,-z
-y,x-y,-z
-x+y,y,z
x,x-y,z
-y,-x,z
y,x,z
x-y,-y,z
-x,-x+y,z
loop_
_atom_site_type_symbol
_atom_site_label
_atom_site_fract_x
_atom_site_fract_y
_atom_site_fract_z
Si Si1 0.668823 0.502731 0.723534
Si Si2 0.902187 0.633322 0.800432
Si Si3 0.365332 0.901365 0.887065
Si Si4 0.666667 0.333334 0.946748
Si Si5 0.647206 0.742454 0.449181
Si Si6 0.900580 0.533329 0.627224
Si Si7 0.474551 0.237276 0.946655
O O1 0.734926 0.469851 0.734537
O O2 0.572662 0.427339 0.732726
O O3 0.690011 0.584112 0.754061
O O4 0.682542 0.533672 0.671902
O O5 0.833234 0.666468 0.802629
O O6 0.881720 0.564013 0.839360
O O7 0.000000 0.712909 0.804259
O O8 0.434937 0.869873 0.885914
O O9 0.293244 0.856585 0.925717
O O10 0.411689 0.000000 0.899458
O O11 0.571203 0.285602 0.929227
O O12 0.666667 0.333334 0.000000
O O13 0.612452 0.712432 0.500000
O O14 0.687868 0.843934 0.444001
O O15 0.721676 0.721676 0.437435
O O16 0.568279 0.695459 0.415275
O O17 0.875361 0.437681 0.614164
O O18 0.000000 0.590389 0.637720
O O19 0.460544 0.230272 0.000000
#
# Coordination Sequence:
#
# PCOD8328730 Si02
#       7
#    24  24  24   4  24  24  12
#     4  10  19  30  45  67  96 128 160 191 222 259
#     4  10  20  34  52  72  94 121 152 188 230 276
#     4  10  20  33  49  70  96 126 160 196 233 272
#     4   9  18  30  45  66  93 126 162 195 234 270
#     4   9  17  29  45  64  86 114 150 191 233 277
#     4   9  17  28  43  64  89 118 152 190 230 269
#     4  11  20  32  48  67  94 127 161 198 234 271
#
# _framework density 16.168013999999999
#
# number of rings (size 3 to 8) (size 9 to 14) (size 15 to 20)
#    0.000    2.294    1.765    1.765    0.000    2.471 
#    0.000    2.647    0.000    0.706    0.000    1.235 
#    0.000    0.000    0.000    5.647    0.000   11.912 
#
# Total GULP energy -1685880.929734 kJ/mol
# GULP energy per Si atom -12396.183307 kJ/mol
# Density = 1.613121 g / cm^3
# Si number density = 16.168014 Si / 1000 Ang^3
#
#
#
# Elastic Constant Matrix: (Units=GPa)
#
#
# Indices 1 2 3 4 5 6 
#
# 1 81.4071 42.0247 44.6479 0.0000 0.0000 0.0000
# 2 42.0247 81.4071 44.6479 0.0000 0.0000 0.0000
# 3 44.6479 44.6479 89.7981 0.0000 0.0000 0.0000
# 4 0.0000 0.0000 0.0000 23.3874 0.0000 0.0000
# 5 0.0000 0.0000 0.0000 0.0000 23.3874 0.0000
# 6 0.0000 0.0000 0.0000 0.0000 0.0000 19.6912
#
#
#
# Elastic Compliance Matrix: (Units=1/GPa)
#
#
# Indices 1 2 3 4 5 6 
#
# 1 0.019022 -0.006370 -0.006291 0.000000 0.000000 0.000000
# 2 -0.006370 0.019022 -0.006291 0.000000 0.000000 0.000000
# 3 -0.006291 -0.006291 0.017392 0.000000 0.000000 0.000000
# 4 0.000000 0.000000 0.000000 0.042758 0.000000 0.000000
# 5 0.000000 0.000000 0.000000 0.000000 0.042758 0.000000
# 6 0.000000 0.000000 0.000000 0.000000 0.000000 0.050784
#
#
# Mechanical properties :
#
#
# Convention : Reuss Voigt Hill
#
# Bulk Modulus (GPa) = 57.03373 57.25038 57.14205
# Shear Modulus (GPa) = 21.23277 21.37930 21.30604
#
# Velocity S-wave (km/s) = 3.62782 3.64032 3.63408
# Velocity P-wave (km/s) = 7.27326 7.29080 7.28204
#
# Compressibility (1/GPa) = 0.01753348
#
# Stress axis : x y z
#
# Youngs Moduli (GPa) = 52.56944 52.56950 57.49784
#
# Poissons Ratio (x) = 0.33485 0.36172
# Poissons Ratio (y) = 0.33485 0.36172
# Poissons Ratio (z) = 0.33072 0.33072
#
# Static dielectric constant tensor:
#      x y z
#    x 3.009420 0.000000 0.000000 
#    y 0.000000 3.009420 0.000000 
#    z 0.000000 0.000000 3.096610 
# 
# 
# High freq. dielectric constant tensor:
#      x y z
#    x 1.607320 0.000000 0.000000 
#    y 0.000000 1.607320 0.000000 
#    z 0.000000 0.000000 1.630390 
# 
# From -- ./inp_files/9876.got.cif
#   From: 2010.03.12/outbox.cif.g09.slc.cpg/sg191_5_cif.got.tgz:9876.got - 2010.04.01 12:09:02.
