data_PCOD8328627
_publ_section_title
;
Structure prediction by ZEFSAII (Michael W. Deem and Ramdas Pophale) SiO2 
 PCOD8328627
Probable space group: P 6/M M M
;
_chemical_formula_sum "Si O2"
_cell_formula_units_Z 120
_cell_length_a 17.590466
_cell_length_b 17.590466
_cell_length_c 24.763454
_cell_angle_alpha 90.000000
_cell_angle_beta 90.000000
_cell_angle_gamma 120.000000
_cell_volume 6635.849704
_symmetry_space_group_name_H-M "P 6/M M M"
_symmetry_group_IT_number 191
_symmetry_cell_setting 'hexagonal'
loop_
_space_group_symop_operation_xyz
x,y,z
x-y,x,z
-y,x-y,z
-x,-y,z
-x+y,-x,z
y,-x+y,z
x-y,-y,-z
-x,-x+y,-z
y,x,-z
-y,-x,-z
-x+y,y,-z
x,x-y,-z
-x,-y,-z
-x+y,-x,-z
y,-x+y,-z
x,y,-z
x-y,x,-z
-y,x-y,-z
-x+y,y,z
x,x-y,z
-y,-x,z
y,x,z
x-y,-y,z
-x,-x+y,z
loop_
_atom_site_type_symbol
_atom_site_label
_atom_site_fract_x
_atom_site_fract_y
_atom_site_fract_z
Si Si1 0.098408 0.459063 0.441828
Si Si2 0.654116 0.654116 0.936065
Si Si3 0.836241 0.505998 0.328512
Si Si4 0.369265 0.098446 0.232661
Si Si5 0.172592 0.172592 0.064312
Si Si6 0.488284 0.332151 0.129863
O O1 0.138300 0.451259 0.500000
O O2 0.097077 0.548539 0.441542
O O3 0.152642 0.458364 0.389979
O O4 0.000000 0.378069 0.436327
O O5 0.740974 0.740974 0.914121
O O6 0.654749 0.568168 0.916018
O O7 0.652306 0.652306 0.000000
O O8 0.734747 0.469493 0.312325
O O9 0.860732 0.430366 0.321710
O O10 0.898410 0.586255 0.289927
O O11 0.332341 0.166171 0.230630
O O12 0.442745 0.122044 0.187475
O O13 0.288366 0.000000 0.223826
O O14 0.173093 0.086547 0.086537
O O15 0.171602 0.171602 0.000000
O O16 0.496940 0.248470 0.114111
O O17 0.584111 0.415890 0.132797
#
# Coordination Sequence:
#
# PCOD8328627 Si02
#       6
#    24  12  24  24  12  24
#     4   8  14  25  40  58  83 121 171 222 267 310
#     4  11  23  39  59  81 109 145 182 219 263 321
#     4  10  19  29  44  68 100 137 177 220 263 306
#     4  10  21  37  58  82 106 134 170 213 261 311
#     4   9  17  31  53  81 111 141 175 216 261 309
#     4  11  23  39  59  83 111 143 180 223 268 314
#
# _framework density 18.083590999999998
#
# number of rings (size 3 to 8) (size 9 to 14) (size 15 to 20)
#    0.000    2.200    1.000    3.200    0.000    4.800 
#    0.000    2.000    0.000    2.600    0.000    0.000 
#    0.000    0.000    0.000    0.000    0.000    0.000 
#
# Total GULP energy -1487507.005168 kJ/mol
# GULP energy per Si atom -12395.891710 kJ/mol
# Density = 1.804243 g / cm^3
# Si number density = 18.083591 Si / 1000 Ang^3
#
#
#
# Elastic Constant Matrix: (Units=GPa)
#
#
# Indices 1 2 3 4 5 6 
#
# 1 109.3519 62.6287 35.0339 0.0000 0.0000 0.0000
# 2 62.6287 109.3519 35.0339 0.0000 0.0000 0.0000
# 3 35.0339 35.0339 91.4335 0.0000 0.0000 0.0000
# 4 0.0000 0.0000 0.0000 21.6307 0.0000 0.0000
# 5 0.0000 0.0000 0.0000 0.0000 21.6307 0.0000
# 6 0.0000 0.0000 0.0000 0.0000 0.0000 23.3616
#
#
#
# Elastic Compliance Matrix: (Units=1/GPa)
#
#
# Indices 1 2 3 4 5 6 
#
# 1 0.014146 -0.007256 -0.002640 0.000000 0.000000 0.000000
# 2 -0.007256 0.014146 -0.002640 0.000000 0.000000 0.000000
# 3 -0.002640 -0.002640 0.012960 0.000000 0.000000 0.000000
# 4 0.000000 0.000000 0.000000 0.046231 0.000000 0.000000
# 5 0.000000 0.000000 0.000000 0.000000 0.046231 0.000000
# 6 0.000000 0.000000 0.000000 0.000000 0.000000 0.042805
#
#
# Mechanical properties :
#
#
# Convention : Reuss Voigt Hill
#
# Bulk Modulus (GPa) = 61.80389 63.94779 62.87584
# Shear Modulus (GPa) = 24.15629 25.15400 24.65514
#
# Velocity S-wave (km/s) = 3.65884 3.73364 3.69643
# Velocity P-wave (km/s) = 7.21807 7.35023 7.28445
#
# Compressibility (1/GPa) = 0.01618021
#
# Stress axis : x y z
#
# Youngs Moduli (GPa) = 70.68921 70.68921 77.16012
#
# Poissons Ratio (x) = 0.51294 0.20371
# Poissons Ratio (y) = 0.51294 0.20371
# Poissons Ratio (z) = 0.18662 0.18662
#
# Static dielectric constant tensor:
#      x y z
#    x 3.261120 0.000000 0.000000 
#    y 0.000000 3.261120 0.000000 
#    z 0.000000 0.000000 3.622080 
# 
# 
# High freq. dielectric constant tensor:
#      x y z
#    x 1.684480 0.000000 0.000000 
#    y 0.000000 1.684480 0.000000 
#    z 0.000000 0.000000 1.709180 
# 
# From -- ./inp_files/8539.got.cif
#   From: 2010.03.12/outbox.cif.g09.slc.cpg/sg191_5_cif.got.tgz:8539.got - 2010.04.01 12:09:02.
