data_PCOD8328216
_publ_section_title
;
Structure prediction by ZEFSAII (Michael W. Deem and Ramdas Pophale) SiO2 
 PCOD8328216
Probable space group: P 6/M M M
;
_chemical_formula_sum "Si O2"
_cell_formula_units_Z 108
_cell_length_a 27.906426
_cell_length_b 27.906426
_cell_length_c 12.923074
_cell_angle_alpha 90.000000
_cell_angle_beta 90.000000
_cell_angle_gamma 120.000000
_cell_volume 8715.752759
_symmetry_space_group_name_H-M "P 6/M M M"
_symmetry_group_IT_number 191
_symmetry_cell_setting 'hexagonal'
loop_
_space_group_symop_operation_xyz
x,y,z
x-y,x,z
-y,x-y,z
-x,-y,z
-x+y,-x,z
y,-x+y,z
x-y,-y,-z
-x,-x+y,-z
y,x,-z
-y,-x,-z
-x+y,y,-z
x,x-y,-z
-x,-y,-z
-x+y,-x,-z
y,-x+y,-z
x,y,-z
x-y,x,-z
-y,x-y,-z
-x+y,y,z
x,x-y,z
-y,-x,z
y,x,z
x-y,-y,z
-x,-x+y,z
loop_
_atom_site_type_symbol
_atom_site_label
_atom_site_fract_x
_atom_site_fract_y
_atom_site_fract_z
Si Si1 0.414073 0.479341 0.000000
Si Si2 0.065930 0.417002 0.805395
Si Si3 0.060738 0.225498 0.876909
Si Si4 0.230262 0.879035 0.879488
Si Si5 0.586132 0.065570 0.614822
O O1 0.376317 0.460860 0.898304
O O2 0.451616 0.451616 0.000000
O O3 0.454100 0.545901 0.000000
O O4 0.101079 0.386060 0.812266
O O5 0.086255 0.451863 0.699368
O O6 0.000000 0.373456 0.808491
O O7 0.102275 0.204549 0.837330
O O8 0.083764 0.288269 0.841504
O O9 0.000000 0.186285 0.828839
O O10 0.058440 0.223561 0.000000
O O11 0.185787 0.814214 0.860494
O O12 0.246556 0.889919 0.000000
O O13 0.612166 0.084953 0.500000
O O14 0.544426 0.088852 0.639250
O O15 0.550907 0.000000 0.619970
#
# Coordination Sequence:
#
# PCOD8328216 Si02
#       5
#    12  24  24  24  24
#     4   9  16  22  29  48  74  92 106 130 167 202
#     4  10  16  22  35  51  68  92 118 145 171 202
#     4   8  13  20  30  42  58  81 110 144 178 213
#     4   9  16  24  32  45  66  91 117 144 175 212
#     4   8  14  24  36  50  69  93 119 142 163 191
#
# _framework density 12.391356999999999
#
# number of rings (size 3 to 8) (size 9 to 14) (size 15 to 20)
#    0.000    3.222    1.111    3.333    0.000    3.556 
#    0.000    0.000    0.000    0.889    0.000    1.556 
#    0.000    0.000    0.000    9.333    0.000    3.111 
#
# Total GULP energy -1338294.450411 kJ/mol
# GULP energy per Si atom -12391.615282 kJ/mol
# Density = 1.236315 g / cm^3
# Si number density = 12.391357 Si / 1000 Ang^3
#
#
#
# Elastic Constant Matrix: (Units=GPa)
#
#
# Indices 1 2 3 4 5 6 
#
# 1 79.4581 40.8017 34.0542 0.0000 0.0000 0.0000
# 2 40.8017 79.4581 34.0542 0.0000 0.0000 0.0000
# 3 34.0542 34.0542 67.0392 0.0000 0.0000 0.0000
# 4 0.0000 0.0000 0.0000 10.1209 0.0000 0.0000
# 5 0.0000 0.0000 0.0000 0.0000 10.1209 0.0000
# 6 0.0000 0.0000 0.0000 0.0000 0.0000 19.3282
#
#
#
# Elastic Compliance Matrix: (Units=1/GPa)
#
#
# Indices 1 2 3 4 5 6 
#
# 1 0.018771 -0.007098 -0.005930 0.000000 0.000000 0.000000
# 2 -0.007098 0.018771 -0.005930 0.000000 0.000000 0.000000
# 3 -0.005930 -0.005930 0.020941 0.000000 0.000000 0.000000
# 4 0.000000 0.000000 0.000000 0.098806 0.000000 0.000000
# 5 0.000000 0.000000 0.000000 0.000000 0.098806 0.000000
# 6 0.000000 0.000000 0.000000 0.000000 0.000000 0.051738
#
#
# Mechanical properties :
#
#
# Convention : Reuss Voigt Hill
#
# Bulk Modulus (GPa) = 48.61729 49.30839 48.96284
# Shear Modulus (GPa) = 14.18021 15.71702 14.94861
#
# Velocity S-wave (km/s) = 3.38651 3.56530 3.47706
# Velocity P-wave (km/s) = 7.38995 7.53840 7.46454
#
# Compressibility (1/GPa) = 0.02056881
#
# Stress axis : x y z
#
# Youngs Moduli (GPa) = 53.27276 53.27276 47.75289
#
# Poissons Ratio (x) = 0.37811 0.28317
# Poissons Ratio (y) = 0.37811 0.28317
# Poissons Ratio (z) = 0.31590 0.31590
#
# Static dielectric constant tensor:
#      x y z
#    x 2.515630 0.000000 0.000000 
#    y 0.000000 2.515630 0.000000 
#    z 0.000000 0.000000 2.444270 
# 
# 
# High freq. dielectric constant tensor:
#      x y z
#    x 1.451030 0.000000 0.000000 
#    y 0.000000 1.451030 0.000000 
#    z 0.000000 0.000000 1.441770 
# 
# From -- ./inp_files/3064.got.cif
#   From: 2010.03.12/outbox.cif.g09.slc.cpg/sg191_2_cif.got.tgz:3064.got - 2010.04.01 12:09:02.
