data_PCOD8328979
_publ_section_title
;
Structure prediction by ZEFSAII (Michael W. Deem and Ramdas Pophale) SiO2 
 PCOD8328979
Probable space group: P 6/M M M
;
_chemical_formula_sum "Si O2"
_cell_formula_units_Z 168
_cell_length_a 31.730407
_cell_length_b 31.730407
_cell_length_c 10.560876
_cell_angle_alpha 90.000000
_cell_angle_beta 90.000000
_cell_angle_gamma 120.000000
_cell_volume 9208.350903
_symmetry_space_group_name_H-M "P 6/M M M"
_symmetry_group_IT_number 191
_symmetry_cell_setting 'hexagonal'
loop_
_space_group_symop_operation_xyz
x,y,z
x-y,x,z
-y,x-y,z
-x,-y,z
-x+y,-x,z
y,-x+y,z
x-y,-y,-z
-x,-x+y,-z
y,x,-z
-y,-x,-z
-x+y,y,-z
x,x-y,-z
-x,-y,-z
-x+y,-x,-z
y,-x+y,-z
x,y,-z
x-y,x,-z
-y,x-y,-z
-x+y,y,z
x,x-y,z
-y,-x,z
y,x,z
x-y,-y,z
-x,-x+y,z
loop_
_atom_site_type_symbol
_atom_site_label
_atom_site_fract_x
_atom_site_fract_y
_atom_site_fract_z
Si Si1 0.735854 0.682120 0.000000
Si Si2 0.106044 0.801455 0.355983
Si Si3 0.945632 0.384186 0.644791
Si Si4 0.192518 0.484104 0.851559
Si Si5 0.840421 0.068981 0.000000
Si Si6 0.528673 0.154423 0.645431
Si Si7 0.147831 0.947066 0.729826
Si Si8 0.897552 0.613961 0.230020
O O1 0.784044 0.733365 0.000000
O O2 0.734341 0.651980 0.880607
O O3 0.689457 0.689457 0.000000
O O4 0.100810 0.811387 0.500000
O O5 0.157897 0.842104 0.299705
O O6 0.064020 0.807723 0.288207
O O7 0.104089 0.749897 0.345767
O O8 0.944130 0.367943 0.500000
O O9 0.903849 0.398274 0.667685
O O10 0.934199 0.339320 0.735386
O O11 0.000000 0.428968 0.677621
O O12 0.247234 0.494468 0.835805
O O13 0.184973 0.518923 0.752549
O O14 0.155291 0.429336 0.809362
O O15 0.183460 0.492734 0.000000
O O16 0.855829 0.048621 0.119850
O O17 0.871798 0.128203 0.000000
O O18 0.520443 0.167278 0.500000
O O19 0.584019 0.168037 0.663122
O O20 0.096485 0.903516 0.672713
O O21 0.162955 0.000000 0.668912
#
# Coordination Sequence:
#
# PCOD8328979 Si02
#       8
#    12  24  24  24  12  24  24  24
#     4  12  22  30  46  70 100 138 181 218 255 299
#     4  10  21  34  48  69  97 130 168 209 254 306
#     4   9  18  32  50  74 105 141 182 224 262 302
#     4  10  21  36  56  84 114 146 184 227 276 331
#     4  10  20  32  49  70  94 124 165 212 255 305
#     4   9  19  36  58  83 111 145 185 228 275 326
#     4  10  20  34  51  70  92 119 154 198 250 310
#     4  11  20  33  49  73 104 145 180 218 258 305
#
# _framework density 18.244309999999999
#
# number of rings (size 3 to 8) (size 9 to 14) (size 15 to 20)
#    0.000    2.000    2.143    1.929    0.000    2.857 
#    0.000    1.429    0.000    0.429    0.000    2.000 
#    0.000    1.714    0.000    3.571    0.000    0.000 
#
# Total GULP energy -2081540.439279 kJ/mol
# GULP energy per Si atom -12390.121662 kJ/mol
# Density = 1.820279 g / cm^3
# Si number density = 18.244310 Si / 1000 Ang^3
#
#
#
# Elastic Constant Matrix: (Units=GPa)
#
#
# Indices 1 2 3 4 5 6 
#
# 1 86.1106 46.1597 32.7220 0.0000 0.0000 0.0000
# 2 46.1597 86.1106 32.7220 0.0000 0.0000 0.0000
# 3 32.7220 32.7220 77.3564 0.0000 0.0000 0.0000
# 4 0.0000 0.0000 0.0000 22.1714 0.0000 0.0000
# 5 0.0000 0.0000 0.0000 0.0000 22.1714 0.0000
# 6 0.0000 0.0000 0.0000 0.0000 0.0000 19.9755
#
#
#
# Elastic Compliance Matrix: (Units=1/GPa)
#
#
# Indices 1 2 3 4 5 6 
#
# 1 0.017296 -0.007735 -0.004044 0.000000 0.000000 0.000000
# 2 -0.007735 0.017296 -0.004044 0.000000 0.000000 0.000000
# 3 -0.004044 -0.004044 0.016349 0.000000 0.000000 0.000000
# 4 0.000000 0.000000 0.000000 0.045103 0.000000 0.000000
# 5 0.000000 0.000000 0.000000 0.000000 0.045103 0.000000
# 6 0.000000 0.000000 0.000000 0.000000 0.000000 0.050061
#
#
# Mechanical properties :
#
#
# Convention : Reuss Voigt Hill
#
# Bulk Modulus (GPa) = 51.83056 52.53167 52.18112
# Shear Modulus (GPa) = 21.80672 22.06193 21.93432
#
# Velocity S-wave (km/s) = 3.46101 3.48120 3.47112
# Velocity P-wave (km/s) = 6.66650 6.70927 6.68792
#
# Compressibility (1/GPa) = 0.01929364
#
# Stress axis : x y z
#
# Youngs Moduli (GPa) = 57.81666 57.81666 61.16645
#
# Poissons Ratio (x) = 0.44719 0.24739
# Poissons Ratio (y) = 0.44719 0.24739
# Poissons Ratio (z) = 0.23384 0.23384
#
# Static dielectric constant tensor:
#      x y z
#    x 3.275850 0.000000 0.000000 
#    y 0.000000 3.275850 0.000000 
#    z 0.000000 0.000000 3.471650 
# 
# 
# High freq. dielectric constant tensor:
#      x y z
#    x 1.690660 0.000000 0.000000 
#    y 0.000000 1.690660 0.000000 
#    z 0.000000 0.000000 1.713290 
# 
# From -- ./inp_files/3641.got.cif
#   From: 2010.03.12/outbox.cif.g09.slc.cpg/sg191_2_cif.got.tgz:3641.got - 2010.04.01 12:09:02.
