data_PCOD8328183
_publ_section_title
;
Structure prediction by ZEFSAII (Michael W. Deem and Ramdas Pophale) SiO2 
 PCOD8328183
Probable space group: P -6 2 C
;
_chemical_formula_sum "Si O2"
_cell_formula_units_Z 34
_cell_length_a 10.071615
_cell_length_b 10.071615
_cell_length_c 15.777872
_cell_angle_alpha 90.000000
_cell_angle_beta 90.000000
_cell_angle_gamma 120.000000
_cell_volume 1386.044877
_symmetry_space_group_name_H-M "P -6 2 C"
_symmetry_group_IT_number 190
_symmetry_cell_setting 'hexagonal'
loop_
_space_group_symop_operation_xyz
x,y,z
-x+y,-x,1/2-z
-y,x-y,z
x,y,1/2-z
-x+y,-x,z
-y,x-y,1/2-z
x-y,-y,-z
-x,-x+y,-z
y,x,-z
y,x,1/2+z
x-y,-y,1/2+z
-x,-x+y,1/2+z
loop_
_atom_site_type_symbol
_atom_site_label
_atom_site_fract_x
_atom_site_fract_y
_atom_site_fract_z
Si Si1 0.247496 0.343314 0.651440
Si Si2 0.437991 0.024086 0.403728
Si Si3 0.681931 0.507800 0.750000
Si Si4 0.000000 0.000000 0.900645
O O1 0.282217 0.358617 0.750000
O O2 0.409587 0.419937 0.601992
O O3 0.184258 0.456240 0.625157
O O4 0.134787 0.165204 0.629984
O O5 0.378404 0.000000 0.500000
O O6 0.309160 0.904470 0.337361
O O7 0.825362 0.479682 0.750000
O O8 0.000000 0.000000 0.000000
#
# Coordination Sequence:
#
# PCOD8328183 Si02
#       4
#    12  12   6   4
#     4  12  25  46  70 104 140 190 233 294 350 418
#     4  12  27  45  73 101 143 182 236 285 351 418
#     4  10  26  42  70  98 142 180 232 276 354 414
#     4  12  28  44  73 108 145 182 244 292 359 415
#
# _framework density 24.53023
#
# number of rings (size 3 to 8) (size 9 to 14) (size 15 to 20)
#    0.353    0.000    3.529    3.882    9.882    0.000 
#    0.000    0.000    0.000    0.000    0.000    0.000 
#    0.000    0.000    0.000    0.000    0.000    0.000 
#
# Total GULP energy -421332.075760 kJ/mol
# GULP energy per Si atom -12392.119875 kJ/mol
# Density = 2.447440 g / cm^3
# Si number density = 24.530230 Si / 1000 Ang^3
#
#
#
# Elastic Constant Matrix: (Units=GPa)
#
#
# Indices 1 2 3 4 5 6 
#
# 1 84.9478 -7.5460 8.7155 0.0000 0.0000 0.0000
# 2 -7.5460 84.9478 8.7155 0.0000 0.0000 0.0000
# 3 8.7155 8.7155 194.9854 0.0000 0.0000 0.0000
# 4 0.0000 0.0000 0.0000 26.4691 0.0000 0.0000
# 5 0.0000 0.0000 0.0000 0.0000 26.4691 0.0000
# 6 0.0000 0.0000 0.0000 0.0000 0.0000 46.2469
#
#
#
# Elastic Compliance Matrix: (Units=1/GPa)
#
#
# Indices 1 2 3 4 5 6 
#
# 1 0.011931 0.001120 -0.000583 0.000000 0.000000 0.000000
# 2 0.001120 0.011931 -0.000583 0.000000 0.000000 0.000000
# 3 -0.000583 -0.000583 0.005181 0.000000 0.000000 0.000000
# 4 0.000000 0.000000 0.000000 0.037780 0.000000 0.000000
# 5 0.000000 0.000000 0.000000 0.000000 0.037780 0.000000
# 6 0.000000 0.000000 0.000000 0.000000 0.000000 0.021623
#
#
# Mechanical properties :
#
#
# Convention : Reuss Voigt Hill
#
# Bulk Modulus (GPa) = 34.54321 42.73900 38.64111
# Shear Modulus (GPa) = 36.77287 43.50344 40.13815
#
# Velocity S-wave (km/s) = 3.87600 4.21582 4.04948
# Velocity P-wave (km/s) = 5.84326 6.41547 6.13604
#
# Compressibility (1/GPa) = 0.02894925
#
# Stress axis : x y z
#
# Youngs Moduli (GPa) = 83.81355 83.81355 193.02263
#
# Poissons Ratio (x) = -0.09385 0.11260
# Poissons Ratio (y) = -0.09385 0.11260
# Poissons Ratio (z) = 0.04889 0.04889
#
# Static dielectric constant tensor:
#      x y z
#    x 4.267770 0.000000 0.000000 
#    y 0.000000 4.267770 0.000000 
#    z 0.000000 0.000000 4.550490 
# 
# 
# High freq. dielectric constant tensor:
#      x y z
#    x 1.980700 0.000000 0.000000 
#    y 0.000000 1.980700 0.000000 
#    z 0.000000 0.000000 1.986180 
# 
# From -- ./inp_files/2393.got.cif
#   From: 2010.06.25/outbox.cif.g09.slc.cpg/sg190_2_cif.got.tgz:2393.got - 2010.06.28 13:08:06.
