data_PCOD8328562
_publ_section_title
;
Structure prediction by ZEFSAII (Michael W. Deem and Ramdas Pophale) SiO2 
 PCOD8328562
Probable space group: P 6/M M M
;
_chemical_formula_sum "Si O2"
_cell_formula_units_Z 124
_cell_length_a 20.637466
_cell_length_b 20.637466
_cell_length_c 19.935660
_cell_angle_alpha 90.000000
_cell_angle_beta 90.000000
_cell_angle_gamma 120.000000
_cell_volume 7353.159584
_symmetry_space_group_name_H-M "P 6/M M M"
_symmetry_group_IT_number 191
_symmetry_cell_setting 'hexagonal'
loop_
_space_group_symop_operation_xyz
x,y,z
x-y,x,z
-y,x-y,z
-x,-y,z
-x+y,-x,z
y,-x+y,z
x-y,-y,-z
-x,-x+y,-z
y,x,-z
-y,-x,-z
-x+y,y,-z
x,x-y,-z
-x,-y,-z
-x+y,-x,-z
y,-x+y,-z
x,y,-z
x-y,x,-z
-y,x-y,-z
-x+y,y,z
x,x-y,z
-y,-x,z
y,x,z
x-y,-y,z
-x,-x+y,z
loop_
_atom_site_type_symbol
_atom_site_label
_atom_site_fract_x
_atom_site_fract_y
_atom_site_fract_z
Si Si1 0.232302 0.319752 0.304602
Si Si2 0.085262 0.672302 0.425730
Si Si3 0.918618 0.459309 0.258804
Si Si4 0.480897 0.667088 0.923104
Si Si5 0.666668 0.333334 0.578826
Si Si6 0.836489 0.418245 0.609134
Si Si7 0.589996 0.916344 0.818788
O O1 0.142000 0.284001 0.306081
O O2 0.254719 0.254719 0.308507
O O3 0.265176 0.375435 0.368241
O O4 0.261439 0.366728 0.235911
O O5 0.094472 0.708781 0.500000
O O6 0.133177 0.631016 0.425985
O O7 0.000000 0.609626 0.411632
O O8 0.854334 0.427167 0.312907
O O9 0.910563 0.517702 0.214219
O O10 0.000000 0.500000 0.294814
O O11 0.452212 0.726106 0.914677
O O12 0.413875 0.586126 0.898782
O O13 0.558228 0.697886 0.881587
O O14 0.501044 0.661954 0.000000
O O15 0.666667 0.333334 0.500000
O O16 0.748787 0.374394 0.606994
O O17 0.645419 0.000000 0.845569
#
# Coordination Sequence:
#
# PCOD8328562 Si02
#       7
#    24  24  12  24   4  12  24
#     4  10  21  36  56  79 103 129 159 197 246 299
#     4  10  20  33  53  77  96 125 169 213 256 300
#     4  10  18  32  53  73  94 121 160 213 264 311
#     4  10  20  33  48  68  96 133 173 212 253 296
#     4  12  30  42  42  63  99 141 184 221 265 306
#     4  12  22  37  50  63  96 137 175 217 262 304
#     4  10  19  33  52  74  99 126 160 207 255 299
#
# _framework density 16.863499000000001
#
# number of rings (size 3 to 8) (size 9 to 14) (size 15 to 20)
#    0.000    1.742    2.903    2.516    1.355    2.323 
#    1.742    0.968    0.000    0.194    0.000    0.000 
#    0.000    0.000    0.000    4.839    0.000    0.000 
#
# Total GULP energy -1537072.492630 kJ/mol
# GULP energy per Si atom -12395.745908 kJ/mol
# Density = 1.682512 g / cm^3
# Si number density = 16.863499 Si / 1000 Ang^3
#
#
#
# Elastic Constant Matrix: (Units=GPa)
#
#
# Indices 1 2 3 4 5 6 
#
# 1 94.4037 40.7002 35.5942 0.0000 0.0000 -0.0001
# 2 40.7002 94.4037 35.5941 0.0001 0.0000 0.0000
# 3 35.5942 35.5941 88.6392 0.0000 0.0000 0.0000
# 4 0.0000 0.0001 0.0000 9.5498 0.0001 0.0000
# 5 0.0000 0.0000 0.0000 0.0001 9.5489 0.0000
# 6 -0.0001 0.0000 0.0000 0.0000 0.0000 26.8516
#
#
#
# Elastic Compliance Matrix: (Units=1/GPa)
#
#
# Indices 1 2 3 4 5 6 
#
# 1 0.014004 -0.004616 -0.003770 0.000000 0.000000 0.000000
# 2 -0.004616 0.014004 -0.003770 0.000000 0.000000 0.000000
# 3 -0.003770 -0.003770 0.014309 0.000000 0.000000 0.000000
# 4 0.000000 0.000000 0.000000 0.104714 -0.000002 0.000000
# 5 0.000000 0.000000 0.000000 -0.000002 0.104724 0.000000
# 6 0.000000 0.000000 0.000000 0.000000 0.000000 0.037242
#
#
# Mechanical properties :
#
#
# Convention : Reuss Voigt Hill
#
# Bulk Modulus (GPa) = 55.53704 55.69150 55.61427
# Shear Modulus (GPa) = 15.65862 20.22726 17.94294
#
# Velocity S-wave (km/s) = 3.05052 3.46709 3.26546
# Velocity P-wave (km/s) = 6.73887 7.00887 6.87519
#
# Compressibility (1/GPa) = 0.01800600
#
# Stress axis : x y z
#
# Youngs Moduli (GPa) = 71.40581 71.40587 69.88406
#
# Poissons Ratio (x) = 0.32963 0.26346
# Poissons Ratio (y) = 0.32963 0.26346
# Poissons Ratio (z) = 0.26920 0.26919
#
# Static dielectric constant tensor:
#      x y z
#    x 3.102700 0.000000 0.000000 
#    y 0.000000 3.102700 0.000000 
#    z 0.000000 0.000000 3.251230 
# 
# 
# High freq. dielectric constant tensor:
#      x y z
#    x 1.630050 0.000000 0.000000 
#    y 0.000000 1.630050 0.000000 
#    z 0.000000 0.000000 1.658820 
# 
# From -- ./inp_files/7574.got.cif
#   From: 2010.03.12/outbox.cif.g09.slc.cpg/sg191_4_cif.got.tgz:7574.got - 2010.04.01 12:09:02.
