data_PCOD8328740
_publ_section_title
;
Structure prediction by ZEFSAII (Michael W. Deem and Ramdas Pophale) SiO2 
 PCOD8328740
Probable space group: P 6/M M M
;
_chemical_formula_sum "Si O2"
_cell_formula_units_Z 132
_cell_length_a 18.014741
_cell_length_b 18.014741
_cell_length_c 27.404313
_cell_angle_alpha 90.000000
_cell_angle_beta 90.000000
_cell_angle_gamma 120.000000
_cell_volume 7702.036920
_symmetry_space_group_name_H-M "P 6/M M M"
_symmetry_group_IT_number 191
_symmetry_cell_setting 'hexagonal'
loop_
_space_group_symop_operation_xyz
x,y,z
x-y,x,z
-y,x-y,z
-x,-y,z
-x+y,-x,z
y,-x+y,z
x-y,-y,-z
-x,-x+y,-z
y,x,-z
-y,-x,-z
-x+y,y,-z
x,x-y,-z
-x,-y,-z
-x+y,-x,-z
y,-x+y,-z
x,y,-z
x-y,x,-z
-y,x-y,-z
-x+y,y,z
x,x-y,z
-y,-x,z
y,x,z
x-y,-y,z
-x,-x+y,z
loop_
_atom_site_type_symbol
_atom_site_label
_atom_site_fract_x
_atom_site_fract_y
_atom_site_fract_z
Si Si1 0.338651 0.338651 0.557774
Si Si2 0.637267 0.733294 0.000000
Si Si3 0.501231 0.668549 0.717388
Si Si4 0.833489 0.502783 0.082320
Si Si5 0.000000 0.830875 0.558073
Si Si6 0.490514 0.158977 0.609535
Si Si7 0.459393 0.364500 0.183967
O O1 0.339337 0.339337 0.500000
O O2 0.253907 0.253907 0.577364
O O3 0.339152 0.423812 0.574830
O O4 0.581015 0.687002 0.952432
O O5 0.719087 0.719087 0.000000
O O6 0.669829 0.834915 0.000000
O O7 0.461130 0.730565 0.719250
O O8 0.427944 0.572057 0.721427
O O9 0.546949 0.680025 0.664957
O O10 0.562178 0.687847 0.764709
O O11 0.734247 0.468495 0.069210
O O12 0.855330 0.427665 0.074160
O O13 0.847549 0.535759 0.138144
O O14 0.915282 0.830563 0.577971
O O15 0.000000 0.831927 0.500000
O O16 0.584016 0.168031 0.605104
O O17 0.498763 0.249382 0.594101
O O18 0.549100 0.450901 0.188969
O O19 0.382891 0.382891 0.173418
#
# Coordination Sequence:
#
# PCOD8328740 Si02
#       7
#    12  12  24  24  12  24  24
#     4  11  23  37  53  75 103 133 163 198 245 297
#     4  10  21  35  51  70  95 129 166 204 251 303
#     4   9  17  29  46  66  88 115 151 198 250 300
#     4  10  19  30  45  67  97 135 176 214 248 285
#     4   9  17  31  53  79 105 131 159 193 234 283
#     4  10  21  36  54  74  98 130 169 210 252 298
#     4   9  17  27  41  62  89 121 160 205 250 292
#
# _framework density 17.138324000000001
#
# number of rings (size 3 to 8) (size 9 to 14) (size 15 to 20)
#    0.000    2.364    0.000    2.818    1.273    5.091 
#    0.000    2.727    0.000    1.182    0.000    0.000 
#    0.000    0.000    0.000    0.000    0.000    0.000 
#
# Total GULP energy -1635830.451912 kJ/mol
# GULP energy per Si atom -12392.654939 kJ/mol
# Density = 1.709932 g / cm^3
# Si number density = 17.138324 Si / 1000 Ang^3
#
#
#
# Elastic Constant Matrix: (Units=GPa)
#
#
# Indices 1 2 3 4 5 6 
#
# 1 89.9084 48.5489 36.2767 0.0000 0.0000 0.0000
# 2 48.5489 89.9084 36.2767 0.0000 0.0000 0.0000
# 3 36.2767 36.2767 91.2921 0.0000 0.0000 0.0000
# 4 0.0000 0.0000 0.0000 20.7409 0.0000 0.0000
# 5 0.0000 0.0000 0.0000 0.0000 20.7409 0.0000
# 6 0.0000 0.0000 0.0000 0.0000 0.0000 20.6798
#
#
#
# Elastic Compliance Matrix: (Units=1/GPa)
#
#
# Indices 1 2 3 4 5 6 
#
# 1 0.016650 -0.007528 -0.003625 0.000000 0.000000 0.000000
# 2 -0.007528 0.016650 -0.003625 0.000000 0.000000 0.000000
# 3 -0.003625 -0.003625 0.013835 0.000000 0.000000 0.000000
# 4 0.000000 0.000000 0.000000 0.048214 0.000000 0.000000
# 5 0.000000 0.000000 0.000000 0.000000 0.048214 0.000000
# 6 0.000000 0.000000 0.000000 0.000000 0.000000 0.048356
#
#
# Mechanical properties :
#
#
# Convention : Reuss Voigt Hill
#
# Bulk Modulus (GPa) = 56.88508 57.03483 56.95995
# Shear Modulus (GPa) = 21.99404 22.43273 22.21338
#
# Velocity S-wave (km/s) = 3.58624 3.62183 3.60408
# Velocity P-wave (km/s) = 7.10014 7.13033 7.11525
#
# Compressibility (1/GPa) = 0.01757930
#
# Stress axis : x y z
#
# Youngs Moduli (GPa) = 60.05989 60.05989 72.28258
#
# Poissons Ratio (x) = 0.45214 0.26201
# Poissons Ratio (y) = 0.45214 0.26201
# Poissons Ratio (z) = 0.21770 0.21770
#
# Static dielectric constant tensor:
#      x y z
#    x 3.065330 0.000000 0.000000 
#    y 0.000000 3.065330 0.000000 
#    z 0.000000 0.000000 3.480080 
# 
# 
# High freq. dielectric constant tensor:
#      x y z
#    x 1.639980 0.000000 0.000000 
#    y 0.000000 1.639980 0.000000 
#    z 0.000000 0.000000 1.669760 
# 
# From -- ./inp_files/9868.got.cif
#   From: 2010.03.12/outbox.cif.g09.slc.cpg/sg191_5_cif.got.tgz:9868.got - 2010.04.01 12:09:02.
