data_PCOD8328346
_publ_section_title
;
Structure prediction by ZEFSAII (Michael W. Deem and Ramdas Pophale) SiO2 
 PCOD8328346
Probable space group: P 6/M M M
;
_chemical_formula_sum "Si O2"
_cell_formula_units_Z 144
_cell_length_a 21.145900
_cell_length_b 21.145900
_cell_length_c 25.639527
_cell_angle_alpha 90.000000
_cell_angle_beta 90.000000
_cell_angle_gamma 120.000000
_cell_volume 9928.713726
_symmetry_space_group_name_H-M "P 6/M M M"
_symmetry_group_IT_number 191
_symmetry_cell_setting 'hexagonal'
loop_
_space_group_symop_operation_xyz
x,y,z
x-y,x,z
-y,x-y,z
-x,-y,z
-x+y,-x,z
y,-x+y,z
x-y,-y,-z
-x,-x+y,-z
y,x,-z
-y,-x,-z
-x+y,y,-z
x,x-y,-z
-x,-y,-z
-x+y,-x,-z
y,-x+y,-z
x,y,-z
x-y,x,-z
-y,x-y,-z
-x+y,y,z
x,x-y,z
-y,-x,z
y,x,z
x-y,-y,z
-x,-x+y,z
loop_
_atom_site_type_symbol
_atom_site_label
_atom_site_fract_x
_atom_site_fract_y
_atom_site_fract_z
Si Si1 0.615773 0.534333 0.441778
Si Si2 0.918112 0.384371 0.746290
Si Si3 0.704889 0.921253 0.938510
Si Si4 0.696250 0.154198 0.943147
Si Si5 0.522534 0.186972 0.163273
Si Si6 0.516026 0.333183 0.650956
O O1 0.649547 0.546904 0.500000
O O2 0.539781 0.460220 0.439715
O O3 0.600055 0.600055 0.426950
O O4 0.670615 0.528233 0.401481
O O5 0.925859 0.462930 0.743624
O O6 0.878236 0.343699 0.799782
O O7 0.868694 0.336311 0.698258
O O8 0.000000 0.395468 0.744063
O O9 0.718076 0.859038 0.912384
O O10 0.623840 0.906879 0.927585
O O11 0.762320 0.000000 0.914418
O O12 0.715973 0.920948 0.000000
O O13 0.770015 0.229986 0.948593
O O14 0.647842 0.158522 0.896565
O O15 0.655707 0.136716 0.000000
O O16 0.605361 0.210722 0.178942
O O17 0.510390 0.255195 0.170578
O O18 0.521704 0.260852 0.655601
O O19 0.597673 0.402328 0.651391
#
# Coordination Sequence:
#
# PCOD8328346 Si02
#       6
#    24  24  24  24  24  24
#     4   8  14  25  40  56  75 103 137 166 192 228
#     4   9  18  31  44  56  71  96 130 163 194 233
#     4   8  13  22  37  55  73  94 121 152 185 221
#     4   8  15  27  40  55  76 101 127 152 180 222
#     4  10  19  30  44  61  81 102 125 157 199 246
#     4  10  18  27  40  58  80 103 128 162 205 249
#
# _framework density 14.503389
#
# number of rings (size 3 to 8) (size 9 to 14) (size 15 to 20)
#    0.000    3.167    0.000    2.833    0.000    3.333 
#    0.000    1.667    0.000    2.167    0.000    5.833 
#    0.000    0.000    0.000    0.000    0.000    0.000 
#
# Total GULP energy -1784094.529066 kJ/mol
# GULP energy per Si atom -12389.545341 kJ/mol
# Density = 1.447038 g / cm^3
# Si number density = 14.503389 Si / 1000 Ang^3
#
#
#
# Elastic Constant Matrix: (Units=GPa)
#
#
# Indices 1 2 3 4 5 6 
#
# 1 62.0001 32.5277 35.8262 0.0000 0.0000 0.0000
# 2 32.5277 62.0001 35.8262 0.0000 0.0000 0.0000
# 3 35.8262 35.8262 97.9827 0.0000 0.0000 0.0000
# 4 0.0000 0.0000 0.0000 16.5861 0.0000 0.0000
# 5 0.0000 0.0000 0.0000 0.0000 16.5861 0.0000
# 6 0.0000 0.0000 0.0000 0.0000 0.0000 14.7362
#
#
#
# Elastic Compliance Matrix: (Units=1/GPa)
#
#
# Indices 1 2 3 4 5 6 
#
# 1 0.024283 -0.009648 -0.005351 0.000000 0.000000 0.000000
# 2 -0.009648 0.024283 -0.005351 0.000000 0.000000 0.000000
# 3 -0.005351 -0.005351 0.014119 0.000000 0.000000 0.000000
# 4 0.000000 0.000000 0.000000 0.060292 0.000000 0.000000
# 5 0.000000 0.000000 0.000000 0.000000 0.060292 0.000000
# 6 0.000000 0.000000 0.000000 0.000000 0.000000 0.067860
#
#
# Mechanical properties :
#
#
# Convention : Reuss Voigt Hill
#
# Bulk Modulus (GPa) = 45.48629 47.81589 46.65109
# Shear Modulus (GPa) = 16.71371 17.43517 17.07444
#
# Velocity S-wave (km/s) = 3.39839 3.47096 3.43486
# Velocity P-wave (km/s) = 6.84319 7.00741 6.92579
#
# Compressibility (1/GPa) = 0.02198465
#
# Stress axis : x y z
#
# Youngs Moduli (GPa) = 41.18173 41.18173 70.82628
#
# Poissons Ratio (x) = 0.39730 0.37900
# Poissons Ratio (y) = 0.39730 0.37900
# Poissons Ratio (z) = 0.22037 0.22037
#
# Static dielectric constant tensor:
#      x y z
#    x 2.762080 0.000000 0.000000 
#    y 0.000000 2.762080 0.000000 
#    z 0.000000 0.000000 3.185770 
# 
# 
# High freq. dielectric constant tensor:
#      x y z
#    x 1.525730 0.000000 0.000000 
#    y 0.000000 1.525730 0.000000 
#    z 0.000000 0.000000 1.552010 
# 
# From -- ./inp_files/9928.got.cif
#   From: 2010.03.12/outbox.cif.g09.slc.cpg/sg191_5_cif.got.tgz:9928.got - 2010.04.01 12:09:02.
