data_PCOD8328932
_publ_section_title
;
Structure prediction by ZEFSAII (Michael W. Deem and Ramdas Pophale) SiO2 
 PCOD8328932
Probable space group: P 6/M M M
;
_chemical_formula_sum "Si O2"
_cell_formula_units_Z 192
_cell_length_a 23.306770
_cell_length_b 23.306770
_cell_length_c 24.314470
_cell_angle_alpha 90.000000
_cell_angle_beta 90.000000
_cell_angle_gamma 120.000000
_cell_volume 11438.250933
_symmetry_space_group_name_H-M "P 6/M M M"
_symmetry_group_IT_number 191
_symmetry_cell_setting 'hexagonal'
loop_
_space_group_symop_operation_xyz
x,y,z
x-y,x,z
-y,x-y,z
-x,-y,z
-x+y,-x,z
y,-x+y,z
x-y,-y,-z
-x,-x+y,-z
y,x,-z
-y,-x,-z
-x+y,y,-z
x,x-y,-z
-x,-y,-z
-x+y,-x,-z
y,-x+y,-z
x,y,-z
x-y,x,-z
-y,x-y,-z
-x+y,y,z
x,x-y,z
-y,-x,z
y,x,z
x-y,-y,z
-x,-x+y,z
loop_
_atom_site_type_symbol
_atom_site_label
_atom_site_fract_x
_atom_site_fract_y
_atom_site_fract_z
Si Si1 0.729036 0.802002 0.917276
Si Si2 0.274150 0.858238 0.243325
Si Si3 0.078266 0.675431 0.939543
Si Si4 0.603043 0.074941 0.436608
Si Si5 0.408526 0.138746 0.371517
Si Si6 0.074235 0.277215 0.437212
Si Si7 0.268740 0.071969 0.210870
Si Si8 0.393585 0.471659 0.834057
O O1 0.745645 0.872823 0.943366
O O2 0.774396 0.774396 0.944572
O O3 0.651380 0.751305 0.926833
O O4 0.745137 0.812338 0.853326
O O5 0.218818 0.781183 0.232748
O O6 0.285189 0.874278 0.307502
O O7 0.251728 0.907095 0.217900
O O8 0.343732 0.877633 0.214558
O O9 0.103994 0.645485 0.892105
O O10 0.000000 0.632754 0.940313
O O11 0.106101 0.671147 0.000000
O O12 0.620148 0.093434 0.500000
O O13 0.540825 0.081649 0.418501
O O14 0.664085 0.127039 0.400778
O O15 0.587167 0.000000 0.425810
O O16 0.427538 0.213769 0.383612
O O17 0.336309 0.088562 0.395780
O O18 0.081535 0.303542 0.500000
O O19 0.125215 0.250430 0.426338
O O20 0.000000 0.217137 0.426328
O O21 0.253852 0.126926 0.238151
O O22 0.221498 0.000000 0.238400
O O23 0.453747 0.546253 0.834361
O O24 0.419915 0.419915 0.824538
#
# Coordination Sequence:
#
# PCOD8328932 Si02
#       8
#    24  24  24  24  24  24  24  24
#     4   9  16  27  44  66  93 126 163 201 241 283
#     4  10  20  33  48  67  95 127 158 195 234 275
#     4   9  17  29  45  67  95 123 151 185 228 280
#     4   9  18  32  49  70  97 127 156 187 227 276
#     4  10  20  31  46  70  95 122 157 196 238 278
#     4   9  17  29  45  66  93 124 158 198 245 294
#     4   9  16  27  44  63  87 121 158 195 235 279
#     4  10  20  33  50  73  99 125 152 185 230 282
#
# _framework density 16.785784
#
# number of rings (size 3 to 8) (size 9 to 14) (size 15 to 20)
#    0.000    2.625    1.250    1.500    0.000    4.750 
#    0.000    2.500    0.000    0.875    0.000    2.625 
#    0.000    0.000    0.000    9.375    0.000    9.750 
#
# Total GULP energy -2379727.734359 kJ/mol
# GULP energy per Si atom -12394.415283 kJ/mol
# Density = 1.674758 g / cm^3
# Si number density = 16.785784 Si / 1000 Ang^3
#
#
#
# Elastic Constant Matrix: (Units=GPa)
#
#
# Indices 1 2 3 4 5 6 
#
# 1 97.0871 51.1937 44.2751 0.0000 0.0000 0.0000
# 2 51.1937 97.0871 44.2751 0.0000 0.0000 0.0000
# 3 44.2751 44.2751 81.1509 0.0000 0.0000 0.0000
# 4 0.0000 0.0000 0.0000 -1.6528 0.0000 0.0000
# 5 0.0000 0.0000 0.0000 0.0000 -1.6528 0.0000
# 6 0.0000 0.0000 0.0000 0.0000 0.0000 22.9467
#
#
#
# Elastic Compliance Matrix: (Units=1/GPa)
#
#
# Indices 1 2 3 4 5 6 
#
# 1 0.015896 -0.005893 -0.005458 0.000000 0.000000 0.000000
# 2 -0.005893 0.015896 -0.005458 0.000000 0.000000 0.000000
# 3 -0.005458 -0.005458 0.018278 0.000000 0.000000 0.000000
# 4 0.000000 0.000000 0.000000 -0.605038 0.000000 0.000000
# 5 0.000000 0.000000 0.000000 0.000000 -0.605038 0.000000
# 6 0.000000 0.000000 0.000000 0.000000 0.000000 0.043579
#
#
# Mechanical properties :
#
#
# Convention : Reuss Voigt Hill
#
# Bulk Modulus (GPa) = 60.77631 61.64590 61.21111
# Shear Modulus (GPa) = -4.64113 12.96696 4.16292
#
# Velocity S-wave (km/s) = -1.66461 2.78240 1.57652
# Velocity P-wave (km/s) = 5.70886 6.86492 6.31341
#
# Compressibility (1/GPa) = 0.01645378
#
# Stress axis : x y z
#
# Youngs Moduli (GPa) = 62.90738 62.90738 54.71072
#
# Poissons Ratio (x) = 0.37073 0.29859
# Poissons Ratio (y) = 0.37073 0.29859
# Poissons Ratio (z) = 0.34332 0.34332
#
# Static dielectric constant tensor:
#      x y z
#    x 3.144970 0.000000 0.000000 
#    y 0.000000 3.144970 0.000000 
#    z 0.000000 0.000000 3.299190 
# 
# 
# High freq. dielectric constant tensor:
#      x y z
#    x 1.626900 0.000000 0.000000 
#    y 0.000000 1.626900 0.000000 
#    z 0.000000 0.000000 1.650900 
# 
# From -- ./inp_files/9392.got.cif
#   From: 2010.03.12/outbox.cif.g09.slc.cpg/sg191_5_cif.got.tgz:9392.got - 2010.04.01 12:09:02.
