data_PCOD8328359
_publ_section_title
;
Structure prediction by ZEFSAII (Michael W. Deem and Ramdas Pophale) SiO2 
 PCOD8328359
Probable space group: P 6/M M M
;
_chemical_formula_sum "Si O2"
_cell_formula_units_Z 126
_cell_length_a 30.552794
_cell_length_b 30.552794
_cell_length_c 9.201314
_cell_angle_alpha 90.000000
_cell_angle_beta 90.000000
_cell_angle_gamma 120.000000
_cell_volume 7438.448267
_symmetry_space_group_name_H-M "P 6/M M M"
_symmetry_group_IT_number 191
_symmetry_cell_setting 'hexagonal'
loop_
_space_group_symop_operation_xyz
x,y,z
x-y,x,z
-y,x-y,z
-x,-y,z
-x+y,-x,z
y,-x+y,z
x-y,-y,-z
-x,-x+y,-z
y,x,-z
-y,-x,-z
-x+y,y,-z
x,x-y,-z
-x,-y,-z
-x+y,-x,-z
y,-x+y,-z
x,y,-z
x-y,x,-z
-y,x-y,-z
-x+y,y,z
x,x-y,z
-y,-x,z
y,x,z
x-y,-y,z
-x,-x+y,z
loop_
_atom_site_type_symbol
_atom_site_label
_atom_site_fract_x
_atom_site_fract_y
_atom_site_fract_z
Si Si1 0.801133 0.703831 0.668489
Si Si2 0.194292 0.194292 0.327557
Si Si3 0.605023 0.753065 0.830471
Si Si4 0.593358 0.593358 0.156347
Si Si5 0.500000 0.500000 0.760642
Si Si6 0.554672 0.109343 0.335960
Si Si7 0.108892 0.467037 0.172827
Si Si8 0.101572 0.000000 0.829521
O O1 0.787293 0.695087 0.500000
O O2 0.855855 0.711710 0.702659
O O3 0.802109 0.753884 0.725199
O O4 0.758421 0.654414 0.750922
O O5 0.186933 0.186933 0.500000
O O6 0.147159 0.147159 0.254370
O O7 0.594143 0.797072 0.778856
O O8 0.554487 0.700615 0.791436
O O9 0.616803 0.756253 0.000000
O O10 0.541039 0.541039 0.132652
O O11 0.576876 0.630354 0.235010
O O12 0.617174 0.617174 0.000000
O O13 0.475593 0.524408 0.656607
O O14 0.565473 0.130945 0.500000
O O15 0.608111 0.128823 0.252538
O O16 0.105052 0.474557 0.000000
O O17 0.098368 0.049184 0.784129
O O18 0.111564 0.000000 0.000000
#
# Coordination Sequence:
#
# PCOD8328359 Si02
#       8
#    24  12  24  12   6  12  24  12
#     4   9  18  32  48  66  90 120 152 190 237 284
#     4  10  20  34  52  73  96 123 158 198 241 292
#     4   9  18  32  49  68  91 121 158 197 234 274
#     4   8  13  22  38  58  80 111 146 174 203 250
#     4   8  14  24  36  54  83 116 141 166 203 238
#     4  10  18  27  42  65  92 119 150 185 218 259
#     4   9  17  29  44  63  90 122 154 187 226 268
#     4  10  21  36  53  73  97 124 154 194 249 312
#
# _framework density 16.939017
#
# number of rings (size 3 to 8) (size 9 to 14) (size 15 to 20)
#    0.000    2.857    0.000    1.238    0.000    6.095 
#    0.000    2.857    0.000    2.857    0.000    0.000 
#    0.952    0.000    1.714    0.000    0.571    0.000 
#
# Total GULP energy -1561347.035358 kJ/mol
# GULP energy per Si atom -12391.643138 kJ/mol
# Density = 1.690046 g / cm^3
# Si number density = 16.939017 Si / 1000 Ang^3
#
#
#
# Elastic Constant Matrix: (Units=GPa)
#
#
# Indices 1 2 3 4 5 6 
#
# 1 108.6833 59.0486 39.5296 0.0000 0.0000 0.0000
# 2 59.0486 108.6833 39.5296 0.0000 0.0000 0.0000
# 3 39.5296 39.5296 52.7810 0.0000 0.0000 0.0000
# 4 0.0000 0.0000 0.0000 21.2415 0.0000 0.0000
# 5 0.0000 0.0000 0.0000 0.0000 21.2415 0.0000
# 6 0.0000 0.0000 0.0000 0.0000 0.0000 24.8173
#
#
#
# Elastic Compliance Matrix: (Units=1/GPa)
#
#
# Indices 1 2 3 4 5 6 
#
# 1 0.014681 -0.005466 -0.006901 0.000000 0.000000 0.000000
# 2 -0.005466 0.014681 -0.006901 0.000000 0.000000 0.000000
# 3 -0.006901 -0.006901 0.029283 0.000000 0.000000 0.000000
# 4 0.000000 0.000000 0.000000 0.047078 0.000000 0.000000
# 5 0.000000 0.000000 0.000000 0.000000 0.047078 0.000000
# 6 0.000000 0.000000 0.000000 0.000000 0.000000 0.040294
#
#
# Mechanical properties :
#
#
# Convention : Reuss Voigt Hill
#
# Bulk Modulus (GPa) = 49.73174 60.70703 55.21938
# Shear Modulus (GPa) = 20.97884 22.26270 21.62077
#
# Velocity S-wave (km/s) = 3.52304 3.62924 3.57653
# Velocity P-wave (km/s) = 6.78027 7.31288 7.05161
#
# Compressibility (1/GPa) = 0.02010788
#
# Stress axis : x y z
#
# Youngs Moduli (GPa) = 68.11529 68.11529 34.14900
#
# Poissons Ratio (x) = 0.37233 0.23567
# Poissons Ratio (y) = 0.37233 0.23567
# Poissons Ratio (z) = 0.47008 0.47008
#
# Static dielectric constant tensor:
#      x y z
#    x 3.178630 0.000000 0.000000 
#    y 0.000000 3.178630 0.000000 
#    z 0.000000 0.000000 2.961610 
# 
# 
# High freq. dielectric constant tensor:
#      x y z
#    x 1.641100 0.000000 0.000000 
#    y 0.000000 1.641100 0.000000 
#    z 0.000000 0.000000 1.636710 
# 
# From -- ./inp_files/1917.got.cif
#   From: 2010.03.12/outbox.cif.g09.slc.cpg/sg191_1_cif.got.tgz:1917.got - 2010.04.01 12:09:02.
