data_PCOD8328389
_publ_section_title
;
Structure prediction by ZEFSAII (Michael W. Deem and Ramdas Pophale) SiO2 
 PCOD8328389
Probable space group: P 6/M M M
;
_chemical_formula_sum "Si O2"
_cell_formula_units_Z 96
_cell_length_a 30.864219
_cell_length_b 30.864219
_cell_length_c 7.605198
_cell_angle_alpha 90.000000
_cell_angle_beta 90.000000
_cell_angle_gamma 120.000000
_cell_volume 6274.104397
_symmetry_space_group_name_H-M "P 6/M M M"
_symmetry_group_IT_number 191
_symmetry_cell_setting 'hexagonal'
loop_
_space_group_symop_operation_xyz
x,y,z
x-y,x,z
-y,x-y,z
-x,-y,z
-x+y,-x,z
y,-x+y,z
x-y,-y,-z
-x,-x+y,-z
y,x,-z
-y,-x,-z
-x+y,y,-z
x,x-y,-z
-x,-y,-z
-x+y,-x,-z
y,-x+y,-z
x,y,-z
x-y,x,-z
-y,x-y,-z
-x+y,y,z
x,x-y,z
-y,-x,z
y,x,z
x-y,-y,z
-x,-x+y,z
loop_
_atom_site_type_symbol
_atom_site_label
_atom_site_fract_x
_atom_site_fract_y
_atom_site_fract_z
Si Si1 0.057550 0.276994 0.000000
Si Si2 0.056112 0.846964 0.700354
Si Si3 0.821238 0.539442 0.304921
Si Si4 0.142385 0.387833 0.000000
Si Si5 0.666477 0.236848 0.708904
O O1 0.070356 0.255905 0.826129
O O2 0.091044 0.336165 0.000000
O O3 0.000000 0.262944 0.000000
O O4 0.060381 0.832234 0.500000
O O5 0.094234 0.905767 0.733870
O O6 0.000000 0.835871 0.741737
O O7 0.845750 0.551666 0.500000
O O8 0.768908 0.537816 0.311762
O O9 0.858289 0.581891 0.171281
O O10 0.809132 0.484444 0.238562
O O11 0.189390 0.378780 0.000000
O O12 0.667261 0.240794 0.500000
O O13 0.613351 0.226701 0.785567
O O14 0.710739 0.289262 0.786405
#
# Coordination Sequence:
#
# PCOD8328389 Si02
#       5
#    12  24  24  12  24
#     4  10  20  32  45  63  84 105 135 174 211 248
#     4   9  17  29  45  65  89 115 141 169 200 233
#     4   8  15  26  38  55  79 105 133 164 195 229
#     4  10  18  28  43  59  77 104 132 158 196 245
#     4   8  12  19  33  53  78 108 139 167 194 226
#
# _framework density 15.300990000000001
#
# number of rings (size 3 to 8) (size 9 to 14) (size 15 to 20)
#    0.000    3.250    0.000    2.875    0.000    2.000 
#    0.000    3.125    0.000    0.250    0.000    3.500 
#    0.000    5.000    0.000    6.500    0.000    0.000 
#
# Total GULP energy -1189725.304981 kJ/mol
# GULP energy per Si atom -12392.971927 kJ/mol
# Density = 1.526616 g / cm^3
# Si number density = 15.300990 Si / 1000 Ang^3
#
#
#
# Elastic Constant Matrix: (Units=GPa)
#
#
# Indices 1 2 3 4 5 6 
#
# 1 97.8023 54.8411 44.2086 0.0000 0.0000 0.0000
# 2 54.8411 97.8023 44.2086 0.0000 0.0000 0.0000
# 3 44.2086 44.2086 80.3646 0.0000 0.0000 0.0000
# 4 0.0000 0.0000 0.0000 11.4787 0.0000 0.0000
# 5 0.0000 0.0000 0.0000 0.0000 11.4787 0.0000
# 6 0.0000 0.0000 0.0000 0.0000 0.0000 21.4806
#
#
#
# Elastic Compliance Matrix: (Units=1/GPa)
#
#
# Indices 1 2 3 4 5 6 
#
# 1 0.016446 -0.006831 -0.005289 0.000000 0.000000 0.000000
# 2 -0.006831 0.016446 -0.005289 0.000000 0.000000 0.000000
# 3 -0.005289 -0.005289 0.018262 0.000000 0.000000 0.000000
# 4 0.000000 0.000000 0.000000 0.087118 0.000000 0.000000
# 5 0.000000 0.000000 0.000000 0.000000 0.087118 0.000000
# 6 0.000000 0.000000 0.000000 0.000000 0.000000 0.046554
#
#
# Mechanical properties :
#
#
# Convention : Reuss Voigt Hill
#
# Bulk Modulus (GPa) = 61.21604 62.49843 61.85724
# Shear Modulus (GPa) = 16.01496 17.73496 16.87496
#
# Velocity S-wave (km/s) = 3.23872 3.40821 3.32455
# Velocity P-wave (km/s) = 7.35395 7.51149 7.43314
#
# Compressibility (1/GPa) = 0.01633559
#
# Stress axis : x y z
#
# Youngs Moduli (GPa) = 60.80548 60.80548 54.75717
#
# Poissons Ratio (x) = 0.41536 0.28962
# Poissons Ratio (y) = 0.41536 0.28962
# Poissons Ratio (z) = 0.32161 0.32161
#
# Static dielectric constant tensor:
#      x y z
#    x 2.826250 0.000000 0.000000 
#    y 0.000000 2.826250 0.000000 
#    z 0.000000 0.000000 3.161370 
# 
# 
# High freq. dielectric constant tensor:
#      x y z
#    x 1.555760 0.000000 0.000000 
#    y 0.000000 1.555760 0.000000 
#    z 0.000000 0.000000 1.595150 
# 
# From -- ./inp_files/1516.got.cif
#   From: 2010.03.12/outbox.cif.g09.slc.cpg/sg191_1_cif.got.tgz:1516.got - 2010.04.01 12:09:02.
