data_PCOD8328747
_publ_section_title
;
Structure prediction by ZEFSAII (Michael W. Deem and Ramdas Pophale) SiO2 
 PCOD8328747
Probable space group: P 6/M M M
;
_chemical_formula_sum "Si O2"
_cell_formula_units_Z 108
_cell_length_a 31.321175
_cell_length_b 31.321175
_cell_length_c 7.939303
_cell_angle_alpha 90.000000
_cell_angle_beta 90.000000
_cell_angle_gamma 120.000000
_cell_volume 6745.110996
_symmetry_space_group_name_H-M "P 6/M M M"
_symmetry_group_IT_number 191
_symmetry_cell_setting 'hexagonal'
loop_
_space_group_symop_operation_xyz
x,y,z
x-y,x,z
-y,x-y,z
-x,-y,z
-x+y,-x,z
y,-x+y,z
x-y,-y,-z
-x,-x+y,-z
y,x,-z
-y,-x,-z
-x+y,y,-z
x,x-y,-z
-x,-y,-z
-x+y,-x,-z
y,-x+y,-z
x,y,-z
x-y,x,-z
-y,x-y,-z
-x+y,y,z
x,x-y,z
-y,-x,z
y,x,z
x-y,-y,z
-x,-x+y,z
loop_
_atom_site_type_symbol
_atom_site_label
_atom_site_fract_x
_atom_site_fract_y
_atom_site_fract_z
Si Si1 0.149430 0.392603 0.196874
Si Si2 0.203326 0.148750 0.299384
Si Si3 0.498086 0.698329 0.188661
Si Si4 0.566345 0.232291 0.500000
Si Si5 0.945900 0.701623 0.698108
O O1 0.191074 0.382148 0.280337
O O2 0.159252 0.446779 0.247514
O O3 0.094562 0.352803 0.248812
O O4 0.155173 0.391423 0.000000
O O5 0.203642 0.147493 0.500000
O O6 0.191725 0.095863 0.225268
O O7 0.161834 0.161834 0.237112
O O8 0.257091 0.190638 0.232662
O O9 0.495746 0.747873 0.180586
O O10 0.460625 0.662163 0.330643
O O11 0.485347 0.673952 0.000000
O O12 0.621513 0.243026 0.500000
O O13 0.567597 0.283799 0.500000
O O14 0.947651 0.705056 0.500000
O O15 0.000000 0.714376 0.766116
#
# Coordination Sequence:
#
# PCOD8328747 Si02
#       5
#    24  24  24  12  24
#     4   9  17  28  42  60  82 111 145 175 208 255
#     4   8  13  21  32  47  68  95 128 166 207 250
#     4   8  16  30  44  62  89 117 149 187 221 259
#     4  10  19  30  46  68  93 123 155 185 218 253
#     4   9  17  26  37  57  82 106 136 171 207 256
#
# _framework density 16.011596999999998
#
# number of rings (size 3 to 8) (size 9 to 14) (size 15 to 20)
#    0.000    3.333    0.000    3.444    1.556    2.222 
#    0.000    0.000    0.000    1.556    0.000    1.556 
#    0.000    1.778    0.000    4.889    0.000    0.000 
#
# Total GULP energy -1337957.858943 kJ/mol
# GULP energy per Si atom -12388.498694 kJ/mol
# Density = 1.597515 g / cm^3
# Si number density = 16.011597 Si / 1000 Ang^3
#
#
#
# Elastic Constant Matrix: (Units=GPa)
#
#
# Indices 1 2 3 4 5 6 
#
# 1 62.3399 54.2945 28.7129 0.0000 0.0000 0.0000
# 2 54.2945 62.3399 28.7129 0.0000 0.0000 0.0000
# 3 28.7129 28.7129 45.4317 0.0000 0.0000 0.0000
# 4 0.0000 0.0000 0.0000 10.8842 0.0000 0.0000
# 5 0.0000 0.0000 0.0000 0.0000 10.8842 0.0000
# 6 0.0000 0.0000 0.0000 0.0000 0.0000 4.0227
#
#
#
# Elastic Compliance Matrix: (Units=1/GPa)
#
#
# Indices 1 2 3 4 5 6 
#
# 1 0.068370 -0.055924 -0.007866 0.000000 0.000000 0.000000
# 2 -0.055924 0.068370 -0.007866 0.000000 0.000000 0.000000
# 3 -0.007866 -0.007866 0.031954 0.000000 0.000000 0.000000
# 4 0.000000 0.000000 0.000000 0.091877 0.000000 0.000000
# 5 0.000000 0.000000 0.000000 0.000000 0.091877 0.000000
# 6 0.000000 0.000000 0.000000 0.000000 0.000000 0.248588
#
#
# Mechanical properties :
#
#
# Convention : Reuss Voigt Hill
#
# Bulk Modulus (GPa) = 39.39759 43.72800 41.56280
# Shear Modulus (GPa) = 6.64178 9.05097 7.84638
#
# Velocity S-wave (km/s) = 2.03890 2.38013 2.21609
# Velocity P-wave (km/s) = 5.49562 5.90956 5.70635
#
# Compressibility (1/GPa) = 0.02538226
#
# Stress axis : x y z
#
# Youngs Moduli (GPa) = 14.62620 14.62620 31.29476
#
# Poissons Ratio (x) = 0.81795 0.24618
# Poissons Ratio (y) = 0.81795 0.24618
# Poissons Ratio (z) = 0.11506 0.11506
#
# Static dielectric constant tensor:
#      x y z
#    x 3.354010 0.000000 0.000000 
#    y 0.000000 3.354010 0.000000 
#    z 0.000000 0.000000 3.046170 
# 
# 
# High freq. dielectric constant tensor:
#      x y z
#    x 1.589530 0.000000 0.000000 
#    y 0.000000 1.589530 0.000000 
#    z 0.000000 0.000000 1.607580 
# 
# From -- ./inp_files/1693.got.cif
#   From: 2010.03.12/outbox.cif.g09.slc.cpg/sg191_1_cif.got.tgz:1693.got - 2010.04.01 12:09:02.
