data_PCOD8328634
_publ_section_title
;
Structure prediction by ZEFSAII (Michael W. Deem and Ramdas Pophale) SiO2 
 PCOD8328634
Probable space group: P 6/M M M
;
_chemical_formula_sum "Si O2"
_cell_formula_units_Z 108
_cell_length_a 18.058452
_cell_length_b 18.058452
_cell_length_c 22.212829
_cell_angle_alpha 90.000000
_cell_angle_beta 90.000000
_cell_angle_gamma 120.000000
_cell_volume 6273.292583
_symmetry_space_group_name_H-M "P 6/M M M"
_symmetry_group_IT_number 191
_symmetry_cell_setting 'hexagonal'
loop_
_space_group_symop_operation_xyz
x,y,z
x-y,x,z
-y,x-y,z
-x,-y,z
-x+y,-x,z
y,-x+y,z
x-y,-y,-z
-x,-x+y,-z
y,x,-z
-y,-x,-z
-x+y,y,-z
x,x-y,-z
-x,-y,-z
-x+y,-x,-z
y,-x+y,-z
x,y,-z
x-y,x,-z
-y,x-y,-z
-x+y,y,z
x,x-y,z
-y,-x,z
y,x,z
x-y,-y,z
-x,-x+y,z
loop_
_atom_site_type_symbol
_atom_site_label
_atom_site_fract_x
_atom_site_fract_y
_atom_site_fract_z
Si Si1 0.362563 0.266573 0.000000
Si Si2 0.096988 0.193975 0.571665
Si Si3 0.805628 0.611256 0.571300
Si Si4 0.898541 0.533861 0.642393
Si Si5 0.459434 0.365606 0.774490
Si Si6 0.166938 0.669277 0.100819
O O1 0.418827 0.312820 0.941339
O O2 0.281043 0.281043 0.000000
O O3 0.330225 0.165113 0.000000
O O4 0.145735 0.145735 0.596596
O O5 0.096229 0.192458 0.500000
O O6 0.145634 0.291267 0.595504
O O7 0.804874 0.609748 0.500000
O O8 0.853816 0.562287 0.593238
O O9 0.869528 0.434764 0.630804
O O10 0.869449 0.546884 0.709344
O O11 0.000000 0.591667 0.636180
O O12 0.542148 0.457853 0.771998
O O13 0.377373 0.377373 0.785081
O O14 0.465871 0.312298 0.829964
O O15 0.145612 0.572806 0.090102
O O16 0.265669 0.734332 0.084278
#
# Coordination Sequence:
#
# PCOD8328634 Si02
#       6
#    12  12  12  24  24  24
#     4  10  21  35  51  74 103 135 170 212 259 305
#     4   9  17  30  49  74 102 128 153 186 237 303
#     4  11  22  33  50  75 100 125 162 209 252 309
#     4   9  19  36  54  71  95 130 169 209 256 302
#     4   8  15  29  48  67  88 122 170 216 251 288
#     4  10  19  29  45  71 106 144 178 208 240 279
#
# _framework density 17.21584
#
# number of rings (size 3 to 8) (size 9 to 14) (size 15 to 20)
#    0.000    2.667    0.000    3.333    1.556    4.000 
#    0.667    2.222    0.000    0.111    0.000    0.000 
#    0.000    0.000    0.000    0.000    0.000    0.000 
#
# Total GULP energy -1338648.995675 kJ/mol
# GULP energy per Si atom -12394.898108 kJ/mol
# Density = 1.717666 g / cm^3
# Si number density = 17.215840 Si / 1000 Ang^3
#
#
#
# Elastic Constant Matrix: (Units=GPa)
#
#
# Indices 1 2 3 4 5 6 
#
# 1 90.9079 51.5657 37.2120 0.0000 0.0000 0.0000
# 2 51.5657 90.9079 37.2120 0.0000 0.0000 0.0000
# 3 37.2120 37.2120 89.2529 0.0000 0.0000 0.0000
# 4 0.0000 0.0000 0.0000 20.5227 0.0000 0.0000
# 5 0.0000 0.0000 0.0000 0.0000 20.5227 0.0000
# 6 0.0000 0.0000 0.0000 0.0000 0.0000 19.6711
#
#
#
# Elastic Compliance Matrix: (Units=1/GPa)
#
#
# Indices 1 2 3 4 5 6 
#
# 1 0.017196 -0.008222 -0.003741 0.000000 0.000000 0.000000
# 2 -0.008222 0.017196 -0.003741 0.000000 0.000000 0.000000
# 3 -0.003741 -0.003741 0.014324 0.000000 0.000000 0.000000
# 4 0.000000 0.000000 0.000000 0.048727 0.000000 0.000000
# 5 0.000000 0.000000 0.000000 0.000000 0.048727 0.000000
# 6 0.000000 0.000000 0.000000 0.000000 0.000000 0.050836
#
#
# Mechanical properties :
#
#
# Convention : Reuss Voigt Hill
#
# Bulk Modulus (GPa) = 57.78561 58.11646 57.95104
# Shear Modulus (GPa) = 21.35092 21.81521 21.58306
#
# Velocity S-wave (km/s) = 3.52545 3.56358 3.54457
# Velocity P-wave (km/s) = 7.08590 7.12481 7.10538
#
# Compressibility (1/GPa) = 0.01730535
#
# Stress axis : x y z
#
# Youngs Moduli (GPa) = 58.15452 58.15452 69.81439
#
# Poissons Ratio (x) = 0.47817 0.26119
# Poissons Ratio (y) = 0.47817 0.26119
# Poissons Ratio (z) = 0.21756 0.21756
#
# Static dielectric constant tensor:
#      x y z
#    x 3.072000 0.000000 0.000000 
#    y 0.000000 3.072000 0.000000 
#    z 0.000000 0.000000 3.403640 
# 
# 
# High freq. dielectric constant tensor:
#      x y z
#    x 1.647250 0.000000 0.000000 
#    y 0.000000 1.647250 0.000000 
#    z 0.000000 0.000000 1.664330 
# 
# From -- ./inp_files/8461.got.cif
#   From: 2010.03.12/outbox.cif.g09.slc.cpg/sg191_5_cif.got.tgz:8461.got - 2010.04.01 12:09:02.
