data_PCOD8328499
_publ_section_title
;
Structure prediction by ZEFSAII (Michael W. Deem and Ramdas Pophale) SiO2 
 PCOD8328499
Probable space group: P 6/M M M
;
_chemical_formula_sum "Si O2"
_cell_formula_units_Z 192
_cell_length_a 23.162306
_cell_length_b 23.162306
_cell_length_c 25.051323
_cell_angle_alpha 90.000000
_cell_angle_beta 90.000000
_cell_angle_gamma 120.000000
_cell_volume 11639.247090
_symmetry_space_group_name_H-M "P 6/M M M"
_symmetry_group_IT_number 191
_symmetry_cell_setting 'hexagonal'
loop_
_space_group_symop_operation_xyz
x,y,z
x-y,x,z
-y,x-y,z
-x,-y,z
-x+y,-x,z
y,-x+y,z
x-y,-y,-z
-x,-x+y,-z
y,x,-z
-y,-x,-z
-x+y,y,-z
x,x-y,-z
-x,-y,-z
-x+y,-x,-z
y,-x+y,-z
x,y,-z
x-y,x,-z
-y,x-y,-z
-x+y,y,z
x,x-y,z
-y,-x,z
y,x,z
x-y,-y,z
-x,-x+y,z
loop_
_atom_site_type_symbol
_atom_site_label
_atom_site_fract_x
_atom_site_fract_y
_atom_site_fract_z
Si Si1 0.854581 0.282497 0.147322
Si Si2 0.802521 0.466890 0.363115
Si Si3 0.798534 0.073659 0.603469
Si Si4 0.467108 0.666300 0.938774
Si Si5 0.166997 0.464502 0.260256
Si Si6 0.683011 0.756132 0.717585
Si Si7 0.723024 0.140031 0.440188
Si Si8 0.075259 0.795725 0.164972
O O1 0.785458 0.214543 0.152792
O O2 0.854077 0.325177 0.096858
O O3 0.865925 0.325924 0.201873
O O4 0.911492 0.262085 0.140981
O O5 0.731481 0.462962 0.364565
O O6 0.793306 0.396653 0.381271
O O7 0.833785 0.483650 0.302843
O O8 0.854243 0.523253 0.403505
O O9 0.870629 0.129372 0.580356
O O10 0.801877 0.078929 0.667639
O O11 0.738822 0.084403 0.582361
O O12 0.782216 0.000000 0.585106
O O13 0.452237 0.726119 0.928672
O O14 0.401364 0.598637 0.922149
O O15 0.486573 0.664527 0.000000
O O16 0.243446 0.486891 0.250412
O O17 0.129455 0.393034 0.288900
O O18 0.689970 0.689970 0.718895
O O19 0.714355 0.798053 0.771312
O O20 0.693887 0.120284 0.500000
O O21 0.790227 0.209774 0.440043
O O22 0.130391 0.869610 0.143258
O O23 0.000000 0.776848 0.148260
#
# Coordination Sequence:
#
# PCOD8328499 Si02
#       8
#    24  24  24  24  24  24  24  24
#     4   8  15  26  41  62  87 117 154 193 228 262
#     4  10  19  30  45  64  87 114 145 184 231 281
#     4  10  18  29  48  72  95 117 145 180 216 255
#     4   9  16  26  41  62  89 121 156 193 232 273
#     4   9  15  26  42  59  85 116 147 183 225 268
#     4   9  15  24  43  68  91 114 143 180 220 260
#     4   9  18  32  48  64  83 111 147 185 223 262
#     4   9  16  26  43  67  93 118 147 184 225 266
#
# _framework density 16.495913000000002
#
# number of rings (size 3 to 8) (size 9 to 14) (size 15 to 20)
#    0.000    2.875    1.250    2.125    0.000    1.500 
#    0.000    0.000    0.000    4.750    0.000    5.250 
#    0.000    3.000    0.000    3.125    0.000    0.000 
#
# Total GULP energy -2379011.028587 kJ/mol
# GULP energy per Si atom -12390.682441 kJ/mol
# Density = 1.645837 g / cm^3
# Si number density = 16.495913 Si / 1000 Ang^3
#
#
#
# Elastic Constant Matrix: (Units=GPa)
#
#
# Indices 1 2 3 4 5 6 
#
# 1 78.4549 37.5920 34.0233 0.0000 0.0000 0.0000
# 2 37.5920 78.4549 34.0233 0.0000 0.0000 0.0000
# 3 34.0233 34.0233 71.7684 0.0000 0.0000 0.0000
# 4 0.0000 0.0000 0.0000 13.5331 0.0000 0.0000
# 5 0.0000 0.0000 0.0000 0.0000 13.5331 0.0000
# 6 0.0000 0.0000 0.0000 0.0000 0.0000 20.4315
#
#
#
# Elastic Compliance Matrix: (Units=1/GPa)
#
#
# Indices 1 2 3 4 5 6 
#
# 1 0.018203 -0.006269 -0.005658 0.000000 0.000000 0.000000
# 2 -0.006269 0.018203 -0.005658 0.000000 0.000000 0.000000
# 3 -0.005658 -0.005658 0.019298 0.000000 0.000000 0.000000
# 4 0.000000 0.000000 0.000000 0.073893 0.000000 0.000000
# 5 0.000000 0.000000 0.000000 0.000000 0.073893 0.000000
# 6 0.000000 0.000000 0.000000 0.000000 0.000000 0.048944
#
#
# Mechanical properties :
#
#
# Convention : Reuss Voigt Hill
#
# Bulk Modulus (GPa) = 48.69466 48.88391 48.78928
# Shear Modulus (GPa) = 16.98084 17.70218 17.34151
#
# Velocity S-wave (km/s) = 3.21190 3.27941 3.24583
# Velocity P-wave (km/s) = 6.58319 6.63609 6.60969
#
# Compressibility (1/GPa) = 0.02053613
#
# Stress axis : x y z
#
# Youngs Moduli (GPa) = 54.93457 54.93457 51.81814
#
# Poissons Ratio (x) = 0.34436 0.29319
# Poissons Ratio (y) = 0.34436 0.29319
# Poissons Ratio (z) = 0.31082 0.31082
#
# Static dielectric constant tensor:
#      x y z
#    x 2.957700 0.000000 0.000000 
#    y 0.000000 2.957700 0.000000 
#    z 0.000000 0.000000 3.194110 
# 
# 
# High freq. dielectric constant tensor:
#      x y z
#    x 1.606150 0.000000 0.000000 
#    y 0.000000 1.606150 0.000000 
#    z 0.000000 0.000000 1.629380 
# 
# From -- ./inp_files/10163.got.cif
#   From: 2010.03.12/outbox.cif.g09.slc.cpg/sg191_6_cif.got.tgz:10163.got - 2010.04.01 12:09:02.
