data_PCOD8328772
_publ_section_title
;
Structure prediction by ZEFSAII (Michael W. Deem and Ramdas Pophale) SiO2 
 PCOD8328772
Probable space group: P 6/M M M
;
_chemical_formula_sum "Si O2"
_cell_formula_units_Z 156
_cell_length_a 20.978022
_cell_length_b 20.978022
_cell_length_c 29.526955
_cell_angle_alpha 90.000000
_cell_angle_beta 90.000000
_cell_angle_gamma 120.000000
_cell_volume 11253.260358
_symmetry_space_group_name_H-M "P 6/M M M"
_symmetry_group_IT_number 191
_symmetry_cell_setting 'hexagonal'
loop_
_space_group_symop_operation_xyz
x,y,z
x-y,x,z
-y,x-y,z
-x,-y,z
-x+y,-x,z
y,-x+y,z
x-y,-y,-z
-x,-x+y,-z
y,x,-z
-y,-x,-z
-x+y,y,-z
x,x-y,-z
-x,-y,-z
-x+y,-x,-z
y,-x+y,-z
x,y,-z
x-y,x,-z
-y,x-y,-z
-x+y,y,z
x,x-y,z
-y,-x,z
y,x,z
x-y,-y,z
-x,-x+y,z
loop_
_atom_site_type_symbol
_atom_site_label
_atom_site_fract_x
_atom_site_fract_y
_atom_site_fract_z
Si Si1 0.467586 0.383329 0.689122
Si Si2 0.332678 0.814288 0.127009
Si Si3 0.153470 0.698648 0.600388
Si Si4 0.333306 0.814130 0.228778
Si Si5 0.914135 0.457067 0.446240
Si Si6 0.534709 0.616680 0.049845
Si Si7 0.696293 0.777941 0.551616
O O1 0.543879 0.456122 0.677406
O O2 0.401331 0.401331 0.688443
O O3 0.455549 0.321760 0.652722
O O4 0.469569 0.351560 0.738300
O O5 0.404319 0.808638 0.118706
O O6 0.265509 0.734492 0.118221
O O7 0.330926 0.841562 0.177963
O O8 0.329053 0.869124 0.090127
O O9 0.240589 0.759412 0.595307
O O10 0.131177 0.626344 0.571064
O O11 0.103659 0.731522 0.583776
O O12 0.395188 0.790375 0.232504
O O13 0.256191 0.743810 0.242529
O O14 0.913622 0.456811 0.500000
O O15 0.000000 0.500000 0.428802
O O16 0.460195 0.539806 0.054171
O O17 0.603367 0.603367 0.055653
O O18 0.538392 0.651365 0.000000
O O19 0.668836 0.755592 0.500000
O O20 0.729701 0.864851 0.559342
O O21 0.760544 0.760544 0.563805
#
# Coordination Sequence:
#
# PCOD8328772 Si02
#       7
#    24  24  24  24  12  24  24
#     4  10  19  31  46  61  79 102 133 171 206 244
#     4   9  16  25  37  53  74  97 124 157 197 244
#     4  11  21  33  48  66  87 111 140 173 211 250
#     4   9  17  28  41  57  76 101 128 159 199 245
#     4  11  22  36  54  70  88 118 150 178 213 257
#     4   8  14  24  36  49  67  93 123 156 194 235
#     4   9  17  29  46  66  86 107 132 162 194 232
#
# _framework density 13.86265
#
# number of rings (size 3 to 8) (size 9 to 14) (size 15 to 20)
#    0.000    2.538    0.769    3.077    0.000    4.308 
#    0.462    3.077    0.000    1.077    0.000    1.077 
#    0.000    0.000    0.000    0.000    0.000    0.000 
#
# Total GULP energy -1933725.304521 kJ/mol
# GULP energy per Si atom -12395.675029 kJ/mol
# Density = 1.383110 g / cm^3
# Si number density = 13.862650 Si / 1000 Ang^3
#
#
#
# Elastic Constant Matrix: (Units=GPa)
#
#
# Indices 1 2 3 4 5 6 
#
# 1 68.6457 40.7625 41.0204 0.0000 0.0000 0.0000
# 2 40.7625 68.6457 41.0204 0.0000 0.0000 0.0000
# 3 41.0204 41.0204 93.9663 0.0000 0.0000 0.0000
# 4 0.0000 0.0000 0.0000 20.2289 0.0000 0.0000
# 5 0.0000 0.0000 0.0000 0.0000 20.2289 0.0000
# 6 0.0000 0.0000 0.0000 0.0000 0.0000 13.9416
#
#
#
# Elastic Compliance Matrix: (Units=1/GPa)
#
#
# Indices 1 2 3 4 5 6 
#
# 1 0.024726 -0.011138 -0.005932 0.000000 0.000000 0.000000
# 2 -0.011138 0.024726 -0.005932 0.000000 0.000000 0.000000
# 3 -0.005932 -0.005932 0.015821 0.000000 0.000000 0.000000
# 4 0.000000 0.000000 0.000000 0.049434 0.000000 0.000000
# 5 0.000000 0.000000 0.000000 0.000000 0.049434 0.000000
# 6 0.000000 0.000000 0.000000 0.000000 0.000000 0.071728
#
#
# Mechanical properties :
#
#
# Convention : Reuss Voigt Hill
#
# Bulk Modulus (GPa) = 51.89389 52.98493 52.43941
# Shear Modulus (GPa) = 17.34328 18.11015 17.72672
#
# Velocity S-wave (km/s) = 3.54090 3.61834 3.57983
# Velocity P-wave (km/s) = 7.36430 7.46732 7.41599
#
# Compressibility (1/GPa) = 0.01927009
#
# Stress axis : x y z
#
# Youngs Moduli (GPa) = 40.44321 40.44321 63.20677
#
# Poissons Ratio (x) = 0.45045 0.37493
# Poissons Ratio (y) = 0.45045 0.37493
# Poissons Ratio (z) = 0.23990 0.23990
#
# Static dielectric constant tensor:
#      x y z
#    x 2.686270 0.000000 0.000000 
#    y 0.000000 2.686270 0.000000 
#    z 0.000000 0.000000 2.947390 
# 
# 
# High freq. dielectric constant tensor:
#      x y z
#    x 1.506010 0.000000 0.000000 
#    y 0.000000 1.506010 0.000000 
#    z 0.000000 0.000000 1.540830 
# 
# From -- ./inp_files/10805.got.cif
#   From: 2010.03.12/outbox.cif.g09.slc.cpg/sg191_6_cif.got.tgz:10805.got - 2010.04.01 12:09:02.
