data_PCOD8328759
_publ_section_title
;
Structure prediction by ZEFSAII (Michael W. Deem and Ramdas Pophale) SiO2 
 PCOD8328759
Probable space group: P 6/M M M
;
_chemical_formula_sum "Si O2"
_cell_formula_units_Z 120
_cell_length_a 17.999628
_cell_length_b 17.999628
_cell_length_c 24.124440
_cell_angle_alpha 90.000000
_cell_angle_beta 90.000000
_cell_angle_gamma 120.000000
_cell_volume 6768.850649
_symmetry_space_group_name_H-M "P 6/M M M"
_symmetry_group_IT_number 191
_symmetry_cell_setting 'hexagonal'
loop_
_space_group_symop_operation_xyz
x,y,z
x-y,x,z
-y,x-y,z
-x,-y,z
-x+y,-x,z
y,-x+y,z
x-y,-y,-z
-x,-x+y,-z
y,x,-z
-y,-x,-z
-x+y,y,-z
x,x-y,-z
-x,-y,-z
-x+y,-x,-z
y,-x+y,-z
x,y,-z
x-y,x,-z
-y,x-y,-z
-x+y,y,z
x,x-y,z
-y,-x,z
y,x,z
x-y,-y,z
-x,-x+y,z
loop_
_atom_site_type_symbol
_atom_site_label
_atom_site_fract_x
_atom_site_fract_y
_atom_site_fract_z
Si Si1 0.367731 0.902167 0.737578
Si Si2 0.099580 0.361806 0.159499
Si Si3 0.831868 0.000000 0.434001
Si Si4 0.331751 0.836962 0.618642
Si Si5 0.336855 0.000000 0.565688
Si Si6 0.898464 0.366872 0.938482
O O1 0.442758 0.885516 0.760085
O O2 0.300562 0.881066 0.786252
O O3 0.321753 0.843973 0.684500
O O4 0.408213 0.000000 0.717721
O O5 0.158695 0.317389 0.162117
O O6 0.132715 0.425474 0.106947
O O7 0.000000 0.288285 0.155081
O O8 0.831618 0.915809 0.410830
O O9 0.747667 0.000000 0.411720
O O10 0.833328 0.000000 0.500000
O O11 0.417183 0.834365 0.604353
O O12 0.250213 0.749788 0.597430
O O13 0.335564 0.915741 0.586531
O O14 0.337770 0.000000 0.500000
O O15 0.860780 0.430390 0.925940
O O16 0.000000 0.422632 0.935429
O O17 0.869135 0.326221 0.000000
#
# Coordination Sequence:
#
# PCOD8328759 Si02
#       6
#    24  24  12  24  12  24
#     4   9  17  32  54  78 101 127 160 201 252 307
#     4  10  19  30  47  72 100 132 172 218 260 300
#     4   9  17  31  53  81 109 135 165 204 249 295
#     4  11  22  37  56  79 106 136 171 213 259 307
#     4  11  23  39  57  77 103 139 176 209 249 303
#     4   8  14  26  45  69  96 126 160 199 247 304
#
# _framework density 17.728268
#
# number of rings (size 3 to 8) (size 9 to 14) (size 15 to 20)
#    0.000    2.400    1.000    3.000    0.000    5.200 
#    0.000    0.000    0.000    5.800    0.000    0.000 
#    0.000    0.000    0.000    5.000    0.000    0.000 
#
# Total GULP energy -1487626.954868 kJ/mol
# GULP energy per Si atom -12396.891291 kJ/mol
# Density = 1.768792 g / cm^3
# Si number density = 17.728268 Si / 1000 Ang^3
#
#
#
# Elastic Constant Matrix: (Units=GPa)
#
#
# Indices 1 2 3 4 5 6 
#
# 1 127.1155 71.3498 40.0581 0.0000 0.0000 0.0000
# 2 71.3498 127.1155 40.0581 0.0000 0.0000 0.0000
# 3 40.0581 40.0581 62.6912 0.0000 0.0000 0.0000
# 4 0.0000 0.0000 0.0000 14.2440 0.0000 0.0000
# 5 0.0000 0.0000 0.0000 0.0000 14.2440 0.0000
# 6 0.0000 0.0000 0.0000 0.0000 0.0000 27.8828
#
#
#
# Elastic Compliance Matrix: (Units=1/GPa)
#
#
# Indices 1 2 3 4 5 6 
#
# 1 0.012361 -0.005571 -0.004339 0.000000 0.000000 0.000000
# 2 -0.005571 0.012361 -0.004339 0.000000 0.000000 0.000000
# 3 -0.004339 -0.004339 0.021496 0.000000 0.000000 0.000000
# 4 0.000000 0.000000 0.000000 0.070205 0.000000 0.000000
# 5 0.000000 0.000000 0.000000 0.000000 0.070205 0.000000
# 6 0.000000 0.000000 0.000000 0.000000 0.000000 0.035864
#
#
# Mechanical properties :
#
#
# Convention : Reuss Voigt Hill
#
# Bulk Modulus (GPa) = 56.42949 68.87271 62.65110
# Shear Modulus (GPa) = 19.46306 22.30456 20.88381
#
# Velocity S-wave (km/s) = 3.31698 3.55087 3.43592
# Velocity P-wave (km/s) = 6.82416 7.46626 7.15242
#
# Compressibility (1/GPa) = 0.01772123
#
# Stress axis : x y z
#
# Youngs Moduli (GPa) = 80.89867 80.89867 46.52058
#
# Poissons Ratio (x) = 0.45069 0.20184
# Poissons Ratio (y) = 0.45069 0.20184
# Poissons Ratio (z) = 0.35100 0.35100
#
# Static dielectric constant tensor:
#      x y z
#    x 3.207040 0.000000 0.000000 
#    y 0.000000 3.207040 0.000000 
#    z 0.000000 0.000000 3.314590 
# 
# 
# High freq. dielectric constant tensor:
#      x y z
#    x 1.674900 0.000000 0.000000 
#    y 0.000000 1.674900 0.000000 
#    z 0.000000 0.000000 1.680840 
# 
# From -- ./inp_files/9539.got.cif
#   From: 2010.03.12/outbox.cif.g09.slc.cpg/sg191_5_cif.got.tgz:9539.got - 2010.04.01 12:09:02.
