data_PCOD8328595
_publ_section_title
;
Structure prediction by ZEFSAII (Michael W. Deem and Ramdas Pophale) SiO2 
 PCOD8328595
Probable space group: P 6/M M M
;
_chemical_formula_sum "Si O2"
_cell_formula_units_Z 72
_cell_length_a 18.624689
_cell_length_b 18.624689
_cell_length_c 15.104224
_cell_angle_alpha 90.000000
_cell_angle_beta 90.000000
_cell_angle_gamma 120.000000
_cell_volume 4537.400436
_symmetry_space_group_name_H-M "P 6/M M M"
_symmetry_group_IT_number 191
_symmetry_cell_setting 'hexagonal'
loop_
_space_group_symop_operation_xyz
x,y,z
x-y,x,z
-y,x-y,z
-x,-y,z
-x+y,-x,z
y,-x+y,z
x-y,-y,-z
-x,-x+y,-z
y,x,-z
-y,-x,-z
-x+y,y,-z
x,x-y,-z
-x,-y,-z
-x+y,-x,-z
y,-x+y,-z
x,y,-z
x-y,x,-z
-y,x-y,-z
-x+y,y,z
x,x-y,z
-y,-x,z
y,x,z
x-y,-y,z
-x,-x+y,z
loop_
_atom_site_type_symbol
_atom_site_label
_atom_site_fract_x
_atom_site_fract_y
_atom_site_fract_z
Si Si1 0.830066 0.331076 0.223439
Si Si2 0.745227 0.092992 0.102585
Si Si3 0.092807 0.461287 0.403592
O O1 0.846933 0.423467 0.209990
O O2 0.734222 0.265779 0.203455
O O3 0.889399 0.318584 0.156336
O O4 0.849294 0.313696 0.323375
O O5 0.840633 0.159368 0.128512
O O6 0.726616 0.000000 0.124205
O O7 0.729211 0.101513 0.000000
O O8 0.126351 0.451112 0.500000
O O9 0.090221 0.545111 0.403951
O O10 0.000000 0.384864 0.388393
#
# Coordination Sequence:
#
# PCOD8328595 Si02
#       3
#    24  24  24
#     4  10  19  29  41  59  85 117 152 187 219 249
#     4   9  18  32  49  68  88 110 137 170 210 256
#     4   8  14  25  40  56  74 100 138 183 226 263
#
# _framework density 15.868116000000001
#
# number of rings (size 3 to 8) (size 9 to 14) (size 15 to 20)
#    0.000    3.000    0.000    2.333    0.000    3.333 
#    0.000    1.667    0.000    4.333    0.000    2.333 
#    0.000    0.000    0.000    0.000    0.000    0.000 
#
# Total GULP energy -892220.590457 kJ/mol
# GULP energy per Si atom -12391.952645 kJ/mol
# Density = 1.583200 g / cm^3
# Si number density = 15.868116 Si / 1000 Ang^3
#
#
#
# Elastic Constant Matrix: (Units=GPa)
#
#
# Indices 1 2 3 4 5 6 
#
# 1 75.7692 50.1313 41.2426 0.0000 0.0000 0.0000
# 2 50.1313 75.7692 41.2426 0.0000 0.0000 0.0000
# 3 41.2426 41.2426 76.3376 0.0000 0.0000 0.0000
# 4 0.0000 0.0000 0.0000 20.8758 0.0000 0.0000
# 5 0.0000 0.0000 0.0000 0.0000 20.8758 0.0000
# 6 0.0000 0.0000 0.0000 0.0000 0.0000 12.8189
#
#
#
# Elastic Compliance Matrix: (Units=1/GPa)
#
#
# Indices 1 2 3 4 5 6 
#
# 1 0.025650 -0.013355 -0.006642 0.000000 0.000000 0.000000
# 2 -0.013355 0.025650 -0.006642 0.000000 0.000000 0.000000
# 3 -0.006642 -0.006642 0.020277 0.000000 0.000000 0.000000
# 4 0.000000 0.000000 0.000000 0.047902 0.000000 0.000000
# 5 0.000000 0.000000 0.000000 0.000000 0.047902 0.000000
# 6 0.000000 0.000000 0.000000 0.000000 0.000000 0.078010
#
#
# Mechanical properties :
#
#
# Convention : Reuss Voigt Hill
#
# Bulk Modulus (GPa) = 54.65447 54.78989 54.72218
# Shear Modulus (GPa) = 16.40583 17.26471 16.83527
#
# Velocity S-wave (km/s) = 3.21890 3.30208 3.26076
# Velocity P-wave (km/s) = 6.95218 7.01011 6.98120
#
# Compressibility (1/GPa) = 0.01829676
#
# Stress axis : x y z
#
# Youngs Moduli (GPa) = 38.98678 38.98678 49.31702
#
# Poissons Ratio (x) = 0.52067 0.32758
# Poissons Ratio (y) = 0.52067 0.32758
# Poissons Ratio (z) = 0.25896 0.25896
#
# Static dielectric constant tensor:
#      x y z
#    x 2.867870 0.000000 0.000000 
#    y 0.000000 2.867870 0.000000 
#    z 0.000000 0.000000 3.419710 
# 
# 
# High freq. dielectric constant tensor:
#      x y z
#    x 1.583780 0.000000 0.000000 
#    y 0.000000 1.583780 0.000000 
#    z 0.000000 0.000000 1.624030 
# 
# From -- ./inp_files/3807.got.cif
#   From: 2010.03.12/outbox.cif.g09.slc.cpg/sg191_2_cif.got.tgz:3807.got - 2010.04.01 12:09:02.
