data_PCOD8328683
_publ_section_title
;
Structure prediction by ZEFSAII (Michael W. Deem and Ramdas Pophale) SiO2 
 PCOD8328683
Probable space group: P 6/M M M
;
_chemical_formula_sum "Si O2"
_cell_formula_units_Z 168
_cell_length_a 18.049872
_cell_length_b 18.049872
_cell_length_c 34.116477
_cell_angle_alpha 90.000000
_cell_angle_beta 90.000000
_cell_angle_gamma 120.000000
_cell_volume 9625.938054
_symmetry_space_group_name_H-M "P 6/M M M"
_symmetry_group_IT_number 191
_symmetry_cell_setting 'hexagonal'
loop_
_space_group_symop_operation_xyz
x,y,z
x-y,x,z
-y,x-y,z
-x,-y,z
-x+y,-x,z
y,-x+y,z
x-y,-y,-z
-x,-x+y,-z
y,x,-z
-y,-x,-z
-x+y,y,-z
x,x-y,-z
-x,-y,-z
-x+y,-x,-z
y,-x+y,-z
x,y,-z
x-y,x,-z
-y,x-y,-z
-x+y,y,z
x,x-y,z
-y,-x,z
y,x,z
x-y,-y,z
-x,-x+y,z
loop_
_atom_site_type_symbol
_atom_site_label
_atom_site_fract_x
_atom_site_fract_y
_atom_site_fract_z
Si Si1 0.000000 0.168365 0.953340
Si Si2 0.333462 0.835844 0.824407
Si Si3 0.000000 0.337081 0.046423
Si Si4 0.905696 0.259377 0.544375
Si Si5 0.839179 0.505699 0.915059
Si Si6 0.503440 0.834964 0.394770
Si Si7 0.366462 0.467006 0.688720
Si Si8 0.902557 0.264163 0.239793
O O1 0.084293 0.168586 0.937192
O O2 0.000000 0.252647 0.937615
O O3 0.000000 0.167193 0.000000
O O4 0.424920 0.849840 0.811097
O O5 0.263267 0.736734 0.817674
O O6 0.335171 0.861560 0.869437
O O7 0.311405 0.897094 0.799125
O O8 0.084270 0.420996 0.060540
O O9 0.000000 0.337259 0.000000
O O10 0.891780 0.281348 0.500000
O O11 0.838978 0.161023 0.554890
O O12 0.895059 0.322657 0.573476
O O13 0.000000 0.272428 0.549704
O O14 0.751518 0.503035 0.926314
O O15 0.828855 0.414428 0.926063
O O16 0.426330 0.852660 0.399183
O O17 0.472593 0.736297 0.403542
O O18 0.542374 0.857599 0.351140
O O19 0.433222 0.566779 0.698167
O O20 0.417117 0.417117 0.682737
O O21 0.299318 0.426748 0.723827
O O22 0.838234 0.161767 0.237089
O O23 0.000000 0.283917 0.244291
#
# Coordination Sequence:
#
# PCOD8328683 Si02
#       8
#    12  24  12  24  24  24  24  24
#     4   9  17  31  53  79 105 133 165 203 249 301
#     4   9  18  32  52  77 104 132 162 196 236 282
#     4  11  23  37  53  77 107 137 169 211 257 299
#     4   9  18  32  49  68  89 116 153 198 247 297
#     4  10  21  37  56  77 103 136 174 212 252 298
#     4  10  19  30  44  64  94 131 169 205 240 279
#     4   9  17  29  46  70  98 127 159 197 242 292
#     4  10  20  33  50  73 100 130 164 202 244 290
#
# _framework density 17.452845
#
# number of rings (size 3 to 8) (size 9 to 14) (size 15 to 20)
#    0.000    2.429    0.000    2.429    1.000    4.857 
#    0.000    0.714    0.000    6.571    0.000    1.000 
#    0.000    0.000    0.000    4.571    0.000    3.143 
#
# Total GULP energy -2083210.526056 kJ/mol
# GULP energy per Si atom -12400.062655 kJ/mol
# Density = 1.741312 g / cm^3
# Si number density = 17.452845 Si / 1000 Ang^3
#
#
#
# Elastic Constant Matrix: (Units=GPa)
#
#
# Indices 1 2 3 4 5 6 
#
# 1 105.2575 60.5011 45.5566 0.0000 0.0000 0.0000
# 2 60.5011 105.2575 45.5566 0.0000 0.0000 0.0000
# 3 45.5566 45.5566 70.4912 0.0000 0.0000 0.0000
# 4 0.0000 0.0000 0.0000 24.0264 0.0000 0.0000
# 5 0.0000 0.0000 0.0000 0.0000 24.0264 0.0000
# 6 0.0000 0.0000 0.0000 0.0000 0.0000 22.3782
#
#
#
# Elastic Compliance Matrix: (Units=1/GPa)
#
#
# Indices 1 2 3 4 5 6 
#
# 1 0.015850 -0.006493 -0.006047 0.000000 0.000000 0.000000
# 2 -0.006493 0.015850 -0.006047 0.000000 0.000000 0.000000
# 3 -0.006047 -0.006047 0.022002 0.000000 0.000000 0.000000
# 4 0.000000 0.000000 0.000000 0.041621 0.000000 0.000000
# 5 0.000000 0.000000 0.000000 0.000000 0.041621 0.000000
# 6 0.000000 0.000000 0.000000 0.000000 0.000000 0.044686
#
#
# Mechanical properties :
#
#
# Convention : Reuss Voigt Hill
#
# Bulk Modulus (GPa) = 60.50468 64.91499 62.70983
# Shear Modulus (GPa) = 22.29018 22.71233 22.50125
#
# Velocity S-wave (km/s) = 3.57762 3.61134 3.59452
# Velocity P-wave (km/s) = 7.19782 7.39353 7.29633
#
# Compressibility (1/GPa) = 0.01652765
#
# Stress axis : x y z
#
# Youngs Moduli (GPa) = 63.09166 63.09166 45.44986
#
# Poissons Ratio (x) = 0.40967 0.27484
# Poissons Ratio (y) = 0.40967 0.27484
# Poissons Ratio (z) = 0.38152 0.38152
#
# Static dielectric constant tensor:
#      x y z
#    x 3.199360 0.000000 0.000000 
#    y 0.000000 3.199360 0.000000 
#    z 0.000000 0.000000 3.298930 
# 
# 
# High freq. dielectric constant tensor:
#      x y z
#    x 1.667870 0.000000 0.000000 
#    y 0.000000 1.667870 0.000000 
#    z 0.000000 0.000000 1.673570 
# 
# From -- ./inp_files/10785.got.cif
#   From: 2010.03.12/outbox.cif.g09.slc.cpg/sg191_6_cif.got.tgz:10785.got - 2010.04.01 12:09:02.
