data_PCOD8328590
_publ_section_title
;
Structure prediction by ZEFSAII (Michael W. Deem and Ramdas Pophale) SiO2 
 PCOD8328590
Probable space group: P 6/M M M
;
_chemical_formula_sum "Si O2"
_cell_formula_units_Z 180
_cell_length_a 21.172926
_cell_length_b 21.172926
_cell_length_c 31.302795
_cell_angle_alpha 90.000000
_cell_angle_beta 90.000000
_cell_angle_gamma 120.000000
_cell_volume 12152.776420
_symmetry_space_group_name_H-M "P 6/M M M"
_symmetry_group_IT_number 191
_symmetry_cell_setting 'hexagonal'
loop_
_space_group_symop_operation_xyz
x,y,z
x-y,x,z
-y,x-y,z
-x,-y,z
-x+y,-x,z
y,-x+y,z
x-y,-y,-z
-x,-x+y,-z
y,x,-z
-y,-x,-z
-x+y,y,-z
x,x-y,-z
-x,-y,-z
-x+y,-x,-z
y,-x+y,-z
x,y,-z
x-y,x,-z
-y,x-y,-z
-x+y,y,z
x,x-y,z
-y,-x,z
y,x,z
x-y,-y,z
-x,-x+y,z
loop_
_atom_site_type_symbol
_atom_site_label
_atom_site_fract_x
_atom_site_fract_y
_atom_site_fract_z
Si Si1 0.334736 0.521511 0.823618
Si Si2 0.564411 0.853988 0.258812
Si Si3 0.468472 0.083312 0.341023
Si Si4 0.080953 0.300131 0.201679
Si Si5 0.917657 0.693434 0.951243
Si Si6 0.182403 0.665923 0.578914
Si Si7 0.917865 0.605438 0.875825
Si Si8 0.383831 0.466807 0.500000
O O1 0.255445 0.510889 0.827844
O O2 0.394315 0.605686 0.827046
O O3 0.342044 0.490027 0.778058
O O4 0.345294 0.478682 0.863110
O O5 0.543685 0.771843 0.271536
O O6 0.560325 0.896708 0.299251
O O7 0.646529 0.899231 0.241905
O O8 0.545949 0.091898 0.329946
O O9 0.477451 0.139388 0.378097
O O10 0.411725 0.000000 0.355040
O O11 0.132447 0.264893 0.200397
O O12 0.092470 0.344204 0.158289
O O13 0.000000 0.233549 0.206774
O O14 0.861582 0.723164 0.942959
O O15 0.896663 0.622899 0.922048
O O16 0.000000 0.758247 0.940313
O O17 0.912414 0.667348 0.000000
O O18 0.199616 0.599808 0.575888
O O19 0.258334 0.741667 0.576807
O O20 0.128834 0.661505 0.541067
O O21 0.000000 0.620550 0.875859
O O22 0.396843 0.396843 0.500000
O O23 0.462184 0.537817 0.500000
#
# Coordination Sequence:
#
# PCOD8328590 Si02
#       8
#    24  24  24  24  24  24  24  12
#     4  10  19  30  44  62  85 111 137 166 203 249
#     4   9  17  29  43  59  80 105 135 170 204 239
#     4  10  19  29  41  58  81 108 137 168 204 244
#     4   9  16  26  41  59  79 103 130 162 198 235
#     4   9  16  26  42  63  85 108 134 166 204 244
#     4  10  19  30  44  61  81 106 136 170 206 243
#     4   9  17  29  44  62  82 103 132 169 204 236
#     4   9  17  30  46  62  80 101 128 164 206 246
#
# _framework density 14.811431000000001
#
# number of rings (size 3 to 8) (size 9 to 14) (size 15 to 20)
#    0.000    2.600    0.000    4.067    0.000    2.400 
#    0.000    0.667    0.000    4.933    0.000    2.800 
#    0.000    4.267    0.000    0.133    0.000    0.000 
#
# Total GULP energy -2231498.403405 kJ/mol
# GULP energy per Si atom -12397.213352 kJ/mol
# Density = 1.477772 g / cm^3
# Si number density = 14.811431 Si / 1000 Ang^3
#
#
#
# Elastic Constant Matrix: (Units=GPa)
#
#
# Indices 1 2 3 4 5 6 
#
# 1 67.4125 26.0683 29.5552 0.0000 0.0000 0.0000
# 2 26.0683 67.4125 29.5552 0.0000 0.0000 0.0000
# 3 29.5552 29.5552 80.6955 0.0000 0.0000 0.0000
# 4 0.0000 0.0000 0.0000 19.3325 0.0000 0.0000
# 5 0.0000 0.0000 0.0000 0.0000 19.3325 0.0000
# 6 0.0000 0.0000 0.0000 0.0000 0.0000 20.6721
#
#
#
# Elastic Compliance Matrix: (Units=1/GPa)
#
#
# Indices 1 2 3 4 5 6 
#
# 1 0.019054 -0.005133 -0.005099 0.000000 0.000000 0.000000
# 2 -0.005133 0.019054 -0.005099 0.000000 0.000000 0.000000
# 3 -0.005099 -0.005099 0.016127 0.000000 0.000000 0.000000
# 4 0.000000 0.000000 0.000000 0.051726 0.000000 0.000000
# 5 0.000000 0.000000 0.000000 0.000000 0.051726 0.000000
# 6 0.000000 0.000000 0.000000 0.000000 0.000000 0.048374
#
#
# Mechanical properties :
#
#
# Convention : Reuss Voigt Hill
#
# Bulk Modulus (GPa) = 42.41799 42.87533 42.64666
# Shear Modulus (GPa) = 20.44302 20.55689 20.49996
#
# Velocity S-wave (km/s) = 3.71916 3.72950 3.72434
# Velocity P-wave (km/s) = 6.86613 6.89608 6.88112
#
# Compressibility (1/GPa) = 0.02357490
#
# Stress axis : x y z
#
# Youngs Moduli (GPa) = 52.48145 52.48145 62.00697
#
# Poissons Ratio (x) = 0.26938 0.31616
# Poissons Ratio (y) = 0.26938 0.31616
# Poissons Ratio (z) = 0.26759 0.26759
#
# Static dielectric constant tensor:
#      x y z
#    x 2.820810 0.000000 0.000000 
#    y 0.000000 2.820810 0.000000 
#    z 0.000000 0.000000 2.929930 
# 
# 
# High freq. dielectric constant tensor:
#      x y z
#    x 1.552590 0.000000 0.000000 
#    y 0.000000 1.552590 0.000000 
#    z 0.000000 0.000000 1.569240 
# 
# From -- ./inp_files/10863.got.cif
#   From: 2010.03.12/outbox.cif.g09.slc.cpg/sg191_6_cif.got.tgz:10863.got - 2010.04.01 12:09:02.
