data_PCOD8328681
_publ_section_title
;
Structure prediction by ZEFSAII (Michael W. Deem and Ramdas Pophale) SiO2 
 PCOD8328681
Probable space group: P 6/M M M
;
_chemical_formula_sum "Si O2"
_cell_formula_units_Z 168
_cell_length_a 18.347230
_cell_length_b 18.347230
_cell_length_c 34.886745
_cell_angle_alpha 90.000000
_cell_angle_beta 90.000000
_cell_angle_gamma 120.000000
_cell_volume 10170.260876
_symmetry_space_group_name_H-M "P 6/M M M"
_symmetry_group_IT_number 191
_symmetry_cell_setting 'hexagonal'
loop_
_space_group_symop_operation_xyz
x,y,z
x-y,x,z
-y,x-y,z
-x,-y,z
-x+y,-x,z
y,-x+y,z
x-y,-y,-z
-x,-x+y,-z
y,x,-z
-y,-x,-z
-x+y,y,-z
x,x-y,-z
-x,-y,-z
-x+y,-x,-z
y,-x+y,-z
x,y,-z
x-y,x,-z
-y,x-y,-z
-x+y,y,z
x,x-y,z
-y,-x,z
y,x,z
x-y,-y,z
-x,-x+y,z
loop_
_atom_site_type_symbol
_atom_site_label
_atom_site_fract_x
_atom_site_fract_y
_atom_site_fract_z
Si Si1 0.743706 0.093316 0.956218
Si Si2 0.369244 0.466589 0.393634
Si Si3 0.650463 0.905809 0.456498
Si Si4 0.902294 0.533355 0.819543
Si Si5 0.331694 0.499083 0.687927
Si Si6 0.902806 0.264383 0.749799
Si Si7 0.332074 0.499483 0.901161
O O1 0.840498 0.159503 0.945583
O O2 0.680339 0.105920 0.929394
O O3 0.729070 0.000000 0.949464
O O4 0.723954 0.105385 0.000000
O O5 0.441192 0.558809 0.406583
O O6 0.408550 0.408550 0.382914
O O7 0.305629 0.429325 0.429045
O O8 0.321454 0.471910 0.356334
O O9 0.618307 0.900517 0.500000
O O10 0.688565 0.844283 0.450461
O O11 0.724371 0.000000 0.446636
O O12 0.877631 0.438816 0.806437
O O13 0.878428 0.577962 0.786502
O O14 0.851842 0.530933 0.857341
O O15 0.000000 0.586085 0.829708
O O16 0.264334 0.528667 0.697280
O O17 0.425307 0.574694 0.697067
O O18 0.312312 0.418125 0.713051
O O19 0.836714 0.163287 0.747607
O O20 0.000000 0.284504 0.751640
O O21 0.263826 0.527652 0.910032
O O22 0.424259 0.575742 0.909236
#
# Coordination Sequence:
#
# PCOD8328681 Si02
#       7
#    24  24  24  24  24  24  24
#     4   9  18  32  49  68  89 114 145 182 225 272
#     4   9  17  28  43  64  88 115 148 183 217 254
#     4   9  17  29  45  64  86 113 146 184 224 265
#     4   9  17  29  46  68  92 118 149 184 221 261
#     4  10  19  30  45  66  93 123 152 181 213 252
#     4  10  20  33  49  68  90 117 149 185 224 266
#     4  10  19  30  44  64  92 125 159 192 223 254
#
# _framework density 16.518750000000001
#
# number of rings (size 3 to 8) (size 9 to 14) (size 15 to 20)
#    0.000    2.571    0.000    2.429    0.000    2.857 
#    0.000    2.143    0.000    6.143    0.000    2.000 
#    0.000    0.000    0.000    9.143    0.000    6.286 
#
# Total GULP energy -2082911.017562 kJ/mol
# GULP energy per Si atom -12398.279866 kJ/mol
# Density = 1.648115 g / cm^3
# Si number density = 16.518750 Si / 1000 Ang^3
#
#
#
# Elastic Constant Matrix: (Units=GPa)
#
#
# Indices 1 2 3 4 5 6 
#
# 1 88.0495 51.8902 43.8687 0.0000 0.0000 0.0000
# 2 51.8902 88.0495 43.8687 0.0000 0.0000 0.0000
# 3 43.8687 43.8687 71.2838 0.0000 0.0000 0.0000
# 4 0.0000 0.0000 0.0000 23.6101 0.0000 0.0000
# 5 0.0000 0.0000 0.0000 0.0000 23.6101 0.0000
# 6 0.0000 0.0000 0.0000 0.0000 0.0000 18.0797
#
#
#
# Elastic Compliance Matrix: (Units=1/GPa)
#
#
# Indices 1 2 3 4 5 6 
#
# 1 0.019645 -0.008010 -0.007160 0.000000 0.000000 0.000000
# 2 -0.008010 0.019645 -0.007160 0.000000 0.000000 0.000000
# 3 -0.007160 -0.007160 0.022842 0.000000 0.000000 0.000000
# 4 0.000000 0.000000 0.000000 0.042355 0.000000 0.000000
# 5 0.000000 0.000000 0.000000 0.000000 0.042355 0.000000
# 6 0.000000 0.000000 0.000000 0.000000 0.000000 0.055311
#
#
# Mechanical properties :
#
#
# Convention : Reuss Voigt Hill
#
# Bulk Modulus (GPa) = 57.23968 58.51531 57.87749
# Shear Modulus (GPa) = 19.79116 20.24365 20.01740
#
# Velocity S-wave (km/s) = 3.46512 3.50451 3.48487
# Velocity P-wave (km/s) = 7.12292 7.20249 7.16281
#
# Compressibility (1/GPa) = 0.01747040
#
# Stress axis : x y z
#
# Youngs Moduli (GPa) = 50.90265 50.90265 43.77969
#
# Poissons Ratio (x) = 0.40773 0.31348
# Poissons Ratio (y) = 0.40773 0.31348
# Poissons Ratio (z) = 0.36449 0.36449
#
# Static dielectric constant tensor:
#      x y z
#    x 3.031910 0.000000 0.000000 
#    y 0.000000 3.031910 0.000000 
#    z 0.000000 0.000000 3.195350 
# 
# 
# High freq. dielectric constant tensor:
#      x y z
#    x 1.623030 0.000000 0.000000 
#    y 0.000000 1.623030 0.000000 
#    z 0.000000 0.000000 1.645050 
# 
# From -- ./inp_files/10760.got.cif
#   From: 2010.03.12/outbox.cif.g09.slc.cpg/sg191_6_cif.got.tgz:10760.got - 2010.04.01 12:09:02.
