data_PCOD8328848
_publ_section_title
;
Structure prediction by ZEFSAII (Michael W. Deem and Ramdas Pophale) SiO2 
 PCOD8328848
Probable space group: P 6/M M M
;
_chemical_formula_sum "Si O2"
_cell_formula_units_Z 88
_cell_length_a 25.578166
_cell_length_b 25.578166
_cell_length_c 8.990845
_cell_angle_alpha 90.000000
_cell_angle_beta 90.000000
_cell_angle_gamma 120.000000
_cell_volume 5094.129081
_symmetry_space_group_name_H-M "P 6/M M M"
_symmetry_group_IT_number 191
_symmetry_cell_setting 'hexagonal'
loop_
_space_group_symop_operation_xyz
x,y,z
x-y,x,z
-y,x-y,z
-x,-y,z
-x+y,-x,z
y,-x+y,z
x-y,-y,-z
-x,-x+y,-z
y,x,-z
-y,-x,-z
-x+y,y,-z
x,x-y,-z
-x,-y,-z
-x+y,-x,-z
y,-x+y,-z
x,y,-z
x-y,x,-z
-y,x-y,-z
-x+y,y,z
x,x-y,z
-y,-x,z
y,x,z
x-y,-y,z
-x,-x+y,z
loop_
_atom_site_type_symbol
_atom_site_label
_atom_site_fract_x
_atom_site_fract_y
_atom_site_fract_z
Si Si1 0.249923 0.183013 0.330346
Si Si2 0.068934 0.357686 0.174035
Si Si3 0.333334 0.666668 0.321953
Si Si4 0.399900 0.600101 0.323680
Si Si5 0.175602 0.702782 0.676602
O O1 0.273434 0.199785 0.500000
O O2 0.226134 0.113067 0.296122
O O3 0.194167 0.194167 0.301027
O O4 0.304818 0.223192 0.221670
O O5 0.115847 0.417439 0.258203
O O6 0.000000 0.339137 0.215890
O O7 0.080358 0.368526 0.000000
O O8 0.333334 0.666667 0.500000
O O9 0.366609 0.633392 0.256617
O O10 0.398670 0.601331 0.500000
O O11 0.469169 0.639592 0.269240
O O12 0.173450 0.705487 0.500000
O O13 0.237712 0.762289 0.732090
#
# Coordination Sequence:
#
# PCOD8328848 Si02
#       5
#    24  24   4  12  24
#     4   9  17  30  49  72  97 125 158 196 236 278
#     4  10  21  35  49  67  94 128 163 198 238 282
#     4   9  12  24  48  72 100 125 148 186 232 278
#     4   9  16  28  48  76 103 124 150 188 234 282
#     4  10  19  31  51  77 100 123 154 192 235 282
#
# _framework density 17.274788999999998
#
# number of rings (size 3 to 8) (size 9 to 14) (size 15 to 20)
#    0.000    2.455    1.364    1.636    0.000    6.000 
#    0.000    1.364    0.000    4.364    0.000    1.909 
#    0.000    0.000    0.000    6.818    0.000    7.091 
#
# Total GULP energy -1090597.132765 kJ/mol
# GULP energy per Si atom -12393.149236 kJ/mol
# Density = 1.723547 g / cm^3
# Si number density = 17.274789 Si / 1000 Ang^3
#
#
#
# Elastic Constant Matrix: (Units=GPa)
#
#
# Indices 1 2 3 4 5 6 
#
# 1 136.0252 76.3048 25.8374 0.0000 0.0000 0.0000
# 2 76.3048 136.0255 25.8374 0.0000 0.0000 0.0000
# 3 25.8374 25.8374 20.6976 0.0001 0.0000 0.0000
# 4 0.0000 0.0000 0.0001 7.2691 0.0000 0.0000
# 5 0.0000 0.0000 0.0000 0.0000 7.2694 0.0000
# 6 0.0000 0.0000 0.0000 0.0000 0.0000 29.8601
#
#
#
# Elastic Compliance Matrix: (Units=1/GPa)
#
#
# Indices 1 2 3 4 5 6 
#
# 1 0.011755 -0.004990 -0.008445 0.000000 0.000000 0.000000
# 2 -0.004990 0.011755 -0.008445 0.000000 0.000000 0.000000
# 3 -0.008445 -0.008445 0.069398 -0.000001 0.000000 0.000000
# 4 0.000000 0.000000 -0.000001 0.137568 0.000000 0.000000
# 5 0.000000 0.000000 0.000000 0.000000 0.137562 0.000000
# 6 0.000000 0.000000 0.000000 0.000000 0.000000 0.033489
#
#
# Mechanical properties :
#
#
# Convention : Reuss Voigt Hill
#
# Bulk Modulus (GPa) = 20.34626 60.96752 40.65689
# Shear Modulus (GPa) = 10.83027 19.86432 15.34729
#
# Velocity S-wave (km/s) = 2.50659 3.39470 2.98387
# Velocity P-wave (km/s) = 4.49232 7.12283 5.95465
#
# Compressibility (1/GPa) = 0.04914909
#
# Stress axis : x y z
#
# Youngs Moduli (GPa) = 85.07181 85.07208 14.40955
#
# Poissons Ratio (x) = 0.42450 0.12169
# Poissons Ratio (y) = 0.42450 0.12168
# Poissons Ratio (z) = 0.71841 0.71841
#
# Static dielectric constant tensor:
#      x y z
#    x 3.341240 0.000000 0.000000 
#    y 0.000000 3.341240 0.000000 
#    z 0.000000 0.000000 3.038690 
# 
# 
# High freq. dielectric constant tensor:
#      x y z
#    x 1.665720 0.000000 0.000000 
#    y 0.000000 1.665720 0.000000 
#    z 0.000000 0.000000 1.644810 
# 
# From -- ./inp_files/1277.got.cif
#   From: 2010.03.12/outbox.cif.g09.slc.cpg/sg191_1_cif.got.tgz:1277.got - 2010.04.01 12:09:02.
