data_PCOD8328969
_publ_section_title
;
Structure prediction by ZEFSAII (Michael W. Deem and Ramdas Pophale) SiO2 
 PCOD8328969
Probable space group: P 6/M M M
;
_chemical_formula_sum "Si O2"
_cell_formula_units_Z 144
_cell_length_a 32.316221
_cell_length_b 32.316221
_cell_length_c 9.257787
_cell_angle_alpha 90.000000
_cell_angle_beta 90.000000
_cell_angle_gamma 120.000000
_cell_volume 8372.958817
_symmetry_space_group_name_H-M "P 6/M M M"
_symmetry_group_IT_number 191
_symmetry_cell_setting 'hexagonal'
loop_
_space_group_symop_operation_xyz
x,y,z
x-y,x,z
-y,x-y,z
-x,-y,z
-x+y,-x,z
y,-x+y,z
x-y,-y,-z
-x,-x+y,-z
y,x,-z
-y,-x,-z
-x+y,y,-z
x,x-y,-z
-x,-y,-z
-x+y,-x,-z
y,-x+y,-z
x,y,-z
x-y,x,-z
-y,x-y,-z
-x+y,y,z
x,x-y,z
-y,-x,z
y,x,z
x-y,-y,z
-x,-x+y,z
loop_
_atom_site_type_symbol
_atom_site_label
_atom_site_fract_x
_atom_site_fract_y
_atom_site_fract_z
Si Si1 0.657619 0.711990 0.333054
Si Si2 0.475449 0.619726 0.167589
Si Si3 0.292386 0.193922 0.166790
Si Si4 0.425956 0.372349 0.166423
Si Si5 0.333149 0.571245 0.669914
Si Si6 0.802328 0.947098 0.335659
O O1 0.649274 0.718002 0.500000
O O2 0.700626 0.700626 0.312179
O O3 0.668763 0.759776 0.250215
O O4 0.609322 0.670000 0.268814
O O5 0.431381 0.568620 0.207353
O O6 0.521410 0.615776 0.213285
O O7 0.470241 0.660317 0.254189
O O8 0.477048 0.632232 0.000000
O O9 0.306266 0.153133 0.189415
O O10 0.240448 0.177656 0.229921
O O11 0.292160 0.206466 0.000000
O O12 0.418005 0.418005 0.188586
O O13 0.415654 0.355482 0.000000
O O14 0.332357 0.563179 0.500000
O O15 0.283626 0.567252 0.722380
O O16 0.376379 0.623622 0.713465
O O17 0.783246 0.941536 0.500000
O O18 0.821944 0.910972 0.304557
O O19 0.846071 0.000000 0.306593
#
# Coordination Sequence:
#
# PCOD8328969 Si02
#       6
#    24  24  24  24  24  24
#     4  10  20  33  50  71  94 121 154 192 232 275
#     4   9  18  32  50  74 102 128 157 197 242 284
#     4  10  20  32  47  69  95 121 151 188 230 277
#     4   9  18  33  52  72  95 126 162 197 235 280
#     4   9  17  30  49  72  98 129 164 199 235 279
#     4   9  17  29  45  65  90 120 153 189 230 276
#
# _framework density 17.198219999999999
#
# number of rings (size 3 to 8) (size 9 to 14) (size 15 to 20)
#    0.000    2.667    0.000    1.667    0.000    6.333 
#    0.000    2.500    0.000    2.167    0.000    5.833 
#    0.000    0.000    0.000    4.167    0.000    4.333 
#
# Total GULP energy -1785445.954098 kJ/mol
# GULP energy per Si atom -12398.930237 kJ/mol
# Density = 1.715908 g / cm^3
# Si number density = 17.198220 Si / 1000 Ang^3
#
#
#
# Elastic Constant Matrix: (Units=GPa)
#
#
# Indices 1 2 3 4 5 6 
#
# 1 111.2924 63.5599 52.6015 0.0000 0.0000 0.0000
# 2 63.5599 111.2924 52.6015 0.0000 0.0000 0.0000
# 3 52.6015 52.6015 84.2148 0.0000 0.0000 0.0000
# 4 0.0000 0.0000 0.0000 26.3383 0.0000 0.0000
# 5 0.0000 0.0000 0.0000 0.0000 26.3383 0.0000
# 6 0.0000 0.0000 0.0000 0.0000 0.0000 23.8663
#
#
#
# Elastic Compliance Matrix: (Units=1/GPa)
#
#
# Indices 1 2 3 4 5 6 
#
# 1 0.015056 -0.005894 -0.005723 0.000000 0.000000 0.000000
# 2 -0.005894 0.015056 -0.005723 0.000000 0.000000 0.000000
# 3 -0.005723 -0.005723 0.019024 0.000000 0.000000 0.000000
# 4 0.000000 0.000000 0.000000 0.037968 0.000000 0.000000
# 5 0.000000 0.000000 0.000000 0.000000 0.037968 0.000000
# 6 0.000000 0.000000 0.000000 0.000000 0.000000 0.041900
#
#
# Mechanical properties :
#
#
# Convention : Reuss Voigt Hill
#
# Bulk Modulus (GPa) = 69.17217 71.59171 70.38194
# Shear Modulus (GPa) = 24.21662 24.51101 24.36382
#
# Velocity S-wave (km/s) = 3.75652 3.77929 3.76792
# Velocity P-wave (km/s) = 7.68916 7.79498 7.74225
#
# Compressibility (1/GPa) = 0.01445668
#
# Stress axis : x y z
#
# Youngs Moduli (GPa) = 66.41756 66.41756 52.56613
#
# Poissons Ratio (x) = 0.39145 0.30083
# Poissons Ratio (y) = 0.39145 0.30083
# Poissons Ratio (z) = 0.38011 0.38011
#
# Static dielectric constant tensor:
#      x y z
#    x 3.218800 0.000000 0.000000 
#    y 0.000000 3.218800 0.000000 
#    z 0.000000 0.000000 3.262360 
# 
# 
# High freq. dielectric constant tensor:
#      x y z
#    x 1.655540 0.000000 0.000000 
#    y 0.000000 1.655540 0.000000 
#    z 0.000000 0.000000 1.667510 
# 
# From -- ./inp_files/1945.got.cif
#   From: 2010.03.12/outbox.cif.g09.slc.cpg/sg191_1_cif.got.tgz:1945.got - 2010.04.01 12:09:02.
