data_PCOD8328626
_publ_section_title
;
Structure prediction by ZEFSAII (Michael W. Deem and Ramdas Pophale) SiO2 
 PCOD8328626
Probable space group: P 6/M M M
;
_chemical_formula_sum "Si O2"
_cell_formula_units_Z 108
_cell_length_a 17.144682
_cell_length_b 17.144682
_cell_length_c 26.307599
_cell_angle_alpha 90.000000
_cell_angle_beta 90.000000
_cell_angle_gamma 120.000000
_cell_volume 6696.852191
_symmetry_space_group_name_H-M "P 6/M M M"
_symmetry_group_IT_number 191
_symmetry_cell_setting 'hexagonal'
loop_
_space_group_symop_operation_xyz
x,y,z
x-y,x,z
-y,x-y,z
-x,-y,z
-x+y,-x,z
y,-x+y,z
x-y,-y,-z
-x,-x+y,-z
y,x,-z
-y,-x,-z
-x+y,y,-z
x,x-y,-z
-x,-y,-z
-x+y,-x,-z
y,-x+y,-z
x,y,-z
x-y,x,-z
-y,x-y,-z
-x+y,y,z
x,x-y,z
-y,-x,z
y,x,z
x-y,-y,z
-x,-x+y,z
loop_
_atom_site_type_symbol
_atom_site_label
_atom_site_fract_x
_atom_site_fract_y
_atom_site_fract_z
Si Si1 0.484147 0.331621 0.897821
Si Si2 0.407573 0.000000 0.709372
Si Si3 0.645656 0.645656 0.439863
Si Si4 0.850742 0.516180 0.631402
Si Si5 0.175723 0.000000 0.560416
Si Si6 0.407330 0.407330 0.177312
Si Si7 0.100348 0.375417 0.000000
O O1 0.501667 0.250834 0.885617
O O2 0.578357 0.421644 0.900261
O O3 0.422085 0.334091 0.852710
O O4 0.436549 0.321291 0.951330
O O5 0.425815 0.089953 0.679683
O O6 0.500000 0.000000 0.711723
O O7 0.371133 0.000000 0.765978
O O8 0.637507 0.637507 0.500000
O O9 0.648946 0.559046 0.419162
O O10 0.735222 0.735222 0.421309
O O11 0.760777 0.521554 0.629064
O O12 0.824733 0.412367 0.635495
O O13 0.176931 0.088466 0.582304
O O14 0.171755 0.000000 0.500000
O O15 0.500000 0.500000 0.180222
O O16 0.167967 0.335933 0.000000
O O17 0.000000 0.290531 0.000000
#
# Coordination Sequence:
#
# PCOD8328626 Si02
#       7
#    24  12  12  24  12  12  12
#     4  10  19  29  44  66  95 129 166 205 246 291
#     4   8  17  33  49  67  91 120 153 192 244 293
#     4  10  20  34  50  69  97 131 161 189 229 286
#     4  10  20  34  52  72  94 122 158 200 243 287
#     4   9  16  26  42  65  92 121 153 188 225 267
#     4   9  17  30  47  65  90 123 156 195 241 290
#     4  10  19  31  47  68  95 130 168 206 249 299
#
# _framework density 16.12698
#
# number of rings (size 3 to 8) (size 9 to 14) (size 15 to 20)
#    0.000    2.444    1.111    2.556    0.000    4.000 
#    0.000    1.111    0.000    4.111    0.000    0.000 
#    0.000    0.000    0.000    0.000    0.000    8.778 
#
# Total GULP energy -1339062.743430 kJ/mol
# GULP energy per Si atom -12398.729106 kJ/mol
# Density = 1.609027 g / cm^3
# Si number density = 16.126980 Si / 1000 Ang^3
#
#
#
# Elastic Constant Matrix: (Units=GPa)
#
#
# Indices 1 2 3 4 5 6 
#
# 1 101.8267 51.0859 42.7816 0.0000 0.0000 0.0000
# 2 51.0859 101.8267 42.7816 0.0000 0.0000 0.0000
# 3 42.7816 42.7816 121.4685 0.0000 0.0000 0.0000
# 4 0.0000 0.0000 0.0000 36.5714 0.0000 0.0000
# 5 0.0000 0.0000 0.0000 0.0000 36.5714 0.0000
# 6 0.0000 0.0000 0.0000 0.0000 0.0000 25.3704
#
#
#
# Elastic Compliance Matrix: (Units=1/GPa)
#
#
# Indices 1 2 3 4 5 6 
#
# 1 0.013926 -0.005782 -0.002869 0.000000 0.000000 0.000000
# 2 -0.005782 0.013926 -0.002869 0.000000 0.000000 0.000000
# 3 -0.002869 -0.002869 0.010253 0.000000 0.000000 0.000000
# 4 0.000000 0.000000 0.000000 0.027344 0.000000 0.000000
# 5 0.000000 0.000000 0.000000 0.000000 0.027344 0.000000
# 6 0.000000 0.000000 0.000000 0.000000 0.000000 0.039416
#
#
# Mechanical properties :
#
#
# Convention : Reuss Voigt Hill
#
# Bulk Modulus (GPa) = 66.36400 66.49111 66.42756
# Shear Modulus (GPa) = 31.19731 32.26749 31.73240
#
# Velocity S-wave (km/s) = 4.40304 4.47793 4.44064
# Velocity P-wave (km/s) = 8.19081 8.24955 8.22023
#
# Compressibility (1/GPa) = 0.01506841
#
# Stress axis : x y z
#
# Youngs Moduli (GPa) = 71.80592 71.80592 97.52970
#
# Poissons Ratio (x) = 0.41515 0.27978
# Poissons Ratio (y) = 0.41515 0.27978
# Poissons Ratio (z) = 0.20599 0.20599
#
# Static dielectric constant tensor:
#      x y z
#    x 3.040690 0.000000 0.000000 
#    y 0.000000 3.040690 0.000000 
#    z 0.000000 0.000000 3.206320 
# 
# 
# High freq. dielectric constant tensor:
#      x y z
#    x 1.613370 0.000000 0.000000 
#    y 0.000000 1.613370 0.000000 
#    z 0.000000 0.000000 1.613980 
# 
# From -- ./inp_files/9532.got.cif
#   From: 2010.03.12/outbox.cif.g09.slc.cpg/sg191_5_cif.got.tgz:9532.got - 2010.04.01 12:09:02.
