data_PCOD8328729
_publ_section_title
;
Structure prediction by ZEFSAII (Michael W. Deem and Ramdas Pophale) SiO2 
 PCOD8328729
Probable space group: P 6/M M M
;
_chemical_formula_sum "Si O2"
_cell_formula_units_Z 120
_cell_length_a 17.813857
_cell_length_b 17.813857
_cell_length_c 25.387335
_cell_angle_alpha 90.000000
_cell_angle_beta 90.000000
_cell_angle_gamma 120.000000
_cell_volume 6976.918807
_symmetry_space_group_name_H-M "P 6/M M M"
_symmetry_group_IT_number 191
_symmetry_cell_setting 'hexagonal'
loop_
_space_group_symop_operation_xyz
x,y,z
x-y,x,z
-y,x-y,z
-x,-y,z
-x+y,-x,z
y,-x+y,z
x-y,-y,-z
-x,-x+y,-z
y,x,-z
-y,-x,-z
-x+y,y,-z
x,x-y,-z
-x,-y,-z
-x+y,-x,-z
y,-x+y,-z
x,y,-z
x-y,x,-z
-y,x-y,-z
-x+y,y,z
x,x-y,z
-y,-x,z
y,x,z
x-y,-y,z
-x,-x+y,z
loop_
_atom_site_type_symbol
_atom_site_label
_atom_site_fract_x
_atom_site_fract_y
_atom_site_fract_z
Si Si1 0.367127 0.266420 0.098531
Si Si2 0.901444 0.634045 0.402054
Si Si3 0.467747 0.101835 0.000000
Si Si4 0.100157 0.634058 0.199122
Si Si5 0.365395 0.897881 0.500000
Si Si6 0.164336 0.495636 0.687868
O O1 0.323554 0.161777 0.096134
O O2 0.292125 0.292125 0.093811
O O3 0.419720 0.298409 0.152569
O O4 0.436806 0.306941 0.051806
O O5 0.836713 0.673425 0.400023
O O6 0.868433 0.562813 0.448345
O O7 0.898709 0.586418 0.347711
O O8 0.000000 0.712117 0.411233
O O9 0.572539 0.145078 0.000000
O O10 0.427175 0.000000 0.000000
O O11 0.127182 0.563591 0.181080
O O12 0.151315 0.683878 0.251203
O O13 0.000000 0.585997 0.213973
O O14 0.427737 0.855474 0.500000
O O15 0.425158 0.000000 0.500000
O O16 0.263953 0.527906 0.673102
O O17 0.142472 0.571236 0.677115
#
# Coordination Sequence:
#
# PCOD8328729 Si02
#       6
#    24  24  12  24  12  24
#     4  10  19  31  48  69  93 122 158 197 234 273
#     4  10  20  33  50  71  94 122 157 197 238 279
#     4   9  17  30  49  70  90 114 144 179 221 270
#     4   9  17  29  46  67  90 119 155 192 230 275
#     4   9  17  30  49  72  96 122 152 183 217 262
#     4  10  19  30  45  67  96 127 157 189 227 272
#
# _framework density 17.199569
#
# number of rings (size 3 to 8) (size 9 to 14) (size 15 to 20)
#    0.000    2.400    0.000    3.200    0.000    4.400 
#    0.000    0.000    0.000   10.000    0.000    0.000 
#    0.000    4.800    0.000    6.400    0.000    0.000 
#
# Total GULP energy -1487675.507765 kJ/mol
# GULP energy per Si atom -12397.295898 kJ/mol
# Density = 1.716042 g / cm^3
# Si number density = 17.199569 Si / 1000 Ang^3
#
#
#
# Elastic Constant Matrix: (Units=GPa)
#
#
# Indices 1 2 3 4 5 6 
#
# 1 89.7411 49.8199 35.2806 0.0000 0.0000 0.0000
# 2 49.8199 89.7411 35.2806 0.0000 0.0000 0.0000
# 3 35.2806 35.2806 80.3228 0.0000 0.0000 0.0000
# 4 0.0000 0.0000 0.0000 44.1591 0.0000 0.0000
# 5 0.0000 0.0000 0.0000 0.0000 44.1591 0.0000
# 6 0.0000 0.0000 0.0000 0.0000 0.0000 19.9606
#
#
#
# Elastic Compliance Matrix: (Units=1/GPa)
#
#
# Indices 1 2 3 4 5 6 
#
# 1 0.017130 -0.007919 -0.004046 0.000000 0.000000 0.000000
# 2 -0.007919 0.017130 -0.004046 0.000000 0.000000 0.000000
# 3 -0.004046 -0.004046 0.016004 0.000000 0.000000 0.000000
# 4 0.000000 0.000000 0.000000 0.022645 0.000000 0.000000
# 5 0.000000 0.000000 0.000000 0.000000 0.022645 0.000000
# 6 0.000000 0.000000 0.000000 0.000000 0.000000 0.050099
#
#
# Mechanical properties :
#
#
# Convention : Reuss Voigt Hill
#
# Bulk Modulus (GPa) = 54.81680 55.61856 55.21768
# Shear Modulus (GPa) = 27.21004 30.95068 29.08036
#
# Velocity S-wave (km/s) = 3.98177 4.24666 4.11635
# Velocity P-wave (km/s) = 7.28557 7.51351 7.40042
#
# Compressibility (1/GPa) = 0.01824258
#
# Stress axis : x y z
#
# Youngs Moduli (GPa) = 58.37684 58.37684 62.48512
#
# Poissons Ratio (x) = 0.46230 0.25280
# Poissons Ratio (y) = 0.46230 0.25280
# Poissons Ratio (z) = 0.23618 0.23618
#
# Static dielectric constant tensor:
#      x y z
#    x 3.043880 0.000000 0.000000 
#    y 0.000000 3.043880 0.000000 
#    z 0.000000 0.000000 3.361260 
# 
# 
# High freq. dielectric constant tensor:
#      x y z
#    x 1.642020 0.000000 0.000000 
#    y 0.000000 1.642020 0.000000 
#    z 0.000000 0.000000 1.681930 
# 
# From -- ./inp_files/8504.got.cif
#   From: 2010.03.12/outbox.cif.g09.slc.cpg/sg191_5_cif.got.tgz:8504.got - 2010.04.01 12:09:02.
