data_PCOD8328138
_publ_section_title
;
Structure prediction by ZEFSAII (Michael W. Deem and Ramdas Pophale) SiO2 
 PCOD8328138
Probable space group: P -6 2 C
;
_chemical_formula_sum "Si O2"
_cell_formula_units_Z 52
_cell_length_a 11.118962
_cell_length_b 11.118962
_cell_length_c 22.137352
_cell_angle_alpha 90.000000
_cell_angle_beta 90.000000
_cell_angle_gamma 120.000000
_cell_volume 2370.198912
_symmetry_space_group_name_H-M "P -6 2 C"
_symmetry_group_IT_number 190
_symmetry_cell_setting 'hexagonal'
loop_
_space_group_symop_operation_xyz
x,y,z
-x+y,-x,1/2-z
-y,x-y,z
x,y,1/2-z
-x+y,-x,z
-y,x-y,1/2-z
x-y,-y,-z
-x,-x+y,-z
y,x,-z
y,x,1/2+z
x-y,-y,1/2+z
-x,-x+y,1/2+z
loop_
_atom_site_type_symbol
_atom_site_label
_atom_site_fract_x
_atom_site_fract_y
_atom_site_fract_z
Si Si1 0.953983 0.581898 0.318165
Si Si2 0.400584 0.111184 0.362280
Si Si3 0.305562 0.159507 0.892841
Si Si4 0.489870 0.227807 0.490818
Si Si5 0.000000 0.000000 0.071115
O O1 0.004238 0.581325 0.250000
O O2 0.895768 0.433898 0.349675
O O3 0.826965 0.612495 0.315635
O O4 0.084044 0.697765 0.356048
O O5 0.404382 0.171976 0.429114
O O6 0.267793 0.959867 0.353037
O O7 0.380930 0.166594 0.955432
O O8 0.147735 0.121557 0.904846
O O9 0.603375 0.176019 0.494299
O O10 0.000000 0.000000 0.000000
#
# Coordination Sequence:
#
# PCOD8328138 Si02
#       5
#    12  12  12  12   4
#     4  12  27  46  72 101 139 192 250 302 359 438
#     4  12  23  48  73 102 139 185 246 300 362 428
#     4  12  26  43  69 107 145 189 230 297 374 440
#     4  10  21  42  72 107 141 177 230 303 366 427
#     4  12  24  42  64 104 148 186 231 292 362 442
#
# _framework density 21.939084999999999
#
# number of rings (size 3 to 8) (size 9 to 14) (size 15 to 20)
#    0.462    0.000    4.615    4.615    0.000    1.846 
#    1.385    0.000    0.000    0.000    0.000    0.000 
#    0.000    0.000    0.000    0.000    0.000    0.000 
#
# Total GULP energy -645039.658065 kJ/mol
# GULP energy per Si atom -12404.608809 kJ/mol
# Density = 2.188915 g / cm^3
# Si number density = 21.939085 Si / 1000 Ang^3
#
#
#
# Elastic Constant Matrix: (Units=GPa)
#
#
# Indices 1 2 3 4 5 6 
#
# 1 96.3170 9.9841 29.1688 0.0000 0.0000 0.0000
# 2 9.9841 96.3170 29.1688 0.0000 0.0000 0.0000
# 3 29.1688 29.1688 116.5924 0.0000 0.0000 0.0000
# 4 0.0000 0.0000 0.0000 19.7753 0.0000 0.0000
# 5 0.0000 0.0000 0.0000 0.0000 19.7753 0.0000
# 6 0.0000 0.0000 0.0000 0.0000 0.0000 43.1665
#
#
#
# Elastic Compliance Matrix: (Units=1/GPa)
#
#
# Indices 1 2 3 4 5 6 
#
# 1 0.011244 -0.000339 -0.002728 0.000000 0.000000 0.000000
# 2 -0.000339 0.011244 -0.002728 0.000000 0.000000 0.000000
# 3 -0.002728 -0.002728 0.009942 0.000000 0.000000 0.000000
# 4 0.000000 0.000000 0.000000 0.050568 0.000000 0.000000
# 5 0.000000 0.000000 0.000000 0.000000 0.050568 0.000000
# 6 0.000000 0.000000 0.000000 0.000000 0.000000 0.023166
#
#
# Mechanical properties :
#
#
# Convention : Reuss Voigt Hill
#
# Bulk Modulus (GPa) = 47.98810 49.54110 48.76460
# Shear Modulus (GPa) = 28.52766 32.60374 30.56570
#
# Velocity S-wave (km/s) = 3.60990 3.85918 3.73662
# Velocity P-wave (km/s) = 6.26865 6.51828 6.39468
#
# Compressibility (1/GPa) = 0.02083850
#
# Stress axis : x y z
#
# Youngs Moduli (GPa) = 88.93853 88.93853 100.58462
#
# Poissons Ratio (x) = 0.03018 0.27440
# Poissons Ratio (y) = 0.03018 0.27440
# Poissons Ratio (z) = 0.24263 0.24263
#
# Static dielectric constant tensor:
#      x y z
#    x 3.962270 0.000000 0.000000 
#    y 0.000000 3.962270 0.000000 
#    z 0.000000 0.000000 3.696240 
# 
# 
# High freq. dielectric constant tensor:
#      x y z
#    x 1.868430 0.000000 0.000000 
#    y 0.000000 1.868430 0.000000 
#    z 0.000000 0.000000 1.849170 
# 
# From -- ./inp_files/4207.got.cif
#   From: 2010.06.25/outbox.cif.g09.slc.cpg/sg190_3_cif.got.tgz:4207.got - 2010.06.28 13:08:06.
