data_PCOD8328584
_publ_section_title
;
Structure prediction by ZEFSAII (Michael W. Deem and Ramdas Pophale) SiO2 
 PCOD8328584
Probable space group: P 6/M M M
;
_chemical_formula_sum "Si O2"
_cell_formula_units_Z 180
_cell_length_a 21.429494
_cell_length_b 21.429494
_cell_length_c 31.099824
_cell_angle_alpha 90.000000
_cell_angle_beta 90.000000
_cell_angle_gamma 120.000000
_cell_volume 12368.367927
_symmetry_space_group_name_H-M "P 6/M M M"
_symmetry_group_IT_number 191
_symmetry_cell_setting 'hexagonal'
loop_
_space_group_symop_operation_xyz
x,y,z
x-y,x,z
-y,x-y,z
-x,-y,z
-x+y,-x,z
y,-x+y,z
x-y,-y,-z
-x,-x+y,-z
y,x,-z
-y,-x,-z
-x+y,y,-z
x,x-y,-z
-x,-y,-z
-x+y,-x,-z
y,-x+y,-z
x,y,-z
x-y,x,-z
-y,x-y,-z
-x+y,y,z
x,x-y,z
-y,-x,z
y,x,z
x-y,-y,z
-x,-x+y,z
loop_
_atom_site_type_symbol
_atom_site_label
_atom_site_fract_x
_atom_site_fract_y
_atom_site_fract_z
Si Si1 0.194010 0.666853 0.227555
Si Si2 0.860458 0.580755 0.154000
Si Si3 0.522100 0.332963 0.548536
Si Si4 0.918598 0.694608 0.227645
Si Si5 0.386839 0.917373 0.377517
Si Si6 0.081711 0.469600 0.078478
Si Si7 0.665260 0.186037 0.000000
Si Si8 0.917559 0.336378 0.287426
O O1 0.222161 0.611081 0.222935
O O2 0.258048 0.741953 0.245760
O O3 0.170731 0.678050 0.180665
O O4 0.128568 0.637107 0.260789
O O5 0.794385 0.588769 0.135161
O O6 0.909281 0.648281 0.184883
O O7 0.907972 0.575424 0.116268
O O8 0.494330 0.330851 0.500000
O O9 0.520136 0.260068 0.560945
O O10 0.603692 0.396309 0.553661
O O11 0.469704 0.342703 0.581030
O O12 0.861507 0.723013 0.228450
O O13 0.904301 0.644545 0.269678
O O14 0.000000 0.762490 0.228175
O O15 0.450416 0.900831 0.365033
O O16 0.331610 0.896471 0.337565
O O17 0.419596 0.000000 0.390423
O O18 0.094254 0.547127 0.094578
O O19 0.000000 0.421676 0.061157
O O20 0.137875 0.480932 0.041291
O O21 0.743295 0.256706 0.000000
O O22 0.604872 0.209744 0.000000
O O23 0.000000 0.397778 0.280788
#
# Coordination Sequence:
#
# PCOD8328584 Si02
#       8
#    24  24  24  24  24  24  12  24
#     4  10  19  29  40  56  80 108 136 165 198 235
#     4   9  17  29  44  61  81 106 136 166 194 229
#     4   9  17  28  41  56  74  97 125 157 193 233
#     4   9  17  29  45  64  85 108 133 161 193 229
#     4   9  17  28  41  57  76  98 126 161 199 235
#     4  10  19  30  44  62  83 104 129 164 204 240
#     4  10  20  33  47  61  78 103 134 166 199 236
#     4   9  17  29  43  58  77 101 131 166 200 234
#
# _framework density 14.553254000000001
#
# number of rings (size 3 to 8) (size 9 to 14) (size 15 to 20)
#    0.000    2.667    0.000    3.333    0.000    4.000 
#    0.000    1.333    0.000    6.000    0.000    0.000 
#    0.000    0.000    0.000    0.000    0.000    0.000 
#
# Total GULP energy -2231498.845497 kJ/mol
# GULP energy per Si atom -12397.215808 kJ/mol
# Density = 1.452013 g / cm^3
# Si number density = 14.553254 Si / 1000 Ang^3
#
#
#
# Elastic Constant Matrix: (Units=GPa)
#
#
# Indices 1 2 3 4 5 6 
#
# 1 80.4655 40.5386 44.4120 0.0000 0.0000 0.0000
# 2 40.5386 80.4655 44.4120 0.0000 0.0000 0.0000
# 3 44.4120 44.4120 82.5555 0.0000 0.0000 0.0000
# 4 0.0000 0.0000 0.0000 20.2104 0.0000 0.0000
# 5 0.0000 0.0000 0.0000 0.0000 20.2104 0.0000
# 6 0.0000 0.0000 0.0000 0.0000 0.0000 19.9634
#
#
#
# Elastic Compliance Matrix: (Units=1/GPa)
#
#
# Indices 1 2 3 4 5 6 
#
# 1 0.019352 -0.005694 -0.007347 0.000000 0.000000 0.000000
# 2 -0.005694 0.019352 -0.007347 0.000000 0.000000 0.000000
# 3 -0.007347 -0.007347 0.020018 0.000000 0.000000 0.000000
# 4 0.000000 0.000000 0.000000 0.049479 0.000000 0.000000
# 5 0.000000 0.000000 0.000000 0.000000 0.049479 0.000000
# 6 0.000000 0.000000 0.000000 0.000000 0.000000 0.050092
#
#
# Mechanical properties :
#
#
# Convention : Reuss Voigt Hill
#
# Bulk Modulus (GPa) = 55.72843 55.80129 55.76486
# Shear Modulus (GPa) = 19.64400 19.68511 19.66455
#
# Velocity S-wave (km/s) = 3.67795 3.68180 3.67987
# Velocity P-wave (km/s) = 7.51081 7.51666 7.51374
#
# Compressibility (1/GPa) = 0.01794416
#
# Stress axis : x y z
#
# Youngs Moduli (GPa) = 51.67519 51.67519 49.95445
#
# Poissons Ratio (x) = 0.29425 0.36703
# Poissons Ratio (y) = 0.29425 0.36703
# Poissons Ratio (z) = 0.37967 0.37967
#
# Static dielectric constant tensor:
#      x y z
#    x 2.727680 0.000000 0.000000 
#    y 0.000000 2.727680 0.000000 
#    z 0.000000 0.000000 2.824520 
# 
# 
# High freq. dielectric constant tensor:
#      x y z
#    x 1.542340 0.000000 0.000000 
#    y 0.000000 1.542340 0.000000 
#    z 0.000000 0.000000 1.552890 
# 
# From -- ./inp_files/10903.got.cif
#   From: 2010.03.12/outbox.cif.g09.slc.cpg/sg191_6_cif.got.tgz:10903.got - 2010.04.01 12:09:02.
