data_PCOD8328130
_publ_section_title
;
Structure prediction by ZEFSAII (Michael W. Deem and Ramdas Pophale) SiO2 
 PCOD8328130
Probable space group: P -6 2 C
;
_chemical_formula_sum "Si O2"
_cell_formula_units_Z 76
_cell_length_a 17.254928
_cell_length_b 17.254928
_cell_length_c 14.058342
_cell_angle_alpha 90.000000
_cell_angle_beta 90.000000
_cell_angle_gamma 120.000000
_cell_volume 3624.858339
_symmetry_space_group_name_H-M "P -6 2 C"
_symmetry_group_IT_number 190
_symmetry_cell_setting 'hexagonal'
loop_
_space_group_symop_operation_xyz
x,y,z
-x+y,-x,1/2-z
-y,x-y,z
x,y,1/2-z
-x+y,-x,z
-y,x-y,1/2-z
x-y,-y,-z
-x,-x+y,-z
y,x,-z
y,x,1/2+z
x-y,-y,1/2+z
-x,-x+y,1/2+z
loop_
_atom_site_type_symbol
_atom_site_label
_atom_site_fract_x
_atom_site_fract_y
_atom_site_fract_z
Si Si1 0.098544 0.687444 0.541588
Si Si2 0.666668 0.333334 0.639226
Si Si3 0.419161 0.870317 0.641705
Si Si4 0.976765 0.200380 0.643363
Si Si5 0.292135 0.789789 0.027088
Si Si6 0.961073 0.363612 0.644890
Si Si7 0.862261 0.097929 0.473591
O O1 0.120388 0.636527 0.623894
O O2 0.184400 0.724447 0.470762
O O3 0.097901 0.776756 0.574801
O O4 0.000000 0.617909 0.500000
O O5 0.666667 0.333334 0.750000
O O6 0.755647 0.337106 0.602292
O O7 0.390326 0.839683 0.750000
O O8 0.338721 0.797167 0.575750
O O9 0.433261 0.968018 0.621158
O O10 0.950444 0.159022 0.750000
O O11 0.011314 0.306084 0.645387
O O12 0.891579 0.152659 0.572963
O O13 0.059043 0.191565 0.603562
O O14 0.321548 0.888725 0.061814
O O15 0.918320 0.356558 0.750000
O O16 0.841200 0.000000 0.500000
#
# Coordination Sequence:
#
# PCOD8328130 Si02
#       7
#    12   4  12  12  12  12  12
#     4  11  23  42  65  94 132 173 215 265 331 383
#     4  12  27  42  61  95 127 168 219 261 325 386
#     4  11  25  41  65  98 130 170 219 264 321 387
#     4  10  21  40  67  98 124 166 222 271 322 384
#     4  12  22  43  65  91 129 171 208 270 321 377
#     4  10  21  39  68  96 121 163 217 269 317 379
#     4  10  22  40  64  92 132 173 213 266 331 401
#
# _framework density 20.966336999999999
#
# number of rings (size 3 to 8) (size 9 to 14) (size 15 to 20)
#    0.000    1.263    3.158    2.842    2.211    1.895 
#    3.789    3.158    0.000    0.000    0.000    0.000 
#    0.000    0.000    0.000    0.000    0.000    0.000 
#
# Total GULP energy -941915.869176 kJ/mol
# GULP energy per Si atom -12393.629858 kJ/mol
# Density = 2.091862 g / cm^3
# Si number density = 20.966337 Si / 1000 Ang^3
#
#
#
# Elastic Constant Matrix: (Units=GPa)
#
#
# Indices 1 2 3 4 5 6 
#
# 1 106.1125 34.8129 43.0935 0.0000 -0.0001 -0.0001
# 2 34.8129 106.1120 43.0940 -0.0001 0.0000 -0.0001
# 3 43.0935 43.0940 138.6097 -0.0001 0.0000 0.0002
# 4 0.0000 -0.0001 -0.0001 28.5755 0.0000 0.0000
# 5 -0.0001 0.0000 0.0000 0.0000 28.5755 0.0000
# 6 -0.0001 -0.0001 0.0002 0.0000 0.0000 35.6494
#
#
#
# Elastic Compliance Matrix: (Units=1/GPa)
#
#
# Indices 1 2 3 4 5 6 
#
# 1 0.011394 -0.002632 -0.002724 0.000000 0.000000 0.000000
# 2 -0.002632 0.011394 -0.002724 0.000000 0.000000 0.000000
# 3 -0.002724 -0.002724 0.008908 0.000000 0.000000 0.000000
# 4 0.000000 0.000000 0.000000 0.034995 0.000000 0.000000
# 5 0.000000 0.000000 0.000000 0.000000 0.034995 0.000000
# 6 0.000000 0.000000 0.000000 0.000000 0.000000 0.028051
#
#
# Mechanical properties :
#
#
# Convention : Reuss Voigt Hill
#
# Bulk Modulus (GPa) = 64.36699 65.87054 65.11877
# Shear Modulus (GPa) = 33.09612 33.88234 33.48923
#
# Velocity S-wave (km/s) = 3.97739 4.02436 4.00094
# Velocity P-wave (km/s) = 7.20136 7.28556 7.24359
#
# Compressibility (1/GPa) = 0.01553591
#
# Stress axis : x y z
#
# Youngs Moduli (GPa) = 87.76837 87.76761 112.25432
#
# Poissons Ratio (x) = 0.23098 0.30579
# Poissons Ratio (y) = 0.23098 0.30580
# Poissons Ratio (z) = 0.23909 0.23909
#
# Static dielectric constant tensor:
#      x y z
#    x 3.844300 0.000010 0.000000 
#    y 0.000010 3.844310 0.000000 
#    z 0.000000 0.000000 3.787790 
# 
# 
# High freq. dielectric constant tensor:
#      x y z
#    x 1.824090 0.000000 0.000000 
#    y 0.000000 1.824090 0.000000 
#    z 0.000000 0.000000 1.808210 
# 
# From -- ./inp_files/3082.got.cif
#   From: 2010.06.25/outbox.cif.g09.slc.cpg/sg190_2_cif.got.tgz:3082.got - 2010.06.28 13:08:06.
