data_PCOD8328132
_publ_section_title
;
Structure prediction by ZEFSAII (Michael W. Deem and Ramdas Pophale) SiO2 
 PCOD8328132
Probable space group: P -6 2 C
;
_chemical_formula_sum "Si O2"
_cell_formula_units_Z 48
_cell_length_a 17.441939
_cell_length_b 17.441939
_cell_length_c 9.129558
_cell_angle_alpha 90.000000
_cell_angle_beta 90.000000
_cell_angle_gamma 120.000000
_cell_volume 2405.303650
_symmetry_space_group_name_H-M "P -6 2 C"
_symmetry_group_IT_number 190
_symmetry_cell_setting 'hexagonal'
loop_
_space_group_symop_operation_xyz
x,y,z
-x+y,-x,1/2-z
-y,x-y,z
x,y,1/2-z
-x+y,-x,z
-y,x-y,1/2-z
x-y,-y,-z
-x,-x+y,-z
y,x,-z
y,x,1/2+z
x-y,-y,1/2+z
-x,-x+y,1/2+z
loop_
_atom_site_type_symbol
_atom_site_label
_atom_site_fract_x
_atom_site_fract_y
_atom_site_fract_z
Si Si1 0.791815 0.000000 0.500000
Si Si2 0.092085 0.421158 0.918865
Si Si3 0.499999 0.407516 0.418773
Si Si4 0.970950 0.889366 0.250000
Si Si5 0.767252 0.161194 0.581431
O O1 0.825752 0.953392 0.613356
O O2 0.772887 0.072211 0.573229
O O3 0.080404 0.390608 0.750000
O O4 0.133772 0.527717 0.928531
O O5 0.148682 0.387111 0.002663
O O6 0.000000 0.376827 0.000000
O O7 0.468308 0.389464 0.250000
O O8 0.449578 0.449578 0.500000
O O9 0.472840 0.315987 0.498373
O O10 0.903045 0.927983 0.250000
O O11 0.763794 0.184738 0.750000
#
# Coordination Sequence:
#
# PCOD8328132 Si02
#       5
#     6  12  12   6  12
#     4  12  24  42  64 100 128 170 230 274 324 394
#     4  10  23  43  66  95 127 167 210 267 332 389
#     4  10  21  40  67  92 125 164 206 261 323 387
#     4  10  24  44  64  86 128 182 220 274 336 382
#     4  12  25  40  65  99 132 172 219 270 324 396
#
# _framework density 19.955901999999998
#
# number of rings (size 3 to 8) (size 9 to 14) (size 15 to 20)
#    0.250    1.000    2.500    3.000    3.500    5.000 
#    1.500    0.000    0.000    0.000    0.000    0.000 
#    0.000    0.000    0.000    0.000    0.000    0.000 
#
# Total GULP energy -595159.564887 kJ/mol
# GULP energy per Si atom -12399.157602 kJ/mol
# Density = 1.991048 g / cm^3
# Si number density = 19.955902 Si / 1000 Ang^3
#
#
#
# Elastic Constant Matrix: (Units=GPa)
#
#
# Indices 1 2 3 4 5 6 
#
# 1 75.4665 24.8565 37.0592 0.0000 0.0000 0.0000
# 2 24.8565 75.4665 37.0592 0.0000 0.0000 0.0000
# 3 37.0592 37.0592 175.6792 0.0000 0.0000 0.0000
# 4 0.0000 0.0000 0.0000 25.5384 0.0000 0.0000
# 5 0.0000 0.0000 0.0000 0.0000 25.5384 0.0000
# 6 0.0000 0.0000 0.0000 0.0000 0.0000 25.3050
#
#
#
# Elastic Compliance Matrix: (Units=1/GPa)
#
#
# Indices 1 2 3 4 5 6 
#
# 1 0.015784 -0.003975 -0.002491 0.000000 0.000000 0.000000
# 2 -0.003975 0.015784 -0.002491 0.000000 0.000000 0.000000
# 3 -0.002491 -0.002491 0.006743 0.000000 0.000000 0.000000
# 4 0.000000 0.000000 0.000000 0.039157 0.000000 0.000000
# 5 0.000000 0.000000 0.000000 0.000000 0.039157 0.000000
# 6 0.000000 0.000000 0.000000 0.000000 0.000000 0.039518
#
#
# Mechanical properties :
#
#
# Convention : Reuss Voigt Hill
#
# Bulk Modulus (GPa) = 49.03006 58.28470 53.65738
# Shear Modulus (GPa) = 27.64653 30.45216 29.04935
#
# Velocity S-wave (km/s) = 3.72611 3.91061 3.81947
# Velocity P-wave (km/s) = 6.56768 7.04703 6.81157
#
# Compressibility (1/GPa) = 0.02039565
#
# Stress axis : x y z
#
# Youngs Moduli (GPa) = 63.35730 63.35730 148.29991
#
# Poissons Ratio (x) = 0.25187 0.36940
# Poissons Ratio (y) = 0.25187 0.36940
# Poissons Ratio (z) = 0.15782 0.15782
#
# Static dielectric constant tensor:
#      x y z
#    x 3.576870 0.000000 0.000000 
#    y 0.000000 3.576870 0.000000 
#    z 0.000000 0.000000 1.302460 
# 
# 
# High freq. dielectric constant tensor:
#      x y z
#    x 1.771300 0.000000 0.000000 
#    y 0.000000 1.771300 0.000000 
#    z 0.000000 0.000000 1.800940 
# 
# From -- ./inp_files/700.got.cif
#   From: 2010.06.25/outbox.cif.g09.slc.cpg/sg190_1_cif.got.tgz:700.got - 2010.06.28 13:08:06.
