data_PCOD8328551
_publ_section_title
;
Structure prediction by ZEFSAII (Michael W. Deem and Ramdas Pophale) SiO2 
 PCOD8328551
Probable space group: P 6/M M M
;
_chemical_formula_sum "Si O2"
_cell_formula_units_Z 132
_cell_length_a 18.983172
_cell_length_b 18.983172
_cell_length_c 26.086977
_cell_angle_alpha 90.000000
_cell_angle_beta 90.000000
_cell_angle_gamma 120.000000
_cell_volume 8141.266146
_symmetry_space_group_name_H-M "P 6/M M M"
_symmetry_group_IT_number 191
_symmetry_cell_setting 'hexagonal'
loop_
_space_group_symop_operation_xyz
x,y,z
x-y,x,z
-y,x-y,z
-x,-y,z
-x+y,-x,z
y,-x+y,z
x-y,-y,-z
-x,-x+y,-z
y,x,-z
-y,-x,-z
-x+y,y,-z
x,x-y,-z
-x,-y,-z
-x+y,-x,-z
y,-x+y,-z
x,y,-z
x-y,x,-z
-y,x-y,-z
-x+y,y,z
x,x-y,z
-y,-x,z
y,x,z
x-y,-y,z
-x,-x+y,z
loop_
_atom_site_type_symbol
_atom_site_label
_atom_site_fract_x
_atom_site_fract_y
_atom_site_fract_z
Si Si1 0.826861 0.333187 0.270989
Si Si2 0.908869 0.654337 0.208088
Si Si3 0.131575 0.422092 0.100135
Si Si4 0.583352 0.000000 0.441581
Si Si5 0.169242 0.666314 0.608637
Si Si6 0.678253 0.915779 0.000000
Si Si7 0.095359 0.547680 0.941952
O O1 0.841421 0.420711 0.252861
O O2 0.734322 0.265679 0.257648
O O3 0.888922 0.312833 0.242152
O O4 0.843120 0.333589 0.330978
O O5 0.840998 0.681995 0.216760
O O6 0.912719 0.632088 0.149305
O O7 0.000000 0.727516 0.222564
O O8 0.226303 0.452606 0.102365
O O9 0.124941 0.501356 0.095374
O O10 0.089761 0.372624 0.049356
O O11 0.653057 0.084582 0.415983
O O12 0.500000 0.000000 0.436737
O O13 0.609440 0.000000 0.500000
O O14 0.185857 0.592929 0.592910
O O15 0.247289 0.752712 0.590860
O O16 0.712578 0.856289 0.000000
O O17 0.760825 0.000000 0.000000
O O18 0.000000 0.500000 0.948794
O O19 0.133995 0.566998 0.000000
#
# Coordination Sequence:
#
# PCOD8328551 Si02
#       7
#    24  24  24  12  24  12  12
#     4   9  18  31  48  70  96 128 163 200 237 277
#     4  10  21  35  51  72  97 124 157 196 241 289
#     4  10  21  35  48  67  91 119 154 192 232 275
#     4   9  18  30  44  66  96 126 157 198 244 282
#     4   9  17  30  48  68  93 127 167 205 240 281
#     4  10  18  31  51  68  87 111 143 183 225 275
#     4  11  20  30  50  70  90 120 156 192 228 270
#
# _framework density 16.213692999999999
#
# number of rings (size 3 to 8) (size 9 to 14) (size 15 to 20)
#    0.000    2.364    0.909    2.000    2.545    2.182 
#    0.545    0.000    0.000    1.364    0.000    0.000 
#    0.000    4.364    0.000    0.273    0.000    1.545 
#
# Total GULP energy -1635741.841645 kJ/mol
# GULP energy per Si atom -12391.983649 kJ/mol
# Density = 1.617679 g / cm^3
# Si number density = 16.213693 Si / 1000 Ang^3
#
#
#
# Elastic Constant Matrix: (Units=GPa)
#
#
# Indices 1 2 3 4 5 6 
#
# 1 -93.9657 268.5931 30.7024 0.0000 0.0000 0.0000
# 2 268.5931 -93.9657 30.7024 0.0000 0.0000 0.0000
# 3 30.7024 30.7024 56.7608 0.0000 0.0000 0.0000
# 4 0.0000 0.0000 0.0000 25.8817 0.0000 0.0000
# 5 0.0000 0.0000 0.0000 0.0000 25.8817 0.0000
# 6 0.0000 0.0000 0.0000 0.0000 0.0000 -181.2794
#
#
#
# Elastic Compliance Matrix: (Units=1/GPa)
#
#
# Indices 1 2 3 4 5 6 
#
# 1 0.002157 0.004915 -0.003825 0.000000 0.000000 0.000000
# 2 0.004915 0.002157 -0.003825 0.000000 0.000000 0.000000
# 3 -0.003825 -0.003825 0.021756 0.000000 0.000000 0.000000
# 4 0.000000 0.000000 0.000000 0.038637 0.000000 0.000000
# 5 0.000000 0.000000 0.000000 0.000000 0.038637 0.000000
# 6 0.000000 0.000000 0.000000 0.000000 0.000000 -0.005516
#
#
# Mechanical properties :
#
#
# Convention : Reuss Voigt Hill
#
# Bulk Modulus (GPa) = 48.54689 58.75833 53.65261
# Shear Modulus (GPa) = 45.38687 -56.64777 -5.63045
#
# Velocity S-wave (km/s) = 5.29657 -5.91727 -1.86553
# Velocity P-wave (km/s) = 8.21047 3.21975 5.34065
#
# Compressibility (1/GPa) = 0.02059864
#
# Stress axis : x y z
#
# Youngs Moduli (GPa) = 463.68121 463.68121 45.96485
#
# Poissons Ratio (x) = -2.27891 0.17582
# Poissons Ratio (y) = -2.27891 0.17582
# Poissons Ratio (z) = 1.77359 1.77359
#
# Static dielectric constant tensor:
#      x y z
#    x 3.015550 0.000000 0.000000 
#    y 0.000000 3.015550 0.000000 
#    z 0.000000 0.000000 3.116260 
# 
# 
# High freq. dielectric constant tensor:
#      x y z
#    x 1.609420 0.000000 0.000000 
#    y 0.000000 1.609420 0.000000 
#    z 0.000000 0.000000 1.624750 
# 
# From -- ./inp_files/8724.got.cif
#   From: 2010.03.12/outbox.cif.g09.slc.cpg/sg191_5_cif.got.tgz:8724.got - 2010.04.01 12:09:02.
