data_PCOD8328963
_publ_section_title
;
Structure prediction by ZEFSAII (Michael W. Deem and Ramdas Pophale) SiO2 
 PCOD8328963
Probable space group: P 6/M M M
;
_chemical_formula_sum "Si O2"
_cell_formula_units_Z 168
_cell_length_a 17.869687
_cell_length_b 17.869687
_cell_length_c 35.512955
_cell_angle_alpha 90.000000
_cell_angle_beta 90.000000
_cell_angle_gamma 120.000000
_cell_volume 9820.901018
_symmetry_space_group_name_H-M "P 6/M M M"
_symmetry_group_IT_number 191
_symmetry_cell_setting 'hexagonal'
loop_
_space_group_symop_operation_xyz
x,y,z
x-y,x,z
-y,x-y,z
-x,-y,z
-x+y,-x,z
y,-x+y,z
x-y,-y,-z
-x,-x+y,-z
y,x,-z
-y,-x,-z
-x+y,y,-z
x,x-y,-z
-x,-y,-z
-x+y,-x,-z
y,-x+y,-z
x,y,-z
x-y,x,-z
-y,x-y,-z
-x+y,y,z
x,x-y,z
-y,-x,z
y,x,z
x-y,-y,z
-x,-x+y,z
loop_
_atom_site_type_symbol
_atom_site_label
_atom_site_fract_x
_atom_site_fract_y
_atom_site_fract_z
Si Si1 0.668385 0.159461 0.322003
Si Si2 0.093950 0.353829 0.957807
Si Si3 0.160963 0.666364 0.100885
Si Si4 0.531828 0.897697 0.541741
Si Si5 0.099329 0.366000 0.610110
Si Si6 0.367541 0.098057 0.252354
Si Si7 0.838210 0.332919 0.186428
O O1 0.573997 0.147994 0.323162
O O2 0.739516 0.260484 0.325215
O O3 0.677707 0.105749 0.356026
O O4 0.679626 0.119603 0.283599
O O5 0.161671 0.323342 0.946943
O O6 0.097185 0.422346 0.927968
O O7 0.000000 0.269248 0.955402
O O8 0.111457 0.394005 0.000000
O O9 0.157140 0.578570 0.090612
O O10 0.258095 0.741906 0.094321
O O11 0.130900 0.666098 0.143727
O O12 0.541564 0.866658 0.500000
O O13 0.430050 0.860100 0.550850
O O14 0.576108 0.866728 0.572404
O O15 0.578314 0.000000 0.542993
O O16 0.163657 0.327314 0.616921
O O17 0.000000 0.287834 0.606933
O O18 0.332265 0.166133 0.255004
O O19 0.412313 0.104371 0.212371
O O20 0.287795 0.000000 0.257336
O O21 0.851343 0.425672 0.198067
O O22 0.736958 0.263043 0.191241
#
# Coordination Sequence:
#
# PCOD8328963 Si02
#       7
#    24  24  24  24  24  24  24
#     4  10  20  33  50  73 101 130 156 182 216 263
#     4   9  18  32  48  65  86 113 145 182 226 274
#     4   9  17  29  45  66  93 125 158 188 217 252
#     4   8  14  26  45  68  92 117 146 181 222 271
#     4  10  20  32  47  68  93 122 157 198 241 280
#     4  10  21  35  50  69  93 122 155 192 233 273
#     4   9  17  29  46  68  95 126 157 187 219 258
#
# _framework density 17.106373999999999
#
# number of rings (size 3 to 8) (size 9 to 14) (size 15 to 20)
#    0.000    2.714    0.000    2.143    0.000    5.143 
#    0.000    3.571    0.000    1.571    0.000    1.000 
#    0.000    3.429    0.000   10.714    0.000    3.714 
#
# Total GULP energy -2082485.291754 kJ/mol
# GULP energy per Si atom -12395.745784 kJ/mol
# Density = 1.706744 g / cm^3
# Si number density = 17.106374 Si / 1000 Ang^3
#
#
#
# Elastic Constant Matrix: (Units=GPa)
#
#
# Indices 1 2 3 4 5 6 
#
# 1 81.3599 56.6551 36.1794 0.0000 0.0000 0.0000
# 2 56.6551 81.3599 36.1794 0.0000 0.0000 0.0000
# 3 36.1794 36.1794 88.1599 0.0000 0.0000 0.0000
# 4 0.0000 0.0000 0.0000 20.6523 0.0000 0.0000
# 5 0.0000 0.0000 0.0000 0.0000 20.6523 0.0000
# 6 0.0000 0.0000 0.0000 0.0000 0.0000 12.3524
#
#
#
# Elastic Compliance Matrix: (Units=1/GPa)
#
#
# Indices 1 2 3 4 5 6 
#
# 1 0.024855 -0.015623 -0.003789 0.000000 0.000000 0.000000
# 2 -0.015623 0.024855 -0.003789 0.000000 0.000000 0.000000
# 3 -0.003789 -0.003789 0.014453 0.000000 0.000000 0.000000
# 4 0.000000 0.000000 0.000000 0.048421 0.000000 0.000000
# 5 0.000000 0.000000 0.000000 0.000000 0.048421 0.000000
# 6 0.000000 0.000000 0.000000 0.000000 0.000000 0.080956
#
#
# Mechanical properties :
#
#
# Convention : Reuss Voigt Hill
#
# Bulk Modulus (GPa) = 56.30024 56.54527 56.42276
# Shear Modulus (GPa) = 16.99058 18.85580 17.92319
#
# Velocity S-wave (km/s) = 3.15498 3.32364 3.24041
# Velocity P-wave (km/s) = 6.80111 6.91778 6.85969
#
# Compressibility (1/GPa) = 0.01776191
#
# Stress axis : x y z
#
# Youngs Moduli (GPa) = 40.23353 40.23353 69.19174
#
# Poissons Ratio (x) = 0.62857 0.26214
# Poissons Ratio (y) = 0.62857 0.26214
# Poissons Ratio (z) = 0.15243 0.15243
#
# Static dielectric constant tensor:
#      x y z
#    x 3.040800 0.000000 0.000000 
#    y 0.000000 3.040800 0.000000 
#    z 0.000000 0.000000 3.522210 
# 
# 
# High freq. dielectric constant tensor:
#      x y z
#    x 1.637280 0.000000 0.000000 
#    y 0.000000 1.637280 0.000000 
#    z 0.000000 0.000000 1.679110 
# 
# From -- ./inp_files/10767.got.cif
#   From: 2010.03.12/outbox.cif.g09.slc.cpg/sg191_6_cif.got.tgz:10767.got - 2010.04.01 12:09:02.
