data_PCOD8328394
_publ_section_title
;
Structure prediction by ZEFSAII (Michael W. Deem and Ramdas Pophale) SiO2 
 PCOD8328394
Probable space group: P 6/M M M
;
_chemical_formula_sum "Si O2"
_cell_formula_units_Z 192
_cell_length_a 23.317173
_cell_length_b 23.317173
_cell_length_c 25.705718
_cell_angle_alpha 90.000000
_cell_angle_beta 90.000000
_cell_angle_gamma 120.000000
_cell_volume 12103.533051
_symmetry_space_group_name_H-M "P 6/M M M"
_symmetry_group_IT_number 191
_symmetry_cell_setting 'hexagonal'
loop_
_space_group_symop_operation_xyz
x,y,z
x-y,x,z
-y,x-y,z
-x,-y,z
-x+y,-x,z
y,-x+y,z
x-y,-y,-z
-x,-x+y,-z
y,x,-z
-y,-x,-z
-x+y,y,-z
x,x-y,-z
-x,-y,-z
-x+y,-x,-z
y,-x+y,-z
x,y,-z
x-y,x,-z
-y,x-y,-z
-x+y,y,z
x,x-y,z
-y,-x,z
y,x,z
x-y,-y,z
-x,-x+y,z
loop_
_atom_site_type_symbol
_atom_site_label
_atom_site_fract_x
_atom_site_fract_y
_atom_site_fract_z
Si Si1 0.459345 0.793021 0.439080
Si Si2 0.123849 0.744617 0.852616
Si Si3 0.265143 0.870311 0.443150
Si Si4 0.202042 0.925920 0.940441
Si Si5 0.474896 0.397584 0.825771
Si Si6 0.923642 0.283378 0.335796
Si Si7 0.717462 0.923225 0.241844
Si Si8 0.522677 0.921923 0.705253
O O1 0.447483 0.780380 0.500000
O O2 0.403257 0.806514 0.414600
O O3 0.454120 0.727060 0.413220
O O4 0.531727 0.857362 0.430257
O O5 0.201073 0.798928 0.848336
O O6 0.092214 0.752592 0.905547
O O7 0.117628 0.672642 0.854997
O O8 0.083698 0.751080 0.803909
O O9 0.276063 0.906035 0.500000
O O10 0.199724 0.800277 0.446413
O O11 0.259026 0.912253 0.395865
O O12 0.124378 0.875623 0.928402
O O13 0.217009 0.000000 0.927858
O O14 0.219312 0.919802 0.000000
O O15 0.548787 0.451213 0.846258
O O16 0.425913 0.425913 0.835455
O O17 0.478701 0.383715 0.765486
O O18 0.898920 0.222418 0.296060
O O19 0.889451 0.328427 0.324549
O O20 0.000000 0.329130 0.324247
O O21 0.746353 0.873177 0.232051
O O22 0.777116 0.000000 0.244117
O O23 0.446473 0.892946 0.685473
O O24 0.560594 0.000000 0.696483
#
# Coordination Sequence:
#
# PCOD8328394 Si02
#       8
#    24  24  24  24  24  24  24  24
#     4   8  13  22  37  54  69  88 119 159 198 233
#     4  10  18  28  45  69  95 119 150 188 224 267
#     4   9  18  30  40  52  73 100 129 161 200 248
#     4   9  17  28  43  64  92 127 161 193 231 274
#     4   9  15  25  43  64  87 114 145 181 218 258
#     4  10  18  28  43  60  80 104 133 170 207 248
#     4  10  19  30  46  68  91 113 138 174 217 256
#     4   8  14  24  38  57  81 107 133 165 205 245
#
# _framework density 15.863137
#
# number of rings (size 3 to 8) (size 9 to 14) (size 15 to 20)
#    0.000    2.875    1.250    3.125    0.000    1.250 
#    0.000    0.000    0.000    0.875    0.000    6.125 
#    0.000    3.000    0.000    0.125    0.000    0.000 
#
# Total GULP energy -2378609.083188 kJ/mol
# GULP energy per Si atom -12388.588975 kJ/mol
# Density = 1.582703 g / cm^3
# Si number density = 15.863137 Si / 1000 Ang^3
#
#
#
# Elastic Constant Matrix: (Units=GPa)
#
#
# Indices 1 2 3 4 5 6 
#
# 1 70.6555 37.0121 28.2061 0.0000 0.0000 0.0000
# 2 37.0121 70.6555 28.2061 0.0000 0.0000 0.0000
# 3 28.2061 28.2061 68.9840 0.0000 0.0000 0.0000
# 4 0.0000 0.0000 0.0000 18.1085 0.0000 0.0000
# 5 0.0000 0.0000 0.0000 0.0000 18.1085 0.0000
# 6 0.0000 0.0000 0.0000 0.0000 0.0000 16.8217
#
#
#
# Elastic Compliance Matrix: (Units=1/GPa)
#
#
# Indices 1 2 3 4 5 6 
#
# 1 0.020772 -0.008952 -0.004833 0.000000 0.000000 0.000000
# 2 -0.008952 0.020772 -0.004833 0.000000 0.000000 0.000000
# 3 -0.004833 -0.004833 0.018448 0.000000 0.000000 0.000000
# 4 0.000000 0.000000 0.000000 0.055223 0.000000 0.000000
# 5 0.000000 0.000000 0.000000 0.000000 0.055223 0.000000
# 6 0.000000 0.000000 0.000000 0.000000 0.000000 0.059447
#
#
# Mechanical properties :
#
#
# Convention : Reuss Voigt Hill
#
# Bulk Modulus (GPa) = 43.94336 44.12704 44.03520
# Shear Modulus (GPa) = 18.20134 18.39913 18.30023
#
# Velocity S-wave (km/s) = 3.39100 3.40938 3.40020
# Velocity P-wave (km/s) = 6.56457 6.58606 6.57532
#
# Compressibility (1/GPa) = 0.02275657
#
# Stress axis : x y z
#
# Youngs Moduli (GPa) = 48.14222 48.14222 54.20553
#
# Poissons Ratio (x) = 0.43096 0.26197
# Poissons Ratio (y) = 0.43096 0.26197
# Poissons Ratio (z) = 0.23267 0.23267
#
# Static dielectric constant tensor:
#      x y z
#    x 2.908560 0.000000 0.000000 
#    y 0.000000 2.908560 0.000000 
#    z 0.000000 0.000000 3.071740 
# 
# 
# High freq. dielectric constant tensor:
#      x y z
#    x 1.587340 0.000000 0.000000 
#    y 0.000000 1.587340 0.000000 
#    z 0.000000 0.000000 1.598330 
# 
# From -- ./inp_files/9406.got.cif
#   From: 2010.03.12/outbox.cif.g09.slc.cpg/sg191_5_cif.got.tgz:9406.got - 2010.04.01 12:09:02.
