data_PCOD8328149
_publ_section_title
;
Structure prediction by ZEFSAII (Michael W. Deem and Ramdas Pophale) SiO2 
 PCOD8328149
Probable space group: P -6 2 C
;
_chemical_formula_sum "Si O2"
_cell_formula_units_Z 64
_cell_length_a 13.967620
_cell_length_b 13.967620
_cell_length_c 19.430826
_cell_angle_alpha 90.000000
_cell_angle_beta 90.000000
_cell_angle_gamma 120.000000
_cell_volume 3282.968509
_symmetry_space_group_name_H-M "P -6 2 C"
_symmetry_group_IT_number 190
_symmetry_cell_setting 'hexagonal'
loop_
_space_group_symop_operation_xyz
x,y,z
-x+y,-x,1/2-z
-y,x-y,z
x,y,1/2-z
-x+y,-x,z
-y,x-y,1/2-z
x-y,-y,-z
-x,-x+y,-z
y,x,-z
y,x,1/2+z
x-y,-y,1/2+z
-x,-x+y,1/2+z
loop_
_atom_site_type_symbol
_atom_site_label
_atom_site_fract_x
_atom_site_fract_y
_atom_site_fract_z
Si Si1 0.120970 0.879030 0.830470
Si Si2 0.449054 0.334454 0.966966
Si Si3 0.000000 0.000000 0.167101
Si Si4 0.449054 0.114600 0.966966
Si Si5 0.065743 0.716309 0.173306
Si Si6 0.934258 0.283691 0.673306
O O1 0.110160 0.889840 0.750000
O O2 0.061135 0.938867 0.865705
O O3 0.056253 0.749002 0.849274
O O4 0.250998 0.943747 0.849273
O O5 0.430440 0.215220 0.990741
O O6 0.570062 0.429938 0.990962
O O7 0.444626 0.341333 0.883735
O O8 0.354220 0.354220 0.000000
O O9 0.000000 0.000000 0.250000
O O10 0.444626 0.103293 0.883735
O O11 0.354220 0.000000 0.000000
O O12 0.062911 0.667824 0.250000
O O13 0.151399 0.848601 0.173927
O O14 0.937089 0.332176 0.750000
#
# Coordination Sequence:
#
# PCOD8328149 Si02
#       6
#    12  12   4  12  12  12
#     4   9  14  22  40  69 105 141 170 201 247 310
#     4  10  22  39  58  79 106 143 185 228 274 326
#     4   9  12  18  36  63 103 149 175 189 229 308
#     4  10  22  39  58  79 106 143 185 228 274 326
#     4   9  17  29  48  76 106 137 176 219 266 320
#     4   9  17  29  48  76 106 137 176 219 266 320
#
# _framework density 19.494551000000001
#
# number of rings (size 3 to 8) (size 9 to 14) (size 15 to 20)
#    0.000    2.625    1.875    0.375    2.625    0.750 
#    0.000    0.000    0.000    2.625    0.000    0.000 
#    0.000    0.000    0.000    0.000    0.000    0.000 
#
# Total GULP energy -792909.306420 kJ/mol
# GULP energy per Si atom -12389.207913 kJ/mol
# Density = 1.945018 g / cm^3
# Si number density = 19.494551 Si / 1000 Ang^3
#
#
#
# Elastic Constant Matrix: (Units=GPa)
#
#
# Indices 1 2 3 4 5 6 
#
# 1 82.5552 43.7905 21.3400 0.0000 0.0000 0.0000
# 2 43.7905 82.5552 21.3400 0.0000 0.0000 0.0000
# 3 21.3400 21.3400 64.1613 0.0000 0.0000 0.0000
# 4 0.0000 0.0000 0.0000 21.6404 0.0000 0.0000
# 5 0.0000 0.0000 0.0000 0.0000 21.6404 0.0000
# 6 0.0000 0.0000 0.0000 0.0000 0.0000 19.3824
#
#
#
# Elastic Compliance Matrix: (Units=1/GPa)
#
#
# Indices 1 2 3 4 5 6 
#
# 1 0.017357 -0.008440 -0.002966 0.000000 0.000000 0.000000
# 2 -0.008440 0.017357 -0.002966 0.000000 0.000000 0.000000
# 3 -0.002966 -0.002966 0.017558 0.000000 0.000000 0.000000
# 4 0.000000 0.000000 0.000000 0.046210 0.000000 0.000000
# 5 0.000000 0.000000 0.000000 0.000000 0.046210 0.000000
# 6 0.000000 0.000000 0.000000 0.000000 0.000000 0.051593
#
#
# Mechanical properties :
#
#
# Convention : Reuss Voigt Hill
#
# Bulk Modulus (GPa) = 42.50066 44.69031 43.59548
# Shear Modulus (GPa) = 21.47119 22.05273 21.76196
#
# Velocity S-wave (km/s) = 3.32233 3.36702 3.34475
# Velocity P-wave (km/s) = 6.04696 6.17171 6.10966
#
# Compressibility (1/GPa) = 0.02352905
#
# Stress axis : x y z
#
# Youngs Moduli (GPa) = 57.61492 57.61492 56.95252
#
# Poissons Ratio (x) = 0.48627 0.16890
# Poissons Ratio (y) = 0.48627 0.16890
# Poissons Ratio (z) = 0.17087 0.17087
#
# Static dielectric constant tensor:
#      x y z
#    x 3.425870 0.000000 0.000000 
#    y 0.000000 3.425870 0.000000 
#    z 0.000000 0.000000 3.347890 
# 
# 
# High freq. dielectric constant tensor:
#      x y z
#    x 1.738920 0.000000 0.000000 
#    y 0.000000 1.738920 0.000000 
#    z 0.000000 0.000000 1.737230 
# 
# From -- ./inp_files/3679.got.cif
#   From: 2010.06.25/outbox.cif.g09.slc.cpg/sg190_2_cif.got.tgz:3679.got - 2010.06.28 13:08:06.
