data_PCOD8328178
_publ_section_title
;
Structure prediction by ZEFSAII (Michael W. Deem and Ramdas Pophale) SiO2 
 PCOD8328178
Probable space group: P -6 2 C
;
_chemical_formula_sum "Si O2"
_cell_formula_units_Z 40
_cell_length_a 9.678338
_cell_length_b 9.678338
_cell_length_c 21.879571
_cell_angle_alpha 90.000000
_cell_angle_beta 90.000000
_cell_angle_gamma 120.000000
_cell_volume 1774.888209
_symmetry_space_group_name_H-M "P -6 2 C"
_symmetry_group_IT_number 190
_symmetry_cell_setting 'hexagonal'
loop_
_space_group_symop_operation_xyz
x,y,z
-x+y,-x,1/2-z
-y,x-y,z
x,y,1/2-z
-x+y,-x,z
-y,x-y,1/2-z
x-y,-y,-z
-x,-x+y,-z
y,x,-z
y,x,1/2+z
x-y,-y,1/2+z
-x,-x+y,1/2+z
loop_
_atom_site_type_symbol
_atom_site_label
_atom_site_fract_x
_atom_site_fract_y
_atom_site_fract_z
Si Si1 0.014622 0.615108 0.750000
Si Si2 0.849898 0.348954 0.040359
Si Si3 0.076317 0.338992 0.250000
Si Si4 0.000000 0.000000 0.427323
Si Si5 0.303598 0.131236 0.146292
O O1 0.826815 0.560313 0.750000
O O2 0.020049 0.453903 0.750000
O O3 0.096142 0.711128 0.811783
O O4 0.816771 0.496227 0.028208
O O5 0.887309 0.328549 0.110696
O O6 0.000000 0.372968 0.000000
O O7 0.021856 0.227924 0.190039
O O8 0.948296 0.822145 0.403402
O O9 0.000000 0.000000 0.500000
#
# Coordination Sequence:
#
# PCOD8328178 Si02
#       5
#     6  12   6   4  12
#     4  11  23  42  72 102 145 185 238 294 386 435
#     4  10  24  46  72 103 144 191 247 297 366 431
#     4  11  23  42  68 102 137 183 228 294 376 433
#     4  12  24  40  74 103 141 195 250 299 379 429
#     4  11  23  44  71 102 143 181 238 310 356 453
#
# _framework density 22.536632999999998
#
# number of rings (size 3 to 8) (size 9 to 14) (size 15 to 20)
#    0.600    0.600    3.000    3.000    0.000    3.600 
#   12.600    0.000    0.000    0.600    0.000    0.000 
#    0.000    0.000    0.000    0.000    0.000    0.000 
#
# Total GULP energy -495550.901827 kJ/mol
# GULP energy per Si atom -12388.772546 kJ/mol
# Density = 2.248534 g / cm^3
# Si number density = 22.536633 Si / 1000 Ang^3
#
#
#
# Elastic Constant Matrix: (Units=GPa)
#
#
# Indices 1 2 3 4 5 6 
#
# 1 93.2228 20.1944 58.1639 0.0000 0.0000 0.0000
# 2 20.1944 93.2228 58.1639 0.0000 0.0000 0.0000
# 3 58.1639 58.1639 175.3806 0.0000 0.0000 0.0000
# 4 0.0000 0.0000 0.0000 27.5769 0.0000 0.0000
# 5 0.0000 0.0000 0.0000 0.0000 27.5769 0.0000
# 6 0.0000 0.0000 0.0000 0.0000 0.0000 36.5142
#
#
#
# Elastic Compliance Matrix: (Units=1/GPa)
#
#
# Indices 1 2 3 4 5 6 
#
# 1 0.013528 -0.000166 -0.004431 0.000000 0.000000 0.000000
# 2 -0.000166 0.013528 -0.004431 0.000000 0.000000 0.000000
# 3 -0.004431 -0.004431 0.008641 0.000000 0.000000 0.000000
# 4 0.000000 0.000000 0.000000 0.036262 0.000000 0.000000
# 5 0.000000 0.000000 0.000000 0.000000 0.036262 0.000000
# 6 0.000000 0.000000 0.000000 0.000000 0.000000 0.027387
#
#
# Mechanical properties :
#
#
# Convention : Reuss Voigt Hill
#
# Bulk Modulus (GPa) = 56.69031 70.54118 63.61575
# Shear Modulus (GPa) = 31.33917 33.35388 32.34653
#
# Velocity S-wave (km/s) = 3.73310 3.85123 3.79263
# Velocity P-wave (km/s) = 6.61746 7.15155 6.88968
#
# Compressibility (1/GPa) = 0.01763970
#
# Stress axis : x y z
#
# Youngs Moduli (GPa) = 73.92202 73.92202 115.72412
#
# Poissons Ratio (x) = 0.01224 0.51283
# Poissons Ratio (y) = 0.01224 0.51283
# Poissons Ratio (z) = 0.32759 0.32759
#
# Static dielectric constant tensor:
#      x y z
#    x 3.795250 0.000000 0.000000 
#    y 0.000000 3.795250 0.000000 
#    z 0.000000 0.000000 4.005660 
# 
# 
# High freq. dielectric constant tensor:
#      x y z
#    x 1.880070 0.000000 0.000000 
#    y 0.000000 1.880070 0.000000 
#    z 0.000000 0.000000 1.892770 
# 
# From -- ./inp_files/3447.got.cif
#   From: 2010.06.25/outbox.cif.g09.slc.cpg/sg190_2_cif.got.tgz:3447.got - 2010.06.28 13:08:06.
