data_PCOD8328030
_publ_section_title
;
Structure prediction by ZEFSAII (Michael W. Deem and Ramdas Pophale) SiO2 
 PCOD8328030
Probable space group: P -6 2 C
;
_chemical_formula_sum "Si O2"
_cell_formula_units_Z 58
_cell_length_a 13.938214
_cell_length_b 13.938214
_cell_length_c 14.493020
_cell_angle_alpha 90.000000
_cell_angle_beta 90.000000
_cell_angle_gamma 120.000000
_cell_volume 2438.393430
_symmetry_space_group_name_H-M "P -6 2 C"
_symmetry_group_IT_number 190
_symmetry_cell_setting 'hexagonal'
loop_
_space_group_symop_operation_xyz
x,y,z
-x+y,-x,1/2-z
-y,x-y,z
x,y,1/2-z
-x+y,-x,z
-y,x-y,1/2-z
x-y,-y,-z
-x,-x+y,-z
y,x,-z
y,x,1/2+z
x-y,-y,1/2+z
-x,-x+y,1/2+z
loop_
_atom_site_type_symbol
_atom_site_label
_atom_site_fract_x
_atom_site_fract_y
_atom_site_fract_z
Si Si1 0.333334 0.666668 0.361852
Si Si2 0.779960 0.790550 0.358694
Si Si3 0.579799 0.016333 0.395911
Si Si4 0.441671 0.800148 0.750000
Si Si5 0.338429 0.876009 0.148224
Si Si6 0.792766 0.014466 0.141951
O O1 0.333334 0.666668 0.250000
O O2 0.454419 0.696063 0.400905
O O3 0.779008 0.772495 0.250000
O O4 0.657016 0.709251 0.402011
O O5 0.871264 0.763433 0.402046
O O6 0.817800 0.917090 0.382383
O O7 0.632850 0.135861 0.345614
O O8 0.672365 0.979834 0.398310
O O9 0.532035 0.000000 0.500000
O O10 0.470621 0.938913 0.337605
O O11 0.452611 0.689078 0.750000
O O12 0.283997 0.849411 0.250000
O O13 0.786967 0.029933 0.250000
#
# Coordination Sequence:
#
# PCOD8328030 Si02
#       6
#     4  12  12   6  12  12
#     4   9  18  33  57  87 123 169 215 286 369 462
#     4   9  19  32  63  94 124 176 226 280 357 452
#     4  12  25  43  69 105 140 187 258 320 376 463
#     4  10  26  50  80 100 152 214 266 314 406 494
#     4  10  19  36  59  86 128 178 229 285 377 438
#     4  10  19  38  63  95 138 177 232 301 374 446
#
# _framework density 23.786155000000001
#
# number of rings (size 3 to 8) (size 9 to 14) (size 15 to 20)
#    0.207    1.655    2.069    1.655    2.897    4.966 
#    7.448    1.034    0.000    0.000    0.000    0.000 
#    0.000    0.000    0.000    0.000    0.000    0.000 
#
# Total GULP energy -718541.432624 kJ/mol
# GULP energy per Si atom -12388.645390 kJ/mol
# Density = 2.373202 g / cm^3
# Si number density = 23.786155 Si / 1000 Ang^3
#
#
#
# Elastic Constant Matrix: (Units=GPa)
#
#
# Indices 1 2 3 4 5 6 
#
# 1 112.3160 81.8573 2.3506 -0.0001 0.0000 -0.0003
# 2 81.8573 112.3141 2.3508 0.0001 0.0000 -0.0002
# 3 2.3506 2.3508 79.9942 0.0000 0.0000 0.0000
# 4 -0.0001 0.0001 0.0000 -0.5763 0.0000 0.0000
# 5 0.0000 0.0000 0.0000 0.0000 -0.5762 0.0001
# 6 -0.0003 -0.0002 0.0000 0.0000 0.0001 15.2285
#
#
#
# Elastic Compliance Matrix: (Units=1/GPa)
#
#
# Indices 1 2 3 4 5 6 
#
# 1 0.018993 -0.013839 -0.000151 -0.000005 -0.000001 0.000000
# 2 -0.013839 0.018993 -0.000151 0.000006 0.000000 0.000000
# 3 -0.000151 -0.000151 0.012510 0.000001 0.000000 0.000000
# 4 -0.000005 0.000006 0.000001 -1.735180 -0.000007 -0.000001
# 5 -0.000001 0.000000 0.000000 -0.000007 -1.735530 0.000011
# 6 0.000000 0.000000 0.000000 -0.000001 0.000011 0.065666
#
#
# Mechanical properties :
#
#
# Convention : Reuss Voigt Hill
#
# Bulk Modulus (GPa) = 45.02178 53.08244 49.05211
# Shear Modulus (GPa) = -1.50654 17.35290 7.92318
#
# Velocity S-wave (km/s) = -0.79671 2.70393 1.82708
# Velocity P-wave (km/s) = 4.25705 5.66686 5.01177
#
# Compressibility (1/GPa) = 0.02221147
#
# Stress axis : x y z
#
# Youngs Moduli (GPa) = 52.65123 52.65035 79.93730
#
# Poissons Ratio (x) = 0.72865 0.01210
# Poissons Ratio (y) = 0.72866 0.01211
# Poissons Ratio (z) = 0.00797 0.00798
#
# Static dielectric constant tensor:
#      x y z
#    x 4.487790 0.000000 0.000000 
#    y 0.000000 4.487800 0.000000 
#    z 0.000000 0.000000 3.825060 
# 
# 
# High freq. dielectric constant tensor:
#      x y z
#    x 1.949750 0.000000 0.000000 
#    y 0.000000 1.949750 0.000000 
#    z 0.000000 0.000000 1.897170 
# 
# From -- ./inp_files/2877.got.cif
#   From: 2010.06.25/outbox.cif.g09.slc.cpg/sg190_2_cif.got.tgz:2877.got - 2010.06.28 13:08:06.
