data_PCOD8328164
_publ_section_title
;
Structure prediction by ZEFSAII (Michael W. Deem and Ramdas Pophale) SiO2 
 PCOD8328164
Probable space group: P -6 2 C
;
_chemical_formula_sum "Si O2"
_cell_formula_units_Z 52
_cell_length_a 14.003423
_cell_length_b 14.003423
_cell_length_c 16.760845
_cell_angle_alpha 90.000000
_cell_angle_beta 90.000000
_cell_angle_gamma 120.000000
_cell_volume 2846.393618
_symmetry_space_group_name_H-M "P -6 2 C"
_symmetry_group_IT_number 190
_symmetry_cell_setting 'hexagonal'
loop_
_space_group_symop_operation_xyz
x,y,z
-x+y,-x,1/2-z
-y,x-y,z
x,y,1/2-z
-x+y,-x,z
-y,x-y,1/2-z
x-y,-y,-z
-x,-x+y,-z
y,x,-z
y,x,1/2+z
x-y,-y,1/2+z
-x,-x+y,1/2+z
loop_
_atom_site_type_symbol
_atom_site_label
_atom_site_fract_x
_atom_site_fract_y
_atom_site_fract_z
Si Si1 0.470136 0.763620 0.250000
Si Si2 0.492806 0.000000 0.500000
Si Si3 0.253203 0.886720 0.967267
Si Si4 0.598688 0.889886 0.097108
Si Si5 0.000000 0.000000 0.344222
Si Si6 0.167456 0.245176 0.844499
O O1 0.420114 0.631025 0.250000
O O2 0.543267 0.811702 0.172032
O O3 0.377496 0.905791 0.540026
O O4 0.528528 0.946038 0.430410
O O5 0.195180 0.860129 0.881015
O O6 0.181845 0.786007 0.025684
O O7 0.262249 0.000000 0.000000
O O8 0.718590 0.983713 0.121255
O O9 0.124549 0.075278 0.374430
O O10 0.000000 0.000000 0.250000
O O11 0.172260 0.258929 0.750000
#
# Coordination Sequence:
#
# PCOD8328164 Si02
#       6
#     6   6  12  12   4  12
#     4  10  24  38  62  94 116 160 214 276 310 362
#     4  10  24  40  64  90 122 176 204 262 318 366
#     4  10  23  40  62  95 121 169 213 256 316 375
#     4  12  20  43  63  91 129 161 213 262 317 374
#     4   9  21  36  58  98 127 166 197 256 321 376
#     4  11  21  39  64  92 133 164 205 260 321 383
#
# _framework density 18.268730999999999
#
# number of rings (size 3 to 8) (size 9 to 14) (size 15 to 20)
#    0.923    0.462    3.462    2.769    0.000    0.000 
#    5.538    2.308    0.000    0.000    0.000    0.000 
#    0.000    0.000    0.000    0.000    0.000    0.000 
#
# Total GULP energy -644623.430294 kJ/mol
# GULP energy per Si atom -12396.604429 kJ/mol
# Density = 1.822715 g / cm^3
# Si number density = 18.268731 Si / 1000 Ang^3
#
#
#
# Elastic Constant Matrix: (Units=GPa)
#
#
# Indices 1 2 3 4 5 6 
#
# 1 105.0723 31.2414 60.2538 0.0000 0.0000 0.0000
# 2 31.2414 105.0723 60.2538 0.0000 0.0000 0.0000
# 3 60.2538 60.2538 61.1731 0.0000 0.0000 0.0000
# 4 0.0000 0.0000 0.0000 34.0755 0.0000 0.0000
# 5 0.0000 0.0000 0.0000 0.0000 34.0755 0.0000
# 6 0.0000 0.0000 0.0000 0.0000 0.0000 36.9155
#
#
#
# Elastic Compliance Matrix: (Units=1/GPa)
#
#
# Indices 1 2 3 4 5 6 
#
# 1 0.035154 0.021609 -0.055910 0.000000 0.000000 0.000000
# 2 0.021609 0.035154 -0.055910 0.000000 0.000000 0.000000
# 3 -0.055910 -0.055910 0.126487 0.000000 0.000000 0.000000
# 4 0.000000 0.000000 0.000000 0.029347 0.000000 0.000000
# 5 0.000000 0.000000 0.000000 0.000000 0.029347 0.000000
# 6 0.000000 0.000000 0.000000 0.000000 0.000000 0.027089
#
#
# Mechanical properties :
#
#
# Convention : Reuss Voigt Hill
#
# Bulk Modulus (GPa) = 61.07729 63.86842 62.47286
# Shear Modulus (GPa) = 10.67337 28.98452 19.82895
#
# Velocity S-wave (km/s) = 2.41973 3.98749 3.29812
# Velocity P-wave (km/s) = 6.42745 7.49910 6.98386
#
# Compressibility (1/GPa) = 0.01637270
#
# Stress axis : x y z
#
# Youngs Moduli (GPa) = 28.44646 28.44646 7.90597
#
# Poissons Ratio (x) = -0.61471 0.44202
# Poissons Ratio (y) = -0.61471 0.44202
# Poissons Ratio (z) = 1.59044 1.59044
#
# Static dielectric constant tensor:
#      x y z
#    x 3.443360 0.000000 0.000000 
#    y 0.000000 3.443360 0.000000 
#    z 0.000000 0.000000 3.261420 
# 
# 
# High freq. dielectric constant tensor:
#      x y z
#    x 1.712600 0.000000 0.000000 
#    y 0.000000 1.712600 0.000000 
#    z 0.000000 0.000000 1.704810 
# 
# From -- ./inp_files/2757.got.cif
#   From: 2010.06.25/outbox.cif.g09.slc.cpg/sg190_2_cif.got.tgz:2757.got - 2010.06.28 13:08:06.
