data_PCOD8328761
_publ_section_title
;
Structure prediction by ZEFSAII (Michael W. Deem and Ramdas Pophale) SiO2 
 PCOD8328761
Probable space group: P 6/M M M
;
_chemical_formula_sum "Si O2"
_cell_formula_units_Z 168
_cell_length_a 29.417107
_cell_length_b 29.417107
_cell_length_c 13.197453
_cell_angle_alpha 90.000000
_cell_angle_beta 90.000000
_cell_angle_gamma 120.000000
_cell_volume 9890.555313
_symmetry_space_group_name_H-M "P 6/M M M"
_symmetry_group_IT_number 191
_symmetry_cell_setting 'hexagonal'
loop_
_space_group_symop_operation_xyz
x,y,z
x-y,x,z
-y,x-y,z
-x,-y,z
-x+y,-x,z
y,-x+y,z
x-y,-y,-z
-x,-x+y,-z
y,x,-z
-y,-x,-z
-x+y,y,-z
x,x-y,-z
-x,-y,-z
-x+y,-x,-z
y,-x+y,-z
x,y,-z
x-y,x,-z
-y,x-y,-z
-x+y,y,z
x,x-y,z
-y,-x,z
y,x,z
x-y,-y,z
-x,-x+y,z
loop_
_atom_site_type_symbol
_atom_site_label
_atom_site_fract_x
_atom_site_fract_y
_atom_site_fract_z
Si Si1 0.139618 0.518132 0.884038
Si Si2 0.255660 0.410213 0.612378
Si Si3 0.482381 0.688813 0.292511
Si Si4 0.060421 0.226495 0.779290
Si Si5 0.661126 0.060211 0.884515
Si Si6 0.665299 0.435129 0.500000
Si Si7 0.059962 0.326864 0.717137
Si Si8 0.846454 0.790318 0.000000
O O1 0.118681 0.559341 0.872405
O O2 0.188384 0.535547 0.807523
O O3 0.093521 0.460208 0.853774
O O4 0.158536 0.519057 0.000000
O O5 0.274612 0.434360 0.500000
O O6 0.193208 0.386415 0.623300
O O7 0.284528 0.455035 0.696178
O O8 0.268517 0.363886 0.627148
O O9 0.464896 0.732448 0.278121
O O10 0.457459 0.654996 0.395457
O O11 0.105457 0.210914 0.751138
O O12 0.072022 0.279290 0.723364
O O13 0.000000 0.179011 0.755569
O O14 0.064946 0.243148 0.898038
O O15 0.713005 0.074594 0.819399
O O16 0.616886 0.000000 0.867578
O O17 0.680810 0.071401 0.000000
O O18 0.627329 0.372672 0.500000
O O19 0.725737 0.451473 0.500000
O O20 0.000000 0.305270 0.686767
O O21 0.841459 0.841459 0.000000
O O22 0.908373 0.816746 0.000000
#
# Coordination Sequence:
#
# PCOD8328761 Si02
#       8
#    24  24  24  24  24  12  24  12
#     4  10  20  34  52  73  98 130 165 200 242 293
#     4  10  19  33  51  69  94 126 160 199 241 287
#     4  10  19  33  51  73  99 125 158 198 245 295
#     4   9  17  28  43  65  93 126 164 204 248 295
#     4   9  18  31  47  69  97 127 159 198 241 280
#     4  10  19  32  52  76  97 119 151 197 248 293
#     4  10  19  30  48  70  96 128 160 197 241 291
#     4   8  14  24  38  57  84 118 153 191 235 283
#
# _framework density 16.985901999999999
#
# number of rings (size 3 to 8) (size 9 to 14) (size 15 to 20)
#    0.000    2.429    2.143    0.929    1.000    0.857 
#    0.000    1.429    0.000    0.500    0.000    2.000 
#    0.000    4.571    0.000    0.000    0.000    0.000 
#
# Total GULP energy -2081512.389264 kJ/mol
# GULP energy per Si atom -12389.954698 kJ/mol
# Density = 1.694724 g / cm^3
# Si number density = 16.985902 Si / 1000 Ang^3
#
#
#
# Elastic Constant Matrix: (Units=GPa)
#
#
# Indices 1 2 3 4 5 6 
#
# 1 78.3152 31.5545 26.4233 0.0000 0.0000 0.0000
# 2 31.5545 78.3152 26.4233 0.0000 0.0000 0.0000
# 3 26.4233 26.4233 67.3361 0.0000 0.0000 0.0000
# 4 0.0000 0.0000 0.0000 23.0344 0.0000 0.0000
# 5 0.0000 0.0000 0.0000 0.0000 23.0344 0.0000
# 6 0.0000 0.0000 0.0000 0.0000 0.0000 23.3803
#
#
#
# Elastic Compliance Matrix: (Units=1/GPa)
#
#
# Indices 1 2 3 4 5 6 
#
# 1 0.016302 -0.005083 -0.004403 0.000000 0.000000 0.000000
# 2 -0.005083 0.016302 -0.004403 0.000000 0.000000 0.000000
# 3 -0.004403 -0.004403 0.018306 0.000000 0.000000 0.000000
# 4 0.000000 0.000000 0.000000 0.043413 0.000000 0.000000
# 5 0.000000 0.000000 0.000000 0.000000 0.043413 0.000000
# 6 0.000000 0.000000 0.000000 0.000000 0.000000 0.042771
#
#
# Mechanical properties :
#
#
# Convention : Reuss Voigt Hill
#
# Bulk Modulus (GPa) = 43.22556 43.64095 43.43326
# Shear Modulus (GPa) = 23.14853 23.19418 23.17136
#
# Velocity S-wave (km/s) = 3.69563 3.69927 3.69745
# Velocity P-wave (km/s) = 6.61161 6.63282 6.62223
#
# Compressibility (1/GPa) = 0.02313446
#
# Stress axis : x y z
#
# Youngs Moduli (GPa) = 61.34067 61.34067 54.62664
#
# Poissons Ratio (x) = 0.31180 0.24050
# Poissons Ratio (y) = 0.31180 0.24050
# Poissons Ratio (z) = 0.27006 0.27006
#
# Static dielectric constant tensor:
#      x y z
#    x 3.109330 0.000000 0.000000 
#    y 0.000000 3.109330 0.000000 
#    z 0.000000 0.000000 3.121240 
# 
# 
# High freq. dielectric constant tensor:
#      x y z
#    x 1.644880 0.000000 0.000000 
#    y 0.000000 1.644880 0.000000 
#    z 0.000000 0.000000 1.646990 
# 
# From -- ./inp_files/3654.got.cif
#   From: 2010.03.12/outbox.cif.g09.slc.cpg/sg191_2_cif.got.tgz:3654.got - 2010.04.01 12:09:02.
