data_PCOD8328576
_publ_section_title
;
Structure prediction by ZEFSAII (Michael W. Deem and Ramdas Pophale) SiO2 
 PCOD8328576
Probable space group: P 6/M M M
;
_chemical_formula_sum "Si O2"
_cell_formula_units_Z 192
_cell_length_a 22.469223
_cell_length_b 22.469223
_cell_length_c 27.971374
_cell_angle_alpha 90.000000
_cell_angle_beta 90.000000
_cell_angle_gamma 120.000000
_cell_volume 12229.833398
_symmetry_space_group_name_H-M "P 6/M M M"
_symmetry_group_IT_number 191
_symmetry_cell_setting 'hexagonal'
loop_
_space_group_symop_operation_xyz
x,y,z
x-y,x,z
-y,x-y,z
-x,-y,z
-x+y,-x,z
y,-x+y,z
x-y,-y,-z
-x,-x+y,-z
y,x,-z
-y,-x,-z
-x+y,y,-z
x,x-y,-z
-x,-y,-z
-x+y,-x,-z
y,-x+y,-z
x,y,-z
x-y,x,-z
-y,x-y,-z
-x+y,y,z
x,x-y,z
-y,-x,z
y,x,z
x-y,-y,z
-x,-x+y,z
loop_
_atom_site_type_symbol
_atom_site_label
_atom_site_fract_x
_atom_site_fract_y
_atom_site_fract_z
Si Si1 0.467673 0.076380 0.553653
Si Si2 0.191165 0.667184 0.628480
Si Si3 0.474669 0.080931 0.909619
Si Si4 0.924612 0.532384 0.802957
Si Si5 0.846995 0.288672 0.275963
Si Si6 0.207448 0.281854 0.137649
Si Si7 0.620410 0.742657 0.947290
Si Si8 0.921131 0.213610 0.754243
O O1 0.450756 0.090199 0.500000
O O2 0.537999 0.075998 0.553834
O O3 0.477024 0.139039 0.586753
O O4 0.407417 0.000000 0.570896
O O5 0.199318 0.599659 0.631690
O O6 0.266121 0.733880 0.619683
O O7 0.154619 0.674609 0.675492
O O8 0.555446 0.110892 0.918804
O O9 0.460605 0.097997 0.856120
O O10 0.448576 0.117621 0.946307
O O11 0.434316 0.000000 0.918401
O O12 0.930945 0.465473 0.800375
O O13 0.867977 0.524839 0.765911
O O14 0.000000 0.597781 0.790742
O O15 0.771713 0.228288 0.262912
O O16 0.899433 0.258745 0.278797
O O17 0.128726 0.257451 0.126644
O O18 0.213634 0.213634 0.137396
O O19 0.255411 0.330568 0.095273
O O20 0.230646 0.317235 0.190100
O O21 0.598958 0.799479 0.937724
O O22 0.654861 0.752708 0.000000
O O23 0.868297 0.131704 0.744963
O O24 0.000000 0.233952 0.742370
#
# Coordination Sequence:
#
# PCOD8328576 Si02
#       8
#    24  24  24  24  24  24  24  24
#     4   8  15  29  47  65  85 110 143 184 227 268
#     4  10  20  32  45  63  89 120 153 188 226 267
#     4   9  18  31  46  64  83 102 126 160 203 247
#     4   9  17  29  44  61  81 104 132 167 204 244
#     4  10  19  28  40  61  87 114 144 176 210 248
#     4   9  17  29  45  64  86 112 139 167 202 244
#     4  10  20  31  43  61  83 105 130 161 198 241
#     4   9  17  29  45  64  86 112 141 173 209 251
#
# _framework density 15.699315
#
# number of rings (size 3 to 8) (size 9 to 14) (size 15 to 20)
#    0.000    2.750    0.000    3.125    0.000    6.000 
#    0.000    1.875    0.000    1.500    0.000    1.750 
#    0.000    0.000    0.000    3.125    0.000    3.250 
#
# Total GULP energy -2379182.444866 kJ/mol
# GULP energy per Si atom -12391.575234 kJ/mol
# Density = 1.566358 g / cm^3
# Si number density = 15.699315 Si / 1000 Ang^3
#
#
#
# Elastic Constant Matrix: (Units=GPa)
#
#
# Indices 1 2 3 4 5 6 
#
# 1 71.3521 35.1837 41.8380 0.0000 0.0000 0.0000
# 2 35.1837 71.3521 41.8380 0.0000 0.0000 0.0000
# 3 41.8380 41.8380 63.4429 0.0000 0.0000 0.0000
# 4 0.0000 0.0000 0.0000 17.3853 0.0000 0.0000
# 5 0.0000 0.0000 0.0000 0.0000 17.3853 0.0000
# 6 0.0000 0.0000 0.0000 0.0000 0.0000 18.0842
#
#
#
# Elastic Compliance Matrix: (Units=1/GPa)
#
#
# Indices 1 2 3 4 5 6 
#
# 1 0.023560 -0.004088 -0.012841 0.000000 0.000000 0.000000
# 2 -0.004088 0.023560 -0.012841 0.000000 0.000000 0.000000
# 3 -0.012841 -0.012841 0.032699 0.000000 0.000000 0.000000
# 4 0.000000 0.000000 0.000000 0.057520 0.000000 0.000000
# 5 0.000000 0.000000 0.000000 0.000000 0.057520 0.000000
# 6 0.000000 0.000000 0.000000 0.000000 0.000000 0.055297
#
#
# Mechanical properties :
#
#
# Convention : Reuss Voigt Hill
#
# Bulk Modulus (GPa) = 49.31322 49.31852 49.31587
# Shear Modulus (GPa) = 15.79995 16.39011 16.09503
#
# Velocity S-wave (km/s) = 3.17584 3.23461 3.20536
# Velocity P-wave (km/s) = 6.70277 6.74039 6.72161
#
# Compressibility (1/GPa) = 0.02027854
#
# Stress axis : x y z
#
# Youngs Moduli (GPa) = 42.44404 42.44404 30.58218
#
# Poissons Ratio (x) = 0.17351 0.39271
# Poissons Ratio (y) = 0.17351 0.39271
# Poissons Ratio (z) = 0.54503 0.54503
#
# Static dielectric constant tensor:
#      x y z
#    x 3.029760 0.000000 0.000000 
#    y 0.000000 3.029760 0.000000 
#    z 0.000000 0.000000 3.084830 
# 
# 
# High freq. dielectric constant tensor:
#      x y z
#    x 1.589980 0.000000 0.000000 
#    y 0.000000 1.589980 0.000000 
#    z 0.000000 0.000000 1.594230 
# 
# From -- ./inp_files/10141.got.cif
#   From: 2010.03.12/outbox.cif.g09.slc.cpg/sg191_6_cif.got.tgz:10141.got - 2010.04.01 12:09:02.
