data_PCOD8328906
_publ_section_title
;
Structure prediction by ZEFSAII (Michael W. Deem and Ramdas Pophale) SiO2 
 PCOD8328906
Probable space group: P 6/M M M
;
_chemical_formula_sum "Si O2"
_cell_formula_units_Z 168
_cell_length_a 30.587264
_cell_length_b 30.587264
_cell_length_c 11.415616
_cell_angle_alpha 90.000000
_cell_angle_beta 90.000000
_cell_angle_gamma 120.000000
_cell_volume 9249.350693
_symmetry_space_group_name_H-M "P 6/M M M"
_symmetry_group_IT_number 191
_symmetry_cell_setting 'hexagonal'
loop_
_space_group_symop_operation_xyz
x,y,z
x-y,x,z
-y,x-y,z
-x,-y,z
-x+y,-x,z
y,-x+y,z
x-y,-y,-z
-x,-x+y,-z
y,x,-z
-y,-x,-z
-x+y,y,-z
x,x-y,-z
-x,-y,-z
-x+y,-x,-z
y,-x+y,-z
x,y,-z
x-y,x,-z
-y,x-y,-z
-x+y,y,z
x,x-y,z
-y,-x,z
y,x,z
x-y,-y,z
-x,-x+y,z
loop_
_atom_site_type_symbol
_atom_site_label
_atom_site_fract_x
_atom_site_fract_y
_atom_site_fract_z
Si Si1 0.799197 0.100488 0.722702
Si Si2 0.247742 0.392825 0.127733
Si Si3 0.854266 0.328641 0.732050
Si Si4 0.421511 0.265569 0.500000
Si Si5 0.058410 0.477942 0.135241
Si Si6 0.688507 0.745506 0.500000
Si Si7 0.796743 0.945431 0.138329
Si Si8 0.432907 0.766518 0.364960
O O1 0.845848 0.154153 0.681276
O O2 0.753861 0.107049 0.776805
O O3 0.778128 0.061963 0.614558
O O4 0.814992 0.075236 0.823414
O O5 0.193123 0.386245 0.121055
O O6 0.288239 0.449480 0.164262
O O7 0.262713 0.381778 0.000000
O O8 0.850629 0.299473 0.612232
O O9 0.908305 0.376427 0.768814
O O10 0.813501 0.346935 0.720209
O O11 0.420576 0.210288 0.500000
O O12 0.366858 0.260719 0.500000
O O13 0.067193 0.533597 0.156133
O O14 0.000000 0.436488 0.158531
O O15 0.072661 0.473243 0.000000
O O16 0.695672 0.695672 0.500000
O O17 0.816446 0.908223 0.182589
O O18 0.833976 0.000000 0.193258
O O19 0.796558 0.947951 0.000000
O O20 0.448854 0.782031 0.500000
O O21 0.374829 0.749658 0.345279
O O22 0.440795 0.720398 0.329376
#
# Coordination Sequence:
#
# PCOD8328906 Si02
#       8
#    24  24  24  12  24  12  24  24
#     4  10  19  34  53  72 102 139 175 217 272 326
#     4  10  20  33  52  79 107 137 177 225 273 323
#     4  12  21  35  59  85 113 147 195 232 271 333
#     4  12  24  40  57  78 118 163 191 226 292 352
#     4   9  20  41  65  87 116 154 194 241 297 346
#     4  12  24  36  52  75 106 145 191 230 266 326
#     4   9  17  30  49  72  98 130 169 214 263 314
#     4  10  20  34  54  81 113 147 184 227 276 330
#
# _framework density 18.163436999999998
#
# number of rings (size 3 to 8) (size 9 to 14) (size 15 to 20)
#    0.000    1.714    2.143    4.214    0.000    2.857 
#    0.000    0.000    0.000    3.571    0.000    1.000 
#    0.000    6.857    0.000    0.000    0.000   14.857 
#
# Total GULP energy -2081702.324633 kJ/mol
# GULP energy per Si atom -12391.085266 kJ/mol
# Density = 1.812210 g / cm^3
# Si number density = 18.163437 Si / 1000 Ang^3
#
#
#
# Elastic Constant Matrix: (Units=GPa)
#
#
# Indices 1 2 3 4 5 6 
#
# 1 95.5388 48.0770 41.7032 0.0000 0.0000 0.0000
# 2 48.0770 95.5388 41.7032 0.0000 0.0000 0.0000
# 3 41.7032 41.7032 77.5164 0.0000 0.0000 0.0000
# 4 0.0000 0.0000 0.0000 26.7669 0.0000 0.0000
# 5 0.0000 0.0000 0.0000 0.0000 26.7669 0.0000
# 6 0.0000 0.0000 0.0000 0.0000 0.0000 23.7309
#
#
#
# Elastic Compliance Matrix: (Units=1/GPa)
#
#
# Indices 1 2 3 4 5 6 
#
# 1 0.015598 -0.005471 -0.005448 0.000000 0.000000 0.000000
# 2 -0.005471 0.015598 -0.005448 0.000000 0.000000 0.000000
# 3 -0.005448 -0.005448 0.018763 0.000000 0.000000 0.000000
# 4 0.000000 0.000000 0.000000 0.037360 0.000000 0.000000
# 5 0.000000 0.000000 0.000000 0.000000 0.037360 0.000000
# 6 0.000000 0.000000 0.000000 0.000000 0.000000 0.042139
#
#
# Mechanical properties :
#
#
# Convention : Reuss Voigt Hill
#
# Bulk Modulus (GPa) = 58.05906 59.06229 58.56068
# Shear Modulus (GPa) = 24.35521 24.59367 24.47444
#
# Velocity S-wave (km/s) = 3.66579 3.68369 3.67475
# Velocity P-wave (km/s) = 7.06764 7.11903 7.09338
#
# Compressibility (1/GPa) = 0.01722384
#
# Stress axis : x y z
#
# Youngs Moduli (GPa) = 64.10916 64.10916 53.29682
#
# Poissons Ratio (x) = 0.35075 0.29038
# Poissons Ratio (y) = 0.35075 0.29038
# Poissons Ratio (z) = 0.34929 0.34929
#
# Static dielectric constant tensor:
#      x y z
#    x 3.471470 0.000000 0.000000 
#    y 0.000000 3.471470 0.000000 
#    z 0.000000 0.000000 3.510410 
# 
# 
# High freq. dielectric constant tensor:
#      x y z
#    x 1.698160 0.000000 0.000000 
#    y 0.000000 1.698160 0.000000 
#    z 0.000000 0.000000 1.700800 
# 
# From -- ./inp_files/3657.got.cif
#   From: 2010.03.12/outbox.cif.g09.slc.cpg/sg191_2_cif.got.tgz:3657.got - 2010.04.01 12:09:02.
