data_PCOD8328085
_publ_section_title
;
Structure prediction by ZEFSAII (Michael W. Deem and Ramdas Pophale) SiO2 
 PCOD8328085
Probable space group: P -6 2 C
;
_chemical_formula_sum "Si O2"
_cell_formula_units_Z 48
_cell_length_a 18.151645
_cell_length_b 18.151645
_cell_length_c 8.752763
_cell_angle_alpha 90.000000
_cell_angle_beta 90.000000
_cell_angle_gamma 120.000000
_cell_volume 2497.513126
_symmetry_space_group_name_H-M "P -6 2 C"
_symmetry_group_IT_number 190
_symmetry_cell_setting 'hexagonal'
loop_
_space_group_symop_operation_xyz
x,y,z
-x+y,-x,1/2-z
-y,x-y,z
x,y,1/2-z
-x+y,-x,z
-y,x-y,1/2-z
x-y,-y,-z
-x,-x+y,-z
y,x,-z
y,x,1/2+z
x-y,-y,1/2+z
-x,-x+y,1/2+z
loop_
_atom_site_type_symbol
_atom_site_label
_atom_site_fract_x
_atom_site_fract_y
_atom_site_fract_z
Si Si1 0.378507 0.469275 0.428091
Si Si2 0.473518 0.091819 0.429345
Si Si3 0.181142 0.383144 0.426967
Si Si4 0.907458 0.814042 0.569323
O O1 0.398523 0.478165 0.250000
O O2 0.407404 0.407404 0.500000
O O3 0.431142 0.563264 0.502457
O O4 0.280020 0.427498 0.463540
O O5 0.477767 0.083226 0.250000
O O6 0.433242 0.149610 0.468226
O O7 0.413431 0.000000 0.500000
O O8 0.163498 0.392171 0.250000
O O9 0.134287 0.284634 0.475333
O O10 0.915610 0.827335 0.750000
O O11 0.866488 0.866488 0.500000
O O12 0.000000 0.847125 0.500000
#
# Coordination Sequence:
#
# PCOD8328085 Si02
#       4
#    12  12  12  12
#     4  10  20  37  60  84 114 149 188 233 286 343
#     4  11  22  37  59  84 114 150 189 234 284 341
#     4  10  22  39  60  87 115 150 193 238 289 345
#     4  11  23  39  59  85 118 155 197 241 290 343
#
# _framework density 19.219118000000002
#
# number of rings (size 3 to 8) (size 9 to 14) (size 15 to 20)
#    0.000    1.500    0.000    7.000    0.000    6.000 
#    1.500    0.000    0.000    0.000    0.000    0.000 
#    0.000    0.000    0.000    0.000    0.000    0.000 
#
# Total GULP energy -595367.046489 kJ/mol
# GULP energy per Si atom -12403.480135 kJ/mol
# Density = 1.917537 g / cm^3
# Si number density = 19.219118 Si / 1000 Ang^3
#
#
#
# Elastic Constant Matrix: (Units=GPa)
#
#
# Indices 1 2 3 4 5 6 
#
# 1 81.3893 28.3148 39.3959 0.0000 0.0000 0.0000
# 2 28.3148 81.3893 39.3959 0.0000 0.0000 0.0000
# 3 39.3959 39.3959 110.1269 0.0000 0.0000 0.0000
# 4 0.0000 0.0000 0.0000 23.8640 0.0000 0.0000
# 5 0.0000 0.0000 0.0000 0.0000 23.8640 0.0000
# 6 0.0000 0.0000 0.0000 0.0000 0.0000 26.5372
#
#
#
# Elastic Compliance Matrix: (Units=1/GPa)
#
#
# Indices 1 2 3 4 5 6 
#
# 1 0.015554 -0.003287 -0.004388 0.000000 0.000000 0.000000
# 2 -0.003287 0.015554 -0.004388 0.000000 0.000000 0.000000
# 3 -0.004388 -0.004388 0.012220 0.000000 0.000000 0.000000
# 4 0.000000 0.000000 0.000000 0.041904 0.000000 0.000000
# 5 0.000000 0.000000 0.000000 0.000000 0.041904 0.000000
# 6 0.000000 0.000000 0.000000 0.000000 0.000000 0.037683
#
#
# Mechanical properties :
#
#
# Convention : Reuss Voigt Hill
#
# Bulk Modulus (GPa) = 52.08029 54.12433 53.10231
# Shear Modulus (GPa) = 25.59534 25.90631 25.75082
#
# Velocity S-wave (km/s) = 3.65329 3.67542 3.66437
# Velocity P-wave (km/s) = 6.70466 6.79959 6.75229
#
# Compressibility (1/GPa) = 0.01920112
#
# Stress axis : x y z
#
# Youngs Moduli (GPa) = 64.29068 64.29068 81.83192
#
# Poissons Ratio (x) = 0.21133 0.35911
# Poissons Ratio (y) = 0.21133 0.35911
# Poissons Ratio (z) = 0.28213 0.28213
#
# Static dielectric constant tensor:
#      x y z
#    x 3.645530 0.000000 0.000000 
#    y 0.000000 3.645530 0.000000 
#    z 0.000000 0.000000 3.564370 
# 
# 
# High freq. dielectric constant tensor:
#      x y z
#    x 1.755570 0.000000 0.000000 
#    y 0.000000 1.755570 0.000000 
#    z 0.000000 0.000000 1.761330 
# 
# From -- ./inp_files/595.got.cif
#   From: 2010.06.25/outbox.cif.g09.slc.cpg/sg190_1_cif.got.tgz:595.got - 2010.06.28 13:08:06.
