data_PCOD8328275
_publ_section_title
;
Structure prediction by ZEFSAII (Michael W. Deem and Ramdas Pophale) SiO2 
 PCOD8328275
Probable space group: P 6/M M M
;
_chemical_formula_sum "Si O2"
_cell_formula_units_Z 132
_cell_length_a 18.275152
_cell_length_b 18.275152
_cell_length_c 28.674366
_cell_angle_alpha 90.000000
_cell_angle_beta 90.000000
_cell_angle_gamma 120.000000
_cell_volume 8293.664281
_symmetry_space_group_name_H-M "P 6/M M M"
_symmetry_group_IT_number 191
_symmetry_cell_setting 'hexagonal'
loop_
_space_group_symop_operation_xyz
x,y,z
x-y,x,z
-y,x-y,z
-x,-y,z
-x+y,-x,z
y,-x+y,z
x-y,-y,-z
-x,-x+y,-z
y,x,-z
-y,-x,-z
-x+y,y,-z
x,x-y,-z
-x,-y,-z
-x+y,-x,-z
y,-x+y,-z
x,y,-z
x-y,x,-z
-y,x-y,-z
-x+y,y,z
x,x-y,z
-y,-x,z
y,x,z
x-y,-y,z
-x,-x+y,z
loop_
_atom_site_type_symbol
_atom_site_label
_atom_site_fract_x
_atom_site_fract_y
_atom_site_fract_z
Si Si1 0.170663 0.669142 0.643994
Si Si2 0.364019 0.098340 0.176401
Si Si3 0.368418 0.467458 0.260506
Si Si4 0.903166 0.364947 0.550234
Si Si5 0.093638 0.633079 0.000000
Si Si6 0.165854 0.497074 0.901788
O O1 0.144752 0.572376 0.641979
O O2 0.270858 0.729143 0.648790
O O3 0.126004 0.680268 0.689777
O O4 0.141689 0.693154 0.595509
O O5 0.327675 0.163838 0.172475
O O6 0.427390 0.128916 0.220402
O O7 0.420073 0.105214 0.131696
O O8 0.287981 0.000000 0.180615
O O9 0.430609 0.569392 0.253564
O O10 0.425441 0.425441 0.258994
O O11 0.866755 0.318133 0.500000
O O12 0.891047 0.445524 0.551439
O O13 0.000000 0.391086 0.553634
O O14 0.144147 0.683006 0.954214
O O15 0.084771 0.542386 0.000000
O O16 0.000000 0.621735 0.000000
O O17 0.263828 0.527655 0.891968
O O18 0.149658 0.574829 0.893143
#
# Coordination Sequence:
#
# PCOD8328275 Si02
#       6
#    24  24  24  24  12  24
#     4  10  18  26  36  52  76 103 129 158 194 236
#     4  10  20  33  49  68  89 113 142 178 219 262
#     4   9  17  29  45  63  82 107 139 171 202 239
#     4   8  14  25  39  51  63  85 121 162 199 234
#     4   9  17  28  42  60  84 119 161 197 225 254
#     4  10  19  30  45  66  93 124 156 189 223 259
#
# _framework density 15.915763999999999
#
# number of rings (size 3 to 8) (size 9 to 14) (size 15 to 20)
#    0.000    2.636    0.000    3.364    0.000    4.364 
#    0.000    0.909    0.000    7.091    0.000    0.000 
#    0.000    0.000    0.000    0.000    0.000   18.909 
#
# Total GULP energy -1635444.849698 kJ/mol
# GULP energy per Si atom -12389.733710 kJ/mol
# Density = 1.587954 g / cm^3
# Si number density = 15.915764 Si / 1000 Ang^3
#
#
#
# Elastic Constant Matrix: (Units=GPa)
#
#
# Indices 1 2 3 4 5 6 
#
# 1 50.1652 24.9540 25.5518 0.0000 0.0000 0.0000
# 2 24.9540 50.1652 25.5518 0.0000 0.0000 0.0000
# 3 25.5518 25.5518 127.7328 0.0000 0.0000 0.0000
# 4 0.0000 0.0000 0.0000 7.3198 0.0000 0.0000
# 5 0.0000 0.0000 0.0000 0.0000 7.3198 0.0000
# 6 0.0000 0.0000 0.0000 0.0000 0.0000 12.6056
#
#
#
# Elastic Compliance Matrix: (Units=1/GPa)
#
#
# Indices 1 2 3 4 5 6 
#
# 1 0.027537 -0.012128 -0.003082 0.000000 0.000000 0.000000
# 2 -0.012128 0.027537 -0.003082 0.000000 0.000000 0.000000
# 3 -0.003082 -0.003082 0.009062 0.000000 0.000000 0.000000
# 4 0.000000 0.000000 0.000000 0.136616 0.000000 0.000000
# 5 0.000000 0.000000 0.000000 0.000000 0.136616 0.000000
# 6 0.000000 0.000000 0.000000 0.000000 0.000000 0.079330
#
#
# Mechanical properties :
#
#
# Convention : Reuss Voigt Hill
#
# Bulk Modulus (GPa) = 36.29689 42.24204 39.26946
# Shear Modulus (GPa) = 10.81157 15.58273 13.19715
#
# Velocity S-wave (km/s) = 2.60917 3.13241 2.88269
# Velocity P-wave (km/s) = 5.65085 6.29931 5.98387
#
# Compressibility (1/GPa) = 0.02755057
#
# Stress axis : x y z
#
# Youngs Moduli (GPa) = 36.31465 36.31465 110.34993
#
# Poissons Ratio (x) = 0.44042 0.34015
# Poissons Ratio (y) = 0.44042 0.34015
# Poissons Ratio (z) = 0.11194 0.11194
#
# Static dielectric constant tensor:
#      x y z
#    x 2.784960 0.000000 0.000000 
#    y 0.000000 2.784960 0.000000 
#    z 0.000000 0.000000 3.286880 
# 
# 
# High freq. dielectric constant tensor:
#      x y z
#    x 1.573370 0.000000 0.000000 
#    y 0.000000 1.573370 0.000000 
#    z 0.000000 0.000000 1.641520 
# 
# From -- ./inp_files/10442.got.cif
#   From: 2010.03.12/outbox.cif.g09.slc.cpg/sg191_6_cif.got.tgz:10442.got - 2010.04.01 12:09:02.
