data_PCOD8328824
_publ_section_title
;
Structure prediction by ZEFSAII (Michael W. Deem and Ramdas Pophale) SiO2 
 PCOD8328824
Probable space group: P 6/M M M
;
_chemical_formula_sum "Si O2"
_cell_formula_units_Z 168
_cell_length_a 22.234731
_cell_length_b 22.234731
_cell_length_c 23.524285
_cell_angle_alpha 90.000000
_cell_angle_beta 90.000000
_cell_angle_gamma 120.000000
_cell_volume 10071.886505
_symmetry_space_group_name_H-M "P 6/M M M"
_symmetry_group_IT_number 191
_symmetry_cell_setting 'hexagonal'
loop_
_space_group_symop_operation_xyz
x,y,z
x-y,x,z
-y,x-y,z
-x,-y,z
-x+y,-x,z
y,-x+y,z
x-y,-y,-z
-x,-x+y,-z
y,x,-z
-y,-x,-z
-x+y,y,-z
x,x-y,-z
-x,-y,-z
-x+y,-x,-z
y,-x+y,-z
x,y,-z
x-y,x,-z
-y,x-y,-z
-x+y,y,z
x,x-y,z
-y,-x,z
y,x,z
x-y,-y,z
-x,-x+y,z
loop_
_atom_site_type_symbol
_atom_site_label
_atom_site_fract_x
_atom_site_fract_y
_atom_site_fract_z
Si Si1 0.472544 0.390588 0.160352
Si Si2 0.283113 0.921064 0.231165
Si Si3 0.286243 0.851575 0.065186
Si Si4 0.666224 0.468026 0.432418
Si Si5 0.211328 0.921740 0.118114
Si Si6 0.292565 0.079882 0.661158
Si Si7 0.692916 0.078075 0.434960
O O1 0.548271 0.451730 0.178780
O O2 0.420203 0.420203 0.148862
O O3 0.441837 0.331301 0.209810
O O4 0.479389 0.354790 0.102980
O O5 0.228745 0.911732 0.182488
O O6 0.242060 0.889754 0.289793
O O7 0.336197 0.000000 0.245133
O O8 0.226948 0.773053 0.080950
O O9 0.256366 0.903409 0.075641
O O10 0.308843 0.856753 0.000000
O O11 0.664682 0.463618 0.500000
O O12 0.733886 0.467771 0.408485
O O13 0.597779 0.402222 0.406761
O O14 0.667307 0.537648 0.412238
O O15 0.129346 0.870654 0.107754
O O16 0.228636 0.000000 0.106487
O O17 0.258016 0.129008 0.659618
O O18 0.329310 0.087088 0.601096
O O19 0.232652 0.000000 0.672951
O O20 0.718803 0.095278 0.500000
O O21 0.628283 0.000000 0.428811
#
# Coordination Sequence:
#
# PCOD8328824 Si02
#       7
#    24  24  24  24  24  24  24
#     4   9  17  29  46  68  93 118 144 180 225 268
#     4   8  15  28  44  63  86 111 140 173 212 259
#     4   9  17  28  42  62  89 120 152 185 221 262
#     4   9  16  26  41  60  83 112 145 179 215 259
#     4   9  16  26  41  60  83 111 143 182 226 270
#     4  10  19  31  49  71  94 120 151 187 226 270
#     4   9  18  31  46  66  92 121 152 188 232 278
#
# _framework density 16.680091999999998
#
# number of rings (size 3 to 8) (size 9 to 14) (size 15 to 20)
#    0.000    3.000    0.000    2.286    0.000    3.714 
#    0.000    2.857    0.000    3.143    0.000    0.000 
#    0.000    3.429    0.000    7.143    0.000    0.000 
#
# Total GULP energy -2082131.753190 kJ/mol
# GULP energy per Si atom -12393.641388 kJ/mol
# Density = 1.664213 g / cm^3
# Si number density = 16.680092 Si / 1000 Ang^3
#
#
#
# Elastic Constant Matrix: (Units=GPa)
#
#
# Indices 1 2 3 4 5 6 
#
# 1 94.6891 50.4286 21.5251 0.0000 0.0000 0.0000
# 2 50.4286 94.6891 21.5251 0.0000 0.0000 0.0000
# 3 21.5251 21.5251 52.7604 0.0000 0.0000 0.0000
# 4 0.0000 0.0000 0.0000 14.8239 0.0000 0.0000
# 5 0.0000 0.0000 0.0000 0.0000 14.8239 0.0000
# 6 0.0000 0.0000 0.0000 0.0000 0.0000 22.1302
#
#
#
# Elastic Compliance Matrix: (Units=1/GPa)
#
#
# Indices 1 2 3 4 5 6 
#
# 1 0.015217 -0.007377 -0.003198 0.000000 0.000000 0.000000
# 2 -0.007377 0.015217 -0.003198 0.000000 0.000000 0.000000
# 3 -0.003198 -0.003198 0.021563 0.000000 0.000000 0.000000
# 4 0.000000 0.000000 0.000000 0.067458 0.000000 0.000000
# 5 0.000000 0.000000 0.000000 0.000000 0.067458 0.000000
# 6 0.000000 0.000000 0.000000 0.000000 0.000000 0.045187
#
#
# Mechanical properties :
#
#
# Convention : Reuss Voigt Hill
#
# Bulk Modulus (GPa) = 40.90123 47.67736 44.28930
# Shear Modulus (GPa) = 18.67079 20.26628 19.46853
#
# Velocity S-wave (km/s) = 3.34929 3.48946 3.42010
# Velocity P-wave (km/s) = 6.28739 6.69930 6.49661
#
# Compressibility (1/GPa) = 0.02444914
#
# Stress axis : x y z
#
# Youngs Moduli (GPa) = 65.71741 65.71741 46.37487
#
# Poissons Ratio (x) = 0.48479 0.14833
# Poissons Ratio (y) = 0.48479 0.14833
# Poissons Ratio (z) = 0.21020 0.21020
#
# Static dielectric constant tensor:
#      x y z
#    x 3.105330 0.000000 0.000000 
#    y 0.000000 3.105330 0.000000 
#    z 0.000000 0.000000 3.091490 
# 
# 
# High freq. dielectric constant tensor:
#      x y z
#    x 1.625650 0.000000 0.000000 
#    y 0.000000 1.625650 0.000000 
#    z 0.000000 0.000000 1.628920 
# 
# From -- ./inp_files/8009.got.cif
#   From: 2010.03.12/outbox.cif.g09.slc.cpg/sg191_5_cif.got.tgz:8009.got - 2010.04.01 12:09:02.
