data_PCOD8328211
_publ_section_title
;
Structure prediction by ZEFSAII (Michael W. Deem and Ramdas Pophale) SiO2 
 PCOD8328211
Probable space group: P -6 2 C
;
_chemical_formula_sum "Si O2"
_cell_formula_units_Z 44
_cell_length_a 12.117672
_cell_length_b 12.117672
_cell_length_c 15.259993
_cell_angle_alpha 90.000000
_cell_angle_beta 90.000000
_cell_angle_gamma 120.000000
_cell_volume 1940.543363
_symmetry_space_group_name_H-M "P -6 2 C"
_symmetry_group_IT_number 190
_symmetry_cell_setting 'hexagonal'
loop_
_space_group_symop_operation_xyz
x,y,z
-x+y,-x,1/2-z
-y,x-y,z
x,y,1/2-z
-x+y,-x,z
-y,x-y,1/2-z
x-y,-y,-z
-x,-x+y,-z
y,x,-z
y,x,1/2+z
x-y,-y,1/2+z
-x,-x+y,1/2+z
loop_
_atom_site_type_symbol
_atom_site_label
_atom_site_fract_x
_atom_site_fract_y
_atom_site_fract_z
Si Si1 0.914764 0.353633 0.416931
Si Si2 0.666668 0.333334 0.144240
Si Si3 0.081779 0.434142 0.250000
Si Si4 0.000000 0.000000 0.854074
Si Si5 0.058299 0.781714 0.589627
Si Si6 0.076067 0.682726 0.250000
O O1 0.810568 0.395196 0.392877
O O2 0.844751 0.205048 0.432742
O O3 0.000000 0.433573 0.500000
O O4 0.002674 0.371747 0.335676
O O5 0.666667 0.333334 0.250000
O O6 0.126886 0.582932 0.250000
O O7 0.185794 0.391073 0.250000
O O8 0.867983 0.982112 0.888717
O O9 0.000000 0.000000 0.750000
O O10 0.000000 0.710069 0.500000
O O11 0.011749 0.676129 0.666036
#
# Coordination Sequence:
#
# PCOD8328211 Si02
#       6
#    12   4   6   4  12   6
#     4  12  27  47  76 110 147 196 256 312 376 461
#     4  12  27  51  81 109 149 211 261 312 384 475
#     4  12  26  46  70 104 147 194 252 312 374 450
#     4  12  22  38  70 106 146 184 244 308 385 451
#     4  12  25  45  70 106 146 191 242 307 380 454
#     4  12  26  44  72 102 143 196 246 310 376 452
#
# _framework density 22.674060999999998
#
# number of rings (size 3 to 8) (size 9 to 14) (size 15 to 20)
#    0.000    0.000    2.727    8.455    0.000    6.545 
#    0.000    0.000    0.000    0.000    0.000    0.000 
#    0.000    0.000    0.000    0.000    0.000    0.000 
#
# Total GULP energy -545695.938707 kJ/mol
# GULP energy per Si atom -12402.180425 kJ/mol
# Density = 2.262245 g / cm^3
# Si number density = 22.674061 Si / 1000 Ang^3
#
#
#
# Elastic Constant Matrix: (Units=GPa)
#
#
# Indices 1 2 3 4 5 6 
#
# 1 103.7702 5.3950 35.0782 -0.0001 0.0005 -0.0005
# 2 5.3950 103.7708 35.0782 0.0001 -0.0002 0.0006
# 3 35.0782 35.0782 185.8700 0.0001 0.0003 -0.0001
# 4 -0.0001 0.0001 0.0001 21.1536 -0.0001 0.0003
# 5 0.0005 -0.0002 0.0003 -0.0001 21.1545 0.0001
# 6 -0.0005 0.0006 -0.0001 0.0003 0.0001 49.1892
#
#
#
# Elastic Compliance Matrix: (Units=1/GPa)
#
#
# Indices 1 2 3 4 5 6 
#
# 1 0.010295 0.000130 -0.001967 0.000000 0.000000 0.000000
# 2 0.000130 0.010295 -0.001967 0.000000 0.000000 0.000000
# 3 -0.001967 -0.001967 0.006123 0.000000 0.000000 0.000000
# 4 0.000000 0.000000 0.000000 0.047273 0.000000 0.000000
# 5 0.000000 0.000000 0.000000 0.000000 0.047271 0.000000
# 6 0.000000 0.000000 0.000000 0.000000 0.000000 0.020330
#
#
# Mechanical properties :
#
#
# Convention : Reuss Voigt Hill
#
# Bulk Modulus (GPa) = 52.34886 60.50155 56.42521
# Shear Modulus (GPa) = 32.14103 39.49011 35.81557
#
# Velocity S-wave (km/s) = 3.76909 4.17783 3.97871
# Velocity P-wave (km/s) = 6.48684 7.07201 6.78574
#
# Compressibility (1/GPa) = 0.01910261
#
# Stress axis : x y z
#
# Youngs Moduli (GPa) = 97.13470 97.13528 163.32665
#
# Poissons Ratio (x) = -0.01261 0.32133
# Poissons Ratio (y) = -0.01261 0.32133
# Poissons Ratio (z) = 0.19110 0.19110
#
# Static dielectric constant tensor:
#      x y z
#    x 3.867370 -0.000030 0.000000 
#    y -0.000030 3.867280 -0.000010 
#    z 0.000000 -0.000010 4.354000 
# 
# 
# High freq. dielectric constant tensor:
#      x y z
#    x 1.910190 0.000000 0.000000 
#    y 0.000000 1.910190 0.000000 
#    z 0.000000 0.000000 1.910010 
# 
# From -- ./inp_files/3543.got.cif
#   From: 2010.06.25/outbox.cif.g09.slc.cpg/sg190_2_cif.got.tgz:3543.got - 2010.06.28 13:08:06.
