data_PCOD8328054
_publ_section_title
;
Structure prediction by ZEFSAII (Michael W. Deem and Ramdas Pophale) SiO2 
 PCOD8328054
Probable space group: P -6 2 C
;
_chemical_formula_sum "Si O2"
_cell_formula_units_Z 72
_cell_length_a 23.653255
_cell_length_b 23.653255
_cell_length_c 8.545165
_cell_angle_alpha 90.000000
_cell_angle_beta 90.000000
_cell_angle_gamma 120.000000
_cell_volume 4140.310504
_symmetry_space_group_name_H-M "P -6 2 C"
_symmetry_group_IT_number 190
_symmetry_cell_setting 'hexagonal'
loop_
_space_group_symop_operation_xyz
x,y,z
-x+y,-x,1/2-z
-y,x-y,z
x,y,1/2-z
-x+y,-x,z
-y,x-y,1/2-z
x-y,-y,-z
-x,-x+y,-z
y,x,-z
y,x,1/2+z
x-y,-y,1/2+z
-x,-x+y,1/2+z
loop_
_atom_site_type_symbol
_atom_site_label
_atom_site_fract_x
_atom_site_fract_y
_atom_site_fract_z
Si Si1 0.149486 0.738406 0.433872
Si Si2 0.929049 0.527303 0.065049
Si Si3 0.738097 0.809265 0.565801
Si Si4 0.928714 0.737764 0.933527
Si Si5 0.523755 0.592887 0.433808
Si Si6 0.142534 0.410915 0.566827
O O1 0.163368 0.746457 0.250000
O O2 0.123983 0.664994 0.486292
O O3 0.096910 0.759814 0.482796
O O4 0.216834 0.782933 0.525198
O O5 0.928579 0.535161 0.250000
O O6 0.909921 0.454081 0.019981
O O7 0.000000 0.578812 0.000000
O O8 0.743018 0.812812 0.750000
O O9 0.785188 0.785188 0.500000
O O10 0.762205 0.881394 0.501379
O O11 0.663836 0.760217 0.512002
O O12 0.930919 0.745798 0.750000
O O13 0.000000 0.783145 0.000000
O O14 0.515105 0.578164 0.250000
O O15 0.580076 0.580076 0.500000
O O16 0.543846 0.666849 0.468701
O O17 0.135327 0.419855 0.750000
#
# Coordination Sequence:
#
# PCOD8328054 Si02
#       6
#    12  12  12  12  12  12
#     4  10  20  34  52  76 104 135 169 207 251 300
#     4  11  21  34  52  75 103 135 170 210 254 302
#     4  10  20  33  51  74 102 133 167 205 248 295
#     4  10  20  33  51  74 102 133 167 205 248 295
#     4  11  21  34  52  75 103 135 170 210 254 302
#     4  10  20  34  52  76 104 135 169 207 251 300
#
# _framework density 17.389999
#
# number of rings (size 3 to 8) (size 9 to 14) (size 15 to 20)
#    0.000    1.667    0.000    7.000    0.000    6.667 
#    0.000    0.000    0.000    1.000    0.000    7.000 
#    0.000    0.000    0.000    0.000    0.000    0.000 
#
# Total GULP energy -893190.604253 kJ/mol
# GULP energy per Si atom -12405.425059 kJ/mol
# Density = 1.735042 g / cm^3
# Si number density = 17.389999 Si / 1000 Ang^3
#
#
#
# Elastic Constant Matrix: (Units=GPa)
#
#
# Indices 1 2 3 4 5 6 
#
# 1 100.0233 48.5261 15.5792 0.0000 0.0000 0.0000
# 2 48.5261 100.0233 15.5792 0.0000 0.0000 0.0000
# 3 15.5792 15.5792 63.0940 0.0000 0.0000 0.0000
# 4 0.0000 0.0000 0.0000 31.0323 0.0000 0.0000
# 5 0.0000 0.0000 0.0000 0.0000 31.0323 0.0000
# 6 0.0000 0.0000 0.0000 0.0000 0.0000 25.7486
#
#
#
# Elastic Compliance Matrix: (Units=1/GPa)
#
#
# Indices 1 2 3 4 5 6 
#
# 1 0.013259 -0.006160 -0.001753 0.000000 0.000000 0.000000
# 2 -0.006160 0.013259 -0.001753 0.000000 0.000000 0.000000
# 3 -0.001753 -0.001753 0.016715 0.000000 0.000000 0.000000
# 4 0.000000 0.000000 0.000000 0.032224 0.000000 0.000000
# 5 0.000000 0.000000 0.000000 0.000000 0.032224 0.000000
# 6 0.000000 0.000000 0.000000 0.000000 0.000000 0.038837
#
#
# Mechanical properties :
#
#
# Convention : Reuss Voigt Hill
#
# Bulk Modulus (GPa) = 41.83754 46.94552 44.39153
# Shear Modulus (GPa) = 28.76580 29.79304 29.27942
#
# Velocity S-wave (km/s) = 4.07155 4.14361 4.10773
# Velocity P-wave (km/s) = 6.79808 7.06732 6.93401
#
# Compressibility (1/GPa) = 0.02390198
#
# Stress axis : x y z
#
# Youngs Moduli (GPa) = 75.42050 75.42050 59.82619
#
# Poissons Ratio (x) = 0.46455 0.10488
# Poissons Ratio (y) = 0.46455 0.10488
# Poissons Ratio (z) = 0.13221 0.13221
#
# Static dielectric constant tensor:
#      x y z
#    x 3.188160 0.000000 0.000000 
#    y 0.000000 3.188160 0.000000 
#    z 0.000000 0.000000 3.363530 
# 
# 
# High freq. dielectric constant tensor:
#      x y z
#    x 1.662050 0.000000 0.000000 
#    y 0.000000 1.662050 0.000000 
#    z 0.000000 0.000000 1.693180 
# 
# From -- ./inp_files/1235.got.cif
#   From: 2010.06.25/outbox.cif.g09.slc.cpg/sg190_1_cif.got.tgz:1235.got - 2010.06.28 13:08:06.
