data_PCOD8328180
_publ_section_title
;
Structure prediction by ZEFSAII (Michael W. Deem and Ramdas Pophale) SiO2 
 PCOD8328180
Probable space group: P -6 2 C
;
_chemical_formula_sum "Si O2"
_cell_formula_units_Z 52
_cell_length_a 13.953228
_cell_length_b 13.953228
_cell_length_c 15.319494
_cell_angle_alpha 90.000000
_cell_angle_beta 90.000000
_cell_angle_gamma 120.000000
_cell_volume 2583.000166
_symmetry_space_group_name_H-M "P -6 2 C"
_symmetry_group_IT_number 190
_symmetry_cell_setting 'hexagonal'
loop_
_space_group_symop_operation_xyz
x,y,z
-x+y,-x,1/2-z
-y,x-y,z
x,y,1/2-z
-x+y,-x,z
-y,x-y,1/2-z
x-y,-y,-z
-x,-x+y,-z
y,x,-z
y,x,1/2+z
x-y,-y,1/2+z
-x,-x+y,1/2+z
loop_
_atom_site_type_symbol
_atom_site_label
_atom_site_fract_x
_atom_site_fract_y
_atom_site_fract_z
Si Si1 0.779200 0.463851 0.000000
Si Si2 0.632125 0.873293 0.651475
Si Si3 0.000000 0.214049 0.896546
Si Si4 0.000000 0.000000 0.103902
Si Si5 0.367875 0.241167 0.651475
O O1 0.650289 0.433650 0.000000
O O2 0.840201 0.530727 0.913426
O O3 0.840201 0.530727 0.086574
O O4 0.587405 0.861488 0.750000
O O5 0.679779 0.790198 0.638283
O O6 0.726926 0.000000 0.631381
O O7 0.889581 0.209802 0.861717
O O8 1.000000 0.106864 0.858940
O O9 0.000000 0.216695 0.000000
O O10 0.000000 0.000000 0.000000
O O11 0.412596 0.274083 0.750000
#
# Coordination Sequence:
#
# PCOD8328180 Si02
#       5
#    12  12  12   4  12
#     4  10  25  47  67  83 118 170 216 278 318 354
#     4  11  23  41  67  99 133 167 207 257 319 390
#     4  11  19  35  63  94 136 173 203 248 318 395
#     4   9  18  27  55  95 127 181 200 235 316 392
#     4  11  23  41  67  99 133 167 207 257 319 390
#
# _framework density 20.131627000000002
#
# number of rings (size 3 to 8) (size 9 to 14) (size 15 to 20)
#    0.462    0.923    4.615    1.385    0.000    1.846 
#    8.308    0.000    0.000    0.000    0.000    0.000 
#    0.000    0.000    0.000    0.000    0.000    0.000 
#
# Total GULP energy -644791.153112 kJ/mol
# GULP energy per Si atom -12399.829868 kJ/mol
# Density = 2.008581 g / cm^3
# Si number density = 20.131627 Si / 1000 Ang^3
#
#
#
# Elastic Constant Matrix: (Units=GPa)
#
#
# Indices 1 2 3 4 5 6 
#
# 1 77.6059 7.1128 44.6264 0.0000 0.0000 0.0000
# 2 7.1128 77.6059 44.6264 0.0000 0.0000 0.0000
# 3 44.6264 44.6264 149.1185 0.0000 0.0000 0.0000
# 4 0.0000 0.0000 0.0000 19.7865 0.0000 0.0000
# 5 0.0000 0.0000 0.0000 0.0000 19.7865 0.0000
# 6 0.0000 0.0000 0.0000 0.0000 0.0000 35.2466
#
#
#
# Elastic Compliance Matrix: (Units=1/GPa)
#
#
# Indices 1 2 3 4 5 6 
#
# 1 0.015712 0.001527 -0.005159 0.000000 0.000000 0.000000
# 2 0.001527 0.015712 -0.005159 0.000000 0.000000 0.000000
# 3 -0.005159 -0.005159 0.009794 0.000000 0.000000 0.000000
# 4 0.000000 0.000000 0.000000 0.050539 0.000000 0.000000
# 5 0.000000 0.000000 0.000000 0.000000 0.050539 0.000000
# 6 0.000000 0.000000 0.000000 0.000000 0.000000 0.028372
#
#
# Mechanical properties :
#
#
# Convention : Reuss Voigt Hill
#
# Bulk Modulus (GPa) = 42.30908 55.22908 48.76908
# Shear Modulus (GPa) = 25.49320 28.82824 27.16072
#
# Velocity S-wave (km/s) = 3.56241 3.78827 3.67707
# Velocity P-wave (km/s) = 6.16302 6.82848 6.50427
#
# Compressibility (1/GPa) = 0.02363559
#
# Stress axis : x y z
#
# Youngs Moduli (GPa) = 63.64415 63.64415 102.10360
#
# Poissons Ratio (x) = -0.09716 0.52676
# Poissons Ratio (y) = -0.09716 0.52676
# Poissons Ratio (z) = 0.32834 0.32834
#
# Static dielectric constant tensor:
#      x y z
#    x 3.461230 0.000000 0.000000 
#    y 0.000000 3.461230 0.000000 
#    z 0.000000 0.000000 3.644040 
# 
# 
# High freq. dielectric constant tensor:
#      x y z
#    x 1.768910 0.000000 0.000000 
#    y 0.000000 1.768910 0.000000 
#    z 0.000000 0.000000 1.795710 
# 
# From -- ./inp_files/2678.got.cif
#   From: 2010.06.25/outbox.cif.g09.slc.cpg/sg190_2_cif.got.tgz:2678.got - 2010.06.28 13:08:06.
