data_PCOD8328918
_publ_section_title
;
Structure prediction by ZEFSAII (Michael W. Deem and Ramdas Pophale) SiO2 
 PCOD8328918
Probable space group: P 6/M M M
;
_chemical_formula_sum "Si O2"
_cell_formula_units_Z 96
_cell_length_a 26.668500
_cell_length_b 26.668500
_cell_length_c 9.354922
_cell_angle_alpha 90.000000
_cell_angle_beta 90.000000
_cell_angle_gamma 120.000000
_cell_volume 5761.930034
_symmetry_space_group_name_H-M "P 6/M M M"
_symmetry_group_IT_number 191
_symmetry_cell_setting 'hexagonal'
loop_
_space_group_symop_operation_xyz
x,y,z
x-y,x,z
-y,x-y,z
-x,-y,z
-x+y,-x,z
y,-x+y,z
x-y,-y,-z
-x,-x+y,-z
y,x,-z
-y,-x,-z
-x+y,y,-z
x,x-y,-z
-x,-y,-z
-x+y,-x,-z
y,-x+y,-z
x,y,-z
x-y,x,-z
-y,x-y,-z
-x+y,y,z
x,x-y,z
-y,-x,z
y,x,z
x-y,-y,z
-x,-x+y,z
loop_
_atom_site_type_symbol
_atom_site_label
_atom_site_fract_x
_atom_site_fract_y
_atom_site_fract_z
Si Si1 0.572269 0.144537 0.664521
Si Si2 0.325118 0.162559 0.838464
Si Si3 0.370323 0.740645 0.160017
Si Si4 0.458581 0.133136 0.333763
Si Si5 0.537355 0.768678 0.161321
Si Si6 0.066564 0.327171 0.332640
O O1 0.579677 0.159354 0.500000
O O2 0.603576 0.207152 0.733017
O O3 0.606122 0.109328 0.701114
O O4 0.393632 0.196816 0.838445
O O5 0.303336 0.102159 0.755384
O O6 0.300253 0.150127 0.000000
O O7 0.300387 0.699614 0.182190
O O8 0.383016 0.766032 0.000000
O O9 0.459837 0.148829 0.500000
O O10 0.483327 0.192084 0.243318
O O11 0.393383 0.085687 0.289897
O O12 0.512912 0.756456 0.000000
O O13 0.076979 0.322724 0.500000
O O14 0.000000 0.287896 0.289764
#
# Coordination Sequence:
#
# PCOD8328918 Si02
#       6
#    12  12  12  24  12  24
#     4  10  20  30  42  59  82 110 142 184 235 291
#     4   9  17  29  46  72  99 122 150 187 228 266
#     4   8  18  33  43  55  76 102 135 180 234 290
#     4   9  18  31  44  62  86 112 146 188 234 283
#     4   9  17  28  44  63  82 107 142 181 226 279
#     4   9  17  31  51  71  94 126 159 191 229 275
#
# _framework density 16.661083000000001
#
# number of rings (size 3 to 8) (size 9 to 14) (size 15 to 20)
#    0.250    2.750    0.000    0.750    1.750    5.000 
#    0.000    0.625    0.000    3.750    0.000    0.000 
#    0.000    9.000    0.000    0.375    0.000    7.250 
#
# Total GULP energy -1189576.004149 kJ/mol
# GULP energy per Si atom -12391.416710 kJ/mol
# Density = 1.662316 g / cm^3
# Si number density = 16.661083 Si / 1000 Ang^3
#
#
#
# Elastic Constant Matrix: (Units=GPa)
#
#
# Indices 1 2 3 4 5 6 
#
# 1 82.2029 52.2033 39.1817 0.0000 0.0000 0.0000
# 2 52.2033 82.2029 39.1817 0.0000 0.0000 0.0000
# 3 39.1817 39.1817 62.5460 0.0000 0.0000 0.0000
# 4 0.0000 0.0000 0.0000 13.1215 0.0000 0.0000
# 5 0.0000 0.0000 0.0000 0.0000 13.1215 0.0000
# 6 0.0000 0.0000 0.0000 0.0000 0.0000 14.9998
#
#
#
# Elastic Compliance Matrix: (Units=1/GPa)
#
#
# Indices 1 2 3 4 5 6 
#
# 1 0.022527 -0.010806 -0.007343 0.000000 0.000000 0.000000
# 2 -0.010806 0.022527 -0.007343 0.000000 0.000000 0.000000
# 3 -0.007343 -0.007343 0.025188 0.000000 0.000000 0.000000
# 4 0.000000 0.000000 0.000000 0.076211 0.000000 0.000000
# 5 0.000000 0.000000 0.000000 0.000000 0.076211 0.000000
# 6 0.000000 0.000000 0.000000 0.000000 0.000000 0.066668
#
#
# Mechanical properties :
#
#
# Convention : Reuss Voigt Hill
#
# Bulk Modulus (GPa) = 51.92262 54.23171 53.07716
# Shear Modulus (GPa) = 14.42023 14.67423 14.54723
#
# Velocity S-wave (km/s) = 2.94514 2.97096 2.95808
# Velocity P-wave (km/s) = 6.54192 6.66254 6.60251
#
# Compressibility (1/GPa) = 0.01925943
#
# Stress axis : x y z
#
# Youngs Moduli (GPa) = 44.39021 44.39021 39.70166
#
# Poissons Ratio (x) = 0.47969 0.29152
# Poissons Ratio (y) = 0.47969 0.29152
# Poissons Ratio (z) = 0.32594 0.32594
#
# Static dielectric constant tensor:
#      x y z
#    x 2.977860 0.000000 0.000000 
#    y 0.000000 2.977860 0.000000 
#    z 0.000000 0.000000 3.190510 
# 
# 
# High freq. dielectric constant tensor:
#      x y z
#    x 1.613380 0.000000 0.000000 
#    y 0.000000 1.613380 0.000000 
#    z 0.000000 0.000000 1.643500 
# 
# From -- ./inp_files/1633.got.cif
#   From: 2010.03.12/outbox.cif.g09.slc.cpg/sg191_1_cif.got.tgz:1633.got - 2010.04.01 12:09:02.
