data_PCOD8328847
_publ_section_title
;
Structure prediction by ZEFSAII (Michael W. Deem and Ramdas Pophale) SiO2 
 PCOD8328847
Probable space group: P 6/M M M
;
_chemical_formula_sum "Si O2"
_cell_formula_units_Z 192
_cell_length_a 22.819122
_cell_length_b 22.819122
_cell_length_c 23.030694
_cell_angle_alpha 90.000000
_cell_angle_beta 90.000000
_cell_angle_gamma 120.000000
_cell_volume 10385.693874
_symmetry_space_group_name_H-M "P 6/M M M"
_symmetry_group_IT_number 191
_symmetry_cell_setting 'hexagonal'
loop_
_space_group_symop_operation_xyz
x,y,z
x-y,x,z
-y,x-y,z
-x,-y,z
-x+y,-x,z
y,-x+y,z
x-y,-y,-z
-x,-x+y,-z
y,x,-z
-y,-x,-z
-x+y,y,-z
x,x-y,-z
-x,-y,-z
-x+y,-x,-z
y,-x+y,-z
x,y,-z
x-y,x,-z
-y,x-y,-z
-x+y,y,z
x,x-y,z
-y,-x,z
y,x,z
x-y,-y,z
-x,-x+y,z
loop_
_atom_site_type_symbol
_atom_site_label
_atom_site_fract_x
_atom_site_fract_y
_atom_site_fract_z
Si Si1 0.078403 0.472201 0.852592
Si Si2 0.926700 0.206809 0.610447
Si Si3 0.268123 0.863524 0.932798
Si Si4 0.800706 0.334275 0.628150
Si Si5 0.072200 0.275234 0.854665
Si Si6 0.693183 0.520960 0.750172
Si Si7 0.901776 0.669806 0.735084
Si Si8 0.409012 0.331449 0.432404
O O1 0.078840 0.539420 0.872656
O O2 0.110667 0.451807 0.905029
O O3 0.130010 0.491989 0.798714
O O4 0.000000 0.414084 0.838465
O O5 0.871082 0.128919 0.598537
O O6 0.938195 0.224108 0.678887
O O7 0.902785 0.254045 0.579097
O O8 0.000000 0.222513 0.586112
O O9 0.217515 0.782486 0.924152
O O10 0.234275 0.902560 0.903611
O O11 0.279137 0.882992 0.000000
O O12 0.786443 0.393222 0.606907
O O13 0.738631 0.261370 0.608274
O O14 0.805939 0.338555 0.698147
O O15 0.871041 0.347829 0.600974
O O16 0.123330 0.246659 0.847084
O O17 0.057283 0.304077 0.794974
O O18 0.000000 0.212723 0.874053
O O19 0.760414 0.520827 0.775392
O O20 0.712135 0.592871 0.721415
O O21 0.836269 0.672537 0.750655
O O22 0.426185 0.341258 0.500000
O O23 0.381978 0.381978 0.411634
#
# Coordination Sequence:
#
# PCOD8328847 Si02
#       8
#    24  24  24  24  24  24  24  24
#     4  11  23  35  51  79 111 140 168 204 258 321
#     4  10  19  32  52  79 108 138 175 218 266 317
#     4  10  21  37  56  75  97 132 176 218 260 305
#     4  11  23  39  59  82 110 145 182 221 263 314
#     4  10  19  31  50  76 105 135 169 211 257 306
#     4  10  19  35  57  78 104 139 178 215 256 304
#     4   9  16  28  50  78 101 128 168 213 259 303
#     4  10  22  39  59  81 105 138 178 223 275 322
#
# _framework density 18.486968999999998
#
# number of rings (size 3 to 8) (size 9 to 14) (size 15 to 20)
#    0.000    1.875    2.500    2.000    0.000    3.750 
#    0.000    1.250    0.000    3.750    0.000    0.000 
#    0.000    3.000    0.000    6.250    0.000    0.000 
#
# Total GULP energy -2379160.074769 kJ/mol
# GULP energy per Si atom -12391.458723 kJ/mol
# Density = 1.844489 g / cm^3
# Si number density = 18.486969 Si / 1000 Ang^3
#
#
#
# Elastic Constant Matrix: (Units=GPa)
#
#
# Indices 1 2 3 4 5 6 
#
# 1 106.9709 56.3213 28.3990 0.0000 0.0000 0.0000
# 2 56.3213 106.9709 28.3990 0.0000 0.0000 0.0000
# 3 28.3990 28.3990 73.8346 0.0000 0.0000 0.0000
# 4 0.0000 0.0000 0.0000 15.4230 0.0000 0.0000
# 5 0.0000 0.0000 0.0000 0.0000 15.4230 0.0000
# 6 0.0000 0.0000 0.0000 0.0000 0.0000 25.3248
#
#
#
# Elastic Compliance Matrix: (Units=1/GPa)
#
#
# Indices 1 2 3 4 5 6 
#
# 1 0.013407 -0.006337 -0.002719 0.000000 0.000000 0.000000
# 2 -0.006337 0.013407 -0.002719 0.000000 0.000000 0.000000
# 3 -0.002719 -0.002719 0.015636 0.000000 0.000000 0.000000
# 4 0.000000 0.000000 0.000000 0.064838 0.000000 0.000000
# 5 0.000000 0.000000 0.000000 0.000000 0.064838 0.000000
# 6 0.000000 0.000000 0.000000 0.000000 0.000000 0.039487
#
#
# Mechanical properties :
#
#
# Convention : Reuss Voigt Hill
#
# Bulk Modulus (GPa) = 52.91507 57.11275 55.01391
# Shear Modulus (GPa) = 20.70713 22.87796 21.79255
#
# Velocity S-wave (km/s) = 3.35041 3.52165 3.43710
# Velocity P-wave (km/s) = 6.60697 6.89178 6.75088
#
# Compressibility (1/GPa) = 0.01889821
#
# Stress axis : x y z
#
# Youngs Moduli (GPa) = 74.58976 74.58976 63.95662
#
# Poissons Ratio (x) = 0.47266 0.17392
# Poissons Ratio (y) = 0.47266 0.17392
# Poissons Ratio (z) = 0.20283 0.20283
#
# Static dielectric constant tensor:
#      x y z
#    x 3.545490 0.000000 0.000000 
#    y 0.000000 3.545490 0.000000 
#    z 0.000000 0.000000 3.414310 
# 
# 
# High freq. dielectric constant tensor:
#      x y z
#    x 1.709470 0.000000 0.000000 
#    y 0.000000 1.709470 0.000000 
#    z 0.000000 0.000000 1.712150 
# 
# From -- ./inp_files/8105.got.cif
#   From: 2010.03.12/outbox.cif.g09.slc.cpg/sg191_5_cif.got.tgz:8105.got - 2010.04.01 12:09:02.
