data_PCOD8328844
_publ_section_title
;
Structure prediction by ZEFSAII (Michael W. Deem and Ramdas Pophale) SiO2 
 PCOD8328844
Probable space group: P 6/M M M
;
_chemical_formula_sum "Si O2"
_cell_formula_units_Z 144
_cell_length_a 31.587534
_cell_length_b 31.587534
_cell_length_c 8.960421
_cell_angle_alpha 90.000000
_cell_angle_beta 90.000000
_cell_angle_gamma 120.000000
_cell_volume 7742.665402
_symmetry_space_group_name_H-M "P 6/M M M"
_symmetry_group_IT_number 191
_symmetry_cell_setting 'hexagonal'
loop_
_space_group_symop_operation_xyz
x,y,z
x-y,x,z
-y,x-y,z
-x,-y,z
-x+y,-x,z
y,-x+y,z
x-y,-y,-z
-x,-x+y,-z
y,x,-z
-y,-x,-z
-x+y,y,-z
x,x-y,-z
-x,-y,-z
-x+y,-x,-z
y,-x+y,-z
x,y,-z
x-y,x,-z
-y,x-y,-z
-x+y,y,z
x,x-y,z
-y,-x,z
y,x,z
x-y,-y,z
-x,-x+y,z
loop_
_atom_site_type_symbol
_atom_site_label
_atom_site_fract_x
_atom_site_fract_y
_atom_site_fract_z
Si Si1 0.574611 0.054350 0.677250
Si Si2 0.202976 0.148552 0.828921
Si Si3 0.673371 0.528061 0.677253
Si Si4 0.056184 0.290580 0.326123
Si Si5 0.760791 0.618925 0.175173
Si Si6 0.571643 0.333388 0.322631
O O1 0.574878 0.057193 0.500000
O O2 0.532605 0.065209 0.737829
O O3 0.627689 0.094591 0.737742
O O4 0.562033 0.000000 0.728768
O O5 0.183469 0.091735 0.794610
O O6 0.158685 0.158685 0.794694
O O7 0.248926 0.181005 0.724701
O O8 0.220657 0.161670 0.000000
O O9 0.678988 0.534599 0.500000
O O10 0.723116 0.567834 0.751820
O O11 0.664436 0.475692 0.729530
O O12 0.067661 0.300189 0.500000
O O13 0.090193 0.339969 0.238673
O O14 0.000000 0.274101 0.290169
O O15 0.815664 0.631328 0.215091
O O16 0.752126 0.615339 0.000000
O O17 0.574179 0.333431 0.500000
O O18 0.569468 0.284734 0.258061
O O19 0.619414 0.380587 0.257407
#
# Coordination Sequence:
#
# PCOD8328844 Si02
#       6
#    24  24  24  24  24  24
#     4   8  14  26  46  73 103 132 163 203 251 299
#     4   9  17  30  49  73 102 136 172 209 251 299
#     4  10  19  31  50  75 100 128 167 212 253 295
#     4  10  21  36  55  79 103 127 161 208 257 301
#     4  11  24  39  53  71 100 139 176 206 243 295
#     4   9  16  26  43  69  99 127 157 200 256 312
#
# _framework density 18.598247000000001
#
# number of rings (size 3 to 8) (size 9 to 14) (size 15 to 20)
#    0.000    2.500    0.000    3.167    0.000    8.667 
#    0.000    1.667    0.000    2.167    0.000    2.333 
#    0.000    1.333    0.000    4.167    0.000    4.333 
#
# Total GULP energy -1785514.559671 kJ/mol
# GULP energy per Si atom -12399.406664 kJ/mol
# Density = 1.855592 g / cm^3
# Si number density = 18.598247 Si / 1000 Ang^3
#
#
#
# Elastic Constant Matrix: (Units=GPa)
#
#
# Indices 1 2 3 4 5 6 
#
# 1 134.2545 68.6993 37.8533 0.0000 0.0000 0.0000
# 2 68.6993 134.2545 37.8533 0.0000 0.0000 0.0000
# 3 37.8533 37.8533 42.9056 0.0000 0.0000 0.0000
# 4 0.0000 0.0000 0.0000 15.2301 0.0000 0.0000
# 5 0.0000 0.0000 0.0000 0.0000 15.2301 0.0000
# 6 0.0000 0.0000 0.0000 0.0000 0.0000 32.7776
#
#
#
# Elastic Compliance Matrix: (Units=1/GPa)
#
#
# Indices 1 2 3 4 5 6 
#
# 1 0.011299 -0.003955 -0.006479 0.000000 0.000000 0.000000
# 2 -0.003955 0.011299 -0.006479 0.000000 0.000000 0.000000
# 3 -0.006479 -0.006479 0.034740 0.000000 0.000000 0.000000
# 4 0.000000 0.000000 0.000000 0.065660 0.000000 0.000000
# 5 0.000000 0.000000 0.000000 0.000000 0.065660 0.000000
# 6 0.000000 0.000000 0.000000 0.000000 0.000000 0.030509
#
#
# Mechanical properties :
#
#
# Convention : Reuss Voigt Hill
#
# Bulk Modulus (GPa) = 42.53395 66.69181 54.61288
# Shear Modulus (GPa) = 19.16955 23.78149 21.47552
#
# Velocity S-wave (km/s) = 3.21396 3.57976 3.40178
# Velocity P-wave (km/s) = 6.05741 7.28171 6.69760
#
# Compressibility (1/GPa) = 0.02351063
#
# Stress axis : x y z
#
# Youngs Moduli (GPa) = 88.50151 88.50151 28.78548
#
# Poissons Ratio (x) = 0.35003 0.18651
# Poissons Ratio (y) = 0.35003 0.18651
# Poissons Ratio (z) = 0.57343 0.57343
#
# Static dielectric constant tensor:
#      x y z
#    x 3.577780 0.000000 0.000000 
#    y 0.000000 3.577780 0.000000 
#    z 0.000000 0.000000 3.077750 
# 
# 
# High freq. dielectric constant tensor:
#      x y z
#    x 1.728440 0.000000 0.000000 
#    y 0.000000 1.728440 0.000000 
#    z 0.000000 0.000000 1.682340 
# 
# From -- ./inp_files/1938.got.cif
#   From: 2010.03.12/outbox.cif.g09.slc.cpg/sg191_1_cif.got.tgz:1938.got - 2010.04.01 12:09:02.
