data_PCOD8328341
_publ_section_title
;
Structure prediction by ZEFSAII (Michael W. Deem and Ramdas Pophale) SiO2 
 PCOD8328341
Probable space group: P 6/M M M
;
_chemical_formula_sum "Si O2"
_cell_formula_units_Z 120
_cell_length_a 18.087386
_cell_length_b 18.087386
_cell_length_c 25.396772
_cell_angle_alpha 90.000000
_cell_angle_beta 90.000000
_cell_angle_gamma 120.000000
_cell_volume 7195.496488
_symmetry_space_group_name_H-M "P 6/M M M"
_symmetry_group_IT_number 191
_symmetry_cell_setting 'hexagonal'
loop_
_space_group_symop_operation_xyz
x,y,z
x-y,x,z
-y,x-y,z
-x,-y,z
-x+y,-x,z
y,-x+y,z
x-y,-y,-z
-x,-x+y,-z
y,x,-z
-y,-x,-z
-x+y,y,-z
x,x-y,-z
-x,-y,-z
-x+y,-x,-z
y,-x+y,-z
x,y,-z
x-y,x,-z
-y,x-y,-z
-x+y,y,z
x,x-y,z
-y,-x,z
y,x,z
x-y,-y,z
-x,-x+y,z
loop_
_atom_site_type_symbol
_atom_site_label
_atom_site_fract_x
_atom_site_fract_y
_atom_site_fract_z
Si Si1 0.264810 0.901971 0.703931
Si Si2 0.668681 0.166943 0.500000
Si Si3 0.165954 0.497679 0.790326
Si Si4 0.367693 0.901582 0.903045
Si Si5 0.901227 0.638226 0.000000
Si Si6 0.632801 0.100157 0.609106
O O1 0.162199 0.837802 0.708105
O O2 0.312592 0.897243 0.756140
O O3 0.298149 0.868914 0.655405
O O4 0.286087 0.000000 0.697039
O O5 0.731942 0.268058 0.500000
O O6 0.571680 0.143360 0.500000
O O7 0.682955 0.126997 0.553249
O O8 0.263819 0.527638 0.776189
O O9 0.146480 0.573240 0.777492
O O10 0.152071 0.472427 0.851557
O O11 0.439993 0.879985 0.922372
O O12 0.300132 0.878409 0.949292
O O13 0.410726 0.000000 0.887330
O O14 0.839777 0.679554 0.000000
O O15 0.000000 0.713541 0.000000
O O16 0.570304 0.140608 0.616011
O O17 0.575488 0.000000 0.611342
#
# Coordination Sequence:
#
# PCOD8328341 Si02
#       6
#    24  12  24  24  12  24
#     4  10  20  33  49  68  89 114 146 185 227 270
#     4  10  18  27  39  57  84 117 151 183 213 246
#     4  10  19  30  45  67  96 127 156 184 214 250
#     4   9  17  29  46  67  90 118 151 185 221 262
#     4  10  19  31  47  66  89 117 152 192 231 271
#     4   9  17  29  45  64  86 114 147 181 218 260
#
# _framework density 16.677098999999998
#
# number of rings (size 3 to 8) (size 9 to 14) (size 15 to 20)
#    0.000    2.400    0.000    3.300    0.000    4.400 
#    0.000    0.000    0.000    9.500    0.000    0.000 
#    0.000    0.000    0.000    6.400    0.000   20.800 
#
# Total GULP energy -1487627.386059 kJ/mol
# GULP energy per Si atom -12396.894884 kJ/mol
# Density = 1.663914 g / cm^3
# Si number density = 16.677099 Si / 1000 Ang^3
#
#
#
# Elastic Constant Matrix: (Units=GPa)
#
#
# Indices 1 2 3 4 5 6 
#
# 1 70.4162 39.9850 31.4812 0.0000 0.0000 0.0000
# 2 39.9850 70.4162 31.4812 0.0000 0.0000 0.0000
# 3 31.4812 31.4812 83.8085 0.0000 0.0000 0.0000
# 4 0.0000 0.0000 0.0000 14.0700 0.0000 0.0000
# 5 0.0000 0.0000 0.0000 0.0000 14.0700 0.0000
# 6 0.0000 0.0000 0.0000 0.0000 0.0000 15.2156
#
#
#
# Elastic Compliance Matrix: (Units=1/GPa)
#
#
# Indices 1 2 3 4 5 6 
#
# 1 0.022194 -0.010667 -0.004330 0.000000 0.000000 0.000000
# 2 -0.010667 0.022194 -0.004330 0.000000 0.000000 0.000000
# 3 -0.004330 -0.004330 0.015185 0.000000 0.000000 0.000000
# 4 0.000000 0.000000 0.000000 0.071073 0.000000 0.000000
# 5 0.000000 0.000000 0.000000 0.000000 0.071073 0.000000
# 6 0.000000 0.000000 0.000000 0.000000 0.000000 0.065722
#
#
# Mechanical properties :
#
#
# Convention : Reuss Voigt Hill
#
# Bulk Modulus (GPa) = 47.80239 47.83730 47.81984
# Shear Modulus (GPa) = 15.97095 16.78402 16.37749
#
# Velocity S-wave (km/s) = 3.09796 3.17584 3.13714
# Velocity P-wave (km/s) = 6.44377 6.49574 6.46981
#
# Compressibility (1/GPa) = 0.02091946
#
# Stress axis : x y z
#
# Youngs Moduli (GPa) = 45.05684 45.05684 65.85451
#
# Poissons Ratio (x) = 0.48061 0.28515
# Poissons Ratio (y) = 0.48061 0.28515
# Poissons Ratio (z) = 0.19510 0.19510
#
# Static dielectric constant tensor:
#      x y z
#    x 2.949970 0.000000 0.000000 
#    y 0.000000 2.949970 0.000000 
#    z 0.000000 0.000000 3.361890 
# 
# 
# High freq. dielectric constant tensor:
#      x y z
#    x 1.618350 0.000000 0.000000 
#    y 0.000000 1.618350 0.000000 
#    z 0.000000 0.000000 1.660740 
# 
# From -- ./inp_files/8513.got.cif
#   From: 2010.03.12/outbox.cif.g09.slc.cpg/sg191_5_cif.got.tgz:8513.got - 2010.04.01 12:09:02.
