data_PCOD8328801
_publ_section_title
;
Structure prediction by ZEFSAII (Michael W. Deem and Ramdas Pophale) SiO2 
 PCOD8328801
Probable space group: P 6/M M M
;
_chemical_formula_sum "Si O2"
_cell_formula_units_Z 72
_cell_length_a 17.345217
_cell_length_b 17.345217
_cell_length_c 17.389163
_cell_angle_alpha 90.000000
_cell_angle_beta 90.000000
_cell_angle_gamma 120.000000
_cell_volume 4530.736292
_symmetry_space_group_name_H-M "P 6/M M M"
_symmetry_group_IT_number 191
_symmetry_cell_setting 'hexagonal'
loop_
_space_group_symop_operation_xyz
x,y,z
x-y,x,z
-y,x-y,z
-x,-y,z
-x+y,-x,z
y,-x+y,z
x-y,-y,-z
-x,-x+y,-z
y,x,-z
-y,-x,-z
-x+y,y,-z
x,x-y,-z
-x,-y,-z
-x+y,-x,-z
y,-x+y,-z
x,y,-z
x-y,x,-z
-y,x-y,-z
-x+y,y,z
x,x-y,z
-y,-x,z
y,x,z
x-y,-y,z
-x,-x+y,z
loop_
_atom_site_type_symbol
_atom_site_label
_atom_site_fract_x
_atom_site_fract_y
_atom_site_fract_z
Si Si1 0.591440 0.000000 0.914209
Si Si2 0.637709 0.104837 0.500000
Si Si3 0.485048 0.152669 0.801329
Si Si4 0.625496 0.727124 0.349437
O O1 0.663531 0.088067 0.869679
O O2 0.500000 0.000000 0.918053
O O3 0.627140 0.000000 0.000000
O O4 0.574522 0.149044 0.500000
O O5 0.698618 0.135058 0.424579
O O6 0.575920 0.000000 0.500000
O O7 0.581193 0.162386 0.798968
O O8 0.496639 0.248320 0.817074
O O9 0.437025 0.110150 0.721340
O O10 0.666941 0.833471 0.338067
O O11 0.705922 0.705922 0.357175
#
# Coordination Sequence:
#
# PCOD8328801 Si02
#       4
#    12  12  24  24
#     4   9  18  32  48  65  89 121 152 187 234 283
#     4   9  17  28  45  68  94 124 158 191 227 272
#     4  10  19  31  48  69  94 123 157 195 235 279
#     4  10  19  31  48  70  95 126 161 198 237 280
#
# _framework density 15.891456
#
# number of rings (size 3 to 8) (size 9 to 14) (size 15 to 20)
#    0.000    2.333    1.667    1.833    0.000    2.000 
#    0.000    0.000    0.000    7.000    0.000    0.000 
#    0.000    4.000    0.000    0.000    0.000   15.167 
#
# Total GULP energy -892679.345896 kJ/mol
# GULP energy per Si atom -12398.324249 kJ/mol
# Density = 1.585529 g / cm^3
# Si number density = 15.891456 Si / 1000 Ang^3
#
#
#
# Elastic Constant Matrix: (Units=GPa)
#
#
# Indices 1 2 3 4 5 6 
#
# 1 86.8702 51.2987 40.5234 0.0000 0.0000 0.0000
# 2 51.2987 86.8702 40.5234 0.0000 0.0000 0.0000
# 3 40.5234 40.5234 142.3638 0.0000 0.0000 0.0000
# 4 0.0000 0.0000 0.0000 9.8851 0.0000 0.0000
# 5 0.0000 0.0000 0.0000 0.0000 9.8851 0.0000
# 6 0.0000 0.0000 0.0000 0.0000 0.0000 17.7858
#
#
#
# Elastic Compliance Matrix: (Units=1/GPa)
#
#
# Indices 1 2 3 4 5 6 
#
# 1 0.018400 -0.009712 -0.002473 0.000000 0.000000 0.000000
# 2 -0.009712 0.018400 -0.002473 0.000000 0.000000 0.000000
# 3 -0.002473 -0.002473 0.008432 0.000000 0.000000 0.000000
# 4 0.000000 0.000000 0.000000 0.101162 0.000000 0.000000
# 5 0.000000 0.000000 0.000000 0.000000 0.101162 0.000000
# 6 0.000000 0.000000 0.000000 0.000000 0.000000 0.056225
#
#
# Mechanical properties :
#
#
# Convention : Reuss Voigt Hill
#
# Bulk Modulus (GPa) = 62.82889 64.53280 63.68085
# Shear Modulus (GPa) = 14.77529 19.76180 17.26854
#
# Velocity S-wave (km/s) = 3.05251 3.53022 3.30002
# Velocity P-wave (km/s) = 7.21428 7.57055 7.39456
#
# Compressibility (1/GPa) = 0.01591624
#
# Stress axis : x y z
#
# Youngs Moduli (GPa) = 54.34709 54.34709 118.59370
#
# Poissons Ratio (x) = 0.52782 0.29329
# Poissons Ratio (y) = 0.52782 0.29329
# Poissons Ratio (z) = 0.13440 0.13440
#
# Static dielectric constant tensor:
#      x y z
#    x 2.899640 0.000000 0.000000 
#    y 0.000000 2.899640 0.000000 
#    z 0.000000 0.000000 3.286420 
# 
# 
# High freq. dielectric constant tensor:
#      x y z
#    x 1.593570 0.000000 0.000000 
#    y 0.000000 1.593570 0.000000 
#    z 0.000000 0.000000 1.624320 
# 
# From -- ./inp_files/3922.got.cif
#   From: 2010.03.12/outbox.cif.g09.slc.cpg/sg191_2_cif.got.tgz:3922.got - 2010.04.01 12:09:02.
