data_PCOD8328669
_publ_section_title
;
Structure prediction by ZEFSAII (Michael W. Deem and Ramdas Pophale) SiO2 
 PCOD8328669
Probable space group: P 6/M M M
;
_chemical_formula_sum "Si O2"
_cell_formula_units_Z 168
_cell_length_a 18.542439
_cell_length_b 18.542439
_cell_length_c 34.669021
_cell_angle_alpha 90.000000
_cell_angle_beta 90.000000
_cell_angle_gamma 120.000000
_cell_volume 10323.000007
_symmetry_space_group_name_H-M "P 6/M M M"
_symmetry_group_IT_number 191
_symmetry_cell_setting 'hexagonal'
loop_
_space_group_symop_operation_xyz
x,y,z
x-y,x,z
-y,x-y,z
-x,-y,z
-x+y,-x,z
y,-x+y,z
x-y,-y,-z
-x,-x+y,-z
y,x,-z
-y,-x,-z
-x+y,y,-z
x,x-y,-z
-x,-y,-z
-x+y,-x,-z
y,-x+y,-z
x,y,-z
x-y,x,-z
-y,x-y,-z
-x+y,y,z
x,x-y,z
-y,-x,z
y,x,z
x-y,-y,z
-x,-x+y,z
loop_
_atom_site_type_symbol
_atom_site_label
_atom_site_fract_x
_atom_site_fract_y
_atom_site_fract_z
Si Si1 0.668469 0.167947 0.760084
Si Si2 0.907580 0.254124 0.096042
Si Si3 0.744327 0.650808 0.184940
Si Si4 0.832039 0.500514 0.599443
Si Si5 0.832375 0.498739 0.955594
Si Si6 0.906661 0.651120 0.455389
Si Si7 0.092896 0.461050 0.679768
O O1 0.576639 0.153278 0.765940
O O2 0.735096 0.264904 0.766181
O O3 0.681033 0.111376 0.791157
O O4 0.682325 0.141351 0.717682
O O5 0.841221 0.158780 0.084792
O O6 0.896838 0.272182 0.140312
O O7 0.894719 0.318416 0.070303
O O8 0.000000 0.269212 0.088362
O O9 0.840410 0.680819 0.196056
O O10 0.725620 0.725620 0.193894
O O11 0.735052 0.470104 0.593348
O O12 0.846753 0.423377 0.593528
O O13 0.888539 0.569723 0.568393
O O14 0.858579 0.540873 0.641863
O O15 0.737481 0.474962 0.948411
O O16 0.841238 0.420619 0.942942
O O17 0.857794 0.522524 0.000000
O O18 0.897975 0.625568 0.500000
O O19 0.840500 0.680999 0.444356
O O20 0.000000 0.725903 0.446112
O O21 0.087997 0.543999 0.679788
O O22 0.000000 0.381444 0.679743
#
# Coordination Sequence:
#
# PCOD8328669 Si02
#       7
#    24  24  24  24  24  24  24
#     4  10  19  30  44  63  89 121 155 187 218 254
#     4   9  18  32  48  66  88 114 144 178 219 265
#     4   9  18  32  49  67  87 113 144 179 220 265
#     4  10  19  30  44  63  89 121 155 188 221 258
#     4   9  17  29  45  65  90 120 152 184 217 253
#     4   9  18  32  49  68  89 114 144 179 221 267
#     4   9  17  28  42  60  82 111 149 191 229 261
#
# _framework density 16.274338
#
# number of rings (size 3 to 8) (size 9 to 14) (size 15 to 20)
#    0.000    2.714    0.000    1.714    0.000    3.714 
#    0.000    4.286    0.000    3.000    0.000    3.000 
#    0.000    0.000    0.000    3.571    0.000   33.429 
#
# Total GULP energy -2082950.532748 kJ/mol
# GULP energy per Si atom -12398.515076 kJ/mol
# Density = 1.623730 g / cm^3
# Si number density = 16.274338 Si / 1000 Ang^3
#
#
#
# Elastic Constant Matrix: (Units=GPa)
#
#
# Indices 1 2 3 4 5 6 
#
# 1 93.9814 64.3864 45.5289 0.0000 0.0000 0.0000
# 2 64.3864 93.9814 45.5289 0.0000 0.0000 0.0000
# 3 45.5289 45.5289 69.6043 0.0000 0.0000 0.0000
# 4 0.0000 0.0000 0.0000 22.9552 0.0000 0.0000
# 5 0.0000 0.0000 0.0000 0.0000 22.9552 0.0000
# 6 0.0000 0.0000 0.0000 0.0000 0.0000 14.7975
#
#
#
# Elastic Compliance Matrix: (Units=1/GPa)
#
#
# Indices 1 2 3 4 5 6 
#
# 1 0.021955 -0.011834 -0.006620 0.000000 0.000000 0.000000
# 2 -0.011834 0.021955 -0.006620 0.000000 0.000000 0.000000
# 3 -0.006620 -0.006620 0.023028 0.000000 0.000000 0.000000
# 4 0.000000 0.000000 0.000000 0.043563 0.000000 0.000000
# 5 0.000000 0.000000 0.000000 0.000000 0.043563 0.000000
# 6 0.000000 0.000000 0.000000 0.000000 0.000000 0.067579
#
#
# Mechanical properties :
#
#
# Convention : Reuss Voigt Hill
#
# Bulk Modulus (GPa) = 59.56412 63.16175 61.36293
# Shear Modulus (GPa) = 18.02524 18.94976 18.48750
#
# Velocity S-wave (km/s) = 3.33165 3.41603 3.37410
# Velocity P-wave (km/s) = 7.17491 7.37929 7.27782
#
# Compressibility (1/GPa) = 0.01678863
#
# Stress axis : x y z
#
# Youngs Moduli (GPa) = 45.54731 45.54731 43.42622
#
# Poissons Ratio (x) = 0.53902 0.28749
# Poissons Ratio (y) = 0.53902 0.28749
# Poissons Ratio (z) = 0.30153 0.30153
#
# Static dielectric constant tensor:
#      x y z
#    x 3.040670 0.000000 0.000000 
#    y 0.000000 3.040670 0.000000 
#    z 0.000000 0.000000 3.217790 
# 
# 
# High freq. dielectric constant tensor:
#      x y z
#    x 1.613130 0.000000 0.000000 
#    y 0.000000 1.613130 0.000000 
#    z 0.000000 0.000000 1.633670 
# 
# From -- ./inp_files/10759.got.cif
#   From: 2010.03.12/outbox.cif.g09.slc.cpg/sg191_6_cif.got.tgz:10759.got - 2010.04.01 12:09:02.
