data_PCOD8328713
_publ_section_title
;
Structure prediction by ZEFSAII (Michael W. Deem and Ramdas Pophale) SiO2 
 PCOD8328713
Probable space group: P 6/M M M
;
_chemical_formula_sum "Si O2"
_cell_formula_units_Z 120
_cell_length_a 17.615711
_cell_length_b 17.615711
_cell_length_c 25.677592
_cell_angle_alpha 90.000000
_cell_angle_beta 90.000000
_cell_angle_gamma 120.000000
_cell_volume 6900.574979
_symmetry_space_group_name_H-M "P 6/M M M"
_symmetry_group_IT_number 191
_symmetry_cell_setting 'hexagonal'
loop_
_space_group_symop_operation_xyz
x,y,z
x-y,x,z
-y,x-y,z
-x,-y,z
-x+y,-x,z
y,-x+y,z
x-y,-y,-z
-x,-x+y,-z
y,x,-z
-y,-x,-z
-x+y,y,-z
x,x-y,-z
-x,-y,-z
-x+y,-x,-z
y,-x+y,-z
x,y,-z
x-y,x,-z
-y,x-y,-z
-x+y,y,z
x,x-y,z
-y,-x,z
y,x,z
x-y,-y,z
-x,-x+y,z
loop_
_atom_site_type_symbol
_atom_site_label
_atom_site_fract_x
_atom_site_fract_y
_atom_site_fract_z
Si Si1 0.506818 0.837566 0.389330
Si Si2 0.541420 0.902937 0.500000
Si Si3 0.467358 0.103267 0.199030
Si Si4 0.331958 0.843704 0.000000
Si Si5 0.271086 0.371615 0.098955
Si Si6 0.632228 0.731203 0.702849
O O1 0.429742 0.859483 0.382467
O O2 0.472142 0.736071 0.375707
O O3 0.544363 0.853984 0.448019
O O4 0.584435 0.899956 0.350634
O O5 0.453394 0.906788 0.500000
O O6 0.624969 0.000000 0.500000
O O7 0.573196 0.146391 0.197829
O O8 0.434704 0.133217 0.149028
O O9 0.439294 0.133128 0.251111
O O10 0.424651 0.000000 0.198562
O O11 0.323609 0.892993 0.949933
O O12 0.258383 0.741618 0.000000
O O13 0.426499 0.852998 0.000000
O O14 0.166029 0.332057 0.092271
O O15 0.292092 0.292092 0.104601
O O16 0.672315 0.836158 0.699705
O O17 0.711242 0.711242 0.712812
#
# Coordination Sequence:
#
# PCOD8328713 Si02
#       6
#    24  12  24  12  24  24
#     4  10  19  30  45  66  93 124 157 193 232 274
#     4   9  17  28  42  60  84 119 161 197 227 264
#     4   9  17  30  49  72  96 122 153 187 224 271
#     4  10  20  33  50  73 100 128 157 192 236 285
#     4  10  20  33  50  72  97 127 163 202 242 283
#     4  10  20  33  50  71  94 122 156 195 237 280
#
# _framework density 17.389855000000001
#
# number of rings (size 3 to 8) (size 9 to 14) (size 15 to 20)
#    0.000    2.300    0.000    3.300    0.000    3.600 
#    0.000    1.000    0.000    6.000    0.000    0.000 
#    0.000    7.200    0.000    0.000    0.000   21.600 
#
# Total GULP energy -1487755.794486 kJ/mol
# GULP energy per Si atom -12397.964954 kJ/mol
# Density = 1.735028 g / cm^3
# Si number density = 17.389855 Si / 1000 Ang^3
#
#
#
# Elastic Constant Matrix: (Units=GPa)
#
#
# Indices 1 2 3 4 5 6 
#
# 1 85.5833 51.5898 27.5897 0.0000 0.0000 0.0000
# 2 51.5898 85.5833 27.5897 0.0000 0.0000 0.0000
# 3 27.5897 27.5897 124.4957 0.0000 0.0000 0.0000
# 4 0.0000 0.0000 0.0000 16.5239 0.0000 0.0000
# 5 0.0000 0.0000 0.0000 0.0000 16.5239 0.0000
# 6 0.0000 0.0000 0.0000 0.0000 0.0000 16.9968
#
#
#
# Elastic Compliance Matrix: (Units=1/GPa)
#
#
# Indices 1 2 3 4 5 6 
#
# 1 0.018710 -0.010707 -0.001774 0.000000 0.000000 0.000000
# 2 -0.010707 0.018710 -0.001774 0.000000 0.000000 0.000000
# 3 -0.001774 -0.001774 0.008819 0.000000 0.000000 0.000000
# 4 0.000000 0.000000 0.000000 0.060518 0.000000 0.000000
# 5 0.000000 0.000000 0.000000 0.000000 0.060518 0.000000
# 6 0.000000 0.000000 0.000000 0.000000 0.000000 0.058835
#
#
# Mechanical properties :
#
#
# Convention : Reuss Voigt Hill
#
# Bulk Modulus (GPa) = 56.39872 56.57789 56.48830
# Shear Modulus (GPa) = 19.19166 22.60179 20.89673
#
# Velocity S-wave (km/s) = 3.32567 3.60906 3.47026
# Velocity P-wave (km/s) = 6.87380 7.06914 6.97215
#
# Compressibility (1/GPa) = 0.01773090
#
# Stress axis : x y z
#
# Youngs Moduli (GPa) = 53.44604 53.44604 113.39744
#
# Poissons Ratio (x) = 0.57224 0.20113
# Poissons Ratio (y) = 0.57224 0.20113
# Poissons Ratio (z) = 0.09480 0.09480
#
# Static dielectric constant tensor:
#      x y z
#    x 3.040070 0.000000 0.000000 
#    y 0.000000 3.040070 0.000000 
#    z 0.000000 0.000000 3.515170 
# 
# 
# High freq. dielectric constant tensor:
#      x y z
#    x 1.648390 0.000000 0.000000 
#    y 0.000000 1.648390 0.000000 
#    z 0.000000 0.000000 1.695010 
# 
# From -- ./inp_files/8586.got.cif
#   From: 2010.03.12/outbox.cif.g09.slc.cpg/sg191_5_cif.got.tgz:8586.got - 2010.04.01 12:09:02.
