data_PCOD8328160
_publ_section_title
;
Structure prediction by ZEFSAII (Michael W. Deem and Ramdas Pophale) SiO2 
 PCOD8328160
Probable space group: P -6 2 C
;
_chemical_formula_sum "Si O2"
_cell_formula_units_Z 58
_cell_length_a 14.155508
_cell_length_b 14.155508
_cell_length_c 16.234332
_cell_angle_alpha 90.000000
_cell_angle_beta 90.000000
_cell_angle_gamma 120.000000
_cell_volume 2817.188936
_symmetry_space_group_name_H-M "P -6 2 C"
_symmetry_group_IT_number 190
_symmetry_cell_setting 'hexagonal'
loop_
_space_group_symop_operation_xyz
x,y,z
-x+y,-x,1/2-z
-y,x-y,z
x,y,1/2-z
-x+y,-x,z
-y,x-y,1/2-z
x-y,-y,-z
-x,-x+y,-z
y,x,-z
y,x,1/2+z
x-y,-y,1/2+z
-x,-x+y,1/2+z
loop_
_atom_site_type_symbol
_atom_site_label
_atom_site_fract_x
_atom_site_fract_y
_atom_site_fract_z
Si Si1 0.858947 0.756319 0.155794
Si Si2 0.698247 0.231816 0.750000
Si Si3 0.666668 0.333335 0.154984
Si Si4 0.690513 0.104115 0.591230
Si Si5 0.115522 0.186578 0.077453
Si Si6 0.549732 0.857680 0.913283
O O1 0.816281 0.737700 0.250000
O O2 0.812054 0.817798 0.099722
O O3 0.824344 0.640404 0.112649
O O4 0.990096 0.838214 0.156413
O O5 0.575675 0.214007 0.750000
O O6 0.718742 0.181819 0.668900
O O7 0.666667 0.333334 0.250000
O O8 0.655743 0.219691 0.129074
O O9 0.796711 0.105463 0.555417
O O10 0.665345 0.151635 0.509465
O O11 0.595533 0.982863 0.615759
O O12 0.109203 0.109203 0.000000
#
# Coordination Sequence:
#
# PCOD8328160 Si02
#       6
#    12   6   4  12  12  12
#     4  11  22  37  60  96 136 181 234 280 349 407
#     4  10  26  44  72 106 130 168 228 296 344 428
#     4  12  27  45  72 103 134 178 234 291 342 414
#     4  10  22  46  69  95 128 180 221 281 361 399
#     4  11  21  38  61  93 136 181 227 283 338 420
#     4  10  24  45  69  93 135 184 226 289 348 419
#
# _framework density 20.587897000000002
#
# number of rings (size 3 to 8) (size 9 to 14) (size 15 to 20)
#    0.207    1.241    4.138    2.276   11.586    0.000 
#    3.724    0.000    0.000    0.000    0.000    0.000 
#    0.000    0.000    0.000    0.000    0.000    0.000 
#
# Total GULP energy -718541.496850 kJ/mol
# GULP energy per Si atom -12388.646497 kJ/mol
# Density = 2.054104 g / cm^3
# Si number density = 20.587897 Si / 1000 Ang^3
#
#
#
# Elastic Constant Matrix: (Units=GPa)
#
#
# Indices 1 2 3 4 5 6 
#
# 1 116.2847 -15.9961 37.5092 0.0006 -0.0002 0.0097
# 2 -15.9961 116.2933 37.5115 -0.0008 0.0002 -0.0083
# 3 37.5092 37.5115 150.5165 0.0001 0.0000 0.0015
# 4 0.0006 -0.0008 0.0001 32.5296 0.0000 -0.0002
# 5 -0.0002 0.0002 0.0000 0.0000 32.5297 -0.0007
# 6 0.0097 -0.0083 0.0015 -0.0002 -0.0007 66.1109
#
#
#
# Elastic Compliance Matrix: (Units=1/GPa)
#
#
# Indices 1 2 3 4 5 6 
#
# 1 0.009908 0.002348 -0.003054 0.000000 0.000000 -0.000001
# 2 0.002348 0.009907 -0.003054 0.000000 0.000000 0.000001
# 3 -0.003054 -0.003054 0.008166 0.000000 0.000000 0.000000
# 4 0.000000 0.000000 0.000000 0.030741 0.000000 0.000000
# 5 0.000000 0.000000 0.000000 0.000000 0.030741 0.000000
# 6 -0.000001 0.000001 0.000000 0.000000 0.000000 0.015126
#
#
# Mechanical properties :
#
#
# Convention : Reuss Voigt Hill
#
# Bulk Modulus (GPa) = 48.87563 55.68264 52.27914
# Shear Modulus (GPa) = 42.04150 47.83869 44.94010
#
# Velocity S-wave (km/s) = 4.52381 4.82564 4.67716
# Velocity P-wave (km/s) = 7.14688 7.62588 7.39026
#
# Compressibility (1/GPa) = 0.02046009
#
# Stress axis : x y z
#
# Youngs Moduli (GPa) = 100.93117 100.93825 122.45812
#
# Poissons Ratio (x) = -0.23700 0.37401
# Poissons Ratio (y) = -0.23698 0.37400
# Poissons Ratio (z) = 0.30826 0.30828
#
# Static dielectric constant tensor:
#      x y z
#    x 3.565420 0.000010 0.000010 
#    y 0.000010 3.565470 0.000010 
#    z 0.000010 0.000010 3.749590 
# 
# 
# High freq. dielectric constant tensor:
#      x y z
#    x 1.789410 0.000000 0.000000 
#    y 0.000000 1.789410 0.000000 
#    z 0.000000 0.000000 1.821440 
# 
# From -- ./inp_files/2865.got.cif
#   From: 2010.06.25/outbox.cif.g09.slc.cpg/sg190_2_cif.got.tgz:2865.got - 2010.06.28 13:08:06.
