data_PCOD8328767
_publ_section_title
;
Structure prediction by ZEFSAII (Michael W. Deem and Ramdas Pophale) SiO2 
 PCOD8328767
Probable space group: P 6/M M M
;
_chemical_formula_sum "Si O2"
_cell_formula_units_Z 96
_cell_length_a 23.873966
_cell_length_b 23.873966
_cell_length_c 10.480066
_cell_angle_alpha 90.000000
_cell_angle_beta 90.000000
_cell_angle_gamma 120.000000
_cell_volume 5173.015640
_symmetry_space_group_name_H-M "P 6/M M M"
_symmetry_group_IT_number 191
_symmetry_cell_setting 'hexagonal'
loop_
_space_group_symop_operation_xyz
x,y,z
x-y,x,z
-y,x-y,z
-x,-y,z
-x+y,-x,z
y,-x+y,z
x-y,-y,-z
-x,-x+y,-z
y,x,-z
-y,-x,-z
-x+y,y,-z
x,x-y,-z
-x,-y,-z
-x+y,-x,-z
y,-x+y,-z
x,y,-z
x-y,x,-z
-y,x-y,-z
-x+y,y,z
x,x-y,z
-y,-x,z
y,x,z
x-y,-y,z
-x,-x+y,z
loop_
_atom_site_type_symbol
_atom_site_label
_atom_site_fract_x
_atom_site_fract_y
_atom_site_fract_z
Si Si1 0.148243 0.296485 0.152125
Si Si2 0.925691 0.074310 0.848082
Si Si3 0.623902 0.122827 0.751857
Si Si4 0.927622 0.633795 0.144148
Si Si5 0.543571 0.208907 0.000000
Si Si6 0.204400 0.539174 0.500000
O O1 0.111335 0.222671 0.204772
O O2 0.114871 0.336910 0.202111
O O3 0.146637 0.293274 0.000000
O O4 0.000000 0.111241 0.798211
O O5 0.925307 0.074694 0.000000
O O6 0.545037 0.090073 0.748098
O O7 0.650127 0.072903 0.768966
O O8 0.651486 0.168893 0.872161
O O9 0.654530 0.161516 0.623536
O O10 0.000000 0.693171 0.142097
O O11 0.904609 0.607321 0.000000
O O12 0.621389 0.242778 0.000000
O O13 0.519850 0.259925 0.000000
O O14 0.262564 0.525127 0.500000
O O15 0.232069 0.616035 0.500000
#
# Coordination Sequence:
#
# PCOD8328767 Si02
#       6
#    12  12  24  24  12  12
#     4   9  18  29  46  70 101 135 175 226 268 316
#     4   9  15  24  39  62  97 139 181 220 262 316
#     4  10  21  35  51  77 104 136 177 224 264 320
#     4  10  20  33  52  77 104 138 177 218 271 321
#     4  10  19  30  49  73 105 134 171 215 268 314
#     4  10  21  36  55  77 107 142 179 217 270 328
#
# _framework density 18.557841
#
# number of rings (size 3 to 8) (size 9 to 14) (size 15 to 20)
#    0.000    2.250    1.250    1.875    3.500    4.000 
#    0.000    4.375    0.000    2.250    0.000    0.000 
#    0.000    0.000    0.000    0.000    0.000    0.375 
#
# Total GULP energy -1189754.853489 kJ/mol
# GULP energy per Si atom -12393.279724 kJ/mol
# Density = 1.851560 g / cm^3
# Si number density = 18.557841 Si / 1000 Ang^3
#
#
#
# Elastic Constant Matrix: (Units=GPa)
#
#
# Indices 1 2 3 4 5 6 
#
# 1 116.9402 61.3136 21.0601 0.0000 0.0000 0.0000
# 2 61.3136 116.9402 21.0601 0.0000 0.0000 0.0000
# 3 21.0601 21.0601 84.5082 0.0000 0.0000 0.0000
# 4 0.0000 0.0000 0.0000 11.4805 0.0000 0.0000
# 5 0.0000 0.0000 0.0000 0.0000 11.4805 0.0000
# 6 0.0000 0.0000 0.0000 0.0000 0.0000 27.8133
#
#
#
# Elastic Compliance Matrix: (Units=1/GPa)
#
#
# Indices 1 2 3 4 5 6 
#
# 1 0.011969 -0.006008 -0.001486 0.000000 0.000000 0.000000
# 2 -0.006008 0.011969 -0.001486 0.000000 0.000000 0.000000
# 3 -0.001486 -0.001486 0.012574 0.000000 0.000000 0.000000
# 4 0.000000 0.000000 0.000000 0.087104 0.000000 0.000000
# 5 0.000000 0.000000 0.000000 0.000000 0.087104 0.000000
# 6 0.000000 0.000000 0.000000 0.000000 0.000000 0.035954
#
#
# Mechanical properties :
#
#
# Convention : Reuss Voigt Hill
#
# Bulk Modulus (GPa) = 53.89826 58.36177 56.13001
# Shear Modulus (GPa) = 18.46269 24.48519 21.47394
#
# Velocity S-wave (km/s) = 3.15758 3.63629 3.40536
# Velocity P-wave (km/s) = 6.51154 7.01049 6.76562
#
# Compressibility (1/GPa) = 0.01855348
#
# Stress axis : x y z
#
# Youngs Moduli (GPa) = 83.54911 83.54911 79.53190
#
# Poissons Ratio (x) = 0.50196 0.11815
# Poissons Ratio (y) = 0.50196 0.11815
# Poissons Ratio (z) = 0.12411 0.12411
#
# Static dielectric constant tensor:
#      x y z
#    x 3.501670 0.000000 0.000000 
#    y 0.000000 3.501670 0.000000 
#    z 0.000000 0.000000 3.118970 
# 
# 
# High freq. dielectric constant tensor:
#      x y z
#    x 1.724360 0.000000 0.000000 
#    y 0.000000 1.724360 0.000000 
#    z 0.000000 0.000000 1.672220 
# 
# From -- ./inp_files/2882.got.cif
#   From: 2010.03.12/outbox.cif.g09.slc.cpg/sg191_2_cif.got.tgz:2882.got - 2010.04.01 12:09:02.
