data_PCOD8328541
_publ_section_title
;
Structure prediction by ZEFSAII (Michael W. Deem and Ramdas Pophale) SiO2 
 PCOD8328541
Probable space group: P 6/M M M
;
_chemical_formula_sum "Si O2"
_cell_formula_units_Z 120
_cell_length_a 26.468764
_cell_length_b 26.468764
_cell_length_c 12.422490
_cell_angle_alpha 90.000000
_cell_angle_beta 90.000000
_cell_angle_gamma 120.000000
_cell_volume 7537.140498
_symmetry_space_group_name_H-M "P 6/M M M"
_symmetry_group_IT_number 191
_symmetry_cell_setting 'hexagonal'
loop_
_space_group_symop_operation_xyz
x,y,z
x-y,x,z
-y,x-y,z
-x,-y,z
-x+y,-x,z
y,-x+y,z
x-y,-y,-z
-x,-x+y,-z
y,x,-z
-y,-x,-z
-x+y,y,-z
x,x-y,-z
-x,-y,-z
-x+y,-x,-z
y,-x+y,-z
x,y,-z
x-y,x,-z
-y,x-y,-z
-x+y,y,z
x,x-y,z
-y,-x,z
y,x,z
x-y,-y,z
-x,-x+y,z
loop_
_atom_site_type_symbol
_atom_site_label
_atom_site_fract_x
_atom_site_fract_y
_atom_site_fract_z
Si Si1 0.508588 0.377386 0.308671
Si Si2 0.254976 0.187804 0.000000
Si Si3 0.380829 0.067714 0.619132
Si Si4 0.115269 0.769238 0.814859
Si Si5 0.705134 0.180617 0.120729
Si Si6 0.334511 0.553800 0.500000
O O1 0.552749 0.447252 0.309625
O O2 0.443346 0.362218 0.334973
O O3 0.511415 0.351817 0.193101
O O4 0.526795 0.345287 0.394764
O O5 0.293193 0.219790 0.106022
O O6 0.199421 0.199421 0.000000
O O7 0.236344 0.118172 0.000000
O O8 0.387534 0.096685 0.500000
O O9 0.346162 0.086231 0.701385
O O10 0.343295 0.000000 0.605037
O O11 0.169536 0.830465 0.782566
O O12 0.135126 0.728696 0.876349
O O13 0.756166 0.243835 0.160521
O O14 0.686140 0.184124 0.000000
O O15 0.376452 0.623549 0.500000
O O16 0.268014 0.536028 0.500000
#
# Coordination Sequence:
#
# PCOD8328541 Si02
#       6
#    24  12  24  24  24  12
#     4  10  20  32  45  64  87 114 152 191 229 277
#     4  10  18  30  50  75 103 133 163 193 225 263
#     4  10  20  33  47  66  92 125 160 191 230 275
#     4   9  17  30  48  73  97 120 152 190 233 275
#     4   9  16  29  48  68  89 111 142 185 235 288
#     4  10  19  32  47  65  85 107 138 181 236 286
#
# _framework density 15.921156999999999
#
# number of rings (size 3 to 8) (size 9 to 14) (size 15 to 20)
#    0.000    2.400    2.000    1.300    0.000    2.000 
#    0.000    1.000    0.000    0.500    0.000    2.800 
#    0.000    0.000    0.000    0.000    0.000    0.000 
#
# Total GULP energy -1487214.478058 kJ/mol
# GULP energy per Si atom -12393.453984 kJ/mol
# Density = 1.588492 g / cm^3
# Si number density = 15.921157 Si / 1000 Ang^3
#
#
#
# Elastic Constant Matrix: (Units=GPa)
#
#
# Indices 1 2 3 4 5 6 
#
# 1 63.1024 30.2431 34.9922 0.0000 0.0000 0.0000
# 2 30.2431 63.1024 34.9922 0.0000 0.0000 0.0000
# 3 34.9922 34.9922 112.9543 0.0000 0.0000 0.0000
# 4 0.0000 0.0000 0.0000 23.3567 0.0000 0.0000
# 5 0.0000 0.0000 0.0000 0.0000 23.3567 0.0000
# 6 0.0000 0.0000 0.0000 0.0000 0.0000 16.4297
#
#
#
# Elastic Compliance Matrix: (Units=1/GPa)
#
#
# Indices 1 2 3 4 5 6 
#
# 1 0.022193 -0.008239 -0.004323 0.000000 0.000000 0.000000
# 2 -0.008239 0.022193 -0.004323 0.000000 0.000000 0.000000
# 3 -0.004323 -0.004323 0.011531 0.000000 0.000000 0.000000
# 4 0.000000 0.000000 0.000000 0.042814 0.000000 0.000000
# 5 0.000000 0.000000 0.000000 0.000000 0.042814 0.000000
# 6 0.000000 0.000000 0.000000 0.000000 0.000000 0.060865
#
#
# Mechanical properties :
#
#
# Convention : Reuss Voigt Hill
#
# Bulk Modulus (GPa) = 45.15077 48.84602 46.99840
# Shear Modulus (GPa) = 20.52844 21.89074 21.20959
#
# Velocity S-wave (km/s) = 3.59469 3.71205 3.65384
# Velocity P-wave (km/s) = 6.75645 7.00849 6.88362
#
# Compressibility (1/GPa) = 0.02214802
#
# Stress axis : x y z
#
# Youngs Moduli (GPa) = 45.05871 45.05871 86.71936
#
# Poissons Ratio (x) = 0.37126 0.37487
# Poissons Ratio (y) = 0.37126 0.37487
# Poissons Ratio (z) = 0.19478 0.19478
#
# Static dielectric constant tensor:
#      x y z
#    x 2.889320 0.000000 0.000000 
#    y 0.000000 2.889320 0.000000 
#    z 0.000000 0.000000 3.376340 
# 
# 
# High freq. dielectric constant tensor:
#      x y z
#    x 1.590460 0.000000 0.000000 
#    y 0.000000 1.590460 0.000000 
#    z 0.000000 0.000000 1.627150 
# 
# From -- ./inp_files/3279.got.cif
#   From: 2010.03.12/outbox.cif.g09.slc.cpg/sg191_2_cif.got.tgz:3279.got - 2010.04.01 12:09:02.
