data_PCOD8328756
_publ_section_title
;
Structure prediction by ZEFSAII (Michael W. Deem and Ramdas Pophale) SiO2 
 PCOD8328756
Probable space group: P 6/M M M
;
_chemical_formula_sum "Si O2"
_cell_formula_units_Z 192
_cell_length_a 25.271271
_cell_length_b 25.271271
_cell_length_c 20.073350
_cell_angle_alpha 90.000000
_cell_angle_beta 90.000000
_cell_angle_gamma 120.000000
_cell_volume 11102.087829
_symmetry_space_group_name_H-M "P 6/M M M"
_symmetry_group_IT_number 191
_symmetry_cell_setting 'hexagonal'
loop_
_space_group_symop_operation_xyz
x,y,z
x-y,x,z
-y,x-y,z
-x,-y,z
-x+y,-x,z
y,-x+y,z
x-y,-y,-z
-x,-x+y,-z
y,x,-z
-y,-x,-z
-x+y,y,-z
x,x-y,-z
-x,-y,-z
-x+y,-x,-z
y,-x+y,-z
x,y,-z
x-y,x,-z
-y,x-y,-z
-x+y,y,z
x,x-y,z
-y,-x,z
y,x,z
x-y,-y,z
-x,-x+y,z
loop_
_atom_site_type_symbol
_atom_site_label
_atom_site_fract_x
_atom_site_fract_y
_atom_site_fract_z
Si Si1 0.071669 0.704739 0.574242
Si Si2 0.214687 0.665875 0.695750
Si Si3 0.543454 0.333013 0.924304
Si Si4 0.748398 0.816335 0.925595
Si Si5 0.195542 0.268461 0.333992
Si Si6 0.375141 0.506461 0.576547
Si Si7 0.930296 0.252308 0.803470
Si Si8 0.833378 0.288216 0.809890
O O1 0.098049 0.729279 0.500000
O O2 0.093083 0.762921 0.622928
O O3 0.089253 0.653859 0.597659
O O4 0.000000 0.669741 0.572656
O O5 0.205863 0.602932 0.724017
O O6 0.285679 0.714322 0.697448
O O7 0.192257 0.660067 0.620020
O O8 0.176162 0.684150 0.742975
O O9 0.558133 0.279067 0.909655
O O10 0.604359 0.395642 0.909359
O O11 0.490945 0.327435 0.874730
O O12 0.520946 0.330190 0.000000
O O13 0.778347 0.889174 0.920713
O O14 0.802106 0.802106 0.908107
O O15 0.693929 0.784229 0.872924
O O16 0.721730 0.793055 0.000000
O O17 0.122746 0.245492 0.349436
O O18 0.216080 0.216080 0.346948
O O19 0.205778 0.288425 0.257074
O O20 0.360100 0.510880 0.500000
O O21 0.449530 0.550471 0.588437
O O22 0.896670 0.290927 0.797573
O O23 0.000000 0.303706 0.804535
O O24 0.781536 0.218465 0.820512
#
# Coordination Sequence:
#
# PCOD8328756 Si02
#       8
#    24  24  24  24  24  24  24  24
#     4   9  18  32  50  73 100 130 164 200 238 281
#     4  10  20  33  48  65  87 116 150 189 234 283
#     4   9  17  29  46  68  93 120 150 188 236 287
#     4   9  17  29  46  68  94 124 156 189 224 263
#     4  10  20  34  53  76 102 131 163 201 246 297
#     4   9  18  31  46  67  95 126 162 202 242 285
#     4  10  20  33  49  70  96 125 156 190 230 275
#     4  10  19  30  47  70  92 115 147 188 232 276
#
# _framework density 17.294045000000001
#
# number of rings (size 3 to 8) (size 9 to 14) (size 15 to 20)
#    0.000    2.500    0.000    2.500    0.000    3.250 
#    0.000    5.000    0.000    3.250    0.000    1.750 
#    0.000    3.000    0.000    3.250    0.000    0.000 
#
# Total GULP energy -2379105.299448 kJ/mol
# GULP energy per Si atom -12391.173435 kJ/mol
# Density = 1.725468 g / cm^3
# Si number density = 17.294045 Si / 1000 Ang^3
#
#
#
# Elastic Constant Matrix: (Units=GPa)
#
#
# Indices 1 2 3 4 5 6 
#
# 1 84.4884 47.0892 32.7495 0.0000 0.0000 0.0000
# 2 47.0892 84.4884 32.7495 0.0000 0.0000 0.0000
# 3 32.7495 32.7495 80.5306 0.0000 0.0000 0.0000
# 4 0.0000 0.0000 0.0000 18.9422 0.0000 0.0000
# 5 0.0000 0.0000 0.0000 0.0000 18.9422 0.0000
# 6 0.0000 0.0000 0.0000 0.0000 0.0000 18.6996
#
#
#
# Elastic Compliance Matrix: (Units=1/GPa)
#
#
# Indices 1 2 3 4 5 6 
#
# 1 0.018134 -0.008605 -0.003875 0.000000 0.000000 0.000000
# 2 -0.008605 0.018134 -0.003875 0.000000 0.000000 0.000000
# 3 -0.003875 -0.003875 0.015570 0.000000 0.000000 0.000000
# 4 0.000000 0.000000 0.000000 0.052792 0.000000 0.000000
# 5 0.000000 0.000000 0.000000 0.000000 0.052792 0.000000
# 6 0.000000 0.000000 0.000000 0.000000 0.000000 0.053477
#
#
# Mechanical properties :
#
#
# Convention : Reuss Voigt Hill
#
# Bulk Modulus (GPa) = 52.28234 52.74262 52.51248
# Shear Modulus (GPa) = 20.00121 20.44474 20.22297
#
# Velocity S-wave (km/s) = 3.40448 3.44202 3.42330
# Velocity P-wave (km/s) = 6.76395 6.80885 6.78644
#
# Compressibility (1/GPa) = 0.01912692
#
# Stress axis : x y z
#
# Youngs Moduli (GPa) = 55.14542 55.14542 64.22800
#
# Poissons Ratio (x) = 0.47451 0.24890
# Poissons Ratio (y) = 0.47451 0.24890
# Poissons Ratio (z) = 0.21370 0.21370
#
# Static dielectric constant tensor:
#      x y z
#    x 3.194770 0.000000 0.000000 
#    y 0.000000 3.194770 0.000000 
#    z 0.000000 0.000000 3.611520 
# 
# 
# High freq. dielectric constant tensor:
#      x y z
#    x 1.651870 0.000000 0.000000 
#    y 0.000000 1.651870 0.000000 
#    z 0.000000 0.000000 1.683560 
# 
# From -- ./inp_files/8146.got.cif
#   From: 2010.03.12/outbox.cif.g09.slc.cpg/sg191_5_cif.got.tgz:8146.got - 2010.04.01 12:09:02.
