data_PCOD8328934
_publ_section_title
;
Structure prediction by ZEFSAII (Michael W. Deem and Ramdas Pophale) SiO2 
 PCOD8328934
Probable space group: P 6/M M M
;
_chemical_formula_sum "Si O2"
_cell_formula_units_Z 132
_cell_length_a 26.716685
_cell_length_b 26.716685
_cell_length_c 12.162965
_cell_angle_alpha 90.000000
_cell_angle_beta 90.000000
_cell_angle_gamma 120.000000
_cell_volume 7518.569675
_symmetry_space_group_name_H-M "P 6/M M M"
_symmetry_group_IT_number 191
_symmetry_cell_setting 'hexagonal'
loop_
_space_group_symop_operation_xyz
x,y,z
x-y,x,z
-y,x-y,z
-x,-y,z
-x+y,-x,z
y,-x+y,z
x-y,-y,-z
-x,-x+y,-z
y,x,-z
-y,-x,-z
-x+y,y,-z
x,x-y,-z
-x,-y,-z
-x+y,-x,-z
y,-x+y,-z
x,y,-z
x-y,x,-z
-y,x-y,-z
-x+y,y,z
x,x-y,z
-y,-x,z
y,x,z
x-y,-y,z
-x,-x+y,z
loop_
_atom_site_type_symbol
_atom_site_label
_atom_site_fract_x
_atom_site_fract_y
_atom_site_fract_z
Si Si1 0.679535 0.747077 0.000000
Si Si2 0.116910 0.770681 0.225717
Si Si3 0.000000 0.441169 0.624595
Si Si4 0.893781 0.352439 0.228882
Si Si5 0.564159 0.933844 0.000000
Si Si6 0.239132 0.175120 0.371000
Si Si7 0.666362 0.215856 0.126079
O O1 0.687534 0.783815 0.890502
O O2 0.725050 0.725050 0.000000
O O3 0.613728 0.696567 0.000000
O O4 0.185108 0.814893 0.240197
O O5 0.103915 0.706010 0.236969
O O6 0.080118 0.779706 0.319168
O O7 0.060501 0.454904 0.681067
O O8 0.000000 0.500000 0.623558
O O9 0.000000 0.419917 0.500000
O O10 0.827599 0.339232 0.226920
O O11 0.911828 0.383991 0.110927
O O12 0.588331 0.000000 0.000000
O O13 0.249077 0.182319 0.500000
O O14 0.219216 0.109608 0.333261
O O15 0.190013 0.190013 0.333775
O O16 0.614496 0.228992 0.136293
O O17 0.725393 0.274608 0.148155
O O18 0.667854 0.193511 0.000000
#
# Coordination Sequence:
#
# PCOD8328934 Si02
#       7
#    12  24  12  24  12  24  24
#     4   9  17  27  45  67 104 144 175 204 244 301
#     4  10  20  31  48  76 107 138 176 216 258 307
#     4  11  26  43  57  77 105 140 181 227 278 326
#     4  11  20  35  56  78 108 142 179 216 264 325
#     4   9  16  29  47  77 103 134 171 209 253 309
#     4   9  18  32  50  72 100 134 174 219 263 310
#     4  10  20  34  54  82 114 145 177 218 271 327
#
# _framework density 17.556531
#
# number of rings (size 3 to 8) (size 9 to 14) (size 15 to 20)
#    0.000    2.091    1.818    2.091    2.545    1.455 
#    0.000    0.455    0.000    1.818    0.000    1.273 
#    0.000    1.455    0.000    0.000    0.000   18.909 
#
# Total GULP energy -1635342.766682 kJ/mol
# GULP energy per Si atom -12388.960354 kJ/mol
# Density = 1.751657 g / cm^3
# Si number density = 17.556531 Si / 1000 Ang^3
#
#
#
# Elastic Constant Matrix: (Units=GPa)
#
#
# Indices 1 2 3 4 5 6 
#
# 1 97.6328 54.4235 42.9999 0.0000 0.0000 0.0000
# 2 54.4235 97.6328 42.9999 0.0000 0.0000 0.0000
# 3 42.9999 42.9999 75.8879 0.0000 0.0000 0.0000
# 4 0.0000 0.0000 0.0000 22.8715 0.0000 0.0000
# 5 0.0000 0.0000 0.0000 0.0000 22.8715 0.0000
# 6 0.0000 0.0000 0.0000 0.0000 0.0000 21.6046
#
#
#
# Elastic Compliance Matrix: (Units=1/GPa)
#
#
# Indices 1 2 3 4 5 6 
#
# 1 0.016411 -0.006733 -0.005484 0.000000 0.000000 0.000000
# 2 -0.006733 0.016411 -0.005484 0.000000 0.000000 0.000000
# 3 -0.005484 -0.005484 0.019392 0.000000 0.000000 0.000000
# 4 0.000000 0.000000 0.000000 0.043722 0.000000 0.000000
# 5 0.000000 0.000000 0.000000 0.000000 0.043722 0.000000
# 6 0.000000 0.000000 0.000000 0.000000 0.000000 0.046286
#
#
# Mechanical properties :
#
#
# Convention : Reuss Voigt Hill
#
# Bulk Modulus (GPa) = 59.47891 61.33337 60.40614
# Shear Modulus (GPa) = 22.03138 22.18488 22.10813
#
# Velocity S-wave (km/s) = 3.54628 3.55861 3.55245
# Velocity P-wave (km/s) = 7.12181 7.20386 7.16295
#
# Compressibility (1/GPa) = 0.01681268
#
# Stress axis : x y z
#
# Youngs Moduli (GPa) = 60.93618 60.93618 51.56806
#
# Poissons Ratio (x) = 0.41026 0.28279
# Poissons Ratio (y) = 0.41026 0.28279
# Poissons Ratio (z) = 0.33416 0.33416
#
# Static dielectric constant tensor:
#      x y z
#    x 3.286940 0.000000 0.000000 
#    y 0.000000 3.286940 0.000000 
#    z 0.000000 0.000000 3.382700 
# 
# 
# High freq. dielectric constant tensor:
#      x y z
#    x 1.677460 0.000000 0.000000 
#    y 0.000000 1.677460 0.000000 
#    z 0.000000 0.000000 1.662390 
# 
# From -- ./inp_files/3399.got.cif
#   From: 2010.03.12/outbox.cif.g09.slc.cpg/sg191_2_cif.got.tgz:3399.got - 2010.04.01 12:09:02.
