data_PCOD8328295
_publ_section_title
;
Structure prediction by ZEFSAII (Michael W. Deem and Ramdas Pophale) SiO2 
 PCOD8328295
Probable space group: P 6/M M M
;
_chemical_formula_sum "Si O2"
_cell_formula_units_Z 120
_cell_length_a 17.772062
_cell_length_b 17.772062
_cell_length_c 27.522555
_cell_angle_alpha 90.000000
_cell_angle_beta 90.000000
_cell_angle_gamma 120.000000
_cell_volume 7528.267100
_symmetry_space_group_name_H-M "P 6/M M M"
_symmetry_group_IT_number 191
_symmetry_cell_setting 'hexagonal'
loop_
_space_group_symop_operation_xyz
x,y,z
x-y,x,z
-y,x-y,z
-x,-y,z
-x+y,-x,z
y,-x+y,z
x-y,-y,-z
-x,-x+y,-z
y,x,-z
-y,-x,-z
-x+y,y,-z
x,x-y,-z
-x,-y,-z
-x+y,-x,-z
y,-x+y,-z
x,y,-z
x-y,x,-z
-y,x-y,-z
-x+y,y,z
x,x-y,z
-y,-x,z
y,x,z
x-y,-y,z
-x,-x+y,z
loop_
_atom_site_type_symbol
_atom_site_label
_atom_site_fract_x
_atom_site_fract_y
_atom_site_fract_z
Si Si1 0.504691 0.835261 0.201957
Si Si2 0.362624 0.903445 0.900271
Si Si3 0.000000 0.410877 0.554271
Si Si4 0.631005 0.901211 0.713078
Si Si5 0.497297 0.166713 0.000000
Si Si6 0.331598 0.489110 0.378610
O O1 0.429458 0.858916 0.209801
O O2 0.469440 0.734720 0.215943
O O3 0.536846 0.847263 0.146222
O O4 0.586341 0.897032 0.235440
O O5 0.449760 0.899519 0.905616
O O6 0.309633 0.869791 0.950931
O O7 0.381487 0.000000 0.891020
O O8 0.086915 0.427204 0.581658
O O9 0.000000 0.500000 0.552195
O O10 0.000000 0.376413 0.500000
O O11 0.668229 0.834115 0.711174
O O12 0.556214 0.874710 0.673234
O O13 0.709695 0.000000 0.705124
O O14 0.569569 0.139137 0.000000
O O15 0.541245 0.270623 0.000000
O O16 0.249858 0.499716 0.393412
O O17 0.416534 0.583467 0.375984
#
# Coordination Sequence:
#
# PCOD8328295 Si02
#       6
#    24  24  12  24  12  24
#     4  10  19  29  43  64  92 122 153 187 224 266
#     4   9  17  28  40  54  73 103 142 182 221 264
#     4   9  18  32  48  66  92 126 161 198 238 276
#     4  10  20  33  50  71  94 122 153 189 231 278
#     4  10  18  27  39  53  72  97 130 174 225 276
#     4  10  19  31  48  70  97 128 163 199 237 279
#
# _framework density 15.939924
#
# number of rings (size 3 to 8) (size 9 to 14) (size 15 to 20)
#    0.000    2.300    1.000    2.600    0.000    3.600 
#    0.000    4.000    0.000    1.400    0.000    0.000 
#    0.000    0.000    0.000    0.000    0.000    9.100 
#
# Total GULP energy -1487375.609284 kJ/mol
# GULP energy per Si atom -12394.796744 kJ/mol
# Density = 1.590364 g / cm^3
# Si number density = 15.939924 Si / 1000 Ang^3
#
#
#
# Elastic Constant Matrix: (Units=GPa)
#
#
# Indices 1 2 3 4 5 6 
#
# 1 79.2971 46.2687 32.7376 0.0000 0.0000 0.0000
# 2 46.2687 79.2971 32.7376 0.0000 0.0000 0.0000
# 3 32.7376 32.7376 103.5253 0.0000 0.0000 0.0000
# 4 0.0000 0.0000 0.0000 18.1999 0.0000 0.0000
# 5 0.0000 0.0000 0.0000 0.0000 18.1999 0.0000
# 6 0.0000 0.0000 0.0000 0.0000 0.0000 16.5142
#
#
#
# Elastic Compliance Matrix: (Units=1/GPa)
#
#
# Indices 1 2 3 4 5 6 
#
# 1 0.019907 -0.010370 -0.003016 0.000000 0.000000 0.000000
# 2 -0.010370 0.019907 -0.003016 0.000000 0.000000 0.000000
# 3 -0.003016 -0.003016 0.011567 0.000000 0.000000 0.000000
# 4 0.000000 0.000000 0.000000 0.054945 0.000000 0.000000
# 5 0.000000 0.000000 0.000000 0.000000 0.054945 0.000000
# 6 0.000000 0.000000 0.000000 0.000000 0.000000 0.060554
#
#
# Mechanical properties :
#
#
# Convention : Reuss Voigt Hill
#
# Bulk Modulus (GPa) = 53.83029 53.95638 53.89333
# Shear Modulus (GPa) = 19.17030 20.60786 19.88908
#
# Velocity S-wave (km/s) = 3.47170 3.59952 3.53619
# Velocity P-wave (km/s) = 7.06501 7.15533 7.11031
#
# Compressibility (1/GPa) = 0.01857690
#
# Stress axis : x y z
#
# Youngs Moduli (GPa) = 50.23433 50.23433 86.45455
#
# Poissons Ratio (x) = 0.52094 0.26072
# Poissons Ratio (y) = 0.52094 0.26072
# Poissons Ratio (z) = 0.15149 0.15149
#
# Static dielectric constant tensor:
#      x y z
#    x 2.863880 0.000000 0.000000 
#    y 0.000000 2.863880 0.000000 
#    z 0.000000 0.000000 3.352890 
# 
# 
# High freq. dielectric constant tensor:
#      x y z
#    x 1.583610 0.000000 0.000000 
#    y 0.000000 1.583610 0.000000 
#    z 0.000000 0.000000 1.631400 
# 
# From -- ./inp_files/9594.got.cif
#   From: 2010.03.12/outbox.cif.g09.slc.cpg/sg191_5_cif.got.tgz:9594.got - 2010.04.01 12:09:02.
