data_PCOD8328790
_publ_section_title
;
Structure prediction by ZEFSAII (Michael W. Deem and Ramdas Pophale) SiO2 
 PCOD8328790
Probable space group: P 6/M M M
;
_chemical_formula_sum "Si O2"
_cell_formula_units_Z 96
_cell_length_a 17.453275
_cell_length_b 17.453275
_cell_length_c 21.948570
_cell_angle_alpha 90.000000
_cell_angle_beta 90.000000
_cell_angle_gamma 120.000000
_cell_volume 5790.162138
_symmetry_space_group_name_H-M "P 6/M M M"
_symmetry_group_IT_number 191
_symmetry_cell_setting 'hexagonal'
loop_
_space_group_symop_operation_xyz
x,y,z
x-y,x,z
-y,x-y,z
-x,-y,z
-x+y,-x,z
y,-x+y,z
x-y,-y,-z
-x,-x+y,-z
y,x,-z
-y,-x,-z
-x+y,y,-z
x,x-y,-z
-x,-y,-z
-x+y,-x,-z
y,-x+y,-z
x,y,-z
x-y,x,-z
-y,x-y,-z
-x+y,y,z
x,x-y,z
-y,-x,z
y,x,z
x-y,-y,z
-x,-x+y,z
loop_
_atom_site_type_symbol
_atom_site_label
_atom_site_fract_x
_atom_site_fract_y
_atom_site_fract_z
Si Si1 0.000000 0.828141 0.071672
Si Si2 0.838990 0.509996 0.306210
Si Si3 0.352039 0.352039 0.910793
Si Si4 0.000000 0.590793 0.225109
Si Si5 0.517444 0.851990 0.000000
Si Si6 0.099290 0.640601 0.565651
O O1 0.912295 0.824589 0.099587
O O2 0.000000 0.738912 0.086161
O O3 0.000000 0.839514 0.000000
O O4 0.748225 0.496450 0.278971
O O5 0.836456 0.418228 0.305499
O O6 0.848736 0.546425 0.375554
O O7 0.916009 0.578986 0.262673
O O8 0.373444 0.373444 0.840900
O O9 0.341186 0.430460 0.941265
O O10 0.000000 0.500000 0.219353
O O11 0.416568 0.833135 0.000000
O O12 0.516655 0.758328 0.000000
O O13 0.141646 0.687043 0.500000
O O14 0.096985 0.548493 0.569170
O O15 0.000000 0.623086 0.569355
#
# Coordination Sequence:
#
# PCOD8328790 Si02
#       6
#    12  24  12  12  12  24
#     4  10  19  33  54  82 110 131 152 188 239 292
#     4  10  19  31  47  68  94 125 164 206 246 287
#     4  11  21  36  58  77 100 132 173 207 238 292
#     4  10  21  37  51  67  94 131 167 201 244 288
#     4  11  22  37  56  80 106 131 162 205 256 302
#     4   8  13  24  43  64  88 120 157 196 241 291
#
# _framework density 16.579847000000001
#
# number of rings (size 3 to 8) (size 9 to 14) (size 15 to 20)
#    0.000    2.250    2.500    3.500    0.000    3.000 
#    0.000    0.000    0.000    4.500    0.000    0.000 
#    0.000    0.000    0.000    0.000    0.000    0.000 
#
# Total GULP energy -1189455.259644 kJ/mol
# GULP energy per Si atom -12390.158955 kJ/mol
# Density = 1.654211 g / cm^3
# Si number density = 16.579847 Si / 1000 Ang^3
#
#
#
# Elastic Constant Matrix: (Units=GPa)
#
#
# Indices 1 2 3 4 5 6 
#
# 1 90.7108 37.1607 46.9262 0.0000 0.0000 0.0000
# 2 37.1607 90.7108 46.9262 0.0000 0.0000 0.0000
# 3 46.9262 46.9262 123.0556 0.0000 0.0000 0.0000
# 4 0.0000 0.0000 0.0000 -17.1971 0.0000 0.0000
# 5 0.0000 0.0000 0.0000 0.0000 -17.1971 0.0000
# 6 0.0000 0.0000 0.0000 0.0000 0.0000 26.7750
#
#
#
# Elastic Compliance Matrix: (Units=1/GPa)
#
#
# Indices 1 2 3 4 5 6 
#
# 1 0.014767 -0.003907 -0.004141 0.000000 0.000000 0.000000
# 2 -0.003907 0.014767 -0.004141 0.000000 0.000000 0.000000
# 3 -0.004141 -0.004141 0.011285 0.000000 0.000000 0.000000
# 4 0.000000 0.000000 0.000000 -0.058149 0.000000 0.000000
# 5 0.000000 0.000000 0.000000 0.000000 -0.058149 0.000000
# 6 0.000000 0.000000 0.000000 0.000000 0.000000 0.037348
#
#
# Mechanical properties :
#
#
# Convention : Reuss Voigt Hill
#
# Bulk Modulus (GPa) = 60.82936 62.94483 61.88710
# Shear Modulus (GPa) = -604.42138 10.04045 -297.19047
#
# Velocity S-wave (km/s) = -19.11395 2.46353 -13.40288
# Velocity P-wave (km/s) = 21.22159 6.79257 14.21649
#
# Compressibility (1/GPa) = 0.01643943
#
# Stress axis : x y z
#
# Youngs Moduli (GPa) = 67.71845 67.71845 88.61367
#
# Poissons Ratio (x) = 0.26458 0.36698
# Poissons Ratio (y) = 0.26458 0.36698
# Poissons Ratio (z) = 0.28045 0.28045
#
# Static dielectric constant tensor:
#      x y z
#    x 3.058260 0.000000 0.000000 
#    y 0.000000 3.058260 0.000000 
#    z 0.000000 0.000000 3.475900 
# 
# 
# High freq. dielectric constant tensor:
#      x y z
#    x 1.622640 0.000000 0.000000 
#    y 0.000000 1.622640 0.000000 
#    z 0.000000 0.000000 1.638090 
# 
# From -- ./inp_files/8296.got.cif
#   From: 2010.03.12/outbox.cif.g09.slc.cpg/sg191_5_cif.got.tgz:8296.got - 2010.04.01 12:09:02.
