data_PCOD8328438
_publ_section_title
;
Structure prediction by ZEFSAII (Michael W. Deem and Ramdas Pophale) SiO2 
 PCOD8328438
Probable space group: P 6/M M M
;
_chemical_formula_sum "Si O2"
_cell_formula_units_Z 168
_cell_length_a 22.765286
_cell_length_b 22.765286
_cell_length_c 22.169753
_cell_angle_alpha 90.000000
_cell_angle_beta 90.000000
_cell_angle_gamma 120.000000
_cell_volume 9950.335119
_symmetry_space_group_name_H-M "P 6/M M M"
_symmetry_group_IT_number 191
_symmetry_cell_setting 'hexagonal'
loop_
_space_group_symop_operation_xyz
x,y,z
x-y,x,z
-y,x-y,z
-x,-y,z
-x+y,-x,z
y,-x+y,z
x-y,-y,-z
-x,-x+y,-z
y,x,-z
-y,-x,-z
-x+y,y,-z
x,x-y,-z
-x,-y,-z
-x+y,-x,-z
y,-x+y,-z
x,y,-z
x-y,x,-z
-y,x-y,-z
-x+y,y,z
x,x-y,z
-y,-x,z
y,x,z
x-y,-y,z
-x,-x+y,z
loop_
_atom_site_type_symbol
_atom_site_label
_atom_site_fract_x
_atom_site_fract_y
_atom_site_fract_z
Si Si1 0.123849 0.743142 0.933610
Si Si2 0.802023 0.468795 0.571497
Si Si3 0.329297 0.408610 0.360230
Si Si4 0.925932 0.205767 0.171125
Si Si5 0.208286 0.924044 0.692215
Si Si6 0.919863 0.393847 0.110709
Si Si7 0.524084 0.604317 0.244345
O O1 0.201613 0.798388 0.921589
O O2 0.078014 0.745903 0.879678
O O3 0.117507 0.669603 0.933831
O O4 0.100440 0.754411 0.000000
O O5 0.801951 0.469192 0.500000
O O6 0.734013 0.468026 0.595530
O O7 0.802557 0.401279 0.594851
O O8 0.870396 0.537627 0.591058
O O9 0.385545 0.385545 0.374257
O O10 0.254857 0.342605 0.355634
O O11 0.338934 0.443560 0.295174
O O12 0.872163 0.127838 0.157125
O O13 0.915371 0.227114 0.238536
O O14 0.000000 0.213590 0.166792
O O15 0.129803 0.870198 0.678309
O O16 0.220687 0.000000 0.683378
O O17 0.898870 0.449435 0.093040
O O18 0.893570 0.365063 0.178164
O O19 0.000000 0.426079 0.104723
O O20 0.445811 0.554190 0.262079
O O21 0.562237 0.562237 0.241242
#
# Coordination Sequence:
#
# PCOD8328438 Si02
#       7
#    24  24  24  24  24  24  24
#     4  10  20  31  42  58  82 111 141 174 213 258
#     4  10  21  36  51  65  86 121 163 200 229 261
#     4  10  18  28  47  73  96 117 143 180 228 275
#     4   9  17  29  45  65  89 117 147 178 214 257
#     4   9  17  29  46  68  93 119 147 180 218 262
#     4   9  17  29  46  66  85 106 133 168 211 255
#     4   8  14  25  41  63  90 114 135 163 205 259
#
# _framework density 16.883853999999999
#
# number of rings (size 3 to 8) (size 9 to 14) (size 15 to 20)
#    0.000    2.714    0.000    3.143    0.000    5.429 
#    0.000    2.143    0.000    0.571    0.000    2.000 
#    0.000    0.000    0.000    3.571    0.000    3.714 
#
# Total GULP energy -2081596.908828 kJ/mol
# GULP energy per Si atom -12390.457791 kJ/mol
# Density = 1.684543 g / cm^3
# Si number density = 16.883854 Si / 1000 Ang^3
#
#
#
# Elastic Constant Matrix: (Units=GPa)
#
#
# Indices 1 2 3 4 5 6 
#
# 1 91.3159 47.8305 25.3669 0.0000 0.0000 0.0000
# 2 47.8305 91.3159 25.3669 0.0000 0.0000 0.0000
# 3 25.3669 25.3669 34.1851 0.0000 0.0000 0.0000
# 4 0.0000 0.0000 0.0000 19.7147 0.0000 0.0000
# 5 0.0000 0.0000 0.0000 0.0000 19.7147 0.0000
# 6 0.0000 0.0000 0.0000 0.0000 0.0000 21.7427
#
#
#
# Elastic Compliance Matrix: (Units=1/GPa)
#
#
# Indices 1 2 3 4 5 6 
#
# 1 0.016424 -0.006572 -0.007311 0.000000 0.000000 0.000000
# 2 -0.006572 0.016424 -0.007311 0.000000 0.000000 0.000000
# 3 -0.007311 -0.007311 0.040102 0.000000 0.000000 0.000000
# 4 0.000000 0.000000 0.000000 0.050724 0.000000 0.000000
# 5 0.000000 0.000000 0.000000 0.000000 0.050724 0.000000
# 6 0.000000 0.000000 0.000000 0.000000 0.000000 0.045993
#
#
# Mechanical properties :
#
#
# Convention : Reuss Voigt Hill
#
# Bulk Modulus (GPa) = 32.71860 45.99393 39.35627
# Shear Modulus (GPa) = 18.31733 20.11792 19.21762
#
# Velocity S-wave (km/s) = 3.29736 3.45563 3.37742
# Velocity P-wave (km/s) = 5.82387 6.57437 6.21047
#
# Compressibility (1/GPa) = 0.03056365
#
# Stress axis : x y z
#
# Youngs Moduli (GPa) = 60.88557 60.88557 24.93617
#
# Poissons Ratio (x) = 0.40014 0.18230
# Poissons Ratio (y) = 0.40014 0.18230
# Poissons Ratio (z) = 0.44512 0.44512
#
# Static dielectric constant tensor:
#      x y z
#    x 3.093220 0.000000 0.000000 
#    y 0.000000 3.093220 0.000000 
#    z 0.000000 0.000000 3.174220 
# 
# 
# High freq. dielectric constant tensor:
#      x y z
#    x 1.634420 0.000000 0.000000 
#    y 0.000000 1.634420 0.000000 
#    z 0.000000 0.000000 1.640660 
# 
# From -- ./inp_files/8016.got.cif
#   From: 2010.03.12/outbox.cif.g09.slc.cpg/sg191_5_cif.got.tgz:8016.got - 2010.04.01 12:09:02.
