data_PCOD8328299
_publ_section_title
;
Structure prediction by ZEFSAII (Michael W. Deem and Ramdas Pophale) SiO2 
 PCOD8328299
Probable space group: P 6/M M M
;
_chemical_formula_sum "Si O2"
_cell_formula_units_Z 108
_cell_length_a 33.309564
_cell_length_b 33.309564
_cell_length_c 7.996548
_cell_angle_alpha 90.000000
_cell_angle_beta 90.000000
_cell_angle_gamma 120.000000
_cell_volume 7683.711966
_symmetry_space_group_name_H-M "P 6/M M M"
_symmetry_group_IT_number 191
_symmetry_cell_setting 'hexagonal'
loop_
_space_group_symop_operation_xyz
x,y,z
x-y,x,z
-y,x-y,z
-x,-y,z
-x+y,-x,z
y,-x+y,z
x-y,-y,-z
-x,-x+y,-z
y,x,-z
-y,-x,-z
-x+y,y,-z
x,x-y,-z
-x,-y,-z
-x+y,-x,-z
y,-x+y,-z
x,y,-z
x-y,x,-z
-y,x-y,-z
-x+y,y,z
x,x-y,z
-y,-x,z
y,x,z
x-y,-y,z
-x,-x+y,z
loop_
_atom_site_type_symbol
_atom_site_label
_atom_site_fract_x
_atom_site_fract_y
_atom_site_fract_z
Si Si1 0.482164 0.426807 0.500000
Si Si2 0.101888 0.294708 0.804427
Si Si3 0.948002 0.294611 0.691349
Si Si4 0.051145 0.190151 0.800791
Si Si5 0.377668 0.944970 0.815580
O O1 0.452892 0.452892 0.500000
O O2 0.536753 0.463248 0.500000
O O3 0.470898 0.395437 0.667796
O O4 0.155452 0.310904 0.764522
O O5 0.087674 0.328028 0.711510
O O6 0.069274 0.242364 0.738186
O O7 0.094241 0.297165 0.000000
O O8 0.949643 0.308963 0.500000
O O9 0.929279 0.323588 0.793392
O O10 0.000000 0.308068 0.751270
O O11 0.086625 0.173251 0.738005
O O12 0.000000 0.156159 0.726512
O O13 0.050155 0.189912 0.000000
O O14 0.406942 0.000000 0.804238
O O15 0.383973 0.928098 0.000000
#
# Coordination Sequence:
#
# PCOD8328299 Si02
#       5
#    12  24  24  24  24
#     4   9  16  26  38  54  77  98 122 158 192 226
#     4   9  17  27  38  53  70  89 118 153 188 232
#     4  10  18  27  39  54  73  96 123 155 190 232
#     4   8  13  21  33  48  65  84 108 140 178 224
#     4   9  16  26  39  54  73  98 127 157 190 227
#
# _framework density 14.055706000000001
#
# number of rings (size 3 to 8) (size 9 to 14) (size 15 to 20)
#    0.000    3.000    1.111    2.667    0.000    3.111 
#    0.000    2.222    0.000    0.222    0.000    1.556 
#    0.000    0.000    0.000    0.000    0.000    0.000 
#
# Total GULP energy -1338447.649021 kJ/mol
# GULP energy per Si atom -12393.033787 kJ/mol
# Density = 1.402371 g / cm^3
# Si number density = 14.055706 Si / 1000 Ang^3
#
#
#
# Elastic Constant Matrix: (Units=GPa)
#
#
# Indices 1 2 3 4 5 6 
#
# 1 69.0524 31.3719 28.9785 0.0000 0.0000 0.0000
# 2 31.3719 69.0524 28.9785 0.0000 0.0000 0.0000
# 3 28.9785 28.9785 69.6406 0.0000 0.0000 0.0000
# 4 0.0000 0.0000 0.0000 14.0002 0.0000 0.0000
# 5 0.0000 0.0000 0.0000 0.0000 14.0002 0.0000
# 6 0.0000 0.0000 0.0000 0.0000 0.0000 18.8403
#
#
#
# Elastic Compliance Matrix: (Units=1/GPa)
#
#
# Indices 1 2 3 4 5 6 
#
# 1 0.019822 -0.006717 -0.005453 0.000000 0.000000 0.000000
# 2 -0.006717 0.019822 -0.005453 0.000000 0.000000 0.000000
# 3 -0.005453 -0.005453 0.018898 0.000000 0.000000 0.000000
# 4 0.000000 0.000000 0.000000 0.071427 0.000000 0.000000
# 5 0.000000 0.000000 0.000000 0.000000 0.071427 0.000000
# 6 0.000000 0.000000 0.000000 0.000000 0.000000 0.053078
#
#
# Mechanical properties :
#
#
# Convention : Reuss Voigt Hill
#
# Bulk Modulus (GPa) = 42.92784 42.93369 42.93076
# Shear Modulus (GPa) = 16.80755 17.26259 17.03507
#
# Velocity S-wave (km/s) = 3.46176 3.50831 3.48511
# Velocity P-wave (km/s) = 6.82539 6.85731 6.84136
#
# Compressibility (1/GPa) = 0.02329491
#
# Stress axis : x y z
#
# Youngs Moduli (GPa) = 50.44931 50.44931 52.91644
#
# Poissons Ratio (x) = 0.33887 0.28856
# Poissons Ratio (y) = 0.33887 0.28856
# Poissons Ratio (z) = 0.27511 0.27511
#
# Static dielectric constant tensor:
#      x y z
#    x 2.611380 0.000000 0.000000 
#    y 0.000000 2.611380 0.000000 
#    z 0.000000 0.000000 2.778620 
# 
# 
# High freq. dielectric constant tensor:
#      x y z
#    x 1.499570 0.000000 0.000000 
#    y 0.000000 1.499570 0.000000 
#    z 0.000000 0.000000 1.539870 
# 
# From -- ./inp_files/1733.got.cif
#   From: 2010.03.12/outbox.cif.g09.slc.cpg/sg191_1_cif.got.tgz:1733.got - 2010.04.01 12:09:02.
