data_PCOD8328696
_publ_section_title
;
Structure prediction by ZEFSAII (Michael W. Deem and Ramdas Pophale) SiO2 
 PCOD8328696
Probable space group: P 6/M M M
;
_chemical_formula_sum "Si O2"
_cell_formula_units_Z 192
_cell_length_a 22.056935
_cell_length_b 22.056935
_cell_length_c 28.521644
_cell_angle_alpha 90.000000
_cell_angle_beta 90.000000
_cell_angle_gamma 120.000000
_cell_volume 12016.984839
_symmetry_space_group_name_H-M "P 6/M M M"
_symmetry_group_IT_number 191
_symmetry_cell_setting 'hexagonal'
loop_
_space_group_symop_operation_xyz
x,y,z
x-y,x,z
-y,x-y,z
-x,-y,z
-x+y,-x,z
y,-x+y,z
x-y,-y,-z
-x,-x+y,-z
y,x,-z
-y,-x,-z
-x+y,y,-z
x,x-y,-z
-x,-y,-z
-x+y,-x,-z
y,-x+y,-z
x,y,-z
x-y,x,-z
-y,x-y,-z
-x+y,y,z
x,x-y,z
-y,-x,z
y,x,z
x-y,-y,z
-x,-x+y,z
loop_
_atom_site_type_symbol
_atom_site_label
_atom_site_fract_x
_atom_site_fract_y
_atom_site_fract_z
Si Si1 0.666967 0.194338 0.553810
Si Si2 0.705077 0.784150 0.772163
Si Si3 0.468391 0.078737 0.123596
Si Si4 0.525338 0.192713 0.198996
Si Si5 0.923368 0.714552 0.121529
Si Si6 0.080576 0.470268 0.370388
Si Si7 0.566984 0.852259 0.713859
Si Si8 0.862258 0.275778 0.053787
O O1 0.670666 0.175035 0.500000
O O2 0.608072 0.216144 0.560813
O O3 0.740270 0.259731 0.570450
O O4 0.649616 0.126303 0.584083
O O5 0.732391 0.866196 0.761313
O O6 0.766829 0.766829 0.760638
O O7 0.681718 0.767485 0.826539
O O8 0.637700 0.734624 0.741470
O O9 0.535712 0.071423 0.121162
O O10 0.472690 0.127000 0.167128
O O11 0.468461 0.117986 0.075621
O O12 0.400695 0.000000 0.128804
O O13 0.604736 0.209471 0.195065
O O14 0.521790 0.260895 0.182500
O O15 0.499647 0.173236 0.252263
O O16 0.873435 0.746869 0.114284
O O17 0.907715 0.656141 0.083380
O O18 0.000000 0.779223 0.113533
O O19 0.090814 0.545407 0.355835
O O20 0.104333 0.439833 0.328121
O O21 0.000000 0.416256 0.382753
O O22 0.569088 0.784544 0.694386
O O23 0.779512 0.220489 0.058628
O O24 0.886188 0.285254 0.000000
#
# Coordination Sequence:
#
# PCOD8328696 Si02
#       8
#    24  24  24  24  24  24  24  24
#     4   9  17  30  48  67  86 111 146 187 227 264
#     4   9  17  29  46  66  88 116 147 179 215 258
#     4  10  21  34  48  68  91 115 143 174 212 261
#     4  10  20  34  51  69  90 117 150 186 223 264
#     4   9  17  29  45  65  87 110 137 168 203 243
#     4  10  20  31  43  62  89 119 148 179 219 266
#     4  10  19  30  45  65  89 116 148 185 222 260
#     4  10  20  33  49  67  86 109 138 173 212 252
#
# _framework density 15.977385999999999
#
# number of rings (size 3 to 8) (size 9 to 14) (size 15 to 20)
#    0.000    2.375    0.000    2.875    0.000    6.000 
#    0.000    3.125    0.000    4.500    0.000    1.750 
#    0.000    0.000    0.000    3.125    0.000    3.250 
#
# Total GULP energy -2380310.846939 kJ/mol
# GULP energy per Si atom -12397.452328 kJ/mol
# Density = 1.594102 g / cm^3
# Si number density = 15.977386 Si / 1000 Ang^3
#
#
#
# Elastic Constant Matrix: (Units=GPa)
#
#
# Indices 1 2 3 4 5 6 
#
# 1 82.5153 41.8553 44.1182 0.0000 0.0000 0.0000
# 2 41.8553 82.5153 44.1182 0.0000 0.0000 0.0000
# 3 44.1182 44.1182 86.3329 0.0000 0.0000 0.0000
# 4 0.0000 0.0000 0.0000 20.2229 0.0000 0.0000
# 5 0.0000 0.0000 0.0000 0.0000 20.2229 0.0000
# 6 0.0000 0.0000 0.0000 0.0000 0.0000 20.3300
#
#
#
# Elastic Compliance Matrix: (Units=1/GPa)
#
#
# Indices 1 2 3 4 5 6 
#
# 1 0.018604 -0.005990 -0.006446 0.000000 0.000000 0.000000
# 2 -0.005990 0.018604 -0.006446 0.000000 0.000000 0.000000
# 3 -0.006446 -0.006446 0.018171 0.000000 0.000000 0.000000
# 4 0.000000 0.000000 0.000000 0.049449 0.000000 0.000000
# 5 0.000000 0.000000 0.000000 0.000000 0.049449 0.000000
# 6 0.000000 0.000000 0.000000 0.000000 0.000000 0.049188
#
#
# Mechanical properties :
#
#
# Convention : Reuss Voigt Hill
#
# Bulk Modulus (GPa) = 56.77038 56.83853 56.80445
# Shear Modulus (GPa) = 20.23469 20.23996 20.23732
#
# Velocity S-wave (km/s) = 3.56259 3.56306 3.56283
# Velocity P-wave (km/s) = 7.24787 7.25112 7.24950
#
# Compressibility (1/GPa) = 0.01761482
#
# Stress axis : x y z
#
# Youngs Moduli (GPa) = 53.75219 53.75219 55.03265
#
# Poissons Ratio (x) = 0.32199 0.35473
# Poissons Ratio (y) = 0.32199 0.35473
# Poissons Ratio (z) = 0.34648 0.34648
#
# Static dielectric constant tensor:
#      x y z
#    x 3.095540 0.000000 0.000000 
#    y 0.000000 3.095540 0.000000 
#    z 0.000000 0.000000 3.004690 
# 
# 
# High freq. dielectric constant tensor:
#      x y z
#    x 1.610290 0.000000 0.000000 
#    y 0.000000 1.610290 0.000000 
#    z 0.000000 0.000000 1.603950 
# 
# From -- ./inp_files/9340.got.cif
#   From: 2010.03.12/outbox.cif.g09.slc.cpg/sg191_5_cif.got.tgz:9340.got - 2010.04.01 12:09:02.
