data_PCOD8328697
_publ_section_title
;
Structure prediction by ZEFSAII (Michael W. Deem and Ramdas Pophale) SiO2 
 PCOD8328697
Probable space group: P 6/M M M
;
_chemical_formula_sum "Si O2"
_cell_formula_units_Z 132
_cell_length_a 17.937416
_cell_length_b 17.937416
_cell_length_c 27.909563
_cell_angle_alpha 90.000000
_cell_angle_beta 90.000000
_cell_angle_gamma 120.000000
_cell_volume 7776.844743
_symmetry_space_group_name_H-M "P 6/M M M"
_symmetry_group_IT_number 191
_symmetry_cell_setting 'hexagonal'
loop_
_space_group_symop_operation_xyz
x,y,z
x-y,x,z
-y,x-y,z
-x,-y,z
-x+y,-x,z
y,-x+y,z
x-y,-y,-z
-x,-x+y,-z
y,x,-z
-y,-x,-z
-x+y,y,-z
x,x-y,-z
-x,-y,-z
-x+y,-x,-z
y,-x+y,-z
x,y,-z
x-y,x,-z
-y,x-y,-z
-x+y,y,z
x,x-y,z
-y,-x,z
y,x,z
x-y,-y,z
-x,-x+y,z
loop_
_atom_site_type_symbol
_atom_site_label
_atom_site_fract_x
_atom_site_fract_y
_atom_site_fract_z
Si Si1 0.834703 0.331420 0.830264
Si Si2 0.101879 0.633587 0.446873
Si Si3 0.898681 0.532530 0.000000
Si Si4 0.732722 0.634197 0.911154
Si Si5 0.262541 0.362418 0.638385
Si Si6 0.465938 0.099019 0.727825
O O1 0.856085 0.428043 0.840911
O O2 0.735774 0.264226 0.843514
O O3 0.897464 0.311418 0.861823
O O4 0.847622 0.317741 0.774636
O O5 0.131234 0.674734 0.500000
O O6 0.139793 0.569897 0.436255
O O7 0.133055 0.707430 0.407327
O O8 0.000000 0.577480 0.444233
O O9 0.869688 0.563367 0.953188
O O10 0.856644 0.428322 0.000000
O O11 0.000000 0.574186 0.000000
O O12 0.836334 0.672667 0.909904
O O13 0.711788 0.711788 0.918747
O O14 0.158643 0.317286 0.640706
O O15 0.288820 0.288820 0.634890
O O16 0.300822 0.420977 0.685025
O O17 0.561450 0.122899 0.710710
O O18 0.411977 0.000000 0.742577
#
# Coordination Sequence:
#
# PCOD8328697 Si02
#       6
#    24  24  12  24  24  24
#     4  10  19  30  45  67  96 127 156 185 219 262
#     4   8  14  26  45  67  88 110 137 170 211 261
#     4   9  17  30  49  72  96 122 152 183 217 262
#     4  10  20  33  50  71  94 122 157 197 238 278
#     4  10  19  30  45  65  89 117 152 193 232 269
#     4   9  17  29  46  67  89 115 148 184 223 270
#
# _framework density 16.973465999999998
#
# number of rings (size 3 to 8) (size 9 to 14) (size 15 to 20)
#    0.000    2.636    0.000    3.182    0.000    4.364 
#    0.000    0.000    0.000    6.909    0.000    0.000 
#    0.000    2.182    0.000   10.364    0.000    0.000 
#
# Total GULP energy -1636159.966271 kJ/mol
# GULP energy per Si atom -12395.151260 kJ/mol
# Density = 1.693483 g / cm^3
# Si number density = 16.973466 Si / 1000 Ang^3
#
#
#
# Elastic Constant Matrix: (Units=GPa)
#
#
# Indices 1 2 3 4 5 6 
#
# 1 83.5120 45.4543 34.9824 0.0000 0.0000 0.0000
# 2 45.4543 83.5120 34.9824 0.0000 0.0000 0.0000
# 3 34.9824 34.9824 82.4976 0.0000 0.0000 0.0000
# 4 0.0000 0.0000 0.0000 15.5586 0.0000 0.0000
# 5 0.0000 0.0000 0.0000 0.0000 15.5586 0.0000
# 6 0.0000 0.0000 0.0000 0.0000 0.0000 19.0289
#
#
#
# Elastic Compliance Matrix: (Units=1/GPa)
#
#
# Indices 1 2 3 4 5 6 
#
# 1 0.018173 -0.008103 -0.004270 0.000000 0.000000 0.000000
# 2 -0.008103 0.018173 -0.004270 0.000000 0.000000 0.000000
# 3 -0.004270 -0.004270 0.015743 0.000000 0.000000 0.000000
# 4 0.000000 0.000000 0.000000 0.064273 0.000000 0.000000
# 5 0.000000 0.000000 0.000000 0.000000 0.064273 0.000000
# 6 0.000000 0.000000 0.000000 0.000000 0.000000 0.052552
#
#
# Mechanical properties :
#
#
# Convention : Reuss Voigt Hill
#
# Bulk Modulus (GPa) = 53.18296 53.37330 53.27813
# Shear Modulus (GPa) = 18.33233 18.96939 18.65086
#
# Velocity S-wave (km/s) = 3.28999 3.34667 3.31845
# Velocity P-wave (km/s) = 6.77001 6.81520 6.79264
#
# Compressibility (1/GPa) = 0.01880302
#
# Stress axis : x y z
#
# Youngs Moduli (GPa) = 55.02590 55.02590 63.51954
#
# Poissons Ratio (x) = 0.44585 0.27125
# Poissons Ratio (y) = 0.44585 0.27125
# Poissons Ratio (z) = 0.23498 0.23498
#
# Static dielectric constant tensor:
#      x y z
#    x 2.966870 0.000000 0.000000 
#    y 0.000000 2.966870 0.000000 
#    z 0.000000 0.000000 3.400760 
# 
# 
# High freq. dielectric constant tensor:
#      x y z
#    x 1.628940 0.000000 0.000000 
#    y 0.000000 1.628940 0.000000 
#    z 0.000000 0.000000 1.672180 
# 
# From -- ./inp_files/9757.got.cif
#   From: 2010.03.12/outbox.cif.g09.slc.cpg/sg191_5_cif.got.tgz:9757.got - 2010.04.01 12:09:02.
