data_PCOD8328002
_publ_section_title
;
Structure prediction by ZEFSAII (Michael W. Deem and Ramdas Pophale) SiO2 
 PCOD8328002
Probable space group: P -6 2 C
;
_chemical_formula_sum "Si O2"
_cell_formula_units_Z 76
_cell_length_a 17.787298
_cell_length_b 17.787298
_cell_length_c 14.267703
_cell_angle_alpha 90.000000
_cell_angle_beta 90.000000
_cell_angle_gamma 120.000000
_cell_volume 3909.350902
_symmetry_space_group_name_H-M "P -6 2 C"
_symmetry_group_IT_number 190
_symmetry_cell_setting 'hexagonal'
loop_
_space_group_symop_operation_xyz
x,y,z
-x+y,-x,1/2-z
-y,x-y,z
x,y,1/2-z
-x+y,-x,z
-y,x-y,1/2-z
x-y,-y,-z
-x,-x+y,-z
y,x,-z
y,x,1/2+z
x-y,-y,1/2+z
-x,-x+y,1/2+z
loop_
_atom_site_type_symbol
_atom_site_label
_atom_site_fract_x
_atom_site_fract_y
_atom_site_fract_z
Si Si1 0.147688 0.958594 0.903712
Si Si2 0.611785 0.757299 0.644712
Si Si3 0.572813 0.885358 0.951811
Si Si4 0.859411 0.408699 0.141427
Si Si5 0.333334 0.666667 0.640265
Si Si6 0.707827 0.053176 0.859062
Si Si7 0.035397 0.864849 0.147367
O O1 0.204996 0.919920 0.861165
O O2 0.046512 0.886070 0.921517
O O3 0.145952 0.035230 0.845937
O O4 0.194268 0.000000 0.000000
O O5 0.590308 0.773691 0.750000
O O6 0.568835 0.796170 0.574816
O O7 0.555165 0.652588 0.625458
O O8 0.494981 0.902014 0.921543
O O9 0.655813 0.953793 0.892121
O O10 0.578446 0.893171 0.065473
O O11 0.867162 0.437231 0.250000
O O12 0.760544 0.354488 0.104971
O O13 0.333334 0.666668 0.750000
O O14 0.688127 0.066421 0.750000
O O15 0.808742 0.081866 0.873692
O O16 0.990636 0.838292 0.250000
#
# Coordination Sequence:
#
# PCOD8328002 Si02
#       7
#    12  12  12  12   4  12  12
#     4  12  24  37  55  83 121 158 199 251 304 358
#     4  11  21  36  59  88 123 158 195 246 310 365
#     4  11  20  35  62  88 116 150 199 247 304 362
#     4  10  19  32  57  91 122 150 187 244 308 366
#     4   9  15  27  51  90 121 140 178 237 297 348
#     4  10  22  38  60  84 112 155 208 250 289 353
#     4  11  22  38  58  81 111 154 206 248 296 347
#
# _framework density 19.440567999999999
#
# number of rings (size 3 to 8) (size 9 to 14) (size 15 to 20)
#    0.000    1.263    3.158    4.579    2.211    0.000 
#    2.842    0.000    0.000    0.947    0.000    0.000 
#    0.000    0.000    0.000    0.000    0.000    0.000 
#
# Total GULP energy -941532.105548 kJ/mol
# GULP energy per Si atom -12388.580336 kJ/mol
# Density = 1.939632 g / cm^3
# Si number density = 19.440568 Si / 1000 Ang^3
#
#
#
# Elastic Constant Matrix: (Units=GPa)
#
#
# Indices 1 2 3 4 5 6 
#
# 1 100.4987 36.7964 35.0658 0.0000 0.0000 0.0000
# 2 36.7964 100.4993 35.0658 0.0000 0.0000 0.0000
# 3 35.0658 35.0658 119.6939 0.0000 0.0000 0.0000
# 4 0.0000 0.0000 0.0000 27.2765 0.0000 0.0000
# 5 0.0000 0.0000 0.0000 0.0000 27.2766 0.0000
# 6 0.0000 0.0000 0.0000 0.0000 0.0000 31.8513
#
#
#
# Elastic Compliance Matrix: (Units=1/GPa)
#
#
# Indices 1 2 3 4 5 6 
#
# 1 0.012132 -0.003566 -0.002509 0.000000 0.000000 0.000000
# 2 -0.003566 0.012132 -0.002509 0.000000 0.000000 0.000000
# 3 -0.002509 -0.002509 0.009825 0.000000 0.000000 0.000000
# 4 0.000000 0.000000 0.000000 0.036662 0.000000 0.000000
# 5 0.000000 0.000000 0.000000 0.000000 0.036661 0.000000
# 6 0.000000 0.000000 0.000000 0.000000 0.000000 0.031396
#
#
# Mechanical properties :
#
#
# Convention : Reuss Voigt Hill
#
# Bulk Modulus (GPa) = 59.10753 59.39421 59.25087
# Shear Modulus (GPa) = 30.93742 31.53179 31.23461
#
# Velocity S-wave (km/s) = 3.99354 4.03172 4.01268
# Velocity P-wave (km/s) = 7.19269 7.23126 7.21200
#
# Compressibility (1/GPa) = 0.01691832
#
# Stress axis : x y z
#
# Youngs Moduli (GPa) = 82.42870 82.42930 101.78200
#
# Poissons Ratio (x) = 0.29397 0.25541
# Poissons Ratio (y) = 0.29397 0.25540
# Poissons Ratio (z) = 0.20684 0.20684
#
# Static dielectric constant tensor:
#      x y z
#    x 3.605340 0.000000 0.000000 
#    y 0.000000 3.605380 0.000000 
#    z 0.000000 0.000000 3.504590 
# 
# 
# High freq. dielectric constant tensor:
#      x y z
#    x 1.744900 0.000000 0.000000 
#    y 0.000000 1.744900 0.000000 
#    z 0.000000 0.000000 1.749090 
# 
# From -- ./inp_files/3077.got.cif
#   From: 2010.06.25/outbox.cif.g09.slc.cpg/sg190_2_cif.got.tgz:3077.got - 2010.06.28 13:08:06.
