data_PCOD8328008
_publ_section_title
;
Structure prediction by ZEFSAII (Michael W. Deem and Ramdas Pophale) SiO2 
 PCOD8328008
Probable space group: P -6 2 C
;
_chemical_formula_sum "Si O2"
_cell_formula_units_Z 56
_cell_length_a 13.826553
_cell_length_b 13.826553
_cell_length_c 16.906073
_cell_angle_alpha 90.000000
_cell_angle_beta 90.000000
_cell_angle_gamma 120.000000
_cell_volume 2798.989163
_symmetry_space_group_name_H-M "P -6 2 C"
_symmetry_group_IT_number 190
_symmetry_cell_setting 'hexagonal'
loop_
_space_group_symop_operation_xyz
x,y,z
-x+y,-x,1/2-z
-y,x-y,z
x,y,1/2-z
-x+y,-x,z
-y,x-y,1/2-z
x-y,-y,-z
-x,-x+y,-z
y,x,-z
y,x,1/2+z
x-y,-y,1/2+z
-x,-x+y,1/2+z
loop_
_atom_site_type_symbol
_atom_site_label
_atom_site_fract_x
_atom_site_fract_y
_atom_site_fract_z
Si Si1 0.666668 0.333335 0.844408
Si Si2 0.381643 0.476295 0.655638
Si Si3 0.714979 0.571930 0.155724
Si Si4 0.000000 0.000000 0.592951
Si Si5 0.046663 0.234850 0.344010
Si Si6 0.143278 0.715250 0.155751
O O1 0.666667 0.333334 0.750000
O O2 0.546801 0.307535 0.877042
O O3 0.381487 0.476075 0.750000
O O4 0.477394 0.595342 0.623073
O O5 0.262543 0.452835 0.622942
O O6 0.404852 0.380515 0.622925
O O7 0.714361 0.570787 0.250000
O O8 0.740143 0.691862 0.124043
O O9 0.118187 0.023935 0.623691
O O10 0.000000 0.000000 0.500000
O O11 0.045780 0.230273 0.250000
O O12 0.165519 0.331946 0.375952
O O13 0.143410 0.714292 0.250000
#
# Coordination Sequence:
#
# PCOD8328008 Si02
#       6
#     4  12  12   4  12  12
#     4   9  15  24  39  69 108 135 156 195 247 293
#     4   9  15  23  35  59  95 132 163 197 243 293
#     4   9  16  25  41  66  99 133 164 199 244 291
#     4  12  25  38  52  72  97 128 163 204 250 296
#     4  10  19  33  52  74  99 130 165 203 244 292
#     4   9  16  25  41  66  99 132 162 198 244 293
#
# _framework density 20.007221999999999
#
# number of rings (size 3 to 8) (size 9 to 14) (size 15 to 20)
#    0.000    2.571    0.000    3.643    0.000   10.286 
#    0.000    0.000    0.000    0.000    0.000   13.500 
#    0.000    0.000    0.000    0.000    0.000    0.000 
#
# Total GULP energy -694413.853896 kJ/mol
# GULP energy per Si atom -12400.247391 kJ/mol
# Density = 1.996168 g / cm^3
# Si number density = 20.007222 Si / 1000 Ang^3
#
#
#
# Elastic Constant Matrix: (Units=GPa)
#
#
# Indices 1 2 3 4 5 6 
#
# 1 238.0477 133.9241 11.2772 0.0000 0.0000 0.0001
# 2 133.9241 238.0484 11.2772 0.0001 0.0000 0.0002
# 3 11.2772 11.2772 4.0948 0.0000 0.0000 0.0000
# 4 0.0000 0.0001 0.0000 -0.9414 0.0000 0.0000
# 5 0.0000 0.0000 0.0000 0.0000 -0.9413 0.0000
# 6 0.0001 0.0002 0.0000 0.0000 0.0000 52.0619
#
#
#
# Elastic Compliance Matrix: (Units=1/GPa)
#
#
# Indices 1 2 3 4 5 6 
#
# 1 0.006416 -0.003188 -0.008888 0.000000 0.000000 0.000000
# 2 -0.003188 0.006416 -0.008888 0.000000 0.000000 0.000000
# 3 -0.008888 -0.008888 0.293165 0.000002 0.000002 0.000000
# 4 0.000000 0.000000 0.000002 -1.062253 0.000040 0.000000
# 5 0.000000 0.000000 0.000002 0.000040 -1.062364 0.000000
# 6 0.000000 0.000000 0.000000 0.000000 0.000000 0.019208
#
#
# Mechanical properties :
#
#
# Convention : Reuss Voigt Hill
#
# Bulk Modulus (GPa) = 3.78691 88.12753 45.95722
# Shear Modulus (GPa) = -2.99498 31.61668 14.31085
#
# Velocity S-wave (km/s) = -1.22483 3.97957 2.67738
# Velocity P-wave (km/s) = 0.32153 8.07833 5.70772
#
# Compressibility (1/GPa) = 0.26406739
#
# Stress axis : x y z
#
# Youngs Moduli (GPa) = 155.86935 155.87015 3.41105
#
# Poissons Ratio (x) = 0.49696 0.03032
# Poissons Ratio (y) = 0.49696 0.03032
# Poissons Ratio (z) = 1.38538 1.38535
#
# Static dielectric constant tensor:
#      x y z
#    x 3.935120 0.000000 0.000000 
#    y 0.000000 3.935110 0.000000 
#    z 0.000000 0.000000 2.735090 
# 
# 
# High freq. dielectric constant tensor:
#      x y z
#    x 1.803280 0.000000 0.000000 
#    y 0.000000 1.803280 0.000000 
#    z 0.000000 0.000000 1.691640 
# 
# From -- ./inp_files/3626.got.cif
#   From: 2010.06.25/outbox.cif.g09.slc.cpg/sg190_2_cif.got.tgz:3626.got - 2010.06.28 13:08:06.
