data_PCOD8328543
_publ_section_title
;
Structure prediction by ZEFSAII (Michael W. Deem and Ramdas Pophale) SiO2 
 PCOD8328543
Probable space group: P 6/M M M
;
_chemical_formula_sum "Si O2"
_cell_formula_units_Z 144
_cell_length_a 21.630381
_cell_length_b 21.630381
_cell_length_c 20.704488
_cell_angle_alpha 90.000000
_cell_angle_beta 90.000000
_cell_angle_gamma 120.000000
_cell_volume 8389.256353
_symmetry_space_group_name_H-M "P 6/M M M"
_symmetry_group_IT_number 191
_symmetry_cell_setting 'hexagonal'
loop_
_space_group_symop_operation_xyz
x,y,z
x-y,x,z
-y,x-y,z
-x,-y,z
-x+y,-x,z
y,-x+y,z
x-y,-y,-z
-x,-x+y,-z
y,x,-z
-y,-x,-z
-x+y,y,-z
x,x-y,-z
-x,-y,-z
-x+y,-x,-z
y,-x+y,-z
x,y,-z
x-y,x,-z
-y,x-y,-z
-x+y,y,z
x,x-y,z
-y,-x,z
y,x,z
x-y,-y,z
-x,-x+y,z
loop_
_atom_site_type_symbol
_atom_site_label
_atom_site_fract_x
_atom_site_fract_y
_atom_site_fract_z
Si Si1 0.342157 0.424848 0.295380
Si Si2 0.522538 0.186787 0.815758
Si Si3 0.921034 0.216156 0.100030
Si Si4 0.915351 0.388037 0.430632
Si Si5 0.352932 0.434294 0.928075
Si Si6 0.788636 0.077029 0.750617
O O1 0.406093 0.406093 0.285073
O O2 0.348208 0.483045 0.244291
O O3 0.339380 0.452736 0.367117
O O4 0.266669 0.353969 0.291430
O O5 0.606652 0.213303 0.811418
O O6 0.511619 0.255810 0.816067
O O7 0.492130 0.140317 0.880823
O O8 0.863134 0.136867 0.076211
O O9 0.907964 0.274144 0.064987
O O10 0.912028 0.226006 0.175581
O O11 0.000000 0.229220 0.084138
O O12 0.889470 0.346111 0.500000
O O13 0.886921 0.443461 0.426833
O O14 0.000000 0.428988 0.428844
O O15 0.407780 0.407780 0.903622
O O16 0.375328 0.467829 0.000000
O O17 0.867857 0.132144 0.727895
O O18 0.780387 0.000000 0.739521
#
# Coordination Sequence:
#
# PCOD8328543 Si02
#       6
#    24  24  24  24  24  24
#     4  10  18  30  52  79 101 124 160 207 254 292
#     4  12  25  39  53  70  97 133 169 201 235 284
#     4   9  16  28  46  69  96 125 157 193 236 284
#     4   8  14  25  42  68 102 133 158 189 237 297
#     4  10  21  37  57  79  98 117 149 200 258 303
#     4   9  16  27  45  69  96 125 158 197 241 288
#
# _framework density 17.164809999999999
#
# number of rings (size 3 to 8) (size 9 to 14) (size 15 to 20)
#    0.000    2.333    1.667    2.667    0.000    3.667 
#    0.000    0.833    0.000    3.333    0.000    2.333 
#    0.000    1.333    0.000    4.167    0.000    4.333 
#
# Total GULP energy -1784265.270786 kJ/mol
# GULP energy per Si atom -12390.731047 kJ/mol
# Density = 1.712574 g / cm^3
# Si number density = 17.164810 Si / 1000 Ang^3
#
#
#
# Elastic Constant Matrix: (Units=GPa)
#
#
# Indices 1 2 3 4 5 6 
#
# 1 79.2010 38.6329 42.8769 0.0000 0.0000 0.0000
# 2 38.6329 79.2010 42.8769 0.0000 0.0000 0.0000
# 3 42.8769 42.8769 121.2459 0.0000 0.0000 0.0000
# 4 0.0000 0.0000 0.0000 7.7145 0.0000 0.0000
# 5 0.0000 0.0000 0.0000 0.0000 7.7145 0.0000
# 6 0.0000 0.0000 0.0000 0.0000 0.0000 20.2840
#
#
#
# Elastic Compliance Matrix: (Units=1/GPa)
#
#
# Indices 1 2 3 4 5 6 
#
# 1 0.018039 -0.006611 -0.004041 0.000000 0.000000 0.000000
# 2 -0.006611 0.018039 -0.004041 0.000000 0.000000 0.000000
# 3 -0.004041 -0.004041 0.011106 0.000000 0.000000 0.000000
# 4 0.000000 0.000000 0.000000 0.129626 0.000000 0.000000
# 5 0.000000 0.000000 0.000000 0.000000 0.129626 0.000000
# 6 0.000000 0.000000 0.000000 0.000000 0.000000 0.049300
#
#
# Mechanical properties :
#
#
# Convention : Reuss Voigt Hill
#
# Bulk Modulus (GPa) = 56.19179 58.71351 57.45265
# Shear Modulus (GPa) = 12.78598 17.49337 15.13967
#
# Velocity S-wave (km/s) = 2.73224 3.19586 2.97310
# Velocity P-wave (km/s) = 6.53920 6.92084 6.73273
#
# Compressibility (1/GPa) = 0.01779619
#
# Stress axis : x y z
#
# Youngs Moduli (GPa) = 55.43636 55.43636 90.04217
#
# Poissons Ratio (x) = 0.36650 0.36388
# Poissons Ratio (y) = 0.36650 0.36388
# Poissons Ratio (z) = 0.22403 0.22403
#
# Static dielectric constant tensor:
#      x y z
#    x 3.154930 0.000000 0.000000 
#    y 0.000000 3.154930 0.000000 
#    z 0.000000 0.000000 3.617030 
# 
# 
# High freq. dielectric constant tensor:
#      x y z
#    x 1.642350 0.000000 0.000000 
#    y 0.000000 1.642350 0.000000 
#    z 0.000000 0.000000 1.661960 
# 
# From -- ./inp_files/7595.got.cif
#   From: 2010.03.12/outbox.cif.g09.slc.cpg/sg191_4_cif.got.tgz:7595.got - 2010.04.01 12:09:02.
