data_PCOD8328980
_publ_section_title
;
Structure prediction by ZEFSAII (Michael W. Deem and Ramdas Pophale) SiO2 
 PCOD8328980
Probable space group: P 6/M M M
;
_chemical_formula_sum "Si O2"
_cell_formula_units_Z 192
_cell_length_a 22.566183
_cell_length_b 22.566183
_cell_length_c 25.242542
_cell_angle_alpha 90.000000
_cell_angle_beta 90.000000
_cell_angle_gamma 120.000000
_cell_volume 11132.172585
_symmetry_space_group_name_H-M "P 6/M M M"
_symmetry_group_IT_number 191
_symmetry_cell_setting 'hexagonal'
loop_
_space_group_symop_operation_xyz
x,y,z
x-y,x,z
-y,x-y,z
-x,-y,z
-x+y,-x,z
y,-x+y,z
x-y,-y,-z
-x,-x+y,-z
y,x,-z
-y,-x,-z
-x+y,y,-z
x,x-y,-z
-x,-y,-z
-x+y,-x,-z
y,-x+y,-z
x,y,-z
x-y,x,-z
-y,x-y,-z
-x+y,y,z
x,x-y,z
-y,-x,z
y,x,z
x-y,-y,z
-x,-x+y,z
loop_
_atom_site_type_symbol
_atom_site_label
_atom_site_fract_x
_atom_site_fract_y
_atom_site_fract_z
Si Si1 0.467346 0.666863 0.791456
Si Si2 0.921599 0.615714 0.352971
Si Si3 0.530101 0.196676 0.666582
Si Si4 0.714297 0.923635 0.560738
Si Si5 0.293092 0.373319 0.058118
Si Si6 0.077153 0.470200 0.134856
Si Si7 0.710441 0.922702 0.735545
Si Si8 0.719863 0.923625 0.855126
O O1 0.479557 0.739779 0.811638
O O2 0.390602 0.609399 0.807409
O O3 0.477142 0.666910 0.729254
O O4 0.522408 0.650789 0.818219
O O5 0.870246 0.534737 0.357912
O O6 0.908225 0.649402 0.404084
O O7 0.904568 0.644663 0.300111
O O8 0.000000 0.631793 0.351618
O O9 0.599468 0.198936 0.647340
O O10 0.532012 0.266006 0.647480
O O11 0.690392 0.916653 0.500000
O O12 0.739512 0.869756 0.574250
O O13 0.777166 0.000000 0.572706
O O14 0.324375 0.324375 0.051987
O O15 0.349565 0.446853 0.080715
O O16 0.232916 0.340195 0.101350
O O17 0.267694 0.382613 0.000000
O O18 0.081884 0.540942 0.120605
O O19 0.000000 0.413776 0.153197
O O20 0.735297 0.867649 0.724042
O O21 0.687657 0.918707 0.796854
O O22 0.772153 0.000000 0.722234
O O23 0.756608 0.878304 0.856567
O O24 0.777929 0.000000 0.868866
#
# Coordination Sequence:
#
# PCOD8328980 Si02
#       8
#    24  24  24  24  24  24  24  24
#     4   9  18  31  47  66  89 121 156 189 224 269
#     4  10  20  32  49  74 101 128 161 201 244 289
#     4  10  20  33  49  69  96 129 164 200 240 289
#     4   9  17  30  49  73 102 136 173 211 249 290
#     4   9  18  31  45  62  86 115 147 182 221 271
#     4   9  18  31  46  66  91 116 145 183 228 274
#     4   9  17  29  46  68  94 124 156 192 234 281
#     4   9  18  31  47  66  90 120 151 186 230 278
#
# _framework density 17.247305999999998
#
# number of rings (size 3 to 8) (size 9 to 14) (size 15 to 20)
#    0.000    2.750    0.000    1.375    1.750    2.750 
#    0.000    2.500    0.000    0.750    0.000    4.375 
#    0.000    5.000    0.000    3.375    0.000    3.250 
#
# Total GULP energy -2379697.689221 kJ/mol
# GULP energy per Si atom -12394.258798 kJ/mol
# Density = 1.720805 g / cm^3
# Si number density = 17.247306 Si / 1000 Ang^3
#
#
#
# Elastic Constant Matrix: (Units=GPa)
#
#
# Indices 1 2 3 4 5 6 
#
# 1 110.5646 64.6543 36.7779 0.0000 0.0000 0.0000
# 2 64.6543 110.5646 36.7779 0.0000 0.0000 0.0000
# 3 36.7779 36.7779 64.1779 0.0000 0.0000 0.0000
# 4 0.0000 0.0000 0.0000 18.4826 0.0000 0.0000
# 5 0.0000 0.0000 0.0000 0.0000 18.4826 0.0000
# 6 0.0000 0.0000 0.0000 0.0000 0.0000 22.9552
#
#
#
# Elastic Compliance Matrix: (Units=1/GPa)
#
#
# Indices 1 2 3 4 5 6 
#
# 1 0.014648 -0.007133 -0.004307 0.000000 0.000000 0.000000
# 2 -0.007133 0.014648 -0.004307 0.000000 0.000000 0.000000
# 3 -0.004307 -0.004307 0.020518 0.000000 0.000000 0.000000
# 4 0.000000 0.000000 0.000000 0.054105 0.000000 0.000000
# 5 0.000000 0.000000 0.000000 0.000000 0.054105 0.000000
# 6 0.000000 0.000000 0.000000 0.000000 0.000000 0.043563
#
#
# Mechanical properties :
#
#
# Convention : Reuss Voigt Hill
#
# Bulk Modulus (GPa) = 54.58125 62.41413 58.49769
# Shear Modulus (GPa) = 20.90411 21.79052 21.34732
#
# Velocity S-wave (km/s) = 3.48519 3.55831 3.52194
# Velocity P-wave (km/s) = 6.92173 7.29030 7.10840
#
# Compressibility (1/GPa) = 0.01832131
#
# Stress axis : x y z
#
# Youngs Moduli (GPa) = 68.26728 68.26728 48.73874
#
# Poissons Ratio (x) = 0.48697 0.20990
# Poissons Ratio (y) = 0.48697 0.20990
# Poissons Ratio (z) = 0.29400 0.29400
#
# Static dielectric constant tensor:
#      x y z
#    x 3.221520 0.000000 0.000000 
#    y 0.000000 3.221520 0.000000 
#    z 0.000000 0.000000 3.282620 
# 
# 
# High freq. dielectric constant tensor:
#      x y z
#    x 1.657720 0.000000 0.000000 
#    y 0.000000 1.657720 0.000000 
#    z 0.000000 0.000000 1.653760 
# 
# From -- ./inp_files/8164.got.cif
#   From: 2010.03.12/outbox.cif.g09.slc.cpg/sg191_5_cif.got.tgz:8164.got - 2010.04.01 12:09:02.
