data_PCOD8328728
_publ_section_title
;
Structure prediction by ZEFSAII (Michael W. Deem and Ramdas Pophale) SiO2 
 PCOD8328728
Probable space group: P 6/M M M
;
_chemical_formula_sum "Si O2"
_cell_formula_units_Z 120
_cell_length_a 17.795850
_cell_length_b 17.795850
_cell_length_c 25.495589
_cell_angle_alpha 90.000000
_cell_angle_beta 90.000000
_cell_angle_gamma 120.000000
_cell_volume 6992.510934
_symmetry_space_group_name_H-M "P 6/M M M"
_symmetry_group_IT_number 191
_symmetry_cell_setting 'hexagonal'
loop_
_space_group_symop_operation_xyz
x,y,z
x-y,x,z
-y,x-y,z
-x,-y,z
-x+y,-x,z
y,-x+y,z
x-y,-y,-z
-x,-x+y,-z
y,x,-z
-y,-x,-z
-x+y,y,-z
x,x-y,-z
-x,-y,-z
-x+y,-x,-z
y,-x+y,-z
x,y,-z
x-y,x,-z
-y,x-y,-z
-x+y,y,z
x,x-y,z
-y,-x,z
y,x,z
x-y,-y,z
-x,-x+y,z
loop_
_atom_site_type_symbol
_atom_site_label
_atom_site_fract_x
_atom_site_fract_y
_atom_site_fract_z
Si Si1 0.366398 0.267631 0.698662
Si Si2 0.898046 0.269623 0.500000
Si Si3 0.263816 0.900044 0.000000
Si Si4 0.898126 0.365536 0.398643
Si Si5 0.331117 0.836123 0.210936
Si Si6 0.101005 0.634685 0.901687
O O1 0.326728 0.163364 0.701244
O O2 0.288472 0.288472 0.689232
O O3 0.437563 0.304748 0.652394
O O4 0.414332 0.313191 0.752561
O O5 0.835708 0.164293 0.500000
O O6 0.872432 0.306728 0.450153
O O7 0.000000 0.296051 0.500000
O O8 0.299375 0.874866 0.949308
O O9 0.159395 0.840606 0.000000
O O10 0.288578 0.000000 0.000000
O O11 0.855130 0.427565 0.399572
O O12 0.000000 0.426653 0.396438
O O13 0.428862 0.857723 0.220403
O O14 0.263824 0.736177 0.225241
O O15 0.314700 0.850901 0.150779
O O16 0.130079 0.565040 0.917381
O O17 0.000000 0.586481 0.889399
#
# Coordination Sequence:
#
# PCOD8328728 Si02
#       6
#    24  12  12  24  24  24
#     4  10  20  33  50  71  94 122 157 196 235 276
#     4  10  19  31  49  72  97 127 164 204 243 283
#     4  10  19  31  47  66  89 117 152 192 231 271
#     4   9  17  30  49  71  93 119 152 188 227 274
#     4  10  19  30  45  67  96 127 157 188 223 264
#     4   9  17  29  46  67  90 118 151 185 222 267
#
# _framework density 17.161217000000001
#
# number of rings (size 3 to 8) (size 9 to 14) (size 15 to 20)
#    0.000    2.400    0.000    3.200    0.000    4.400 
#    0.000    0.000    0.000   10.000    0.000    0.000 
#    0.000    4.800    0.000    6.400    0.000    0.400 
#
# Total GULP energy -1487644.239109 kJ/mol
# GULP energy per Si atom -12397.035326 kJ/mol
# Density = 1.712216 g / cm^3
# Si number density = 17.161217 Si / 1000 Ang^3
#
#
#
# Elastic Constant Matrix: (Units=GPa)
#
#
# Indices 1 2 3 4 5 6 
#
# 1 87.4912 48.0848 39.2339 0.0000 0.0000 0.0000
# 2 48.0848 87.4912 39.2339 0.0000 0.0000 0.0000
# 3 39.2339 39.2339 92.4154 0.0000 0.0000 0.0000
# 4 0.0000 0.0000 0.0000 201.1342 0.0000 0.0000
# 5 0.0000 0.0000 0.0000 0.0000 201.1342 0.0000
# 6 0.0000 0.0000 0.0000 0.0000 0.0000 19.7032
#
#
#
# Elastic Compliance Matrix: (Units=1/GPa)
#
#
# Indices 1 2 3 4 5 6 
#
# 1 0.017578 -0.007799 -0.004151 0.000000 0.000000 0.000000
# 2 -0.007799 0.017578 -0.004151 0.000000 0.000000 0.000000
# 3 -0.004151 -0.004151 0.014346 0.000000 0.000000 0.000000
# 4 0.000000 0.000000 0.000000 0.004972 0.000000 0.000000
# 5 0.000000 0.000000 0.000000 0.000000 0.004972 0.000000
# 6 0.000000 0.000000 0.000000 0.000000 0.000000 0.050753
#
#
# Mechanical properties :
#
#
# Convention : Reuss Voigt Hill
#
# Bulk Modulus (GPa) = 57.81272 57.83368 57.82320
# Shear Modulus (GPa) = 33.74571 93.78401 63.76486
#
# Velocity S-wave (km/s) = 4.43921 7.40050 6.10222
# Velocity P-wave (km/s) = 7.74833 10.33425 9.13327
#
# Compressibility (1/GPa) = 0.01729723
#
# Stress axis : x y z
#
# Youngs Moduli (GPa) = 56.89050 56.89050 69.70782
#
# Poissons Ratio (x) = 0.44369 0.28939
# Poissons Ratio (y) = 0.44369 0.28939
# Poissons Ratio (z) = 0.23618 0.23618
#
# Static dielectric constant tensor:
#      x y z
#    x 3.037640 0.000000 0.000000 
#    y 0.000000 3.037640 0.000000 
#    z 0.000000 0.000000 3.391130 
# 
# 
# High freq. dielectric constant tensor:
#      x y z
#    x 1.640510 0.000000 0.000000 
#    y 0.000000 1.640510 0.000000 
#    z 0.000000 0.000000 1.681790 
# 
# From -- ./inp_files/8514.got.cif
#   From: 2010.03.12/outbox.cif.g09.slc.cpg/sg191_5_cif.got.tgz:8514.got - 2010.04.01 12:09:02.
