data_PCOD8328117
_publ_section_title
;
Structure prediction by ZEFSAII (Michael W. Deem and Ramdas Pophale) SiO2 
 PCOD8328117
Probable space group: P -6 2 C
;
_chemical_formula_sum "Si O2"
_cell_formula_units_Z 78
_cell_length_a 23.908133
_cell_length_b 23.908133
_cell_length_c 8.154921
_cell_angle_alpha 90.000000
_cell_angle_beta 90.000000
_cell_angle_gamma 120.000000
_cell_volume 4036.841670
_symmetry_space_group_name_H-M "P -6 2 C"
_symmetry_group_IT_number 190
_symmetry_cell_setting 'hexagonal'
loop_
_space_group_symop_operation_xyz
x,y,z
-x+y,-x,1/2-z
-y,x-y,z
x,y,1/2-z
-x+y,-x,z
-y,x-y,1/2-z
x-y,-y,-z
-x,-x+y,-z
y,x,-z
y,x,1/2+z
x-y,-y,1/2+z
-x,-x+y,1/2+z
loop_
_atom_site_type_symbol
_atom_site_label
_atom_site_fract_x
_atom_site_fract_y
_atom_site_fract_z
Si Si1 0.402112 0.128964 0.561580
Si Si2 0.810421 0.740954 0.557111
Si Si3 0.345765 0.602440 0.250000
Si Si4 0.928252 0.412896 0.063476
Si Si5 0.801763 0.070864 0.943078
Si Si6 0.834788 0.461798 0.056424
Si Si7 0.250872 0.406338 0.564214
O O1 0.407382 0.113523 0.750000
O O2 0.329134 0.084188 0.492608
O O3 0.449712 0.113527 0.460504
O O4 0.421305 0.203674 0.545088
O O5 0.810250 0.738281 0.750000
O O6 0.797510 0.797510 0.500000
O O7 0.880205 0.754848 0.492756
O O8 0.275543 0.597699 0.250000
O O9 0.350075 0.572120 0.423134
O O10 0.935845 0.430495 0.250000
O O11 0.889814 0.446774 0.990899
O O12 0.000000 0.441275 0.000000
O O13 0.797917 0.073548 0.750000
O O14 0.752715 0.092144 0.015818
O O15 0.783225 0.000000 0.000000
O O16 0.813685 0.439900 0.250000
O O17 0.862897 0.538226 0.040591
O O18 0.227841 0.402776 0.750000
#
# Coordination Sequence:
#
# PCOD8328117 Si02
#       7
#    12  12   6  12  12  12  12
#     4  10  21  35  57  85 115 146 187 235 285 353
#     4   9  19  34  53  82 115 146 181 226 278 333
#     4  10  26  42  64  94 114 160 208 246 316 364
#     4  11  24  40  57  83 114 153 192 240 297 355
#     4  10  21  37  57  86 117 152 195 242 287 343
#     4  10  25  42  60  88 122 155 202 252 306 367
#     4  10  21  38  59  85 114 152 192 241 297 349
#
# _framework density 19.322037000000002
#
# number of rings (size 3 to 8) (size 9 to 14) (size 15 to 20)
#    0.154    1.846    0.000    3.231    6.462    6.154 
#    0.000    1.538    0.000    0.308    0.000    0.000 
#    0.000    0.000    0.000    0.000    0.000    0.000 
#
# Total GULP energy -966833.616671 kJ/mol
# GULP energy per Si atom -12395.302778 kJ/mol
# Density = 1.927806 g / cm^3
# Si number density = 19.322037 Si / 1000 Ang^3
#
#
#
# Elastic Constant Matrix: (Units=GPa)
#
#
# Indices 1 2 3 4 5 6 
#
# 1 120.7304 69.6497 22.2325 0.0000 0.0000 0.0000
# 2 69.6497 120.7304 22.2325 0.0000 0.0000 0.0000
# 3 22.2325 22.2325 56.1291 0.0000 0.0000 0.0000
# 4 0.0000 0.0000 0.0000 30.3006 0.0000 0.0000
# 5 0.0000 0.0000 0.0000 0.0000 30.3006 0.0000
# 6 0.0000 0.0000 0.0000 0.0000 0.0000 25.5404
#
#
#
# Elastic Compliance Matrix: (Units=1/GPa)
#
#
# Indices 1 2 3 4 5 6 
#
# 1 0.012682 -0.006894 -0.002293 0.000000 0.000000 0.000000
# 2 -0.006894 0.012682 -0.002293 0.000000 0.000000 0.000000
# 3 -0.002293 -0.002293 0.019632 0.000000 0.000000 0.000000
# 4 0.000000 0.000000 0.000000 0.033003 0.000000 0.000000
# 5 0.000000 0.000000 0.000000 0.000000 0.033003 0.000000
# 6 0.000000 0.000000 0.000000 0.000000 0.000000 0.039154
#
#
# Mechanical properties :
#
#
# Convention : Reuss Voigt Hill
#
# Bulk Modulus (GPa) = 45.37634 58.42438 51.90036
# Shear Modulus (GPa) = 27.70673 29.45999 28.58336
#
# Velocity S-wave (km/s) = 3.79085 3.90896 3.85036
# Velocity P-wave (km/s) = 6.53422 7.11871 6.83272
#
# Compressibility (1/GPa) = 0.02203791
#
# Stress axis : x y z
#
# Youngs Moduli (GPa) = 78.84891 78.84891 50.93652
#
# Poissons Ratio (x) = 0.54361 0.11678
# Poissons Ratio (y) = 0.54361 0.11678
# Poissons Ratio (z) = 0.18077 0.18077
#
# Static dielectric constant tensor:
#      x y z
#    x 3.443090 0.000000 0.000000 
#    y 0.000000 3.443090 0.000000 
#    z 0.000000 0.000000 3.618240 
# 
# 
# High freq. dielectric constant tensor:
#      x y z
#    x 1.745080 0.000000 0.000000 
#    y 0.000000 1.745080 0.000000 
#    z 0.000000 0.000000 1.761190 
# 
# From -- ./inp_files/1350.got.cif
#   From: 2010.06.25/outbox.cif.g09.slc.cpg/sg190_1_cif.got.tgz:1350.got - 2010.06.28 13:08:06.
