data_PCOD8328305
_publ_section_title
;
Structure prediction by ZEFSAII (Michael W. Deem and Ramdas Pophale) SiO2 
 PCOD8328305
Probable space group: P 6/M M M
;
_chemical_formula_sum "Si O2"
_cell_formula_units_Z 132
_cell_length_a 18.420132
_cell_length_b 18.420132
_cell_length_c 28.386876
_cell_angle_alpha 90.000000
_cell_angle_beta 90.000000
_cell_angle_gamma 120.000000
_cell_volume 8341.299373
_symmetry_space_group_name_H-M "P 6/M M M"
_symmetry_group_IT_number 191
_symmetry_cell_setting 'hexagonal'
loop_
_space_group_symop_operation_xyz
x,y,z
x-y,x,z
-y,x-y,z
-x,-y,z
-x+y,-x,z
y,-x+y,z
x-y,-y,-z
-x,-x+y,-z
y,x,-z
-y,-x,-z
-x+y,y,-z
x,x-y,-z
-x,-y,-z
-x+y,-x,-z
y,-x+y,-z
x,y,-z
x-y,x,-z
-y,x-y,-z
-x+y,y,z
x,x-y,z
-y,-x,z
y,x,z
x-y,-y,z
-x,-x+y,z
loop_
_atom_site_type_symbol
_atom_site_label
_atom_site_fract_x
_atom_site_fract_y
_atom_site_fract_z
Si Si1 0.500636 0.333583 0.054477
Si Si2 0.829496 0.331121 0.309786
Si Si3 0.171777 0.502584 0.500000
Si Si4 0.369098 0.901536 0.786835
Si Si5 0.735631 0.097684 0.871141
Si Si6 0.095795 0.462033 0.405033
O O1 0.527465 0.263733 0.063124
O O2 0.577072 0.422929 0.071565
O O3 0.415992 0.310212 0.082541
O O4 0.480518 0.337883 0.000000
O O5 0.853036 0.426518 0.310833
O O6 0.730033 0.269968 0.308215
O O7 0.870515 0.318800 0.262543
O O8 0.865000 0.312002 0.357529
O O9 0.271813 0.543626 0.500000
O O10 0.145623 0.572812 0.500000
O O11 0.135525 0.447604 0.452492
O O12 0.431919 0.863837 0.795063
O O13 0.300561 0.873650 0.827745
O O14 0.424397 0.000000 0.785196
O O15 0.836887 0.163114 0.873312
O O16 0.713454 0.000000 0.867122
O O17 0.112072 0.556036 0.404979
O O18 0.000000 0.392883 0.405365
#
# Coordination Sequence:
#
# PCOD8328305 Si02
#       6
#    24  24  12  24  24  24
#     4   9  17  29  46  69  97 127 155 181 210 247
#     4  10  18  27  39  56  79 105 134 167 202 236
#     4  10  18  27  39  55  74  93 116 150 195 242
#     4   9  17  29  45  64  86 112 140 169 203 248
#     4  10  20  33  48  66  88 114 146 184 225 266
#     4   9  17  28  40  52  68  94 127 160 193 230
#
# _framework density 15.824871999999999
#
# number of rings (size 3 to 8) (size 9 to 14) (size 15 to 20)
#    0.000    2.545    0.000    2.909    0.000    5.455 
#    0.000    2.727    0.000    6.000    0.000    0.000 
#    0.000    0.000    0.000    4.545    0.000    0.000 
#
# Total GULP energy -1635848.043088 kJ/mol
# GULP energy per Si atom -12392.788205 kJ/mol
# Density = 1.578885 g / cm^3
# Si number density = 15.824872 Si / 1000 Ang^3
#
#
#
# Elastic Constant Matrix: (Units=GPa)
#
#
# Indices 1 2 3 4 5 6 
#
# 1 51.2551 26.2058 29.7695 0.0000 0.0000 0.0000
# 2 26.2058 51.2551 29.7695 0.0000 0.0000 0.0000
# 3 29.7695 29.7695 108.4630 0.0000 0.0000 0.0000
# 4 0.0000 0.0000 0.0000 12.6442 0.0000 0.0000
# 5 0.0000 0.0000 0.0000 0.0000 12.6442 0.0000
# 6 0.0000 0.0000 0.0000 0.0000 0.0000 12.5247
#
#
#
# Elastic Compliance Matrix: (Units=1/GPa)
#
#
# Indices 1 2 3 4 5 6 
#
# 1 0.028141 -0.011780 -0.004491 0.000000 0.000000 0.000000
# 2 -0.011780 0.028141 -0.004491 0.000000 0.000000 0.000000
# 3 -0.004491 -0.004491 0.011685 0.000000 0.000000 0.000000
# 4 0.000000 0.000000 0.000000 0.079087 0.000000 0.000000
# 5 0.000000 0.000000 0.000000 0.000000 0.079087 0.000000
# 6 0.000000 0.000000 0.000000 0.000000 0.000000 0.079842
#
#
# Mechanical properties :
#
#
# Convention : Reuss Voigt Hill
#
# Bulk Modulus (GPa) = 37.81437 42.49586 40.15511
# Shear Modulus (GPa) = 14.03225 15.91120 14.97173
#
# Velocity S-wave (km/s) = 2.98102 3.17433 3.07919
# Velocity P-wave (km/s) = 5.98298 6.35195 6.17022
#
# Compressibility (1/GPa) = 0.02644497
#
# Stress axis : x y z
#
# Youngs Moduli (GPa) = 35.53497 35.53497 85.58123
#
# Poissons Ratio (x) = 0.41860 0.38432
# Poissons Ratio (y) = 0.41860 0.38432
# Poissons Ratio (z) = 0.15958 0.15958
#
# Static dielectric constant tensor:
#      x y z
#    x 2.738920 0.000000 0.000000 
#    y 0.000000 2.738920 0.000000 
#    z 0.000000 0.000000 3.474170 
# 
# 
# High freq. dielectric constant tensor:
#      x y z
#    x 1.570630 0.000000 0.000000 
#    y 0.000000 1.570630 0.000000 
#    z 0.000000 0.000000 1.635600 
# 
# From -- ./inp_files/10393.got.cif
#   From: 2010.03.12/outbox.cif.g09.slc.cpg/sg191_6_cif.got.tgz:10393.got - 2010.04.01 12:09:02.
