data_PCOD8328084
_publ_section_title
;
Structure prediction by ZEFSAII (Michael W. Deem and Ramdas Pophale) SiO2 
 PCOD8328084
Probable space group: P -6 2 C
;
_chemical_formula_sum "Si O2"
_cell_formula_units_Z 64
_cell_length_a 14.106903
_cell_length_b 14.106903
_cell_length_c 18.303584
_cell_angle_alpha 90.000000
_cell_angle_beta 90.000000
_cell_angle_gamma 120.000000
_cell_volume 3154.497072
_symmetry_space_group_name_H-M "P -6 2 C"
_symmetry_group_IT_number 190
_symmetry_cell_setting 'hexagonal'
loop_
_space_group_symop_operation_xyz
x,y,z
-x+y,-x,1/2-z
-y,x-y,z
x,y,1/2-z
-x+y,-x,z
-y,x-y,1/2-z
x-y,-y,-z
-x,-x+y,-z
y,x,-z
y,x,1/2+z
x-y,-y,1/2+z
-x,-x+y,1/2+z
loop_
_atom_site_type_symbol
_atom_site_label
_atom_site_fract_x
_atom_site_fract_y
_atom_site_fract_z
Si Si1 0.881328 0.766453 0.536024
Si Si2 0.587132 0.490996 0.831590
Si Si3 0.416870 0.181836 0.435182
Si Si4 0.489634 0.919875 0.934647
Si Si5 0.666668 0.333334 0.662019
Si Si6 0.249576 0.992000 0.333464
O O1 0.813015 0.813015 0.500000
O O2 0.819746 0.639688 0.512431
O O3 0.866371 0.779721 0.623309
O O4 0.000000 0.826715 0.500000
O O5 0.552195 0.449460 0.750000
O O6 0.479262 0.482347 0.865134
O O7 0.622421 0.410557 0.870371
O O8 0.688907 0.612346 0.834438
O O9 0.500720 0.139687 0.452576
O O10 0.479809 0.308325 0.411384
O O11 0.326713 0.109147 0.373170
O O12 0.561575 0.000000 0.000000
O O13 0.666667 0.333334 0.750000
O O14 0.224143 0.011791 0.250000
#
# Coordination Sequence:
#
# PCOD8328084 Si02
#       6
#    12  12  12  12   4  12
#     4  10  20  37  58  81 111 151 194 243 299 349
#     4   9  19  35  55  81 115 152 193 240 289 343
#     4  10  21  37  57  83 118 153 192 240 293 351
#     4  11  22  36  56  84 115 152 193 234 286 349
#     4   9  18  33  54  81 111 144 181 230 289 339
#     4   9  19  38  60  82 112 152 196 243 292 349
#
# _framework density 20.288497
#
# number of rings (size 3 to 8) (size 9 to 14) (size 15 to 20)
#    0.000    2.250    0.000    3.938    0.000    5.250 
#    0.000    3.750    0.000    2.250    0.000    0.000 
#    0.000    0.000    0.000    0.000    0.000    0.000 
#
# Total GULP energy -792915.276483 kJ/mol
# GULP energy per Si atom -12389.301195 kJ/mol
# Density = 2.024232 g / cm^3
# Si number density = 20.288497 Si / 1000 Ang^3
#
#
#
# Elastic Constant Matrix: (Units=GPa)
#
#
# Indices 1 2 3 4 5 6 
#
# 1 123.9026 59.4440 40.0248 0.0000 0.0000 0.0001
# 2 59.4440 123.9024 40.0248 0.0000 0.0000 0.0000
# 3 40.0248 40.0248 116.5751 0.0000 0.0000 0.0000
# 4 0.0000 0.0000 0.0000 24.3623 0.0001 0.0000
# 5 0.0000 0.0000 0.0000 0.0001 24.3622 0.0000
# 6 0.0001 0.0000 0.0000 0.0000 0.0000 32.2292
#
#
#
# Elastic Compliance Matrix: (Units=1/GPa)
#
#
# Indices 1 2 3 4 5 6 
#
# 1 0.010965 -0.004549 -0.002203 0.000000 0.000000 0.000000
# 2 -0.004549 0.010965 -0.002203 0.000000 0.000000 0.000000
# 3 -0.002203 -0.002203 0.010091 0.000000 0.000000 0.000000
# 4 0.000000 0.000000 0.000000 0.041047 0.000000 0.000000
# 5 0.000000 0.000000 0.000000 0.000000 0.041047 0.000000
# 6 0.000000 0.000000 0.000000 0.000000 0.000000 0.031028
#
#
# Mechanical properties :
#
#
# Convention : Reuss Voigt Hill
#
# Bulk Modulus (GPa) = 70.86524 71.48526 71.17525
# Shear Modulus (GPa) = 29.80526 31.18318 30.49422
#
# Velocity S-wave (km/s) = 3.83701 3.92470 3.88110
# Velocity P-wave (km/s) = 7.39153 7.47319 7.43247
#
# Compressibility (1/GPa) = 0.01411129
#
# Stress axis : x y z
#
# Youngs Moduli (GPa) = 91.20034 91.20014 99.10017
#
# Poissons Ratio (x) = 0.41487 0.21830
# Poissons Ratio (y) = 0.41487 0.21830
# Poissons Ratio (z) = 0.20090 0.20090
#
# Static dielectric constant tensor:
#      x y z
#    x 3.765060 0.000000 0.000000 
#    y 0.000000 3.765060 0.000000 
#    z 0.000000 0.000000 4.218500 
# 
# 
# High freq. dielectric constant tensor:
#      x y z
#    x 1.791380 0.000000 0.000000 
#    y 0.000000 1.791380 0.000000 
#    z 0.000000 0.000000 1.782450 
# 
# From -- ./inp_files/3663.got.cif
#   From: 2010.06.25/outbox.cif.g09.slc.cpg/sg190_2_cif.got.tgz:3663.got - 2010.06.28 13:08:06.
