data_PCOD8328931
_publ_section_title
;
Structure prediction by ZEFSAII (Michael W. Deem and Ramdas Pophale) SiO2 
 PCOD8328931
Probable space group: P 6/M M M
;
_chemical_formula_sum "Si O2"
_cell_formula_units_Z 156
_cell_length_a 22.491996
_cell_length_b 22.491996
_cell_length_c 20.419689
_cell_angle_alpha 90.000000
_cell_angle_beta 90.000000
_cell_angle_gamma 120.000000
_cell_volume 8946.141235
_symmetry_space_group_name_H-M "P 6/M M M"
_symmetry_group_IT_number 191
_symmetry_cell_setting 'hexagonal'
loop_
_space_group_symop_operation_xyz
x,y,z
x-y,x,z
-y,x-y,z
-x,-y,z
-x+y,-x,z
y,-x+y,z
x-y,-y,-z
-x,-x+y,-z
y,x,-z
-y,-x,-z
-x+y,y,-z
x,x-y,-z
-x,-y,-z
-x+y,-x,-z
y,-x+y,-z
x,y,-z
x-y,x,-z
-y,x-y,-z
-x+y,y,z
x,x-y,z
-y,-x,z
y,x,z
x-y,-y,z
-x,-x+y,z
loop_
_atom_site_type_symbol
_atom_site_label
_atom_site_fract_x
_atom_site_fract_y
_atom_site_fract_z
Si Si1 0.923237 0.391257 0.427039
Si Si2 0.288464 0.852366 0.072331
Si Si3 0.707731 0.786265 0.643807
Si Si4 0.721186 0.925440 0.500000
Si Si5 0.711695 0.151702 0.316296
Si Si6 0.792778 0.717078 0.922134
Si Si7 0.526550 0.192885 0.190948
O O1 0.905467 0.358836 0.500000
O O2 0.920130 0.460065 0.426286
O O3 0.868189 0.340299 0.375897
O O4 0.000000 0.408072 0.407526
O O5 0.220212 0.779789 0.067783
O O6 0.266658 0.907072 0.097262
O O7 0.340250 0.847945 0.123678
O O8 0.323266 0.872253 0.000000
O O9 0.736354 0.868177 0.654396
O O10 0.766975 0.766975 0.659603
O O11 0.679509 0.764580 0.568120
O O12 0.642042 0.742157 0.689892
O O13 0.753626 0.876813 0.500000
O O14 0.787663 0.000000 0.500000
O O15 0.771875 0.228126 0.331227
O O16 0.673845 0.148884 0.248968
O O17 0.867040 0.734080 0.892925
O O18 0.771440 0.771440 0.894524
O O19 0.798161 0.721193 0.000000
O O20 0.598574 0.197148 0.201749
O O21 0.539065 0.269533 0.188734
#
# Coordination Sequence:
#
# PCOD8328931 Si02
#       7
#    24  24  24  12  24  24  24
#     4   9  18  32  49  67  88 117 153 195 242 287
#     4   8  15  29  49  72  96 123 158 200 244 288
#     4   9  17  29  46  69  96 125 157 195 238 281
#     4   8  14  24  40  63  89 117 149 187 231 275
#     4  10  20  31  46  68  94 125 159 194 233 280
#     4   8  13  23  42  67  93 122 157 196 235 275
#     4  10  20  34  51  71  96 126 158 194 239 292
#
# _framework density 17.437685999999999
#
# number of rings (size 3 to 8) (size 9 to 14) (size 15 to 20)
#    0.000    3.077    0.000    2.462    1.077    0.615 
#    0.000    1.538    0.000    3.923    0.000    5.385 
#    0.000    0.000    0.000    0.000    0.000   18.154 
#
# Total GULP energy -1932914.231507 kJ/mol
# GULP energy per Si atom -12390.475843 kJ/mol
# Density = 1.739800 g / cm^3
# Si number density = 17.437686 Si / 1000 Ang^3
#
#
#
# Elastic Constant Matrix: (Units=GPa)
#
#
# Indices 1 2 3 4 5 6 
#
# 1 85.0097 43.8398 48.8502 0.0000 0.0000 0.0000
# 2 43.8398 85.0097 48.8502 0.0000 0.0000 0.0000
# 3 48.8502 48.8502 91.2046 0.0000 0.0000 0.0000
# 4 0.0000 0.0000 0.0000 19.0995 0.0000 0.0000
# 5 0.0000 0.0000 0.0000 0.0000 19.0995 0.0000
# 6 0.0000 0.0000 0.0000 0.0000 0.0000 20.5849
#
#
#
# Elastic Compliance Matrix: (Units=1/GPa)
#
#
# Indices 1 2 3 4 5 6 
#
# 1 0.018679 -0.005611 -0.007000 0.000000 0.000000 0.000000
# 2 -0.005611 0.018679 -0.007000 0.000000 0.000000 0.000000
# 3 -0.007000 -0.007000 0.018463 0.000000 0.000000 0.000000
# 4 0.000000 0.000000 0.000000 0.052357 0.000000 0.000000
# 5 0.000000 0.000000 0.000000 0.000000 0.052357 0.000000
# 6 0.000000 0.000000 0.000000 0.000000 0.000000 0.048579
#
#
# Mechanical properties :
#
#
# Convention : Reuss Voigt Hill
#
# Bulk Modulus (GPa) = 60.23745 60.47829 60.35787
# Shear Modulus (GPa) = 19.69527 19.73569 19.71548
#
# Velocity S-wave (km/s) = 3.36440 3.36785 3.36612
# Velocity P-wave (km/s) = 7.05065 7.06265 7.05665
#
# Compressibility (1/GPa) = 0.01660097
#
# Stress axis : x y z
#
# Youngs Moduli (GPa) = 53.53591 53.53591 54.16376
#
# Poissons Ratio (x) = 0.30037 0.37913
# Poissons Ratio (y) = 0.30037 0.37913
# Poissons Ratio (z) = 0.37473 0.37473
#
# Static dielectric constant tensor:
#      x y z
#    x 3.223220 0.000000 0.000000 
#    y 0.000000 3.223220 0.000000 
#    z 0.000000 0.000000 3.380750 
# 
# 
# High freq. dielectric constant tensor:
#      x y z
#    x 1.658670 0.000000 0.000000 
#    y 0.000000 1.658670 0.000000 
#    z 0.000000 0.000000 1.661050 
# 
# From -- ./inp_files/7736.got.cif
#   From: 2010.03.12/outbox.cif.g09.slc.cpg/sg191_4_cif.got.tgz:7736.got - 2010.04.01 12:09:02.
