data_PCOD8328690
_publ_section_title
;
Structure prediction by ZEFSAII (Michael W. Deem and Ramdas Pophale) SiO2 
 PCOD8328690
Probable space group: P 6/M M M
;
_chemical_formula_sum "Si O2"
_cell_formula_units_Z 120
_cell_length_a 26.344382
_cell_length_b 26.344382
_cell_length_c 12.847868
_cell_angle_alpha 90.000000
_cell_angle_beta 90.000000
_cell_angle_gamma 120.000000
_cell_volume 7722.141013
_symmetry_space_group_name_H-M "P 6/M M M"
_symmetry_group_IT_number 191
_symmetry_cell_setting 'hexagonal'
loop_
_space_group_symop_operation_xyz
x,y,z
x-y,x,z
-y,x-y,z
-x,-y,z
-x+y,-x,z
y,-x+y,z
x-y,-y,-z
-x,-x+y,-z
y,x,-z
-y,-x,-z
-x+y,y,-z
x,x-y,-z
-x,-y,-z
-x+y,-x,-z
y,-x+y,-z
x,y,-z
x-y,x,-z
-y,x-y,-z
-x+y,y,z
x,x-y,z
-y,-x,z
y,x,z
x-y,-y,z
-x,-x+y,z
loop_
_atom_site_type_symbol
_atom_site_label
_atom_site_fract_x
_atom_site_fract_y
_atom_site_fract_z
Si Si1 0.000000 0.445130 0.122359
Si Si2 0.212892 0.666195 0.500000
Si Si3 0.528478 0.824177 0.694908
Si Si4 0.231157 0.231157 0.623955
Si Si5 0.502583 0.126405 0.118218
Si Si6 0.885628 0.653601 0.621609
Si Si7 0.115820 0.000000 0.375971
O O1 0.938593 0.387160 0.150733
O O2 0.000000 0.500000 0.178331
O O3 0.000000 0.454418 0.000000
O O4 0.276235 0.723766 0.500000
O O5 0.221806 0.610903 0.500000
O O6 0.175454 0.663830 0.600901
O O7 0.527222 0.763611 0.694218
O O8 0.501233 0.828552 0.803941
O O9 0.595479 0.876312 0.680483
O O10 0.228747 0.228747 0.500000
O O11 0.289837 0.233274 0.665126
O O12 0.173531 0.173531 0.667444
O O13 0.564332 0.128664 0.129556
O O14 0.494936 0.142474 0.000000
O O15 0.890912 0.643810 0.500000
O O16 0.832594 0.665188 0.643422
O O17 0.057828 0.942173 0.334498
O O18 0.116261 0.000000 0.500000
#
# Coordination Sequence:
#
# PCOD8328690 Si02
#       7
#    12  12  24  12  24  24  12
#     4   7  12  25  44  63  81 103 132 162 197 242
#     4  10  19  32  48  65  83 109 144 178 212 255
#     4  10  19  30  45  64  87 115 143 175 216 258
#     4   9  16  24  39  58  76 108 148 184 222 267
#     4   9  17  30  48  68  88 110 137 173 215 259
#     4   9  16  28  41  56  81 110 142 180 217 254
#     4   9  15  22  32  51  79 113 153 196 235 264
#
# _framework density 15.539732000000001
#
# number of rings (size 3 to 8) (size 9 to 14) (size 15 to 20)
#    0.000    2.900    1.000    2.600    0.000    4.000 
#    0.000    0.000    0.000    0.400    0.000    3.500 
#    0.000    0.000    0.000    0.000    0.000    0.000 
#
# Total GULP energy -1487016.726834 kJ/mol
# GULP energy per Si atom -12391.806057 kJ/mol
# Density = 1.550436 g / cm^3
# Si number density = 15.539732 Si / 1000 Ang^3
#
#
#
# Elastic Constant Matrix: (Units=GPa)
#
#
# Indices 1 2 3 4 5 6 
#
# 1 76.1981 39.0685 32.6676 0.0000 0.0000 0.0000
# 2 39.0685 76.1981 32.6676 0.0000 0.0000 0.0000
# 3 32.6676 32.6676 67.9835 0.0000 0.0000 0.0000
# 4 0.0000 0.0000 0.0000 15.3589 0.0000 0.0000
# 5 0.0000 0.0000 0.0000 0.0000 15.3589 0.0000
# 6 0.0000 0.0000 0.0000 0.0000 0.0000 18.5648
#
#
#
# Elastic Compliance Matrix: (Units=1/GPa)
#
#
# Indices 1 2 3 4 5 6 
#
# 1 0.019428 -0.007505 -0.005729 0.000000 0.000000 0.000000
# 2 -0.007505 0.019428 -0.005729 0.000000 0.000000 0.000000
# 3 -0.005729 -0.005729 0.020216 0.000000 0.000000 0.000000
# 4 0.000000 0.000000 0.000000 0.065109 0.000000 0.000000
# 5 0.000000 0.000000 0.000000 0.000000 0.065109 0.000000
# 6 0.000000 0.000000 0.000000 0.000000 0.000000 0.053865
#
#
# Mechanical properties :
#
#
# Convention : Reuss Voigt Hill
#
# Bulk Modulus (GPa) = 47.29375 47.68748 47.49061
# Shear Modulus (GPa) = 17.35330 17.58823 17.47077
#
# Velocity S-wave (km/s) = 3.34534 3.36791 3.35664
# Velocity P-wave (km/s) = 6.73958 6.77332 6.75647
#
# Compressibility (1/GPa) = 0.02114444
#
# Stress axis : x y z
#
# Youngs Moduli (GPa) = 51.47252 51.47252 49.46688
#
# Poissons Ratio (x) = 0.38629 0.28341
# Poissons Ratio (y) = 0.38629 0.28341
# Poissons Ratio (z) = 0.29490 0.29490
#
# Static dielectric constant tensor:
#      x y z
#    x 3.038160 0.000000 0.000000 
#    y 0.000000 3.038160 0.000000 
#    z 0.000000 0.000000 2.625750 
# 
# 
# High freq. dielectric constant tensor:
#      x y z
#    x 1.596120 0.000000 0.000000 
#    y 0.000000 1.596120 0.000000 
#    z 0.000000 0.000000 1.549700 
# 
# From -- ./inp_files/3290.got.cif
#   From: 2010.03.12/outbox.cif.g09.slc.cpg/sg191_2_cif.got.tgz:3290.got - 2010.04.01 12:09:02.
