data_PCOD8328219
_publ_section_title
;
Structure prediction by ZEFSAII (Michael W. Deem and Ramdas Pophale) SiO2 
 PCOD8328219
Probable space group: P 6/M M M
;
_chemical_formula_sum "Si O2"
_cell_formula_units_Z 108
_cell_length_a 29.097119
_cell_length_b 29.097119
_cell_length_c 10.328267
_cell_angle_alpha 90.000000
_cell_angle_beta 90.000000
_cell_angle_gamma 120.000000
_cell_volume 7572.827577
_symmetry_space_group_name_H-M "P 6/M M M"
_symmetry_group_IT_number 191
_symmetry_cell_setting 'hexagonal'
loop_
_space_group_symop_operation_xyz
x,y,z
x-y,x,z
-y,x-y,z
-x,-y,z
-x+y,-x,z
y,-x+y,z
x-y,-y,-z
-x,-x+y,-z
y,x,-z
-y,-x,-z
-x+y,y,-z
x,x-y,-z
-x,-y,-z
-x+y,-x,-z
y,-x+y,-z
x,y,-z
x-y,x,-z
-y,x-y,-z
-x+y,y,z
x,x-y,z
-y,-x,z
y,x,z
x-y,-y,z
-x,-x+y,z
loop_
_atom_site_type_symbol
_atom_site_label
_atom_site_fract_x
_atom_site_fract_y
_atom_site_fract_z
Si Si1 0.902806 0.700414 0.000000
Si Si2 0.531642 0.468359 0.647093
Si Si3 0.063113 0.677425 0.000000
Si Si4 0.936982 0.312239 0.500000
Si Si5 0.937039 0.371608 0.259275
Si Si6 0.940977 0.776749 0.761592
Si Si7 0.715227 0.805133 0.500000
O O1 0.907978 0.648546 0.000000
O O2 0.930783 0.734619 0.126851
O O3 0.840622 0.681243 0.000000
O O4 0.500000 0.500000 0.645342
O O5 0.542258 0.457743 0.500000
O O6 0.497327 0.412341 0.721179
O O7 0.082925 0.658557 0.876431
O O8 0.000000 0.653668 0.000000
O O9 0.916203 0.328856 0.374342
O O10 0.910852 0.249665 0.500000
O O11 0.000000 0.338557 0.500000
O O12 0.000000 0.404411 0.263172
O O13 0.898587 0.797174 0.768996
O O14 0.939045 0.749700 0.625562
O O15 0.000000 0.827282 0.778721
O O16 0.697379 0.848690 0.500000
#
# Coordination Sequence:
#
# PCOD8328219 Si02
#       7
#    12  12  12  12  24  24  12
#     4  10  20  32  46  61  82 111 138 171 211 254
#     4   9  14  25  39  53  77 103 135 169 195 225
#     4  10  18  27  38  58  82 101 133 175 208 237
#     4  10  16  25  40  56  72  99 137 169 202 239
#     4   9  17  25  38  56  75 103 132 168 203 226
#     4  10  19  31  46  63  81 104 132 166 215 266
#     4  10  20  30  42  61  84 107 134 173 213 254
#
# _framework density 14.261514999999999
#
# number of rings (size 3 to 8) (size 9 to 14) (size 15 to 20)
#    0.000    2.333    1.111    3.333    0.000    2.222 
#    0.000    2.222    0.000    0.222    0.000    0.000 
#    0.000    5.333    0.000    0.000    0.000    0.889 
#
# Total GULP energy -1339100.479661 kJ/mol
# GULP energy per Si atom -12399.078515 kJ/mol
# Density = 1.422906 g / cm^3
# Si number density = 14.261515 Si / 1000 Ang^3
#
#
#
# Elastic Constant Matrix: (Units=GPa)
#
#
# Indices 1 2 3 4 5 6 
#
# 1 91.2230 42.2723 42.5715 0.0000 0.0000 0.0000
# 2 42.2723 91.2230 42.5715 0.0000 0.0000 0.0000
# 3 42.5715 42.5715 130.1294 0.0000 0.0000 0.0000
# 4 0.0000 0.0000 0.0000 22.1153 0.0000 0.0000
# 5 0.0000 0.0000 0.0000 0.0000 22.1153 0.0000
# 6 0.0000 0.0000 0.0000 0.0000 0.0000 24.4753
#
#
#
# Elastic Compliance Matrix: (Units=1/GPa)
#
#
# Indices 1 2 3 4 5 6 
#
# 1 0.014947 -0.005481 -0.003097 0.000000 0.000000 0.000000
# 2 -0.005481 0.014947 -0.003097 0.000000 0.000000 0.000000
# 3 -0.003097 -0.003097 0.009711 0.000000 0.000000 0.000000
# 4 0.000000 0.000000 0.000000 0.045218 0.000000 0.000000
# 5 0.000000 0.000000 0.000000 0.000000 0.045218 0.000000
# 6 0.000000 0.000000 0.000000 0.000000 0.000000 0.040857
#
#
# Mechanical properties :
#
#
# Convention : Reuss Voigt Hill
#
# Bulk Modulus (GPa) = 61.51658 63.04509 62.28083
# Shear Modulus (GPa) = 25.04174 26.08520 25.56347
#
# Velocity S-wave (km/s) = 4.19489 4.28139 4.23836
# Velocity P-wave (km/s) = 8.16646 8.29113 8.22903
#
# Compressibility (1/GPa) = 0.01625578
#
# Stress axis : x y z
#
# Youngs Moduli (GPa) = 66.90137 66.90137 102.97743
#
# Poissons Ratio (x) = 0.36671 0.31890
# Poissons Ratio (y) = 0.36671 0.31890
# Poissons Ratio (z) = 0.20718 0.20718
#
# Static dielectric constant tensor:
#      x y z
#    x 2.631960 0.000000 0.000000 
#    y 0.000000 2.631960 0.000000 
#    z 0.000000 0.000000 3.148330 
# 
# 
# High freq. dielectric constant tensor:
#      x y z
#    x 1.513770 0.000000 0.000000 
#    y 0.000000 1.513770 0.000000 
#    z 0.000000 0.000000 1.568580 
# 
# From -- ./inp_files/1797.got.cif
#   From: 2010.03.12/outbox.cif.g09.slc.cpg/sg191_1_cif.got.tgz:1797.got - 2010.04.01 12:09:02.
