data_PCOD8328314
_publ_section_title
;
Structure prediction by ZEFSAII (Michael W. Deem and Ramdas Pophale) SiO2 
 PCOD8328314
Probable space group: P 6/M M M
;
_chemical_formula_sum "Si O2"
_cell_formula_units_Z 120
_cell_length_a 17.888407
_cell_length_b 17.888407
_cell_length_c 25.809406
_cell_angle_alpha 90.000000
_cell_angle_beta 90.000000
_cell_angle_gamma 120.000000
_cell_volume 7152.402990
_symmetry_space_group_name_H-M "P 6/M M M"
_symmetry_group_IT_number 191
_symmetry_cell_setting 'hexagonal'
loop_
_space_group_symop_operation_xyz
x,y,z
x-y,x,z
-y,x-y,z
-x,-y,z
-x+y,-x,z
y,-x+y,z
x-y,-y,-z
-x,-x+y,-z
y,x,-z
-y,-x,-z
-x+y,y,-z
x,x-y,-z
-x,-y,-z
-x+y,-x,-z
y,-x+y,-z
x,y,-z
x-y,x,-z
-y,x-y,-z
-x+y,y,z
x,x-y,z
-y,-x,z
y,x,z
x-y,-y,z
-x,-x+y,z
loop_
_atom_site_type_symbol
_atom_site_label
_atom_site_fract_x
_atom_site_fract_y
_atom_site_fract_z
Si Si1 0.366075 0.467359 0.900173
Si Si2 0.167244 0.497874 0.500000
Si Si3 0.540613 0.636547 0.393875
Si Si4 0.098848 0.366721 0.803954
Si Si5 0.628628 0.898232 0.000000
Si Si6 0.330749 0.495860 0.714990
O O1 0.428015 0.571986 0.901013
O O2 0.427136 0.427136 0.898201
O O3 0.305317 0.437056 0.849885
O O4 0.307072 0.433981 0.950870
O O5 0.270313 0.540626 0.500000
O O6 0.141128 0.570564 0.500000
O O7 0.130253 0.440846 0.447746
O O8 0.450508 0.549493 0.399289
O O9 0.618330 0.618330 0.384499
O O10 0.536685 0.688504 0.344347
O O11 0.164017 0.328034 0.801637
O O12 0.102367 0.415932 0.751122
O O13 0.000000 0.289122 0.812383
O O14 0.670591 0.835296 0.000000
O O15 0.704012 0.000000 0.000000
O O16 0.264669 0.529338 0.729424
O O17 0.428498 0.571503 0.723432
#
# Coordination Sequence:
#
# PCOD8328314 Si02
#       6
#    24  12  24  24  12  24
#     4   9  17  30  49  71  93 119 152 188 227 274
#     4  10  18  27  39  55  76 101 132 174 223 270
#     4   9  17  28  41  56  76 106 143 179 215 260
#     4  10  20  33  50  71  94 122 156 193 231 273
#     4  10  19  31  49  72  97 127 164 204 243 283
#     4  10  19  30  45  66  92 120 150 185 225 269
#
# _framework density 16.777577999999998
#
# number of rings (size 3 to 8) (size 9 to 14) (size 15 to 20)
#    0.000    2.400    0.000    3.300    0.000    4.400 
#    0.000    2.000    0.000    7.100    0.000    0.000 
#    0.000    4.800    0.000    0.000    0.000    0.400 
#
# Total GULP energy -1487214.109984 kJ/mol
# GULP energy per Si atom -12393.450917 kJ/mol
# Density = 1.673939 g / cm^3
# Si number density = 16.777578 Si / 1000 Ang^3
#
#
#
# Elastic Constant Matrix: (Units=GPa)
#
#
# Indices 1 2 3 4 5 6 
#
# 1 72.7522 39.8672 27.9728 0.0000 0.0000 0.0000
# 2 39.8672 72.7522 27.9728 0.0000 0.0000 0.0000
# 3 27.9728 27.9728 116.9061 0.0000 0.0000 0.0000
# 4 0.0000 0.0000 0.0000 3.9600 0.0000 0.0000
# 5 0.0000 0.0000 0.0000 0.0000 3.9600 0.0000
# 6 0.0000 0.0000 0.0000 0.0000 0.0000 16.4425
#
#
#
# Elastic Compliance Matrix: (Units=1/GPa)
#
#
# Indices 1 2 3 4 5 6 
#
# 1 0.020243 -0.010166 -0.002411 0.000000 0.000000 0.000000
# 2 -0.010166 0.020243 -0.002411 0.000000 0.000000 0.000000
# 3 -0.002411 -0.002411 0.009708 0.000000 0.000000 0.000000
# 4 0.000000 0.000000 0.000000 0.252525 0.000000 0.000000
# 5 0.000000 0.000000 0.000000 0.000000 0.252525 0.000000
# 6 0.000000 0.000000 0.000000 0.000000 0.000000 0.060818
#
#
# Mechanical properties :
#
#
# Convention : Reuss Voigt Hill
#
# Bulk Modulus (GPa) = 49.46241 50.44844 49.95543
# Shear Modulus (GPa) = 7.65956 15.97901 11.81929
#
# Velocity S-wave (km/s) = 2.13899 3.08945 2.65706
# Velocity P-wave (km/s) = 5.97040 6.54679 6.26523
#
# Compressibility (1/GPa) = 0.02021737
#
# Stress axis : x y z
#
# Youngs Moduli (GPa) = 49.39940 49.39940 103.01017
#
# Poissons Ratio (x) = 0.50219 0.24838
# Poissons Ratio (y) = 0.50219 0.24838
# Poissons Ratio (z) = 0.11911 0.11911
#
# Static dielectric constant tensor:
#      x y z
#    x 2.916500 0.000000 0.000000 
#    y 0.000000 2.916500 0.000000 
#    z 0.000000 0.000000 3.511970 
# 
# 
# High freq. dielectric constant tensor:
#      x y z
#    x 1.614010 0.000000 0.000000 
#    y 0.000000 1.614010 0.000000 
#    z 0.000000 0.000000 1.673160 
# 
# From -- ./inp_files/8580.got.cif
#   From: 2010.03.12/outbox.cif.g09.slc.cpg/sg191_5_cif.got.tgz:8580.got - 2010.04.01 12:09:02.
