data_PCOD8328878
_publ_section_title
;
Structure prediction by ZEFSAII (Michael W. Deem and Ramdas Pophale) SiO2 
 PCOD8328878
Probable space group: P 6/M M M
;
_chemical_formula_sum "Si O2"
_cell_formula_units_Z 102
_cell_length_a 20.885577
_cell_length_b 20.885577
_cell_length_c 17.808920
_cell_angle_alpha 90.000000
_cell_angle_beta 90.000000
_cell_angle_gamma 120.000000
_cell_volume 6727.615624
_symmetry_space_group_name_H-M "P 6/M M M"
_symmetry_group_IT_number 191
_symmetry_cell_setting 'hexagonal'
loop_
_space_group_symop_operation_xyz
x,y,z
x-y,x,z
-y,x-y,z
-x,-y,z
-x+y,-x,z
y,-x+y,z
x-y,-y,-z
-x,-x+y,-z
y,x,-z
-y,-x,-z
-x+y,y,-z
x,x-y,-z
-x,-y,-z
-x+y,-x,-z
y,-x+y,-z
x,y,-z
x-y,x,-z
-y,x-y,-z
-x+y,y,z
x,x-y,z
-y,-x,z
y,x,z
x-y,-y,z
-x,-x+y,z
loop_
_atom_site_type_symbol
_atom_site_label
_atom_site_fract_x
_atom_site_fract_y
_atom_site_fract_z
Si Si1 0.151116 0.000000 0.500000
Si Si2 0.866209 0.282519 0.638625
Si Si3 0.514589 0.332355 0.780269
Si Si4 0.000000 0.273556 0.414407
Si Si5 0.087445 0.472410 0.500000
Si Si6 0.617047 0.082348 0.916707
O O1 0.142222 0.071111 0.500000
O O2 0.196493 0.000000 0.574482
O O3 0.789608 0.210393 0.623852
O O4 0.865778 0.320955 0.716534
O O5 0.929605 0.260114 0.634109
O O6 0.878207 0.338873 0.574035
O O7 0.534286 0.267143 0.780328
O O8 0.589985 0.410016 0.768471
O O9 0.472881 0.329106 0.857636
O O10 0.000000 0.304797 0.500000
O O11 0.116152 0.558076 0.500000
O O12 0.000000 0.423581 0.500000
O O13 0.540281 0.080562 0.917265
O O14 0.601085 0.000000 0.894959
O O15 0.653159 0.103992 0.000000
#
# Coordination Sequence:
#
# PCOD8328878 Si02
#       6
#     6  24  24  12  12  24
#     4  10  19  32  52  76 101 128 156 190 238 292
#     4  11  20  33  48  66  92 119 152 191 231 273
#     4  10  21  33  47  67  93 123 155 194 240 288
#     4  10  20  33  50  71  91 122 154 194 230 267
#     4  11  20  31  46  66  87 112 152 195 229 266
#     4   8  15  29  48  68  89 114 147 187 230 277
#
# _framework density 15.161389
#
# number of rings (size 3 to 8) (size 9 to 14) (size 15 to 20)
#    0.353    1.765    2.353    2.765    1.647    0.471 
#    0.000    0.000    0.000    4.706    0.000    0.000 
#    0.000    0.000    0.000    0.000    0.000    0.000 
#
# Total GULP energy -1264123.647025 kJ/mol
# GULP energy per Si atom -12393.369088 kJ/mol
# Density = 1.512688 g / cm^3
# Si number density = 15.161389 Si / 1000 Ang^3
#
#
#
# Elastic Constant Matrix: (Units=GPa)
#
#
# Indices 1 2 3 4 5 6 
#
# 1 90.2672 47.8756 50.4592 0.0000 0.0000 0.0000
# 2 47.8756 90.2672 50.4592 0.0000 0.0000 0.0000
# 3 50.4592 50.4592 105.7324 0.0000 0.0000 0.0000
# 4 0.0000 0.0000 0.0000 27.6261 0.0000 0.0000
# 5 0.0000 0.0000 0.0000 0.0000 27.6261 0.0000
# 6 0.0000 0.0000 0.0000 0.0000 0.0000 21.1958
#
#
#
# Elastic Compliance Matrix: (Units=1/GPa)
#
#
# Indices 1 2 3 4 5 6 
#
# 1 0.017352 -0.006238 -0.005304 0.000000 0.000000 0.000000
# 2 -0.006238 0.017352 -0.005304 0.000000 0.000000 0.000000
# 3 -0.005304 -0.005304 0.014520 0.000000 0.000000 0.000000
# 4 0.000000 0.000000 0.000000 0.036198 0.000000 0.000000
# 5 0.000000 0.000000 0.000000 0.000000 0.036198 0.000000
# 6 0.000000 0.000000 0.000000 0.000000 0.000000 0.047179
#
#
# Mechanical properties :
#
#
# Convention : Reuss Voigt Hill
#
# Bulk Modulus (GPa) = 64.38288 64.87277 64.62782
# Shear Modulus (GPa) = 24.07714 24.45447 24.26580
#
# Velocity S-wave (km/s) = 3.98937 4.02050 4.00497
# Velocity P-wave (km/s) = 7.98607 8.02706 8.00659
#
# Compressibility (1/GPa) = 0.01553208
#
# Stress axis : x y z
#
# Youngs Moduli (GPa) = 57.63190 57.63190 68.87005
#
# Poissons Ratio (x) = 0.35951 0.36527
# Poissons Ratio (y) = 0.35951 0.36527
# Poissons Ratio (z) = 0.30566 0.30566
#
# Static dielectric constant tensor:
#      x y z
#    x 2.907070 0.000000 0.000000 
#    y 0.000000 2.907070 0.000000 
#    z 0.000000 0.000000 3.048410 
# 
# 
# High freq. dielectric constant tensor:
#      x y z
#    x 1.573500 0.000000 0.000000 
#    y 0.000000 1.573500 0.000000 
#    z 0.000000 0.000000 1.576950 
# 
# From -- ./inp_files/4353.got.cif
#   From: 2010.03.12/outbox.cif.g09.slc.cpg/sg191_3_cif.got.tgz:4353.got - 2010.04.01 12:09:02.
