data_PCOD8328905
_publ_section_title
;
Structure prediction by ZEFSAII (Michael W. Deem and Ramdas Pophale) SiO2 
 PCOD8328905
Probable space group: P 6/M M M
;
_chemical_formula_sum "Si O2"
_cell_formula_units_Z 108
_cell_length_a 24.800730
_cell_length_b 24.800730
_cell_length_c 11.808323
_cell_angle_alpha 90.000000
_cell_angle_beta 90.000000
_cell_angle_gamma 120.000000
_cell_volume 6289.958564
_symmetry_space_group_name_H-M "P 6/M M M"
_symmetry_group_IT_number 191
_symmetry_cell_setting 'hexagonal'
loop_
_space_group_symop_operation_xyz
x,y,z
x-y,x,z
-y,x-y,z
-x,-y,z
-x+y,-x,z
y,-x+y,z
x-y,-y,-z
-x,-x+y,-z
y,x,-z
-y,-x,-z
-x+y,y,-z
x,x-y,-z
-x,-y,-z
-x+y,-x,-z
y,-x+y,-z
x,y,-z
x-y,x,-z
-y,x-y,-z
-x+y,y,z
x,x-y,z
-y,-x,z
y,x,z
x-y,-y,z
-x,-x+y,z
loop_
_atom_site_type_symbol
_atom_site_label
_atom_site_fract_x
_atom_site_fract_y
_atom_site_fract_z
Si Si1 0.758778 0.241223 0.625702
Si Si2 0.261818 0.069466 0.000000
Si Si3 0.334643 0.167322 0.376006
Si Si4 0.737564 0.666176 0.219573
Si Si5 0.339914 0.859182 0.771428
Si Si6 0.463233 0.536768 0.630814
Si Si7 0.664258 0.456771 0.000000
O O1 0.744146 0.255855 0.500000
O O2 0.795715 0.204286 0.618460
O O3 0.695063 0.201442 0.692931
O O4 0.305703 0.079643 0.104899
O O5 0.237593 0.118797 0.000000
O O6 0.201571 0.000000 0.000000
O O7 0.304651 0.152326 0.500000
O O8 0.311460 0.101447 0.315858
O O9 0.690873 0.690873 0.251433
O O10 0.699411 0.592418 0.206006
O O11 0.400962 0.905530 0.702003
O O12 0.351751 0.837244 0.891703
O O13 0.500000 0.500000 0.626614
O O14 0.450566 0.549435 0.500000
O O15 0.617580 0.382421 0.000000
O O16 0.735716 0.471431 0.000000
#
# Coordination Sequence:
#
# PCOD8328905 Si02
#       7
#    12  12  12  24  24  12  12
#     4   9  18  33  55  79 102 132 176 228 269 322
#     4  10  19  33  55  82 111 143 178 216 264 315
#     4   9  18  31  49  75 107 143 177 211 256 311
#     4  10  20  33  53  80 110 141 178 226 271 319
#     4  11  21  37  58  82 109 142 188 227 286 343
#     4  11  24  41  59  79 112 155 194 235 285 349
#     4  12  24  41  61  84 110 143 179 233 294 351
#
# _framework density 17.170224000000001
#
# number of rings (size 3 to 8) (size 9 to 14) (size 15 to 20)
#    0.000    1.667    3.333    2.111    0.000    2.222 
#    0.000    2.222    0.000    0.111    0.000    3.111 
#    0.000    0.000    0.000    0.000    0.000   10.111 
#
# Total GULP energy -1339037.385120 kJ/mol
# GULP energy per Si atom -12398.494307 kJ/mol
# Density = 1.713114 g / cm^3
# Si number density = 17.170224 Si / 1000 Ang^3
#
#
#
# Elastic Constant Matrix: (Units=GPa)
#
#
# Indices 1 2 3 4 5 6 
#
# 1 91.6657 37.4063 44.5180 0.0000 0.0000 0.0000
# 2 37.4063 91.6657 44.5180 0.0000 0.0000 0.0000
# 3 44.5180 44.5180 152.4105 0.0000 0.0000 0.0000
# 4 0.0000 0.0000 0.0000 34.0462 0.0000 0.0000
# 5 0.0000 0.0000 0.0000 0.0000 34.0462 0.0000
# 6 0.0000 0.0000 0.0000 0.0000 0.0000 27.1297
#
#
#
# Elastic Compliance Matrix: (Units=1/GPa)
#
#
# Indices 1 2 3 4 5 6 
#
# 1 0.014066 -0.004364 -0.002834 0.000000 0.000000 0.000000
# 2 -0.004364 0.014066 -0.002834 0.000000 0.000000 0.000000
# 3 -0.002834 -0.002834 0.008217 0.000000 0.000000 0.000000
# 4 0.000000 0.000000 0.000000 0.029372 0.000000 0.000000
# 5 0.000000 0.000000 0.000000 0.000000 0.029372 0.000000
# 6 0.000000 0.000000 0.000000 0.000000 0.000000 0.036860
#
#
# Mechanical properties :
#
#
# Convention : Reuss Voigt Hill
#
# Bulk Modulus (GPa) = 61.40320 65.40296 63.40308
# Shear Modulus (GPa) = 31.75706 32.99773 32.37740
#
# Velocity S-wave (km/s) = 4.30530 4.38859 4.34714
# Velocity P-wave (km/s) = 7.78159 7.99082 7.88690
#
# Compressibility (1/GPa) = 0.01628580
#
# Stress axis : x y z
#
# Youngs Moduli (GPa) = 71.09192 71.09192 121.70124
#
# Poissons Ratio (x) = 0.31022 0.34491
# Poissons Ratio (y) = 0.31022 0.34491
# Poissons Ratio (z) = 0.20148 0.20148
#
# Static dielectric constant tensor:
#      x y z
#    x 3.161450 0.000000 0.000000 
#    y 0.000000 3.161450 0.000000 
#    z 0.000000 0.000000 7.084310 
# 
# 
# High freq. dielectric constant tensor:
#      x y z
#    x 1.652300 0.000000 0.000000 
#    y 0.000000 1.652300 0.000000 
#    z 0.000000 0.000000 1.683170 
# 
# From -- ./inp_files/3023.got.cif
#   From: 2010.03.12/outbox.cif.g09.slc.cpg/sg191_2_cif.got.tgz:3023.got - 2010.04.01 12:09:02.
