data_PCOD8328556
_publ_section_title
;
Structure prediction by ZEFSAII (Michael W. Deem and Ramdas Pophale) SiO2 
 PCOD8328556
Probable space group: P 6/M M M
;
_chemical_formula_sum "Si O2"
_cell_formula_units_Z 108
_cell_length_a 17.019376
_cell_length_b 17.019376
_cell_length_c 23.963646
_cell_angle_alpha 90.000000
_cell_angle_beta 90.000000
_cell_angle_gamma 120.000000
_cell_volume 6011.333092
_symmetry_space_group_name_H-M "P 6/M M M"
_symmetry_group_IT_number 191
_symmetry_cell_setting 'hexagonal'
loop_
_space_group_symop_operation_xyz
x,y,z
x-y,x,z
-y,x-y,z
-x,-y,z
-x+y,-x,z
y,-x+y,z
x-y,-y,-z
-x,-x+y,-z
y,x,-z
-y,-x,-z
-x+y,y,-z
x,x-y,-z
-x,-y,-z
-x+y,-x,-z
y,-x+y,-z
x,y,-z
x-y,x,-z
-y,x-y,-z
-x+y,y,z
x,x-y,z
-y,-x,z
y,x,z
x-y,-y,z
-x,-x+y,z
loop_
_atom_site_type_symbol
_atom_site_label
_atom_site_fract_x
_atom_site_fract_y
_atom_site_fract_z
Si Si1 0.900054 0.357617 0.853529
Si Si2 0.410901 0.205451 0.065907
Si Si3 0.898481 0.101520 0.066302
Si Si4 0.841537 0.511157 0.732986
Si Si5 0.446447 0.553554 0.437580
Si Si6 0.286915 0.391594 0.377115
O O1 0.897547 0.448774 0.852068
O O2 0.844358 0.304408 0.907600
O O3 0.862746 0.307713 0.794550
O O4 0.000000 0.373711 0.861626
O O5 0.306731 0.153366 0.085330
O O6 0.424432 0.212216 0.000000
O O7 0.000000 0.153562 0.090883
O O8 0.901325 0.098676 0.000000
O O9 0.733953 0.467906 0.722321
O O10 0.870160 0.435080 0.725974
O O11 0.897269 0.591397 0.688906
O O12 0.500000 0.500000 0.439620
O O13 0.425872 0.574129 0.500000
O O14 0.350592 0.488917 0.407047
O O15 0.180292 0.360584 0.390684
O O16 0.314841 0.314841 0.394512
#
# Coordination Sequence:
#
# PCOD8328556 Si02
#       6
#    24  12  12  24  12  24
#     4  10  21  36  54  75  99 130 167 212 261 310
#     4  11  22  37  52  72  99 133 169 207 257 320
#     4   9  17  30  51  76  99 123 155 200 252 311
#     4  10  18  31  53  80 108 136 172 219 266 316
#     4   9  18  34  54  79 116 156 189 225 273 329
#     4  10  20  34  55  82 113 152 194 236 280 328
#
# _framework density 17.966065
#
# number of rings (size 3 to 8) (size 9 to 14) (size 15 to 20)
#    0.000    2.111    2.222    1.667    0.000    3.556 
#    1.333    1.111    0.000    0.222    0.000    0.000 
#    0.000    0.000    0.000    5.556    0.000    0.000 
#
# Total GULP energy -1338430.753645 kJ/mol
# GULP energy per Si atom -12392.877349 kJ/mol
# Density = 1.792517 g / cm^3
# Si number density = 17.966065 Si / 1000 Ang^3
#
#
#
# Elastic Constant Matrix: (Units=GPa)
#
#
# Indices 1 2 3 4 5 6 
#
# 1 77.8713 28.7204 23.9837 0.0000 0.0000 0.0000
# 2 28.7204 77.8713 23.9837 0.0000 0.0000 0.0000
# 3 23.9837 23.9837 94.1582 0.0000 0.0000 0.0000
# 4 0.0000 0.0000 0.0000 17.0304 0.0000 0.0000
# 5 0.0000 0.0000 0.0000 0.0000 17.0304 0.0000
# 6 0.0000 0.0000 0.0000 0.0000 0.0000 24.5755
#
#
#
# Elastic Compliance Matrix: (Units=1/GPa)
#
#
# Indices 1 2 3 4 5 6 
#
# 1 0.015471 -0.004875 -0.002699 0.000000 0.000000 0.000000
# 2 -0.004875 0.015471 -0.002699 0.000000 0.000000 0.000000
# 3 -0.002699 -0.002699 0.011995 0.000000 0.000000 0.000000
# 4 0.000000 0.000000 0.000000 0.058718 0.000000 0.000000
# 5 0.000000 0.000000 0.000000 0.000000 0.058718 0.000000
# 6 0.000000 0.000000 0.000000 0.000000 0.000000 0.040691
#
#
# Mechanical properties :
#
#
# Convention : Reuss Voigt Hill
#
# Bulk Modulus (GPa) = 44.65951 44.80850 44.73401
# Shear Modulus (GPa) = 21.82698 23.27480 22.55089
#
# Velocity S-wave (km/s) = 3.48932 3.60319 3.54671
# Velocity P-wave (km/s) = 6.41448 6.50426 6.45953
#
# Compressibility (1/GPa) = 0.02239165
#
# Stress axis : x y z
#
# Youngs Moduli (GPa) = 64.63773 64.63773 83.36526
#
# Poissons Ratio (x) = 0.31509 0.22501
# Poissons Ratio (y) = 0.31509 0.22501
# Poissons Ratio (z) = 0.17446 0.17446
#
# Static dielectric constant tensor:
#      x y z
#    x 3.302650 0.000000 0.000000 
#    y 0.000000 3.302650 0.000000 
#    z 0.000000 0.000000 3.365260 
# 
# 
# High freq. dielectric constant tensor:
#      x y z
#    x 1.682580 0.000000 0.000000 
#    y 0.000000 1.682580 0.000000 
#    z 0.000000 0.000000 1.689490 
# 
# From -- ./inp_files/8434.got.cif
#   From: 2010.03.12/outbox.cif.g09.slc.cpg/sg191_5_cif.got.tgz:8434.got - 2010.04.01 12:09:02.
