data_PCOD8328495
_publ_section_title
;
Structure prediction by ZEFSAII (Michael W. Deem and Ramdas Pophale) SiO2 
 PCOD8328495
Probable space group: P 6/M M M
;
_chemical_formula_sum "Si O2"
_cell_formula_units_Z 156
_cell_length_a 22.079164
_cell_length_b 22.079164
_cell_length_c 21.087190
_cell_angle_alpha 90.000000
_cell_angle_beta 90.000000
_cell_angle_gamma 120.000000
_cell_volume 8902.553526
_symmetry_space_group_name_H-M "P 6/M M M"
_symmetry_group_IT_number 191
_symmetry_cell_setting 'hexagonal'
loop_
_space_group_symop_operation_xyz
x,y,z
x-y,x,z
-y,x-y,z
-x,-y,z
-x+y,-x,z
y,-x+y,z
x-y,-y,-z
-x,-x+y,-z
y,x,-z
-y,-x,-z
-x+y,y,-z
x,x-y,-z
-x,-y,-z
-x+y,-x,-z
y,-x+y,-z
x,y,-z
x-y,x,-z
-y,x-y,-z
-x+y,y,z
x,x-y,z
-y,-x,z
y,x,z
x-y,-y,z
-x,-x+y,z
loop_
_atom_site_type_symbol
_atom_site_label
_atom_site_fract_x
_atom_site_fract_y
_atom_site_fract_z
Si Si1 0.333437 0.530286 0.399313
Si Si2 0.297781 0.218782 0.819826
Si Si3 0.921880 0.210243 0.673907
Si Si4 0.082688 0.541344 0.070393
Si Si5 0.432974 0.080624 0.161113
Si Si6 0.920750 0.305802 0.429594
Si Si7 0.530595 0.333240 0.750714
O O1 0.262317 0.524633 0.425016
O O2 0.397562 0.602439 0.424184
O O3 0.342211 0.468219 0.427943
O O4 0.332888 0.526605 0.324142
O O5 0.278798 0.139399 0.838783
O O6 0.232830 0.232830 0.834944
O O7 0.316728 0.233264 0.745291
O O8 0.367088 0.276115 0.857664
O O9 0.873162 0.126839 0.667472
O O10 0.894366 0.246319 0.624264
O O11 0.000000 0.228577 0.656662
O O12 0.106766 0.615347 0.105562
O O13 0.000000 0.500000 0.065154
O O14 0.116168 0.558084 0.000000
O O15 0.468834 0.124397 0.223788
O O16 0.405528 0.000000 0.177836
O O17 0.915241 0.273491 0.500000
O O18 0.000000 0.365061 0.414687
O O19 0.520897 0.260449 0.777012
O O20 0.605185 0.394816 0.774809
#
# Coordination Sequence:
#
# PCOD8328495 Si02
#       7
#    24  24  24  12  24  24  24
#     4  10  21  35  50  67  89 115 147 186 228 276
#     4   9  17  29  48  74 102 129 161 204 252 296
#     4   9  17  30  48  70  96 125 156 194 239 287
#     4   9  18  32  48  68  98 134 165 195 235 281
#     4  10  18  29  47  72  96 121 158 200 239 282
#     4  10  21  35  49  66  88 116 150 187 233 288
#     4  10  19  31  47  68  91 118 150 187 232 279
#
# _framework density 17.523061999999999
#
# number of rings (size 3 to 8) (size 9 to 14) (size 15 to 20)
#    0.000    2.385    0.769    2.154    0.000    7.385 
#    0.000    2.308    0.000    3.077    0.000    2.154 
#    0.000    0.000    0.000    3.846    0.000    4.000 
#
# Total GULP energy -1933703.260516 kJ/mol
# GULP energy per Si atom -12395.533721 kJ/mol
# Density = 1.748318 g / cm^3
# Si number density = 17.523062 Si / 1000 Ang^3
#
#
#
# Elastic Constant Matrix: (Units=GPa)
#
#
# Indices 1 2 3 4 5 6 
#
# 1 106.1144 57.2734 28.2296 0.0000 0.0000 0.0000
# 2 57.2734 106.1144 28.2296 0.0000 0.0000 0.0000
# 3 28.2296 28.2296 29.6143 0.0000 0.0000 0.0000
# 4 0.0000 0.0000 0.0000 11.4754 0.0000 0.0000
# 5 0.0000 0.0000 0.0000 0.0000 11.4754 0.0000
# 6 0.0000 0.0000 0.0000 0.0000 0.0000 24.4205
#
#
#
# Elastic Compliance Matrix: (Units=1/GPa)
#
#
# Indices 1 2 3 4 5 6 
#
# 1 0.014801 -0.005674 -0.008700 0.000000 0.000000 0.000000
# 2 -0.005674 0.014801 -0.008700 0.000000 0.000000 0.000000
# 3 -0.008700 -0.008700 0.050354 0.000000 0.000000 0.000000
# 4 0.000000 0.000000 0.000000 0.087143 0.000000 0.000000
# 5 0.000000 0.000000 0.000000 0.000000 0.087143 0.000000
# 6 0.000000 0.000000 0.000000 0.000000 0.000000 0.040949
#
#
# Mechanical properties :
#
#
# Convention : Reuss Voigt Hill
#
# Bulk Modulus (GPa) = 29.57935 52.14535 40.86235
# Shear Modulus (GPa) = 14.18012 18.01498 16.09755
#
# Velocity S-wave (km/s) = 2.84778 3.20984 3.03421
# Velocity P-wave (km/s) = 5.26593 6.60001 5.97035
#
# Compressibility (1/GPa) = 0.03380737
#
# Stress axis : x y z
#
# Youngs Moduli (GPa) = 67.56459 67.56459 19.85947
#
# Poissons Ratio (x) = 0.38336 0.17278
# Poissons Ratio (y) = 0.38336 0.17278
# Poissons Ratio (z) = 0.58781 0.58781
#
# Static dielectric constant tensor:
#      x y z
#    x 3.320540 0.000000 0.000000 
#    y 0.000000 3.320540 0.000000 
#    z 0.000000 0.000000 3.153110 
# 
# 
# High freq. dielectric constant tensor:
#      x y z
#    x 1.672380 0.000000 0.000000 
#    y 0.000000 1.672380 0.000000 
#    z 0.000000 0.000000 1.647500 
# 
# From -- ./inp_files/7716.got.cif
#   From: 2010.03.12/outbox.cif.g09.slc.cpg/sg191_4_cif.got.tgz:7716.got - 2010.04.01 12:09:02.
