data_PCOD8328968
_publ_section_title
;
Structure prediction by ZEFSAII (Michael W. Deem and Ramdas Pophale) SiO2 
 PCOD8328968
Probable space group: P 6/M M M
;
_chemical_formula_sum "Si O2"
_cell_formula_units_Z 132
_cell_length_a 16.925626
_cell_length_b 16.925626
_cell_length_c 31.052759
_cell_angle_alpha 90.000000
_cell_angle_beta 90.000000
_cell_angle_gamma 120.000000
_cell_volume 7704.071502
_symmetry_space_group_name_H-M "P 6/M M M"
_symmetry_group_IT_number 191
_symmetry_cell_setting 'hexagonal'
loop_
_space_group_symop_operation_xyz
x,y,z
x-y,x,z
-y,x-y,z
-x,-y,z
-x+y,-x,z
y,-x+y,z
x-y,-y,-z
-x,-x+y,-z
y,x,-z
-y,-x,-z
-x+y,y,-z
x,x-y,-z
-x,-y,-z
-x+y,-x,-z
y,-x+y,-z
x,y,-z
x-y,x,-z
-y,x-y,-z
-x+y,y,z
x,x-y,z
-y,-x,z
y,x,z
x-y,-y,z
-x,-x+y,z
loop_
_atom_site_type_symbol
_atom_site_label
_atom_site_fract_x
_atom_site_fract_y
_atom_site_fract_z
Si Si1 0.731151 0.634571 0.500000
Si Si2 0.273822 0.901245 0.663473
Si Si3 0.287259 0.893570 0.238974
Si Si4 0.107714 0.553857 0.904994
Si Si5 0.553874 0.446127 0.808601
Si Si6 0.513112 0.846426 0.417644
Si Si7 0.610432 0.895319 0.949280
O O1 0.724453 0.724453 0.500000
O O2 0.837299 0.674598 0.500000
O O3 0.685278 0.579510 0.457068
O O4 0.168990 0.831011 0.653092
O O5 0.303782 0.885875 0.710494
O O6 0.338047 0.893457 0.627933
O O7 0.282866 0.000000 0.661066
O O8 0.179759 0.820242 0.227592
O O9 0.350079 0.860389 0.215027
O O10 0.316887 0.000000 0.227109
O O11 0.148958 0.574479 0.856792
O O12 0.139078 0.649687 0.928866
O O13 0.000000 0.500000 0.903420
O O14 0.500000 0.500000 0.809949
O O15 0.429802 0.859604 0.427863
O O16 0.479979 0.739990 0.415331
O O17 0.642049 0.821025 0.936571
O O18 0.685393 0.000000 0.934286
O O19 0.597727 0.895325 0.000000
#
# Coordination Sequence:
#
# PCOD8328968 Si02
#       7
#    12  24  24  12  12  24  24
#     4  10  21  35  49  68  93 119 148 182 225 269
#     4   9  18  31  48  69  91 119 154 191 231 273
#     4   9  18  33  51  71  96 127 162 200 243 291
#     4   9  17  30  47  68  94 126 161 202 247 289
#     4   9  18  31  48  69  96 125 158 199 242 291
#     4  10  20  32  47  68  94 123 152 184 222 266
#     4   9  17  30  49  72  99 132 169 207 247 292
#
# _framework density 17.133797000000001
#
# number of rings (size 3 to 8) (size 9 to 14) (size 15 to 20)
#    0.000    2.727    0.000    1.273    1.273    3.636 
#    1.091    0.909    0.000    0.636    0.000    3.818 
#    0.000    4.364    0.000    9.273    0.000    9.818 
#
# Total GULP energy -1635424.469154 kJ/mol
# GULP energy per Si atom -12389.579312 kJ/mol
# Density = 1.709480 g / cm^3
# Si number density = 17.133797 Si / 1000 Ang^3
#
#
#
# Elastic Constant Matrix: (Units=GPa)
#
#
# Indices 1 2 3 4 5 6 
#
# 1 93.6809 75.1407 35.6215 0.0000 0.0000 0.0000
# 2 75.1407 93.6809 35.6215 0.0000 0.0000 0.0000
# 3 35.6215 35.6215 71.8952 0.0000 0.0000 0.0000
# 4 0.0000 0.0000 0.0000 22.2218 0.0000 0.0000
# 5 0.0000 0.0000 0.0000 0.0000 22.2218 0.0000
# 6 0.0000 0.0000 0.0000 0.0000 0.0000 9.2701
#
#
#
# Elastic Compliance Matrix: (Units=1/GPa)
#
#
# Indices 1 2 3 4 5 6 
#
# 1 0.030713 -0.023224 -0.003711 0.000000 0.000000 0.000000
# 2 -0.023224 0.030713 -0.003711 0.000000 0.000000 0.000000
# 3 -0.003711 -0.003711 0.017586 0.000000 0.000000 0.000000
# 4 0.000000 0.000000 0.000000 0.045001 0.000000 0.000000
# 5 0.000000 0.000000 0.000000 0.000000 0.045001 0.000000
# 6 0.000000 0.000000 0.000000 0.000000 0.000000 0.107873
#
#
# Mechanical properties :
#
#
# Convention : Reuss Voigt Hill
#
# Bulk Modulus (GPa) = 56.42692 61.33608 58.88150
# Shear Modulus (GPa) = 14.53130 18.26764 16.39947
#
# Velocity S-wave (km/s) = 2.91539 3.26878 3.09713
# Velocity P-wave (km/s) = 6.65862 7.07973 6.87240
#
# Compressibility (1/GPa) = 0.01772204
#
# Stress axis : x y z
#
# Youngs Moduli (GPa) = 32.55946 32.55946 56.86287
#
# Poissons Ratio (x) = 0.75615 0.21100
# Poissons Ratio (y) = 0.75615 0.21100
# Poissons Ratio (z) = 0.12082 0.12082
#
# Static dielectric constant tensor:
#      x y z
#    x 3.261310 0.000000 0.000000 
#    y 0.000000 3.261310 0.000000 
#    z 0.000000 0.000000 3.413740 
# 
# 
# High freq. dielectric constant tensor:
#      x y z
#    x 1.645660 0.000000 0.000000 
#    y 0.000000 1.645660 0.000000 
#    z 0.000000 0.000000 1.671220 
# 
# From -- ./inp_files/9849.got.cif
#   From: 2010.03.12/outbox.cif.g09.slc.cpg/sg191_5_cif.got.tgz:9849.got - 2010.04.01 12:09:02.
