data_PCOD8328256
_publ_section_title
;
Structure prediction by ZEFSAII (Michael W. Deem and Ramdas Pophale) SiO2 
 PCOD8328256
Probable space group: P 6/M M M
;
_chemical_formula_sum "Si O2"
_cell_formula_units_Z 120
_cell_length_a 21.342394
_cell_length_b 21.342394
_cell_length_c 25.728385
_cell_angle_alpha 90.000000
_cell_angle_beta 90.000000
_cell_angle_gamma 120.000000
_cell_volume 10149.144218
_symmetry_space_group_name_H-M "P 6/M M M"
_symmetry_group_IT_number 191
_symmetry_cell_setting 'hexagonal'
loop_
_space_group_symop_operation_xyz
x,y,z
x-y,x,z
-y,x-y,z
-x,-y,z
-x+y,-x,z
y,-x+y,z
x-y,-y,-z
-x,-x+y,-z
y,x,-z
-y,-x,-z
-x+y,y,-z
x,x-y,-z
-x,-y,-z
-x+y,-x,-z
y,-x+y,-z
x,y,-z
x-y,x,-z
-y,x-y,-z
-x+y,y,z
x,x-y,z
-y,-x,z
y,x,z
x-y,-y,z
-x,-x+y,z
loop_
_atom_site_type_symbol
_atom_site_label
_atom_site_fract_x
_atom_site_fract_y
_atom_site_fract_z
Si Si1 0.812463 0.479706 0.058265
Si Si2 0.465996 0.385275 0.558014
Si Si3 0.332928 0.815516 0.648839
Si Si4 0.081049 0.614815 0.260056
Si Si5 0.919654 0.534287 0.144467
O O1 0.735488 0.470976 0.069048
O O2 0.803212 0.401606 0.066567
O O3 0.867915 0.536657 0.100059
O O4 0.840553 0.508722 0.000000
O O5 0.453607 0.351777 0.500000
O O6 0.539673 0.460328 0.560047
O O7 0.401016 0.401016 0.572660
O O8 0.471180 0.330756 0.598425
O O9 0.402841 0.805681 0.649024
O O10 0.262857 0.737143 0.649094
O O11 0.330979 0.860475 0.698765
O O12 0.077855 0.538928 0.263541
O O13 0.105798 0.648245 0.202175
O O14 0.000000 0.600155 0.272279
O O15 0.920070 0.460035 0.140827
O O16 0.000000 0.600450 0.133857
#
# Coordination Sequence:
#
# PCOD8328256 Si02
#       5
#    24  24  24  24  24
#     4   9  16  24  33  45  62  83 103 122 149 190
#     4   8  14  25  39  50  58  74 104 134 153 175
#     4  10  18  25  33  47  67  86 101 121 155 197
#     4   8  14  25  38  47  56  75 103 130 153 180
#     4   8  14  24  36  48  59  72  96 130 161 184
#
# _framework density 11.823657000000001
#
# number of rings (size 3 to 8) (size 9 to 14) (size 15 to 20)
#    0.000    3.400    0.000    2.800    0.000    4.800 
#    0.000    2.000    0.000    3.600    0.000    0.000 
#    0.000    0.000    0.000    0.000    0.000    0.000 
#
# Total GULP energy -1486874.227500 kJ/mol
# GULP energy per Si atom -12390.618562 kJ/mol
# Density = 1.179675 g / cm^3
# Si number density = 11.823657 Si / 1000 Ang^3
#
#
#
# Elastic Constant Matrix: (Units=GPa)
#
#
# Indices 1 2 3 4 5 6 
#
# 1 39.0194 22.3180 41.2251 0.0000 0.0000 0.0000
# 2 22.3180 39.0194 41.2251 0.0000 0.0000 0.0000
# 3 41.2251 41.2251 109.6727 0.0000 0.0000 0.0000
# 4 0.0000 0.0000 0.0000 14.9166 0.0000 0.0000
# 5 0.0000 0.0000 0.0000 0.0000 14.9166 0.0000
# 6 0.0000 0.0000 0.0000 0.0000 0.0000 8.3507
#
#
#
# Elastic Compliance Matrix: (Units=1/GPa)
#
#
# Indices 1 2 3 4 5 6 
#
# 1 0.046415 -0.013460 -0.012387 0.000000 0.000000 0.000000
# 2 -0.013460 0.046415 -0.012387 0.000000 0.000000 0.000000
# 3 -0.012387 -0.012387 0.018431 0.000000 0.000000 0.000000
# 4 0.000000 0.000000 0.000000 0.067039 0.000000 0.000000
# 5 0.000000 0.000000 0.000000 0.000000 0.067039 0.000000
# 6 0.000000 0.000000 0.000000 0.000000 0.000000 0.119750
#
#
# Mechanical properties :
#
#
# Convention : Reuss Voigt Hill
#
# Bulk Modulus (GPa) = 28.74380 44.13865 36.44122
# Shear Modulus (GPa) = 11.03374 13.16635 12.10005
#
# Velocity S-wave (km/s) = 3.05813 3.34062 3.20250
# Velocity P-wave (km/s) = 6.06900 7.23129 6.67549
#
# Compressibility (1/GPa) = 0.03479011
#
# Stress axis : x y z
#
# Youngs Moduli (GPa) = 21.54490 21.54490 54.25770
#
# Poissons Ratio (x) = 0.29000 0.67210
# Poissons Ratio (y) = 0.29000 0.67210
# Poissons Ratio (z) = 0.26688 0.26688
#
# Static dielectric constant tensor:
#      x y z
#    x 2.253510 0.000000 0.000000 
#    y 0.000000 2.253510 0.000000 
#    z 0.000000 0.000000 2.857790 
# 
# 
# High freq. dielectric constant tensor:
#      x y z
#    x 1.407350 0.000000 0.000000 
#    y 0.000000 1.407350 0.000000 
#    z 0.000000 0.000000 1.469160 
# 
# From -- ./inp_files/10225.got.cif
#   From: 2010.03.12/outbox.cif.g09.slc.cpg/sg191_6_cif.got.tgz:10225.got - 2010.04.01 12:09:02.
