data_PCOD8328771
_publ_section_title
;
Structure prediction by ZEFSAII (Michael W. Deem and Ramdas Pophale) SiO2 
 PCOD8328771
Probable space group: P 6/M M M
;
_chemical_formula_sum "Si O2"
_cell_formula_units_Z 144
_cell_length_a 21.102829
_cell_length_b 21.102829
_cell_length_c 25.287929
_cell_angle_alpha 90.000000
_cell_angle_beta 90.000000
_cell_angle_gamma 120.000000
_cell_volume 9752.708748
_symmetry_space_group_name_H-M "P 6/M M M"
_symmetry_group_IT_number 191
_symmetry_cell_setting 'hexagonal'
loop_
_space_group_symop_operation_xyz
x,y,z
x-y,x,z
-y,x-y,z
-x,-y,z
-x+y,-x,z
y,-x+y,z
x-y,-y,-z
-x,-x+y,-z
y,x,-z
-y,-x,-z
-x+y,y,-z
x,x-y,-z
-x,-y,-z
-x+y,-x,-z
y,-x+y,-z
x,y,-z
x-y,x,-z
-y,x-y,-z
-x+y,y,z
x,x-y,z
-y,-x,z
y,x,z
x-y,-y,z
-x,-x+y,z
loop_
_atom_site_type_symbol
_atom_site_label
_atom_site_fract_x
_atom_site_fract_y
_atom_site_fract_z
Si Si1 0.841782 0.540685 0.060449
Si Si2 0.533776 0.918009 0.347767
Si Si3 0.813585 0.333295 0.560452
Si Si4 0.181684 0.515008 0.749929
Si Si5 0.708506 0.921344 0.062668
Si Si6 0.081664 0.469535 0.156131
O O1 0.754478 0.508956 0.066934
O O2 0.884824 0.624641 0.078418
O O3 0.874499 0.505532 0.100211
O O4 0.858847 0.529316 0.000000
O O5 0.462894 0.925787 0.345031
O O6 0.536299 0.881204 0.403159
O O7 0.530211 0.865153 0.300774
O O8 0.604655 0.000000 0.343349
O O9 0.836917 0.332961 0.500000
O O10 0.794523 0.397262 0.570438
O O11 0.742063 0.257938 0.575970
O O12 0.260174 0.520348 0.749264
O O13 0.194644 0.597322 0.751841
O O14 0.134702 0.465171 0.799925
O O15 0.740273 0.870137 0.082899
O O16 0.754954 0.000000 0.090188
O O17 0.714324 0.928149 0.000000
O O18 0.068537 0.534269 0.174355
O O19 0.000000 0.396608 0.152341
#
# Coordination Sequence:
#
# PCOD8328771 Si02
#       6
#    24  24  24  24  24  24
#     4   9  17  29  44  60  77  97 123 155 188 223
#     4   9  17  28  41  57  78 103 130 163 204 248
#     4   9  16  25  38  57  81 108 138 172 208 244
#     4  10  19  31  46  61  77  99 130 166 202 241
#     4   8  13  21  34  51  69  89 112 138 167 199
#     4  10  20  31  43  60  81 103 125 153 193 241
#
# _framework density 14.765128000000001
#
# number of rings (size 3 to 8) (size 9 to 14) (size 15 to 20)
#    0.000    2.833    0.000    3.333    0.000    4.333 
#    0.000    4.167    0.000    0.500    0.000    1.167 
#    0.000    0.000    0.000    0.000    0.000    0.000 
#
# Total GULP energy -1784097.214626 kJ/mol
# GULP energy per Si atom -12389.563990 kJ/mol
# Density = 1.473152 g / cm^3
# Si number density = 14.765128 Si / 1000 Ang^3
#
#
#
# Elastic Constant Matrix: (Units=GPa)
#
#
# Indices 1 2 3 4 5 6 
#
# 1 59.2476 28.2474 32.9038 0.0000 0.0000 0.0000
# 2 28.2474 59.2476 32.9038 0.0000 0.0000 0.0000
# 3 32.9038 32.9038 91.8925 0.0000 0.0000 0.0000
# 4 0.0000 0.0000 0.0000 18.5653 0.0000 0.0000
# 5 0.0000 0.0000 0.0000 0.0000 18.5653 0.0000
# 6 0.0000 0.0000 0.0000 0.0000 0.0000 15.5001
#
#
#
# Elastic Compliance Matrix: (Units=1/GPa)
#
#
# Indices 1 2 3 4 5 6 
#
# 1 0.023950 -0.008308 -0.005601 0.000000 0.000000 0.000000
# 2 -0.008308 0.023950 -0.005601 0.000000 0.000000 0.000000
# 3 -0.005601 -0.005601 0.014893 0.000000 0.000000 0.000000
# 4 0.000000 0.000000 0.000000 0.053864 0.000000 0.000000
# 5 0.000000 0.000000 0.000000 0.000000 0.053864 0.000000
# 6 0.000000 0.000000 0.000000 0.000000 0.000000 0.064516
#
#
# Mechanical properties :
#
#
# Convention : Reuss Voigt Hill
#
# Bulk Modulus (GPa) = 42.06369 44.27752 43.17060
# Shear Modulus (GPa) = 17.73174 18.28166 18.00670
#
# Velocity S-wave (km/s) = 3.46919 3.52257 3.49598
# Velocity P-wave (km/s) = 6.67813 6.82625 6.75260
#
# Compressibility (1/GPa) = 0.02377348
#
# Stress axis : x y z
#
# Youngs Moduli (GPa) = 41.75403 41.75403 67.14464
#
# Poissons Ratio (x) = 0.34689 0.37606
# Poissons Ratio (y) = 0.34689 0.37606
# Poissons Ratio (z) = 0.23386 0.23386
#
# Static dielectric constant tensor:
#      x y z
#    x 2.928360 0.000000 0.000000 
#    y 0.000000 2.928360 0.000000 
#    z 0.000000 0.000000 2.863110 
# 
# 
# High freq. dielectric constant tensor:
#      x y z
#    x 1.542200 0.000000 0.000000 
#    y 0.000000 1.542200 0.000000 
#    z 0.000000 0.000000 1.559880 
# 
# From -- ./inp_files/9919.got.cif
#   From: 2010.03.12/outbox.cif.g09.slc.cpg/sg191_5_cif.got.tgz:9919.got - 2010.04.01 12:09:02.
