data_PCOD8328336
_publ_section_title
;
Structure prediction by ZEFSAII (Michael W. Deem and Ramdas Pophale) SiO2 
 PCOD8328336
Probable space group: P 6/M M M
;
_chemical_formula_sum "Si O2"
_cell_formula_units_Z 108
_cell_length_a 17.983101
_cell_length_b 17.983101
_cell_length_c 23.179727
_cell_angle_alpha 90.000000
_cell_angle_beta 90.000000
_cell_angle_gamma 120.000000
_cell_volume 6491.844601
_symmetry_space_group_name_H-M "P 6/M M M"
_symmetry_group_IT_number 191
_symmetry_cell_setting 'hexagonal'
loop_
_space_group_symop_operation_xyz
x,y,z
x-y,x,z
-y,x-y,z
-x,-y,z
-x+y,-x,z
y,-x+y,z
x-y,-y,-z
-x,-x+y,-z
y,x,-z
-y,-x,-z
-x+y,y,-z
x,x-y,-z
-x,-y,-z
-x+y,-x,-z
y,-x+y,-z
x,y,-z
x-y,x,-z
-y,x-y,-z
-x+y,y,z
x,x-y,z
-y,-x,z
y,x,z
x-y,-y,z
-x,-x+y,z
loop_
_atom_site_type_symbol
_atom_site_label
_atom_site_fract_x
_atom_site_fract_y
_atom_site_fract_z
Si Si1 0.898739 0.266084 0.726674
Si Si2 0.366883 0.467294 0.380489
Si Si3 0.833371 0.502147 0.500000
Si Si4 0.468213 0.367491 0.834274
Si Si5 0.096832 0.737610 0.065587
O O1 0.838174 0.161827 0.728454
O O2 0.870991 0.298429 0.670454
O O3 0.871767 0.303416 0.780569
O O4 0.000000 0.294109 0.727253
O O5 0.428963 0.571038 0.372979
O O6 0.426493 0.426493 0.378521
O O7 0.315935 0.443236 0.441532
O O8 0.731455 0.462910 0.500000
O O9 0.858597 0.429299 0.500000
O O10 0.572082 0.427919 0.831078
O O11 0.428785 0.428785 0.832416
O O12 0.442068 0.314166 0.893822
O O13 0.160281 0.839720 0.074300
O O14 0.000000 0.715466 0.081592
O O15 0.100994 0.710251 0.000000
#
# Coordination Sequence:
#
# PCOD8328336 Si02
#       5
#    24  24  12  24  24
#     4  10  19  31  48  69  92 118 150 187 225 265
#     4   9  17  29  45  63  83 111 147 185 223 263
#     4  10  18  27  39  57  84 115 145 175 211 258
#     4   9  17  29  46  67  88 111 142 180 220 263
#     4   9  17  29  46  68  93 122 157 195 232 270
#
# _framework density 16.636258000000002
#
# number of rings (size 3 to 8) (size 9 to 14) (size 15 to 20)
#    0.000    2.667    0.000    2.444    0.000    4.444 
#    0.000    2.222    0.000    9.778    0.000    1.556 
#    0.000    5.333    0.000    0.222    0.000   23.111 
#
# Total GULP energy -1338273.372823 kJ/mol
# GULP energy per Si atom -12391.420119 kJ/mol
# Density = 1.659839 g / cm^3
# Si number density = 16.636258 Si / 1000 Ang^3
#
#
#
# Elastic Constant Matrix: (Units=GPa)
#
#
# Indices 1 2 3 4 5 6 
#
# 1 66.5772 50.0691 40.3466 0.0000 0.0000 0.0000
# 2 50.0691 66.5772 40.3466 0.0000 0.0000 0.0000
# 3 40.3466 40.3466 126.8434 0.0000 0.0000 0.0000
# 4 0.0000 0.0000 0.0000 48.7356 0.0000 0.0000
# 5 0.0000 0.0000 0.0000 0.0000 48.7356 0.0000
# 6 0.0000 0.0000 0.0000 0.0000 0.0000 8.2540
#
#
#
# Elastic Compliance Matrix: (Units=1/GPa)
#
#
# Indices 1 2 3 4 5 6 
#
# 1 0.035784 -0.024792 -0.003496 0.000000 0.000000 0.000000
# 2 -0.024792 0.035784 -0.003496 0.000000 0.000000 0.000000
# 3 -0.003496 -0.003496 0.010108 0.000000 0.000000 0.000000
# 4 0.000000 0.000000 0.000000 0.020519 0.000000 0.000000
# 5 0.000000 0.000000 0.000000 0.000000 0.020519 0.000000
# 6 0.000000 0.000000 0.000000 0.000000 0.000000 0.121153
#
#
# Mechanical properties :
#
#
# Convention : Reuss Voigt Hill
#
# Bulk Modulus (GPa) = 55.22994 57.94693 56.58843
# Shear Modulus (GPa) = 15.95042 29.76074 22.85558
#
# Velocity S-wave (km/s) = 3.09977 4.23414 3.71056
# Velocity P-wave (km/s) = 6.78837 7.66885 7.24200
#
# Compressibility (1/GPa) = 0.01810612
#
# Stress axis : x y z
#
# Youngs Moduli (GPa) = 27.94549 27.94549 98.93257
#
# Poissons Ratio (x) = 0.69284 0.34589
# Poissons Ratio (y) = 0.69284 0.34589
# Poissons Ratio (z) = 0.09770 0.09770
#
# Static dielectric constant tensor:
#      x y z
#    x 2.998940 0.000000 0.000000 
#    y 0.000000 2.998940 0.000000 
#    z 0.000000 0.000000 3.501990 
# 
# 
# High freq. dielectric constant tensor:
#      x y z
#    x 1.613240 0.000000 0.000000 
#    y 0.000000 1.613240 0.000000 
#    z 0.000000 0.000000 1.664580 
# 
# From -- ./inp_files/8344.got.cif
#   From: 2010.03.12/outbox.cif.g09.slc.cpg/sg191_5_cif.got.tgz:8344.got - 2010.04.01 12:09:02.
