data_PCOD8328104
_publ_section_title
;
Structure prediction by ZEFSAII (Michael W. Deem and Ramdas Pophale) SiO2 
 PCOD8328104
Probable space group: P -6 2 C
;
_chemical_formula_sum "Si O2"
_cell_formula_units_Z 84
_cell_length_a 16.878835
_cell_length_b 16.878835
_cell_length_c 16.736495
_cell_angle_alpha 90.000000
_cell_angle_beta 90.000000
_cell_angle_gamma 120.000000
_cell_volume 4129.334639
_symmetry_space_group_name_H-M "P -6 2 C"
_symmetry_group_IT_number 190
_symmetry_cell_setting 'hexagonal'
loop_
_space_group_symop_operation_xyz
x,y,z
-x+y,-x,1/2-z
-y,x-y,z
x,y,1/2-z
-x+y,-x,z
-y,x-y,1/2-z
x-y,-y,-z
-x,-x+y,-z
y,x,-z
y,x,1/2+z
x-y,-y,1/2+z
-x,-x+y,1/2+z
loop_
_atom_site_type_symbol
_atom_site_label
_atom_site_fract_x
_atom_site_fract_y
_atom_site_fract_z
Si Si1 0.474487 0.419507 0.656616
Si Si2 0.104862 0.207788 0.515996
Si Si3 0.144586 0.589966 0.660114
Si Si4 0.219484 0.477483 0.896498
Si Si5 0.410518 0.079847 0.655775
Si Si6 0.214758 0.920339 0.839257
Si Si7 0.769130 0.170249 0.562846
O O1 0.476279 0.393716 0.750000
O O2 0.405938 0.458763 0.642318
O O3 0.574548 0.500707 0.627852
O O4 0.434213 0.330215 0.600718
O O5 0.127892 0.127892 0.500000
O O6 0.106796 0.230613 0.609548
O O7 0.174750 0.293814 0.461031
O O8 0.000000 0.173758 0.500000
O O9 0.139689 0.553153 0.750000
O O10 0.233337 0.687931 0.648869
O O11 0.153718 0.521056 0.599471
O O12 0.172715 0.389746 0.840182
O O13 0.242446 0.460510 0.985180
O O14 0.404956 0.072624 0.750000
O O15 0.423878 0.176168 0.628251
O O16 0.311854 0.999357 0.622788
O O17 0.199336 0.945777 0.750000
#
# Coordination Sequence:
#
# PCOD8328104 Si02
#       7
#    12  12  12  12  12  12  12
#     4  10  23  42  66  96 130 174 221 271 334 401
#     4  11  24  44  67  97 132 174 219 284 353 407
#     4  11  22  40  63  90 126 171 219 272 327 389
#     4  11  24  37  60  91 127 169 213 270 331 389
#     4  10  20  42  71  92 124 175 221 267 322 399
#     4  10  20  41  68  96 125 169 226 269 328 414
#     4  11  25  41  63  97 134 165 220 271 340 401
#
# _framework density 20.342258999999999
#
# number of rings (size 3 to 8) (size 9 to 14) (size 15 to 20)
#    0.000    1.429    2.857    2.143    6.000    0.000 
#    0.857    1.429    0.000    0.000    0.000    0.000 
#    0.000    0.000    0.000    0.000    0.000    0.000 
#
# Total GULP energy -1040963.397555 kJ/mol
# GULP energy per Si atom -12392.421399 kJ/mol
# Density = 2.029596 g / cm^3
# Si number density = 20.342259 Si / 1000 Ang^3
#
#
#
# Elastic Constant Matrix: (Units=GPa)
#
#
# Indices 1 2 3 4 5 6 
#
# 1 110.3274 38.3108 52.0312 0.0000 0.0000 0.0000
# 2 38.3108 110.3274 52.0312 0.0000 0.0000 0.0000
# 3 52.0312 52.0312 70.4916 0.0000 0.0000 0.0000
# 4 0.0000 0.0000 0.0000 -164.7512 0.0000 0.0000
# 5 0.0000 0.0000 0.0000 0.0000 -164.7512 0.0000
# 6 0.0000 0.0000 0.0000 0.0000 0.0000 36.0083
#
#
#
# Elastic Compliance Matrix: (Units=1/GPa)
#
#
# Indices 1 2 3 4 5 6 
#
# 1 0.013904 0.000018 -0.010276 0.000000 0.000000 0.000000
# 2 0.000018 0.013904 -0.010276 0.000000 0.000000 0.000000
# 3 -0.010276 -0.010276 0.029356 0.000000 0.000000 0.000000
# 4 0.000000 0.000000 0.000000 -0.006070 0.000000 0.000000
# 5 0.000000 0.000000 0.000000 0.000000 -0.006070 0.000000
# 6 0.000000 0.000000 0.000000 0.000000 0.000000 0.027771
#
#
# Mechanical properties :
#
#
# Convention : Reuss Voigt Hill
#
# Bulk Modulus (GPa) = 62.12837 63.98805 63.05821
# Shear Modulus (GPa) = 41.93590 -48.78061 -3.42235
#
# Velocity S-wave (km/s) = 4.54532 -4.90224 -1.29848
# Velocity P-wave (km/s) = 7.62590 0.72017 5.36823
#
# Compressibility (1/GPa) = 0.01609571
#
# Stress axis : x y z
#
# Youngs Moduli (GPa) = 71.92209 71.92209 34.06432
#
# Poissons Ratio (x) = -0.00131 0.35005
# Poissons Ratio (y) = -0.00131 0.35005
# Poissons Ratio (z) = 0.73909 0.73909
#
# Static dielectric constant tensor:
#      x y z
#    x 3.690740 0.000000 0.000000 
#    y 0.000000 3.690740 0.000000 
#    z 0.000000 0.000000 4.137440 
# 
# 
# High freq. dielectric constant tensor:
#      x y z
#    x 1.796070 0.000000 0.000000 
#    y 0.000000 1.796070 0.000000 
#    z 0.000000 0.000000 1.789030 
# 
# From -- ./inp_files/3168.got.cif
#   From: 2010.06.25/outbox.cif.g09.slc.cpg/sg190_2_cif.got.tgz:3168.got - 2010.06.28 13:08:06.
