data_PCOD8328454
_publ_section_title
;
Structure prediction by ZEFSAII (Michael W. Deem and Ramdas Pophale) SiO2 
 PCOD8328454
Probable space group: P 6/M M M
;
_chemical_formula_sum "Si O2"
_cell_formula_units_Z 108
_cell_length_a 16.703388
_cell_length_b 16.703388
_cell_length_c 28.757851
_cell_angle_alpha 90.000000
_cell_angle_beta 90.000000
_cell_angle_gamma 120.000000
_cell_volume 6948.582203
_symmetry_space_group_name_H-M "P 6/M M M"
_symmetry_group_IT_number 191
_symmetry_cell_setting 'hexagonal'
loop_
_space_group_symop_operation_xyz
x,y,z
x-y,x,z
-y,x-y,z
-x,-y,z
-x+y,-x,z
y,-x+y,z
x-y,-y,-z
-x,-x+y,-z
y,x,-z
-y,-x,-z
-x+y,y,-z
x,x-y,-z
-x,-y,-z
-x+y,-x,-z
y,-x+y,-z
x,y,-z
x-y,x,-z
-y,x-y,-z
-x+y,y,z
x,x-y,z
-y,-x,z
y,x,z
x-y,-y,z
-x,-x+y,z
loop_
_atom_site_type_symbol
_atom_site_label
_atom_site_fract_x
_atom_site_fract_y
_atom_site_fract_z
Si Si1 0.404192 0.404192 0.120811
Si Si2 0.669485 0.518837 0.051258
Si Si3 0.109335 0.554668 0.447902
Si Si4 0.149632 0.480847 0.296902
Si Si5 0.594400 0.000000 0.224222
Si Si6 0.893909 0.606511 0.604941
O O1 0.500000 0.500000 0.123129
O O2 0.326812 0.414346 0.092259
O O3 0.366878 0.366878 0.172704
O O4 0.745076 0.490152 0.062596
O O5 0.571307 0.428694 0.051349
O O6 0.686082 0.566052 0.000000
O O7 0.150708 0.575354 0.500000
O O8 0.142207 0.651520 0.421885
O O9 0.000000 0.500000 0.449047
O O10 0.256309 0.512617 0.288208
O O11 0.139401 0.569701 0.306401
O O12 0.107938 0.412811 0.340493
O O13 0.091558 0.424355 0.251913
O O14 0.500000 0.000000 0.218834
O O15 0.821098 0.642196 0.593321
O O16 0.000000 0.683528 0.590901
#
# Coordination Sequence:
#
# PCOD8328454 Si02
#       6
#    12  24  12  24  12  24
#     4   9  17  28  39  56  80 108 141 174 220 260
#     4   9  16  26  41  59  80 108 141 176 211 254
#     4   9  18  32  50  72 100 130 158 192 236 286
#     4  10  18  29  45  64  85 113 150 187 225 270
#     4   9  18  29  42  57  80 112 139 181 224 257
#     4  10  19  32  51  71  96 129 163 200 241 289
#
# _framework density 15.542738999999999
#
# number of rings (size 3 to 8) (size 9 to 14) (size 15 to 20)
#    0.000    2.556    2.222    0.778    0.000    3.556 
#    0.667    0.000    0.000    2.889    0.000    0.000 
#    0.000    0.000    0.000    5.889    0.000    7.667 
#
# Total GULP energy -1338438.822581 kJ/mol
# GULP energy per Si atom -12392.952061 kJ/mol
# Density = 1.550736 g / cm^3
# Si number density = 15.542739 Si / 1000 Ang^3
#
#
#
# Elastic Constant Matrix: (Units=GPa)
#
#
# Indices 1 2 3 4 5 6 
#
# 1 57.1835 30.0026 22.6921 0.0000 0.0000 0.0000
# 2 30.0026 57.1835 22.6921 0.0000 0.0000 0.0000
# 3 22.6921 22.6921 109.3380 0.0000 0.0000 0.0000
# 4 0.0000 0.0000 0.0000 13.4481 0.0000 0.0000
# 5 0.0000 0.0000 0.0000 0.0000 13.4481 0.0000
# 6 0.0000 0.0000 0.0000 0.0000 0.0000 13.5905
#
#
#
# Elastic Compliance Matrix: (Units=1/GPa)
#
#
# Indices 1 2 3 4 5 6 
#
# 1 0.024825 -0.011966 -0.002669 0.000000 0.000000 0.000000
# 2 -0.011966 0.024825 -0.002669 0.000000 0.000000 0.000000
# 3 -0.002669 -0.002669 0.010254 0.000000 0.000000 0.000000
# 4 0.000000 0.000000 0.000000 0.074360 0.000000 0.000000
# 5 0.000000 0.000000 0.000000 0.000000 0.074360 0.000000
# 6 0.000000 0.000000 0.000000 0.000000 0.000000 0.073581
#
#
# Mechanical properties :
#
#
# Convention : Reuss Voigt Hill
#
# Bulk Modulus (GPa) = 39.53110 41.60874 40.56992
# Shear Modulus (GPa) = 15.37312 17.98520 16.67916
#
# Velocity S-wave (km/s) = 3.14839 3.40537 3.27940
# Velocity P-wave (km/s) = 6.22137 6.50313 6.36381
#
# Compressibility (1/GPa) = 0.02529654
#
# Stress axis : x y z
#
# Youngs Moduli (GPa) = 40.28242 40.28242 97.52576
#
# Poissons Ratio (x) = 0.48201 0.26027
# Poissons Ratio (y) = 0.48201 0.26027
# Poissons Ratio (z) = 0.10750 0.10750
#
# Static dielectric constant tensor:
#      x y z
#    x 2.824410 0.000000 0.000000 
#    y 0.000000 2.824410 0.000000 
#    z 0.000000 0.000000 3.329510 
# 
# 
# High freq. dielectric constant tensor:
#      x y z
#    x 1.566030 0.000000 0.000000 
#    y 0.000000 1.566030 0.000000 
#    z 0.000000 0.000000 1.607960 
# 
# From -- ./inp_files/9519.got.cif
#   From: 2010.03.12/outbox.cif.g09.slc.cpg/sg191_5_cif.got.tgz:9519.got - 2010.04.01 12:09:02.
