data_PCOD8328565
_publ_section_title
;
Structure prediction by ZEFSAII (Michael W. Deem and Ramdas Pophale) SiO2 
 PCOD8328565
Probable space group: P 6/M M M
;
_chemical_formula_sum "Si O2"
_cell_formula_units_Z 108
_cell_length_a 20.709494
_cell_length_b 20.709494
_cell_length_c 16.767404
_cell_angle_alpha 90.000000
_cell_angle_beta 90.000000
_cell_angle_gamma 120.000000
_cell_volume 6227.811166
_symmetry_space_group_name_H-M "P 6/M M M"
_symmetry_group_IT_number 191
_symmetry_cell_setting 'hexagonal'
loop_
_space_group_symop_operation_xyz
x,y,z
x-y,x,z
-y,x-y,z
-x,-y,z
-x+y,-x,z
y,-x+y,z
x-y,-y,-z
-x,-x+y,-z
y,x,-z
-y,-x,-z
-x+y,y,-z
x,x-y,-z
-x,-y,-z
-x+y,-x,-z
y,-x+y,-z
x,y,-z
x-y,x,-z
-y,x-y,-z
-x+y,y,z
x,x-y,z
-y,-x,z
y,x,z
x-y,-y,z
-x,-x+y,z
loop_
_atom_site_type_symbol
_atom_site_label
_atom_site_fract_x
_atom_site_fract_y
_atom_site_fract_z
Si Si1 0.541425 0.082849 0.132130
Si Si2 0.593477 0.683009 0.311830
Si Si3 0.856170 0.565630 0.865982
Si Si4 0.769683 0.084292 0.000000
Si Si5 0.916634 0.833268 0.594992
Si Si6 0.832520 0.665040 0.405522
Si Si7 0.918977 0.459489 0.319895
O O1 0.500610 0.128819 0.106894
O O2 0.535471 0.070941 0.225525
O O3 0.500000 0.000000 0.092200
O O4 0.639281 0.639281 0.312074
O O5 0.593928 0.712392 0.223694
O O6 0.626840 0.748984 0.374454
O O7 0.507275 0.628175 0.341842
O O8 0.767950 0.535899 0.875147
O O9 0.903622 0.636179 0.921854
O O10 0.858735 0.141266 0.000000
O O11 0.754553 0.000000 0.000000
O O12 0.874496 0.874496 0.629566
O O13 0.917801 0.835602 0.500000
O O14 0.874640 0.749280 0.626387
O O15 0.830451 0.660901 0.500000
O O16 0.000000 0.500000 0.361273
#
# Coordination Sequence:
#
# PCOD8328565 Si02
#       7
#    12  24  24  12  12  12  12
#     4   9  16  29  50  73 103 138 175 207 248 301
#     4  10  18  33  54  73 100 133 169 211 259 312
#     4  10  19  33  51  78 108 139 176 217 256 301
#     4  10  20  33  53  80 111 139 175 221 263 305
#     4   9  17  30  47  68  95 127 160 193 242 313
#     4  11  22  33  48  74 103 128 162 216 270 316
#     4   7  14  28  50  73  91 122 163 203 240 291
#
# _framework density 17.341567000000001
#
# number of rings (size 3 to 8) (size 9 to 14) (size 15 to 20)
#    0.000    2.444    1.111    4.111    0.000    2.222 
#    0.667    1.667    0.000    2.556    0.000    0.000 
#    0.000    0.000    0.000    0.000    0.000    0.000 
#
# Total GULP energy -1338408.882212 kJ/mol
# GULP energy per Si atom -12392.674835 kJ/mol
# Density = 1.730210 g / cm^3
# Si number density = 17.341567 Si / 1000 Ang^3
#
#
#
# Elastic Constant Matrix: (Units=GPa)
#
#
# Indices 1 2 3 4 5 6 
#
# 1 141.8432 81.8732 32.6560 0.0000 0.0000 0.0000
# 2 81.8732 141.8432 32.6560 0.0000 0.0000 0.0000
# 3 32.6560 32.6560 55.7702 0.0000 0.0000 0.0000
# 4 0.0000 0.0000 0.0000 18.3920 0.0000 0.0000
# 5 0.0000 0.0000 0.0000 0.0000 18.3920 0.0000
# 6 0.0000 0.0000 0.0000 0.0000 0.0000 29.9850
#
#
#
# Elastic Compliance Matrix: (Units=1/GPa)
#
#
# Indices 1 2 3 4 5 6 
#
# 1 0.011033 -0.005642 -0.003157 0.000000 0.000000 0.000000
# 2 -0.005642 0.011033 -0.003157 0.000000 0.000000 0.000000
# 3 -0.003157 -0.003157 0.021628 0.000000 0.000000 0.000000
# 4 0.000000 0.000000 0.000000 0.054371 0.000000 0.000000
# 5 0.000000 0.000000 0.000000 0.000000 0.054371 0.000000
# 6 0.000000 0.000000 0.000000 0.000000 0.000000 0.033350
#
#
# Mechanical properties :
#
#
# Convention : Reuss Voigt Hill
#
# Bulk Modulus (GPa) = 50.54852 70.42524 60.48688
# Shear Modulus (GPa) = 23.11677 26.17190 24.64433
#
# Velocity S-wave (km/s) = 3.65502 3.88906 3.77386
# Velocity P-wave (km/s) = 6.85743 7.80161 7.34471
#
# Compressibility (1/GPa) = 0.01978297
#
# Stress axis : x y z
#
# Youngs Moduli (GPa) = 90.63465 90.63465 46.23662
#
# Poissons Ratio (x) = 0.51133 0.14597
# Poissons Ratio (y) = 0.51133 0.14597
# Poissons Ratio (z) = 0.28614 0.28614
#
# Static dielectric constant tensor:
#      x y z
#    x 3.432880 0.000000 0.000000 
#    y 0.000000 3.432880 0.000000 
#    z 0.000000 0.000000 2.957500 
# 
# 
# High freq. dielectric constant tensor:
#      x y z
#    x 1.669910 0.000000 0.000000 
#    y 0.000000 1.669910 0.000000 
#    z 0.000000 0.000000 1.645340 
# 
# From -- ./inp_files/6214.got.cif
#   From: 2010.03.12/outbox.cif.g09.slc.cpg/sg191_4_cif.got.tgz:6214.got - 2010.04.01 12:09:02.
