data_PCOD8328995
_publ_section_title
;
Structure prediction by ZEFSAII (Michael W. Deem and Ramdas Pophale) SiO2 
 PCOD8328995
Probable space group: P 6/M M M
;
_chemical_formula_sum "Si O2"
_cell_formula_units_Z 84
_cell_length_a 18.274549
_cell_length_b 18.274549
_cell_length_c 17.592638
_cell_angle_alpha 90.000000
_cell_angle_beta 90.000000
_cell_angle_gamma 120.000000
_cell_volume 5088.091745
_symmetry_space_group_name_H-M "P 6/M M M"
_symmetry_group_IT_number 191
_symmetry_cell_setting 'hexagonal'
loop_
_space_group_symop_operation_xyz
x,y,z
x-y,x,z
-y,x-y,z
-x,-y,z
-x+y,-x,z
y,-x+y,z
x-y,-y,-z
-x,-x+y,-z
y,x,-z
-y,-x,-z
-x+y,y,-z
x,x-y,-z
-x,-y,-z
-x+y,-x,-z
y,-x+y,-z
x,y,-z
x-y,x,-z
-y,x-y,-z
-x+y,y,z
x,x-y,z
-y,-x,z
y,x,z
x-y,-y,z
-x,-x+y,z
loop_
_atom_site_type_symbol
_atom_site_label
_atom_site_fract_x
_atom_site_fract_y
_atom_site_fract_z
Si Si1 0.745339 0.095018 0.204096
Si Si2 0.668322 0.504593 0.500000
Si Si3 0.738838 0.643586 0.377432
Si Si4 0.530912 0.631102 0.084308
O O1 0.846571 0.153430 0.196249
O O2 0.716709 0.099672 0.289603
O O3 0.702858 0.133246 0.148377
O O4 0.720932 0.000000 0.181686
O O5 0.575347 0.424654 0.500000
O O6 0.736914 0.473828 0.500000
O O7 0.679147 0.560398 0.425707
O O8 0.837863 0.675726 0.395293
O O9 0.718358 0.718358 0.397601
O O10 0.431401 0.568600 0.100582
O O11 0.577553 0.577553 0.088427
O O12 0.542827 0.671582 0.000000
#
# Coordination Sequence:
#
# PCOD8328995 Si02
#       4
#    24  12  24  24
#     4   9  17  29  45  65  89 117 149 184 221 261
#     4  10  20  33  48  67  92 120 147 174 208 253
#     4   9  18  31  46  65  89 117 148 183 223 262
#     4   8  14  25  41  61  84 109 138 174 216 259
#
# _framework density 16.509136999999999
#
# number of rings (size 3 to 8) (size 9 to 14) (size 15 to 20)
#    0.000    3.143    0.000    1.429    0.000    2.857 
#    0.000    2.857    0.000    1.143    0.000    4.000 
#    0.000    3.429    0.000    7.429    0.000    7.429 
#
# Total GULP energy -1040913.807162 kJ/mol
# GULP energy per Si atom -12391.831038 kJ/mol
# Density = 1.647156 g / cm^3
# Si number density = 16.509137 Si / 1000 Ang^3
#
#
#
# Elastic Constant Matrix: (Units=GPa)
#
#
# Indices 1 2 3 4 5 6 
#
# 1 96.0126 62.5133 50.7733 0.0000 0.0000 0.0000
# 2 62.5133 96.0126 50.7733 0.0000 0.0000 0.0000
# 3 50.7733 50.7733 94.1779 0.0000 0.0000 0.0000
# 4 0.0000 0.0000 0.0000 21.3121 0.0000 0.0000
# 5 0.0000 0.0000 0.0000 0.0000 21.3121 0.0000
# 6 0.0000 0.0000 0.0000 0.0000 0.0000 16.7496
#
#
#
# Elastic Compliance Matrix: (Units=1/GPa)
#
#
# Indices 1 2 3 4 5 6 
#
# 1 0.019744 -0.010108 -0.005195 0.000000 0.000000 0.000000
# 2 -0.010108 0.019744 -0.005195 0.000000 0.000000 0.000000
# 3 -0.005195 -0.005195 0.016220 0.000000 0.000000 0.000000
# 4 0.000000 0.000000 0.000000 0.046922 0.000000 0.000000
# 5 0.000000 0.000000 0.000000 0.000000 0.046922 0.000000
# 6 0.000000 0.000000 0.000000 0.000000 0.000000 0.059703
#
#
# Mechanical properties :
#
#
# Convention : Reuss Voigt Hill
#
# Bulk Modulus (GPa) = 67.97329 68.25808 68.11569
# Shear Modulus (GPa) = 19.59617 20.01763 19.80690
#
# Velocity S-wave (km/s) = 3.44901 3.48590 3.46750
# Velocity P-wave (km/s) = 7.55800 7.59193 7.57499
#
# Compressibility (1/GPa) = 0.01471166
#
# Stress axis : x y z
#
# Youngs Moduli (GPa) = 50.64937 50.64937 61.65415
#
# Poissons Ratio (x) = 0.51195 0.32028
# Poissons Ratio (y) = 0.51195 0.32028
# Poissons Ratio (z) = 0.26312 0.26312
#
# Static dielectric constant tensor:
#      x y z
#    x 3.059910 0.000000 0.000000 
#    y 0.000000 3.059910 0.000000 
#    z 0.000000 0.000000 3.385420 
# 
# 
# High freq. dielectric constant tensor:
#      x y z
#    x 1.613960 0.000000 0.000000 
#    y 0.000000 1.613960 0.000000 
#    z 0.000000 0.000000 1.651340 
# 
# From -- ./inp_files/3994.got.cif
#   From: 2010.03.12/outbox.cif.g09.slc.cpg/sg191_2_cif.got.tgz:3994.got - 2010.04.01 12:09:02.
