data_PCOD8328350
_publ_section_title
;
Structure prediction by ZEFSAII (Michael W. Deem and Ramdas Pophale) SiO2 
 PCOD8328350
Probable space group: P 6/M M M
;
_chemical_formula_sum "Si O2"
_cell_formula_units_Z 180
_cell_length_a 21.815289
_cell_length_b 21.815289
_cell_length_c 27.991709
_cell_angle_alpha 90.000000
_cell_angle_beta 90.000000
_cell_angle_gamma 120.000000
_cell_volume 11536.710316
_symmetry_space_group_name_H-M "P 6/M M M"
_symmetry_group_IT_number 191
_symmetry_cell_setting 'hexagonal'
loop_
_space_group_symop_operation_xyz
x,y,z
x-y,x,z
-y,x-y,z
-x,-y,z
-x+y,-x,z
y,-x+y,z
x-y,-y,-z
-x,-x+y,-z
y,x,-z
-y,-x,-z
-x+y,y,-z
x,x-y,-z
-x,-y,-z
-x+y,-x,-z
y,-x+y,-z
x,y,-z
x-y,x,-z
-y,x-y,-z
-x+y,y,z
x,x-y,z
-y,-x,z
y,x,z
x-y,-y,z
-x,-x+y,z
loop_
_atom_site_type_symbol
_atom_site_label
_atom_site_fract_x
_atom_site_fract_y
_atom_site_fract_z
Si Si1 0.349508 0.919295 0.053832
Si Si2 0.611747 0.079184 0.312505
Si Si3 0.079134 0.466769 0.581097
Si Si4 0.078471 0.293360 0.919852
Si Si5 0.813546 0.333456 0.500000
Si Si6 0.786533 0.078281 0.808400
Si Si7 0.848291 0.554812 0.225566
Si Si8 0.664939 0.190274 0.131169
O O1 0.269716 0.905246 0.053331
O O2 0.356648 0.864529 0.087707
O O3 0.403206 0.000000 0.070773
O O4 0.367986 0.907733 0.000000
O O5 0.542454 0.084907 0.313138
O O6 0.645827 0.097582 0.365609
O O7 0.663587 0.134533 0.274232
O O8 0.592737 0.000000 0.298087
O O9 0.077300 0.538650 0.580269
O O10 0.140541 0.474660 0.545573
O O11 0.000000 0.403802 0.566152
O O12 0.135253 0.270505 0.935971
O O13 0.085018 0.311250 0.863949
O O14 0.000000 0.229170 0.932612
O O15 0.738101 0.261900 0.500000
O O16 0.800692 0.400346 0.500000
O O17 0.867985 0.132015 0.794471
O O18 0.734178 0.096544 0.780154
O O19 0.769766 0.000000 0.794372
O O20 0.769210 0.538419 0.230930
O O21 0.851528 0.511807 0.179810
O O22 0.608556 0.217112 0.133948
O O23 0.742986 0.257015 0.122766
#
# Coordination Sequence:
#
# PCOD8328350 Si02
#       8
#    24  24  24  24  12  24  24  24
#     4  10  21  36  54  74  92 110 137 180 229 268
#     4   9  17  29  45  65  87 111 143 183 223 262
#     4   8  15  28  44  60  80 111 149 183 216 259
#     4   9  16  28  46  67  90 114 141 171 206 250
#     4  10  18  27  41  61  86 113 144 184 229 270
#     4   9  16  27  44  65  88 113 142 174 209 252
#     4  10  19  30  46  67  90 116 145 180 218 257
#     4  11  23  38  53  69  91 121 153 180 210 257
#
# _framework density 15.602368999999999
#
# number of rings (size 3 to 8) (size 9 to 14) (size 15 to 20)
#    0.000    2.533    1.333    2.400    0.000    3.467 
#    0.000    0.667    0.000    1.333    0.000    1.867 
#    0.000    0.000    0.000    3.333    0.000    3.467 
#
# Total GULP energy -2231302.553725 kJ/mol
# GULP energy per Si atom -12396.125298 kJ/mol
# Density = 1.556686 g / cm^3
# Si number density = 15.602369 Si / 1000 Ang^3
#
#
#
# Elastic Constant Matrix: (Units=GPa)
#
#
# Indices 1 2 3 4 5 6 
#
# 1 65.3581 29.3987 38.6790 0.0000 0.0000 0.0000
# 2 29.3987 65.3581 38.6790 0.0000 0.0000 0.0000
# 3 38.6790 38.6790 91.9326 0.0000 0.0000 0.0000
# 4 0.0000 0.0000 0.0000 18.9284 0.0000 0.0000
# 5 0.0000 0.0000 0.0000 0.0000 18.9284 0.0000
# 6 0.0000 0.0000 0.0000 0.0000 0.0000 17.9797
#
#
#
# Elastic Compliance Matrix: (Units=1/GPa)
#
#
# Indices 1 2 3 4 5 6 
#
# 1 0.021942 -0.005867 -0.006763 0.000000 0.000000 0.000000
# 2 -0.005867 0.021942 -0.006763 0.000000 0.000000 0.000000
# 3 -0.006763 -0.006763 0.016568 0.000000 0.000000 0.000000
# 4 0.000000 0.000000 0.000000 0.052831 0.000000 0.000000
# 5 0.000000 0.000000 0.000000 0.000000 0.052831 0.000000
# 6 0.000000 0.000000 0.000000 0.000000 0.000000 0.055618
#
#
# Mechanical properties :
#
#
# Convention : Reuss Voigt Hill
#
# Bulk Modulus (GPa) = 46.15685 48.46248 47.30966
# Shear Modulus (GPa) = 18.67480 18.89344 18.78412
#
# Velocity S-wave (km/s) = 3.46341 3.48362 3.47353
# Velocity P-wave (km/s) = 6.75582 6.87817 6.81727
#
# Compressibility (1/GPa) = 0.02166526
#
# Stress axis : x y z
#
# Youngs Moduli (GPa) = 45.57497 45.57497 60.35561
#
# Poissons Ratio (x) = 0.26740 0.40819
# Poissons Ratio (y) = 0.26740 0.40819
# Poissons Ratio (z) = 0.30823 0.30823
#
# Static dielectric constant tensor:
#      x y z
#    x 2.900430 0.000000 0.000000 
#    y 0.000000 2.900430 0.000000 
#    z 0.000000 0.000000 3.207980 
# 
# 
# High freq. dielectric constant tensor:
#      x y z
#    x 1.583200 0.000000 0.000000 
#    y 0.000000 1.583200 0.000000 
#    z 0.000000 0.000000 1.593370 
# 
# From -- ./inp_files/10852.got.cif
#   From: 2010.03.12/outbox.cif.g09.slc.cpg/sg191_6_cif.got.tgz:10852.got - 2010.04.01 12:09:02.
