data_PCOD8328442
_publ_section_title
;
Structure prediction by ZEFSAII (Michael W. Deem and Ramdas Pophale) SiO2 
 PCOD8328442
Probable space group: P 6/M M M
;
_chemical_formula_sum "Si O2"
_cell_formula_units_Z 180
_cell_length_a 21.385294
_cell_length_b 21.385294
_cell_length_c 28.510604
_cell_angle_alpha 90.000000
_cell_angle_beta 90.000000
_cell_angle_gamma 120.000000
_cell_volume 11291.912394
_symmetry_space_group_name_H-M "P 6/M M M"
_symmetry_group_IT_number 191
_symmetry_cell_setting 'hexagonal'
loop_
_space_group_symop_operation_xyz
x,y,z
x-y,x,z
-y,x-y,z
-x,-y,z
-x+y,-x,z
y,-x+y,z
x-y,-y,-z
-x,-x+y,-z
y,x,-z
-y,-x,-z
-x+y,y,-z
x,x-y,-z
-x,-y,-z
-x+y,-x,-z
y,-x+y,-z
x,y,-z
x-y,x,-z
-y,x-y,-z
-x+y,y,z
x,x-y,z
-y,-x,z
y,x,z
x-y,-y,z
-x,-x+y,z
loop_
_atom_site_type_symbol
_atom_site_label
_atom_site_fract_x
_atom_site_fract_y
_atom_site_fract_z
Si Si1 0.698835 0.154475 0.232906
Si Si2 0.532637 0.614866 0.586392
Si Si3 0.664473 0.474679 0.139650
Si Si4 0.182403 0.665927 0.500000
Si Si5 0.185500 0.665125 0.669605
Si Si6 0.442538 0.147291 0.948542
Si Si7 0.300132 0.080505 0.205203
Si Si8 0.295759 0.216786 0.097206
O O1 0.765479 0.234522 0.229949
O O2 0.650800 0.140932 0.186110
O O3 0.654113 0.149075 0.279308
O O4 0.726517 0.096938 0.235292
O O5 0.462938 0.537063 0.584390
O O6 0.602308 0.602308 0.584038
O O7 0.529079 0.662693 0.544008
O O8 0.532948 0.656541 0.633590
O O9 0.745853 0.491706 0.139240
O O10 0.610601 0.389400 0.140465
O O11 0.650055 0.507015 0.092021
O O12 0.259028 0.740973 0.500000
O O13 0.198483 0.599242 0.500000
O O14 0.206912 0.603456 0.661412
O O15 0.257112 0.742889 0.663053
O O16 0.453443 0.226722 0.949779
O O17 0.360169 0.089793 0.936392
O O18 0.461438 0.128544 0.000000
O O19 0.272503 0.136252 0.218457
O O20 0.323756 0.090048 0.150773
O O21 0.235898 0.000000 0.216632
O O22 0.268144 0.134072 0.084359
O O23 0.227938 0.227938 0.089163
#
# Coordination Sequence:
#
# PCOD8328442 Si02
#       8
#    24  24  24  12  24  24  24  24
#     4   9  17  29  44  63  87 117 150 184 221 265
#     4   9  18  31  45  62  87 121 157 190 229 279
#     4  10  18  29  44  62  84 109 141 179 223 271
#     4  10  18  29  47  69  92 117 150 194 241 284
#     4  10  19  30  45  66  93 122 156 198 245 289
#     4   9  17  29  44  61  82 109 140 174 211 253
#     4   9  16  28  47  68  88 111 141 176 212 253
#     4   9  16  28  47  68  87 107 134 167 202 243
#
# _framework density 15.940612
#
# number of rings (size 3 to 8) (size 9 to 14) (size 15 to 20)
#    0.000    2.667    1.333    1.333    0.000    1.867 
#    0.000    2.667    0.000    3.467    0.000    2.800 
#    0.000    0.000    0.000    3.333    0.000    3.467 
#
# Total GULP energy -2230590.272594 kJ/mol
# GULP energy per Si atom -12392.168181 kJ/mol
# Density = 1.590433 g / cm^3
# Si number density = 15.940612 Si / 1000 Ang^3
#
#
#
# Elastic Constant Matrix: (Units=GPa)
#
#
# Indices 1 2 3 4 5 6 
#
# 1 67.2503 36.2703 41.6240 0.0000 0.0000 0.0000
# 2 36.2703 67.2503 41.6240 0.0000 0.0000 0.0000
# 3 41.6240 41.6240 107.4916 0.0000 0.0000 0.0000
# 4 0.0000 0.0000 0.0000 16.6397 0.0000 0.0000
# 5 0.0000 0.0000 0.0000 0.0000 16.6397 0.0000
# 6 0.0000 0.0000 0.0000 0.0000 0.0000 15.4900
#
#
#
# Elastic Compliance Matrix: (Units=1/GPa)
#
#
# Indices 1 2 3 4 5 6 
#
# 1 0.023154 -0.009125 -0.005432 0.000000 0.000000 0.000000
# 2 -0.009125 0.023154 -0.005432 0.000000 0.000000 0.000000
# 3 -0.005432 -0.005432 0.013510 0.000000 0.000000 0.000000
# 4 0.000000 0.000000 0.000000 0.060097 0.000000 0.000000
# 5 0.000000 0.000000 0.000000 0.000000 0.060097 0.000000
# 6 0.000000 0.000000 0.000000 0.000000 0.000000 0.064558
#
#
# Mechanical properties :
#
#
# Convention : Reuss Voigt Hill
#
# Bulk Modulus (GPa) = 50.40845 53.44763 51.92804
# Shear Modulus (GPa) = 17.17258 17.91879 17.54568
#
# Velocity S-wave (km/s) = 3.28576 3.35639 3.32127
# Velocity P-wave (km/s) = 6.78869 6.97298 6.88145
#
# Compressibility (1/GPa) = 0.01983794
#
# Stress axis : x y z
#
# Youngs Moduli (GPa) = 43.18982 43.18982 74.01883
#
# Poissons Ratio (x) = 0.39412 0.40208
# Poissons Ratio (y) = 0.39412 0.40208
# Poissons Ratio (z) = 0.23462 0.23462
#
# Static dielectric constant tensor:
#      x y z
#    x 2.828200 0.000000 0.000000 
#    y 0.000000 2.828200 0.000000 
#    z 0.000000 0.000000 3.292310 
# 
# 
# High freq. dielectric constant tensor:
#      x y z
#    x 1.584900 0.000000 0.000000 
#    y 0.000000 1.584900 0.000000 
#    z 0.000000 0.000000 1.615300 
# 
# From -- ./inp_files/10875.got.cif
#   From: 2010.03.12/outbox.cif.g09.slc.cpg/sg191_6_cif.got.tgz:10875.got - 2010.04.01 12:09:02.
