data_PCOD8328510
_publ_section_title
;
Structure prediction by ZEFSAII (Michael W. Deem and Ramdas Pophale) SiO2 
 PCOD8328510
Probable space group: P 6/M M M
;
_chemical_formula_sum "Si O2"
_cell_formula_units_Z 52
_cell_length_a 23.380966
_cell_length_b 23.380966
_cell_length_c 9.392063
_cell_angle_alpha 90.000000
_cell_angle_beta 90.000000
_cell_angle_gamma 120.000000
_cell_volume 4446.481907
_symmetry_space_group_name_H-M "P 6/M M M"
_symmetry_group_IT_number 191
_symmetry_cell_setting 'hexagonal'
loop_
_space_group_symop_operation_xyz
x,y,z
x-y,x,z
-y,x-y,z
-x,-y,z
-x+y,-x,z
y,-x+y,z
x-y,-y,-z
-x,-x+y,-z
y,x,-z
-y,-x,-z
-x+y,y,-z
x,x-y,-z
-x,-y,-z
-x+y,-x,-z
y,-x+y,-z
x,y,-z
x-y,x,-z
-y,x-y,-z
-x+y,y,z
x,x-y,z
-y,-x,z
y,x,z
x-y,-y,z
-x,-x+y,z
loop_
_atom_site_type_symbol
_atom_site_label
_atom_site_fract_x
_atom_site_fract_y
_atom_site_fract_z
Si Si1 0.495788 0.123578 0.162043
Si Si2 0.267176 0.732825 0.837364
Si Si3 0.666668 0.333334 0.669358
Si Si4 0.568082 0.568082 0.660847
O O1 0.570349 0.140697 0.198767
O O2 0.490098 0.188702 0.188273
O O3 0.441927 0.065722 0.261487
O O4 0.478532 0.098960 0.000000
O O5 0.296247 0.703754 0.724512
O O6 0.281156 0.718845 0.000000
O O7 0.666667 0.333334 0.500000
O O8 0.500000 0.500000 0.668879
O O9 0.590929 0.590929 0.500000
#
# Coordination Sequence:
#
# PCOD8328510 Si02
#       4
#    24  12   4  12
#     4   9  16  26  41  53  64  84 112 137 162 198
#     4  10  18  30  42  52  67  89 112 138 168 205
#     4  12  22  26  34  51  73  92 106 132 169 212
#     4   9  17  27  37  49  69  87 105 133 165 198
#
# _framework density 11.694637999999999
#
# number of rings (size 3 to 8) (size 9 to 14) (size 15 to 20)
#    0.000    2.538    2.308    1.385    0.000    4.615 
#    0.000    0.000    0.000    0.000    0.000    0.000 
#    0.000    0.000    0.000    0.000    0.000    0.000 
#
# Total GULP energy -644710.655815 kJ/mol
# GULP energy per Si atom -12398.281843 kJ/mol
# Density = 1.166802 g / cm^3
# Si number density = 11.694638 Si / 1000 Ang^3
#
#
#
# Elastic Constant Matrix: (Units=GPa)
#
#
# Indices 1 2 3 4 5 6 
#
# 1 60.2239 33.9654 40.5814 0.0001 0.0000 0.0000
# 2 33.9654 60.2241 40.5815 0.0000 0.0000 0.0000
# 3 40.5814 40.5815 88.5242 0.0002 0.0000 0.0000
# 4 0.0001 0.0000 0.0002 9.3839 0.0000 0.0000
# 5 0.0000 0.0000 0.0000 0.0000 9.3838 0.0000
# 6 0.0000 0.0000 0.0000 0.0000 0.0000 13.1293
#
#
#
# Elastic Compliance Matrix: (Units=1/GPa)
#
#
# Indices 1 2 3 4 5 6 
#
# 1 0.027816 -0.010267 -0.008045 0.000000 0.000000 0.000000
# 2 -0.010267 0.027816 -0.008045 0.000000 0.000000 0.000000
# 3 -0.008045 -0.008045 0.018672 0.000000 0.000000 0.000000
# 4 0.000000 0.000000 0.000000 0.106566 0.000000 0.000000
# 5 0.000000 0.000000 0.000000 0.000000 0.106566 0.000000
# 6 0.000000 0.000000 0.000000 0.000000 0.000000 0.076166
#
#
# Mechanical properties :
#
#
# Convention : Reuss Voigt Hill
#
# Bulk Modulus (GPa) = 46.31567 48.80319 47.55943
# Shear Modulus (GPa) = 11.80604 12.63567 12.22085
#
# Velocity S-wave (km/s) = 3.18075 3.29061 3.23615
# Velocity P-wave (km/s) = 7.29244 7.50062 7.39727
#
# Compressibility (1/GPa) = 0.02159096
#
# Stress axis : x y z
#
# Youngs Moduli (GPa) = 35.95044 35.95059 53.55522
#
# Poissons Ratio (x) = 0.36910 0.43085
# Poissons Ratio (y) = 0.36910 0.43085
# Poissons Ratio (z) = 0.28922 0.28922
#
# Static dielectric constant tensor:
#      x y z
#    x 2.272290 0.000000 0.000000 
#    y 0.000000 2.272280 0.000000 
#    z 0.000000 0.000000 2.531310 
# 
# 
# High freq. dielectric constant tensor:
#      x y z
#    x 1.408720 0.000000 0.000000 
#    y 0.000000 1.408720 0.000000 
#    z 0.000000 0.000000 1.451780 
# 
# From -- ./inp_files/751.got.cif
#   From: 2010.03.12/outbox.cif.g09.slc.cpg/sg191_1_cif.got.tgz:751.got - 2010.04.01 12:09:02.
