data_PCOD8328660
_publ_section_title
;
Structure prediction by ZEFSAII (Michael W. Deem and Ramdas Pophale) SiO2 
 PCOD8328660
Probable space group: P 6/M M M
;
_chemical_formula_sum "Si O2"
_cell_formula_units_Z 120
_cell_length_a 18.234626
_cell_length_b 18.234626
_cell_length_c 27.624468
_cell_angle_alpha 90.000000
_cell_angle_beta 90.000000
_cell_angle_gamma 120.000000
_cell_volume 7954.598703
_symmetry_space_group_name_H-M "P 6/M M M"
_symmetry_group_IT_number 191
_symmetry_cell_setting 'hexagonal'
loop_
_space_group_symop_operation_xyz
x,y,z
x-y,x,z
-y,x-y,z
-x,-y,z
-x+y,-x,z
y,-x+y,z
x-y,-y,-z
-x,-x+y,-z
y,x,-z
-y,-x,-z
-x+y,y,-z
x,x-y,-z
-x,-y,-z
-x+y,-x,-z
y,-x+y,-z
x,y,-z
x-y,x,-z
-y,x-y,-z
-x+y,y,z
x,x-y,z
-y,-x,z
y,x,z
x-y,-y,z
-x,-x+y,z
loop_
_atom_site_type_symbol
_atom_site_label
_atom_site_fract_x
_atom_site_fract_y
_atom_site_fract_z
Si Si1 0.168800 0.668507 0.221810
Si Si2 0.096412 0.733370 0.500000
Si Si3 0.412949 0.412949 0.945480
Si Si4 0.669117 0.167569 0.580634
Si Si5 0.838175 0.331489 0.114640
Si Si6 0.093548 0.633746 0.318838
O O1 0.147249 0.573625 0.225828
O O2 0.269337 0.730664 0.224891
O O3 0.136245 0.680124 0.169443
O O4 0.124956 0.685775 0.268072
O O5 0.165504 0.834497 0.500000
O O6 0.107558 0.687762 0.453102
O O7 0.000000 0.716717 0.500000
O O8 0.500000 0.500000 0.944993
O O9 0.427601 0.342549 0.919070
O O10 0.381973 0.381973 0.000000
O O11 0.573820 0.147639 0.571400
O O12 0.734326 0.265675 0.568373
O O13 0.685363 0.151934 0.636095
O O14 0.823268 0.411634 0.111573
O O15 0.751809 0.248191 0.097833
O O16 0.094206 0.547103 0.313763
O O17 0.000000 0.616946 0.329228
#
# Coordination Sequence:
#
# PCOD8328660 Si02
#       6
#    24  12  12  24  24  24
#     4   9  16  25  38  55  75  99 129 168 213 259
#     4  10  21  35  51  68  87 113 144 180 223 269
#     4   9  18  30  42  58  80 106 137 174 214 252
#     4  10  19  30  44  63  88 119 153 187 219 252
#     4   9  17  28  43  61  82 109 142 178 215 254
#     4   9  17  26  37  54  77 106 141 179 218 257
#
# _framework density 15.085613
#
# number of rings (size 3 to 8) (size 9 to 14) (size 15 to 20)
#    0.000    2.700    0.000    2.100    1.400    3.600 
#    0.000    3.000    0.000    1.300    0.000    0.000 
#    0.000    0.000    0.000    0.300    0.000    1.300 
#
# Total GULP energy -1486932.033323 kJ/mol
# GULP energy per Si atom -12391.100278 kJ/mol
# Density = 1.505128 g / cm^3
# Si number density = 15.085613 Si / 1000 Ang^3
#
#
#
# Elastic Constant Matrix: (Units=GPa)
#
#
# Indices 1 2 3 4 5 6 
#
# 1 59.7832 32.9383 35.5473 0.0000 0.0000 0.0000
# 2 32.9383 59.7832 35.5473 0.0000 0.0000 0.0000
# 3 35.5473 35.5473 113.0360 0.0000 0.0000 0.0000
# 4 0.0000 0.0000 0.0000 18.7022 0.0000 0.0000
# 5 0.0000 0.0000 0.0000 0.0000 18.7022 0.0000
# 6 0.0000 0.0000 0.0000 0.0000 0.0000 13.4225
#
#
#
# Elastic Compliance Matrix: (Units=1/GPa)
#
#
# Indices 1 2 3 4 5 6 
#
# 1 0.025731 -0.011520 -0.004469 0.000000 0.000000 0.000000
# 2 -0.011520 0.025731 -0.004469 0.000000 0.000000 0.000000
# 3 -0.004469 -0.004469 0.011658 0.000000 0.000000 0.000000
# 4 0.000000 0.000000 0.000000 0.053470 0.000000 0.000000
# 5 0.000000 0.000000 0.000000 0.000000 0.053470 0.000000
# 6 0.000000 0.000000 0.000000 0.000000 0.000000 0.074502
#
#
# Mechanical properties :
#
#
# Convention : Reuss Voigt Hill
#
# Bulk Modulus (GPa) = 45.03656 48.96315 46.99985
# Shear Modulus (GPa) = 17.07188 18.73670 17.90429
#
# Velocity S-wave (km/s) = 3.36767 3.52806 3.44880
# Velocity P-wave (km/s) = 6.71122 7.00882 6.86163
#
# Compressibility (1/GPa) = 0.02220418
#
# Stress axis : x y z
#
# Youngs Moduli (GPa) = 38.86301 38.86301 85.77996
#
# Poissons Ratio (x) = 0.44768 0.38338
# Poissons Ratio (y) = 0.44768 0.38338
# Poissons Ratio (z) = 0.17369 0.17369
#
# Static dielectric constant tensor:
#      x y z
#    x 2.670270 0.000000 0.000000 
#    y 0.000000 2.670270 0.000000 
#    z 0.000000 0.000000 3.306160 
# 
# 
# High freq. dielectric constant tensor:
#      x y z
#    x 1.539430 0.000000 0.000000 
#    y 0.000000 1.539430 0.000000 
#    z 0.000000 0.000000 1.600360 
# 
# From -- ./inp_files/9657.got.cif
#   From: 2010.03.12/outbox.cif.g09.slc.cpg/sg191_5_cif.got.tgz:9657.got - 2010.04.01 12:09:02.
