data_PCOD8328816
_publ_section_title
;
Structure prediction by ZEFSAII (Michael W. Deem and Ramdas Pophale) SiO2 
 PCOD8328816
Probable space group: P 6/M M M
;
_chemical_formula_sum "Si O2"
_cell_formula_units_Z 108
_cell_length_a 17.573053
_cell_length_b 17.573053
_cell_length_c 24.802601
_cell_angle_alpha 90.000000
_cell_angle_beta 90.000000
_cell_angle_gamma 120.000000
_cell_volume 6633.187845
_symmetry_space_group_name_H-M "P 6/M M M"
_symmetry_group_IT_number 191
_symmetry_cell_setting 'hexagonal'
loop_
_space_group_symop_operation_xyz
x,y,z
x-y,x,z
-y,x-y,z
-x,-y,z
-x+y,-x,z
y,-x+y,z
x-y,-y,-z
-x,-x+y,-z
y,x,-z
-y,-x,-z
-x+y,y,-z
x,x-y,-z
-x,-y,-z
-x+y,-x,-z
y,-x+y,-z
x,y,-z
x-y,x,-z
-y,x-y,-z
-x+y,y,z
x,x-y,z
-y,-x,z
y,x,z
x-y,-y,z
-x,-x+y,z
loop_
_atom_site_type_symbol
_atom_site_label
_atom_site_fract_x
_atom_site_fract_y
_atom_site_fract_z
Si Si1 0.506858 0.666889 0.938740
Si Si2 0.097651 0.729310 0.842386
Si Si3 0.491856 0.160351 0.256600
Si Si4 0.589870 0.000000 0.562137
Si Si5 0.904179 0.269393 0.642253
O O1 0.473728 0.736864 0.932294
O O2 0.427408 0.572593 0.921354
O O3 0.589945 0.693320 0.900871
O O4 0.536375 0.664954 0.000000
O O5 0.167014 0.832987 0.836011
O O6 0.115214 0.673374 0.798246
O O7 0.000000 0.714617 0.835300
O O8 0.570551 0.141102 0.264687
O O9 0.529519 0.264760 0.253790
O O10 0.425741 0.118925 0.305829
O O11 0.581934 0.913020 0.590953
O O12 0.500000 0.000000 0.569661
O O13 0.613859 0.000000 0.500000
O O14 0.831287 0.168714 0.630536
O O15 0.000000 0.277689 0.651915
#
# Coordination Sequence:
#
# PCOD8328816 Si02
#       5
#    24  24  24  12  24
#     4   9  17  29  45  66  94 127 160 190 221 263
#     4  10  21  34  48  67  90 119 154 194 242 289
#     4  10  19  31  48  72 102 133 164 197 234 278
#     4   9  18  32  52  76 101 131 166 202 241 289
#     4   9  19  32  49  73  99 129 165 204 245 287
#
# _framework density 16.281763999999999
#
# number of rings (size 3 to 8) (size 9 to 14) (size 15 to 20)
#    0.667    1.889    0.000    2.444    0.000    4.444 
#    0.000    3.333    0.000    0.889    0.000    0.000 
#    0.000    6.222    0.000    5.556    0.000    0.000 
#
# Total GULP energy -1338646.448721 kJ/mol
# GULP energy per Si atom -12394.874525 kJ/mol
# Density = 1.624471 g / cm^3
# Si number density = 16.281764 Si / 1000 Ang^3
#
#
#
# Elastic Constant Matrix: (Units=GPa)
#
#
# Indices 1 2 3 4 5 6 
#
# 1 94.5634 60.1302 31.5063 0.0000 0.0000 0.0000
# 2 60.1302 94.5634 31.5063 0.0000 0.0000 0.0000
# 3 31.5063 31.5063 91.9445 0.0000 0.0000 0.0000
# 4 0.0000 0.0000 0.0000 19.4630 0.0000 0.0000
# 5 0.0000 0.0000 0.0000 0.0000 19.4630 0.0000
# 6 0.0000 0.0000 0.0000 0.0000 0.0000 17.2166
#
#
#
# Elastic Compliance Matrix: (Units=1/GPa)
#
#
# Indices 1 2 3 4 5 6 
#
# 1 0.018277 -0.010764 -0.002574 0.000000 0.000000 0.000000
# 2 -0.010764 0.018277 -0.002574 0.000000 0.000000 0.000000
# 3 -0.002574 -0.002574 0.012641 0.000000 0.000000 0.000000
# 4 0.000000 0.000000 0.000000 0.051379 0.000000 0.000000
# 5 0.000000 0.000000 0.000000 0.000000 0.051379 0.000000
# 6 0.000000 0.000000 0.000000 0.000000 0.000000 0.058084
#
#
# Mechanical properties :
#
#
# Convention : Reuss Voigt Hill
#
# Bulk Modulus (GPa) = 57.57471 58.59521 58.08496
# Shear Modulus (GPa) = 20.18944 21.75707 20.97326
#
# Velocity S-wave (km/s) = 3.52519 3.65949 3.59297
# Velocity P-wave (km/s) = 7.21162 7.34317 7.27769
#
# Compressibility (1/GPa) = 0.01736874
#
# Stress axis : x y z
#
# Youngs Moduli (GPa) = 54.71225 54.71225 79.11073
#
# Poissons Ratio (x) = 0.58894 0.20367
# Poissons Ratio (y) = 0.58894 0.20367
# Poissons Ratio (z) = 0.14086 0.14086
#
# Static dielectric constant tensor:
#      x y z
#    x 2.987470 0.000000 0.000000 
#    y 0.000000 2.987470 0.000000 
#    z 0.000000 0.000000 3.194030 
# 
# 
# High freq. dielectric constant tensor:
#      x y z
#    x 1.607100 0.000000 0.000000 
#    y 0.000000 1.607100 0.000000 
#    z 0.000000 0.000000 1.639110 
# 
# From -- ./inp_files/9486.got.cif
#   From: 2010.03.12/outbox.cif.g09.slc.cpg/sg191_5_cif.got.tgz:9486.got - 2010.04.01 12:09:02.
