data_PCOD8328911
_publ_section_title
;
Structure prediction by ZEFSAII (Michael W. Deem and Ramdas Pophale) SiO2 
 PCOD8328911
Probable space group: P 6/M M M
;
_chemical_formula_sum "Si O2"
_cell_formula_units_Z 138
_cell_length_a 29.930960
_cell_length_b 29.930960
_cell_length_c 8.452881
_cell_angle_alpha 90.000000
_cell_angle_beta 90.000000
_cell_angle_gamma 120.000000
_cell_volume 6558.079541
_symmetry_space_group_name_H-M "P 6/M M M"
_symmetry_group_IT_number 191
_symmetry_cell_setting 'hexagonal'
loop_
_space_group_symop_operation_xyz
x,y,z
x-y,x,z
-y,x-y,z
-x,-y,z
-x+y,-x,z
y,-x+y,z
x-y,-y,-z
-x,-x+y,-z
y,x,-z
-y,-x,-z
-x+y,y,-z
x,x-y,-z
-x,-y,-z
-x+y,-x,-z
y,-x+y,-z
x,y,-z
x-y,x,-z
-y,x-y,-z
-x+y,y,z
x,x-y,z
-y,-x,z
y,x,z
x-y,-y,z
-x,-x+y,z
loop_
_atom_site_type_symbol
_atom_site_label
_atom_site_fract_x
_atom_site_fract_y
_atom_site_fract_z
Si Si1 0.435135 0.666911 0.312804
Si Si2 0.940709 0.059292 0.000000
Si Si3 0.748057 0.805106 0.820592
Si Si4 0.908854 0.817708 0.678551
Si Si5 0.489782 0.612672 0.185284
Si Si6 0.942078 0.344878 0.315391
Si Si7 0.134867 0.369236 0.183717
O O1 0.440415 0.667543 0.500000
O O2 0.441557 0.720779 0.250647
O O3 0.379157 0.620844 0.258376
O O4 0.480416 0.659342 0.238048
O O5 0.927050 0.072951 0.829761
O O6 0.000000 0.083571 0.000000
O O7 0.755390 0.755390 0.801444
O O8 0.783461 0.847317 0.693084
O O9 0.690744 0.790454 0.782056
O O10 0.763269 0.827503 0.000000
O O11 0.921497 0.842994 0.500000
O O12 0.440898 0.559103 0.238677
O O13 0.538804 0.614326 0.268034
O O14 0.499069 0.616299 0.000000
O O15 0.947468 0.343297 0.500000
O O16 0.894337 0.289969 0.263336
O O17 0.000000 0.363734 0.242912
O O18 0.193220 0.386439 0.247263
O O19 0.138416 0.382109 0.000000
#
# Coordination Sequence:
#
# PCOD8328911 Si02
#       7
#    24   6  24  12  24  24  24
#     4   9  17  31  54  85 122 163 205 250 303 365
#     4  12  27  48  68  88 120 160 208 264 322 386
#     4  10  19  36  62  89 122 162 201 246 300 360
#     4  12  24  39  63  95 124 156 200 254 312 374
#     4  10  22  40  62  88 117 153 203 260 313 367
#     4  11  25  43  63  89 122 160 202 250 307 369
#     4  10  21  39  64  93 125 163 205 245 293 356
#
# _framework density 21.042746000000001
#
# number of rings (size 3 to 8) (size 9 to 14) (size 15 to 20)
#    0.000    1.739    1.739    2.304    0.000    7.652 
#    0.000    1.739    0.000    1.565    0.000    0.000 
#    0.000    0.000    0.000    0.000    0.000    0.000 
#
# Total GULP energy -1710131.151973 kJ/mol
# GULP energy per Si atom -12392.254724 kJ/mol
# Density = 2.099485 g / cm^3
# Si number density = 21.042746 Si / 1000 Ang^3
#
#
#
# Elastic Constant Matrix: (Units=GPa)
#
#
# Indices 1 2 3 4 5 6 
#
# 1 93.4884 78.9850 29.1495 0.0000 0.0000 0.0000
# 2 78.9850 93.4884 29.1495 0.0000 0.0000 0.0000
# 3 29.1495 29.1495 52.0990 0.0000 0.0000 0.0000
# 4 0.0000 0.0000 0.0000 25.0813 0.0000 0.0000
# 5 0.0000 0.0000 0.0000 0.0000 25.0813 0.0000
# 6 0.0000 0.0000 0.0000 0.0000 0.0000 7.2517
#
#
#
# Elastic Compliance Matrix: (Units=1/GPa)
#
#
# Indices 1 2 3 4 5 6 
#
# 1 0.038050 -0.030900 -0.004001 0.000000 0.000000 0.000000
# 2 -0.030900 0.038050 -0.004001 0.000000 0.000000 0.000000
# 3 -0.004001 -0.004001 0.023671 0.000000 0.000000 0.000000
# 4 0.000000 0.000000 0.000000 0.039870 0.000000 0.000000
# 5 0.000000 0.000000 0.000000 0.000000 0.039870 0.000000
# 6 0.000000 0.000000 0.000000 0.000000 0.000000 0.137899
#
#
# Mechanical properties :
#
#
# Convention : Reuss Voigt Hill
#
# Bulk Modulus (GPa) = 45.51850 57.07152 51.29501
# Shear Modulus (GPa) = 12.42127 18.26898 15.34512
#
# Velocity S-wave (km/s) = 2.43222 2.94969 2.70337
# Velocity P-wave (km/s) = 5.43746 6.22748 5.84583
#
# Compressibility (1/GPa) = 0.02196909
#
# Stress axis : x y z
#
# Youngs Moduli (GPa) = 26.28124 26.28124 42.24595
#
# Poissons Ratio (x) = 0.81208 0.16901
# Poissons Ratio (y) = 0.81208 0.16901
# Poissons Ratio (z) = 0.10514 0.10514
#
# Static dielectric constant tensor:
#      x y z
#    x 4.155600 0.000000 0.000000 
#    y 0.000000 4.155600 0.000000 
#    z 0.000000 0.000000 3.651160 
# 
# 
# High freq. dielectric constant tensor:
#      x y z
#    x 1.826680 0.000000 0.000000 
#    y 0.000000 1.826680 0.000000 
#    z 0.000000 0.000000 1.810130 
# 
# From -- ./inp_files/2035.got.cif
#   From: 2010.03.12/outbox.cif.g09.slc.cpg/sg191_2_cif.got.tgz:2035.got - 2010.04.01 12:09:02.
