data_PCOD8328613
_publ_section_title
;
Structure prediction by ZEFSAII (Michael W. Deem and Ramdas Pophale) SiO2 
 PCOD8328613
Probable space group: P 6/M M M
;
_chemical_formula_sum "Si O2"
_cell_formula_units_Z 120
_cell_length_a 17.878247
_cell_length_b 17.878247
_cell_length_c 25.551616
_cell_angle_alpha 90.000000
_cell_angle_beta 90.000000
_cell_angle_gamma 120.000000
_cell_volume 7072.922019
_symmetry_space_group_name_H-M "P 6/M M M"
_symmetry_group_IT_number 191
_symmetry_cell_setting 'hexagonal'
loop_
_space_group_symop_operation_xyz
x,y,z
x-y,x,z
-y,x-y,z
-x,-y,z
-x+y,-x,z
y,-x+y,z
x-y,-y,-z
-x,-x+y,-z
y,x,-z
-y,-x,-z
-x+y,y,-z
x,x-y,-z
-x,-y,-z
-x+y,-x,-z
y,-x+y,-z
x,y,-z
x-y,x,-z
-y,x-y,-z
-x+y,y,z
x,x-y,z
-y,-x,z
y,x,z
x-y,-y,z
-x,-x+y,z
loop_
_atom_site_type_symbol
_atom_site_label
_atom_site_fract_x
_atom_site_fract_y
_atom_site_fract_z
Si Si1 0.903249 0.540300 0.556559
Si Si2 0.165558 0.495960 0.334422
Si Si3 0.507071 0.668205 0.850990
Si Si4 0.096950 0.365179 0.244385
Si Si5 0.735263 0.638274 0.060028
O O1 0.865159 0.548732 0.500000
O O2 0.905408 0.452704 0.556647
O O3 0.847530 0.539350 0.605986
O O4 0.000000 0.620160 0.563018
O O5 0.265389 0.530777 0.319473
O O6 0.143555 0.571778 0.326988
O O7 0.104088 0.417692 0.296902
O O8 0.474086 0.737043 0.849220
O O9 0.426752 0.573249 0.844794
O O10 0.573202 0.685340 0.804482
O O11 0.554475 0.674408 0.905609
O O12 0.165576 0.331152 0.244235
O O13 0.000000 0.283344 0.241406
O O14 0.836285 0.672569 0.073051
O O15 0.715561 0.715561 0.072197
O O16 0.714135 0.608352 0.000000
#
# Coordination Sequence:
#
# PCOD8328613 Si02
#       5
#    24  24  24  24  24
#     4   8  14  25  40  56  75 105 149 197 237 269
#     4  10  19  29  42  62  90 123 157 191 226 264
#     4  10  20  33  49  70  97 128 160 192 225 261
#     4  10  21  35  51  71  93 118 148 184 227 272
#     4   9  18  32  49  69  93 122 156 194 237 282
#
# _framework density 16.966114000000001
#
# number of rings (size 3 to 8) (size 9 to 14) (size 15 to 20)
#    0.000    2.600    0.000    2.800    0.000    4.400 
#    0.000    3.000    0.000    2.800    0.000    1.400 
#    0.000    4.800    0.000    0.200    0.000    0.000 
#
# Total GULP energy -1487306.782942 kJ/mol
# GULP energy per Si atom -12394.223191 kJ/mol
# Density = 1.692750 g / cm^3
# Si number density = 16.966114 Si / 1000 Ang^3
#
#
#
# Elastic Constant Matrix: (Units=GPa)
#
#
# Indices 1 2 3 4 5 6 
#
# 1 86.5993 59.0504 37.0259 0.0000 0.0000 0.0000
# 2 59.0504 86.5993 37.0259 0.0000 0.0000 0.0000
# 3 37.0259 37.0259 99.9855 0.0000 0.0000 0.0000
# 4 0.0000 0.0000 0.0000 21.0607 0.0000 0.0000
# 5 0.0000 0.0000 0.0000 0.0000 21.0607 0.0000
# 6 0.0000 0.0000 0.0000 0.0000 0.0000 13.7744
#
#
#
# Elastic Compliance Matrix: (Units=1/GPa)
#
#
# Indices 1 2 3 4 5 6 
#
# 1 0.022379 -0.013920 -0.003132 0.000000 0.000000 0.000000
# 2 -0.013920 0.022379 -0.003132 0.000000 0.000000 0.000000
# 3 -0.003132 -0.003132 0.012321 0.000000 0.000000 0.000000
# 4 0.000000 0.000000 0.000000 0.047482 0.000000 0.000000
# 5 0.000000 0.000000 0.000000 0.000000 0.047482 0.000000
# 6 0.000000 0.000000 0.000000 0.000000 0.000000 0.072598
#
#
# Mechanical properties :
#
#
# Convention : Reuss Voigt Hill
#
# Bulk Modulus (GPa) = 59.84810 59.93206 59.89008
# Shear Modulus (GPa) = 18.47883 20.51795 19.49839
#
# Velocity S-wave (km/s) = 3.30382 3.48134 3.39374
# Velocity P-wave (km/s) = 7.06437 7.18059 7.12272
#
# Compressibility (1/GPa) = 0.01670897
#
# Stress axis : x y z
#
# Youngs Moduli (GPa) = 44.68536 44.68536 81.16063
#
# Poissons Ratio (x) = 0.62204 0.25421
# Poissons Ratio (y) = 0.62204 0.25421
# Poissons Ratio (z) = 0.13996 0.13996
#
# Static dielectric constant tensor:
#      x y z
#    x 2.993120 0.000000 0.000000 
#    y 0.000000 2.993120 0.000000 
#    z 0.000000 0.000000 3.655340 
# 
# 
# High freq. dielectric constant tensor:
#      x y z
#    x 1.627370 0.000000 0.000000 
#    y 0.000000 1.627370 0.000000 
#    z 0.000000 0.000000 1.680130 
# 
# From -- ./inp_files/10293.got.cif
#   From: 2010.03.12/outbox.cif.g09.slc.cpg/sg191_6_cif.got.tgz:10293.got - 2010.04.01 12:09:02.
