data_PCOD8328693
_publ_section_title
;
Structure prediction by ZEFSAII (Michael W. Deem and Ramdas Pophale) SiO2 
 PCOD8328693
Probable space group: P 6/M M M
;
_chemical_formula_sum "Si O2"
_cell_formula_units_Z 168
_cell_length_a 22.671146
_cell_length_b 22.671146
_cell_length_c 21.653730
_cell_angle_alpha 90.000000
_cell_angle_beta 90.000000
_cell_angle_gamma 120.000000
_cell_volume 9638.518749
_symmetry_space_group_name_H-M "P 6/M M M"
_symmetry_group_IT_number 191
_symmetry_cell_setting 'hexagonal'
loop_
_space_group_symop_operation_xyz
x,y,z
x-y,x,z
-y,x-y,z
-x,-y,z
-x+y,-x,z
y,-x+y,z
x-y,-y,-z
-x,-x+y,-z
y,x,-z
-y,-x,-z
-x+y,y,-z
x,x-y,-z
-x,-y,-z
-x+y,-x,-z
y,-x+y,-z
x,y,-z
x-y,x,-z
-y,x-y,-z
-x+y,y,z
x,x-y,z
-y,-x,z
y,x,z
x-y,-y,z
-x,-x+y,z
loop_
_atom_site_type_symbol
_atom_site_label
_atom_site_fract_x
_atom_site_fract_y
_atom_site_fract_z
Si Si1 0.075019 0.279367 0.426783
Si Si2 0.138077 0.725387 0.787529
Si Si3 0.393337 0.919219 0.310716
Si Si4 0.788502 0.709490 0.125266
Si Si5 0.463265 0.666674 0.868375
Si Si6 0.919514 0.333498 0.432265
Si Si7 0.359393 0.511670 0.000000
Si Si8 0.275308 0.920779 0.000000
O O1 0.070776 0.271441 0.500000
O O2 0.130422 0.260844 0.399533
O O3 0.100020 0.357731 0.410168
O O4 0.000000 0.228118 0.398292
O O5 0.208663 0.791338 0.766963
O O6 0.108630 0.673713 0.730796
O O7 0.086889 0.748581 0.815851
O O8 0.148021 0.683611 0.842149
O O9 0.446531 0.893061 0.293089
O O10 0.367574 0.894512 0.380894
O O11 0.431883 0.000000 0.305818
O O12 0.870151 0.740302 0.134182
O O13 0.769908 0.769908 0.121968
O O14 0.769508 0.664852 0.062339
O O15 0.442416 0.721208 0.845564
O O16 0.407017 0.592984 0.843578
O O17 0.468362 0.670123 0.941887
O O18 0.887261 0.332088 0.500000
O O19 0.000000 0.376381 0.438938
O O20 0.442669 0.557332 0.000000
O O21 0.334513 0.432473 0.000000
O O22 0.311537 0.000000 0.000000
#
# Coordination Sequence:
#
# PCOD8328693 Si02
#       8
#    24  24  24  24  24  24  12  12
#     4   8  13  22  38  61  89 120 153 190 233 280
#     4  10  20  33  50  68  93 130 166 199 235 282
#     4  10  20  33  49  70  98 126 153 192 240 290
#     4  10  20  34  54  77 101 130 165 206 250 298
#     4  10  19  30  45  64  89 122 162 206 246 282
#     4   8  15  28  45  66  91 119 152 190 235 286
#     4  10  19  30  45  66  95 128 165 210 253 291
#     4  10  19  32  50  72 100 131 166 207 250 300
#
# _framework density 17.430064999999999
#
# number of rings (size 3 to 8) (size 9 to 14) (size 15 to 20)
#    0.000    2.571    1.429    2.286    0.000    1.571 
#    0.000    2.143    0.000    0.571    0.000    1.000 
#    0.000    1.714    0.000    0.000    0.000   18.571 
#
# Total GULP energy -2081387.847713 kJ/mol
# GULP energy per Si atom -12389.213379 kJ/mol
# Density = 1.739039 g / cm^3
# Si number density = 17.430065 Si / 1000 Ang^3
#
#
#
# Elastic Constant Matrix: (Units=GPa)
#
#
# Indices 1 2 3 4 5 6 
#
# 1 75.1795 39.9511 33.3160 0.0000 0.0000 0.0000
# 2 39.9511 75.1795 33.3160 0.0000 0.0000 0.0000
# 3 33.3160 33.3160 74.0760 0.0000 0.0000 0.0000
# 4 0.0000 0.0000 0.0000 17.8165 0.0000 0.0000
# 5 0.0000 0.0000 0.0000 0.0000 17.8165 0.0000
# 6 0.0000 0.0000 0.0000 0.0000 0.0000 17.6142
#
#
#
# Elastic Compliance Matrix: (Units=1/GPa)
#
#
# Indices 1 2 3 4 5 6 
#
# 1 0.020064 -0.008322 -0.005281 0.000000 0.000000 0.000000
# 2 -0.008322 0.020064 -0.005281 0.000000 0.000000 0.000000
# 3 -0.005281 -0.005281 0.018250 0.000000 0.000000 0.000000
# 4 0.000000 0.000000 0.000000 0.056128 0.000000 0.000000
# 5 0.000000 0.000000 0.000000 0.000000 0.056128 0.000000
# 6 0.000000 0.000000 0.000000 0.000000 0.000000 0.056772
#
#
# Mechanical properties :
#
#
# Convention : Reuss Voigt Hill
#
# Bulk Modulus (GPa) = 48.51999 48.62234 48.57117
# Shear Modulus (GPa) = 18.37933 18.50624 18.44279
#
# Velocity S-wave (km/s) = 3.25077 3.26197 3.25638
# Velocity P-wave (km/s) = 6.47977 6.49181 6.48579
#
# Compressibility (1/GPa) = 0.02061006
#
# Stress axis : x y z
#
# Youngs Moduli (GPa) = 49.83996 49.83996 54.79432
#
# Poissons Ratio (x) = 0.41477 0.28938
# Poissons Ratio (y) = 0.41477 0.28938
# Poissons Ratio (z) = 0.26321 0.26321
#
# Static dielectric constant tensor:
#      x y z
#    x 3.237720 0.000000 0.000000 
#    y 0.000000 3.237720 0.000000 
#    z 0.000000 0.000000 3.498610 
# 
# 
# High freq. dielectric constant tensor:
#      x y z
#    x 1.655310 0.000000 0.000000 
#    y 0.000000 1.655310 0.000000 
#    z 0.000000 0.000000 1.661740 
# 
# From -- ./inp_files/8059.got.cif
#   From: 2010.03.12/outbox.cif.g09.slc.cpg/sg191_5_cif.got.tgz:8059.got - 2010.04.01 12:09:02.
