data_PCOD8328691
_publ_section_title
;
Structure prediction by ZEFSAII (Michael W. Deem and Ramdas Pophale) SiO2 
 PCOD8328691
Probable space group: P 6/M M M
;
_chemical_formula_sum "Si O2"
_cell_formula_units_Z 132
_cell_length_a 17.444967
_cell_length_b 17.444967
_cell_length_c 34.027176
_cell_angle_alpha 90.000000
_cell_angle_beta 90.000000
_cell_angle_gamma 120.000000
_cell_volume 8968.025688
_symmetry_space_group_name_H-M "P 6/M M M"
_symmetry_group_IT_number 191
_symmetry_cell_setting 'hexagonal'
loop_
_space_group_symop_operation_xyz
x,y,z
x-y,x,z
-y,x-y,z
-x,-y,z
-x+y,-x,z
y,-x+y,z
x-y,-y,-z
-x,-x+y,-z
y,x,-z
-y,-x,-z
-x+y,y,-z
x,x-y,-z
-x,-y,-z
-x+y,-x,-z
y,-x+y,-z
x,y,-z
x-y,x,-z
-y,x-y,-z
-x+y,y,z
x,x-y,z
-y,-x,z
y,x,z
x-y,-y,z
-x,-x+y,z
loop_
_atom_site_type_symbol
_atom_site_label
_atom_site_fract_x
_atom_site_fract_y
_atom_site_fract_z
Si Si1 0.000000 0.590759 0.186473
Si Si2 0.591465 0.591465 0.098491
Si Si3 0.513782 0.668293 0.600558
Si Si4 0.843992 0.332672 0.955515
Si Si5 0.274271 0.899186 0.321315
Si Si6 0.000000 0.590828 0.543818
Si Si7 0.668303 0.513782 0.756818
O O1 0.912149 0.574543 0.209037
O O2 0.000000 0.500000 0.184208
O O3 0.000000 0.625537 0.142543
O O4 0.500000 0.500000 0.098603
O O5 0.579729 0.664649 0.075050
O O6 0.499270 0.749635 0.590339
O O7 0.419278 0.580723 0.603378
O O8 0.563117 0.680694 0.641444
O O9 0.574566 0.662403 0.566433
O O10 0.827927 0.413964 0.949151
O O11 0.753679 0.246322 0.945457
O O12 0.876156 0.332310 0.000000
O O13 0.168047 0.831954 0.321333
O O14 0.319243 0.882460 0.284039
O O15 0.293543 0.000000 0.321332
O O16 0.000000 0.500000 0.541639
O O17 0.000000 0.626503 0.500000
O O18 0.749592 0.499184 0.767019
O O19 0.580648 0.419353 0.753967
#
# Coordination Sequence:
#
# PCOD8328691 Si02
#       7
#    12  12  24  24  24  12  24
#     4   9  18  30  42  56  80 114 146 178 215 253
#     4   9  17  28  40  56  79 109 143 177 215 255
#     4  10  19  30  46  67  92 120 152 188 228 271
#     4   9  16  26  41  60  81 106 138 177 219 261
#     4  10  19  31  49  71  93 118 146 182 225 268
#     4   9  18  31  45  61  85 119 153 186 226 266
#     4  10  19  30  45  64  88 116 148 182 218 257
#
# _framework density 14.718958000000001
#
# number of rings (size 3 to 8) (size 9 to 14) (size 15 to 20)
#    0.000    2.455    1.818    1.364    0.000    3.636 
#    0.000    1.818    0.000    3.455    0.000    0.000 
#    0.000    0.000    0.000    0.273    0.000   14.545 
#
# Total GULP energy -1636576.715132 kJ/mol
# GULP energy per Si atom -12398.308448 kJ/mol
# Density = 1.468546 g / cm^3
# Si number density = 14.718958 Si / 1000 Ang^3
#
#
#
# Elastic Constant Matrix: (Units=GPa)
#
#
# Indices 1 2 3 4 5 6 
#
# 1 88.8840 51.7222 50.3123 0.0000 0.0000 0.0000
# 2 51.7222 88.8840 50.3123 0.0000 0.0000 0.0000
# 3 50.3123 50.3123 130.7791 0.0000 0.0000 0.0000
# 4 0.0000 0.0000 0.0000 5.9345 0.0000 0.0000
# 5 0.0000 0.0000 0.0000 0.0000 5.9345 0.0000
# 6 0.0000 0.0000 0.0000 0.0000 0.0000 18.5809
#
#
#
# Elastic Compliance Matrix: (Units=1/GPa)
#
#
# Indices 1 2 3 4 5 6 
#
# 1 0.018362 -0.008548 -0.003776 0.000000 0.000000 0.000000
# 2 -0.008548 0.018362 -0.003776 0.000000 0.000000 0.000000
# 3 -0.003776 -0.003776 0.010552 0.000000 0.000000 0.000000
# 4 0.000000 0.000000 0.000000 0.168505 0.000000 0.000000
# 5 0.000000 0.000000 0.000000 0.000000 0.168505 0.000000
# 6 0.000000 0.000000 0.000000 0.000000 0.000000 0.053819
#
#
# Mechanical properties :
#
#
# Convention : Reuss Voigt Hill
#
# Bulk Modulus (GPa) = 66.32498 68.13785 67.23141
# Shear Modulus (GPa) = 10.51908 16.50335 13.51121
#
# Velocity S-wave (km/s) = 2.67622 3.35211 3.03305
# Velocity P-wave (km/s) = 7.39650 7.83424 7.61851
#
# Compressibility (1/GPa) = 0.01507728
#
# Stress axis : x y z
#
# Youngs Moduli (GPa) = 54.46117 54.46117 94.77314
#
# Poissons Ratio (x) = 0.46552 0.35782
# Poissons Ratio (y) = 0.46552 0.35782
# Poissons Ratio (z) = 0.20562 0.20562
#
# Static dielectric constant tensor:
#      x y z
#    x 2.786120 0.000000 0.000000 
#    y 0.000000 2.786120 0.000000 
#    z 0.000000 0.000000 3.118510 
# 
# 
# High freq. dielectric constant tensor:
#      x y z
#    x 1.544550 0.000000 0.000000 
#    y 0.000000 1.544550 0.000000 
#    z 0.000000 0.000000 1.575480 
# 
# From -- ./inp_files/10587.got.cif
#   From: 2010.03.12/outbox.cif.g09.slc.cpg/sg191_6_cif.got.tgz:10587.got - 2010.04.01 12:09:02.
