data_PCOD8328812
_publ_section_title
;
Structure prediction by ZEFSAII (Michael W. Deem and Ramdas Pophale) SiO2 
 PCOD8328812
Probable space group: P 6/M M M
;
_chemical_formula_sum "Si O2"
_cell_formula_units_Z 120
_cell_length_a 17.389359
_cell_length_b 17.389359
_cell_length_c 27.594775
_cell_angle_alpha 90.000000
_cell_angle_beta 90.000000
_cell_angle_gamma 120.000000
_cell_volume 7226.443908
_symmetry_space_group_name_H-M "P 6/M M M"
_symmetry_group_IT_number 191
_symmetry_cell_setting 'hexagonal'
loop_
_space_group_symop_operation_xyz
x,y,z
x-y,x,z
-y,x-y,z
-x,-y,z
-x+y,-x,z
y,-x+y,z
x-y,-y,-z
-x,-x+y,-z
y,x,-z
-y,-x,-z
-x+y,y,-z
x,x-y,-z
-x,-y,-z
-x+y,-x,-z
y,-x+y,-z
x,y,-z
x-y,x,-z
-y,x-y,-z
-x+y,y,z
x,x-y,z
-y,-x,z
y,x,z
x-y,-y,z
-x,-x+y,z
loop_
_atom_site_type_symbol
_atom_site_label
_atom_site_fract_x
_atom_site_fract_y
_atom_site_fract_z
Si Si1 0.099798 0.724959 0.904790
Si Si2 0.272595 0.900678 0.282476
Si Si3 0.156389 0.487804 0.000000
Si Si4 0.155077 0.668454 0.623361
Si Si5 0.408655 0.000000 0.445824
Si Si6 0.843332 0.511523 0.810400
O O1 0.169195 0.830806 0.902927
O O2 0.110036 0.681624 0.953447
O O3 0.116350 0.674796 0.861083
O O4 0.000000 0.709049 0.901968
O O5 0.166748 0.833253 0.284143
O O6 0.321648 0.877768 0.324209
O O7 0.313788 0.894940 0.231855
O O8 0.289542 0.000000 0.289016
O O9 0.261433 0.522866 0.000000
O O10 0.140970 0.570485 0.000000
O O11 0.162921 0.581461 0.624406
O O12 0.249742 0.750259 0.609534
O O13 0.086923 0.663819 0.582497
O O14 0.500000 0.000000 0.447823
O O15 0.373681 0.000000 0.500000
O O16 0.738553 0.477105 0.807862
O O17 0.858735 0.429368 0.804209
#
# Coordination Sequence:
#
# PCOD8328812 Si02
#       6
#    24  24  12  24  12  24
#     4  10  21  35  50  70  94 124 160 201 247 290
#     4  10  20  33  50  72  97 127 160 198 242 288
#     4  10  20  33  50  71  98 130 163 196 232 277
#     4  10  19  31  48  70  97 128 163 200 240 284
#     4   9  18  32  48  66  92 126 161 198 238 278
#     4  10  20  32  48  71 101 133 164 196 233 278
#
# _framework density 16.605678000000001
#
# number of rings (size 3 to 8) (size 9 to 14) (size 15 to 20)
#    0.000    2.100    1.000    2.600    0.000    4.400 
#    0.000    4.000    0.000    1.600    0.000    0.000 
#    0.000    7.200    0.000    0.000    0.000    9.900 
#
# Total GULP energy -1488155.756148 kJ/mol
# GULP energy per Si atom -12401.297968 kJ/mol
# Density = 1.656788 g / cm^3
# Si number density = 16.605678 Si / 1000 Ang^3
#
#
#
# Elastic Constant Matrix: (Units=GPa)
#
#
# Indices 1 2 3 4 5 6 
#
# 1 101.1761 68.1261 28.5289 0.0000 0.0000 0.0000
# 2 68.1261 101.1761 28.5289 0.0000 0.0000 0.0000
# 3 28.5289 28.5289 108.2340 0.0000 0.0000 0.0000
# 4 0.0000 0.0000 0.0000 18.3323 0.0000 0.0000
# 5 0.0000 0.0000 0.0000 0.0000 18.3323 0.0000
# 6 0.0000 0.0000 0.0000 0.0000 0.0000 16.5250
#
#
#
# Elastic Compliance Matrix: (Units=1/GPa)
#
#
# Indices 1 2 3 4 5 6 
#
# 1 0.018370 -0.011887 -0.001709 0.000000 0.000000 0.000000
# 2 -0.011887 0.018370 -0.001709 0.000000 0.000000 0.000000
# 3 -0.001709 -0.001709 0.010140 0.000000 0.000000 0.000000
# 4 0.000000 0.000000 0.000000 0.054548 0.000000 0.000000
# 5 0.000000 0.000000 0.000000 0.000000 0.054548 0.000000
# 6 0.000000 0.000000 0.000000 0.000000 0.000000 0.060514
#
#
# Mechanical properties :
#
#
# Convention : Reuss Voigt Hill
#
# Bulk Modulus (GPa) = 61.46210 62.32823 61.89516
# Shear Modulus (GPa) = 19.80013 22.99809 21.39911
#
# Velocity S-wave (km/s) = 3.45682 3.72553 3.59369
# Velocity P-wave (km/s) = 7.28188 7.49146 7.38741
#
# Compressibility (1/GPa) = 0.01627019
#
# Stress axis : x y z
#
# Youngs Moduli (GPa) = 54.43717 54.43717 98.61921
#
# Poissons Ratio (x) = 0.64711 0.16851
# Poissons Ratio (y) = 0.64711 0.16851
# Poissons Ratio (z) = 0.09302 0.09302
#
# Static dielectric constant tensor:
#      x y z
#    x 3.079120 0.000000 0.000000 
#    y 0.000000 3.079120 0.000000 
#    z 0.000000 0.000000 3.356300 
# 
# 
# High freq. dielectric constant tensor:
#      x y z
#    x 1.625350 0.000000 0.000000 
#    y 0.000000 1.625350 0.000000 
#    z 0.000000 0.000000 1.658190 
# 
# From -- ./inp_files/8551.got.cif
#   From: 2010.03.12/outbox.cif.g09.slc.cpg/sg191_5_cif.got.tgz:8551.got - 2010.04.01 12:09:02.
