data_PCOD8328935
_publ_section_title
;
Structure prediction by ZEFSAII (Michael W. Deem and Ramdas Pophale) SiO2 
 PCOD8328935
Probable space group: P 6/M M M
;
_chemical_formula_sum "Si O2"
_cell_formula_units_Z 192
_cell_length_a 22.905447
_cell_length_b 22.905447
_cell_length_c 29.575683
_cell_angle_alpha 90.000000
_cell_angle_beta 90.000000
_cell_angle_gamma 120.000000
_cell_volume 13438.257458
_symmetry_space_group_name_H-M "P 6/M M M"
_symmetry_group_IT_number 191
_symmetry_cell_setting 'hexagonal'
loop_
_space_group_symop_operation_xyz
x,y,z
x-y,x,z
-y,x-y,z
-x,-y,z
-x+y,-x,z
y,-x+y,z
x-y,-y,-z
-x,-x+y,-z
y,x,-z
-y,-x,-z
-x+y,y,-z
x,x-y,-z
-x,-y,-z
-x+y,-x,-z
y,-x+y,-z
x,y,-z
x-y,x,-z
-y,x-y,-z
-x+y,y,z
x,x-y,z
-y,-x,z
y,x,z
x-y,-y,z
-x,-x+y,z
loop_
_atom_site_type_symbol
_atom_site_label
_atom_site_fract_x
_atom_site_fract_y
_atom_site_fract_z
Si Si1 0.394506 0.474625 0.049354
Si Si2 0.073524 0.277149 0.758909
Si Si3 0.335440 0.414207 0.766874
Si Si4 0.801214 0.467915 0.284886
Si Si5 0.196554 0.927065 0.134398
Si Si6 0.468085 0.800848 0.609220
Si Si7 0.606620 0.074618 0.550999
Si Si8 0.679097 0.080162 0.131524
O O1 0.446103 0.553898 0.053167
O O2 0.434101 0.434101 0.053649
O O3 0.343305 0.455503 0.091254
O O4 0.358049 0.459012 0.000000
O O5 0.133825 0.267650 0.737734
O O6 0.089128 0.352956 0.750434
O O7 0.068204 0.263288 0.811880
O O8 0.000000 0.224085 0.737391
O O9 0.393372 0.393372 0.760494
O O10 0.351263 0.479672 0.738405
O O11 0.331856 0.434216 0.819025
O O12 0.737933 0.475866 0.268275
O O13 0.784670 0.392335 0.273517
O O14 0.812674 0.482217 0.337865
O O15 0.122273 0.877728 0.114971
O O16 0.243175 0.895431 0.121809
O O17 0.222742 0.000000 0.112125
O O18 0.394220 0.788439 0.596919
O O19 0.471623 0.735812 0.592663
O O20 0.526839 0.866964 0.583969
O O21 0.635531 0.089833 0.500000
O O22 0.537206 0.074412 0.552976
O O23 0.592010 0.000000 0.566142
O O24 0.639165 0.000000 0.130747
#
# Coordination Sequence:
#
# PCOD8328935 Si02
#       8
#    24  24  24  24  24  24  24  24
#     4   8  13  21  34  52  73  96 116 131 156 203
#     4   8  13  22  36  53  73  96 122 151 184 222
#     4   9  17  27  40  59  78  96 122 159 198 229
#     4  10  20  32  43  54  73 102 132 160 193 235
#     4   8  13  21  34  51  69  91 119 149 181 217
#     4   9  17  28  41  56  74  98 128 162 198 232
#     4   8  14  25  40  57  77 100 124 150 184 227
#     4   8  14  24  37  54  75  95 116 145 180 217
#
# _framework density 14.287566999999999
#
# number of rings (size 3 to 8) (size 9 to 14) (size 15 to 20)
#    0.000    3.500    0.000    2.875    0.000    3.000 
#    0.000    2.500    0.000    1.375    0.000    1.750 
#    0.000    0.000    0.000    0.000    0.000    0.875 
#
# Total GULP energy -2378521.105699 kJ/mol
# GULP energy per Si atom -12388.130759 kJ/mol
# Density = 1.425505 g / cm^3
# Si number density = 14.287567 Si / 1000 Ang^3
#
#
#
# Elastic Constant Matrix: (Units=GPa)
#
#
# Indices 1 2 3 4 5 6 
#
# 1 75.9703 39.7528 35.6058 0.0000 0.0000 0.0000
# 2 39.7528 75.9703 35.6058 0.0000 0.0000 0.0000
# 3 35.6058 35.6058 47.8133 0.0000 0.0000 0.0000
# 4 0.0000 0.0000 0.0000 14.2783 0.0000 0.0000
# 5 0.0000 0.0000 0.0000 0.0000 14.2783 0.0000
# 6 0.0000 0.0000 0.0000 0.0000 0.0000 18.1087
#
#
#
# Elastic Compliance Matrix: (Units=1/GPa)
#
#
# Indices 1 2 3 4 5 6 
#
# 1 0.021781 -0.005830 -0.011878 0.000000 0.000000 0.000000
# 2 -0.005830 0.021781 -0.011878 0.000000 0.000000 0.000000
# 3 -0.011878 -0.011878 0.038606 0.000000 0.000000 0.000000
# 4 0.000000 0.000000 0.000000 0.070036 0.000000 0.000000
# 5 0.000000 0.000000 0.000000 0.000000 0.070036 0.000000
# 6 0.000000 0.000000 0.000000 0.000000 0.000000 0.055222
#
#
# Mechanical properties :
#
#
# Convention : Reuss Voigt Hill
#
# Bulk Modulus (GPa) = 43.48919 46.85364 45.17142
# Shear Modulus (GPa) = 14.52220 15.25236 14.88728
#
# Velocity S-wave (km/s) = 3.19160 3.27085 3.23146
# Velocity P-wave (km/s) = 6.63975 6.86506 6.75335
#
# Compressibility (1/GPa) = 0.02299422
#
# Stress axis : x y z
#
# Youngs Moduli (GPa) = 45.91180 45.91180 25.90281
#
# Poissons Ratio (x) = 0.26767 0.30768
# Poissons Ratio (y) = 0.26767 0.30768
# Poissons Ratio (z) = 0.54535 0.54535
#
# Static dielectric constant tensor:
#      x y z
#    x 2.891840 0.000000 0.000000 
#    y 0.000000 2.891840 0.000000 
#    z 0.000000 0.000000 2.723610 
# 
# 
# High freq. dielectric constant tensor:
#      x y z
#    x 1.527660 0.000000 0.000000 
#    y 0.000000 1.527660 0.000000 
#    z 0.000000 0.000000 1.519040 
# 
# From -- ./inp_files/10155.got.cif
#   From: 2010.03.12/outbox.cif.g09.slc.cpg/sg191_6_cif.got.tgz:10155.got - 2010.04.01 12:09:02.
