data_PCOD8328742
_publ_section_title
;
Structure prediction by ZEFSAII (Michael W. Deem and Ramdas Pophale) SiO2 
 PCOD8328742
Probable space group: P 6/M M M
;
_chemical_formula_sum "Si O2"
_cell_formula_units_Z 120
_cell_length_a 17.675900
_cell_length_b 17.675900
_cell_length_c 29.936471
_cell_angle_alpha 90.000000
_cell_angle_beta 90.000000
_cell_angle_gamma 120.000000
_cell_volume 8100.173227
_symmetry_space_group_name_H-M "P 6/M M M"
_symmetry_group_IT_number 191
_symmetry_cell_setting 'hexagonal'
loop_
_space_group_symop_operation_xyz
x,y,z
x-y,x,z
-y,x-y,z
-x,-y,z
-x+y,-x,z
y,-x+y,z
x-y,-y,-z
-x,-x+y,-z
y,x,-z
-y,-x,-z
-x+y,y,-z
x,x-y,-z
-x,-y,-z
-x+y,-x,-z
y,-x+y,-z
x,y,-z
x-y,x,-z
-y,x-y,-z
-x+y,y,z
x,x-y,z
-y,-x,z
y,x,z
x-y,-y,z
-x,-x+y,z
loop_
_atom_site_type_symbol
_atom_site_label
_atom_site_fract_x
_atom_site_fract_y
_atom_site_fract_z
Si Si1 0.589443 0.000000 0.651287
Si Si2 0.589978 0.000000 0.751156
Si Si3 0.844078 0.512299 0.411944
Si Si4 0.511326 0.669083 0.811621
Si Si5 0.331369 0.834294 0.090799
Si Si6 0.635339 0.533812 0.000000
Si Si7 0.726207 0.625021 0.500000
O O1 0.624075 0.000000 0.701185
O O2 0.572178 0.912233 0.626184
O O3 0.500000 0.000000 0.653850
O O4 0.576476 0.914704 0.777085
O O5 0.500000 0.000000 0.750184
O O6 0.749680 0.499360 0.399911
O O7 0.835947 0.417974 0.415714
O O8 0.880778 0.562881 0.457970
O O9 0.503394 0.751697 0.796567
O O10 0.415079 0.584922 0.810927
O O11 0.552645 0.681562 0.861840
O O12 0.432028 0.864055 0.086956
O O13 0.270515 0.729486 0.092180
O O14 0.307106 0.869642 0.045861
O O15 0.578595 0.578595 0.000000
O O16 0.572024 0.427977 0.000000
O O17 0.704127 0.704127 0.500000
O O18 0.831777 0.663554 0.500000
#
# Coordination Sequence:
#
# PCOD8328742 Si02
#       7
#    12  12  24  24  24  12  12
#     4   9  18  31  44  59  83 114 145 180 221 259
#     4   9  18  30  43  59  79 107 141 178 221 258
#     4  10  19  30  46  67  93 122 153 185 219 258
#     4   9  17  28  43  60  79 104 137 175 213 253
#     4   9  16  25  37  52  70  93 122 158 199 241
#     4   9  17  24  32  48  70  93 118 150 190 236
#     4  10  19  31  49  72  97 126 154 184 221 263
#
# _framework density 14.814498
#
# number of rings (size 3 to 8) (size 9 to 14) (size 15 to 20)
#    0.000    2.700    1.000    1.200    1.400    2.800 
#    0.000    2.000    0.000    2.500    0.000    0.000 
#    0.000    0.000    0.000    0.300    0.000    2.400 
#
# Total GULP energy -1486631.327100 kJ/mol
# GULP energy per Si atom -12388.594393 kJ/mol
# Density = 1.478078 g / cm^3
# Si number density = 14.814498 Si / 1000 Ang^3
#
#
#
# Elastic Constant Matrix: (Units=GPa)
#
#
# Indices 1 2 3 4 5 6 
#
# 1 67.6804 35.6892 45.3754 0.0000 0.0000 0.0000
# 2 35.6892 67.6804 45.3754 0.0000 0.0000 0.0000
# 3 45.3754 45.3754 146.0168 0.0000 0.0000 0.0000
# 4 0.0000 0.0000 0.0000 31.6911 0.0000 0.0000
# 5 0.0000 0.0000 0.0000 0.0000 31.6911 0.0000
# 6 0.0000 0.0000 0.0000 0.0000 0.0000 15.9956
#
#
#
# Elastic Compliance Matrix: (Units=1/GPa)
#
#
# Indices 1 2 3 4 5 6 
#
# 1 0.022281 -0.008978 -0.004134 0.000000 0.000000 0.000000
# 2 -0.008978 0.022281 -0.004134 0.000000 0.000000 0.000000
# 3 -0.004134 -0.004134 0.009418 0.000000 0.000000 0.000000
# 4 0.000000 0.000000 0.000000 0.031555 0.000000 0.000000
# 5 0.000000 0.000000 0.000000 0.000000 0.031555 0.000000
# 6 0.000000 0.000000 0.000000 0.000000 0.000000 0.062517
#
#
# Mechanical properties :
#
#
# Convention : Reuss Voigt Hill
#
# Bulk Modulus (GPa) = 51.31258 59.36196 55.33727
# Shear Modulus (GPa) = 22.66607 26.20475 24.43541
#
# Velocity S-wave (km/s) = 3.91576 4.21034 4.06572
# Velocity P-wave (km/s) = 7.42672 7.98706 7.71198
#
# Compressibility (1/GPa) = 0.01948840
#
# Stress axis : x y z
#
# Youngs Moduli (GPa) = 44.88122 44.88122 106.18057
#
# Poissons Ratio (x) = 0.40292 0.43896
# Poissons Ratio (y) = 0.40292 0.43896
# Poissons Ratio (z) = 0.18554 0.18554
#
# Static dielectric constant tensor:
#      x y z
#    x 2.671860 0.000000 0.000000 
#    y 0.000000 2.671860 0.000000 
#    z 0.000000 0.000000 3.320800 
# 
# 
# High freq. dielectric constant tensor:
#      x y z
#    x 1.531510 0.000000 0.000000 
#    y 0.000000 1.531510 0.000000 
#    z 0.000000 0.000000 1.590340 
# 
# From -- ./inp_files/10343.got.cif
#   From: 2010.03.12/outbox.cif.g09.slc.cpg/sg191_6_cif.got.tgz:10343.got - 2010.04.01 12:09:02.
