data_PCOD8328913
_publ_section_title
;
Structure prediction by ZEFSAII (Michael W. Deem and Ramdas Pophale) SiO2 
 PCOD8328913
Probable space group: P 6/M M M
;
_chemical_formula_sum "Si O2"
_cell_formula_units_Z 120
_cell_length_a 17.714670
_cell_length_b 17.714670
_cell_length_c 24.276582
_cell_angle_alpha 90.000000
_cell_angle_beta 90.000000
_cell_angle_gamma 120.000000
_cell_volume 6597.574533
_symmetry_space_group_name_H-M "P 6/M M M"
_symmetry_group_IT_number 191
_symmetry_cell_setting 'hexagonal'
loop_
_space_group_symop_operation_xyz
x,y,z
x-y,x,z
-y,x-y,z
-x,-y,z
-x+y,-x,z
y,-x+y,z
x-y,-y,-z
-x,-x+y,-z
y,x,-z
-y,-x,-z
-x+y,y,-z
x,x-y,-z
-x,-y,-z
-x+y,-x,-z
y,-x+y,-z
x,y,-z
x-y,x,-z
-y,x-y,-z
-x+y,y,z
x,x-y,z
-y,-x,z
y,x,z
x-y,-y,z
-x,-x+y,z
loop_
_atom_site_type_symbol
_atom_site_label
_atom_site_fract_x
_atom_site_fract_y
_atom_site_fract_z
Si Si1 0.197188 0.394376 0.309937
Si Si2 0.463940 0.102791 0.618583
Si Si3 0.397562 0.198781 0.179455
Si Si4 0.464683 0.363605 0.890738
Si Si5 0.901771 0.803542 0.308580
Si Si6 0.463445 0.361678 0.500000
Si Si7 0.370459 0.270434 0.000000
Si Si8 0.900997 0.099004 0.177457
O O1 0.147834 0.442708 0.332017
O O2 0.199817 0.399633 0.244724
O O3 0.147377 0.294753 0.330782
O O4 0.563852 0.127703 0.624925
O O5 0.449217 0.137392 0.558596
O O6 0.401162 0.000000 0.623493
O O7 0.447996 0.150447 0.158679
O O8 0.297902 0.148951 0.156736
O O9 0.567555 0.432446 0.895378
O O10 0.412665 0.412665 0.875888
O O11 0.432433 0.312373 0.947783
O O12 0.852528 0.852528 0.331695
O O13 0.902446 0.804892 0.242948
O O14 0.398962 0.398962 0.500000
O O15 0.561831 0.438170 0.500000
O O16 0.290715 0.290715 0.000000
O O17 0.331769 0.165885 0.000000
O O18 0.000000 0.149332 0.154406
#
# Coordination Sequence:
#
# PCOD8328913 Si02
#       8
#    12  24  12  24  12  12  12  12
#     4  11  22  32  49  78 107 145 185 223 260 326
#     4   9  18  34  54  74 100 135 174 220 275 327
#     4  11  22  36  51  74 113 151 184 220 272 326
#     4  10  21  38  60  83 107 139 184 232 276 326
#     4   9  17  30  48  71 101 136 177 225 271 311
#     4   7  12  27  52  76  95 123 167 219 276 330
#     4  10  19  37  65  92 115 141 178 227 283 335
#     4   9  17  30  50  75 103 138 181 226 268 313
#
# _framework density 18.188502
#
# number of rings (size 3 to 8) (size 9 to 14) (size 15 to 20)
#    0.000    2.500    1.000    2.900    0.000    5.600 
#    1.200    2.000    0.000    0.100    0.000    0.000 
#    0.000    0.000    0.000    7.600    0.000    2.400 
#
# Total GULP energy -1487347.512231 kJ/mol
# GULP energy per Si atom -12394.562602 kJ/mol
# Density = 1.814710 g / cm^3
# Si number density = 18.188502 Si / 1000 Ang^3
#
#
#
# Elastic Constant Matrix: (Units=GPa)
#
#
# Indices 1 2 3 4 5 6 
#
# 1 109.1991 68.2481 45.6335 0.0000 0.0000 0.0000
# 2 68.2481 109.1991 45.6335 0.0000 0.0000 0.0000
# 3 45.6335 45.6335 94.5352 0.0000 0.0000 0.0000
# 4 0.0000 0.0000 0.0000 35.8489 0.0000 0.0000
# 5 0.0000 0.0000 0.0000 0.0000 35.8489 0.0000
# 6 0.0000 0.0000 0.0000 0.0000 0.0000 20.4755
#
#
#
# Elastic Compliance Matrix: (Units=1/GPa)
#
#
# Indices 1 2 3 4 5 6 
#
# 1 0.015958 -0.008461 -0.003619 0.000000 0.000000 0.000000
# 2 -0.008461 0.015958 -0.003619 0.000000 0.000000 0.000000
# 3 -0.003619 -0.003619 0.014072 0.000000 0.000000 0.000000
# 4 0.000000 0.000000 0.000000 0.027895 0.000000 0.000000
# 5 0.000000 0.000000 0.000000 0.000000 0.027895 0.000000
# 6 0.000000 0.000000 0.000000 0.000000 0.000000 0.048839
#
#
# Mechanical properties :
#
#
# Convention : Reuss Voigt Hill
#
# Bulk Modulus (GPa) = 68.53964 70.21815 69.37890
# Shear Modulus (GPa) = 26.75550 28.66258 27.70904
#
# Velocity S-wave (km/s) = 3.83954 3.97402 3.90736
# Velocity P-wave (km/s) = 7.57765 7.72960 7.65400
#
# Compressibility (1/GPa) = 0.01459010
#
# Stress axis : x y z
#
# Youngs Moduli (GPa) = 62.66423 62.66423 71.06443
#
# Poissons Ratio (x) = 0.53022 0.25717
# Poissons Ratio (y) = 0.53022 0.25717
# Poissons Ratio (z) = 0.22677 0.22677
#
# Static dielectric constant tensor:
#      x y z
#    x 3.348710 0.000000 0.000000 
#    y 0.000000 3.348710 0.000000 
#    z 0.000000 0.000000 3.339110 
# 
# 
# High freq. dielectric constant tensor:
#      x y z
#    x 1.698420 0.000000 0.000000 
#    y 0.000000 1.698420 0.000000 
#    z 0.000000 0.000000 1.695110 
# 
# From -- ./inp_files/8665.got.cif
#   From: 2010.03.12/outbox.cif.g09.slc.cpg/sg191_5_cif.got.tgz:8665.got - 2010.04.01 12:09:02.
