data_PCOD8328580
_publ_section_title
;
Structure prediction by ZEFSAII (Michael W. Deem and Ramdas Pophale) SiO2 
 PCOD8328580
Probable space group: P 6/M M M
;
_chemical_formula_sum "Si O2"
_cell_formula_units_Z 96
_cell_length_a 30.565868
_cell_length_b 30.565868
_cell_length_c 7.852379
_cell_angle_alpha 90.000000
_cell_angle_beta 90.000000
_cell_angle_gamma 120.000000
_cell_volume 6353.387601
_symmetry_space_group_name_H-M "P 6/M M M"
_symmetry_group_IT_number 191
_symmetry_cell_setting 'hexagonal'
loop_
_space_group_symop_operation_xyz
x,y,z
x-y,x,z
-y,x-y,z
-x,-y,z
-x+y,-x,z
y,-x+y,z
x-y,-y,-z
-x,-x+y,-z
y,x,-z
-y,-x,-z
-x+y,y,-z
x,x-y,-z
-x,-y,-z
-x+y,-x,-z
y,-x+y,-z
x,y,-z
x-y,x,-z
-y,x-y,-z
-x+y,y,z
x,x-y,z
-y,-x,z
y,x,z
x-y,-y,z
-x,-x+y,z
loop_
_atom_site_type_symbol
_atom_site_label
_atom_site_fract_x
_atom_site_fract_y
_atom_site_fract_z
Si Si1 0.857153 0.247076 0.692420
Si Si2 0.496865 0.196511 0.187719
Si Si3 0.716618 0.806613 0.187113
Si Si4 0.770310 0.436347 0.500000
Si Si5 0.944797 0.786862 0.500000
O O1 0.873347 0.264693 0.500000
O O2 0.805529 0.194472 0.698524
O O3 0.850085 0.290086 0.785894
O O4 0.901618 0.240957 0.779874
O O5 0.495342 0.247671 0.202798
O O6 0.534494 0.197346 0.332582
O O7 0.515900 0.191388 0.000000
O O8 0.712227 0.856114 0.191900
O O9 0.755372 0.811946 0.333638
O O10 0.735346 0.800006 0.000000
O O11 0.716406 0.432811 0.500000
O O12 0.760812 0.380406 0.500000
O O13 0.900793 0.801585 0.500000
O O14 0.000000 0.837768 0.500000
#
# Coordination Sequence:
#
# PCOD8328580 Si02
#       5
#    24  24  24  12  12
#     4   9  13  21  38  59  81 101 121 151 194 245
#     4   9  16  25  37  52  69  90 119 159 207 257
#     4   9  16  26  42  64  88 111 134 163 201 246
#     4  10  19  29  37  45  60  88 131 182 229 266
#     4  10  20  33  47  64  88 118 153 188 218 246
#
# _framework density 15.110049
#
# number of rings (size 3 to 8) (size 9 to 14) (size 15 to 20)
#    0.000    2.750    2.500    0.875    0.000    4.000 
#    0.000    0.000    0.000    1.625    0.000    0.000 
#    0.000    0.000    0.000    6.250    0.000   10.000 
#
# Total GULP energy -1189484.010310 kJ/mol
# GULP energy per Si atom -12390.458441 kJ/mol
# Density = 1.507566 g / cm^3
# Si number density = 15.110049 Si / 1000 Ang^3
#
#
#
# Elastic Constant Matrix: (Units=GPa)
#
#
# Indices 1 2 3 4 5 6 
#
# 1 47.0758 29.8901 31.1527 0.0000 0.0000 0.0000
# 2 29.8901 47.0758 31.1527 0.0000 0.0000 0.0000
# 3 31.1527 31.1527 139.3414 0.0000 0.0000 0.0000
# 4 0.0000 0.0000 0.0000 3.9406 0.0000 0.0000
# 5 0.0000 0.0000 0.0000 0.0000 3.9406 0.0000
# 6 0.0000 0.0000 0.0000 0.0000 0.0000 8.5928
#
#
#
# Elastic Compliance Matrix: (Units=1/GPa)
#
#
# Indices 1 2 3 4 5 6 
#
# 1 0.037026 -0.021162 -0.003547 0.000000 0.000000 0.000000
# 2 -0.021162 0.037026 -0.003547 0.000000 0.000000 0.000000
# 3 -0.003547 -0.003547 0.008762 0.000000 0.000000 0.000000
# 4 0.000000 0.000000 0.000000 0.253770 0.000000 0.000000
# 5 0.000000 0.000000 0.000000 0.000000 0.253770 0.000000
# 6 0.000000 0.000000 0.000000 0.000000 0.000000 0.116376
#
#
# Mechanical properties :
#
#
# Convention : Reuss Voigt Hill
#
# Bulk Modulus (GPa) = 38.01782 46.43156 42.22469
# Shear Modulus (GPa) = 6.47662 12.71464 9.59563
#
# Velocity S-wave (km/s) = 2.07258 2.90396 2.52275
# Velocity P-wave (km/s) = 5.56262 6.48379 6.04079
#
# Compressibility (1/GPa) = 0.02630346
#
# Stress axis : x y z
#
# Youngs Moduli (GPa) = 27.00812 27.00812 114.12276
#
# Poissons Ratio (x) = 0.57155 0.40476
# Poissons Ratio (y) = 0.57155 0.40476
# Poissons Ratio (z) = 0.09579 0.09579
#
# Static dielectric constant tensor:
#      x y z
#    x 2.544690 0.000000 0.000000 
#    y 0.000000 2.544690 0.000000 
#    z 0.000000 0.000000 3.348870 
# 
# 
# High freq. dielectric constant tensor:
#      x y z
#    x 1.528730 0.000000 0.000000 
#    y 0.000000 1.528730 0.000000 
#    z 0.000000 0.000000 1.605440 
# 
# From -- ./inp_files/1577.got.cif
#   From: 2010.03.12/outbox.cif.g09.slc.cpg/sg191_1_cif.got.tgz:1577.got - 2010.04.01 12:09:02.
