data_PCOD8328900
_publ_section_title
;
Structure prediction by ZEFSAII (Michael W. Deem and Ramdas Pophale) SiO2 
 PCOD8328900
Probable space group: P 6/M M M
;
_chemical_formula_sum "Si O2"
_cell_formula_units_Z 168
_cell_length_a 17.751820
_cell_length_b 17.751820
_cell_length_c 34.807940
_cell_angle_alpha 90.000000
_cell_angle_beta 90.000000
_cell_angle_gamma 120.000000
_cell_volume 9499.368267
_symmetry_space_group_name_H-M "P 6/M M M"
_symmetry_group_IT_number 191
_symmetry_cell_setting 'hexagonal'
loop_
_space_group_symop_operation_xyz
x,y,z
x-y,x,z
-y,x-y,z
-x,-y,z
-x+y,-x,z
y,-x+y,z
x-y,-y,-z
-x,-x+y,-z
y,x,-z
-y,-x,-z
-x+y,y,-z
x,x-y,-z
-x,-y,-z
-x+y,-x,-z
y,-x+y,-z
x,y,-z
x-y,x,-z
-y,x-y,-z
-x+y,y,z
x,x-y,z
-y,-x,z
y,x,z
x-y,-y,z
-x,-x+y,z
loop_
_atom_site_type_symbol
_atom_site_label
_atom_site_fract_x
_atom_site_fract_y
_atom_site_fract_z
Si Si1 0.506670 0.668556 0.821866
Si Si2 0.097935 0.195869 0.045736
Si Si3 0.803234 0.606468 0.954478
Si Si4 0.333252 0.838512 0.543840
Si Si5 0.668444 0.508784 0.681541
Si Si6 0.902453 0.269547 0.752736
Si Si7 0.097404 0.366356 0.610793
Si Si8 0.898290 0.535421 0.094369
O O1 0.471510 0.735755 0.816043
O O2 0.428606 0.571395 0.814988
O O3 0.582650 0.688594 0.792088
O O4 0.547525 0.680751 0.864057
O O5 0.147383 0.147383 0.062080
O O6 0.147242 0.294484 0.060619
O O7 0.096682 0.193363 0.000000
O O8 0.705614 0.558243 0.939313
O O9 0.800849 0.601697 0.000000
O O10 0.335810 0.868444 0.500000
O O11 0.426214 0.852427 0.556626
O O12 0.263180 0.736821 0.549063
O O13 0.307655 0.896333 0.569970
O O14 0.737801 0.475601 0.682289
O O15 0.572702 0.427299 0.682530
O O16 0.680647 0.567954 0.718084
O O17 0.679164 0.563096 0.643385
O O18 0.833818 0.166183 0.750876
O O19 0.000000 0.284752 0.750155
O O20 0.165611 0.331222 0.613698
O O21 0.000000 0.284742 0.615313
O O22 0.871298 0.435649 0.088421
O O23 0.000000 0.598706 0.090704
#
# Coordination Sequence:
#
# PCOD8328900 Si02
#       8
#    24  12  12  24  24  24  24  24
#     4  10  19  33  54  80 108 138 169 204 243 291
#     4   9  17  30  51  78 106 134 164 203 252 309
#     4  11  22  37  54  77 104 136 173 212 257 306
#     4   9  17  29  46  69  98 133 172 210 246 289
#     4  10  20  33  50  75 109 145 176 204 239 290
#     4  10  21  35  53  78 106 137 173 214 259 304
#     4  10  21  35  50  69  95 129 167 210 262 313
#     4  10  21  37  56  77 103 136 174 215 255 298
#
# _framework density 17.685386999999999
#
# number of rings (size 3 to 8) (size 9 to 14) (size 15 to 20)
#    0.000    2.143    0.714    2.643    0.000    5.714 
#    0.429    4.286    0.000    0.286    0.000    0.000 
#    0.000    3.429    0.000    3.571    0.000    0.000 
#
# Total GULP energy -2083543.002208 kJ/mol
# GULP energy per Si atom -12402.041680 kJ/mol
# Density = 1.764513 g / cm^3
# Si number density = 17.685387 Si / 1000 Ang^3
#
#
#
# Elastic Constant Matrix: (Units=GPa)
#
#
# Indices 1 2 3 4 5 6 
#
# 1 108.5836 66.3570 44.2201 0.0000 0.0000 0.0000
# 2 66.3570 108.5836 44.2201 0.0000 0.0000 0.0000
# 3 44.2201 44.2201 90.2276 0.0000 0.0000 0.0000
# 4 0.0000 0.0000 0.0000 0.1476 0.0000 0.0000
# 5 0.0000 0.0000 0.0000 0.0000 0.1476 0.0000
# 6 0.0000 0.0000 0.0000 0.0000 0.0000 21.1133
#
#
#
# Elastic Compliance Matrix: (Units=1/GPa)
#
#
# Indices 1 2 3 4 5 6 
#
# 1 0.015640 -0.008041 -0.003724 0.000000 0.000000 0.000000
# 2 -0.008041 0.015640 -0.003724 0.000000 0.000000 0.000000
# 3 -0.003724 -0.003724 0.014734 0.000000 0.000000 0.000000
# 4 0.000000 0.000000 0.000000 6.776433 -0.000006 0.000000
# 5 0.000000 0.000000 0.000000 -0.000006 6.776439 0.000000
# 6 0.000000 0.000000 0.000000 0.000000 0.000000 0.047363
#
#
# Mechanical properties :
#
#
# Convention : Reuss Voigt Hill
#
# Bulk Modulus (GPa) = 66.51321 68.55434 67.53378
# Shear Modulus (GPa) = 0.36544 14.45487 7.41015
#
# Velocity S-wave (km/s) = 0.45506 2.86201 2.04917
# Velocity P-wave (km/s) = 6.16173 7.05471 6.62328
#
# Compressibility (1/GPa) = 0.01503461
#
# Stress axis : x y z
#
# Youngs Moduli (GPa) = 63.93713 63.93713 67.87239
#
# Poissons Ratio (x) = 0.51414 0.25277
# Poissons Ratio (y) = 0.51414 0.25277
# Poissons Ratio (z) = 0.23812 0.23812
#
# Static dielectric constant tensor:
#      x y z
#    x 3.226400 0.000000 0.000000 
#    y 0.000000 3.226400 0.000000 
#    z 0.000000 0.000000 3.379110 
# 
# 
# High freq. dielectric constant tensor:
#      x y z
#    x 1.673490 0.000000 0.000000 
#    y 0.000000 1.673490 0.000000 
#    z 0.000000 0.000000 1.691370 
# 
# From -- ./inp_files/10776.got.cif
#   From: 2010.03.12/outbox.cif.g09.slc.cpg/sg191_6_cif.got.tgz:10776.got - 2010.04.01 12:09:02.
