data_PCOD8328142
_publ_section_title
;
Structure prediction by ZEFSAII (Michael W. Deem and Ramdas Pophale) SiO2 
 PCOD8328142
Probable space group: P -6 2 C
;
_chemical_formula_sum "Si O2"
_cell_formula_units_Z 42
_cell_length_a 8.556658
_cell_length_b 8.556658
_cell_length_c 32.206701
_cell_angle_alpha 90.000000
_cell_angle_beta 90.000000
_cell_angle_gamma 120.000000
_cell_volume 2042.138633
_symmetry_space_group_name_H-M "P -6 2 C"
_symmetry_group_IT_number 190
_symmetry_cell_setting 'hexagonal'
loop_
_space_group_symop_operation_xyz
x,y,z
-x+y,-x,1/2-z
-y,x-y,z
x,y,1/2-z
-x+y,-x,z
-y,x-y,1/2-z
x-y,-y,-z
-x,-x+y,-z
y,x,-z
y,x,1/2+z
x-y,-y,1/2+z
-x,-x+y,1/2+z
loop_
_atom_site_type_symbol
_atom_site_label
_atom_site_fract_x
_atom_site_fract_y
_atom_site_fract_z
Si Si1 0.453939 0.146270 0.250000
Si Si2 0.789221 0.810511 0.672055
Si Si3 0.341227 0.343808 0.048466
Si Si4 0.994413 0.322814 0.418277
O O1 0.501858 0.356512 0.250000
O O2 0.337975 0.039399 0.289855
O O3 0.686214 0.709311 0.630742
O O4 0.980972 0.813762 0.673588
O O5 0.272785 0.136154 0.058390
O O6 0.527635 0.466702 0.072502
O O7 0.194229 0.394082 0.064239
O O8 0.379250 0.379250 0.000000
#
# Coordination Sequence:
#
# PCOD8328142 Si02
#       4
#     6  12  12  12
#     4  10  24  36  68 106 130 166 222 274 330 410
#     4  10  21  44  68  96 132 183 220 272 344 411
#     4  12  24  42  64  95 136 179 235 295 352 413
#     4  12  25  43  67  99 133 186 235 288 354 415
#
# _framework density 20.566675
#
# number of rings (size 3 to 8) (size 9 to 14) (size 15 to 20)
#    0.857    0.000    2.857    5.143    4.000    0.000 
#    0.000    0.000    0.000    4.571    0.000    0.000 
#    0.000    0.000    0.000    0.000    0.000    0.000 
#
# Total GULP energy -520901.955480 kJ/mol
# GULP energy per Si atom -12402.427511 kJ/mol
# Density = 2.051986 g / cm^3
# Si number density = 20.566675 Si / 1000 Ang^3
#
#
#
# Elastic Constant Matrix: (Units=GPa)
#
#
# Indices 1 2 3 4 5 6 
#
# 1 74.7632 11.9300 49.3459 0.0000 0.0000 0.0000
# 2 11.9300 74.7632 49.3459 0.0000 0.0000 0.0000
# 3 49.3459 49.3459 193.2394 0.0000 0.0000 0.0000
# 4 0.0000 0.0000 0.0000 19.1512 0.0000 0.0000
# 5 0.0000 0.0000 0.0000 0.0000 19.1512 0.0000
# 6 0.0000 0.0000 0.0000 0.0000 0.0000 31.4166
#
#
#
# Elastic Compliance Matrix: (Units=1/GPa)
#
#
# Indices 1 2 3 4 5 6 
#
# 1 0.016089 0.000174 -0.004153 0.000000 0.000000 0.000000
# 2 0.000174 0.016089 -0.004153 0.000000 0.000000 0.000000
# 3 -0.004153 -0.004153 0.007296 0.000000 0.000000 0.000000
# 4 0.000000 0.000000 0.000000 0.052216 0.000000 0.000000
# 5 0.000000 0.000000 0.000000 0.000000 0.052216 0.000000
# 6 0.000000 0.000000 0.000000 0.000000 0.000000 0.031830
#
#
# Mechanical properties :
#
#
# Convention : Reuss Voigt Hill
#
# Bulk Modulus (GPa) = 43.08561 62.66774 52.87667
# Shear Modulus (GPa) = 25.03297 29.42005 27.22651
#
# Velocity S-wave (km/s) = 3.49257 3.78626 3.64238
# Velocity P-wave (km/s) = 6.10400 7.04635 6.59203
#
# Compressibility (1/GPa) = 0.02320961
#
# Stress axis : x y z
#
# Youngs Moduli (GPa) = 62.15492 62.15492 137.06388
#
# Poissons Ratio (x) = -0.01079 0.56920
# Poissons Ratio (y) = -0.01079 0.56920
# Poissons Ratio (z) = 0.25812 0.25812
#
# Static dielectric constant tensor:
#      x y z
#    x 3.566240 0.000000 0.000000 
#    y 0.000000 3.566240 0.000000 
#    z 0.000000 0.000000 3.705680 
# 
# 
# High freq. dielectric constant tensor:
#      x y z
#    x 1.797990 0.000000 0.000000 
#    y 0.000000 1.797990 0.000000 
#    z 0.000000 0.000000 1.816110 
# 
# From -- ./inp_files/5067.got.cif
#   From: 2010.06.25/outbox.cif.g09.slc.cpg/sg190_3_cif.got.tgz:5067.got - 2010.06.28 13:08:06.
