data_PCOD8328938
_publ_section_title
;
Structure prediction by ZEFSAII (Michael W. Deem and Ramdas Pophale) SiO2 
 PCOD8328938
Probable space group: P 6/M M M
;
_chemical_formula_sum "Si O2"
_cell_formula_units_Z 168
_cell_length_a 21.812509
_cell_length_b 21.812509
_cell_length_c 29.198897
_cell_angle_alpha 90.000000
_cell_angle_beta 90.000000
_cell_angle_gamma 120.000000
_cell_volume 12031.182782
_symmetry_space_group_name_H-M "P 6/M M M"
_symmetry_group_IT_number 191
_symmetry_cell_setting 'hexagonal'
loop_
_space_group_symop_operation_xyz
x,y,z
x-y,x,z
-y,x-y,z
-x,-y,z
-x+y,-x,z
y,-x+y,z
x-y,-y,-z
-x,-x+y,-z
y,x,-z
-y,-x,-z
-x+y,y,-z
x,x-y,-z
-x,-y,-z
-x+y,-x,-z
y,-x+y,-z
x,y,-z
x-y,x,-z
-y,x-y,-z
-x+y,y,z
x,x-y,z
-y,-x,z
y,x,z
x-y,-y,z
-x,-x+y,z
loop_
_atom_site_type_symbol
_atom_site_label
_atom_site_fract_x
_atom_site_fract_y
_atom_site_fract_z
Si Si1 0.388062 0.466306 0.124178
Si Si2 0.809112 0.476043 0.052091
Si Si3 0.916274 0.526493 0.774215
Si Si4 0.080498 0.394792 0.447605
Si Si5 0.299572 0.219143 0.630110
Si Si6 0.431838 0.145500 0.308509
Si Si7 0.334067 0.811061 0.394530
O O1 0.463066 0.536935 0.121144
O O2 0.399588 0.399588 0.114957
O O3 0.335753 0.466742 0.085625
O O4 0.355980 0.461391 0.174909
O O5 0.736892 0.473784 0.063721
O O6 0.796151 0.398076 0.061099
O O7 0.833568 0.500155 0.000000
O O8 0.885702 0.442851 0.765216
O O9 0.886288 0.558778 0.737957
O O10 0.000000 0.566320 0.770192
O O11 0.094585 0.383712 0.500000
O O12 0.095153 0.341613 0.417613
O O13 0.132906 0.475826 0.433482
O O14 0.000000 0.377530 0.440035
O O15 0.269565 0.134783 0.633352
O O16 0.234475 0.234475 0.633208
O O17 0.353960 0.260172 0.671292
O O18 0.441664 0.220832 0.295975
O O19 0.491106 0.154956 0.345185
O O20 0.397285 0.794570 0.398380
O O21 0.260663 0.739338 0.402366
#
# Coordination Sequence:
#
# PCOD8328938 Si02
#       7
#    24  24  24  24  24  24  24
#     4   8  15  26  37  51  71  95 122 150 183 224
#     4   9  16  25  37  52  70  92 119 153 191 227
#     4   9  16  26  40  56  75  97 121 153 190 225
#     4   9  18  32  48  64  81 100 124 159 197 226
#     4   9  17  29  45  64  84 104 126 152 183 220
#     4   9  17  28  42  59  77  99 128 159 188 219
#     4  10  20  32  44  58  79 106 133 159 188 226
#
# _framework density 13.963715000000001
#
# number of rings (size 3 to 8) (size 9 to 14) (size 15 to 20)
#    0.000    3.000    0.000    3.286    0.000    3.714 
#    0.000    2.143    0.000    1.286    0.000    0.000 
#    0.000    0.000    0.000    3.571    0.000    0.000 
#
# Total GULP energy -2082720.077113 kJ/mol
# GULP energy per Si atom -12397.143316 kJ/mol
# Density = 1.393193 g / cm^3
# Si number density = 13.963715 Si / 1000 Ang^3
#
#
#
# Elastic Constant Matrix: (Units=GPa)
#
#
# Indices 1 2 3 4 5 6 
#
# 1 66.9258 34.1678 43.8295 0.0000 0.0000 0.0000
# 2 34.1678 66.9258 43.8295 0.0000 0.0000 0.0000
# 3 43.8295 43.8295 106.9426 0.0000 0.0000 0.0000
# 4 0.0000 0.0000 0.0000 16.9226 0.0000 0.0000
# 5 0.0000 0.0000 0.0000 0.0000 16.9226 0.0000
# 6 0.0000 0.0000 0.0000 0.0000 0.0000 16.3790
#
#
#
# Elastic Compliance Matrix: (Units=1/GPa)
#
#
# Indices 1 2 3 4 5 6 
#
# 1 0.022936 -0.007591 -0.006289 0.000000 0.000000 0.000000
# 2 -0.007591 0.022936 -0.006289 0.000000 0.000000 0.000000
# 3 -0.006289 -0.006289 0.014506 0.000000 0.000000 0.000000
# 4 0.000000 0.000000 0.000000 0.059093 0.000000 0.000000
# 5 0.000000 0.000000 0.000000 0.000000 0.059093 0.000000
# 6 0.000000 0.000000 0.000000 0.000000 0.000000 0.061054
#
#
# Mechanical properties :
#
#
# Convention : Reuss Voigt Hill
#
# Bulk Modulus (GPa) = 49.90061 53.82753 51.86407
# Shear Modulus (GPa) = 17.44379 17.97599 17.70989
#
# Velocity S-wave (km/s) = 3.53827 3.59184 3.56515
# Velocity P-wave (km/s) = 7.24610 7.47219 7.36001
#
# Compressibility (1/GPa) = 0.02003983
#
# Stress axis : x y z
#
# Youngs Moduli (GPa) = 43.59956 43.59956 68.93762
#
# Poissons Ratio (x) = 0.33096 0.43355
# Poissons Ratio (y) = 0.33096 0.43355
# Poissons Ratio (z) = 0.27420 0.27420
#
# Static dielectric constant tensor:
#      x y z
#    x 2.659720 0.000000 0.000000 
#    y 0.000000 2.659720 0.000000 
#    z 0.000000 0.000000 2.885930 
# 
# 
# High freq. dielectric constant tensor:
#      x y z
#    x 1.513020 0.000000 0.000000 
#    y 0.000000 1.513020 0.000000 
#    z 0.000000 0.000000 1.536340 
# 
# From -- ./inp_files/10022.got.cif
#   From: 2010.03.12/outbox.cif.g09.slc.cpg/sg191_6_cif.got.tgz:10022.got - 2010.04.01 12:09:02.
