data_PCOD8328794
_publ_section_title
;
Structure prediction by ZEFSAII (Michael W. Deem and Ramdas Pophale) SiO2 
 PCOD8328794
Probable space group: P 6/M M M
;
_chemical_formula_sum "Si O2"
_cell_formula_units_Z 108
_cell_length_a 17.607905
_cell_length_b 17.607905
_cell_length_c 25.354145
_cell_angle_alpha 90.000000
_cell_angle_beta 90.000000
_cell_angle_gamma 120.000000
_cell_volume 6807.614807
_symmetry_space_group_name_H-M "P 6/M M M"
_symmetry_group_IT_number 191
_symmetry_cell_setting 'hexagonal'
loop_
_space_group_symop_operation_xyz
x,y,z
x-y,x,z
-y,x-y,z
-x,-y,z
-x+y,-x,z
y,-x+y,z
x-y,-y,-z
-x,-x+y,-z
y,x,-z
-y,-x,-z
-x+y,y,-z
x,x-y,-z
-x,-y,-z
-x+y,-x,-z
y,-x+y,-z
x,y,-z
x-y,x,-z
-y,x-y,-z
-x+y,y,z
x,x-y,z
-y,-x,z
y,x,z
x-y,-y,z
-x,-x+y,z
loop_
_atom_site_type_symbol
_atom_site_label
_atom_site_fract_x
_atom_site_fract_y
_atom_site_fract_z
Si Si1 0.154691 0.487056 0.365721
Si Si2 0.160579 0.668799 0.056607
Si Si3 0.000000 0.410044 0.441146
Si Si4 0.634416 0.533638 0.166692
Si Si5 0.628614 0.730161 0.264947
O O1 0.248422 0.496843 0.377928
O O2 0.165498 0.582749 0.363517
O O3 0.114099 0.439269 0.310710
O O4 0.087741 0.426773 0.411280
O O5 0.142744 0.571372 0.056046
O O6 0.263790 0.736211 0.061318
O O7 0.113552 0.679062 0.108633
O O8 0.125008 0.684507 0.000000
O O9 0.000000 0.500000 0.443590
O O10 0.000000 0.374968 0.500000
O O11 0.573225 0.426776 0.169437
O O12 0.572637 0.572637 0.178650
O O13 0.708395 0.571655 0.211356
O O14 0.669993 0.834997 0.274591
O O15 0.706343 0.706343 0.261989
#
# Coordination Sequence:
#
# PCOD8328794 Si02
#       5
#    24  24  12  24  24
#     4  10  19  31  48  70  96 126 159 194 230 269
#     4   9  16  25  36  50  71 102 140 179 215 250
#     4   9  18  32  48  66  92 126 158 190 230 268
#     4   9  17  27  40  59  82 109 141 176 216 263
#     4  10  19  31  48  68  90 116 146 182 225 273
#
# _framework density 15.864587999999999
#
# number of rings (size 3 to 8) (size 9 to 14) (size 15 to 20)
#    0.000    2.556    1.111    1.778    0.000    2.667 
#    0.000    2.222    0.000    8.667    0.000    0.000 
#    0.000    0.000    0.000    0.000    0.000   10.111 
#
# Total GULP energy -1338006.294861 kJ/mol
# GULP energy per Si atom -12388.947175 kJ/mol
# Density = 1.582848 g / cm^3
# Si number density = 15.864588 Si / 1000 Ang^3
#
#
#
# Elastic Constant Matrix: (Units=GPa)
#
#
# Indices 1 2 3 4 5 6 
#
# 1 66.9361 35.6115 37.1671 0.0000 0.0000 0.0000
# 2 35.6115 66.9361 37.1671 0.0000 0.0000 0.0000
# 3 37.1671 37.1671 139.3718 0.0000 0.0000 0.0000
# 4 0.0000 0.0000 0.0000 14.2904 0.0000 0.0000
# 5 0.0000 0.0000 0.0000 0.0000 14.2904 0.0000
# 6 0.0000 0.0000 0.0000 0.0000 0.0000 15.6623
#
#
#
# Elastic Compliance Matrix: (Units=1/GPa)
#
#
# Indices 1 2 3 4 5 6 
#
# 1 0.022006 -0.009918 -0.003224 0.000000 0.000000 0.000000
# 2 -0.009918 0.022006 -0.003224 0.000000 0.000000 0.000000
# 3 -0.003224 -0.003224 0.008894 0.000000 0.000000 0.000000
# 4 0.000000 0.000000 0.000000 0.069977 0.000000 0.000000
# 5 0.000000 0.000000 0.000000 0.000000 0.069977 0.000000
# 6 0.000000 0.000000 0.000000 0.000000 0.000000 0.063848
#
#
# Mechanical properties :
#
#
# Convention : Reuss Voigt Hill
#
# Bulk Modulus (GPa) = 49.56286 54.79279 52.17783
# Shear Modulus (GPa) = 16.88255 19.73518 18.30887
#
# Velocity S-wave (km/s) = 3.26569 3.53083 3.40085
# Velocity P-wave (km/s) = 6.74750 7.15787 6.95571
#
# Compressibility (1/GPa) = 0.02017640
#
# Stress axis : x y z
#
# Youngs Moduli (GPa) = 45.44198 45.44198 112.43034
#
# Poissons Ratio (x) = 0.45068 0.36244
# Poissons Ratio (y) = 0.45068 0.36244
# Poissons Ratio (z) = 0.14649 0.14649
#
# Static dielectric constant tensor:
#      x y z
#    x 2.823060 0.000000 0.000000 
#    y 0.000000 2.823060 0.000000 
#    z 0.000000 0.000000 3.490300 
# 
# 
# High freq. dielectric constant tensor:
#      x y z
#    x 1.578760 0.000000 0.000000 
#    y 0.000000 1.578760 0.000000 
#    z 0.000000 0.000000 1.631900 
# 
# From -- ./inp_files/8320.got.cif
#   From: 2010.03.12/outbox.cif.g09.slc.cpg/sg191_5_cif.got.tgz:8320.got - 2010.04.01 12:09:02.
