data_PCOD8328382
_publ_section_title
;
Structure prediction by ZEFSAII (Michael W. Deem and Ramdas Pophale) SiO2 
 PCOD8328382
Probable space group: P 6/M M M
;
_chemical_formula_sum "Si O2"
_cell_formula_units_Z 180
_cell_length_a 20.918201
_cell_length_b 20.918201
_cell_length_c 31.230227
_cell_angle_alpha 90.000000
_cell_angle_beta 90.000000
_cell_angle_gamma 120.000000
_cell_volume 11834.623230
_symmetry_space_group_name_H-M "P 6/M M M"
_symmetry_group_IT_number 191
_symmetry_cell_setting 'hexagonal'
loop_
_space_group_symop_operation_xyz
x,y,z
x-y,x,z
-y,x-y,z
-x,-y,z
-x+y,-x,z
y,-x+y,z
x-y,-y,-z
-x,-x+y,-z
y,x,-z
-y,-x,-z
-x+y,y,-z
x,x-y,-z
-x,-y,-z
-x+y,-x,-z
y,-x+y,-z
x,y,-z
x-y,x,-z
-y,x-y,-z
-x+y,y,z
x,x-y,z
-y,-x,z
y,x,z
x-y,-y,z
-x,-x+y,z
loop_
_atom_site_type_symbol
_atom_site_label
_atom_site_fract_x
_atom_site_fract_y
_atom_site_fract_z
Si Si1 0.221286 0.918739 0.134092
Si Si2 0.382757 0.466076 0.338478
Si Si3 0.665319 0.182246 0.259811
Si Si4 0.485995 0.666293 0.580997
Si Si5 0.696750 0.151858 0.830237
Si Si6 0.083810 0.466386 0.500000
Si Si7 0.369187 0.082842 0.047197
Si Si8 0.813225 0.477772 0.917603
O O1 0.138921 0.861080 0.149791
O O2 0.282647 0.912048 0.162167
O O3 0.226891 0.901130 0.084187
O O4 0.233379 0.000000 0.140441
O O5 0.461825 0.538176 0.339898
O O6 0.395144 0.395144 0.340900
O O7 0.340199 0.463922 0.295100
O O8 0.334250 0.468350 0.377696
O O9 0.601501 0.203002 0.266140
O O10 0.743294 0.256706 0.263993
O O11 0.654498 0.141635 0.214275
O O12 0.482487 0.741244 0.579744
O O13 0.402264 0.597737 0.580820
O O14 0.533030 0.663032 0.541186
O O15 0.771682 0.228319 0.830183
O O16 0.647704 0.152020 0.869753
O O17 0.076339 0.538170 0.500000
O O18 0.000000 0.395524 0.500000
O O19 0.455718 0.139263 0.050382
O O20 0.354652 0.000000 0.052860
O O21 0.342769 0.092977 0.000000
O O22 0.729498 0.458995 0.916468
O O23 0.815325 0.407663 0.935718
#
# Coordination Sequence:
#
# PCOD8328382 Si02
#       8
#    24  24  24  24  24  12  24  24
#     4   9  17  30  48  68  88 109 134 164 198 236
#     4   9  18  30  41  54  76 108 142 173 209 258
#     4  10  18  28  43  63  86 110 139 177 222 265
#     4  10  18  28  42  60  81 103 133 175 221 260
#     4   8  16  29  43  60  81 106 136 168 200 237
#     4   9  17  28  42  58  78 107 136 162 200 254
#     4   9  18  32  48  63  79 102 133 169 204 236
#     4  10  19  30  43  59  81 108 136 166 203 248
#
# _framework density 15.20961
#
# number of rings (size 3 to 8) (size 9 to 14) (size 15 to 20)
#    0.000    2.733    0.000    3.000    0.000    3.733 
#    0.000    4.000    0.000    3.333    0.000    0.000 
#    0.000    0.000    0.000    3.333    0.000    0.000 
#
# Total GULP energy -2230979.924144 kJ/mol
# GULP energy per Si atom -12394.332912 kJ/mol
# Density = 1.517499 g / cm^3
# Si number density = 15.209610 Si / 1000 Ang^3
#
#
#
# Elastic Constant Matrix: (Units=GPa)
#
#
# Indices 1 2 3 4 5 6 
#
# 1 63.3809 39.9076 15.0714 0.0000 0.0000 0.0000
# 2 39.9076 63.3809 15.0714 0.0000 0.0000 0.0000
# 3 15.0714 15.0714 79.5160 0.0000 0.0000 0.0000
# 4 0.0000 0.0000 0.0000 17.3441 0.0000 0.0000
# 5 0.0000 0.0000 0.0000 0.0000 17.3441 0.0000
# 6 0.0000 0.0000 0.0000 0.0000 0.0000 11.7367
#
#
#
# Elastic Compliance Matrix: (Units=1/GPa)
#
#
# Indices 1 2 3 4 5 6 
#
# 1 0.026425 -0.016177 -0.001942 0.000000 0.000000 0.000000
# 2 -0.016177 0.026425 -0.001942 0.000000 0.000000 0.000000
# 3 -0.001942 -0.001942 0.013312 0.000000 0.000000 0.000000
# 4 0.000000 0.000000 0.000000 0.057656 0.000000 0.000000
# 5 0.000000 0.000000 0.000000 0.000000 0.057656 0.000000
# 6 0.000000 0.000000 0.000000 0.000000 0.000000 0.085203
#
#
# Mechanical properties :
#
#
# Convention : Reuss Voigt Hill
#
# Bulk Modulus (GPa) = 38.40322 38.48649 38.44486
# Shear Modulus (GPa) = 15.84881 18.36683 17.10782
#
# Velocity S-wave (km/s) = 3.23155 3.47880 3.35745
# Velocity P-wave (km/s) = 6.26322 6.44166 6.35307
#
# Compressibility (1/GPa) = 0.02603948
#
# Stress axis : x y z
#
# Youngs Moduli (GPa) = 37.84293 37.84293 75.11771
#
# Poissons Ratio (x) = 0.61217 0.14592
# Poissons Ratio (y) = 0.61217 0.14592
# Poissons Ratio (z) = 0.07351 0.07351
#
# Static dielectric constant tensor:
#      x y z
#    x 2.783860 0.000000 0.000000 
#    y 0.000000 2.783860 0.000000 
#    z 0.000000 0.000000 3.153680 
# 
# 
# High freq. dielectric constant tensor:
#      x y z
#    x 1.558970 0.000000 0.000000 
#    y 0.000000 1.558970 0.000000 
#    z 0.000000 0.000000 1.588230 
# 
# From -- ./inp_files/10899.got.cif
#   From: 2010.03.12/outbox.cif.g09.slc.cpg/sg191_6_cif.got.tgz:10899.got - 2010.04.01 12:09:02.
