data_PCOD8328025
_publ_section_title
;
Structure prediction by ZEFSAII (Michael W. Deem and Ramdas Pophale) SiO2 
 PCOD8328025
Probable space group: P -6 2 C
;
_chemical_formula_sum "Si O2"
_cell_formula_units_Z 60
_cell_length_a 18.764163
_cell_length_b 18.764163
_cell_length_c 10.427641
_cell_angle_alpha 90.000000
_cell_angle_beta 90.000000
_cell_angle_gamma 120.000000
_cell_volume 3179.619095
_symmetry_space_group_name_H-M "P -6 2 C"
_symmetry_group_IT_number 190
_symmetry_cell_setting 'hexagonal'
loop_
_space_group_symop_operation_xyz
x,y,z
-x+y,-x,1/2-z
-y,x-y,z
x,y,1/2-z
-x+y,-x,z
-y,x-y,1/2-z
x-y,-y,-z
-x,-x+y,-z
y,x,-z
y,x,1/2+z
x-y,-y,1/2+z
-x,-x+y,1/2+z
loop_
_atom_site_type_symbol
_atom_site_label
_atom_site_fract_x
_atom_site_fract_y
_atom_site_fract_z
Si Si1 0.094494 0.823159 0.250000
Si Si2 0.756516 0.763520 0.250000
Si Si3 0.101924 0.832797 0.750000
Si Si4 0.000000 0.337729 0.500000
Si Si5 0.503074 0.662451 0.900733
Si Si6 0.906358 0.655356 0.001926
Si Si7 0.668137 0.176922 0.100321
O O1 0.141844 0.921077 0.250000
O O2 0.129612 0.795644 0.369523
O O3 0.996742 0.789729 0.250000
O O4 0.849216 0.779906 0.250000
O O5 0.705087 0.716382 0.375139
O O6 0.135280 0.807408 0.874735
O O7 0.917806 0.345154 0.481051
O O8 0.519972 0.658767 0.750000
O O9 0.496490 0.742297 0.935423
O O10 0.412767 0.590663 0.943256
O O11 0.895522 0.565201 0.018897
O O12 0.000000 0.724068 0.000000
O O13 0.662715 0.157533 0.250000
#
# Coordination Sequence:
#
# PCOD8328025 Si02
#       7
#     6   6   6   6  12  12  12
#     4  10  22  36  55  88 113 145 196 239 292 355
#     4  12  22  38  62  82 120 160 186 248 310 346
#     4  10  20  38  57  82 109 147 202 233 284 359
#     4  12  24  38  60  90 126 152 206 244 306 364
#     4  10  21  37  57  89 117 155 198 248 291 357
#     4  10  20  35  57  81 111 146 192 241 284 337
#     4  10  19  35  60  81 116 151 196 237 296 341
#
# _framework density 18.870184999999999
#
# number of rings (size 3 to 8) (size 9 to 14) (size 15 to 20)
#    0.000    1.600    2.000    4.000    1.400    1.600 
#    0.600    1.000    0.000    0.000    0.000    2.800 
#    0.000    0.000    0.000    0.000    0.000    0.000 
#
# Total GULP energy -743572.150205 kJ/mol
# GULP energy per Si atom -12392.869170 kJ/mol
# Density = 1.882724 g / cm^3
# Si number density = 18.870185 Si / 1000 Ang^3
#
#
#
# Elastic Constant Matrix: (Units=GPa)
#
#
# Indices 1 2 3 4 5 6 
#
# 1 95.4422 34.2900 41.5766 0.0000 0.0000 0.0000
# 2 34.2900 95.4422 41.5766 0.0000 0.0000 0.0000
# 3 41.5766 41.5766 120.0505 0.0000 0.0000 0.0000
# 4 0.0000 0.0000 0.0000 16.1158 0.0000 0.0000
# 5 0.0000 0.0000 0.0000 0.0000 16.1158 0.0000
# 6 0.0000 0.0000 0.0000 0.0000 0.0000 30.5761
#
#
#
# Elastic Compliance Matrix: (Units=1/GPa)
#
#
# Indices 1 2 3 4 5 6 
#
# 1 0.013130 -0.003223 -0.003431 0.000000 0.000000 0.000000
# 2 -0.003223 0.013130 -0.003431 0.000000 0.000000 0.000000
# 3 -0.003431 -0.003431 0.010706 0.000000 0.000000 0.000000
# 4 0.000000 0.000000 0.000000 0.062051 0.000000 0.000000
# 5 0.000000 0.000000 0.000000 0.000000 0.062051 0.000000
# 6 0.000000 0.000000 0.000000 0.000000 0.000000 0.032705
#
#
# Mechanical properties :
#
#
# Convention : Reuss Voigt Hill
#
# Bulk Modulus (GPa) = 59.53608 60.64682 60.09145
# Shear Modulus (GPa) = 22.77459 25.46095 24.11777
#
# Velocity S-wave (km/s) = 3.47783 3.67722 3.57891
# Velocity P-wave (km/s) = 6.90984 7.08788 6.99943
#
# Compressibility (1/GPa) = 0.01679654
#
# Stress axis : x y z
#
# Youngs Moduli (GPa) = 76.16111 76.16111 93.40149
#
# Poissons Ratio (x) = 0.24544 0.32048
# Poissons Ratio (y) = 0.24544 0.32048
# Poissons Ratio (z) = 0.26133 0.26133
#
# Static dielectric constant tensor:
#      x y z
#    x 3.550970 0.000000 0.000000 
#    y 0.000000 3.550970 0.000000 
#    z 0.000000 0.000000 4.103030 
# 
# 
# High freq. dielectric constant tensor:
#      x y z
#    x 1.735720 0.000000 0.000000 
#    y 0.000000 1.735720 0.000000 
#    z 0.000000 0.000000 1.727980 
# 
# From -- ./inp_files/2031.got.cif
#   From: 2010.06.25/outbox.cif.g09.slc.cpg/sg190_2_cif.got.tgz:2031.got - 2010.06.28 13:08:06.
