data_PCOD8328659
_publ_section_title
;
Structure prediction by ZEFSAII (Michael W. Deem and Ramdas Pophale) SiO2 
 PCOD8328659
Probable space group: P 6/M M M
;
_chemical_formula_sum "Si O2"
_cell_formula_units_Z 168
_cell_length_a 18.713214
_cell_length_b 18.713214
_cell_length_c 35.068013
_cell_angle_alpha 90.000000
_cell_angle_beta 90.000000
_cell_angle_gamma 120.000000
_cell_volume 10635.026069
_symmetry_space_group_name_H-M "P 6/M M M"
_symmetry_group_IT_number 191
_symmetry_cell_setting 'hexagonal'
loop_
_space_group_symop_operation_xyz
x,y,z
x-y,x,z
-y,x-y,z
-x,-y,z
-x+y,-x,z
y,-x+y,z
x-y,-y,-z
-x,-x+y,-z
y,x,-z
-y,-x,-z
-x+y,y,-z
x,x-y,-z
-x,-y,-z
-x+y,-x,-z
y,-x+y,-z
x,y,-z
x-y,x,-z
-y,x-y,-z
-x+y,y,z
x,x-y,z
-y,-x,z
y,x,z
x-y,-y,z
-x,-x+y,z
loop_
_atom_site_type_symbol
_atom_site_label
_atom_site_fract_x
_atom_site_fract_y
_atom_site_fract_z
Si Si1 0.169229 0.502775 0.543916
Si Si2 0.755126 0.665442 0.679779
Si Si3 0.093667 0.351636 0.596576
Si Si4 0.498128 0.667833 0.905293
Si Si5 0.256718 0.905334 0.762896
Si Si6 0.904744 0.371603 0.174977
Si Si7 0.907393 0.253537 0.044238
O O1 0.144398 0.479184 0.500000
O O2 0.263227 0.526454 0.551179
O O3 0.160129 0.580065 0.556301
O O4 0.107056 0.425410 0.569174
O O5 0.852776 0.705551 0.679882
O O6 0.744765 0.744765 0.679711
O O7 0.718158 0.614075 0.640444
O O8 0.717346 0.614291 0.719150
O O9 0.161548 0.323096 0.588031
O O10 0.000000 0.275586 0.590059
O O11 0.470454 0.735227 0.912878
O O12 0.422517 0.577484 0.914340
O O13 0.527557 0.676088 0.861716
O O14 0.572811 0.683109 0.932711
O O15 0.158835 0.841166 0.769538
O O16 0.308535 0.879521 0.790113
O O17 0.278542 0.000000 0.770907
O O18 0.885605 0.442803 0.187938
O O19 0.000000 0.409923 0.163779
O O20 0.841476 0.158525 0.055486
O O21 0.000000 0.272306 0.053772
O O22 0.899091 0.269082 0.000000
#
# Coordination Sequence:
#
# PCOD8328659 Si02
#       7
#    24  24  24  24  24  24  24
#     4   9  17  29  45  64  86 112 140 169 202 242
#     4   8  14  25  41  59  79 105 137 172 208 247
#     4   9  17  29  44  62  84 110 140 173 210 250
#     4  10  19  30  44  63  88 117 148 181 216 252
#     4   9  16  27  44  64  85 110 141 175 210 250
#     4   9  17  28  42  61  84 110 142 180 218 253
#     4   9  18  32  49  68  89 114 144 177 213 253
#
# _framework density 15.796858
#
# number of rings (size 3 to 8) (size 9 to 14) (size 15 to 20)
#    0.000    3.000    0.000    1.143    0.000    2.286 
#    0.000    2.143    0.000    4.286    0.000    5.000 
#    0.000    0.000    0.000    8.143    0.000   10.000 
#
# Total GULP energy -2081418.929811 kJ/mol
# GULP energy per Si atom -12389.398392 kJ/mol
# Density = 1.576090 g / cm^3
# Si number density = 15.796858 Si / 1000 Ang^3
#
#
#
# Elastic Constant Matrix: (Units=GPa)
#
#
# Indices 1 2 3 4 5 6 
#
# 1 86.7803 55.1569 50.5277 0.0000 0.0000 0.0000
# 2 55.1569 86.7803 50.5277 0.0000 0.0000 0.0000
# 3 50.5277 50.5277 78.2413 0.0000 0.0000 0.0000
# 4 0.0000 0.0000 0.0000 23.0082 0.0000 0.0000
# 5 0.0000 0.0000 0.0000 0.0000 23.0082 0.0000
# 6 0.0000 0.0000 0.0000 0.0000 0.0000 15.8117
#
#
#
# Elastic Compliance Matrix: (Units=1/GPa)
#
#
# Indices 1 2 3 4 5 6 
#
# 1 0.022332 -0.009290 -0.008422 0.000000 0.000000 0.000000
# 2 -0.009290 0.022332 -0.008422 0.000000 0.000000 0.000000
# 3 -0.008422 -0.008422 0.023659 0.000000 0.000000 0.000000
# 4 0.000000 0.000000 0.000000 0.043463 0.000000 0.000000
# 5 0.000000 0.000000 0.000000 0.000000 0.043463 0.000000
# 6 0.000000 0.000000 0.000000 0.000000 0.000000 0.063244
#
#
# Mechanical properties :
#
#
# Convention : Reuss Voigt Hill
#
# Bulk Modulus (GPa) = 62.29174 62.69185 62.49180
# Shear Modulus (GPa) = 18.10847 18.73826 18.42337
#
# Velocity S-wave (km/s) = 3.38943 3.44786 3.41877
# Velocity P-wave (km/s) = 7.40515 7.45807 7.43166
#
# Compressibility (1/GPa) = 0.01605349
#
# Stress axis : x y z
#
# Youngs Moduli (GPa) = 44.77878 44.77878 42.26698
#
# Poissons Ratio (x) = 0.41600 0.35599
# Poissons Ratio (y) = 0.41600 0.35599
# Poissons Ratio (z) = 0.37714 0.37714
#
# Static dielectric constant tensor:
#      x y z
#    x 2.965300 0.000000 0.000000 
#    y 0.000000 2.965300 0.000000 
#    z 0.000000 0.000000 3.234650 
# 
# 
# High freq. dielectric constant tensor:
#      x y z
#    x 1.592250 0.000000 0.000000 
#    y 0.000000 1.592250 0.000000 
#    z 0.000000 0.000000 1.618230 
# 
# From -- ./inp_files/10739.got.cif
#   From: 2010.03.12/outbox.cif.g09.slc.cpg/sg191_6_cif.got.tgz:10739.got - 2010.04.01 12:09:02.
