data_PCOD8328622
_publ_section_title
;
Structure prediction by ZEFSAII (Michael W. Deem and Ramdas Pophale) SiO2 
 PCOD8328622
Probable space group: P 6/M M M
;
_chemical_formula_sum "Si O2"
_cell_formula_units_Z 108
_cell_length_a 18.009644
_cell_length_b 18.009644
_cell_length_c 22.856110
_cell_angle_alpha 90.000000
_cell_angle_beta 90.000000
_cell_angle_gamma 120.000000
_cell_volume 6420.120884
_symmetry_space_group_name_H-M "P 6/M M M"
_symmetry_group_IT_number 191
_symmetry_cell_setting 'hexagonal'
loop_
_space_group_symop_operation_xyz
x,y,z
x-y,x,z
-y,x-y,z
-x,-y,z
-x+y,-x,z
y,-x+y,z
x-y,-y,-z
-x,-x+y,-z
y,x,-z
-y,-x,-z
-x+y,y,-z
x,x-y,-z
-x,-y,-z
-x+y,-x,-z
y,-x+y,-z
x,y,-z
x-y,x,-z
-y,x-y,-z
-x+y,y,z
x,x-y,z
-y,-x,z
y,x,z
x-y,-y,z
-x,-x+y,z
loop_
_atom_site_type_symbol
_atom_site_label
_atom_site_fract_x
_atom_site_fract_y
_atom_site_fract_z
Si Si1 0.902328 0.263146 0.163098
Si Si2 0.367153 0.898618 0.604381
Si Si3 0.100646 0.738191 0.500000
Si Si4 0.468293 0.101620 0.265886
Si Si5 0.333540 0.496326 0.067070
O O1 0.839428 0.160573 0.155910
O O2 0.866289 0.291849 0.218208
O O3 0.899158 0.313595 0.105999
O O4 0.000000 0.283813 0.171687
O O5 0.430650 0.861299 0.589764
O O6 0.293487 0.869599 0.556461
O O7 0.326517 0.867630 0.669151
O O8 0.423404 0.000000 0.603180
O O9 0.157806 0.842195 0.500000
O O10 0.000000 0.708853 0.500000
O O11 0.569044 0.138088 0.251853
O O12 0.420609 0.000000 0.263324
O O13 0.261554 0.523108 0.076537
O O14 0.424207 0.575794 0.086389
O O15 0.336123 0.471023 0.000000
#
# Coordination Sequence:
#
# PCOD8328622 Si02
#       5
#    24  24  12  24  24
#     4  10  20  32  46  65  89 117 151 192 234 270
#     4   8  14  26  45  67  88 110 137 170 211 261
#     4  10  19  29  43  64  89 117 152 194 235 273
#     4   8  14  26  45  68  91 112 135 166 207 259
#     4   9  17  29  46  69  97 126 151 174 205 252
#
# _framework density 16.822113999999999
#
# number of rings (size 3 to 8) (size 9 to 14) (size 15 to 20)
#    0.000    3.111    0.000    2.556    0.000    4.889 
#    0.000    1.111    0.000    2.556    0.000    0.000 
#    0.000    0.000    0.000   16.667    0.000    0.000 
#
# Total GULP energy -1338359.278356 kJ/mol
# GULP energy per Si atom -12392.215540 kJ/mol
# Density = 1.678383 g / cm^3
# Si number density = 16.822114 Si / 1000 Ang^3
#
#
#
# Elastic Constant Matrix: (Units=GPa)
#
#
# Indices 1 2 3 4 5 6 
#
# 1 71.0280 40.4420 34.2127 0.0000 0.0000 0.0000
# 2 40.4420 71.0280 34.2127 0.0000 0.0000 0.0000
# 3 34.2127 34.2127 94.0608 0.0000 0.0000 0.0000
# 4 0.0000 0.0000 0.0000 14.3544 0.0000 0.0000
# 5 0.0000 0.0000 0.0000 0.0000 14.3544 0.0000
# 6 0.0000 0.0000 0.0000 0.0000 0.0000 15.2930
#
#
#
# Elastic Compliance Matrix: (Units=1/GPa)
#
#
# Indices 1 2 3 4 5 6 
#
# 1 0.022122 -0.010572 -0.004201 0.000000 0.000000 0.000000
# 2 -0.010572 0.022122 -0.004201 0.000000 0.000000 0.000000
# 3 -0.004201 -0.004201 0.013687 0.000000 0.000000 0.000000
# 4 0.000000 0.000000 0.000000 0.069665 0.000000 0.000000
# 5 0.000000 0.000000 0.000000 0.000000 0.069665 0.000000
# 6 0.000000 0.000000 0.000000 0.000000 0.000000 0.065389
#
#
# Mechanical properties :
#
#
# Convention : Reuss Voigt Hill
#
# Bulk Modulus (GPa) = 50.04239 50.42795 50.23517
# Shear Modulus (GPa) = 16.27283 17.28368 16.77826
#
# Velocity S-wave (km/s) = 3.11360 3.20885 3.16158
# Velocity P-wave (km/s) = 6.53747 6.61598 6.57684
#
# Compressibility (1/GPa) = 0.01998306
#
# Stress axis : x y z
#
# Youngs Moduli (GPa) = 45.20344 45.20344 73.05946
#
# Poissons Ratio (x) = 0.47791 0.30692
# Poissons Ratio (y) = 0.47791 0.30692
# Poissons Ratio (z) = 0.18990 0.18990
#
# Static dielectric constant tensor:
#      x y z
#    x 2.853130 0.000000 0.000000 
#    y 0.000000 2.853130 0.000000 
#    z 0.000000 0.000000 3.587620 
# 
# 
# High freq. dielectric constant tensor:
#      x y z
#    x 1.614520 0.000000 0.000000 
#    y 0.000000 1.614520 0.000000 
#    z 0.000000 0.000000 1.667330 
# 
# From -- ./inp_files/8315.got.cif
#   From: 2010.03.12/outbox.cif.g09.slc.cpg/sg191_5_cif.got.tgz:8315.got - 2010.04.01 12:09:02.
