data_PCOD8328243
_publ_section_title
;
Structure prediction by ZEFSAII (Michael W. Deem and Ramdas Pophale) SiO2 
 PCOD8328243
Probable space group: P 6/M M M
;
_chemical_formula_sum "Si O2"
_cell_formula_units_Z 108
_cell_length_a 31.036097
_cell_length_b 31.036097
_cell_length_c 7.984626
_cell_angle_alpha 90.000000
_cell_angle_beta 90.000000
_cell_angle_gamma 120.000000
_cell_volume 6660.692915
_symmetry_space_group_name_H-M "P 6/M M M"
_symmetry_group_IT_number 191
_symmetry_cell_setting 'hexagonal'
loop_
_space_group_symop_operation_xyz
x,y,z
x-y,x,z
-y,x-y,z
-x,-y,z
-x+y,-x,z
y,-x+y,z
x-y,-y,-z
-x,-x+y,-z
y,x,-z
-y,-x,-z
-x+y,y,-z
x,x-y,-z
-x,-y,-z
-x+y,-x,-z
y,-x+y,-z
x,y,-z
x-y,x,-z
-y,x-y,-z
-x+y,y,z
x,x-y,z
-y,-x,z
y,x,z
x-y,-y,z
-x,-x+y,z
loop_
_atom_site_type_symbol
_atom_site_label
_atom_site_fract_x
_atom_site_fract_y
_atom_site_fract_z
Si Si1 0.401111 0.295791 0.194468
Si Si2 0.000000 0.248654 0.692697
Si Si3 0.104181 0.800881 0.804779
Si Si4 0.198821 0.496605 0.688888
Si Si5 0.667011 0.232335 0.000000
Si Si6 0.000000 0.349065 0.305045
O O1 0.353108 0.246370 0.268703
O O2 0.448478 0.303769 0.297430
O O3 0.393660 0.343514 0.222910
O O4 0.409784 0.290131 0.000000
O O5 0.050766 0.254214 0.768376
O O6 0.000000 0.298757 0.737393
O O7 0.000000 0.238184 0.500000
O O8 0.148177 0.851824 0.723814
O O9 0.112371 0.801855 0.000000
O O10 0.204226 0.518741 0.500000
O O11 0.240308 0.480616 0.720104
O O12 0.204650 0.536015 0.830661
O O13 0.711060 0.288941 0.000000
O O14 0.615747 0.231493 0.000000
O O15 0.000000 0.359373 0.500000
#
# Coordination Sequence:
#
# PCOD8328243 Si02
#       6
#    24  12  24  24  12  12
#     4  10  17  28  45  67  96 128 162 198 235 275
#     4   9  17  27  37  53  81 113 149 193 230 270
#     4   9  17  27  41  59  82 117 156 191 229 272
#     4  10  20  33  51  76 103 129 158 196 240 283
#     4  10  21  38  58  79 103 129 157 189 230 282
#     4   9  17  27  39  61  93 128 164 197 232 273
#
# _framework density 16.214528999999999
#
# number of rings (size 3 to 8) (size 9 to 14) (size 15 to 20)
#    0.000    2.444    1.111    2.111    0.000    5.333 
#    0.000    0.000    0.000    1.333    0.000    1.556 
#    0.000    2.667    0.000    0.333    0.000    6.444 
#
# Total GULP energy -1338693.514129 kJ/mol
# GULP energy per Si atom -12395.310316 kJ/mol
# Density = 1.617762 g / cm^3
# Si number density = 16.214529 Si / 1000 Ang^3
#
#
#
# Elastic Constant Matrix: (Units=GPa)
#
#
# Indices 1 2 3 4 5 6 
#
# 1 69.8333 65.2004 40.1892 0.0000 0.0000 0.0000
# 2 65.2004 69.8333 40.1892 0.0000 0.0000 0.0000
# 3 40.1892 40.1892 47.3856 0.0000 0.0000 0.0000
# 4 0.0000 0.0000 0.0000 17.3419 0.0000 0.0000
# 5 0.0000 0.0000 0.0000 0.0000 17.3419 0.0000
# 6 0.0000 0.0000 0.0000 0.0000 0.0000 2.3164
#
#
#
# Elastic Compliance Matrix: (Units=1/GPa)
#
#
# Indices 1 2 3 4 5 6 
#
# 1 0.115403 -0.100446 -0.012685 0.000000 0.000000 0.000000
# 2 -0.100446 0.115403 -0.012685 0.000000 0.000000 0.000000
# 3 -0.012685 -0.012685 0.042620 0.000000 0.000000 0.000000
# 4 0.000000 0.000000 0.000000 0.057664 0.000000 0.000000
# 5 0.000000 0.000000 0.000000 0.000000 0.057664 0.000000
# 6 0.000000 0.000000 0.000000 0.000000 0.000000 0.431699
#
#
# Mechanical properties :
#
#
# Convention : Reuss Voigt Hill
#
# Bulk Modulus (GPa) = 45.88555 53.13443 49.50999
# Shear Modulus (GPa) = 4.63243 10.16495 7.39869
#
# Velocity S-wave (km/s) = 1.69209 2.50652 2.13843
# Velocity P-wave (km/s) = 5.67257 6.42010 6.05787
#
# Compressibility (1/GPa) = 0.02179335
#
# Stress axis : x y z
#
# Youngs Moduli (GPa) = 8.66532 8.66532 23.46312
#
# Poissons Ratio (x) = 0.87040 0.29762
# Poissons Ratio (y) = 0.87040 0.29762
# Poissons Ratio (z) = 0.10992 0.10992
#
# Static dielectric constant tensor:
#      x y z
#    x 2.947930 0.000000 0.000000 
#    y 0.000000 2.947930 0.000000 
#    z 0.000000 0.000000 3.105180 
# 
# 
# High freq. dielectric constant tensor:
#      x y z
#    x 1.595240 0.000000 0.000000 
#    y 0.000000 1.595240 0.000000 
#    z 0.000000 0.000000 1.635080 
# 
# From -- ./inp_files/1766.got.cif
#   From: 2010.03.12/outbox.cif.g09.slc.cpg/sg191_1_cif.got.tgz:1766.got - 2010.04.01 12:09:02.
