data_PCOD8328633
_publ_section_title
;
Structure prediction by ZEFSAII (Michael W. Deem and Ramdas Pophale) SiO2 
 PCOD8328633
Probable space group: P 6/M M M
;
_chemical_formula_sum "Si O2"
_cell_formula_units_Z 132
_cell_length_a 17.884948
_cell_length_b 17.884948
_cell_length_c 27.391015
_cell_angle_alpha 90.000000
_cell_angle_beta 90.000000
_cell_angle_gamma 120.000000
_cell_volume 7587.769352
_symmetry_space_group_name_H-M "P 6/M M M"
_symmetry_group_IT_number 191
_symmetry_cell_setting 'hexagonal'
loop_
_space_group_symop_operation_xyz
x,y,z
x-y,x,z
-y,x-y,z
-x,-y,z
-x+y,-x,z
y,-x+y,z
x-y,-y,-z
-x,-x+y,-z
y,x,-z
-y,-x,-z
-x+y,y,-z
x,x-y,-z
-x,-y,-z
-x+y,-x,-z
y,-x+y,-z
x,y,-z
x-y,x,-z
-y,x-y,-z
-x+y,y,z
x,x-y,z
-y,-x,z
y,x,z
x-y,-y,z
-x,-x+y,z
loop_
_atom_site_type_symbol
_atom_site_label
_atom_site_fract_x
_atom_site_fract_y
_atom_site_fract_z
Si Si1 0.491846 0.331391 0.500000
Si Si2 0.195445 0.390890 0.942155
Si Si3 0.834066 0.503431 0.673722
Si Si4 0.805267 0.902634 0.058122
Si Si5 0.102400 0.636239 0.117867
Si Si6 0.459048 0.364251 0.775487
Si Si7 0.366869 0.097545 0.589807
O O1 0.573484 0.426517 0.500000
O O2 0.524427 0.262214 0.500000
O O3 0.434803 0.319750 0.452746
O O4 0.146329 0.292657 0.922787
O O5 0.146296 0.439117 0.923544
O O6 0.197158 0.394315 0.000000
O O7 0.734350 0.468699 0.659544
O O8 0.857068 0.428534 0.664891
O O9 0.845417 0.533823 0.730095
O O10 0.895507 0.585128 0.640627
O O11 0.853531 0.853531 0.078759
O O12 0.807519 0.903760 0.000000
O O13 0.132873 0.566437 0.109424
O O14 0.131898 0.680470 0.171861
O O15 0.000000 0.591476 0.113245
O O16 0.542796 0.457205 0.778684
O O17 0.376601 0.376601 0.766563
O O18 0.332711 0.166356 0.587114
O O19 0.285864 0.000000 0.585236
#
# Coordination Sequence:
#
# PCOD8328633 Si02
#       7
#    12  12  24  12  24  24  24
#     4  10  20  33  50  73 106 148 187 218 248 287
#     4  11  22  33  50  75 100 126 163 207 242 289
#     4  10  19  29  45  71 104 137 169 204 243 287
#     4   9  17  30  49  74 102 128 154 189 239 296
#     4   9  19  36  54  71  95 130 167 203 249 296
#     4   8  15  29  48  67  88 120 163 207 247 289
#     4  10  21  35  51  73 100 133 173 218 265 310
#
# _framework density 17.396417
#
# number of rings (size 3 to 8) (size 9 to 14) (size 15 to 20)
#    0.000    2.545    0.000    3.364    1.273    4.364 
#    0.545    2.727    0.000    0.182    0.000    0.000 
#    0.000    2.182    0.000    0.000    0.000    0.000 
#
# Total GULP energy -1636221.955373 kJ/mol
# GULP energy per Si atom -12395.620874 kJ/mol
# Density = 1.735682 g / cm^3
# Si number density = 17.396417 Si / 1000 Ang^3
#
#
#
# Elastic Constant Matrix: (Units=GPa)
#
#
# Indices 1 2 3 4 5 6 
#
# 1 94.0323 57.3982 37.1611 0.0000 0.0000 0.0000
# 2 57.3982 94.0323 37.1611 0.0000 0.0000 0.0000
# 3 37.1611 37.1611 93.9714 0.0000 0.0000 0.0000
# 4 0.0000 0.0000 0.0000 18.6912 0.0000 0.0000
# 5 0.0000 0.0000 0.0000 0.0000 18.6912 0.0000
# 6 0.0000 0.0000 0.0000 0.0000 0.0000 18.3171
#
#
#
# Elastic Compliance Matrix: (Units=1/GPa)
#
#
# Indices 1 2 3 4 5 6 
#
# 1 0.017746 -0.009551 -0.003240 0.000000 0.000000 0.000000
# 2 -0.009551 0.017746 -0.003240 0.000000 0.000000 0.000000
# 3 -0.003240 -0.003240 0.013204 0.000000 0.000000 0.000000
# 4 0.000000 0.000000 0.000000 0.053501 0.000000 0.000000
# 5 0.000000 0.000000 0.000000 0.000000 0.053501 0.000000
# 6 0.000000 0.000000 0.000000 0.000000 0.000000 0.054594
#
#
# Mechanical properties :
#
#
# Convention : Reuss Voigt Hill
#
# Bulk Modulus (GPa) = 60.12848 60.60852 60.36850
# Shear Modulus (GPa) = 20.16946 21.16093 20.66519
#
# Velocity S-wave (km/s) = 3.40869 3.49147 3.45033
# Velocity P-wave (km/s) = 7.08033 7.15326 7.11689
#
# Compressibility (1/GPa) = 0.01663105
#
# Stress axis : x y z
#
# Youngs Moduli (GPa) = 56.35230 56.35230 75.73268
#
# Poissons Ratio (x) = 0.53825 0.24540
# Poissons Ratio (y) = 0.53825 0.24540
# Poissons Ratio (z) = 0.18260 0.18260
#
# Static dielectric constant tensor:
#      x y z
#    x 3.107580 0.000000 0.000000 
#    y 0.000000 3.107580 0.000000 
#    z 0.000000 0.000000 3.436650 
# 
# 
# High freq. dielectric constant tensor:
#      x y z
#    x 1.654420 0.000000 0.000000 
#    y 0.000000 1.654420 0.000000 
#    z 0.000000 0.000000 1.677070 
# 
# From -- ./inp_files/9880.got.cif
#   From: 2010.03.12/outbox.cif.g09.slc.cpg/sg191_5_cif.got.tgz:9880.got - 2010.04.01 12:09:02.
