data_PCOD8328977
_publ_section_title
;
Structure prediction by ZEFSAII (Michael W. Deem and Ramdas Pophale) SiO2 
 PCOD8328977
Probable space group: P 6/M M M
;
_chemical_formula_sum "Si O2"
_cell_formula_units_Z 168
_cell_length_a 22.980556
_cell_length_b 22.980556
_cell_length_c 20.937584
_cell_angle_alpha 90.000000
_cell_angle_beta 90.000000
_cell_angle_gamma 120.000000
_cell_volume 9575.870459
_symmetry_space_group_name_H-M "P 6/M M M"
_symmetry_group_IT_number 191
_symmetry_cell_setting 'hexagonal'
loop_
_space_group_symop_operation_xyz
x,y,z
x-y,x,z
-y,x-y,z
-x,-y,z
-x+y,-x,z
y,-x+y,z
x-y,-y,-z
-x,-x+y,-z
y,x,-z
-y,-x,-z
-x+y,y,-z
x,x-y,-z
-x,-y,-z
-x+y,-x,-z
y,-x+y,-z
x,y,-z
x-y,x,-z
-y,x-y,-z
-x+y,y,z
x,x-y,z
-y,-x,z
y,x,z
x-y,-y,z
-x,-x+y,z
loop_
_atom_site_type_symbol
_atom_site_label
_atom_site_fract_x
_atom_site_fract_y
_atom_site_fract_z
Si Si1 0.378622 0.255022 0.429177
Si Si2 0.473932 0.397007 0.756990
Si Si3 0.396170 0.319765 0.928319
Si Si4 0.525442 0.602416 0.606731
Si Si5 0.717392 0.925712 0.686382
Si Si6 0.379409 0.256657 0.804239
Si Si7 0.203066 0.536831 0.074727
O O1 0.346037 0.244621 0.500000
O O2 0.400741 0.200371 0.414844
O O3 0.446802 0.326354 0.427209
O O4 0.325859 0.248514 0.375457
O O5 0.549634 0.450367 0.779564
O O6 0.423639 0.423639 0.776874
O O7 0.472761 0.387623 0.681838
O O8 0.448518 0.325533 0.789954
O O9 0.381840 0.381840 0.923091
O O10 0.352487 0.263596 0.874367
O O11 0.473743 0.344822 0.912345
O O12 0.377233 0.288147 0.000000
O O13 0.449117 0.550884 0.584179
O O14 0.572786 0.572786 0.586424
O O15 0.741078 0.870539 0.682617
O O16 0.675714 0.917793 0.750439
O O17 0.782909 0.000000 0.687537
O O18 0.398817 0.199409 0.805471
O O19 0.262581 0.525163 0.103275
O O20 0.207069 0.603535 0.105373
O O21 0.214633 0.547814 0.000000
#
# Coordination Sequence:
#
# PCOD8328977 Si02
#       7
#    24  24  24  24  24  24  24
#     4  10  20  32  48  73 105 138 168 204 252 299
#     4   9  17  30  49  72  98 128 163 204 246 291
#     4  10  21  35  50  69  95 127 164 209 256 300
#     4   9  17  29  47  71  97 127 164 208 254 293
#     4  10  20  34  53  77 103 131 164 199 238 290
#     4  11  21  33  53  75  97 129 165 204 250 299
#     4   9  17  30  48  69  94 124 158 197 242 292
#
# _framework density 17.544096
#
# number of rings (size 3 to 8) (size 9 to 14) (size 15 to 20)
#    0.000    2.286    1.429    3.143    0.000    3.714 
#    0.000    2.143    0.000    0.714    0.000    0.000 
#    0.000    0.000    0.000    3.571    0.000    0.000 
#
# Total GULP energy -2082043.247153 kJ/mol
# GULP energy per Si atom -12393.114566 kJ/mol
# Density = 1.750417 g / cm^3
# Si number density = 17.544096 Si / 1000 Ang^3
#
#
#
# Elastic Constant Matrix: (Units=GPa)
#
#
# Indices 1 2 3 4 5 6 
#
# 1 109.3865 58.4276 37.9924 0.0000 0.0000 0.0000
# 2 58.4276 109.3865 37.9924 0.0000 0.0000 0.0000
# 3 37.9924 37.9924 93.3620 0.0000 0.0000 0.0000
# 4 0.0000 0.0000 0.0000 15.7181 0.0000 0.0000
# 5 0.0000 0.0000 0.0000 0.0000 15.7181 0.0000
# 6 0.0000 0.0000 0.0000 0.0000 0.0000 25.4794
#
#
#
# Elastic Compliance Matrix: (Units=1/GPa)
#
#
# Indices 1 2 3 4 5 6 
#
# 1 0.013464 -0.006159 -0.002973 0.000000 0.000000 0.000000
# 2 -0.006159 0.013464 -0.002973 0.000000 0.000000 0.000000
# 3 -0.002973 -0.002973 0.013130 0.000000 0.000000 0.000000
# 4 0.000000 0.000000 0.000000 0.063621 0.000000 0.000000
# 5 0.000000 0.000000 0.000000 0.000000 0.063621 0.000000
# 6 0.000000 0.000000 0.000000 0.000000 0.000000 0.039247
#
#
# Mechanical properties :
#
#
# Convention : Reuss Voigt Hill
#
# Bulk Modulus (GPa) = 63.09280 64.55109 63.82195
# Shear Modulus (GPa) = 21.18275 23.23128 22.20702
#
# Velocity S-wave (km/s) = 3.47854 3.64286 3.56164
# Velocity P-wave (km/s) = 7.22316 7.38697 7.30553
#
# Compressibility (1/GPa) = 0.01584967
#
# Stress axis : x y z
#
# Youngs Moduli (GPa) = 74.27039 74.27039 76.15936
#
# Poissons Ratio (x) = 0.45746 0.22640
# Poissons Ratio (y) = 0.45746 0.22640
# Poissons Ratio (z) = 0.22078 0.22078
#
# Static dielectric constant tensor:
#      x y z
#    x 3.198000 0.000000 0.000000 
#    y 0.000000 3.198000 0.000000 
#    z 0.000000 0.000000 3.518580 
# 
# 
# High freq. dielectric constant tensor:
#      x y z
#    x 1.655430 0.000000 0.000000 
#    y 0.000000 1.655430 0.000000 
#    z 0.000000 0.000000 1.692440 
# 
# From -- ./inp_files/7906.got.cif
#   From: 2010.03.12/outbox.cif.g09.slc.cpg/sg191_4_cif.got.tgz:7906.got - 2010.04.01 12:09:02.
