data_PCOD8328395
_publ_section_title
;
Structure prediction by ZEFSAII (Michael W. Deem and Ramdas Pophale) SiO2 
 PCOD8328395
Probable space group: P 6/M M M
;
_chemical_formula_sum "Si O2"
_cell_formula_units_Z 192
_cell_length_a 22.743698
_cell_length_b 22.743698
_cell_length_c 30.121566
_cell_angle_alpha 90.000000
_cell_angle_beta 90.000000
_cell_angle_gamma 120.000000
_cell_volume 13493.677879
_symmetry_space_group_name_H-M "P 6/M M M"
_symmetry_group_IT_number 191
_symmetry_cell_setting 'hexagonal'
loop_
_space_group_symop_operation_xyz
x,y,z
x-y,x,z
-y,x-y,z
-x,-y,z
-x+y,-x,z
y,-x+y,z
x-y,-y,-z
-x,-x+y,-z
y,x,-z
-y,-x,-z
-x+y,y,-z
x,x-y,-z
-x,-y,-z
-x+y,-x,-z
y,-x+y,-z
x,y,-z
x-y,x,-z
-y,x-y,-z
-x+y,y,z
x,x-y,z
-y,-x,z
y,x,z
x-y,-y,z
-x,-x+y,z
loop_
_atom_site_type_symbol
_atom_site_label
_atom_site_fract_x
_atom_site_fract_y
_atom_site_fract_z
Si Si1 0.607462 0.075312 0.049995
Si Si2 0.432312 0.148655 0.709811
Si Si3 0.280751 0.075639 0.588104
Si Si4 0.919687 0.594479 0.451372
Si Si5 0.470464 0.391710 0.365699
Si Si6 0.532192 0.333372 0.786989
Si Si7 0.529705 0.333211 0.888749
Si Si8 0.206699 0.924403 0.691555
O O1 0.537714 0.075427 0.051982
O O2 0.660834 0.133567 0.082706
O O3 0.592552 0.000000 0.064320
O O4 0.636959 0.091495 0.000000
O O5 0.445139 0.222570 0.695707
O O6 0.463261 0.123592 0.671921
O O7 0.468175 0.151227 0.756278
O O8 0.352265 0.097443 0.717202
O O9 0.251575 0.125788 0.577776
O O10 0.349898 0.101499 0.560979
O O11 0.299446 0.077722 0.639659
O O12 0.223254 0.000000 0.573911
O O13 0.888932 0.563178 0.500000
O O14 0.893577 0.536319 0.413923
O O15 0.000000 0.630492 0.453529
O O16 0.544492 0.455509 0.362116
O O17 0.412864 0.412864 0.359295
O O18 0.555529 0.277765 0.781090
O O19 0.594590 0.405411 0.772542
O O20 0.510444 0.334221 0.837557
O O21 0.527193 0.263597 0.901833
O O22 0.605484 0.394517 0.898715
O O23 0.127352 0.872649 0.702429
O O24 0.225273 0.000000 0.706458
#
# Coordination Sequence:
#
# PCOD8328395 Si02
#       8
#    24  24  24  24  24  24  24  24
#     4   8  14  25  39  53  73 104 137 166 200 245
#     4  10  18  28  43  60  80 106 136 166 193 229
#     4   9  16  27  43  62  83 106 131 158 189 225
#     4   9  17  28  41  58  80 103 125 150 184 228
#     4  10  19  30  44  61  82 104 125 156 197 236
#     4   9  17  28  41  57  79 108 138 168 203 243
#     4   9  16  26  40  58  80 104 133 171 214 253
#     4   9  16  27  44  62  81 105 132 161 193 231
#
# _framework density 14.228885
#
# number of rings (size 3 to 8) (size 9 to 14) (size 15 to 20)
#    0.000    2.875    1.250    1.375    0.000    1.750 
#    0.000    2.500    0.000    4.250    0.000    1.750 
#    0.000    0.000    0.000    3.125    0.000    3.250 
#
# Total GULP energy -2379950.426779 kJ/mol
# GULP energy per Si atom -12395.575139 kJ/mol
# Density = 1.419650 g / cm^3
# Si number density = 14.228885 Si / 1000 Ang^3
#
#
#
# Elastic Constant Matrix: (Units=GPa)
#
#
# Indices 1 2 3 4 5 6 
#
# 1 77.6099 43.8019 46.7349 0.0000 0.0000 0.0000
# 2 43.8019 77.6099 46.7349 0.0000 0.0000 0.0000
# 3 46.7349 46.7349 76.2763 0.0000 0.0000 0.0000
# 4 0.0000 0.0000 0.0000 18.2803 0.0000 0.0000
# 5 0.0000 0.0000 0.0000 0.0000 18.2803 0.0000
# 6 0.0000 0.0000 0.0000 0.0000 0.0000 16.9040
#
#
#
# Elastic Compliance Matrix: (Units=1/GPa)
#
#
# Indices 1 2 3 4 5 6 
#
# 1 0.022585 -0.006994 -0.009552 0.000000 0.000000 0.000000
# 2 -0.006994 0.022585 -0.009552 0.000000 0.000000 0.000000
# 3 -0.009552 -0.009552 0.024816 0.000000 0.000000 0.000000
# 4 0.000000 0.000000 0.000000 0.054704 0.000000 0.000000
# 5 0.000000 0.000000 0.000000 0.000000 0.054704 0.000000
# 6 0.000000 0.000000 0.000000 0.000000 0.000000 0.059158
#
#
# Mechanical properties :
#
#
# Convention : Reuss Voigt Hill
#
# Bulk Modulus (GPa) = 56.22006 56.22659 56.22333
# Shear Modulus (GPa) = 16.85337 16.97454 16.91395
#
# Velocity S-wave (km/s) = 3.44531 3.45768 3.45150
# Velocity P-wave (km/s) = 7.44472 7.45267 7.44870
#
# Compressibility (1/GPa) = 0.01778725
#
# Stress axis : x y z
#
# Youngs Moduli (GPa) = 44.27802 44.27802 40.29709
#
# Poissons Ratio (x) = 0.30969 0.38493
# Poissons Ratio (y) = 0.30969 0.38493
# Poissons Ratio (z) = 0.42296 0.42296
#
# Static dielectric constant tensor:
#      x y z
#    x 2.745730 0.000000 0.000000 
#    y 0.000000 2.745730 0.000000 
#    z 0.000000 0.000000 2.848270 
# 
# 
# High freq. dielectric constant tensor:
#      x y z
#    x 1.525680 0.000000 0.000000 
#    y 0.000000 1.525680 0.000000 
#    z 0.000000 0.000000 1.533140 
# 
# From -- ./inp_files/10138.got.cif
#   From: 2010.03.12/outbox.cif.g09.slc.cpg/sg191_6_cif.got.tgz:10138.got - 2010.04.01 12:09:02.
