data_PCOD8328112
_publ_section_title
;
Structure prediction by ZEFSAII (Michael W. Deem and Ramdas Pophale) SiO2 
 PCOD8328112
Probable space group: P -6 2 C
;
_chemical_formula_sum "Si O2"
_cell_formula_units_Z 46
_cell_length_a 13.655119
_cell_length_b 13.655119
_cell_length_c 13.912776
_cell_angle_alpha 90.000000
_cell_angle_beta 90.000000
_cell_angle_gamma 120.000000
_cell_volume 2246.649912
_symmetry_space_group_name_H-M "P -6 2 C"
_symmetry_group_IT_number 190
_symmetry_cell_setting 'hexagonal'
loop_
_space_group_symop_operation_xyz
x,y,z
-x+y,-x,1/2-z
-y,x-y,z
x,y,1/2-z
-x+y,-x,z
-y,x-y,1/2-z
x-y,-y,-z
-x,-x+y,-z
y,x,-z
y,x,1/2+z
x-y,-y,1/2+z
-x,-x+y,1/2+z
loop_
_atom_site_type_symbol
_atom_site_label
_atom_site_fract_x
_atom_site_fract_y
_atom_site_fract_z
Si Si1 0.115028 0.534864 0.458358
Si Si2 0.225349 0.224864 0.135986
Si Si3 0.405237 0.229421 0.002443
Si Si4 0.000000 0.000000 0.362612
Si Si5 0.190314 0.573721 0.250000
O O1 0.130678 0.436336 0.507188
O O2 0.197763 0.664437 0.489672
O O3 0.112266 0.521897 0.343150
O O4 0.000000 0.520742 0.500000
O O5 0.232568 0.238824 0.250000
O O6 0.217932 0.328775 0.090011
O O7 0.338874 0.227139 0.098966
O O8 0.115794 0.108210 0.101173
O O9 0.000000 0.000000 0.250000
O O10 0.251052 0.711065 0.250000
#
# Coordination Sequence:
#
# PCOD8328112 Si02
#       5
#    12  12  12   4   6
#     4  12  24  41  64 100 130 165 220 275 328 383
#     4  10  23  43  67  93 129 171 218 272 335 388
#     4  11  24  41  63  95 131 169 214 275 316 400
#     4   9  21  43  65  91 124 170 223 271 314 385
#     4  10  20  42  72  86 120 182 226 264 312 384
#
# _framework density 20.474928999999999
#
# number of rings (size 3 to 8) (size 9 to 14) (size 15 to 20)
#    0.261    1.043    5.217    0.522    7.304    3.130 
#    2.348    0.000    0.000    0.000    0.000    0.000 
#    0.000    0.000    0.000    0.000    0.000    0.000 
#
# Total GULP energy -570052.757420 kJ/mol
# GULP energy per Si atom -12392.451248 kJ/mol
# Density = 2.042833 g / cm^3
# Si number density = 20.474929 Si / 1000 Ang^3
#
#
#
# Elastic Constant Matrix: (Units=GPa)
#
#
# Indices 1 2 3 4 5 6 
#
# 1 101.3673 25.1932 31.1204 0.0000 0.0000 0.0000
# 2 25.1932 101.3673 31.1204 0.0000 0.0000 0.0000
# 3 31.1204 31.1204 110.7452 0.0000 0.0000 0.0000
# 4 0.0000 0.0000 0.0000 23.6966 0.0000 0.0000
# 5 0.0000 0.0000 0.0000 0.0000 23.6966 0.0000
# 6 0.0000 0.0000 0.0000 0.0000 0.0000 38.0870
#
#
#
# Elastic Compliance Matrix: (Units=1/GPa)
#
#
# Indices 1 2 3 4 5 6 
#
# 1 0.011148 -0.001980 -0.002576 0.000000 0.000000 0.000000
# 2 -0.001980 0.011148 -0.002576 0.000000 0.000000 0.000000
# 3 -0.002576 -0.002576 0.010478 0.000000 0.000000 0.000000
# 4 0.000000 0.000000 0.000000 0.042200 0.000000 0.000000
# 5 0.000000 0.000000 0.000000 0.000000 0.042200 0.000000
# 6 0.000000 0.000000 0.000000 0.000000 0.000000 0.026256
#
#
# Mechanical properties :
#
#
# Convention : Reuss Voigt Hill
#
# Bulk Modulus (GPa) = 54.02805 54.26088 54.14446
# Shear Modulus (GPa) = 30.51300 32.16576 31.33938
#
# Velocity S-wave (km/s) = 3.86458 3.96786 3.91656
# Velocity P-wave (km/s) = 6.80867 6.89569 6.85232
#
# Compressibility (1/GPa) = 0.01850891
#
# Stress axis : x y z
#
# Youngs Moduli (GPa) = 89.70126 89.70126 95.44061
#
# Poissons Ratio (x) = 0.17758 0.24589
# Poissons Ratio (y) = 0.17758 0.24589
# Poissons Ratio (z) = 0.23111 0.23111
#
# Static dielectric constant tensor:
#      x y z
#    x 3.712780 0.000000 0.000000 
#    y 0.000000 3.712780 0.000000 
#    z 0.000000 0.000000 3.529620 
# 
# 
# High freq. dielectric constant tensor:
#      x y z
#    x 1.802300 0.000000 0.000000 
#    y 0.000000 1.802300 0.000000 
#    z 0.000000 0.000000 1.794390 
# 
# From -- ./inp_files/2633.got.cif
#   From: 2010.06.25/outbox.cif.g09.slc.cpg/sg190_2_cif.got.tgz:2633.got - 2010.06.28 13:08:06.
