data_PCOD8328915
_publ_section_title
;
Structure prediction by ZEFSAII (Michael W. Deem and Ramdas Pophale) SiO2 
 PCOD8328915
Probable space group: P 6/M M M
;
_chemical_formula_sum "Si O2"
_cell_formula_units_Z 168
_cell_length_a 22.741240
_cell_length_b 22.741240
_cell_length_c 24.734732
_cell_angle_alpha 90.000000
_cell_angle_beta 90.000000
_cell_angle_gamma 120.000000
_cell_volume 11078.121499
_symmetry_space_group_name_H-M "P 6/M M M"
_symmetry_group_IT_number 191
_symmetry_cell_setting 'hexagonal'
loop_
_space_group_symop_operation_xyz
x,y,z
x-y,x,z
-y,x-y,z
-x,-y,z
-x+y,-x,z
y,-x+y,z
x-y,-y,-z
-x,-x+y,-z
y,x,-z
-y,-x,-z
-x+y,y,-z
x,x-y,-z
-x,-y,-z
-x+y,-x,-z
y,-x+y,-z
x,y,-z
x-y,x,-z
-y,x-y,-z
-x+y,y,z
x,x-y,z
-y,-x,z
y,x,z
x-y,-y,z
-x,-x+y,z
loop_
_atom_site_type_symbol
_atom_site_label
_atom_site_fract_x
_atom_site_fract_y
_atom_site_fract_z
Si Si1 0.072904 0.798144 0.640788
Si Si2 0.802537 0.333234 0.063200
Si Si3 0.469858 0.078301 0.141921
Si Si4 0.717221 0.570294 0.768847
Si Si5 0.199714 0.925790 0.230890
Si Si6 0.142217 0.718226 0.646812
Si Si7 0.530131 0.196010 0.560854
O O1 0.131030 0.868971 0.615109
O O2 0.072695 0.804692 0.704904
O O3 0.084718 0.735319 0.627712
O O4 0.000000 0.780434 0.616369
O O5 0.785210 0.392605 0.076576
O O6 0.738753 0.261248 0.082958
O O7 0.873605 0.349369 0.091305
O O8 0.814515 0.330232 0.000000
O O9 0.536867 0.073733 0.147347
O O10 0.467999 0.119168 0.194317
O O11 0.406189 0.000000 0.136275
O O12 0.772464 0.544928 0.776458
O O13 0.751808 0.648656 0.785616
O O14 0.688716 0.558154 0.707442
O O15 0.124165 0.875836 0.207715
O O16 0.227766 0.000000 0.205209
O O17 0.211723 0.788278 0.647063
O O18 0.142591 0.665787 0.603521
O O19 0.505715 0.168993 0.500000
O O20 0.601971 0.203942 0.573948
O O21 0.538256 0.269128 0.569056
#
# Coordination Sequence:
#
# PCOD8328915 Si02
#       7
#    24  24  24  24  24  24  24
#     4   8  13  22  37  56  75  95 122 154 187 223
#     4   9  17  30  48  66  82 103 134 169 200 232
#     4  10  20  30  40  58  84 110 133 161 201 248
#     4   9  16  27  42  57  76 103 136 173 206 234
#     4   8  13  21  35  54  74  97 124 155 188 222
#     4   8  15  26  40  59  79 102 134 170 204 235
#     4   9  16  26  41  60  81 104 131 164 202 244
#
# _framework density 15.165027
#
# number of rings (size 3 to 8) (size 9 to 14) (size 15 to 20)
#    0.000    3.286    0.000    2.857    0.000    2.571 
#    0.000    1.429    0.000    1.429    0.000    3.000 
#    0.000    0.000    0.000    0.000    0.000    0.000 
#
# Total GULP energy -2081338.035692 kJ/mol
# GULP energy per Si atom -12388.916879 kJ/mol
# Density = 1.513051 g / cm^3
# Si number density = 15.165027 Si / 1000 Ang^3
#
#
#
# Elastic Constant Matrix: (Units=GPa)
#
#
# Indices 1 2 3 4 5 6 
#
# 1 68.7620 32.9095 35.7548 0.0000 0.0000 0.0000
# 2 32.9095 68.7620 35.7548 0.0000 0.0000 0.0000
# 3 35.7548 35.7548 57.6842 0.0000 0.0000 0.0000
# 4 0.0000 0.0000 0.0000 14.5937 0.0000 0.0000
# 5 0.0000 0.0000 0.0000 0.0000 14.5937 0.0000
# 6 0.0000 0.0000 0.0000 0.0000 0.0000 17.9263
#
#
#
# Elastic Compliance Matrix: (Units=1/GPa)
#
#
# Indices 1 2 3 4 5 6 
#
# 1 0.022665 -0.005227 -0.010808 0.000000 0.000000 0.000000
# 2 -0.005227 0.022665 -0.010808 0.000000 0.000000 0.000000
# 3 -0.010808 -0.010808 0.030735 0.000000 0.000000 0.000000
# 4 0.000000 0.000000 0.000000 0.068523 0.000000 0.000000
# 5 0.000000 0.000000 0.000000 0.000000 0.068523 0.000000
# 6 0.000000 0.000000 0.000000 0.000000 0.000000 0.055784
#
#
# Mechanical properties :
#
#
# Convention : Reuss Voigt Hill
#
# Bulk Modulus (GPa) = 44.69058 44.89405 44.79231
# Shear Modulus (GPa) = 15.14965 15.47536 15.31251
#
# Velocity S-wave (km/s) = 3.16410 3.19794 3.18106
# Velocity P-wave (km/s) = 6.54845 6.58055 6.56452
#
# Compressibility (1/GPa) = 0.02237608
#
# Stress axis : x y z
#
# Youngs Moduli (GPa) = 44.12121 44.12121 32.53647
#
# Poissons Ratio (x) = 0.23063 0.35167
# Poissons Ratio (y) = 0.23063 0.35167
# Poissons Ratio (z) = 0.47688 0.47688
#
# Static dielectric constant tensor:
#      x y z
#    x 3.125800 0.000000 0.000000 
#    y 0.000000 3.125800 0.000000 
#    z 0.000000 0.000000 2.775640 
# 
# 
# High freq. dielectric constant tensor:
#      x y z
#    x 1.571760 0.000000 0.000000 
#    y 0.000000 1.571760 0.000000 
#    z 0.000000 0.000000 1.550180 
# 
# From -- ./inp_files/9212.got.cif
#   From: 2010.03.12/outbox.cif.g09.slc.cpg/sg191_5_cif.got.tgz:9212.got - 2010.04.01 12:09:02.
