data_PCOD8328340
_publ_section_title
;
Structure prediction by ZEFSAII (Michael W. Deem and Ramdas Pophale) SiO2 
 PCOD8328340
Probable space group: P 6/M M M
;
_chemical_formula_sum "Si O2"
_cell_formula_units_Z 132
_cell_length_a 18.337561
_cell_length_b 18.337561
_cell_length_c 28.511019
_cell_angle_alpha 90.000000
_cell_angle_beta 90.000000
_cell_angle_gamma 120.000000
_cell_volume 8302.837044
_symmetry_space_group_name_H-M "P 6/M M M"
_symmetry_group_IT_number 191
_symmetry_cell_setting 'hexagonal'
loop_
_space_group_symop_operation_xyz
x,y,z
x-y,x,z
-y,x-y,z
-x,-y,z
-x+y,-x,z
y,-x+y,z
x-y,-y,-z
-x,-x+y,-z
y,x,-z
-y,-x,-z
-x+y,y,-z
x,x-y,-z
-x,-y,-z
-x+y,-x,-z
y,-x+y,-z
x,y,-z
x-y,x,-z
-y,x-y,-z
-x+y,y,z
x,x-y,z
-y,-x,z
y,x,z
x-y,-y,z
-x,-x+y,z
loop_
_atom_site_type_symbol
_atom_site_label
_atom_site_fract_x
_atom_site_fract_y
_atom_site_fract_z
Si Si1 0.501072 0.832122 0.257872
Si Si2 0.367522 0.460060 0.354848
Si Si3 0.331420 0.500162 0.000000
Si Si4 0.631362 0.098850 0.903354
Si Si5 0.167101 0.498165 0.449314
Si Si6 0.734676 0.098077 0.818700
O O1 0.425617 0.851234 0.248323
O O2 0.470301 0.735150 0.245576
O O3 0.530628 0.846802 0.312005
O O4 0.581181 0.894374 0.226691
O O5 0.454052 0.545949 0.360799
O O6 0.383904 0.383904 0.342984
O O7 0.317658 0.438637 0.404513
O O8 0.318181 0.446989 0.952626
O O9 0.426519 0.573482 0.000000
O O10 0.268214 0.536427 0.000000
O O11 0.568695 0.137390 0.895499
O O12 0.700158 0.127294 0.862592
O O13 0.575183 0.000000 0.904078
O O14 0.132564 0.451112 0.500000
O O15 0.265827 0.531654 0.444957
O O16 0.153477 0.576739 0.447852
O O17 0.836269 0.163732 0.815597
O O18 0.712467 0.000000 0.822667
#
# Coordination Sequence:
#
# PCOD8328340 Si02
#       6
#    24  24  12  24  24  24
#     4  10  19  30  45  65  89 116 145 177 212 251
#     4   9  17  27  38  53  74 102 135 169 205 245
#     4  10  18  27  39  57  84 117 151 183 213 246
#     4   9  17  29  45  64  86 114 147 181 218 259
#     4   9  16  25  37  52  70  93 123 162 208 255
#     4  10  20  33  49  68  89 114 144 179 219 262
#
# _framework density 15.89818
#
# number of rings (size 3 to 8) (size 9 to 14) (size 15 to 20)
#    0.000    2.545    0.000    2.909    0.000    4.000 
#    0.000    3.636    0.000    6.000    0.000    0.000 
#    0.000    0.000    0.000    0.000    0.000   18.909 
#
# Total GULP energy -1635509.241058 kJ/mol
# GULP energy per Si atom -12390.221523 kJ/mol
# Density = 1.586200 g / cm^3
# Si number density = 15.898180 Si / 1000 Ang^3
#
#
#
# Elastic Constant Matrix: (Units=GPa)
#
#
# Indices 1 2 3 4 5 6 
#
# 1 48.4527 28.3920 25.8341 0.0000 0.0000 0.0000
# 2 28.3920 48.4527 25.8341 0.0000 0.0000 0.0000
# 3 25.8341 25.8341 114.6843 0.0000 0.0000 0.0000
# 4 0.0000 0.0000 0.0000 15.6301 0.0000 0.0000
# 5 0.0000 0.0000 0.0000 0.0000 15.6301 0.0000
# 6 0.0000 0.0000 0.0000 0.0000 0.0000 10.0303
#
#
#
# Elastic Compliance Matrix: (Units=1/GPa)
#
#
# Indices 1 2 3 4 5 6 
#
# 1 0.032592 -0.017256 -0.003455 0.000000 0.000000 0.000000
# 2 -0.017256 0.032592 -0.003455 0.000000 0.000000 0.000000
# 3 -0.003455 -0.003455 0.010276 0.000000 0.000000 0.000000
# 4 0.000000 0.000000 0.000000 0.063979 0.000000 0.000000
# 5 0.000000 0.000000 0.000000 0.000000 0.063979 0.000000
# 6 0.000000 0.000000 0.000000 0.000000 0.000000 0.099697
#
#
# Mechanical properties :
#
#
# Convention : Reuss Voigt Hill
#
# Bulk Modulus (GPa) = 36.86017 41.30112 39.08064
# Shear Modulus (GPa) = 13.86996 17.02672 15.44834
#
# Velocity S-wave (km/s) = 2.95689 3.27614 3.12060
# Velocity P-wave (km/s) = 5.90703 6.35183 6.13346
#
# Compressibility (1/GPa) = 0.02712956
#
# Stress axis : x y z
#
# Youngs Moduli (GPa) = 30.68200 30.68200 97.31414
#
# Poissons Ratio (x) = 0.52946 0.33619
# Poissons Ratio (y) = 0.52946 0.33619
# Poissons Ratio (z) = 0.10600 0.10600
#
# Static dielectric constant tensor:
#      x y z
#    x 2.789370 0.000000 0.000000 
#    y 0.000000 2.789370 0.000000 
#    z 0.000000 0.000000 3.534780 
# 
# 
# High freq. dielectric constant tensor:
#      x y z
#    x 1.573080 0.000000 0.000000 
#    y 0.000000 1.573080 0.000000 
#    z 0.000000 0.000000 1.638940 
# 
# From -- ./inp_files/10533.got.cif
#   From: 2010.03.12/outbox.cif.g09.slc.cpg/sg191_6_cif.got.tgz:10533.got - 2010.04.01 12:09:02.
