data_PCOD8328881
_publ_section_title
;
Structure prediction by ZEFSAII (Michael W. Deem and Ramdas Pophale) SiO2 
 PCOD8328881
Probable space group: P 6/M M M
;
_chemical_formula_sum "Si O2"
_cell_formula_units_Z 144
_cell_length_a 20.483136
_cell_length_b 20.483136
_cell_length_c 23.119842
_cell_angle_alpha 90.000000
_cell_angle_beta 90.000000
_cell_angle_gamma 120.000000
_cell_volume 8400.562951
_symmetry_space_group_name_H-M "P 6/M M M"
_symmetry_group_IT_number 191
_symmetry_cell_setting 'hexagonal'
loop_
_space_group_symop_operation_xyz
x,y,z
x-y,x,z
-y,x-y,z
-x,-y,z
-x+y,-x,z
y,-x+y,z
x-y,-y,-z
-x,-x+y,-z
y,x,-z
-y,-x,-z
-x+y,y,-z
x,x-y,-z
-x,-y,-z
-x+y,-x,-z
y,-x+y,-z
x,y,-z
x-y,x,-z
-y,x-y,-z
-x+y,y,z
x,x-y,z
-y,-x,z
y,x,z
x-y,-y,z
-x,-x+y,z
loop_
_atom_site_type_symbol
_atom_site_label
_atom_site_fract_x
_atom_site_fract_y
_atom_site_fract_z
Si Si1 0.911020 0.455510 0.563040
Si Si2 0.544504 0.455497 0.936677
Si Si3 0.568833 0.656491 0.645930
Si Si4 0.331901 0.821013 0.241209
Si Si5 0.916769 0.689563 0.435650
Si Si6 0.419227 0.328871 0.132481
Si Si7 0.170555 0.341110 0.069186
Si Si8 0.832134 0.916067 0.068471
O O1 0.872236 0.436118 0.500000
O O2 0.884272 0.504982 0.597580
O O3 0.000000 0.500000 0.555836
O O4 0.500000 0.500000 0.941816
O O5 0.621876 0.505279 0.903704
O O6 0.563208 0.436793 0.000000
O O7 0.601190 0.601190 0.663864
O O8 0.531697 0.674000 0.699623
O O9 0.632148 0.732291 0.616551
O O10 0.413281 0.826561 0.234273
O O11 0.266350 0.733651 0.238031
O O12 0.317437 0.869851 0.193947
O O13 0.908120 0.652350 0.500000
O O14 0.861385 0.722769 0.429183
O O15 0.000000 0.760054 0.428611
O O16 0.368455 0.368455 0.139948
O O17 0.373938 0.251996 0.097437
O O18 0.127103 0.254205 0.086530
O O19 0.177178 0.354355 0.000000
O O20 0.872250 0.872250 0.094889
O O21 0.840199 0.920100 0.000000
#
# Coordination Sequence:
#
# PCOD8328881 Si02
#       8
#    12  12  24  24  24  24  12  12
#     4   9  16  27  47  78 111 138 169 215 269 319
#     4   9  18  33  55  80 102 129 170 217 264 314
#     4  10  19  32  53  80 107 137 176 222 270 318
#     4  12  24  40  57  76 104 143 185 228 273 324
#     4   9  17  30  49  76 110 144 179 221 269 318
#     4  11  22  37  58  81 108 141 180 226 273 320
#     4  11  22  37  56  83 117 146 174 216 275 335
#     4   9  17  30  51  80 114 149 180 208 247 311
#
# _framework density 17.141708000000001
#
# number of rings (size 3 to 8) (size 9 to 14) (size 15 to 20)
#    0.000    1.833    2.500    2.750    0.000    4.667 
#    0.000    0.000    0.000    0.167    0.000    3.500 
#    0.000    0.000    0.000    0.000    0.000    0.000 
#
# Total GULP energy -1784874.147573 kJ/mol
# GULP energy per Si atom -12394.959358 kJ/mol
# Density = 1.710269 g / cm^3
# Si number density = 17.141708 Si / 1000 Ang^3
#
#
#
# Elastic Constant Matrix: (Units=GPa)
#
#
# Indices 1 2 3 4 5 6 
#
# 1 116.4405 59.2061 49.6510 0.0000 0.0000 0.0000
# 2 59.2061 116.4405 49.6510 0.0000 0.0000 0.0000
# 3 49.6510 49.6510 115.6964 0.0000 0.0000 0.0000
# 4 0.0000 0.0000 0.0000 24.6500 0.0000 0.0000
# 5 0.0000 0.0000 0.0000 0.0000 24.6500 0.0000
# 6 0.0000 0.0000 0.0000 0.0000 0.0000 28.6172
#
#
#
# Elastic Compliance Matrix: (Units=1/GPa)
#
#
# Indices 1 2 3 4 5 6 
#
# 1 0.012495 -0.004977 -0.003226 0.000000 0.000000 0.000000
# 2 -0.004977 0.012495 -0.003226 0.000000 0.000000 0.000000
# 3 -0.003226 -0.003226 0.011412 0.000000 0.000000 0.000000
# 4 0.000000 0.000000 0.000000 0.040568 0.000000 0.000000
# 5 0.000000 0.000000 0.000000 0.000000 0.040568 0.000000
# 6 0.000000 0.000000 0.000000 0.000000 0.000000 0.034944
#
#
# Mechanical properties :
#
#
# Convention : Reuss Voigt Hill
#
# Bulk Modulus (GPa) = 73.84175 73.95484 73.89829
# Shear Modulus (GPa) = 27.80034 28.25473 28.02754
#
# Velocity S-wave (km/s) = 4.03152 4.06433 4.04796
# Velocity P-wave (km/s) = 8.05243 8.07849 8.06547
#
# Compressibility (1/GPa) = 0.01354247
#
# Stress axis : x y z
#
# Youngs Moduli (GPa) = 80.03510 80.03510 87.62615
#
# Poissons Ratio (x) = 0.39837 0.28268
# Poissons Ratio (y) = 0.39837 0.28268
# Poissons Ratio (z) = 0.25819 0.25819
#
# Static dielectric constant tensor:
#      x y z
#    x 3.194730 0.000000 0.000000 
#    y 0.000000 3.194730 0.000000 
#    z 0.000000 0.000000 3.339710 
# 
# 
# High freq. dielectric constant tensor:
#      x y z
#    x 1.656740 0.000000 0.000000 
#    y 0.000000 1.656740 0.000000 
#    z 0.000000 0.000000 1.663700 
# 
# From -- ./inp_files/7693.got.cif
#   From: 2010.03.12/outbox.cif.g09.slc.cpg/sg191_4_cif.got.tgz:7693.got - 2010.04.01 12:09:02.
