data_PCOD8328736
_publ_section_title
;
Structure prediction by ZEFSAII (Michael W. Deem and Ramdas Pophale) SiO2 
 PCOD8328736
Probable space group: P 6/M M M
;
_chemical_formula_sum "Si O2"
_cell_formula_units_Z 132
_cell_length_a 17.964190
_cell_length_b 17.964190
_cell_length_c 28.435032
_cell_angle_alpha 90.000000
_cell_angle_beta 90.000000
_cell_angle_gamma 120.000000
_cell_volume 7946.934483
_symmetry_space_group_name_H-M "P 6/M M M"
_symmetry_group_IT_number 191
_symmetry_cell_setting 'hexagonal'
loop_
_space_group_symop_operation_xyz
x,y,z
x-y,x,z
-y,x-y,z
-x,-y,z
-x+y,-x,z
y,-x+y,z
x-y,-y,-z
-x,-x+y,-z
y,x,-z
-y,-x,-z
-x+y,y,-z
x,x-y,-z
-x,-y,-z
-x+y,-x,-z
y,-x+y,-z
x,y,-z
x-y,x,-z
-y,x-y,-z
-x+y,y,z
x,x-y,z
-y,-x,z
y,x,z
x-y,-y,z
-x,-x+y,z
loop_
_atom_site_type_symbol
_atom_site_label
_atom_site_fract_x
_atom_site_fract_y
_atom_site_fract_z
Si Si1 0.165218 0.668654 0.920467
Si Si2 0.466693 0.366136 0.819328
Si Si3 0.733804 0.638010 0.000000
Si Si4 0.502844 0.837702 0.549678
Si Si5 0.665736 0.507316 0.651561
Si Si6 0.097503 0.735054 0.267100
O O1 0.144768 0.572384 0.929944
O O2 0.264899 0.735102 0.931840
O O3 0.147337 0.682582 0.866799
O O4 0.105462 0.687729 0.953978
O O5 0.564638 0.435363 0.805155
O O6 0.413576 0.413576 0.828982
O O7 0.424715 0.297409 0.777888
O O8 0.720493 0.720493 0.000000
O O9 0.835593 0.671186 0.000000
O O10 0.539714 0.891925 0.500000
O O11 0.401140 0.802279 0.552498
O O12 0.519419 0.759710 0.546039
O O13 0.542063 0.885317 0.599525
O O14 0.742836 0.485671 0.651846
O O15 0.577999 0.422002 0.666103
O O16 0.683675 0.582341 0.687727
O O17 0.162551 0.837450 0.272287
O O18 0.000000 0.716458 0.261994
#
# Coordination Sequence:
#
# PCOD8328736 Si02
#       6
#    24  24  12  24  24  24
#     4  10  19  30  45  67  97 131 164 193 218 245
#     4   9  17  29  46  68  93 121 152 183 213 249
#     4  10  21  35  51  70  91 117 150 190 235 281
#     4   8  12  18  30  50  78 112 148 181 208 234
#     4   9  16  25  39  61  89 120 151 180 208 240
#     4  10  20  33  48  65  85 110 142 180 223 269
#
# _framework density 16.610178999999999
#
# number of rings (size 3 to 8) (size 9 to 14) (size 15 to 20)
#    0.000    2.727    0.000    2.455    0.000    4.727 
#    0.000    0.909    0.000    6.636    0.000    2.545 
#    0.000    0.000    0.000    5.818    0.000    0.000 
#
# Total GULP energy -1635391.800333 kJ/mol
# GULP energy per Si atom -12389.331821 kJ/mol
# Density = 1.657237 g / cm^3
# Si number density = 16.610179 Si / 1000 Ang^3
#
#
#
# Elastic Constant Matrix: (Units=GPa)
#
#
# Indices 1 2 3 4 5 6 
#
# 1 64.9454 36.3283 37.3394 0.0000 0.0000 0.0000
# 2 36.3283 64.9454 37.3394 0.0000 0.0000 0.0000
# 3 37.3394 37.3394 103.1944 0.0000 0.0000 0.0000
# 4 0.0000 0.0000 0.0000 14.1073 0.0000 0.0000
# 5 0.0000 0.0000 0.0000 0.0000 14.1073 0.0000
# 6 0.0000 0.0000 0.0000 0.0000 0.0000 14.3085
#
#
#
# Elastic Compliance Matrix: (Units=1/GPa)
#
#
# Indices 1 2 3 4 5 6 
#
# 1 0.024206 -0.010738 -0.004873 0.000000 0.000000 0.000000
# 2 -0.010738 0.024206 -0.004873 0.000000 0.000000 0.000000
# 3 -0.004873 -0.004873 0.013217 0.000000 0.000000 0.000000
# 4 0.000000 0.000000 0.000000 0.070885 0.000000 0.000000
# 5 0.000000 0.000000 0.000000 0.000000 0.070885 0.000000
# 6 0.000000 0.000000 0.000000 0.000000 0.000000 0.069888
#
#
# Mechanical properties :
#
#
# Convention : Reuss Voigt Hill
#
# Bulk Modulus (GPa) = 48.40289 50.56660 49.48474
# Shear Modulus (GPa) = 15.56937 16.64315 16.10626
#
# Velocity S-wave (km/s) = 3.06492 3.16885 3.11732
# Velocity P-wave (km/s) = 6.45978 6.62556 6.54319
#
# Compressibility (1/GPa) = 0.02065992
#
# Stress axis : x y z
#
# Youngs Moduli (GPa) = 41.31223 41.31223 75.66039
#
# Poissons Ratio (x) = 0.44362 0.36870
# Poissons Ratio (y) = 0.44362 0.36870
# Poissons Ratio (z) = 0.20132 0.20132
#
# Static dielectric constant tensor:
#      x y z
#    x 2.794590 0.000000 0.000000 
#    y 0.000000 2.794590 0.000000 
#    z 0.000000 0.000000 3.640040 
# 
# 
# High freq. dielectric constant tensor:
#      x y z
#    x 1.604040 0.000000 0.000000 
#    y 0.000000 1.604040 0.000000 
#    z 0.000000 0.000000 1.669560 
# 
# From -- ./inp_files/9760.got.cif
#   From: 2010.03.12/outbox.cif.g09.slc.cpg/sg191_5_cif.got.tgz:9760.got - 2010.04.01 12:09:02.
