data_PCOD8328431
_publ_section_title
;
Structure prediction by ZEFSAII (Michael W. Deem and Ramdas Pophale) SiO2 
 PCOD8328431
Probable space group: P 6/M M M
;
_chemical_formula_sum "Si O2"
_cell_formula_units_Z 168
_cell_length_a 21.964546
_cell_length_b 21.964546
_cell_length_c 23.689475
_cell_angle_alpha 90.000000
_cell_angle_beta 90.000000
_cell_angle_gamma 120.000000
_cell_volume 9897.614390
_symmetry_space_group_name_H-M "P 6/M M M"
_symmetry_group_IT_number 191
_symmetry_cell_setting 'hexagonal'
loop_
_space_group_symop_operation_xyz
x,y,z
x-y,x,z
-y,x-y,z
-x,-y,z
-x+y,-x,z
y,-x+y,z
x-y,-y,-z
-x,-x+y,-z
y,x,-z
-y,-x,-z
-x+y,y,-z
x,x-y,-z
-x,-y,-z
-x+y,-x,-z
y,-x+y,-z
x,y,-z
x-y,x,-z
-y,x-y,-z
-x+y,y,z
x,x-y,z
-y,-x,z
y,x,z
x-y,-y,z
-x,-x+y,z
loop_
_atom_site_type_symbol
_atom_site_label
_atom_site_fract_x
_atom_site_fract_y
_atom_site_fract_z
Si Si1 0.712489 0.563202 0.831304
Si Si2 0.523497 0.332760 0.359454
Si Si3 0.666744 0.193417 0.063649
Si Si4 0.078453 0.290916 0.780966
Si Si5 0.922802 0.216107 0.346698
Si Si6 0.596206 0.727497 0.438322
Si Si7 0.079021 0.468216 0.266672
O O1 0.770668 0.541335 0.814047
O O2 0.686049 0.538911 0.895132
O O3 0.747030 0.647106 0.826124
O O4 0.644822 0.526965 0.791683
O O5 0.527952 0.263976 0.342524
O O6 0.601384 0.398617 0.362256
O O7 0.484910 0.322514 0.419595
O O8 0.472027 0.341272 0.315999
O O9 0.592670 0.185340 0.081809
O O10 0.724566 0.275435 0.068205
O O11 0.663534 0.165691 0.000000
O O12 0.128660 0.257320 0.787229
O O13 0.086687 0.323271 0.717553
O O14 0.000000 0.229183 0.793569
O O15 0.864405 0.135596 0.359894
O O16 0.920230 0.271034 0.390612
O O17 0.000000 0.224175 0.352323
O O18 0.607143 0.701567 0.500000
O O19 0.612590 0.806295 0.444141
O O20 0.069695 0.534848 0.270827
O O21 0.000000 0.399022 0.270841
#
# Coordination Sequence:
#
# PCOD8328431 Si02
#       7
#    24  24  24  24  24  24  24
#     4  10  18  28  45  68  92 118 152 192 231 271
#     4  10  20  34  51  70  92 117 148 189 239 292
#     4   9  17  29  45  65  91 125 164 203 240 277
#     4   9  17  29  47  70  93 117 146 183 226 272
#     4   9  17  30  49  72  97 125 158 196 237 280
#     4   9  18  31  45  63  88 117 150 186 222 265
#     4  10  20  32  46  64  88 119 152 187 229 278
#
# _framework density 16.973786
#
# number of rings (size 3 to 8) (size 9 to 14) (size 15 to 20)
#    0.000    2.571    0.000    2.429    0.000    5.143 
#    0.000    0.000    0.000    7.429    0.000   10.000 
#    0.000    0.000    0.000    3.571    0.000    3.714 
#
# Total GULP energy -2081880.950127 kJ/mol
# GULP energy per Si atom -12392.148513 kJ/mol
# Density = 1.693515 g / cm^3
# Si number density = 16.973786 Si / 1000 Ang^3
#
#
#
# Elastic Constant Matrix: (Units=GPa)
#
#
# Indices 1 2 3 4 5 6 
#
# 1 88.4375 48.2580 54.3034 0.0000 0.0000 0.0000
# 2 48.2580 88.4375 54.3034 0.0000 0.0000 0.0000
# 3 54.3034 54.3034 100.4838 0.0000 0.0000 0.0000
# 4 0.0000 0.0000 0.0000 16.0086 0.0000 0.0000
# 5 0.0000 0.0000 0.0000 0.0000 16.0086 0.0000
# 6 0.0000 0.0000 0.0000 0.0000 0.0000 20.0898
#
#
#
# Elastic Compliance Matrix: (Units=1/GPa)
#
#
# Indices 1 2 3 4 5 6 
#
# 1 0.018854 -0.006034 -0.006928 0.000000 0.000000 0.000000
# 2 -0.006034 0.018854 -0.006928 0.000000 0.000000 0.000000
# 3 -0.006928 -0.006928 0.017440 0.000000 0.000000 0.000000
# 4 0.000000 0.000000 0.000000 0.062466 0.000000 0.000000
# 5 0.000000 0.000000 0.000000 0.000000 0.062466 0.000000
# 6 0.000000 0.000000 0.000000 0.000000 0.000000 0.049777
#
#
# Mechanical properties :
#
#
# Convention : Reuss Voigt Hill
#
# Bulk Modulus (GPa) = 65.07259 65.67646 65.37453
# Shear Modulus (GPa) = 18.19760 18.45434 18.32597
#
# Velocity S-wave (km/s) = 3.27785 3.30089 3.28939
# Velocity P-wave (km/s) = 7.26265 7.30101 7.28185
#
# Compressibility (1/GPa) = 0.01536745
#
# Stress axis : x y z
#
# Youngs Moduli (GPa) = 53.03852 53.03852 57.33883
#
# Poissons Ratio (x) = 0.32004 0.39726
# Poissons Ratio (y) = 0.32004 0.39726
# Poissons Ratio (z) = 0.36746 0.36746
#
# Static dielectric constant tensor:
#      x y z
#    x 3.124210 0.000000 0.000000 
#    y 0.000000 3.124210 0.000000 
#    z 0.000000 0.000000 3.293090 
# 
# 
# High freq. dielectric constant tensor:
#      x y z
#    x 1.643670 0.000000 0.000000 
#    y 0.000000 1.643670 0.000000 
#    z 0.000000 0.000000 1.642880 
# 
# From -- ./inp_files/7918.got.cif
#   From: 2010.03.12/outbox.cif.g09.slc.cpg/sg191_4_cif.got.tgz:7918.got - 2010.04.01 12:09:02.
