data_PCOD8328953
_publ_section_title
;
Structure prediction by ZEFSAII (Michael W. Deem and Ramdas Pophale) SiO2 
 PCOD8328953
Probable space group: P 6/M M M
;
_chemical_formula_sum "Si O2"
_cell_formula_units_Z 168
_cell_length_a 20.980875
_cell_length_b 20.980875
_cell_length_c 29.010830
_cell_angle_alpha 90.000000
_cell_angle_beta 90.000000
_cell_angle_gamma 120.000000
_cell_volume 11059.563296
_symmetry_space_group_name_H-M "P 6/M M M"
_symmetry_group_IT_number 191
_symmetry_cell_setting 'hexagonal'
loop_
_space_group_symop_operation_xyz
x,y,z
x-y,x,z
-y,x-y,z
-x,-y,z
-x+y,-x,z
y,-x+y,z
x-y,-y,-z
-x,-x+y,-z
y,x,-z
-y,-x,-z
-x+y,y,-z
x,x-y,-z
-x,-y,-z
-x+y,-x,-z
y,-x+y,-z
x,y,-z
x-y,x,-z
-y,x-y,-z
-x+y,y,z
x,x-y,z
-y,-x,z
y,x,z
x-y,-y,z
-x,-x+y,z
loop_
_atom_site_type_symbol
_atom_site_label
_atom_site_fract_x
_atom_site_fract_y
_atom_site_fract_z
Si Si1 0.308288 0.226303 0.300730
Si Si2 0.185990 0.518681 0.553827
Si Si3 0.810546 0.474303 0.299147
Si Si4 0.916412 0.580318 0.769252
Si Si5 0.667549 0.185428 0.948681
Si Si6 0.914646 0.578597 0.371051
Si Si7 0.614791 0.083950 0.133271
O O1 0.279321 0.139661 0.301402
O O2 0.237806 0.237806 0.300492
O O3 0.355941 0.261534 0.254247
O O4 0.356219 0.263378 0.346756
O O5 0.171607 0.502431 0.500000
O O6 0.266791 0.533581 0.567890
O O7 0.181193 0.590597 0.567884
O O8 0.123282 0.444498 0.578766
O O9 0.749232 0.498463 0.303971
O O10 0.772069 0.386035 0.299604
O O11 0.856286 0.503159 0.252067
O O12 0.869159 0.506138 0.340369
O O13 0.901689 0.571762 0.824000
O O14 0.000000 0.598159 0.759007
O O15 0.598358 0.196715 0.945106
O O16 0.737537 0.262464 0.937018
O O17 0.663066 0.128030 0.910637
O O18 0.672540 0.157538 0.000000
O O19 0.000000 0.601079 0.374751
O O20 0.553021 0.106042 0.146709
O O21 0.574994 0.000000 0.117872
#
# Coordination Sequence:
#
# PCOD8328953 Si02
#       7
#    24  24  24  24  24  24  24
#     4   9  17  30  48  68  89 112 138 166 197 237
#     4  10  20  33  48  64  84 111 142 175 210 249
#     4  11  21  31  43  59  82 109 137 169 204 245
#     4   9  17  29  45  62  80 105 135 168 204 240
#     4   9  17  28  41  56  74  99 131 165 201 241
#     4  10  20  32  47  65  83 107 139 174 210 244
#     4   9  17  28  41  58  79 101 129 166 206 245
#
# _framework density 15.190474
#
# number of rings (size 3 to 8) (size 9 to 14) (size 15 to 20)
#    0.000    2.429    0.000    5.143    0.000    5.429 
#    0.000    3.571    0.000    1.857    0.000    0.000 
#    0.000    0.000    0.000    0.000    0.000    0.000 
#
# Total GULP energy -2082172.208417 kJ/mol
# GULP energy per Si atom -12393.882193 kJ/mol
# Density = 1.515590 g / cm^3
# Si number density = 15.190474 Si / 1000 Ang^3
#
#
#
# Elastic Constant Matrix: (Units=GPa)
#
#
# Indices 1 2 3 4 5 6 
#
# 1 78.5698 38.8060 42.3695 0.0000 0.0000 0.0000
# 2 38.8060 78.5698 42.3695 0.0000 0.0000 0.0000
# 3 42.3695 42.3695 92.0885 0.0000 0.0000 0.0000
# 4 0.0000 0.0000 0.0000 18.7018 0.0000 0.0000
# 5 0.0000 0.0000 0.0000 0.0000 18.7018 0.0000
# 6 0.0000 0.0000 0.0000 0.0000 0.0000 19.8819
#
#
#
# Elastic Compliance Matrix: (Units=1/GPa)
#
#
# Indices 1 2 3 4 5 6 
#
# 1 0.018953 -0.006196 -0.005869 0.000000 0.000000 0.000000
# 2 -0.006196 0.018953 -0.005869 0.000000 0.000000 0.000000
# 3 -0.005869 -0.005869 0.016260 0.000000 0.000000 0.000000
# 4 0.000000 0.000000 0.000000 0.053471 0.000000 0.000000
# 5 0.000000 0.000000 0.000000 0.000000 0.053471 0.000000
# 6 0.000000 0.000000 0.000000 0.000000 0.000000 0.050297
#
#
# Mechanical properties :
#
#
# Convention : Reuss Voigt Hill
#
# Bulk Modulus (GPa) = 54.65549 55.14646 54.90098
# Shear Modulus (GPa) = 19.73381 19.83599 19.78490
#
# Velocity S-wave (km/s) = 3.60820 3.61753 3.61287
# Velocity P-wave (km/s) = 7.30870 7.33695 7.32284
#
# Compressibility (1/GPa) = 0.01829642
#
# Stress axis : x y z
#
# Youngs Moduli (GPa) = 52.76268 52.76268 61.50002
#
# Poissons Ratio (x) = 0.32690 0.36097
# Poissons Ratio (y) = 0.32690 0.36097
# Poissons Ratio (z) = 0.30969 0.30969
#
# Static dielectric constant tensor:
#      x y z
#    x 2.791610 0.000000 0.000000 
#    y 0.000000 2.791610 0.000000 
#    z 0.000000 0.000000 3.080700 
# 
# 
# High freq. dielectric constant tensor:
#      x y z
#    x 1.562090 0.000000 0.000000 
#    y 0.000000 1.562090 0.000000 
#    z 0.000000 0.000000 1.584940 
# 
# From -- ./inp_files/10043.got.cif
#   From: 2010.03.12/outbox.cif.g09.slc.cpg/sg191_6_cif.got.tgz:10043.got - 2010.04.01 12:09:02.
