data_PCOD8328383
_publ_section_title
;
Structure prediction by ZEFSAII (Michael W. Deem and Ramdas Pophale) SiO2 
 PCOD8328383
Probable space group: P 6/M M M
;
_chemical_formula_sum "Si O2"
_cell_formula_units_Z 108
_cell_length_a 17.871576
_cell_length_b 17.871576
_cell_length_c 26.723842
_cell_angle_alpha 90.000000
_cell_angle_beta 90.000000
_cell_angle_gamma 120.000000
_cell_volume 7391.885512
_symmetry_space_group_name_H-M "P 6/M M M"
_symmetry_group_IT_number 191
_symmetry_cell_setting 'hexagonal'
loop_
_space_group_symop_operation_xyz
x,y,z
x-y,x,z
-y,x-y,z
-x,-y,z
-x+y,-x,z
y,-x+y,z
x-y,-y,-z
-x,-x+y,-z
y,x,-z
-y,-x,-z
-x+y,y,-z
x,x-y,-z
-x,-y,-z
-x+y,-x,-z
y,-x+y,-z
x,y,-z
x-y,x,-z
-y,x-y,-z
-x+y,y,z
x,x-y,z
-y,-x,z
y,x,z
x-y,-y,z
-x,-x+y,z
loop_
_atom_site_type_symbol
_atom_site_label
_atom_site_fract_x
_atom_site_fract_y
_atom_site_fract_z
Si Si1 0.898404 0.365490 0.643319
Si Si2 0.000000 0.410873 0.185947
Si Si3 0.411561 0.000000 0.926249
Si Si4 0.643909 0.903761 0.443936
Si Si5 0.665240 0.513936 0.000000
Si Si6 0.507929 0.838189 0.750570
O O1 0.866611 0.433306 0.632471
O O2 0.870326 0.304690 0.594960
O O3 0.853904 0.312304 0.693438
O O4 0.000000 0.413919 0.652583
O O5 0.915412 0.338931 0.214607
O O6 0.000000 0.500000 0.185790
O O7 0.000000 0.378226 0.129722
O O8 0.500000 0.000000 0.925803
O O9 0.342250 0.909877 0.952939
O O10 0.607149 0.899444 0.500000
O O11 0.686289 0.843144 0.439811
O O12 0.719076 0.000000 0.430753
O O13 0.586460 0.413541 0.000000
O O14 0.758069 0.516137 0.000000
O O15 0.415104 0.830208 0.754047
O O16 0.500881 0.750441 0.770557
#
# Coordination Sequence:
#
# PCOD8328383 Si02
#       6
#    24  12  12  24  12  24
#     4   9  16  27  42  59  79 104 134 167 207 254
#     4   9  17  30  43  56  81 114 142 171 211 248
#     4   8  16  29  42  58  84 115 142 172 211 249
#     4   9  17  28  42  60  81 105 134 169 209 253
#     4   9  16  27  44  65  87 113 146 179 208 241
#     4  10  18  28  42  60  81 108 142 179 214 249
#
# _framework density 14.610616
#
# number of rings (size 3 to 8) (size 9 to 14) (size 15 to 20)
#    0.000    2.889    1.111    1.667    0.000    1.333 
#    0.000    2.222    0.000    3.333    0.000    1.556 
#    0.000    0.000    0.000   11.000    0.000   12.222 
#
# Total GULP energy -1338278.819064 kJ/mol
# GULP energy per Si atom -12391.470547 kJ/mol
# Density = 1.457736 g / cm^3
# Si number density = 14.610616 Si / 1000 Ang^3
#
#
#
# Elastic Constant Matrix: (Units=GPa)
#
#
# Indices 1 2 3 4 5 6 
#
# 1 72.1254 30.0315 48.0482 0.0000 0.0000 0.0000
# 2 30.0315 72.1254 48.0482 0.0000 0.0000 0.0000
# 3 48.0482 48.0482 115.0299 0.0000 0.0000 0.0000
# 4 0.0000 0.0000 0.0000 11.5652 0.0000 0.0000
# 5 0.0000 0.0000 0.0000 0.0000 11.5652 0.0000
# 6 0.0000 0.0000 0.0000 0.0000 0.0000 21.0469
#
#
#
# Elastic Compliance Matrix: (Units=1/GPa)
#
#
# Indices 1 2 3 4 5 6 
#
# 1 0.019940 -0.003816 -0.006735 0.000000 0.000000 0.000000
# 2 -0.003816 0.019940 -0.006735 0.000000 0.000000 0.000000
# 3 -0.006735 -0.006735 0.014320 0.000000 0.000000 0.000000
# 4 0.000000 0.000000 0.000000 0.086467 0.000000 0.000000
# 5 0.000000 0.000000 0.000000 0.000000 0.086467 0.000000
# 6 0.000000 0.000000 0.000000 0.000000 0.000000 0.047513
#
#
# Mechanical properties :
#
#
# Convention : Reuss Voigt Hill
#
# Bulk Modulus (GPa) = 50.94728 56.83737 53.89232
# Shear Modulus (GPa) = 15.83468 17.71230 16.77349
#
# Velocity S-wave (km/s) = 3.29565 3.48557 3.39194
# Velocity P-wave (km/s) = 7.03047 7.42865 7.23230
#
# Compressibility (1/GPa) = 0.01962814
#
# Stress axis : x y z
#
# Youngs Moduli (GPa) = 50.14921 50.14921 69.83215
#
# Poissons Ratio (x) = 0.19137 0.47034
# Poissons Ratio (y) = 0.19137 0.47034
# Poissons Ratio (z) = 0.33777 0.33777
#
# Static dielectric constant tensor:
#      x y z
#    x 2.703910 0.000000 0.000000 
#    y 0.000000 2.703910 0.000000 
#    z 0.000000 0.000000 3.147030 
# 
# 
# High freq. dielectric constant tensor:
#      x y z
#    x 1.535300 0.000000 0.000000 
#    y 0.000000 1.535300 0.000000 
#    z 0.000000 0.000000 1.568760 
# 
# From -- ./inp_files/8482.got.cif
#   From: 2010.03.12/outbox.cif.g09.slc.cpg/sg191_5_cif.got.tgz:8482.got - 2010.04.01 12:09:02.
