data_PCOD8328088
_publ_section_title
;
Structure prediction by ZEFSAII (Michael W. Deem and Ramdas Pophale) SiO2 
 PCOD8328088
Probable space group: P -6 2 C
;
_chemical_formula_sum "Si O2"
_cell_formula_units_Z 66
_cell_length_a 20.250211
_cell_length_b 20.250211
_cell_length_c 9.345587
_cell_angle_alpha 90.000000
_cell_angle_beta 90.000000
_cell_angle_gamma 120.000000
_cell_volume 3318.916468
_symmetry_space_group_name_H-M "P -6 2 C"
_symmetry_group_IT_number 190
_symmetry_cell_setting 'hexagonal'
loop_
_space_group_symop_operation_xyz
x,y,z
-x+y,-x,1/2-z
-y,x-y,z
x,y,1/2-z
-x+y,-x,z
-y,x-y,1/2-z
x-y,-y,-z
-x,-x+y,-z
y,x,-z
y,x,1/2+z
x-y,-y,1/2+z
-x,-x+y,1/2+z
loop_
_atom_site_type_symbol
_atom_site_label
_atom_site_fract_x
_atom_site_fract_y
_atom_site_fract_z
Si Si1 0.222001 0.921703 0.082664
Si Si2 0.801809 0.077945 0.076320
Si Si3 0.141108 0.694652 0.914864
Si Si4 0.071484 0.526750 0.908320
Si Si5 0.340246 0.754187 0.250000
Si Si6 0.175405 0.473379 0.494512
O O1 0.208515 0.934153 0.250000
O O2 0.263847 0.872347 0.079382
O O3 0.143146 0.880223 0.993336
O O4 0.274456 0.000000 0.000000
O O5 0.809358 0.075882 0.250000
O O6 0.734943 0.094878 0.027231
O O7 0.784919 0.000000 0.000000
O O8 0.124724 0.680836 0.750000
O O9 0.110889 0.610997 0.983155
O O10 0.231232 0.748163 0.936119
O O11 0.043193 0.530577 0.750000
O O12 0.126200 0.490195 0.892108
O O13 0.000000 0.468355 0.000000
O O14 0.411675 0.739335 0.250000
O O15 0.344090 0.802919 0.115166
#
# Coordination Sequence:
#
# PCOD8328088 Si02
#       6
#    12  12  12  12   6  12
#     4  11  23  39  61  90 125 162 210 259 317 379
#     4  10  20  37  63  91 123 159 203 252 308 372
#     4   9  20  38  57  83 114 153 203 256 311 370
#     4  11  24  39  59  84 117 157 200 255 317 380
#     4  10  22  36  56  84 120 156 210 268 328 374
#     4  11  21  38  59  83 117 160 208 258 317 382
#
# _framework density 19.886009000000001
#
# number of rings (size 3 to 8) (size 9 to 14) (size 15 to 20)
#    0.182    1.455    0.909    3.818    1.273    3.636 
#    2.727    0.000    0.000    0.364    0.000    2.545 
#    0.000    0.000    0.000    0.000    0.000    0.000 
#
# Total GULP energy -817994.711859 kJ/mol
# GULP energy per Si atom -12393.859271 kJ/mol
# Density = 1.984075 g / cm^3
# Si number density = 19.886009 Si / 1000 Ang^3
#
#
#
# Elastic Constant Matrix: (Units=GPa)
#
#
# Indices 1 2 3 4 5 6 
#
# 1 86.3636 27.5997 31.4750 0.0000 0.0000 0.0000
# 2 27.5997 86.3636 31.4750 0.0000 0.0000 0.0000
# 3 31.4750 31.4750 95.8067 0.0000 0.0000 0.0000
# 4 0.0000 0.0000 0.0000 27.0682 0.0000 0.0000
# 5 0.0000 0.0000 0.0000 0.0000 27.0682 0.0000
# 6 0.0000 0.0000 0.0000 0.0000 0.0000 29.3820
#
#
#
# Elastic Compliance Matrix: (Units=1/GPa)
#
#
# Indices 1 2 3 4 5 6 
#
# 1 0.013869 -0.003149 -0.003522 0.000000 0.000000 0.000000
# 2 -0.003149 0.013869 -0.003522 0.000000 0.000000 0.000000
# 3 -0.003522 -0.003522 0.012752 0.000000 0.000000 0.000000
# 4 0.000000 0.000000 0.000000 0.036944 0.000000 0.000000
# 5 0.000000 0.000000 0.000000 0.000000 0.036944 0.000000
# 6 0.000000 0.000000 0.000000 0.000000 0.000000 0.034034
#
#
# Mechanical properties :
#
#
# Convention : Reuss Voigt Hill
#
# Bulk Modulus (GPa) = 49.73986 49.95924 49.84955
# Shear Modulus (GPa) = 28.49054 28.56931 28.52992
#
# Velocity S-wave (km/s) = 3.78920 3.79443 3.79182
# Velocity P-wave (km/s) = 6.64912 6.66141 6.65527
#
# Compressibility (1/GPa) = 0.02010460
#
# Stress axis : x y z
#
# Youngs Moduli (GPa) = 72.10497 72.10497 78.42085
#
# Poissons Ratio (x) = 0.22703 0.27619
# Poissons Ratio (y) = 0.22703 0.27619
# Poissons Ratio (z) = 0.25394 0.25394
#
# Static dielectric constant tensor:
#      x y z
#    x 3.656530 0.000000 0.000000 
#    y 0.000000 3.656530 0.000000 
#    z 0.000000 0.000000 3.546320 
# 
# 
# High freq. dielectric constant tensor:
#      x y z
#    x 1.771520 0.000000 0.000000 
#    y 0.000000 1.771520 0.000000 
#    z 0.000000 0.000000 1.772560 
# 
# From -- ./inp_files/1069.got.cif
#   From: 2010.06.25/outbox.cif.g09.slc.cpg/sg190_1_cif.got.tgz:1069.got - 2010.06.28 13:08:06.
