data_PCOD8328426
_publ_section_title
;
Structure prediction by ZEFSAII (Michael W. Deem and Ramdas Pophale) SiO2 
 PCOD8328426
Probable space group: P 6/M M M
;
_chemical_formula_sum "Si O2"
_cell_formula_units_Z 192
_cell_length_a 23.311222
_cell_length_b 23.311222
_cell_length_c 24.033971
_cell_angle_alpha 90.000000
_cell_angle_beta 90.000000
_cell_angle_gamma 120.000000
_cell_volume 11310.615661
_symmetry_space_group_name_H-M "P 6/M M M"
_symmetry_group_IT_number 191
_symmetry_cell_setting 'hexagonal'
loop_
_space_group_symop_operation_xyz
x,y,z
x-y,x,z
-y,x-y,z
-x,-y,z
-x+y,-x,z
y,-x+y,z
x-y,-y,-z
-x,-x+y,-z
y,x,-z
-y,-x,-z
-x+y,y,-z
x,x-y,-z
-x,-y,-z
-x+y,-x,-z
y,-x+y,-z
x,y,-z
x-y,x,-z
-y,x-y,-z
-x+y,y,z
x,x-y,z
-y,-x,z
y,x,z
x-y,-y,z
-x,-x+y,z
loop_
_atom_site_type_symbol
_atom_site_label
_atom_site_fract_x
_atom_site_fract_y
_atom_site_fract_z
Si Si1 0.537441 0.204010 0.179887
Si Si2 0.524546 0.603119 0.438637
Si Si3 0.274626 0.073703 0.437359
Si Si4 0.380350 0.302848 0.356567
Si Si5 0.486537 0.846951 0.937910
Si Si6 0.878632 0.251767 0.061924
Si Si7 0.134994 0.404147 0.235962
Si Si8 0.207485 0.281417 0.162961
O O1 0.597501 0.195001 0.202375
O O2 0.548380 0.274190 0.201092
O O3 0.537042 0.205269 0.112452
O O4 0.469454 0.142609 0.205056
O O5 0.524763 0.631818 0.500000
O O6 0.450217 0.549784 0.420931
O O7 0.570256 0.570256 0.440848
O O8 0.552982 0.660453 0.393004
O O9 0.304000 0.079704 0.500000
O O10 0.245678 0.122839 0.429881
O O11 0.330500 0.091858 0.391459
O O12 0.213922 0.000000 0.427333
O O13 0.349035 0.349035 0.343805
O O14 0.402180 0.284350 0.300103
O O15 0.441898 0.883795 0.934347
O O16 0.566131 0.893668 0.929965
O O17 0.475149 0.813839 0.000000
O O18 0.800073 0.199928 0.073102
O O19 0.921858 0.234463 0.102541
O O20 0.898821 0.242847 0.000000
O O21 0.204330 0.408659 0.228037
O O22 0.080663 0.336224 0.207422
O O23 0.129852 0.259703 0.170979
O O24 0.217604 0.217604 0.169866
#
# Coordination Sequence:
#
# PCOD8328426 Si02
#       8
#    24  24  24  24  24  24  24  24
#     4  10  19  31  46  65  91 125 164 205 247 288
#     4   8  14  25  41  62  89 119 149 182 223 273
#     4   9  17  29  46  69  96 124 153 187 229 276
#     4  10  18  28  45  67  90 117 151 192 235 280
#     4   9  16  26  44  69  96 126 160 202 249 290
#     4   9  16  28  48  71  95 125 160 199 243 288
#     4  10  20  33  47  65  91 125 161 198 238 280
#     4  10  20  35  54  75  98 123 154 191 234 285
#
# _framework density 16.975203
#
# number of rings (size 3 to 8) (size 9 to 14) (size 15 to 20)
#    0.000    2.625    1.250    2.000    0.000    3.000 
#    0.000    0.000    0.000    3.500    0.000    4.375 
#    0.000    0.000    0.000    7.125    0.000    9.375 
#
# Total GULP energy -2378578.574283 kJ/mol
# GULP energy per Si atom -12388.430074 kJ/mol
# Density = 1.693657 g / cm^3
# Si number density = 16.975203 Si / 1000 Ang^3
#
#
#
# Elastic Constant Matrix: (Units=GPa)
#
#
# Indices 1 2 3 4 5 6 
#
# 1 74.9174 41.9091 32.2274 0.0000 0.0000 0.0000
# 2 41.9091 74.9174 32.2274 0.0000 0.0000 0.0000
# 3 32.2274 32.2274 100.7371 0.0000 0.0000 0.0000
# 4 0.0000 0.0000 0.0000 -15.6388 0.0000 0.0000
# 5 0.0000 0.0000 0.0000 0.0000 -15.6388 0.0000
# 6 0.0000 0.0000 0.0000 0.0000 0.0000 16.5041
#
#
#
# Elastic Compliance Matrix: (Units=1/GPa)
#
#
# Indices 1 2 3 4 5 6 
#
# 1 0.020345 -0.009951 -0.003325 0.000000 0.000000 0.000000
# 2 -0.009951 0.020345 -0.003325 0.000000 0.000000 0.000000
# 3 -0.003325 -0.003325 0.012054 0.000000 0.000000 0.000000
# 4 0.000000 0.000000 0.000000 -0.063943 0.000000 0.000000
# 5 0.000000 0.000000 0.000000 0.000000 -0.063943 0.000000
# 6 0.000000 0.000000 0.000000 0.000000 0.000000 0.060591
#
#
# Mechanical properties :
#
#
# Convention : Reuss Voigt Hill
#
# Bulk Modulus (GPa) = 51.17215 51.47773 51.32494
# Shear Modulus (GPa) = 198.69166 6.65916 102.67541
#
# Velocity S-wave (km/s) = 10.83062 1.98277 7.78568
# Velocity P-wave (km/s) = 13.66066 5.96933 10.54150
#
# Compressibility (1/GPa) = 0.01954188
#
# Stress axis : x y z
#
# Youngs Moduli (GPa) = 49.15243 49.15243 82.95678
#
# Poissons Ratio (x) = 0.48909 0.27586
# Poissons Ratio (y) = 0.48909 0.27586
# Poissons Ratio (z) = 0.16345 0.16345
#
# Static dielectric constant tensor:
#      x y z
#    x 2.995030 0.000000 0.000000 
#    y 0.000000 2.995030 0.000000 
#    z 0.000000 0.000000 3.386230 
# 
# 
# High freq. dielectric constant tensor:
#      x y z
#    x 1.625280 0.000000 0.000000 
#    y 0.000000 1.625280 0.000000 
#    z 0.000000 0.000000 1.663980 
# 
# From -- ./inp_files/9354.got.cif
#   From: 2010.03.12/outbox.cif.g09.slc.cpg/sg191_5_cif.got.tgz:9354.got - 2010.04.01 12:09:02.
