data_PCOD8328796
_publ_section_title
;
Structure prediction by ZEFSAII (Michael W. Deem and Ramdas Pophale) SiO2 
 PCOD8328796
Probable space group: P 6/M M M
;
_chemical_formula_sum "Si O2"
_cell_formula_units_Z 180
_cell_length_a 21.908766
_cell_length_b 21.908766
_cell_length_c 27.831124
_cell_angle_alpha 90.000000
_cell_angle_beta 90.000000
_cell_angle_gamma 120.000000
_cell_volume 11569.037043
_symmetry_space_group_name_H-M "P 6/M M M"
_symmetry_group_IT_number 191
_symmetry_cell_setting 'hexagonal'
loop_
_space_group_symop_operation_xyz
x,y,z
x-y,x,z
-y,x-y,z
-x,-y,z
-x+y,-x,z
y,-x+y,z
x-y,-y,-z
-x,-x+y,-z
y,x,-z
-y,-x,-z
-x+y,y,-z
x,x-y,-z
-x,-y,-z
-x+y,-x,-z
y,-x+y,-z
x,y,-z
x-y,x,-z
-y,x-y,-z
-x+y,y,z
x,x-y,z
-y,-x,z
y,x,z
x-y,-y,z
-x,-x+y,z
loop_
_atom_site_type_symbol
_atom_site_label
_atom_site_fract_x
_atom_site_fract_y
_atom_site_fract_z
Si Si1 0.292835 0.847232 0.089411
Si Si2 0.708023 0.921403 0.874395
Si Si3 0.079322 0.467903 0.000000
Si Si4 0.922252 0.708772 0.762501
Si Si5 0.572208 0.918214 0.265657
Si Si6 0.808391 0.475298 0.445143
Si Si7 0.467001 0.078152 0.370182
Si Si8 0.524712 0.334095 0.187305
O O1 0.229891 0.770110 0.075207
O O2 0.263085 0.900075 0.097316
O O3 0.347606 0.877963 0.046685
O O4 0.332445 0.842688 0.136411
O O5 0.737333 0.868667 0.887231
O O6 0.689002 0.915778 0.818422
O O7 0.767619 0.000000 0.889243
O O8 0.074714 0.537357 0.000000
O O9 0.000000 0.400621 0.000000
O O10 0.865878 0.731755 0.746883
O O11 0.907105 0.639253 0.734183
O O12 0.000000 0.773686 0.750587
O O13 0.537439 0.893869 0.317817
O O14 0.514576 0.869088 0.227196
O O15 0.596051 0.000000 0.254985
O O16 0.831623 0.498344 0.500000
O O17 0.737325 0.474650 0.432164
O O18 0.794450 0.397225 0.435470
O O19 0.869707 0.532555 0.411014
O O20 0.537446 0.074892 0.374006
O O21 0.400237 0.000000 0.378843
O O22 0.517722 0.258861 0.199369
O O23 0.606627 0.393374 0.185947
#
# Coordination Sequence:
#
# PCOD8328796 Si02
#       8
#    24  24  12  24  24  24  24  24
#     4  10  20  35  53  69  88 116 150 187 222 261
#     4   9  16  28  47  70  93 117 147 181 217 258
#     4  11  23  36  50  70  94 115 139 177 226 274
#     4   9  16  27  44  66  90 116 147 180 215 256
#     4  10  19  31  48  68  91 118 150 189 228 266
#     4   9  17  29  45  64  85 112 147 186 226 268
#     4   9  18  31  44  62  88 115 146 184 227 272
#     4  11  22  35  50  68  92 120 151 184 222 271
#
# _framework density 15.558771
#
# number of rings (size 3 to 8) (size 9 to 14) (size 15 to 20)
#    0.000    2.333    1.333    2.067    0.000    3.200 
#    0.000    1.333    0.000    3.733    0.000    1.867 
#    0.000    0.000    0.000    0.000    0.000   13.867 
#
# Total GULP energy -2231918.612070 kJ/mol
# GULP energy per Si atom -12399.547845 kJ/mol
# Density = 1.552336 g / cm^3
# Si number density = 15.558771 Si / 1000 Ang^3
#
#
#
# Elastic Constant Matrix: (Units=GPa)
#
#
# Indices 1 2 3 4 5 6 
#
# 1 78.6213 35.8895 46.7367 0.0000 0.0000 0.0000
# 2 35.8895 78.6213 46.7367 0.0000 0.0000 0.0000
# 3 46.7367 46.7367 96.6120 0.0000 0.0000 0.0000
# 4 0.0000 0.0000 0.0000 4.7612 0.0000 0.0000
# 5 0.0000 0.0000 0.0000 0.0000 4.7612 0.0000
# 6 0.0000 0.0000 0.0000 0.0000 0.0000 21.3659
#
#
#
# Elastic Compliance Matrix: (Units=1/GPa)
#
#
# Indices 1 2 3 4 5 6 
#
# 1 0.018917 -0.004485 -0.006981 0.000000 0.000000 0.000000
# 2 -0.004485 0.018917 -0.006981 0.000000 0.000000 0.000000
# 3 -0.006981 -0.006981 0.017105 0.000000 0.000000 0.000000
# 4 0.000000 0.000000 0.000000 0.210031 0.000000 0.000000
# 5 0.000000 0.000000 0.000000 0.000000 0.210031 0.000000
# 6 0.000000 0.000000 0.000000 0.000000 0.000000 0.046804
#
#
# Mechanical properties :
#
#
# Convention : Reuss Voigt Hill
#
# Bulk Modulus (GPa) = 55.42337 56.95337 56.18837
# Shear Modulus (GPa) = 8.85404 14.47711 11.66558
#
# Velocity S-wave (km/s) = 2.38811 3.05368 2.74117
# Velocity P-wave (km/s) = 6.58053 7.00843 6.79785
#
# Compressibility (1/GPa) = 0.01804293
#
# Stress axis : x y z
#
# Youngs Moduli (GPa) = 52.86340 52.86340 58.46160
#
# Poissons Ratio (x) = 0.23710 0.40814
# Poissons Ratio (y) = 0.23710 0.40814
# Poissons Ratio (z) = 0.36906 0.36906
#
# Static dielectric constant tensor:
#      x y z
#    x 3.036520 0.000000 0.000000 
#    y 0.000000 3.036520 0.000000 
#    z 0.000000 0.000000 2.912400 
# 
# 
# High freq. dielectric constant tensor:
#      x y z
#    x 1.591800 0.000000 0.000000 
#    y 0.000000 1.591800 0.000000 
#    z 0.000000 0.000000 1.585330 
# 
# From -- ./inp_files/10843.got.cif
#   From: 2010.03.12/outbox.cif.g09.slc.cpg/sg191_6_cif.got.tgz:10843.got - 2010.04.01 12:09:02.
