data_PCOD8328120
_publ_section_title
;
Structure prediction by ZEFSAII (Michael W. Deem and Ramdas Pophale) SiO2 
 PCOD8328120
Probable space group: P -6 2 C
;
_chemical_formula_sum "Si O2"
_cell_formula_units_Z 60
_cell_length_a 19.373375
_cell_length_b 19.373375
_cell_length_c 9.341404
_cell_angle_alpha 90.000000
_cell_angle_beta 90.000000
_cell_angle_gamma 120.000000
_cell_volume 3036.360665
_symmetry_space_group_name_H-M "P -6 2 C"
_symmetry_group_IT_number 190
_symmetry_cell_setting 'hexagonal'
loop_
_space_group_symop_operation_xyz
x,y,z
-x+y,-x,1/2-z
-y,x-y,z
x,y,1/2-z
-x+y,-x,z
-y,x-y,1/2-z
x-y,-y,-z
-x,-x+y,-z
y,x,-z
y,x,1/2+z
x-y,-y,1/2+z
-x,-x+y,1/2+z
loop_
_atom_site_type_symbol
_atom_site_label
_atom_site_fract_x
_atom_site_fract_y
_atom_site_fract_z
Si Si1 0.934470 0.122349 0.750000
Si Si2 0.065258 0.878640 0.750000
Si Si3 0.084769 0.532385 0.419358
Si Si4 0.080535 0.407255 0.913273
Si Si5 0.152457 0.852756 0.503651
Si Si6 0.601136 0.922322 0.089403
O O1 0.918144 0.161824 0.612542
O O2 0.025775 0.144357 0.750000
O O3 0.879680 0.027058 0.750000
O O4 0.082569 0.840755 0.611344
O O5 0.078755 0.513194 0.250000
O O6 0.131255 0.492826 0.501133
O O7 0.121559 0.627339 0.447589
O O8 0.000000 0.489981 0.500000
O O9 0.065394 0.423288 0.750000
O O10 0.122737 0.354692 0.908578
O O11 0.000000 0.355581 0.000000
O O12 0.135928 0.772052 0.427052
O O13 0.611642 0.953561 0.250000
O O14 0.654113 0.000000 0.000000
#
# Coordination Sequence:
#
# PCOD8328120 Si02
#       6
#     6   6  12  12  12  12
#     4  12  25  42  64  80 120 164 222 280 340 388
#     4  12  25  44  58  88 114 166 222 280 338 390
#     4   9  18  33  57  85 113 142 174 217 282 354
#     4  11  22  37  57  86 118 151 195 244 302 364
#     4  12  25  38  60  88 120 161 209 267 319 370
#     4  10  21  37  58  87 118 152 193 243 301 364
#
# _framework density 19.760497000000001
#
# number of rings (size 3 to 8) (size 9 to 14) (size 15 to 20)
#    0.000    1.200    2.000    6.200    4.200    0.800 
#    0.000    2.000    0.000    0.800    0.000    0.000 
#    0.000    0.000    0.000    0.000    0.000    0.000 
#
# Total GULP energy -743398.911093 kJ/mol
# GULP energy per Si atom -12389.981852 kJ/mol
# Density = 1.971552 g / cm^3
# Si number density = 19.760497 Si / 1000 Ang^3
#
#
#
# Elastic Constant Matrix: (Units=GPa)
#
#
# Indices 1 2 3 4 5 6 
#
# 1 90.3549 26.9107 25.0666 0.0000 0.0000 0.0000
# 2 26.9107 90.3549 25.0666 0.0000 0.0000 0.0000
# 3 25.0666 25.0666 125.0602 0.0000 0.0000 0.0000
# 4 0.0000 0.0000 0.0000 29.6342 0.0000 0.0000
# 5 0.0000 0.0000 0.0000 0.0000 29.6342 0.0000
# 6 0.0000 0.0000 0.0000 0.0000 0.0000 31.7221
#
#
#
# Elastic Compliance Matrix: (Units=1/GPa)
#
#
# Indices 1 2 3 4 5 6 
#
# 1 0.012544 -0.003218 -0.001869 0.000000 0.000000 0.000000
# 2 -0.003218 0.012544 -0.001869 0.000000 0.000000 0.000000
# 3 -0.001869 -0.001869 0.008746 0.000000 0.000000 0.000000
# 4 0.000000 0.000000 0.000000 0.033745 0.000000 0.000000
# 5 0.000000 0.000000 0.000000 0.000000 0.033745 0.000000
# 6 0.000000 0.000000 0.000000 0.000000 0.000000 0.031524
#
#
# Mechanical properties :
#
#
# Convention : Reuss Voigt Hill
#
# Bulk Modulus (GPa) = 50.19695 51.09530 50.64613
# Shear Modulus (GPa) = 32.59434 33.44652 33.02043
#
# Velocity S-wave (km/s) = 4.06577 4.11858 4.09226
# Velocity P-wave (km/s) = 6.89192 6.96637 6.92924
#
# Compressibility (1/GPa) = 0.01992153
#
# Stress axis : x y z
#
# Youngs Moduli (GPa) = 79.71699 79.71699 114.34373
#
# Poissons Ratio (x) = 0.25649 0.21376
# Poissons Ratio (y) = 0.25649 0.21376
# Poissons Ratio (z) = 0.14903 0.14903
#
# Static dielectric constant tensor:
#      x y z
#    x 3.929640 0.000000 0.000000 
#    y 0.000000 3.929640 0.000000 
#    z 0.000000 0.000000 3.782400 
# 
# 
# High freq. dielectric constant tensor:
#      x y z
#    x 1.754750 0.000000 0.000000 
#    y 0.000000 1.754750 0.000000 
#    z 0.000000 0.000000 1.793150 
# 
# From -- ./inp_files/949.got.cif
#   From: 2010.06.25/outbox.cif.g09.slc.cpg/sg190_1_cif.got.tgz:949.got - 2010.06.28 13:08:06.
