data_PCOD8328444
_publ_section_title
;
Structure prediction by ZEFSAII (Michael W. Deem and Ramdas Pophale) SiO2 
 PCOD8328444
Probable space group: P 6/M M M
;
_chemical_formula_sum "Si O2"
_cell_formula_units_Z 156
_cell_length_a 21.722900
_cell_length_b 21.722900
_cell_length_c 23.254926
_cell_angle_alpha 90.000000
_cell_angle_beta 90.000000
_cell_angle_gamma 120.000000
_cell_volume 9503.447929
_symmetry_space_group_name_H-M "P 6/M M M"
_symmetry_group_IT_number 191
_symmetry_cell_setting 'hexagonal'
loop_
_space_group_symop_operation_xyz
x,y,z
x-y,x,z
-y,x-y,z
-x,-y,z
-x+y,-x,z
y,-x+y,z
x-y,-y,-z
-x,-x+y,-z
y,x,-z
-y,-x,-z
-x+y,y,-z
x,x-y,-z
-x,-y,-z
-x+y,-x,-z
y,-x+y,-z
x,y,-z
x-y,x,-z
-y,x-y,-z
-x+y,y,z
x,x-y,z
-y,-x,z
y,x,z
x-y,-y,z
-x,-x+y,z
loop_
_atom_site_type_symbol
_atom_site_label
_atom_site_fract_x
_atom_site_fract_y
_atom_site_fract_z
Si Si1 0.335224 0.525107 0.331321
Si Si2 0.532183 0.613177 0.000000
Si Si3 0.153618 0.701477 0.217935
Si Si4 0.187155 0.665466 0.099670
Si Si5 0.785983 0.708139 0.619891
Si Si6 0.854911 0.291200 0.563467
Si Si7 0.217709 0.297435 0.246797
O O1 0.257999 0.515999 0.331188
O O2 0.392300 0.607701 0.330372
O O3 0.345550 0.487170 0.275103
O O4 0.345912 0.490275 0.389337
O O5 0.530926 0.657493 0.944759
O O6 0.600811 0.600811 0.000000
O O7 0.463219 0.536782 0.000000
O O8 0.230002 0.769999 0.222922
O O9 0.151796 0.657530 0.162011
O O10 0.094766 0.725999 0.213380
O O11 0.206444 0.603222 0.091333
O O12 0.258895 0.741106 0.090657
O O13 0.866630 0.733260 0.602177
O O14 0.775074 0.775074 0.609496
O O15 0.730366 0.643427 0.580950
O O16 0.771739 0.682844 0.685937
O O17 0.873375 0.326792 0.500000
O O18 0.778371 0.221630 0.562622
O O19 0.136322 0.272644 0.228505
O O20 0.234554 0.234554 0.231917
#
# Coordination Sequence:
#
# PCOD8328444 Si02
#       7
#    24  12  24  24  24  24  24
#     4  10  18  29  44  63  88 115 147 187 233 280
#     4   9  19  34  48  64  90 125 162 196 234 284
#     4   9  17  29  45  67  93 122 154 189 228 272
#     4  10  19  31  49  72  98 126 160 201 246 292
#     4   9  16  28  47  68  88 111 142 180 220 264
#     4   9  17  29  44  61  83 114 150 186 224 267
#     4   9  16  28  47  69  92 118 150 188 228 271
#
# _framework density 16.415095000000001
#
# number of rings (size 3 to 8) (size 9 to 14) (size 15 to 20)
#    0.000    2.692    1.538    1.000    0.000    1.231 
#    0.000    2.308    0.000    4.000    0.000    3.231 
#    0.000    0.000    0.000    3.846    0.000    4.000 
#
# Total GULP energy -1933405.930784 kJ/mol
# GULP energy per Si atom -12393.627761 kJ/mol
# Density = 1.637773 g / cm^3
# Si number density = 16.415095 Si / 1000 Ang^3
#
#
#
# Elastic Constant Matrix: (Units=GPa)
#
#
# Indices 1 2 3 4 5 6 
#
# 1 71.0860 34.4780 41.6249 0.0000 0.0000 0.0000
# 2 34.4780 71.0860 41.6249 0.0000 0.0000 0.0000
# 3 41.6249 41.6249 96.4035 0.0000 0.0000 0.0000
# 4 0.0000 0.0000 0.0000 16.5516 0.0000 0.0000
# 5 0.0000 0.0000 0.0000 0.0000 16.5516 0.0000
# 6 0.0000 0.0000 0.0000 0.0000 0.0000 18.3040
#
#
#
# Elastic Compliance Matrix: (Units=1/GPa)
#
#
# Indices 1 2 3 4 5 6 
#
# 1 0.020840 -0.006476 -0.006202 0.000000 0.000000 0.000000
# 2 -0.006476 0.020840 -0.006202 0.000000 0.000000 0.000000
# 3 -0.006202 -0.006202 0.015729 0.000000 0.000000 0.000000
# 4 0.000000 0.000000 0.000000 0.060417 0.000000 0.000000
# 5 0.000000 0.000000 0.000000 0.000000 0.060417 0.000000
# 6 0.000000 0.000000 0.000000 0.000000 0.000000 0.054633
#
#
# Mechanical properties :
#
#
# Convention : Reuss Voigt Hill
#
# Bulk Modulus (GPa) = 50.89408 52.67012 51.78210
# Shear Modulus (GPa) = 18.03840 18.33796 18.18818
#
# Velocity S-wave (km/s) = 3.31855 3.34599 3.33230
# Velocity P-wave (km/s) = 6.76428 6.86175 6.81319
#
# Compressibility (1/GPa) = 0.01964865
#
# Stress axis : x y z
#
# Youngs Moduli (GPa) = 47.98419 47.98419 63.57723
#
# Poissons Ratio (x) = 0.31076 0.39431
# Poissons Ratio (y) = 0.31076 0.39431
# Poissons Ratio (z) = 0.29760 0.29760
#
# Static dielectric constant tensor:
#      x y z
#    x 2.924470 0.000000 0.000000 
#    y 0.000000 2.924470 0.000000 
#    z 0.000000 0.000000 3.337440 
# 
# 
# High freq. dielectric constant tensor:
#      x y z
#    x 1.607430 0.000000 0.000000 
#    y 0.000000 1.607430 0.000000 
#    z 0.000000 0.000000 1.630220 
# 
# From -- ./inp_files/7723.got.cif
#   From: 2010.03.12/outbox.cif.g09.slc.cpg/sg191_4_cif.got.tgz:7723.got - 2010.04.01 12:09:02.
