data_PCOD8328478
_publ_section_title
;
Structure prediction by ZEFSAII (Michael W. Deem and Ramdas Pophale) SiO2 
 PCOD8328478
Probable space group: P 6/M M M
;
_chemical_formula_sum "Si O2"
_cell_formula_units_Z 84
_cell_length_a 22.901154
_cell_length_b 22.901154
_cell_length_c 11.958849
_cell_angle_alpha 90.000000
_cell_angle_beta 90.000000
_cell_angle_gamma 120.000000
_cell_volume 5431.687156
_symmetry_space_group_name_H-M "P 6/M M M"
_symmetry_group_IT_number 191
_symmetry_cell_setting 'hexagonal'
loop_
_space_group_symop_operation_xyz
x,y,z
x-y,x,z
-y,x-y,z
-x,-y,z
-x+y,-x,z
y,-x+y,z
x-y,-y,-z
-x,-x+y,-z
y,x,-z
-y,-x,-z
-x+y,y,-z
x,x-y,-z
-x,-y,-z
-x+y,-x,-z
y,-x+y,-z
x,y,-z
x-y,x,-z
-y,x-y,-z
-x+y,y,z
x,x-y,z
-y,-x,z
y,x,z
x-y,-y,z
-x,-x+y,z
loop_
_atom_site_type_symbol
_atom_site_label
_atom_site_fract_x
_atom_site_fract_y
_atom_site_fract_z
Si Si1 0.075826 0.282032 0.500000
Si Si2 0.476023 0.395985 0.374642
Si Si3 0.643175 0.922237 0.721858
Si Si4 0.846133 0.692265 0.132373
Si Si5 0.076648 0.923353 0.866940
O O1 0.125977 0.251954 0.500000
O O2 0.089790 0.328364 0.392492
O O3 0.000000 0.219108 0.500000
O O4 0.483575 0.374120 0.500000
O O5 0.550411 0.449590 0.326520
O O6 0.430407 0.430407 0.382147
O O7 0.437205 0.330516 0.295168
O O8 0.653346 0.883274 0.823671
O O9 0.681074 0.000000 0.756123
O O10 0.884860 0.769719 0.176348
O O11 0.844828 0.689655 0.000000
O O12 0.000000 0.884574 0.820789
O O13 0.075916 0.924085 0.000000
#
# Coordination Sequence:
#
# PCOD8328478 Si02
#       5
#    12  24  24  12  12
#     4  10  18  30  47  68  91 121 157 199 253 305
#     4   8  13  23  42  69  97 117 133 160 209 276
#     4  10  18  29  46  67  93 121 152 191 238 291
#     4  11  22  32  43  60  89 129 168 206 246 287
#     4   9  17  30  46  61  77 104 153 218 280 321
#
# _framework density 15.464809000000001
#
# number of rings (size 3 to 8) (size 9 to 14) (size 15 to 20)
#    0.000    2.571    2.857    1.857    0.000    2.286 
#    0.000    0.000    0.000    1.000    0.000    4.000 
#    1.429    0.000    1.714    0.000    0.000    0.000 
#
# Total GULP energy -1041137.968077 kJ/mol
# GULP energy per Si atom -12394.499620 kJ/mol
# Density = 1.542961 g / cm^3
# Si number density = 15.464809 Si / 1000 Ang^3
#
#
#
# Elastic Constant Matrix: (Units=GPa)
#
#
# Indices 1 2 3 4 5 6 
#
# 1 104.8817 60.6146 34.8593 0.0000 0.0000 0.0000
# 2 60.6146 104.8817 34.8593 0.0000 0.0000 0.0000
# 3 34.8593 34.8593 57.8025 0.0000 0.0000 0.0000
# 4 0.0000 0.0000 0.0000 19.4189 0.0000 0.0000
# 5 0.0000 0.0000 0.0000 0.0000 19.4189 0.0000
# 6 0.0000 0.0000 0.0000 0.0000 0.0000 22.1335
#
#
#
# Elastic Compliance Matrix: (Units=1/GPa)
#
#
# Indices 1 2 3 4 5 6 
#
# 1 0.015345 -0.007245 -0.004885 0.000000 0.000000 0.000000
# 2 -0.007245 0.015345 -0.004885 0.000000 0.000000 0.000000
# 3 -0.004885 -0.004885 0.023193 0.000000 0.000000 0.000000
# 4 0.000000 0.000000 0.000000 0.051496 0.000000 0.000000
# 5 0.000000 0.000000 0.000000 0.000000 0.051496 0.000000
# 6 0.000000 0.000000 0.000000 0.000000 0.000000 0.045180
#
#
# Mechanical properties :
#
#
# Convention : Reuss Voigt Hill
#
# Bulk Modulus (GPa) = 50.37094 58.69244 54.53169
# Shear Modulus (GPa) = 20.60125 21.34312 20.97218
#
# Velocity S-wave (km/s) = 3.65381 3.71901 3.68655
# Velocity P-wave (km/s) = 7.10228 7.51505 7.31158
#
# Compressibility (1/GPa) = 0.01985272
#
# Stress axis : x y z
#
# Youngs Moduli (GPa) = 65.16664 65.16664 43.11735
#
# Poissons Ratio (x) = 0.47212 0.21063
# Poissons Ratio (y) = 0.47212 0.21063
# Poissons Ratio (z) = 0.31835 0.31835
#
# Static dielectric constant tensor:
#      x y z
#    x 3.031480 0.000000 0.000000 
#    y 0.000000 3.031480 0.000000 
#    z 0.000000 0.000000 2.701350 
# 
# 
# High freq. dielectric constant tensor:
#      x y z
#    x 1.577190 0.000000 0.000000 
#    y 0.000000 1.577190 0.000000 
#    z 0.000000 0.000000 1.563650 
# 
# From -- ./inp_files/2691.got.cif
#   From: 2010.03.12/outbox.cif.g09.slc.cpg/sg191_2_cif.got.tgz:2691.got - 2010.04.01 12:09:02.
