data_PCOD8328923
_publ_section_title
;
Structure prediction by ZEFSAII (Michael W. Deem and Ramdas Pophale) SiO2 
 PCOD8328923
Probable space group: P 6/M M M
;
_chemical_formula_sum "Si O2"
_cell_formula_units_Z 96
_cell_length_a 33.255411
_cell_length_b 33.255411
_cell_length_c 7.541408
_cell_angle_alpha 90.000000
_cell_angle_beta 90.000000
_cell_angle_gamma 120.000000
_cell_volume 7222.835239
_symmetry_space_group_name_H-M "P 6/M M M"
_symmetry_group_IT_number 191
_symmetry_cell_setting 'hexagonal'
loop_
_space_group_symop_operation_xyz
x,y,z
x-y,x,z
-y,x-y,z
-x,-y,z
-x+y,-x,z
y,-x+y,z
x-y,-y,-z
-x,-x+y,-z
y,x,-z
-y,-x,-z
-x+y,y,-z
x,x-y,-z
-x,-y,-z
-x+y,-x,-z
y,-x+y,-z
x,y,-z
x-y,x,-z
-y,x-y,-z
-x+y,y,z
x,x-y,z
-y,-x,z
y,x,z
x-y,-y,z
-x,-x+y,z
loop_
_atom_site_type_symbol
_atom_site_label
_atom_site_fract_x
_atom_site_fract_y
_atom_site_fract_z
Si Si1 0.728349 0.909723 0.204502
Si Si2 0.335130 0.283856 0.209637
Si Si3 0.144191 0.196693 0.500000
Si Si4 0.572855 0.517439 0.500000
Si Si5 0.055440 0.630834 0.802634
O O1 0.711064 0.855532 0.229497
O O2 0.685485 0.916090 0.268966
O O3 0.773152 0.940589 0.324151
O O4 0.742015 0.925614 0.000000
O O5 0.302060 0.302060 0.291146
O O6 0.388690 0.317055 0.270937
O O7 0.335189 0.287996 0.000000
O O8 0.153351 0.153351 0.500000
O O9 0.088807 0.177614 0.500000
O O10 0.544397 0.544397 0.500000
O O11 0.537793 0.462208 0.500000
O O12 0.605402 0.531184 0.673645
O O13 0.000000 0.603532 0.806950
O O14 0.075018 0.631935 0.000000
#
# Coordination Sequence:
#
# PCOD8328923 Si02
#       5
#    24  24  12  12  24
#     4   9  17  28  41  58  79  98 115 138 169 205
#     4   8  13  22  36  51  67  89 115 139 163 196
#     4  10  20  31  43  59  76  94 115 138 168 208
#     4   9  16  23  31  44  59  76 102 135 171 207
#     4   8  14  23  32  43  60  81 106 135 164 194
#
# _framework density 13.291180000000001
#
# number of rings (size 3 to 8) (size 9 to 14) (size 15 to 20)
#    0.000    3.375    0.000    2.250    0.000    3.000 
#    0.000    5.000    0.000    0.125    0.000    0.000 
#    0.000    0.000    0.000    6.250    0.000    0.000 
#
# Total GULP energy -1189468.791840 kJ/mol
# GULP energy per Si atom -12390.299915 kJ/mol
# Density = 1.326093 g / cm^3
# Si number density = 13.291180 Si / 1000 Ang^3
#
#
#
# Elastic Constant Matrix: (Units=GPa)
#
#
# Indices 1 2 3 4 5 6 
#
# 1 80.9979 40.8830 31.4801 0.0000 0.0000 0.0000
# 2 40.8830 80.9979 31.4801 0.0000 0.0000 0.0000
# 3 31.4801 31.4801 65.8688 0.0000 0.0000 0.0000
# 4 0.0000 0.0000 0.0000 12.6427 0.0000 0.0000
# 5 0.0000 0.0000 0.0000 0.0000 12.6427 0.0000
# 6 0.0000 0.0000 0.0000 0.0000 0.0000 20.0574
#
#
#
# Elastic Compliance Matrix: (Units=1/GPa)
#
#
# Indices 1 2 3 4 5 6 
#
# 1 0.017911 -0.007017 -0.005207 0.000000 0.000000 0.000000
# 2 -0.007017 0.017911 -0.005207 0.000000 0.000000 0.000000
# 3 -0.005207 -0.005207 0.020158 0.000000 0.000000 0.000000
# 4 0.000000 0.000000 0.000000 0.079097 0.000000 0.000000
# 5 0.000000 0.000000 0.000000 0.000000 0.079097 0.000000
# 6 0.000000 0.000000 0.000000 0.000000 0.000000 0.049857
#
#
# Mechanical properties :
#
#
# Convention : Reuss Voigt Hill
#
# Bulk Modulus (GPa) = 47.34726 48.39455 47.87090
# Shear Modulus (GPa) = 16.34349 17.33667 16.84008
#
# Velocity S-wave (km/s) = 3.51044 3.61553 3.56337
# Velocity P-wave (km/s) = 7.22020 7.34299 7.28185
#
# Compressibility (1/GPa) = 0.02112055
#
# Stress axis : x y z
#
# Youngs Moduli (GPa) = 55.83045 55.83045 49.60705
#
# Poissons Ratio (x) = 0.39176 0.25829
# Poissons Ratio (y) = 0.39176 0.25829
# Poissons Ratio (z) = 0.29069 0.29069
#
# Static dielectric constant tensor:
#      x y z
#    x 2.581580 0.000000 0.000000 
#    y 0.000000 2.581580 0.000000 
#    z 0.000000 0.000000 2.805780 
# 
# 
# High freq. dielectric constant tensor:
#      x y z
#    x 1.468420 0.000000 0.000000 
#    y 0.000000 1.468420 0.000000 
#    z 0.000000 0.000000 1.517590 
# 
# From -- ./inp_files/1581.got.cif
#   From: 2010.03.12/outbox.cif.g09.slc.cpg/sg191_1_cif.got.tgz:1581.got - 2010.04.01 12:09:02.
