data_PCOD8328033
_publ_section_title
;
Structure prediction by ZEFSAII (Michael W. Deem and Ramdas Pophale) SiO2 
 PCOD8328033
Probable space group: P -6 2 C
;
_chemical_formula_sum "Si O2"
_cell_formula_units_Z 60
_cell_length_a 11.984283
_cell_length_b 11.984283
_cell_length_c 23.469630
_cell_angle_alpha 90.000000
_cell_angle_beta 90.000000
_cell_angle_gamma 120.000000
_cell_volume 2919.180751
_symmetry_space_group_name_H-M "P -6 2 C"
_symmetry_group_IT_number 190
_symmetry_cell_setting 'hexagonal'
loop_
_space_group_symop_operation_xyz
x,y,z
-x+y,-x,1/2-z
-y,x-y,z
x,y,1/2-z
-x+y,-x,z
-y,x-y,1/2-z
x-y,-y,-z
-x,-x+y,-z
y,x,-z
y,x,1/2+z
x-y,-y,1/2+z
-x,-x+y,1/2+z
loop_
_atom_site_type_symbol
_atom_site_label
_atom_site_fract_x
_atom_site_fract_y
_atom_site_fract_z
Si Si1 0.907679 0.173882 0.132985
Si Si2 0.817946 0.604784 0.250000
Si Si3 0.459110 0.960867 0.750000
Si Si4 0.595563 0.533177 0.870384
Si Si5 0.664174 0.073272 0.440094
Si Si6 0.333333 0.666667 0.402362
Si Si7 0.333334 0.666668 0.535658
Si Si8 0.000000 0.000000 0.179201
O O1 0.844116 0.161545 0.193389
O O2 0.794667 0.088424 0.087632
O O3 0.989585 0.318997 0.107923
O O4 0.005104 0.123568 0.149252
O O5 0.669961 0.489642 0.250000
O O6 0.930719 0.572597 0.250000
O O7 0.466867 0.046027 0.803174
O O8 0.459488 0.448806 0.901229
O O9 0.682610 0.468220 0.881296
O O10 0.682569 0.215480 0.442664
O O11 0.640466 0.000000 0.500000
O O12 0.333334 0.666667 0.469093
O O13 0.000000 0.000000 0.250000
#
# Coordination Sequence:
#
# PCOD8328033 Si02
#       8
#    12   6   6  12  12   4   4   4
#     4  11  25  44  69 104 136 180 234 284 340 420
#     4  10  19  36  64  98 135 174 220 278 348 408
#     4  10  21  36  62 100 135 170 216 288 344 408
#     4  11  25  42  68 100 136 175 228 284 351 412
#     4  12  24  43  71 105 139 184 239 293 344 404
#     4  12  27  46  67  99 139 187 225 277 350 430
#     4  12  24  42  70 101 142 189 237 286 344 406
#     4  12  27  48  73 101 145 192 225 277 362 442
#
# _framework density 20.553709999999999
#
# number of rings (size 3 to 8) (size 9 to 14) (size 15 to 20)
#    0.000    0.800    7.000    0.200    2.800    0.800 
#    0.000    3.000    0.000    0.000    0.000    0.000 
#    0.000    0.000    0.000    0.000    0.000    0.000 
#
# Total GULP energy -743685.860718 kJ/mol
# GULP energy per Si atom -12394.764345 kJ/mol
# Density = 2.050693 g / cm^3
# Si number density = 20.553710 Si / 1000 Ang^3
#
#
#
# Elastic Constant Matrix: (Units=GPa)
#
#
# Indices 1 2 3 4 5 6 
#
# 1 98.4148 19.8028 26.7584 0.0002 -0.0002 0.0002
# 2 19.8028 98.4156 26.7584 -0.0002 0.0001 0.0001
# 3 26.7584 26.7584 111.3235 -0.0001 0.0000 -0.0001
# 4 0.0002 -0.0002 -0.0001 36.1722 0.0000 -0.0001
# 5 -0.0002 0.0001 0.0000 0.0000 36.1719 -0.0002
# 6 0.0002 0.0001 -0.0001 -0.0001 -0.0002 39.3061
#
#
#
# Elastic Compliance Matrix: (Units=1/GPa)
#
#
# Indices 1 2 3 4 5 6 
#
# 1 0.011106 -0.001614 -0.002282 0.000000 0.000000 0.000000
# 2 -0.001614 0.011106 -0.002281 0.000000 0.000000 0.000000
# 3 -0.002282 -0.002281 0.010080 0.000000 0.000000 0.000000
# 4 0.000000 0.000000 0.000000 0.027646 0.000000 0.000000
# 5 0.000000 0.000000 0.000000 0.000000 0.027646 0.000000
# 6 0.000000 0.000000 0.000000 0.000000 0.000000 0.025441
#
#
# Mechanical properties :
#
#
# Convention : Reuss Voigt Hill
#
# Bulk Modulus (GPa) = 50.15758 50.53256 50.34507
# Shear Modulus (GPa) = 37.87156 37.98568 37.92862
#
# Velocity S-wave (km/s) = 4.29717 4.30364 4.30040
# Velocity P-wave (km/s) = 7.00550 7.02382 7.01467
#
# Compressibility (1/GPa) = 0.01993717
#
# Stress axis : x y z
#
# Youngs Moduli (GPa) = 90.03936 90.04014 99.21013
#
# Poissons Ratio (x) = 0.14536 0.22635
# Poissons Ratio (y) = 0.14536 0.22635
# Poissons Ratio (z) = 0.20543 0.20543
#
# Static dielectric constant tensor:
#      x y z
#    x 3.658700 0.000010 0.000000 
#    y 0.000010 3.658710 -0.000010 
#    z 0.000000 -0.000010 3.766670 
# 
# 
# High freq. dielectric constant tensor:
#      x y z
#    x 1.805560 0.000000 0.000000 
#    y 0.000000 1.805560 0.000000 
#    z 0.000000 0.000000 1.811450 
# 
# From -- ./inp_files/4925.got.cif
#   From: 2010.06.25/outbox.cif.g09.slc.cpg/sg190_3_cif.got.tgz:4925.got - 2010.06.28 13:08:06.
