data_PCOD8328298
_publ_section_title
;
Structure prediction by ZEFSAII (Michael W. Deem and Ramdas Pophale) SiO2 
 PCOD8328298
Probable space group: P 6/M M M
;
_chemical_formula_sum "Si O2"
_cell_formula_units_Z 144
_cell_length_a 19.076871
_cell_length_b 19.076871
_cell_length_c 30.646915
_cell_angle_alpha 90.000000
_cell_angle_beta 90.000000
_cell_angle_gamma 120.000000
_cell_volume 9658.989222
_symmetry_space_group_name_H-M "P 6/M M M"
_symmetry_group_IT_number 191
_symmetry_cell_setting 'hexagonal'
loop_
_space_group_symop_operation_xyz
x,y,z
x-y,x,z
-y,x-y,z
-x,-y,z
-x+y,-x,z
y,-x+y,z
x-y,-y,-z
-x,-x+y,-z
y,x,-z
-y,-x,-z
-x+y,y,-z
x,x-y,-z
-x,-y,-z
-x+y,-x,-z
y,-x+y,-z
x,y,-z
x-y,x,-z
-y,x-y,-z
-x+y,y,z
x,x-y,z
-y,-x,z
y,x,z
x-y,-y,z
-x,-x+y,z
loop_
_atom_site_type_symbol
_atom_site_label
_atom_site_fract_x
_atom_site_fract_y
_atom_site_fract_z
Si Si1 0.668224 0.171535 0.895664
Si Si2 0.331352 0.503598 0.547518
Si Si3 0.910078 0.372144 0.193759
Si Si4 0.907862 0.251481 0.948645
Si Si5 0.331090 0.826797 0.279907
Si Si6 0.461775 0.371111 0.633564
O O1 0.579124 0.158248 0.905371
O O2 0.734260 0.265741 0.902332
O O3 0.676759 0.146806 0.846565
O O4 0.685206 0.115201 0.927805
O O5 0.320209 0.460325 0.500000
O O6 0.265662 0.531323 0.553697
O O7 0.417793 0.582208 0.549085
O O8 0.323322 0.445518 0.587680
O O9 0.914323 0.457162 0.198129
O O10 0.874304 0.322102 0.238568
O O11 0.000000 0.386200 0.186332
O O12 0.841540 0.158461 0.934505
O O13 0.000000 0.275689 0.934644
O O14 0.904053 0.260805 0.000000
O O15 0.419407 0.838814 0.280061
O O16 0.267313 0.732688 0.275452
O O17 0.315858 0.859929 0.325308
O O18 0.548626 0.451375 0.632344
O O19 0.390488 0.390488 0.639883
#
# Coordination Sequence:
#
# PCOD8328298 Si02
#       6
#    24  24  24  24  24  24
#     4  10  19  30  44  63  88 117 149 183 216 249
#     4   9  16  25  37  52  69  88 111 142 181 222
#     4   9  17  28  41  56  75 101 132 166 204 245
#     4   9  18  32  49  68  89 114 144 178 217 261
#     4  10  18  27  39  54  72  93 119 153 194 238
#     4   9  17  27  37  49  66  89 116 145 178 219
#
# _framework density 14.908391999999999
#
# number of rings (size 3 to 8) (size 9 to 14) (size 15 to 20)
#    0.000    2.667    0.000    2.500    0.000    4.333 
#    0.000    5.833    0.000    1.167    0.000    1.167 
#    0.000    0.000    0.000    0.000    0.000    0.000 
#
# Total GULP energy -1784518.252254 kJ/mol
# GULP energy per Si atom -12392.487863 kJ/mol
# Density = 1.487446 g / cm^3
# Si number density = 14.908392 Si / 1000 Ang^3
#
#
#
# Elastic Constant Matrix: (Units=GPa)
#
#
# Indices 1 2 3 4 5 6 
#
# 1 53.4455 33.1932 30.9631 0.0000 0.0000 0.0000
# 2 33.1932 53.4455 30.9631 0.0000 0.0000 0.0000
# 3 30.9631 30.9631 71.5629 0.0000 0.0000 0.0000
# 4 0.0000 0.0000 0.0000 19.0883 0.0000 0.0000
# 5 0.0000 0.0000 0.0000 0.0000 19.0883 0.0000
# 6 0.0000 0.0000 0.0000 0.0000 0.0000 10.1262
#
#
#
# Elastic Compliance Matrix: (Units=1/GPa)
#
#
# Indices 1 2 3 4 5 6 
#
# 1 0.033043 -0.016334 -0.007230 0.000000 0.000000 0.000000
# 2 -0.016334 0.033043 -0.007230 0.000000 0.000000 0.000000
# 3 -0.007230 -0.007230 0.020230 0.000000 0.000000 0.000000
# 4 0.000000 0.000000 0.000000 0.052388 0.000000 0.000000
# 5 0.000000 0.000000 0.000000 0.000000 0.052388 0.000000
# 6 0.000000 0.000000 0.000000 0.000000 0.000000 0.098754
#
#
# Mechanical properties :
#
#
# Convention : Reuss Voigt Hill
#
# Bulk Modulus (GPa) = 40.43628 40.96588 40.70108
# Shear Modulus (GPa) = 13.90138 15.21621 14.55880
#
# Velocity S-wave (km/s) = 3.05692 3.19822 3.12837
# Velocity P-wave (km/s) = 6.29617 6.41687 6.35681
#
# Compressibility (1/GPa) = 0.02473027
#
# Stress axis : x y z
#
# Youngs Moduli (GPa) = 30.26327 30.26327 49.43159
#
# Poissons Ratio (x) = 0.49431 0.35738
# Poissons Ratio (y) = 0.49431 0.35738
# Poissons Ratio (z) = 0.21880 0.21880
#
# Static dielectric constant tensor:
#      x y z
#    x 2.718470 0.000000 0.000000 
#    y 0.000000 2.718470 0.000000 
#    z 0.000000 0.000000 3.306500 
# 
# 
# High freq. dielectric constant tensor:
#      x y z
#    x 1.536690 0.000000 0.000000 
#    y 0.000000 1.536690 0.000000 
#    z 0.000000 0.000000 1.592590 
# 
# From -- ./inp_files/9921.got.cif
#   From: 2010.03.12/outbox.cif.g09.slc.cpg/sg191_5_cif.got.tgz:9921.got - 2010.04.01 12:09:02.
