data_PCOD8328741
_publ_section_title
;
Structure prediction by ZEFSAII (Michael W. Deem and Ramdas Pophale) SiO2 
 PCOD8328741
Probable space group: P 6/M M M
;
_chemical_formula_sum "Si O2"
_cell_formula_units_Z 84
_cell_length_a 17.498176
_cell_length_b 17.498176
_cell_length_c 19.907769
_cell_angle_alpha 90.000000
_cell_angle_beta 90.000000
_cell_angle_gamma 120.000000
_cell_volume 5278.843482
_symmetry_space_group_name_H-M "P 6/M M M"
_symmetry_group_IT_number 191
_symmetry_cell_setting 'hexagonal'
loop_
_space_group_symop_operation_xyz
x,y,z
x-y,x,z
-y,x-y,z
-x,-y,z
-x+y,-x,z
y,-x+y,z
x-y,-y,-z
-x,-x+y,-z
y,x,-z
-y,-x,-z
-x+y,y,-z
x,x-y,-z
-x,-y,-z
-x+y,-x,-z
y,-x+y,-z
x,y,-z
x-y,x,-z
-y,x-y,-z
-x+y,y,z
x,x-y,z
-y,-x,z
y,x,z
x-y,-y,z
-x,-x+y,z
loop_
_atom_site_type_symbol
_atom_site_label
_atom_site_fract_x
_atom_site_fract_y
_atom_site_fract_z
Si Si1 0.895643 0.532486 0.425914
Si Si2 0.101187 0.730718 0.299741
Si Si3 0.486358 0.332454 0.828040
Si Si4 0.590600 0.000000 0.925018
O O1 0.865453 0.546263 0.500000
O O2 0.855736 0.427868 0.412553
O O3 0.864352 0.575332 0.369127
O O4 0.000000 0.578546 0.422804
O O5 0.164590 0.835411 0.285426
O O6 0.112653 0.673032 0.242435
O O7 0.000000 0.708419 0.303233
O O8 0.496108 0.248054 0.842800
O O9 0.582451 0.417550 0.826288
O O10 0.425602 0.337863 0.886555
O O11 0.500000 0.000000 0.928037
O O12 0.625793 0.000000 0.000000
#
# Coordination Sequence:
#
# PCOD8328741 Si02
#       4
#    24  24  24  12
#     4   8  14  25  42  64  89 117 149 184 223 269
#     4  10  19  30  46  67  91 120 155 195 236 279
#     4  10  19  31  48  70  95 123 155 191 230 272
#     4   9  18  32  48  66  91 123 154 184 223 270
#
# _framework density 15.912577000000001
#
# number of rings (size 3 to 8) (size 9 to 14) (size 15 to 20)
#    0.000    2.714    1.429    2.000    0.000    2.286 
#    0.000    0.000    0.000    2.571    0.000    0.000 
#    0.000    0.000    0.000    7.143    0.000   13.000 
#
# Total GULP energy -1041099.950503 kJ/mol
# GULP energy per Si atom -12394.047030 kJ/mol
# Density = 1.587636 g / cm^3
# Si number density = 15.912577 Si / 1000 Ang^3
#
#
#
# Elastic Constant Matrix: (Units=GPa)
#
#
# Indices 1 2 3 4 5 6 
#
# 1 79.3189 45.0673 40.8404 0.0000 0.0000 0.0000
# 2 45.0673 79.3189 40.8404 0.0000 0.0000 0.0000
# 3 40.8404 40.8404 125.0857 0.0000 0.0000 0.0000
# 4 0.0000 0.0000 0.0000 12.2445 0.0000 0.0000
# 5 0.0000 0.0000 0.0000 0.0000 12.2445 0.0000
# 6 0.0000 0.0000 0.0000 0.0000 0.0000 17.1258
#
#
#
# Elastic Compliance Matrix: (Units=1/GPa)
#
#
# Indices 1 2 3 4 5 6 
#
# 1 0.019715 -0.009481 -0.003341 0.000000 0.000000 0.000000
# 2 -0.009481 0.019715 -0.003341 0.000000 0.000000 0.000000
# 3 -0.003341 -0.003341 0.010176 0.000000 0.000000 0.000000
# 4 0.000000 0.000000 0.000000 0.081669 0.000000 0.000000
# 5 0.000000 0.000000 0.000000 0.000000 0.081669 0.000000
# 6 0.000000 0.000000 0.000000 0.000000 0.000000 0.058391
#
#
# Mechanical properties :
#
#
# Convention : Reuss Voigt Hill
#
# Bulk Modulus (GPa) = 57.87542 59.69107 58.78325
# Shear Modulus (GPa) = 16.15918 18.78802 17.47360
#
# Velocity S-wave (km/s) = 3.19014 3.43986 3.31735
# Velocity P-wave (km/s) = 7.07242 7.30549 7.18990
#
# Compressibility (1/GPa) = 0.01727849
#
# Stress axis : x y z
#
# Youngs Moduli (GPa) = 50.72378 50.72378 98.26707
#
# Poissons Ratio (x) = 0.48091 0.32834
# Poissons Ratio (y) = 0.48091 0.32834
# Poissons Ratio (z) = 0.16948 0.16948
#
# Static dielectric constant tensor:
#      x y z
#    x 2.826750 0.000000 0.000000 
#    y 0.000000 2.826750 0.000000 
#    z 0.000000 0.000000 3.370740 
# 
# 
# High freq. dielectric constant tensor:
#      x y z
#    x 1.587890 0.000000 0.000000 
#    y 0.000000 1.587890 0.000000 
#    z 0.000000 0.000000 1.624960 
# 
# From -- ./inp_files/6979.got.cif
#   From: 2010.03.12/outbox.cif.g09.slc.cpg/sg191_4_cif.got.tgz:6979.got - 2010.04.01 12:09:02.
