data_PCOD8328233
_publ_section_title
;
Structure prediction by ZEFSAII (Michael W. Deem and Ramdas Pophale) SiO2 
 PCOD8328233
Probable space group: P 6/M M M
;
_chemical_formula_sum "Si O2"
_cell_formula_units_Z 96
_cell_length_a 27.868084
_cell_length_b 27.868084
_cell_length_c 9.420636
_cell_angle_alpha 90.000000
_cell_angle_beta 90.000000
_cell_angle_gamma 120.000000
_cell_volume 6336.144559
_symmetry_space_group_name_H-M "P 6/M M M"
_symmetry_group_IT_number 191
_symmetry_cell_setting 'hexagonal'
loop_
_space_group_symop_operation_xyz
x,y,z
x-y,x,z
-y,x-y,z
-x,-y,z
-x+y,-x,z
y,-x+y,z
x-y,-y,-z
-x,-x+y,-z
y,x,-z
-y,-x,-z
-x+y,y,-z
x,x-y,-z
-x,-y,-z
-x+y,-x,-z
y,-x+y,-z
x,y,-z
x-y,x,-z
-y,x-y,-z
-x+y,y,z
x,x-y,z
-y,-x,z
y,x,z
x-y,-y,z
-x,-x+y,z
loop_
_atom_site_type_symbol
_atom_site_label
_atom_site_fract_x
_atom_site_fract_y
_atom_site_fract_z
Si Si1 0.416888 0.108612 0.832339
Si Si2 0.879058 0.758116 0.169238
Si Si3 0.309229 0.000000 0.832209
Si Si4 0.063388 0.586780 0.335372
Si Si5 0.369150 0.184575 0.831815
Si Si6 0.797107 0.797107 0.169006
O O1 0.467763 0.108250 0.752575
O O2 0.405748 0.157458 0.782137
O O3 0.363550 0.053331 0.778736
O O4 0.427247 0.110492 0.000000
O O5 0.847155 0.694310 0.228509
O O6 0.850251 0.793184 0.223340
O O7 0.877218 0.754436 0.000000
O O8 0.256260 0.000000 0.767091
O O9 0.304850 0.000000 0.000000
O O10 0.068871 0.602603 0.500000
O O11 0.079366 0.539683 0.308288
O O12 0.000000 0.564218 0.284112
O O13 0.362960 0.181480 0.000000
O O14 0.796468 0.796468 0.000000
#
# Coordination Sequence:
#
# PCOD8328233 Si02
#       6
#    24  12  12  24  12  12
#     4  10  17  26  41  63  87 110 138 174 212 250
#     4   9  14  20  30  46  71 102 135 171 214 260
#     4   9  14  20  34  56  80 106 133 166 206 245
#     4   9  18  31  44  59  83 115 145 170 199 237
#     4   9  16  24  37  59  86 109 130 169 220 258
#     4   9  14  20  30  45  70 102 136 172 212 257
#
# _framework density 15.151168999999999
#
# number of rings (size 3 to 8) (size 9 to 14) (size 15 to 20)
#    0.000    2.750    3.750    0.750    0.000    0.500 
#    0.000    1.875    0.000    0.250    0.000    1.750 
#    1.250    0.000    0.750    0.000    1.000    0.000 
#
# Total GULP energy -1189443.351381 kJ/mol
# GULP energy per Si atom -12390.034910 kJ/mol
# Density = 1.511668 g / cm^3
# Si number density = 15.151169 Si / 1000 Ang^3
#
#
#
# Elastic Constant Matrix: (Units=GPa)
#
#
# Indices 1 2 3 4 5 6 
#
# 1 107.0749 54.6944 28.7262 0.0000 0.0000 0.0000
# 2 54.6944 107.0749 28.7262 0.0000 0.0000 0.0000
# 3 28.7262 28.7262 24.0294 0.0000 0.0000 0.0000
# 4 0.0000 0.0000 0.0000 10.3685 0.0000 0.0000
# 5 0.0000 0.0000 0.0000 0.0000 10.3685 0.0000
# 6 0.0000 0.0000 0.0000 0.0000 0.0000 26.1902
#
#
#
# Elastic Compliance Matrix: (Units=1/GPa)
#
#
# Indices 1 2 3 4 5 6 
#
# 1 0.014917 -0.004174 -0.012842 0.000000 0.000000 0.000000
# 2 -0.004174 0.014917 -0.012842 0.000000 0.000000 0.000000
# 3 -0.012842 -0.012842 0.072321 0.000000 0.000000 0.000000
# 4 0.000000 0.000000 0.000000 0.096446 0.000000 0.000000
# 5 0.000000 0.000000 0.000000 0.000000 0.096446 0.000000
# 6 0.000000 0.000000 0.000000 0.000000 0.000000 0.038182
#
#
# Mechanical properties :
#
#
# Convention : Reuss Voigt Hill
#
# Bulk Modulus (GPa) = 23.56456 51.38587 37.47522
# Shear Modulus (GPa) = 12.28223 17.78760 15.03491
#
# Velocity S-wave (km/s) = 2.85027 3.43010 3.15354
# Velocity P-wave (km/s) = 5.13992 7.04816 6.16828
#
# Compressibility (1/GPa) = 0.04243661
#
# Stress axis : x y z
#
# Youngs Moduli (GPa) = 67.03823 67.03823 13.82725
#
# Poissons Ratio (x) = 0.27983 0.17758
# Poissons Ratio (y) = 0.27983 0.17758
# Poissons Ratio (z) = 0.86093 0.86093
#
# Static dielectric constant tensor:
#      x y z
#    x 3.010600 0.000000 0.000000 
#    y 0.000000 3.010600 0.000000 
#    z 0.000000 0.000000 2.413950 
# 
# 
# High freq. dielectric constant tensor:
#      x y z
#    x 1.570590 0.000000 0.000000 
#    y 0.000000 1.570590 0.000000 
#    z 0.000000 0.000000 1.529240 
# 
# From -- ./inp_files/1639.got.cif
#   From: 2010.03.12/outbox.cif.g09.slc.cpg/sg191_1_cif.got.tgz:1639.got - 2010.04.01 12:09:02.
