data_PCOD8328004
_publ_section_title
;
Structure prediction by ZEFSAII (Michael W. Deem and Ramdas Pophale) SiO2 
 PCOD8328004
Probable space group: P -6 2 C
;
_chemical_formula_sum "Si O2"
_cell_formula_units_Z 72
_cell_length_a 23.767583
_cell_length_b 23.767583
_cell_length_c 8.517895
_cell_angle_alpha 90.000000
_cell_angle_beta 90.000000
_cell_angle_gamma 120.000000
_cell_volume 4167.090691
_symmetry_space_group_name_H-M "P -6 2 C"
_symmetry_group_IT_number 190
_symmetry_cell_setting 'hexagonal'
loop_
_space_group_symop_operation_xyz
x,y,z
-x+y,-x,1/2-z
-y,x-y,z
x,y,1/2-z
-x+y,-x,z
-y,x-y,1/2-z
x-y,-y,-z
-x,-x+y,-z
y,x,-z
y,x,1/2+z
x-y,-y,1/2+z
-x,-x+y,1/2+z
loop_
_atom_site_type_symbol
_atom_site_label
_atom_site_fract_x
_atom_site_fract_y
_atom_site_fract_z
Si Si1 0.600126 0.740071 0.065371
Si Si2 0.142839 0.738759 0.934957
Si Si3 0.405062 0.931609 0.066347
Si Si4 0.070250 0.600291 0.063599
Si Si5 0.736647 0.930335 0.435650
Si Si6 0.739866 0.810612 0.564848
O O1 0.614835 0.746671 0.250000
O O2 0.544433 0.667483 0.017700
O O3 0.574413 0.788010 0.014281
O O4 0.666279 0.756882 0.976787
O O5 0.150271 0.747370 0.750000
O O6 0.123899 0.666666 0.985359
O O7 0.088522 0.755452 0.992157
O O8 0.412302 0.940212 0.250000
O O9 0.458199 0.913010 0.006076
O O10 0.418483 0.000000 0.000000
O O11 0.071910 0.607934 0.250000
O O12 0.000000 0.583220 0.000000
O O13 0.731547 0.931919 0.250000
O O14 0.758399 0.878997 0.485633
O O15 0.790209 0.000000 0.500000
O O16 0.747308 0.819826 0.750000
O O17 0.789385 0.789385 0.500000
#
# Coordination Sequence:
#
# PCOD8328004 Si02
#       6
#    12  12  12  12  12  12
#     4  10  19  33  51  74 100 130 164 203 246 293
#     4  11  21  33  49  73 100 131 165 202 245 293
#     4   9  19  32  50  73  99 128 161 197 241 289
#     4  10  19  33  50  72  99 129 162 201 243 291
#     4  11  21  35  53  75 101 132 165 204 247 293
#     4  11  21  34  51  75 103 134 167 203 244 291
#
# _framework density 17.278241999999999
#
# number of rings (size 3 to 8) (size 9 to 14) (size 15 to 20)
#    0.000    1.667    0.000    8.500    0.000    3.333 
#    0.000    0.000    0.000    1.000    0.000    4.667 
#    0.000    0.000    0.000    0.000    0.000    0.000 
#
# Total GULP energy -892981.420120 kJ/mol
# GULP energy per Si atom -12402.519724 kJ/mol
# Density = 1.723892 g / cm^3
# Si number density = 17.278242 Si / 1000 Ang^3
#
#
#
# Elastic Constant Matrix: (Units=GPa)
#
#
# Indices 1 2 3 4 5 6 
#
# 1 105.7683 51.6395 3.4241 0.0000 0.0000 0.0000
# 2 51.6395 105.7683 3.4241 0.0000 0.0000 0.0000
# 3 3.4241 3.4241 27.3553 0.0000 0.0000 0.0000
# 4 0.0000 0.0000 0.0000 27.1175 0.0000 0.0000
# 5 0.0000 0.0000 0.0000 0.0000 27.1175 0.0000
# 6 0.0000 0.0000 0.0000 0.0000 0.0000 27.0644
#
#
#
# Elastic Compliance Matrix: (Units=1/GPa)
#
#
# Indices 1 2 3 4 5 6 
#
# 1 0.012431 -0.006043 -0.000800 0.000000 0.000000 0.000000
# 2 -0.006043 0.012431 -0.000800 0.000000 0.000000 0.000000
# 3 -0.000800 -0.000800 0.036756 0.000000 0.000000 0.000000
# 4 0.000000 0.000000 0.000000 0.036877 0.000000 0.000000
# 5 0.000000 0.000000 0.000000 0.000000 0.036877 0.000000
# 6 0.000000 0.000000 0.000000 0.000000 0.000000 0.036949
#
#
# Mechanical properties :
#
#
# Convention : Reuss Voigt Hill
#
# Bulk Modulus (GPa) = 21.58273 39.54082 30.56178
# Shear Modulus (GPa) = 24.62451 28.28683 26.45567
#
# Velocity S-wave (km/s) = 3.77924 4.05054 3.91724
# Velocity P-wave (km/s) = 5.61800 6.69405 6.17949
#
# Compressibility (1/GPa) = 0.04633333
#
# Stress axis : x y z
#
# Youngs Moduli (GPa) = 80.44356 80.44356 27.20633
#
# Poissons Ratio (x) = 0.48615 0.02175
# Poissons Ratio (y) = 0.48615 0.02175
# Poissons Ratio (z) = 0.06432 0.06432
#
# Static dielectric constant tensor:
#      x y z
#    x 3.155450 0.000000 0.000000 
#    y 0.000000 3.155450 0.000000 
#    z 0.000000 0.000000 3.364910 
# 
# 
# High freq. dielectric constant tensor:
#      x y z
#    x 1.658100 0.000000 0.000000 
#    y 0.000000 1.658100 0.000000 
#    z 0.000000 0.000000 1.686990 
# 
# From -- ./inp_files/1240.got.cif
#   From: 2010.06.25/outbox.cif.g09.slc.cpg/sg190_1_cif.got.tgz:1240.got - 2010.06.28 13:08:06.
