data_PCOD8328717
_publ_section_title
;
Structure prediction by ZEFSAII (Michael W. Deem and Ramdas Pophale) SiO2 
 PCOD8328717
Probable space group: P 6/M M M
;
_chemical_formula_sum "Si O2"
_cell_formula_units_Z 84
_cell_length_a 18.311672
_cell_length_b 18.311672
_cell_length_c 17.543185
_cell_angle_alpha 90.000000
_cell_angle_beta 90.000000
_cell_angle_gamma 120.000000
_cell_volume 5094.423865
_symmetry_space_group_name_H-M "P 6/M M M"
_symmetry_group_IT_number 191
_symmetry_cell_setting 'hexagonal'
loop_
_space_group_symop_operation_xyz
x,y,z
x-y,x,z
-y,x-y,z
-x,-y,z
-x+y,-x,z
y,-x+y,z
x-y,-y,-z
-x,-x+y,-z
y,x,-z
-y,-x,-z
-x+y,y,-z
x,x-y,-z
-x,-y,-z
-x+y,-x,-z
y,-x+y,-z
x,y,-z
x-y,x,-z
-y,x-y,-z
-x+y,y,z
x,x-y,z
-y,-x,z
y,x,z
x-y,-y,z
-x,-x+y,z
loop_
_atom_site_type_symbol
_atom_site_label
_atom_site_fract_x
_atom_site_fract_y
_atom_site_fract_z
Si Si1 0.905647 0.255697 0.586429
Si Si2 0.362458 0.096397 0.000000
Si Si3 0.167426 0.498901 0.874255
Si Si4 0.533311 0.902201 0.712059
O O1 0.900520 0.283041 0.500000
O O2 0.844211 0.155790 0.597936
O O3 0.875707 0.305531 0.641334
O O4 0.000000 0.276120 0.606161
O O5 0.419041 0.107957 0.073904
O O6 0.330159 0.165080 0.000000
O O7 0.283280 0.000000 0.000000
O O8 0.265084 0.530167 0.892099
O O9 0.149029 0.574515 0.891808
O O10 0.149403 0.469813 0.786726
O O11 0.440002 0.880004 0.687512
O O12 0.590548 0.000000 0.732237
#
# Coordination Sequence:
#
# PCOD8328717 Si02
#       4
#    24  12  24  24
#     4   9  17  29  45  64  86 113 146 184 225 269
#     4  10  21  35  51  70  91 117 148 184 225 267
#     4  10  19  30  45  66  94 126 157 186 215 250
#     4   9  17  28  43  64  88 115 149 187 223 259
#
# _framework density 16.488616
#
# number of rings (size 3 to 8) (size 9 to 14) (size 15 to 20)
#    0.000    2.571    0.000    2.429    0.000    2.857 
#    0.000    4.286    0.000    1.000    0.000    2.000 
#    0.000    0.000    0.000    9.143    0.000    6.286 
#
# Total GULP energy -1041396.151970 kJ/mol
# GULP energy per Si atom -12397.573238 kJ/mol
# Density = 1.645109 g / cm^3
# Si number density = 16.488616 Si / 1000 Ang^3
#
#
#
# Elastic Constant Matrix: (Units=GPa)
#
#
# Indices 1 2 3 4 5 6 
#
# 1 88.9764 49.8298 45.3181 0.0000 0.0000 0.0000
# 2 49.8298 88.9764 45.3181 0.0000 0.0000 0.0000
# 3 45.3181 45.3181 82.0292 0.0000 0.0000 0.0000
# 4 0.0000 0.0000 0.0000 22.8796 0.0000 0.0000
# 5 0.0000 0.0000 0.0000 0.0000 22.8796 0.0000
# 6 0.0000 0.0000 0.0000 0.0000 0.0000 19.5733
#
#
#
# Elastic Compliance Matrix: (Units=1/GPa)
#
#
# Indices 1 2 3 4 5 6 
#
# 1 0.018407 -0.007138 -0.006226 0.000000 0.000000 0.000000
# 2 -0.007138 0.018407 -0.006226 0.000000 0.000000 0.000000
# 3 -0.006226 -0.006226 0.019070 0.000000 0.000000 0.000000
# 4 0.000000 0.000000 0.000000 0.043707 0.000000 0.000000
# 5 0.000000 0.000000 0.000000 0.000000 0.043707 0.000000
# 6 0.000000 0.000000 0.000000 0.000000 0.000000 0.051090
#
#
# Mechanical properties :
#
#
# Convention : Reuss Voigt Hill
#
# Bulk Modulus (GPa) = 59.86160 60.10158 59.98159
# Shear Modulus (GPa) = 20.90849 21.03423 20.97136
#
# Velocity S-wave (km/s) = 3.56484 3.57554 3.57020
# Velocity P-wave (km/s) = 7.30258 7.31953 7.31106
#
# Compressibility (1/GPa) = 0.01670520
#
# Stress axis : x y z
#
# Youngs Moduli (GPa) = 54.32602 54.32602 52.43780
#
# Poissons Ratio (x) = 0.38776 0.32648
# Poissons Ratio (y) = 0.38776 0.32648
# Poissons Ratio (z) = 0.33824 0.33824
#
# Static dielectric constant tensor:
#      x y z
#    x 3.026440 0.000000 0.000000 
#    y 0.000000 3.026440 0.000000 
#    z 0.000000 0.000000 3.241930 
# 
# 
# High freq. dielectric constant tensor:
#      x y z
#    x 1.619490 0.000000 0.000000 
#    y 0.000000 1.619490 0.000000 
#    z 0.000000 0.000000 1.647120 
# 
# From -- ./inp_files/3983.got.cif
#   From: 2010.03.12/outbox.cif.g09.slc.cpg/sg191_2_cif.got.tgz:3983.got - 2010.04.01 12:09:02.
