data_PCOD8328762
_publ_section_title
;
Structure prediction by ZEFSAII (Michael W. Deem and Ramdas Pophale) SiO2 
 PCOD8328762
Probable space group: P 6/M M M
;
_chemical_formula_sum "Si O2"
_cell_formula_units_Z 150
_cell_length_a 17.581559
_cell_length_b 17.581559
_cell_length_c 32.805950
_cell_angle_alpha 90.000000
_cell_angle_beta 90.000000
_cell_angle_gamma 120.000000
_cell_volume 8782.092662
_symmetry_space_group_name_H-M "P 6/M M M"
_symmetry_group_IT_number 191
_symmetry_cell_setting 'hexagonal'
loop_
_space_group_symop_operation_xyz
x,y,z
x-y,x,z
-y,x-y,z
-x,-y,z
-x+y,-x,z
y,-x+y,z
x-y,-y,-z
-x,-x+y,-z
y,x,-z
-y,-x,-z
-x+y,y,-z
x,x-y,-z
-x,-y,-z
-x+y,-x,-z
y,-x+y,-z
x,y,-z
x-y,x,-z
-y,x-y,-z
-x+y,y,z
x,x-y,z
-y,-x,z
y,x,z
x-y,-y,z
-x,-x+y,z
loop_
_atom_site_type_symbol
_atom_site_label
_atom_site_fract_x
_atom_site_fract_y
_atom_site_fract_z
Si Si1 0.631424 0.897969 0.734398
Si Si2 0.532443 0.635355 0.500000
Si Si3 0.468359 0.364552 0.189796
Si Si4 0.212826 0.106413 0.000000
Si Si5 0.364791 0.897124 0.343247
Si Si6 0.193009 0.806992 0.955118
Si Si7 0.896310 0.533576 0.900865
Si Si8 0.897211 0.268833 0.421353
O O1 0.678333 0.839167 0.729617
O O2 0.577610 0.867355 0.776514
O O3 0.560929 0.871880 0.698534
O O4 0.706126 0.000000 0.733319
O O5 0.572586 0.572586 0.500000
O O6 0.426254 0.573747 0.500000
O O7 0.564099 0.694599 0.540110
O O8 0.571441 0.428560 0.200256
O O9 0.422825 0.422825 0.190299
O O10 0.459333 0.323587 0.144694
O O11 0.151270 0.151270 0.000000
O O12 0.278460 0.139230 0.960210
O O13 0.426210 0.852420 0.344312
O O14 0.300845 0.867492 0.381781
O O15 0.427328 0.000000 0.345651
O O16 0.284383 0.863752 0.932495
O O17 0.214569 0.785432 0.000000
O O18 0.861588 0.430794 0.911421
O O19 0.000000 0.585142 0.902962
O O20 0.837688 0.162313 0.422349
O O21 0.000000 0.296990 0.421268
#
# Coordination Sequence:
#
# PCOD8328762 Si02
#       8
#    24  12  24   6  24  12  24  24
#     4  10  19  30  48  73 100 130 168 211 249 294
#     4   9  17  30  49  70  90 118 160 207 253 306
#     4   8  15  29  50  73  95 122 158 197 242 295
#     4  10  21  38  58  82 110 138 170 216 273 322
#     4   9  17  30  49  71  93 120 155 198 248 302
#     4  10  22  33  52  80 104 132 172 215 240 297
#     4   9  18  34  54  74  99 133 167 204 250 293
#     4  10  19  31  49  72  98 131 172 214 253 295
#
# _framework density 17.080210999999998
#
# number of rings (size 3 to 8) (size 9 to 14) (size 15 to 20)
#    0.240    2.480    0.000    3.160    1.120    4.160 
#    0.480    0.800    0.000   11.200    0.000    0.000 
#    0.000    5.760    0.000    0.000    0.000    0.640 
#
# Total GULP energy -1858451.655740 kJ/mol
# GULP energy per Si atom -12389.677705 kJ/mol
# Density = 1.704134 g / cm^3
# Si number density = 17.080211 Si / 1000 Ang^3
#
#
#
# Elastic Constant Matrix: (Units=GPa)
#
#
# Indices 1 2 3 4 5 6 
#
# 1 94.1229 53.5418 44.1087 0.0000 0.0000 0.0000
# 2 53.5418 94.1229 44.1087 0.0000 0.0000 0.0000
# 3 44.1087 44.1087 122.1076 0.0000 0.0000 0.0000
# 4 0.0000 0.0000 0.0000 -20.3087 0.0000 0.0000
# 5 0.0000 0.0000 0.0000 0.0000 -20.3087 0.0000
# 6 0.0000 0.0000 0.0000 0.0000 0.0000 20.2906
#
#
#
# Elastic Compliance Matrix: (Units=1/GPa)
#
#
# Indices 1 2 3 4 5 6 
#
# 1 0.016639 -0.008003 -0.003119 0.000000 0.000000 0.000000
# 2 -0.008003 0.016639 -0.003119 0.000000 0.000000 0.000000
# 3 -0.003119 -0.003119 0.010443 0.000000 0.000000 0.000000
# 4 0.000000 0.000000 0.000000 -0.049240 0.000000 0.000000
# 5 0.000000 0.000000 0.000000 0.000000 -0.049240 0.000000
# 6 0.000000 0.000000 0.000000 0.000000 0.000000 0.049284
#
#
# Mechanical properties :
#
#
# Convention : Reuss Voigt Hill
#
# Bulk Modulus (GPa) = 65.63078 65.98577 65.80827
# Shear Modulus (GPa) = 178.01314 7.17426 92.59370
#
# Velocity S-wave (km/s) = 10.21999 2.05169 7.37081
# Velocity P-wave (km/s) = 13.33314 6.65803 10.53807
#
# Compressibility (1/GPa) = 0.01523675
#
# Stress axis : x y z
#
# Youngs Moduli (GPa) = 60.10029 60.10029 95.75621
#
# Poissons Ratio (x) = 0.48099 0.29871
# Poissons Ratio (y) = 0.48099 0.29871
# Poissons Ratio (z) = 0.18748 0.18748
#
# Static dielectric constant tensor:
#      x y z
#    x 3.141650 0.000000 0.000000 
#    y 0.000000 3.141650 0.000000 
#    z 0.000000 0.000000 3.503010 
# 
# 
# High freq. dielectric constant tensor:
#      x y z
#    x 1.638180 0.000000 0.000000 
#    y 0.000000 1.638180 0.000000 
#    z 0.000000 0.000000 1.674220 
# 
# From -- ./inp_files/10725.got.cif
#   From: 2010.03.12/outbox.cif.g09.slc.cpg/sg191_6_cif.got.tgz:10725.got - 2010.04.01 12:09:02.
