data_PCOD8328532
_publ_section_title
;
Structure prediction by ZEFSAII (Michael W. Deem and Ramdas Pophale) SiO2 
 PCOD8328532
Probable space group: P 6/M M M
;
_chemical_formula_sum "Si O2"
_cell_formula_units_Z 168
_cell_length_a 29.163838
_cell_length_b 29.163838
_cell_length_c 13.711127
_cell_angle_alpha 90.000000
_cell_angle_beta 90.000000
_cell_angle_gamma 120.000000
_cell_volume 10099.343402
_symmetry_space_group_name_H-M "P 6/M M M"
_symmetry_group_IT_number 191
_symmetry_cell_setting 'hexagonal'
loop_
_space_group_symop_operation_xyz
x,y,z
x-y,x,z
-y,x-y,z
-x,-y,z
-x+y,-x,z
y,-x+y,z
x-y,-y,-z
-x,-x+y,-z
y,x,-z
-y,-x,-z
-x+y,y,-z
x,x-y,-z
-x,-y,-z
-x+y,-x,-z
y,-x+y,-z
x,y,-z
x-y,x,-z
-y,x-y,-z
-x+y,y,z
x,x-y,z
-y,-x,z
y,x,z
x-y,-y,z
-x,-x+y,z
loop_
_atom_site_type_symbol
_atom_site_label
_atom_site_fract_x
_atom_site_fract_y
_atom_site_fract_z
Si Si1 0.650087 0.587294 0.611458
Si Si2 0.332871 0.566780 0.614450
Si Si3 0.743584 0.062226 0.703884
Si Si4 0.232002 0.359740 0.108995
Si Si5 0.486629 0.620691 0.727604
Si Si6 0.838193 0.059497 0.384766
Si Si7 0.483991 0.293794 0.887944
O O1 0.648948 0.567697 0.500000
O O2 0.616763 0.616763 0.617786
O O3 0.711304 0.627002 0.642146
O O4 0.623044 0.540170 0.691366
O O5 0.331578 0.570649 0.500000
O O6 0.276002 0.552004 0.659147
O O7 0.376715 0.623286 0.658631
O O8 0.348171 0.523103 0.641018
O O9 0.751664 0.080975 0.815107
O O10 0.800116 0.080562 0.654904
O O11 0.709685 0.000000 0.705214
O O12 0.170343 0.340685 0.122216
O O13 0.266401 0.421765 0.128171
O O14 0.242496 0.346056 0.000000
O O15 0.440289 0.559712 0.739361
O O16 0.489375 0.652108 0.826191
O O17 0.833235 0.057974 0.500000
O O18 0.898650 0.101351 0.352133
O O19 0.820465 0.000000 0.345814
O O20 0.502480 0.251240 0.857774
O O21 0.499377 0.310361 0.000000
#
# Coordination Sequence:
#
# PCOD8328532 Si02
#       7
#    24  24  24  24  24  24  24
#     4  10  21  36  51  68  94 128 164 203 246 291
#     4   9  17  29  45  66  92 119 144 174 220 278
#     4  10  18  30  49  71  98 129 162 205 250 292
#     4   9  17  30  49  71  95 123 155 191 233 288
#     4  11  21  33  51  72  94 120 156 199 236 277
#     4   9  17  29  46  70 101 137 174 210 250 295
#     4   9  18  34  54  73  95 122 150 186 237 291
#
# _framework density 16.634744999999999
#
# number of rings (size 3 to 8) (size 9 to 14) (size 15 to 20)
#    0.000    2.429    1.429    2.714    0.000    4.000 
#    0.000    0.714    0.000    4.286    0.000    2.000 
#    0.000    0.000    0.000    0.000    0.000    0.000 
#
# Total GULP energy -2081970.456037 kJ/mol
# GULP energy per Si atom -12392.681286 kJ/mol
# Density = 1.659688 g / cm^3
# Si number density = 16.634745 Si / 1000 Ang^3
#
#
#
# Elastic Constant Matrix: (Units=GPa)
#
#
# Indices 1 2 3 4 5 6 
#
# 1 62.8591 39.5149 32.1258 0.0000 0.0000 0.0000
# 2 39.5149 62.8591 32.1258 0.0000 0.0000 0.0000
# 3 32.1258 32.1258 67.0520 0.0000 0.0000 0.0000
# 4 0.0000 0.0000 0.0000 26.0389 0.0000 0.0000
# 5 0.0000 0.0000 0.0000 0.0000 26.0389 0.0000
# 6 0.0000 0.0000 0.0000 0.0000 0.0000 11.6721
#
#
#
# Elastic Compliance Matrix: (Units=1/GPa)
#
#
# Indices 1 2 3 4 5 6 
#
# 1 0.028403 -0.014434 -0.006693 0.000000 0.000000 0.000000
# 2 -0.014434 0.028403 -0.006693 0.000000 0.000000 0.000000
# 3 -0.006693 -0.006693 0.021327 0.000000 0.000000 0.000000
# 4 0.000000 0.000000 0.000000 0.038404 0.000000 0.000000
# 5 0.000000 0.000000 0.000000 0.000000 0.038404 0.000000
# 6 0.000000 0.000000 0.000000 0.000000 0.000000 0.085675
#
#
# Mechanical properties :
#
#
# Convention : Reuss Voigt Hill
#
# Bulk Modulus (GPa) = 44.45713 44.47815 44.46764
# Shear Modulus (GPa) = 16.46079 18.68356 17.57218
#
# Velocity S-wave (km/s) = 3.14911 3.35500 3.25369
# Velocity P-wave (km/s) = 6.32503 6.46562 6.39571
#
# Compressibility (1/GPa) = 0.02249358
#
# Stress axis : x y z
#
# Youngs Moduli (GPa) = 35.20770 35.20770 46.88930
#
# Poissons Ratio (x) = 0.50820 0.31381
# Poissons Ratio (y) = 0.50820 0.31381
# Poissons Ratio (z) = 0.23563 0.23563
#
# Static dielectric constant tensor:
#      x y z
#    x 3.168580 0.000000 0.000000 
#    y 0.000000 3.168580 0.000000 
#    z 0.000000 0.000000 3.107000 
# 
# 
# High freq. dielectric constant tensor:
#      x y z
#    x 1.631800 0.000000 0.000000 
#    y 0.000000 1.631800 0.000000 
#    z 0.000000 0.000000 1.635100 
# 
# From -- ./inp_files/3622.got.cif
#   From: 2010.03.12/outbox.cif.g09.slc.cpg/sg191_2_cif.got.tgz:3622.got - 2010.04.01 12:09:02.
