data_PCOD8328323
_publ_section_title
;
Structure prediction by ZEFSAII (Michael W. Deem and Ramdas Pophale) SiO2 
 PCOD8328323
Probable space group: P 6/M M M
;
_chemical_formula_sum "Si O2"
_cell_formula_units_Z 132
_cell_length_a 17.857001
_cell_length_b 17.857001
_cell_length_c 27.377593
_cell_angle_alpha 90.000000
_cell_angle_beta 90.000000
_cell_angle_gamma 120.000000
_cell_volume 7560.368091
_symmetry_space_group_name_H-M "P 6/M M M"
_symmetry_group_IT_number 191
_symmetry_cell_setting 'hexagonal'
loop_
_space_group_symop_operation_xyz
x,y,z
x-y,x,z
-y,x-y,z
-x,-y,z
-x+y,-x,z
y,-x+y,z
x-y,-y,-z
-x,-x+y,-z
y,x,-z
-y,-x,-z
-x+y,y,-z
x,x-y,-z
-x,-y,-z
-x+y,-x,-z
y,-x+y,-z
x,y,-z
x-y,x,-z
-y,x-y,-z
-x+y,y,z
x,x-y,z
-y,-x,z
y,x,z
x-y,-y,z
-x,-x+y,z
loop_
_atom_site_type_symbol
_atom_site_label
_atom_site_fract_x
_atom_site_fract_y
_atom_site_fract_z
Si Si1 0.636006 0.535309 0.381320
Si Si2 0.098730 0.901270 0.441850
Si Si3 0.268767 0.366606 0.287022
Si Si4 0.502289 0.669381 0.000000
Si Si5 0.197672 0.802329 0.442198
Si Si6 0.834740 0.330691 0.797290
Si Si7 0.903868 0.540659 0.100114
O O1 0.566961 0.433040 0.379038
O O2 0.588311 0.588311 0.393721
O O3 0.685560 0.564079 0.330008
O O4 0.703919 0.554276 0.424244
O O5 0.098503 0.901498 0.500000
O O6 0.148072 0.851929 0.422196
O O7 0.000000 0.851693 0.422136
O O8 0.165645 0.331290 0.287866
O O9 0.286089 0.286089 0.292369
O O10 0.312227 0.415739 0.236848
O O11 0.559437 0.689654 0.049277
O O12 0.429713 0.570288 0.000000
O O13 0.459221 0.729611 0.000000
O O14 0.197929 0.802072 0.500000
O O15 0.857909 0.428955 0.789435
O O16 0.734689 0.265311 0.783804
O O17 0.847958 0.311075 0.853187
O O18 0.900386 0.450193 0.094980
O O19 0.000000 0.618283 0.109076
#
# Coordination Sequence:
#
# PCOD8328323 Si02
#       7
#    24  12  24  12  12  24  24
#     4  10  21  38  58  79 104 136 174 213 256 305
#     4   9  17  30  51  80 112 142 172 209 255 308
#     4  10  20  36  58  81 104 132 166 206 254 307
#     4  10  18  27  39  55  80 115 154 198 249 304
#     4  11  22  37  56  79 106 140 177 215 256 303
#     4  10  19  30  47  73 103 133 167 210 255 298
#     4   9  17  28  41  58  83 119 162 204 246 295
#
# _framework density 17.459467
#
# number of rings (size 3 to 8) (size 9 to 14) (size 15 to 20)
#    0.000    2.182    0.909    2.818    0.000    4.727 
#    0.545    2.727    0.000    0.182    0.000    0.000 
#    0.000    0.000    0.000    0.000    0.000    0.000 
#
# Total GULP energy -1636449.183300 kJ/mol
# GULP energy per Si atom -12397.342298 kJ/mol
# Density = 1.741973 g / cm^3
# Si number density = 17.459467 Si / 1000 Ang^3
#
#
#
# Elastic Constant Matrix: (Units=GPa)
#
#
# Indices 1 2 3 4 5 6 
#
# 1 90.5281 51.8968 33.3868 0.0000 0.0000 0.0000
# 2 51.8968 90.5281 33.3868 0.0000 0.0000 0.0000
# 3 33.3868 33.3868 93.3164 0.0000 0.0000 0.0000
# 4 0.0000 0.0000 0.0000 21.9000 0.0000 0.0000
# 5 0.0000 0.0000 0.0000 0.0000 21.9000 0.0000
# 6 0.0000 0.0000 0.0000 0.0000 0.0000 19.3156
#
#
#
# Elastic Compliance Matrix: (Units=1/GPa)
#
#
# Indices 1 2 3 4 5 6 
#
# 1 0.017161 -0.008725 -0.003018 0.000000 0.000000 0.000000
# 2 -0.008725 0.017161 -0.003018 0.000000 0.000000 0.000000
# 3 -0.003018 -0.003018 0.012876 0.000000 0.000000 0.000000
# 4 0.000000 0.000000 0.000000 0.045662 0.000000 0.000000
# 5 0.000000 0.000000 0.000000 0.000000 0.045662 0.000000
# 6 0.000000 0.000000 0.000000 0.000000 0.000000 0.051772
#
#
# Mechanical properties :
#
#
# Convention : Reuss Voigt Hill
#
# Bulk Modulus (GPa) = 56.57608 56.85702 56.71655
# Shear Modulus (GPa) = 22.15244 23.00326 22.57785
#
# Velocity S-wave (km/s) = 3.56588 3.63371 3.59995
# Velocity P-wave (km/s) = 7.03054 7.08809 7.05937
#
# Compressibility (1/GPa) = 0.01767531
#
# Stress axis : x y z
#
# Youngs Moduli (GPa) = 58.27145 58.27145 77.66361
#
# Poissons Ratio (x) = 0.50840 0.23442
# Poissons Ratio (y) = 0.50840 0.23442
# Poissons Ratio (z) = 0.17588 0.17588
#
# Static dielectric constant tensor:
#      x y z
#    x 3.138180 0.000000 0.000000 
#    y 0.000000 3.138180 0.000000 
#    z 0.000000 0.000000 3.396210 
# 
# 
# High freq. dielectric constant tensor:
#      x y z
#    x 1.655650 0.000000 0.000000 
#    y 0.000000 1.655650 0.000000 
#    z 0.000000 0.000000 1.683660 
# 
# From -- ./inp_files/9874.got.cif
#   From: 2010.03.12/outbox.cif.g09.slc.cpg/sg191_5_cif.got.tgz:9874.got - 2010.04.01 12:09:02.
