data_PCOD8328898
_publ_section_title
;
Structure prediction by ZEFSAII (Michael W. Deem and Ramdas Pophale) SiO2 
 PCOD8328898
Probable space group: P 6/M M M
;
_chemical_formula_sum "Si O2"
_cell_formula_units_Z 150
_cell_length_a 17.329926
_cell_length_b 17.329926
_cell_length_c 32.830835
_cell_angle_alpha 90.000000
_cell_angle_beta 90.000000
_cell_angle_gamma 120.000000
_cell_volume 8538.979613
_symmetry_space_group_name_H-M "P 6/M M M"
_symmetry_group_IT_number 191
_symmetry_cell_setting 'hexagonal'
loop_
_space_group_symop_operation_xyz
x,y,z
x-y,x,z
-y,x-y,z
-x,-y,z
-x+y,-x,z
y,-x+y,z
x-y,-y,-z
-x,-x+y,-z
y,x,-z
-y,-x,-z
-x+y,y,-z
x,x-y,-z
-x,-y,-z
-x+y,-x,-z
y,-x+y,-z
x,y,-z
x-y,x,-z
-y,x-y,-z
-x+y,y,z
x,x-y,z
-y,-x,z
y,x,z
x-y,-y,z
-x,-x+y,z
loop_
_atom_site_type_symbol
_atom_site_label
_atom_site_fract_x
_atom_site_fract_y
_atom_site_fract_z
Si Si1 0.726192 0.626867 0.500000
Si Si2 0.195415 0.390830 0.955159
Si Si3 0.102910 0.727013 0.816635
Si Si4 0.532768 0.637664 0.735994
Si Si5 0.784630 0.892315 0.000000
Si Si6 0.371742 0.100358 0.342361
Si Si7 0.896613 0.533870 0.101766
Si Si8 0.154962 0.486861 0.579976
O O1 0.711701 0.711701 0.500000
O O2 0.832101 0.664201 0.500000
O O3 0.679582 0.567193 0.460894
O O4 0.140874 0.281747 0.960223
O O5 0.287408 0.425478 0.932124
O O6 0.217411 0.434822 0.000000
O O7 0.165929 0.834072 0.821370
O O8 0.132772 0.698332 0.775912
O O9 0.122692 0.678643 0.853311
O O10 0.000000 0.703056 0.815798
O O11 0.425392 0.574609 0.736880
O O12 0.575699 0.575699 0.734840
O O13 0.561254 0.698179 0.695831
O O14 0.846991 0.846991 0.000000
O O15 0.330455 0.165228 0.348261
O O16 0.425991 0.101570 0.381941
O O17 0.290883 0.000000 0.335119
O O18 0.852732 0.426366 0.097936
O O19 0.000000 0.577817 0.093981
O O20 0.259081 0.518161 0.582819
O O21 0.142871 0.571436 0.580081
#
# Coordination Sequence:
#
# PCOD8328898 Si02
#       8
#    12  12  24  24   6  24  24  24
#     4  10  21  35  51  72  97 129 170 214 257 303
#     4  10  22  37  56  82 110 142 178 217 260 313
#     4  10  19  33  54  79 105 137 177 218 263 312
#     4   9  17  30  50  75 101 129 165 206 250 306
#     4  10  21  38  62  90 118 146 182 228 277 322
#     4  10  20  33  50  73 101 134 171 213 260 308
#     4  10  20  36  57  78 103 139 178 215 258 309
#     4  10  20  33  50  73 102 135 169 206 251 302
#
# _framework density 17.566500999999999
#
# number of rings (size 3 to 8) (size 9 to 14) (size 15 to 20)
#    0.240    1.920    0.800    2.840    0.000    4.480 
#    0.480    1.600    0.000    4.880    0.000    0.000 
#    0.000    7.680    0.000    0.000    0.000    0.960 
#
# Total GULP energy -1859465.247977 kJ/mol
# GULP energy per Si atom -12396.434987 kJ/mol
# Density = 1.752652 g / cm^3
# Si number density = 17.566501 Si / 1000 Ang^3
#
#
#
# Elastic Constant Matrix: (Units=GPa)
#
#
# Indices 1 2 3 4 5 6 
#
# 1 94.3589 80.7887 41.1366 0.0000 0.0000 0.0000
# 2 80.7887 94.3589 41.1366 0.0000 0.0000 0.0000
# 3 41.1366 41.1366 139.7925 0.0000 0.0000 0.0000
# 4 0.0000 0.0000 0.0000 19.7836 0.0000 0.0000
# 5 0.0000 0.0000 0.0000 0.0000 19.7836 0.0000
# 6 0.0000 0.0000 0.0000 0.0000 0.0000 6.7851
#
#
#
# Elastic Compliance Matrix: (Units=1/GPa)
#
#
# Indices 1 2 3 4 5 6 
#
# 1 0.040158 -0.033533 -0.001950 0.000000 0.000000 0.000000
# 2 -0.033533 0.040158 -0.001950 0.000000 0.000000 0.000000
# 3 -0.001950 -0.001950 0.008301 0.000000 0.000000 0.000000
# 4 0.000000 0.000000 0.000000 0.050547 0.000000 0.000000
# 5 0.000000 0.000000 0.000000 0.000000 0.050547 0.000000
# 6 0.000000 0.000000 0.000000 0.000000 0.000000 0.147382
#
#
# Mechanical properties :
#
#
# Convention : Reuss Voigt Hill
#
# Bulk Modulus (GPa) = 72.71155 72.73715 72.72435
# Shear Modulus (GPa) = 12.00358 20.30034 16.15196
#
# Velocity S-wave (km/s) = 2.61688 3.40314 3.03557
# Velocity P-wave (km/s) = 7.11427 7.54576 7.33319
#
# Compressibility (1/GPa) = 0.01375297
#
# Stress axis : x y z
#
# Youngs Moduli (GPa) = 24.90148 24.90148 120.46910
#
# Poissons Ratio (x) = 0.83502 0.23487
# Poissons Ratio (y) = 0.83502 0.23487
# Poissons Ratio (z) = 0.04855 0.04855
#
# Static dielectric constant tensor:
#      x y z
#    x 3.219040 0.000000 0.000000 
#    y 0.000000 3.219040 0.000000 
#    z 0.000000 0.000000 3.441630 
# 
# 
# High freq. dielectric constant tensor:
#      x y z
#    x 1.666200 0.000000 0.000000 
#    y 0.000000 1.666200 0.000000 
#    z 0.000000 0.000000 1.696850 
# 
# From -- ./inp_files/10720.got.cif
#   From: 2010.03.12/outbox.cif.g09.slc.cpg/sg191_6_cif.got.tgz:10720.got - 2010.04.01 12:09:02.
