data_PCOD8328645
_publ_section_title
;
Structure prediction by ZEFSAII (Michael W. Deem and Ramdas Pophale) SiO2 
 PCOD8328645
Probable space group: P 6/M M M
;
_chemical_formula_sum "Si O2"
_cell_formula_units_Z 168
_cell_length_a 22.437818
_cell_length_b 22.437818
_cell_length_c 28.270838
_cell_angle_alpha 90.000000
_cell_angle_beta 90.000000
_cell_angle_gamma 120.000000
_cell_volume 12326.238189
_symmetry_space_group_name_H-M "P 6/M M M"
_symmetry_group_IT_number 191
_symmetry_cell_setting 'hexagonal'
loop_
_space_group_symop_operation_xyz
x,y,z
x-y,x,z
-y,x-y,z
-x,-y,z
-x+y,-x,z
y,-x+y,z
x-y,-y,-z
-x,-x+y,-z
y,x,-z
-y,-x,-z
-x+y,y,-z
x,x-y,-z
-x,-y,-z
-x+y,-x,-z
y,-x+y,-z
x,y,-z
x-y,x,-z
-y,x-y,-z
-x+y,y,z
x,x-y,z
-y,-x,z
y,x,z
x-y,-y,z
-x,-x+y,z
loop_
_atom_site_type_symbol
_atom_site_label
_atom_site_fract_x
_atom_site_fract_y
_atom_site_fract_z
Si Si1 0.712470 0.923102 0.054130
Si Si2 0.201818 0.666667 0.944361
Si Si3 0.608940 0.532608 0.553079
Si Si4 0.666938 0.196474 0.270434
Si Si5 0.921814 0.392287 0.801622
Si Si6 0.528288 0.332728 0.620533
Si Si7 0.666623 0.588376 0.100545
O O1 0.738272 0.869136 0.064982
O O2 0.651072 0.908258 0.090026
O O3 0.776467 0.000000 0.062135
O O4 0.685224 0.914672 0.000000
O O5 0.212311 0.606156 0.922610
O O6 0.260609 0.739392 0.922664
O O7 0.126304 0.651678 0.932640
O O8 0.209752 0.668004 0.000000
O O9 0.639505 0.543850 0.500000
O O10 0.537812 0.462189 0.555641
O O11 0.594724 0.594724 0.566616
O O12 0.662113 0.529631 0.589820
O O13 0.608507 0.217013 0.262645
O O14 0.739086 0.260915 0.254043
O O15 0.651153 0.129437 0.240438
O O16 0.669508 0.177647 0.324813
O O17 0.910677 0.455339 0.817682
O O18 0.905511 0.339994 0.844980
O O19 0.000000 0.422184 0.783603
O O20 0.528234 0.264117 0.605209
O O21 0.603983 0.396018 0.610172
O O22 0.610071 0.610071 0.087925
#
# Coordination Sequence:
#
# PCOD8328645 Si02
#       7
#    24  24  24  24  24  24  24
#     4   9  17  29  45  64  84 104 125 148 175 210
#     4  10  20  32  44  57  75  99 125 151 179 215
#     4   8  14  24  36  50  69  93 121 151 180 212
#     4   9  17  28  41  56  73  94 120 150 184 221
#     4   9  18  31  43  55  73  95 120 152 187 221
#     4   9  16  25  37  53  73  95 119 149 186 226
#     4  10  19  30  44  61  79  97 119 151 189 223
#
# _framework density 13.629462999999999
#
# number of rings (size 3 to 8) (size 9 to 14) (size 15 to 20)
#    0.000    2.857    0.000    2.143    0.000    6.571 
#    0.000    3.571    0.000    2.714    0.000    1.000 
#    0.000    0.000    0.000    0.000    0.000    0.000 
#
# Total GULP energy -2082649.346260 kJ/mol
# GULP energy per Si atom -12396.722299 kJ/mol
# Density = 1.359844 g / cm^3
# Si number density = 13.629463 Si / 1000 Ang^3
#
#
#
# Elastic Constant Matrix: (Units=GPa)
#
#
# Indices 1 2 3 4 5 6 
#
# 1 85.9141 49.5603 44.8018 0.0000 0.0000 0.0000
# 2 49.5603 85.9141 44.8018 0.0000 0.0000 0.0000
# 3 44.8018 44.8018 55.4448 0.0000 0.0000 0.0000
# 4 0.0000 0.0000 0.0000 18.2141 0.0000 0.0000
# 5 0.0000 0.0000 0.0000 0.0000 18.2141 0.0000
# 6 0.0000 0.0000 0.0000 0.0000 0.0000 18.1769
#
#
#
# Elastic Compliance Matrix: (Units=1/GPa)
#
#
# Indices 1 2 3 4 5 6 
#
# 1 0.021681 -0.005826 -0.012812 0.000000 0.000000 0.000000
# 2 -0.005826 0.021681 -0.012812 0.000000 0.000000 0.000000
# 3 -0.012812 -0.012812 0.038741 0.000000 0.000000 0.000000
# 4 0.000000 0.000000 0.000000 0.054903 0.000000 0.000000
# 5 0.000000 0.000000 0.000000 0.000000 0.054903 0.000000
# 6 0.000000 0.000000 0.000000 0.000000 0.000000 0.055015
#
#
# Mechanical properties :
#
#
# Convention : Reuss Voigt Hill
#
# Bulk Modulus (GPa) = 52.07140 56.17787 54.12464
# Shear Modulus (GPa) = 15.81157 16.79493 16.30325
#
# Velocity S-wave (km/s) = 3.40972 3.51415 3.46233
# Velocity P-wave (km/s) = 7.33414 7.60086 7.46869
#
# Compressibility (1/GPa) = 0.01920440
#
# Stress axis : x y z
#
# Youngs Moduli (GPa) = 46.12260 46.12260 25.81260
#
# Poissons Ratio (x) = 0.26872 0.33070
# Poissons Ratio (y) = 0.26872 0.33070
# Poissons Ratio (z) = 0.59091 0.59091
#
# Static dielectric constant tensor:
#      x y z
#    x 2.711000 0.000000 0.000000 
#    y 0.000000 2.711000 0.000000 
#    z 0.000000 0.000000 2.667180 
# 
# 
# High freq. dielectric constant tensor:
#      x y z
#    x 1.505160 0.000000 0.000000 
#    y 0.000000 1.505160 0.000000 
#    z 0.000000 0.000000 1.507940 
# 
# From -- ./inp_files/10079.got.cif
#   From: 2010.03.12/outbox.cif.g09.slc.cpg/sg191_6_cif.got.tgz:10079.got - 2010.04.01 12:09:02.
