data_PCOD8328420
_publ_section_title
;
Structure prediction by ZEFSAII (Michael W. Deem and Ramdas Pophale) SiO2 
 PCOD8328420
Probable space group: P 6/M M M
;
_chemical_formula_sum "Si O2"
_cell_formula_units_Z 192
_cell_length_a 23.244191
_cell_length_b 23.244191
_cell_length_c 23.962432
_cell_angle_alpha 90.000000
_cell_angle_beta 90.000000
_cell_angle_gamma 120.000000
_cell_volume 11212.188641
_symmetry_space_group_name_H-M "P 6/M M M"
_symmetry_group_IT_number 191
_symmetry_cell_setting 'hexagonal'
loop_
_space_group_symop_operation_xyz
x,y,z
x-y,x,z
-y,x-y,z
-x,-y,z
-x+y,-x,z
y,-x+y,z
x-y,-y,-z
-x,-x+y,-z
y,x,-z
-y,-x,-z
-x+y,y,-z
x,x-y,-z
-x,-y,-z
-x+y,-x,-z
y,-x+y,-z
x,y,-z
x-y,x,-z
-y,x-y,-z
-x+y,y,z
x,x-y,z
-y,-x,z
y,x,z
x-y,-y,z
-x,-x+y,z
loop_
_atom_site_type_symbol
_atom_site_label
_atom_site_fract_x
_atom_site_fract_y
_atom_site_fract_z
Si Si1 0.278807 0.205758 0.633265
Si Si2 0.335623 0.534568 0.629197
Si Si3 0.863003 0.272637 0.062228
Si Si4 0.720899 0.927599 0.130883
Si Si5 0.689977 0.174092 0.252586
Si Si6 0.800874 0.335304 0.867146
Si Si7 0.593515 0.728666 0.437589
Si Si8 0.764714 0.103119 0.247249
O O1 0.258534 0.129267 0.621461
O O2 0.217062 0.217062 0.618125
O O3 0.341573 0.257133 0.596793
O O4 0.295573 0.224518 0.697772
O O5 0.271721 0.543442 0.624322
O O6 0.398914 0.601087 0.606330
O O7 0.350522 0.523258 0.692805
O O8 0.327350 0.472750 0.592480
O O9 0.791608 0.208393 0.059287
O O10 0.913155 0.253894 0.091650
O O11 0.855746 0.327735 0.097389
O O12 0.889292 0.299833 0.000000
O O13 0.741717 0.870859 0.125262
O O14 0.702283 0.937222 0.193541
O O15 0.782971 0.000000 0.113677
O O16 0.761860 0.238141 0.256851
O O17 0.652720 0.176703 0.197317
O O18 0.697982 0.108434 0.251448
O O19 0.798954 0.399477 0.889392
O O20 0.728195 0.271806 0.874189
O O21 0.597691 0.704912 0.500000
O O22 0.590160 0.795080 0.439429
O O23 0.822652 0.177349 0.238290
#
# Coordination Sequence:
#
# PCOD8328420 Si02
#       8
#    24  24  24  24  24  24  24  24
#     4  10  19  32  53  79 104 127 155 193 235 280
#     4  10  18  28  44  68  98 130 165 207 256 305
#     4   9  18  32  48  67  93 127 168 209 245 282
#     4  10  19  32  53  79 104 127 155 193 235 280
#     4   9  15  26  44  66  94 126 163 206 251 296
#     4  10  18  28  44  68  98 130 165 207 256 305
#     4   9  18  32  48  67  93 127 168 209 245 282
#     4   9  15  28  49  74  99 125 159 199 240 278
#
# _framework density 17.124220999999999
#
# number of rings (size 3 to 8) (size 9 to 14) (size 15 to 20)
#    0.000    2.500    2.500    1.000    0.000    1.000 
#    0.000    1.250    0.000    2.500    0.000    3.500 
#    0.000    3.000    0.000    6.250    0.000    0.000 
#
# Total GULP energy -2379546.452001 kJ/mol
# GULP energy per Si atom -12393.471104 kJ/mol
# Density = 1.708525 g / cm^3
# Si number density = 17.124221 Si / 1000 Ang^3
#
#
#
# Elastic Constant Matrix: (Units=GPa)
#
#
# Indices 1 2 3 4 5 6 
#
# 1 87.0762 45.7583 25.1073 0.0000 0.0000 0.0000
# 2 45.7583 87.0762 25.1073 0.0000 0.0000 0.0000
# 3 25.1073 25.1073 107.3849 0.0000 0.0000 0.0000
# 4 0.0000 0.0000 0.0000 5.3028 0.0000 0.0000
# 5 0.0000 0.0000 0.0000 0.0000 5.3028 0.0000
# 6 0.0000 0.0000 0.0000 0.0000 0.0000 20.6589
#
#
#
# Elastic Compliance Matrix: (Units=1/GPa)
#
#
# Indices 1 2 3 4 5 6 
#
# 1 0.016230 -0.007972 -0.001931 0.000000 0.000000 0.000000
# 2 -0.007972 0.016230 -0.001931 0.000000 0.000000 0.000000
# 3 -0.001931 -0.001931 0.010215 0.000000 0.000000 0.000000
# 4 0.000000 0.000000 0.000000 0.188581 0.000000 0.000000
# 5 0.000000 0.000000 0.000000 0.000000 0.188581 0.000000
# 6 0.000000 0.000000 0.000000 0.000000 0.000000 0.048405
#
#
# Mechanical properties :
#
#
# Convention : Reuss Voigt Hill
#
# Bulk Modulus (GPa) = 52.60914 52.60924 52.60919
# Shear Modulus (GPa) = 10.03520 18.62384 14.32952
#
# Velocity S-wave (km/s) = 2.42342 3.30142 2.89589
# Velocity P-wave (km/s) = 6.21445 6.73211 6.47845
#
# Compressibility (1/GPa) = 0.01900810
#
# Stress axis : x y z
#
# Youngs Moduli (GPa) = 61.61305 61.61305 97.89367
#
# Poissons Ratio (x) = 0.49120 0.18901
# Poissons Ratio (y) = 0.49120 0.18901
# Poissons Ratio (z) = 0.11896 0.11896
#
# Static dielectric constant tensor:
#      x y z
#    x 2.932440 0.000000 0.000000 
#    y 0.000000 2.932440 0.000000 
#    z 0.000000 0.000000 3.508530 
# 
# 
# High freq. dielectric constant tensor:
#      x y z
#    x 1.631330 0.000000 0.000000 
#    y 0.000000 1.631330 0.000000 
#    z 0.000000 0.000000 1.669490 
# 
# From -- ./inp_files/9287.got.cif
#   From: 2010.03.12/outbox.cif.g09.slc.cpg/sg191_5_cif.got.tgz:9287.got - 2010.04.01 12:09:02.
