data_PCOD8328072
_publ_section_title
;
Structure prediction by ZEFSAII (Michael W. Deem and Ramdas Pophale) SiO2 
 PCOD8328072
Probable space group: P -6 2 C
;
_chemical_formula_sum "Si O2"
_cell_formula_units_Z 48
_cell_length_a 17.906732
_cell_length_b 17.906732
_cell_length_c 10.077894
_cell_angle_alpha 90.000000
_cell_angle_beta 90.000000
_cell_angle_gamma 120.000000
_cell_volume 2798.550096
_symmetry_space_group_name_H-M "P -6 2 C"
_symmetry_group_IT_number 190
_symmetry_cell_setting 'hexagonal'
loop_
_space_group_symop_operation_xyz
x,y,z
-x+y,-x,1/2-z
-y,x-y,z
x,y,1/2-z
-x+y,-x,z
-y,x-y,1/2-z
x-y,-y,-z
-x,-x+y,-z
y,x,-z
y,x,1/2+z
x-y,-y,1/2+z
-x,-x+y,1/2+z
loop_
_atom_site_type_symbol
_atom_site_label
_atom_site_fract_x
_atom_site_fract_y
_atom_site_fract_z
Si Si1 0.798788 0.000000 0.500000
Si Si2 0.079245 0.421111 0.403506
Si Si3 0.488860 0.413478 0.600664
Si Si4 0.991566 0.899819 0.250000
Si Si5 0.778286 0.153321 0.597697
O O1 0.844775 0.985462 0.623514
O O2 0.788044 0.083629 0.511500
O O3 0.052179 0.394443 0.250000
O O4 0.114062 0.523220 0.423722
O O5 0.153399 0.402085 0.449449
O O6 0.000000 0.365546 0.500000
O O7 0.464604 0.426878 0.750000
O O8 0.433058 0.433058 0.500000
O O9 0.461490 0.314182 0.578139
O O10 0.911525 0.918963 0.250000
O O11 0.793190 0.137632 0.750000
#
# Coordination Sequence:
#
# PCOD8328072 Si02
#       5
#     6  12  12   6  12
#     4  12  20  38  58  80 106 146 190 232 276 322
#     4   9  19  36  54  78 107 140 174 217 270 317
#     4   9  17  33  56  75 105 136 168 212 263 314
#     4  10  24  40  54  74 108 150 186 232 286 322
#     4  10  20  35  55  84 110 137 182 226 265 326
#
# _framework density 17.151738999999999
#
# number of rings (size 3 to 8) (size 9 to 14) (size 15 to 20)
#    0.250    2.000    2.500    0.750    0.000    2.000 
#    3.750    0.000    0.000    0.000    0.000    0.000 
#    0.000    0.000    0.000    0.000    0.000    0.000 
#
# Total GULP energy -595013.791377 kJ/mol
# GULP energy per Si atom -12396.120654 kJ/mol
# Density = 1.711270 g / cm^3
# Si number density = 17.151739 Si / 1000 Ang^3
#
#
#
# Elastic Constant Matrix: (Units=GPa)
#
#
# Indices 1 2 3 4 5 6 
#
# 1 136.6171 86.2045 59.1414 0.0000 0.0000 0.0000
# 2 86.2045 136.6171 59.1414 0.0000 0.0000 0.0000
# 3 59.1414 59.1414 89.5109 0.0000 0.0000 0.0000
# 4 0.0000 0.0000 0.0000 25.3846 0.0000 0.0000
# 5 0.0000 0.0000 0.0000 0.0000 25.3846 0.0000
# 6 0.0000 0.0000 0.0000 0.0000 0.0000 25.2063
#
#
#
# Elastic Compliance Matrix: (Units=1/GPa)
#
#
# Indices 1 2 3 4 5 6 
#
# 1 0.013374 -0.006462 -0.004567 0.000000 0.000000 0.000000
# 2 -0.006462 0.013374 -0.004567 0.000000 0.000000 0.000000
# 3 -0.004567 -0.004567 0.017207 0.000000 0.000000 0.000000
# 4 0.000000 0.000000 0.000000 0.039394 0.000000 0.000000
# 5 0.000000 0.000000 0.000000 0.000000 0.039394 0.000000
# 6 0.000000 0.000000 0.000000 0.000000 0.000000 0.039673
#
#
# Mechanical properties :
#
#
# Convention : Reuss Voigt Hill
#
# Bulk Modulus (GPa) = 78.35023 85.74665 82.04844
# Shear Modulus (GPa) = 25.27005 25.74563 25.50784
#
# Velocity S-wave (km/s) = 3.84255 3.87854 3.86059
# Velocity P-wave (km/s) = 8.09115 8.37609 8.23486
#
# Compressibility (1/GPa) = 0.01276320
#
# Stress axis : x y z
#
# Youngs Moduli (GPa) = 74.77031 74.77031 58.11620
#
# Poissons Ratio (x) = 0.48317 0.26542
# Poissons Ratio (y) = 0.48317 0.26542
# Poissons Ratio (z) = 0.34148 0.34148
#
# Static dielectric constant tensor:
#      x y z
#    x 3.237060 0.000000 0.000000 
#    y 0.000000 3.237060 0.000000 
#    z 0.000000 0.000000 3.095600 
# 
# 
# High freq. dielectric constant tensor:
#      x y z
#    x 1.659480 0.000000 0.000000 
#    y 0.000000 1.659480 0.000000 
#    z 0.000000 0.000000 1.663740 
# 
# From -- ./inp_files/702.got.cif
#   From: 2010.06.25/outbox.cif.g09.slc.cpg/sg190_1_cif.got.tgz:702.got - 2010.06.28 13:08:06.
