data_PCOD8328475
_publ_section_title
;
Structure prediction by ZEFSAII (Michael W. Deem and Ramdas Pophale) SiO2 
 PCOD8328475
Probable space group: P 6/M M M
;
_chemical_formula_sum "Si O2"
_cell_formula_units_Z 168
_cell_length_a 25.592267
_cell_length_b 25.592267
_cell_length_c 18.825605
_cell_angle_alpha 90.000000
_cell_angle_beta 90.000000
_cell_angle_gamma 120.000000
_cell_volume 10678.176371
_symmetry_space_group_name_H-M "P 6/M M M"
_symmetry_group_IT_number 191
_symmetry_cell_setting 'hexagonal'
loop_
_space_group_symop_operation_xyz
x,y,z
x-y,x,z
-y,x-y,z
-x,-y,z
-x+y,-x,z
y,-x+y,z
x-y,-y,-z
-x,-x+y,-z
y,x,-z
-y,-x,-z
-x+y,y,-z
x,x-y,-z
-x,-y,-z
-x+y,-x,-z
y,-x+y,-z
x,y,-z
x-y,x,-z
-y,x-y,-z
-x+y,y,z
x,x-y,z
-y,-x,z
y,x,z
x-y,-y,z
-x,-x+y,z
loop_
_atom_site_type_symbol
_atom_site_label
_atom_site_fract_x
_atom_site_fract_y
_atom_site_fract_z
Si Si1 0.582407 0.164814 0.920787
Si Si2 0.702417 0.525163 0.918655
Si Si3 0.931672 0.465836 0.804435
Si Si4 0.704565 0.528291 0.580075
Si Si5 0.363854 0.294691 0.653572
Si Si6 0.332871 0.550467 0.707301
Si Si7 0.667365 0.115089 0.780138
Si Si8 0.813016 0.068217 0.581636
O O1 0.546957 0.201594 0.906243
O O2 0.552167 0.104333 0.876664
O O3 0.570282 0.140563 0.000000
O O4 0.768679 0.537358 0.902171
O O5 0.685362 0.564110 0.864087
O O6 0.698362 0.543954 0.000000
O O7 0.918145 0.513489 0.762787
O O8 0.000000 0.500000 0.827024
O O9 0.683010 0.510148 0.500000
O O10 0.776047 0.552093 0.589414
O O11 0.690383 0.580015 0.603619
O O12 0.665538 0.467836 0.625670
O O13 0.342988 0.342988 0.636677
O O14 0.384810 0.301218 0.736507
O O15 0.309293 0.227780 0.635903
O O16 0.288979 0.577958 0.715682
O O17 0.399656 0.600345 0.732614
O O18 0.306296 0.490124 0.754304
O O19 0.796519 0.074992 0.500000
O O20 0.883363 0.116638 0.597097
O O21 0.800534 0.000000 0.593885
#
# Coordination Sequence:
#
# PCOD8328475 Si02
#       8
#    12  24  12  24  24  24  24  24
#     4   8  16  29  42  60  84 101 127 170 206 251
#     4   9  17  30  46  62  83 111 138 168 213 263
#     4  10  18  29  46  58  75 108 140 173 217 266
#     4   9  18  31  46  63  85 113 141 172 215 260
#     4  10  19  29  45  68  90 114 146 184 223 262
#     4  10  19  31  46  63  82 108 139 175 214 260
#     4  10  19  32  45  62  87 110 143 181 224 265
#     4   9  17  29  46  69  97 126 155 187 223 260
#
# _framework density 15.733024
#
# number of rings (size 3 to 8) (size 9 to 14) (size 15 to 20)
#    0.000    2.571    0.714    1.857    0.000    4.143 
#    0.429    0.000    0.000    2.286    0.000    3.000 
#    0.000    0.000    0.000    0.000    0.000    0.000 
#
# Total GULP energy -2081608.031390 kJ/mol
# GULP energy per Si atom -12390.523996 kJ/mol
# Density = 1.569721 g / cm^3
# Si number density = 15.733024 Si / 1000 Ang^3
#
#
#
# Elastic Constant Matrix: (Units=GPa)
#
#
# Indices 1 2 3 4 5 6 
#
# 1 67.7922 32.7761 20.6863 0.0000 0.0000 0.0000
# 2 32.7761 67.7922 20.6863 0.0000 0.0000 0.0000
# 3 20.6863 20.6863 69.1435 0.0000 0.0000 0.0000
# 4 0.0000 0.0000 0.0000 16.0652 0.0000 0.0000
# 5 0.0000 0.0000 0.0000 0.0000 16.0652 0.0000
# 6 0.0000 0.0000 0.0000 0.0000 0.0000 17.5081
#
#
#
# Elastic Compliance Matrix: (Units=1/GPa)
#
#
# Indices 1 2 3 4 5 6 
#
# 1 0.019949 -0.008610 -0.003392 0.000000 0.000000 0.000000
# 2 -0.008610 0.019949 -0.003392 0.000000 0.000000 0.000000
# 3 -0.003392 -0.003392 0.016493 0.000000 0.000000 0.000000
# 4 0.000000 0.000000 0.000000 0.062246 0.000000 0.000000
# 5 0.000000 0.000000 0.000000 0.000000 0.062246 0.000000
# 6 0.000000 0.000000 0.000000 0.000000 0.000000 0.057117
#
#
# Mechanical properties :
#
#
# Convention : Reuss Voigt Hill
#
# Bulk Modulus (GPa) = 39.06089 39.22504 39.14297
# Shear Modulus (GPa) = 18.02960 18.63298 18.33129
#
# Velocity S-wave (km/s) = 3.38889 3.44513 3.41713
# Velocity P-wave (km/s) = 6.33988 6.38835 6.36416
#
# Compressibility (1/GPa) = 0.02560105
#
# Stress axis : x y z
#
# Youngs Moduli (GPa) = 50.12862 50.12862 60.63342
#
# Poissons Ratio (x) = 0.43159 0.20569
# Poissons Ratio (y) = 0.43159 0.20569
# Poissons Ratio (z) = 0.17006 0.17006
#
# Static dielectric constant tensor:
#      x y z
#    x 2.881550 0.000000 0.000000 
#    y 0.000000 2.881550 0.000000 
#    z 0.000000 0.000000 3.196860 
# 
# 
# High freq. dielectric constant tensor:
#      x y z
#    x 1.582530 0.000000 0.000000 
#    y 0.000000 1.582530 0.000000 
#    z 0.000000 0.000000 1.605400 
# 
# From -- ./inp_files/8052.got.cif
#   From: 2010.03.12/outbox.cif.g09.slc.cpg/sg191_5_cif.got.tgz:8052.got - 2010.04.01 12:09:02.
