data_PCOD8328334
_publ_section_title
;
Structure prediction by ZEFSAII (Michael W. Deem and Ramdas Pophale) SiO2 
 PCOD8328334
Probable space group: P 6/M M M
;
_chemical_formula_sum "Si O2"
_cell_formula_units_Z 120
_cell_length_a 18.117945
_cell_length_b 18.117945
_cell_length_c 25.432921
_cell_angle_alpha 90.000000
_cell_angle_beta 90.000000
_cell_angle_gamma 120.000000
_cell_volume 7230.107388
_symmetry_space_group_name_H-M "P 6/M M M"
_symmetry_group_IT_number 191
_symmetry_cell_setting 'hexagonal'
loop_
_space_group_symop_operation_xyz
x,y,z
x-y,x,z
-y,x-y,z
-x,-y,z
-x+y,-x,z
y,-x+y,z
x-y,-y,-z
-x,-x+y,-z
y,x,-z
-y,-x,-z
-x+y,y,-z
x,x-y,-z
-x,-y,-z
-x+y,-x,-z
y,-x+y,-z
x,y,-z
x-y,x,-z
-y,x-y,-z
-x+y,y,z
x,x-y,z
-y,-x,z
y,x,z
x-y,-y,z
-x,-x+y,z
loop_
_atom_site_type_symbol
_atom_site_label
_atom_site_fract_x
_atom_site_fract_y
_atom_site_fract_z
Si Si1 0.099928 0.467498 0.391188
Si Si2 0.501615 0.668681 0.500000
Si Si3 0.638829 0.904249 0.000000
Si Si4 0.902164 0.533917 0.801527
Si Si5 0.498475 0.331676 0.913637
Si Si6 0.636765 0.900498 0.296297
O O1 0.140531 0.570266 0.384313
O O2 0.126995 0.444178 0.446855
O O3 0.129586 0.428846 0.344793
O O4 0.000000 0.425566 0.389174
O O5 0.428053 0.571948 0.500000
O O6 0.464117 0.732059 0.500000
O O7 0.583018 0.893907 0.051437
O O8 0.671827 0.835914 0.000000
O O9 0.720022 0.000000 0.000000
O O10 0.880332 0.440166 0.781518
O O11 0.847598 0.527088 0.852537
O O12 0.881555 0.580861 0.755813
O O13 0.000000 0.587542 0.818466
O O14 0.530039 0.265020 0.927288
O O15 0.573414 0.426587 0.926654
O O16 0.678619 0.839310 0.295623
O O17 0.710694 0.000000 0.300239
#
# Coordination Sequence:
#
# PCOD8328334 Si02
#       6
#    24  12  12  24  24  24
#     4   9  17  29  45  63  83 110 143 178 216 258
#     4  10  18  27  39  57  84 115 145 173 203 242
#     4  10  21  35  51  70  91 117 150 190 233 275
#     4   9  17  29  46  67  90 118 152 188 223 260
#     4  10  19  30  45  67  97 130 161 189 217 251
#     4  10  19  31  47  66  88 114 147 186 227 270
#
# _framework density 16.597263000000002
#
# number of rings (size 3 to 8) (size 9 to 14) (size 15 to 20)
#    0.000    2.400    0.000    3.300    0.000    5.200 
#    0.000    1.000    0.000    5.900    0.000    0.000 
#    0.000    0.000    0.000    6.400    0.000   20.800 
#
# Total GULP energy -1487540.912595 kJ/mol
# GULP energy per Si atom -12396.174272 kJ/mol
# Density = 1.655949 g / cm^3
# Si number density = 16.597263 Si / 1000 Ang^3
#
#
#
# Elastic Constant Matrix: (Units=GPa)
#
#
# Indices 1 2 3 4 5 6 
#
# 1 73.6450 45.8146 33.2025 0.0000 0.0000 0.0000
# 2 45.8146 73.6450 33.2025 0.0000 0.0000 0.0000
# 3 33.2025 33.2025 87.3712 0.0000 0.0000 0.0000
# 4 0.0000 0.0000 0.0000 2.4231 0.0000 0.0000
# 5 0.0000 0.0000 0.0000 0.0000 2.4231 0.0000
# 6 0.0000 0.0000 0.0000 0.0000 0.0000 13.9152
#
#
#
# Elastic Compliance Matrix: (Units=1/GPa)
#
#
# Indices 1 2 3 4 5 6 
#
# 1 0.023272 -0.012659 -0.004033 0.000000 0.000000 0.000000
# 2 -0.012659 0.023272 -0.004033 0.000000 0.000000 0.000000
# 3 -0.004033 -0.004033 0.014511 0.000000 0.000000 0.000000
# 4 0.000000 0.000000 0.000000 0.412690 0.000000 0.000000
# 5 0.000000 0.000000 0.000000 0.000000 0.412690 0.000000
# 6 0.000000 0.000000 0.000000 0.000000 0.000000 0.071864
#
#
# Mechanical properties :
#
#
# Convention : Reuss Voigt Hill
#
# Bulk Modulus (GPa) = 51.00941 51.01112 51.01026
# Shear Modulus (GPa) = 4.96877 11.91507 8.44192
#
# Velocity S-wave (km/s) = 1.73212 2.68226 2.25774
# Velocity P-wave (km/s) = 5.89921 6.35563 6.13167
#
# Compressibility (1/GPa) = 0.01960423
#
# Stress axis : x y z
#
# Youngs Moduli (GPa) = 42.96930 42.96930 68.91467
#
# Poissons Ratio (x) = 0.54397 0.27794
# Poissons Ratio (y) = 0.54397 0.27794
# Poissons Ratio (z) = 0.17330 0.17330
#
# Static dielectric constant tensor:
#      x y z
#    x 2.692720 0.000000 0.000000 
#    y 0.000000 2.692720 0.000000 
#    z 0.000000 0.000000 3.366130 
# 
# 
# High freq. dielectric constant tensor:
#      x y z
#    x 1.614670 0.000000 0.000000 
#    y 0.000000 1.614670 0.000000 
#    z 0.000000 0.000000 1.659040 
# 
# From -- ./inp_files/8511.got.cif
#   From: 2010.03.12/outbox.cif.g09.slc.cpg/sg191_5_cif.got.tgz:8511.got - 2010.04.01 12:09:02.
