data_PCOD8328306
_publ_section_title
;
Structure prediction by ZEFSAII (Michael W. Deem and Ramdas Pophale) SiO2 
 PCOD8328306
Probable space group: P 6/M M M
;
_chemical_formula_sum "Si O2"
_cell_formula_units_Z 120
_cell_length_a 18.092554
_cell_length_b 18.092554
_cell_length_c 26.279826
_cell_angle_alpha 90.000000
_cell_angle_beta 90.000000
_cell_angle_gamma 120.000000
_cell_volume 7449.941665
_symmetry_space_group_name_H-M "P 6/M M M"
_symmetry_group_IT_number 191
_symmetry_cell_setting 'hexagonal'
loop_
_space_group_symop_operation_xyz
x,y,z
x-y,x,z
-y,x-y,z
-x,-y,z
-x+y,-x,z
y,-x+y,z
x-y,-y,-z
-x,-x+y,-z
y,x,-z
-y,-x,-z
-x+y,y,-z
x,x-y,-z
-x,-y,-z
-x+y,-x,-z
y,-x+y,-z
x,y,-z
x-y,x,-z
-y,x-y,-z
-x+y,y,z
x,x-y,z
-y,-x,z
y,x,z
x-y,-y,z
-x,-x+y,z
loop_
_atom_site_type_symbol
_atom_site_label
_atom_site_fract_x
_atom_site_fract_y
_atom_site_fract_z
Si Si1 0.669362 0.169629 0.500000
Si Si2 0.100108 0.368951 0.093323
Si Si3 0.669013 0.500633 0.293139
Si Si4 0.365710 0.465483 0.603280
Si Si5 0.160100 0.491638 0.000000
Si Si6 0.900082 0.367348 0.811991
O O1 0.728288 0.271712 0.500000
O O2 0.570120 0.140239 0.500000
O O3 0.689961 0.133508 0.448568
O O4 0.165965 0.331929 0.086469
O O5 0.129019 0.425891 0.144243
O O6 0.000000 0.292391 0.094729
O O7 0.111904 0.433719 0.048440
O O8 0.730048 0.460096 0.291058
O O9 0.570906 0.429095 0.294374
O O10 0.690161 0.556750 0.344924
O O11 0.682499 0.555210 0.242033
O O12 0.433283 0.566718 0.603214
O O13 0.410676 0.410676 0.603216
O O14 0.259953 0.519905 0.000000
O O15 0.150745 0.575373 0.000000
O O16 0.859201 0.429601 0.819382
O O17 0.000000 0.426006 0.813423
#
# Coordination Sequence:
#
# PCOD8328306 Si02
#       6
#    12  24  24  24  12  24
#     4  10  18  27  39  55  74  93 116 150 195 242
#     4  10  20  33  49  69  92 119 152 189 228 268
#     4  10  18  27  39  56  79 105 134 168 206 244
#     4   9  17  28  40  52  68  94 127 160 193 231
#     4  10  20  33  50  73 100 128 155 184 218 257
#     4   9  17  29  45  64  86 113 144 176 211 256
#
# _framework density 16.107510000000001
#
# number of rings (size 3 to 8) (size 9 to 14) (size 15 to 20)
#    0.000    2.400    0.000    3.400    0.000    5.200 
#    0.000    2.000    0.000    6.600    0.000    0.000 
#    0.000    2.400    0.000    0.000    0.000    0.000 
#
# Total GULP energy -1486777.204706 kJ/mol
# GULP energy per Si atom -12389.810039 kJ/mol
# Density = 1.607085 g / cm^3
# Si number density = 16.107510 Si / 1000 Ang^3
#
#
#
# Elastic Constant Matrix: (Units=GPa)
#
#
# Indices 1 2 3 4 5 6 
#
# 1 46.0286 29.8299 29.8509 0.0000 0.0000 0.0000
# 2 29.8299 46.0286 29.8509 0.0000 0.0000 0.0000
# 3 29.8509 29.8509 155.6621 0.0000 0.0000 0.0000
# 4 0.0000 0.0000 0.0000 1.7101 0.0000 0.0000
# 5 0.0000 0.0000 0.0000 0.0000 1.7101 0.0000
# 6 0.0000 0.0000 0.0000 0.0000 0.0000 8.0994
#
#
#
# Elastic Compliance Matrix: (Units=1/GPa)
#
#
# Indices 1 2 3 4 5 6 
#
# 1 0.038629 -0.023104 -0.002977 0.000000 0.000000 0.000000
# 2 -0.023104 0.038629 -0.002977 0.000000 0.000000 0.000000
# 3 -0.002977 -0.002977 0.007566 0.000000 0.000000 0.000000
# 4 0.000000 0.000000 0.000000 0.584755 0.000000 0.000000
# 5 0.000000 0.000000 0.000000 0.000000 0.584755 0.000000
# 6 0.000000 0.000000 0.000000 0.000000 0.000000 0.123466
#
#
# Mechanical properties :
#
#
# Convention : Reuss Voigt Hill
#
# Bulk Modulus (GPa) = 37.44184 47.42031 42.43108
# Shear Modulus (GPa) = 3.46064 12.84977 8.15520
#
# Velocity S-wave (km/s) = 1.46735 2.82751 2.25255
# Velocity P-wave (km/s) = 5.11530 6.33747 5.75890
#
# Compressibility (1/GPa) = 0.02670809
#
# Stress axis : x y z
#
# Youngs Moduli (GPa) = 25.88703 25.88703 132.16901
#
# Poissons Ratio (x) = 0.59809 0.39351
# Poissons Ratio (y) = 0.59809 0.39351
# Poissons Ratio (z) = 0.07707 0.07707
#
# Static dielectric constant tensor:
#      x y z
#    x 2.811690 0.000000 0.000000 
#    y 0.000000 2.811690 0.000000 
#    z 0.000000 0.000000 3.654310 
# 
# 
# High freq. dielectric constant tensor:
#      x y z
#    x 1.580790 0.000000 0.000000 
#    y 0.000000 1.580790 0.000000 
#    z 0.000000 0.000000 1.654960 
# 
# From -- ./inp_files/9584.got.cif
#   From: 2010.03.12/outbox.cif.g09.slc.cpg/sg191_5_cif.got.tgz:9584.got - 2010.04.01 12:09:02.
