data_PCOD8328845
_publ_section_title
;
Structure prediction by ZEFSAII (Michael W. Deem and Ramdas Pophale) SiO2 
 PCOD8328845
Probable space group: P 6/M M M
;
_chemical_formula_sum "Si O2"
_cell_formula_units_Z 108
_cell_length_a 17.323146
_cell_length_b 17.323146
_cell_length_c 24.123658
_cell_angle_alpha 90.000000
_cell_angle_beta 90.000000
_cell_angle_gamma 120.000000
_cell_volume 6269.419435
_symmetry_space_group_name_H-M "P 6/M M M"
_symmetry_group_IT_number 191
_symmetry_cell_setting 'hexagonal'
loop_
_space_group_symop_operation_xyz
x,y,z
x-y,x,z
-y,x-y,z
-x,-y,z
-x+y,-x,z
y,-x+y,z
x-y,-y,-z
-x,-x+y,-z
y,x,-z
-y,-x,-z
-x+y,y,-z
x,x-y,-z
-x,-y,-z
-x+y,-x,-z
y,-x+y,-z
x,y,-z
x-y,x,-z
-y,x-y,-z
-x+y,y,z
x,x-y,z
-y,-x,z
y,x,z
x-y,-y,z
-x,-x+y,z
loop_
_atom_site_type_symbol
_atom_site_label
_atom_site_fract_x
_atom_site_fract_y
_atom_site_fract_z
Si Si1 0.725674 0.625494 0.747355
Si Si2 0.000000 0.825400 0.434011
Si Si3 0.513277 0.846154 0.637642
Si Si4 0.000000 0.350531 0.565668
Si Si5 0.331579 0.845977 0.142334
Si Si6 0.000000 0.408396 0.938135
O O1 0.831947 0.663893 0.746948
O O2 0.708950 0.708950 0.749529
O O3 0.679198 0.567519 0.693446
O O4 0.679972 0.561636 0.799187
O O5 0.912360 0.824719 0.410765
O O6 0.000000 0.827265 0.500000
O O7 0.000000 0.737756 0.412258
O O8 0.415539 0.831078 0.645489
O O9 0.504906 0.752453 0.623187
O O10 0.562472 0.912243 0.586860
O O11 0.000000 0.353731 0.500000
O O12 0.420011 0.840021 0.145377
O O13 0.250512 0.749488 0.127752
O O14 0.335988 0.912340 0.094183
O O15 0.000000 0.500000 0.940995
O O16 0.000000 0.372757 0.000000
#
# Coordination Sequence:
#
# PCOD8328845 Si02
#       6
#    24  12  24  12  24  12
#     4  10  20  35  57  83 108 136 170 213 264 317
#     4   9  17  31  52  76 100 125 158 203 253 302
#     4  11  23  38  57  80 107 137 172 215 263 314
#     4  11  23  38  56  76 102 139 179 215 257 315
#     4  10  19  31  50  75 105 138 176 221 269 318
#     4   9  18  31  46  66  98 142 184 221 262 307
#
# _framework density 17.226475000000001
#
# number of rings (size 3 to 8) (size 9 to 14) (size 15 to 20)
#    0.000    1.889    2.222    2.222    0.000    4.000 
#    0.000    2.222    0.000    2.889    0.000    0.000 
#    0.000    0.000    0.000    0.000    0.000   10.111 
#
# Total GULP energy -1339453.298882 kJ/mol
# GULP energy per Si atom -12402.345360 kJ/mol
# Density = 1.718727 g / cm^3
# Si number density = 17.226475 Si / 1000 Ang^3
#
#
#
# Elastic Constant Matrix: (Units=GPa)
#
#
# Indices 1 2 3 4 5 6 
#
# 1 115.6329 69.6799 40.9021 0.0000 0.0000 0.0000
# 2 69.6799 115.6329 40.9021 0.0000 0.0000 0.0000
# 3 40.9021 40.9021 101.9198 0.0000 0.0000 0.0000
# 4 0.0000 0.0000 0.0000 14.7141 0.0000 0.0000
# 5 0.0000 0.0000 0.0000 0.0000 14.7141 0.0000
# 6 0.0000 0.0000 0.0000 0.0000 0.0000 22.9765
#
#
#
# Elastic Compliance Matrix: (Units=1/GPa)
#
#
# Indices 1 2 3 4 5 6 
#
# 1 0.014160 -0.007602 -0.002632 0.000000 0.000000 0.000000
# 2 -0.007602 0.014160 -0.002632 0.000000 0.000000 0.000000
# 3 -0.002632 -0.002632 0.011924 0.000000 0.000000 0.000000
# 4 0.000000 0.000000 0.000000 0.067962 0.000000 0.000000
# 5 0.000000 0.000000 0.000000 0.000000 0.067962 0.000000
# 6 0.000000 0.000000 0.000000 0.000000 0.000000 0.043523
#
#
# Mechanical properties :
#
#
# Convention : Reuss Voigt Hill
#
# Bulk Modulus (GPa) = 68.90487 70.68376 69.79431
# Shear Modulus (GPa) = 19.97938 22.59440 21.28689
#
# Velocity S-wave (km/s) = 3.40929 3.62554 3.51908
# Velocity P-wave (km/s) = 7.45546 7.65815 7.55748
#
# Compressibility (1/GPa) = 0.01451276
#
# Stress axis : x y z
#
# Youngs Moduli (GPa) = 70.62291 70.62291 83.86402
#
# Poissons Ratio (x) = 0.53685 0.22072
# Poissons Ratio (y) = 0.53685 0.22072
# Poissons Ratio (z) = 0.18587 0.18587
#
# Static dielectric constant tensor:
#      x y z
#    x 3.284610 0.000000 0.000000 
#    y 0.000000 3.284610 0.000000 
#    z 0.000000 0.000000 3.262280 
# 
# 
# High freq. dielectric constant tensor:
#      x y z
#    x 1.664130 0.000000 0.000000 
#    y 0.000000 1.664130 0.000000 
#    z 0.000000 0.000000 1.661240 
# 
# From -- ./inp_files/7365.got.cif
#   From: 2010.03.12/outbox.cif.g09.slc.cpg/sg191_4_cif.got.tgz:7365.got - 2010.04.01 12:09:02.
