data_PCOD8328655
_publ_section_title
;
Structure prediction by ZEFSAII (Michael W. Deem and Ramdas Pophale) SiO2 
 PCOD8328655
Probable space group: P 6/M M M
;
_chemical_formula_sum "Si O2"
_cell_formula_units_Z 108
_cell_length_a 18.699880
_cell_length_b 18.699880
_cell_length_c 22.527941
_cell_angle_alpha 90.000000
_cell_angle_beta 90.000000
_cell_angle_gamma 120.000000
_cell_volume 6822.283632
_symmetry_space_group_name_H-M "P 6/M M M"
_symmetry_group_IT_number 191
_symmetry_cell_setting 'hexagonal'
loop_
_space_group_symop_operation_xyz
x,y,z
x-y,x,z
-y,x-y,z
-x,-y,z
-x+y,-x,z
y,-x+y,z
x-y,-y,-z
-x,-x+y,-z
y,x,-z
-y,-x,-z
-x+y,y,-z
x,x-y,-z
-x,-y,-z
-x+y,-x,-z
y,-x+y,-z
x,y,-z
x-y,x,-z
-y,x-y,-z
-x+y,y,z
x,x-y,z
-y,-x,z
y,x,z
x-y,-y,z
-x,-x+y,z
loop_
_atom_site_type_symbol
_atom_site_label
_atom_site_fract_x
_atom_site_fract_y
_atom_site_fract_z
Si Si1 0.252596 0.907186 0.568179
Si Si2 0.094214 0.741327 0.870405
Si Si3 0.755249 0.665485 0.000000
Si Si4 0.498182 0.667828 0.785468
Si Si5 0.904488 0.532902 0.660574
O O1 0.274390 0.901639 0.500000
O O2 0.155840 0.844161 0.581203
O O3 0.307947 0.881024 0.606662
O O4 0.272599 0.000000 0.583824
O O5 0.161832 0.838169 0.857121
O O6 0.109841 0.681456 0.828849
O O7 0.000000 0.722298 0.859428
O O8 0.104192 0.718055 0.938907
O O9 0.744673 0.744673 0.000000
O O10 0.853056 0.706111 0.000000
O O11 0.470845 0.735422 0.797326
O O12 0.422333 0.577668 0.798692
O O13 0.528781 0.676708 0.717903
O O14 0.883033 0.441517 0.640333
O O15 0.000000 0.587505 0.677957
#
# Coordination Sequence:
#
# PCOD8328655 Si02
#       5
#    24  24  12  24  24
#     4   9  17  29  45  64  86 113 145 179 213 250
#     4   9  17  29  46  66  87 112 141 174 211 252
#     4   8  14  26  43  62  83 107 137 171 208 250
#     4  10  19  30  44  62  86 115 146 179 214 251
#     4   9  17  28  43  64  87 110 138 173 212 254
#
# _framework density 15.830477
#
# number of rings (size 3 to 8) (size 9 to 14) (size 15 to 20)
#    0.000    2.889    0.000    1.556    0.000    1.778 
#    0.000    2.778    0.000    3.000    0.000    6.222 
#    0.000    0.000    0.000    7.111    0.000    9.778 
#
# Total GULP energy -1338281.489126 kJ/mol
# GULP energy per Si atom -12391.495270 kJ/mol
# Density = 1.579445 g / cm^3
# Si number density = 15.830477 Si / 1000 Ang^3
#
#
#
# Elastic Constant Matrix: (Units=GPa)
#
#
# Indices 1 2 3 4 5 6 
#
# 1 88.3315 54.2561 53.5934 0.0000 0.0000 0.0000
# 2 54.2561 88.3315 53.5934 0.0000 0.0000 0.0000
# 3 53.5934 53.5934 83.8261 0.0000 0.0000 0.0000
# 4 0.0000 0.0000 0.0000 23.7340 0.0000 0.0000
# 5 0.0000 0.0000 0.0000 0.0000 23.7340 0.0000
# 6 0.0000 0.0000 0.0000 0.0000 0.0000 17.0377
#
#
#
# Elastic Compliance Matrix: (Units=1/GPa)
#
#
# Indices 1 2 3 4 5 6 
#
# 1 0.021425 -0.007922 -0.008633 0.000000 0.000000 0.000000
# 2 -0.007922 0.021425 -0.008633 0.000000 0.000000 0.000000
# 3 -0.008633 -0.008633 0.022968 0.000000 0.000000 0.000000
# 4 0.000000 0.000000 0.000000 0.042134 0.000000 0.000000
# 5 0.000000 0.000000 0.000000 0.000000 0.042134 0.000000
# 6 0.000000 0.000000 0.000000 0.000000 0.000000 0.058693
#
#
# Mechanical properties :
#
#
# Convention : Reuss Voigt Hill
#
# Bulk Modulus (GPa) = 64.75750 64.81942 64.78846
# Shear Modulus (GPa) = 18.91782 19.50423 19.21102
#
# Velocity S-wave (km/s) = 3.46066 3.51389 3.48738
# Velocity P-wave (km/s) = 7.54744 7.58275 7.56512
#
# Compressibility (1/GPa) = 0.01544223
#
# Stress axis : x y z
#
# Youngs Moduli (GPa) = 46.67500 46.67500 43.53858
#
# Poissons Ratio (x) = 0.36976 0.37586
# Poissons Ratio (y) = 0.36976 0.37586
# Poissons Ratio (z) = 0.40294 0.40294
#
# Static dielectric constant tensor:
#      x y z
#    x 2.983280 0.000000 0.000000 
#    y 0.000000 2.983280 0.000000 
#    z 0.000000 0.000000 3.178170 
# 
# 
# High freq. dielectric constant tensor:
#      x y z
#    x 1.595980 0.000000 0.000000 
#    y 0.000000 1.595980 0.000000 
#    z 0.000000 0.000000 1.617680 
# 
# From -- ./inp_files/7308.got.cif
#   From: 2010.03.12/outbox.cif.g09.slc.cpg/sg191_4_cif.got.tgz:7308.got - 2010.04.01 12:09:02.
