data_PCOD8328903
_publ_section_title
;
Structure prediction by ZEFSAII (Michael W. Deem and Ramdas Pophale) SiO2 
 PCOD8328903
Probable space group: P 6/M M M
;
_chemical_formula_sum "Si O2"
_cell_formula_units_Z 144
_cell_length_a 21.027558
_cell_length_b 21.027558
_cell_length_c 21.708498
_cell_angle_alpha 90.000000
_cell_angle_beta 90.000000
_cell_angle_gamma 120.000000
_cell_volume 8312.623042
_symmetry_space_group_name_H-M "P 6/M M M"
_symmetry_group_IT_number 191
_symmetry_cell_setting 'hexagonal'
loop_
_space_group_symop_operation_xyz
x,y,z
x-y,x,z
-y,x-y,z
-x,-y,z
-x+y,-x,z
y,-x+y,z
x-y,-y,-z
-x,-x+y,-z
y,x,-z
-y,-x,-z
-x+y,y,-z
x,x-y,-z
-x,-y,-z
-x+y,-x,-z
y,-x+y,-z
x,y,-z
x-y,x,-z
-y,x-y,-z
-x+y,y,z
x,x-y,z
-y,-x,z
y,x,z
x-y,-y,z
-x,-x+y,z
loop_
_atom_site_type_symbol
_atom_site_label
_atom_site_fract_x
_atom_site_fract_y
_atom_site_fract_z
Si Si1 0.913337 0.456668 0.567462
Si Si2 0.611990 0.525214 0.000000
Si Si3 0.571381 0.657110 0.651787
Si Si4 0.332832 0.819021 0.233118
Si Si5 0.918243 0.694440 0.430351
Si Si6 0.409447 0.321767 0.123654
Si Si7 0.164817 0.329634 0.073132
Si Si8 0.841123 0.920562 0.071244
O O1 0.876262 0.438131 0.500000
O O2 0.887232 0.505493 0.603565
O O3 0.000000 0.500000 0.560379
O O4 0.659881 0.546289 0.939486
O O5 0.563959 0.563959 0.000000
O O6 0.562068 0.437933 0.000000
O O7 0.604821 0.604821 0.670759
O O8 0.538903 0.677365 0.709954
O O9 0.632043 0.730748 0.619375
O O10 0.407485 0.814970 0.238227
O O11 0.263248 0.736753 0.228599
O O12 0.337522 0.868058 0.175205
O O13 0.910575 0.662746 0.500000
O O14 0.862112 0.724223 0.419648
O O15 0.000000 0.762614 0.420266
O O16 0.368452 0.368452 0.136406
O O17 0.351897 0.236828 0.113707
O O18 0.122079 0.244158 0.078931
O O19 0.176889 0.353778 0.000000
O O20 0.875442 0.875442 0.103464
O O21 0.861817 0.930909 0.000000
#
# Coordination Sequence:
#
# PCOD8328903 Si02
#       8
#    12  12  24  24  24  24  12  12
#     4   9  16  28  50  81 112 139 171 215 267 318
#     4   9  18  33  54  82 105 130 172 227 282 326
#     4  10  19  33  54  81 110 139 176 223 271 318
#     4  12  25  41  57  77 106 146 186 227 275 331
#     4   9  17  30  50  78 111 145 181 222 269 318
#     4  11  22  37  59  82 108 141 182 230 279 328
#     4  11  20  35  56  84 115 143 176 223 281 332
#     4   9  17  28  47  76 113 151 181 209 252 321
#
# _framework density 17.323053000000002
#
# number of rings (size 3 to 8) (size 9 to 14) (size 15 to 20)
#    0.000    1.833    2.500    2.750    0.000    4.667 
#    0.000    0.000    0.000    0.167    0.000    1.167 
#    0.000    0.000    0.000    0.000    0.000    0.000 
#
# Total GULP energy -1784508.051605 kJ/mol
# GULP energy per Si atom -12392.417025 kJ/mol
# Density = 1.728362 g / cm^3
# Si number density = 17.323053 Si / 1000 Ang^3
#
#
#
# Elastic Constant Matrix: (Units=GPa)
#
#
# Indices 1 2 3 4 5 6 
#
# 1 105.9335 64.6674 49.1022 0.0000 0.0000 0.0000
# 2 64.6674 105.9335 49.1022 0.0000 0.0000 0.0000
# 3 49.1022 49.1022 109.0638 0.0000 0.0000 0.0000
# 4 0.0000 0.0000 0.0000 26.6074 0.0000 0.0000
# 5 0.0000 0.0000 0.0000 0.0000 26.6074 0.0000
# 6 0.0000 0.0000 0.0000 0.0000 0.0000 20.6330
#
#
#
# Elastic Compliance Matrix: (Units=1/GPa)
#
#
# Indices 1 2 3 4 5 6 
#
# 1 0.016073 -0.008160 -0.003562 0.000000 0.000000 0.000000
# 2 -0.008160 0.016073 -0.003562 0.000000 0.000000 0.000000
# 3 -0.003562 -0.003562 0.012376 0.000000 0.000000 0.000000
# 4 0.000000 0.000000 0.000000 0.037584 0.000000 0.000000
# 5 0.000000 0.000000 0.000000 0.000000 0.037584 0.000000
# 6 0.000000 0.000000 0.000000 0.000000 0.000000 0.048466
#
#
# Mechanical properties :
#
#
# Convention : Reuss Voigt Hill
#
# Bulk Modulus (GPa) = 71.67404 71.85271 71.76338
# Shear Modulus (GPa) = 24.58512 25.30681 24.94596
#
# Velocity S-wave (km/s) = 3.77133 3.82629 3.79891
# Velocity P-wave (km/s) = 7.77359 7.81593 7.79479
#
# Compressibility (1/GPa) = 0.01395205
#
# Stress axis : x y z
#
# Youngs Moduli (GPa) = 62.21774 62.21774 80.79873
#
# Poissons Ratio (x) = 0.50772 0.28782
# Poissons Ratio (y) = 0.50772 0.28782
# Poissons Ratio (z) = 0.22163 0.22163
#
# Static dielectric constant tensor:
#      x y z
#    x 3.284430 0.000000 0.000000 
#    y 0.000000 3.284430 0.000000 
#    z 0.000000 0.000000 3.281420 
# 
# 
# High freq. dielectric constant tensor:
#      x y z
#    x 1.667070 0.000000 0.000000 
#    y 0.000000 1.667070 0.000000 
#    z 0.000000 0.000000 1.664020 
# 
# From -- ./inp_files/7694.got.cif
#   From: 2010.03.12/outbox.cif.g09.slc.cpg/sg191_4_cif.got.tgz:7694.got - 2010.04.01 12:09:02.
