data_PCOD8328266
_publ_section_title
;
Structure prediction by ZEFSAII (Michael W. Deem and Ramdas Pophale) SiO2 
 PCOD8328266
Probable space group: P 6/M M M
;
_chemical_formula_sum "Si O2"
_cell_formula_units_Z 132
_cell_length_a 20.224303
_cell_length_b 20.224303
_cell_length_c 28.648679
_cell_angle_alpha 90.000000
_cell_angle_beta 90.000000
_cell_angle_gamma 120.000000
_cell_volume 10148.044418
_symmetry_space_group_name_H-M "P 6/M M M"
_symmetry_group_IT_number 191
_symmetry_cell_setting 'hexagonal'
loop_
_space_group_symop_operation_xyz
x,y,z
x-y,x,z
-y,x-y,z
-x,-y,z
-x+y,-x,z
y,-x+y,z
x-y,-y,-z
-x,-x+y,-z
y,x,-z
-y,-x,-z
-x+y,y,-z
x,x-y,-z
-x,-y,-z
-x+y,-x,-z
y,-x+y,-z
x,y,-z
x-y,x,-z
-y,x-y,-z
-x+y,y,z
x,x-y,z
-y,-x,z
y,x,z
x-y,-y,z
-x,-x+y,z
loop_
_atom_site_type_symbol
_atom_site_label
_atom_site_fract_x
_atom_site_fract_y
_atom_site_fract_z
Si Si1 0.464219 0.085507 0.551592
Si Si2 0.621364 0.535725 0.728869
Si Si3 0.667770 0.178365 0.639242
Si Si4 0.378586 0.914204 0.090501
Si Si5 0.667108 0.177022 0.000000
Si Si6 0.332824 0.822848 0.819043
O O1 0.456256 0.114040 0.500000
O O2 0.541801 0.083602 0.554619
O O3 0.464733 0.142001 0.591159
O O4 0.394314 0.000000 0.560578
O O5 0.541019 0.458982 0.729630
O O6 0.607826 0.607826 0.730779
O O7 0.666457 0.540570 0.681722
O O8 0.670653 0.537673 0.773278
O O9 0.592531 0.185061 0.638902
O O10 0.737906 0.262095 0.645626
O O11 0.459171 0.918341 0.090364
O O12 0.330891 0.869185 0.045097
O O13 0.331686 0.870573 0.136433
O O14 0.392151 0.000000 0.090134
O O15 0.739669 0.260331 0.000000
O O16 0.593441 0.186882 0.000000
O O17 0.406734 0.813467 0.819018
O O18 0.260598 0.739403 0.820421
#
# Coordination Sequence:
#
# PCOD8328266 Si02
#       6
#    24  24  24  24  12  24
#     4   8  14  25  39  51  63  84 115 145 171 205
#     4   9  17  28  40  51  64  87 118 146 172 208
#     4  10  18  26  36  51  71  91 111 140 182 225
#     4   9  17  28  40  52  68  93 122 147 173 211
#     4  10  18  27  39  55  74  93 116 150 193 230
#     4  10  18  27  39  55  74  92 112 143 186 227
#
# _framework density 13.007433000000001
#
# number of rings (size 3 to 8) (size 9 to 14) (size 15 to 20)
#    0.000    2.727    0.000    3.455    0.000    5.818 
#    0.000    3.636    0.000    1.091    0.000    0.000 
#    0.000    0.000    0.000    0.000    0.000    0.000 
#
# Total GULP energy -1636413.842767 kJ/mol
# GULP energy per Si atom -12397.074566 kJ/mol
# Density = 1.297783 g / cm^3
# Si number density = 13.007433 Si / 1000 Ang^3
#
#
#
# Elastic Constant Matrix: (Units=GPa)
#
#
# Indices 1 2 3 4 5 6 
#
# 1 47.1863 25.2673 38.2403 0.0000 0.0000 0.0000
# 2 25.2673 47.1863 38.2403 0.0000 0.0000 0.0000
# 3 38.2403 38.2403 129.7944 0.0000 0.0000 0.0000
# 4 0.0000 0.0000 0.0000 15.8614 0.0000 0.0000
# 5 0.0000 0.0000 0.0000 0.0000 15.8614 0.0000
# 6 0.0000 0.0000 0.0000 0.0000 0.0000 10.9595
#
#
#
# Elastic Compliance Matrix: (Units=1/GPa)
#
#
# Indices 1 2 3 4 5 6 
#
# 1 0.032827 -0.012795 -0.005902 0.000000 0.000000 0.000000
# 2 -0.012795 0.032827 -0.005902 0.000000 0.000000 0.000000
# 3 -0.005902 -0.005902 0.011182 0.000000 0.000000 0.000000
# 4 0.000000 0.000000 0.000000 0.063046 0.000000 0.000000
# 5 0.000000 0.000000 0.000000 0.000000 0.063046 0.000000
# 6 0.000000 0.000000 0.000000 0.000000 0.000000 0.091245
#
#
# Mechanical properties :
#
#
# Convention : Reuss Voigt Hill
#
# Bulk Modulus (GPa) = 36.18151 47.51807 41.84979
# Shear Modulus (GPa) = 14.18099 16.69772 15.43936
#
# Velocity S-wave (km/s) = 3.30543 3.58677 3.44897
# Velocity P-wave (km/s) = 6.51493 7.33240 6.93571
#
# Compressibility (1/GPa) = 0.02763843
#
# Stress axis : x y z
#
# Youngs Moduli (GPa) = 30.46262 30.46262 89.42870
#
# Poissons Ratio (x) = 0.38978 0.52779
# Poissons Ratio (y) = 0.38978 0.52779
# Poissons Ratio (z) = 0.17978 0.17978
#
# Static dielectric constant tensor:
#      x y z
#    x 2.395390 0.000000 0.000000 
#    y 0.000000 2.395390 0.000000 
#    z 0.000000 0.000000 3.005350 
# 
# 
# High freq. dielectric constant tensor:
#      x y z
#    x 1.456810 0.000000 0.000000 
#    y 0.000000 1.456810 0.000000 
#    z 0.000000 0.000000 1.521240 
# 
# From -- ./inp_files/10539.got.cif
#   From: 2010.03.12/outbox.cif.g09.slc.cpg/sg191_6_cif.got.tgz:10539.got - 2010.04.01 12:09:02.
