data_PCOD8328310
_publ_section_title
;
Structure prediction by ZEFSAII (Michael W. Deem and Ramdas Pophale) SiO2 
 PCOD8328310
Probable space group: P 6/M M M
;
_chemical_formula_sum "Si O2"
_cell_formula_units_Z 132
_cell_length_a 18.837926
_cell_length_b 18.837926
_cell_length_c 27.371434
_cell_angle_alpha 90.000000
_cell_angle_beta 90.000000
_cell_angle_gamma 120.000000
_cell_volume 8411.904929
_symmetry_space_group_name_H-M "P 6/M M M"
_symmetry_group_IT_number 191
_symmetry_cell_setting 'hexagonal'
loop_
_space_group_symop_operation_xyz
x,y,z
x-y,x,z
-y,x-y,z
-x,-y,z
-x+y,-x,z
y,-x+y,z
x-y,-y,-z
-x,-x+y,-z
y,x,-z
-y,-x,-z
-x+y,y,-z
x,x-y,-z
-x,-y,-z
-x+y,-x,-z
y,-x+y,-z
x,y,-z
x-y,x,-z
-y,x-y,-z
-x+y,y,z
x,x-y,z
-y,-x,z
y,x,z
x-y,-y,z
-x,-x+y,z
loop_
_atom_site_type_symbol
_atom_site_label
_atom_site_fract_x
_atom_site_fract_y
_atom_site_fract_z
Si Si1 0.829468 0.333676 0.056703
Si Si2 0.252550 0.908136 0.116626
Si Si3 0.907208 0.655292 0.770133
Si Si4 0.495917 0.827158 0.597510
Si Si5 0.907114 0.538099 0.500000
Si Si6 0.904120 0.531980 0.303744
O O1 0.839972 0.419986 0.073946
O O2 0.736178 0.263823 0.066875
O O3 0.891981 0.316184 0.086718
O O4 0.851633 0.336306 0.000000
O O5 0.158245 0.841756 0.102574
O O6 0.269233 0.900975 0.173269
O O7 0.270446 0.000000 0.104455
O O8 0.843631 0.687262 0.757631
O O9 0.881190 0.571437 0.741180
O O10 0.000000 0.726375 0.756535
O O11 0.423404 0.846807 0.597203
O O12 0.460821 0.730411 0.597098
O O13 0.550132 0.866068 0.548820
O O14 0.546775 0.865722 0.647082
O O15 0.897143 0.448572 0.500000
O O16 0.000000 0.609353 0.500000
O O17 0.870314 0.435157 0.293027
O O18 0.000000 0.576636 0.312304
#
# Coordination Sequence:
#
# PCOD8328310 Si02
#       6
#    24  24  24  24  12  24
#     4   9  17  29  45  65  90 119 148 176 207 245
#     4   9  18  31  46  64  86 112 141 175 215 256
#     4   9  17  30  47  65  85 110 141 175 212 255
#     4  10  18  27  39  55  76 100 128 162 199 237
#     4   9  17  28  40  52  68  93 124 158 196 238
#     4   9  17  28  42  60  82 109 139 169 200 237
#
# _framework density 15.692045999999999
#
# number of rings (size 3 to 8) (size 9 to 14) (size 15 to 20)
#    0.000    2.818    0.000    1.727    0.000    4.364 
#    0.000    3.636    0.000    0.727    0.000    2.545 
#    0.000    0.000    0.000    4.545    0.000    4.727 
#
# Total GULP energy -1636215.699512 kJ/mol
# GULP energy per Si atom -12395.573481 kJ/mol
# Density = 1.565633 g / cm^3
# Si number density = 15.692046 Si / 1000 Ang^3
#
#
#
# Elastic Constant Matrix: (Units=GPa)
#
#
# Indices 1 2 3 4 5 6 
#
# 1 81.0831 45.4496 42.0996 0.0000 0.0000 0.0000
# 2 45.4496 81.0831 42.0996 0.0000 0.0000 0.0000
# 3 42.0996 42.0996 67.4089 0.0000 0.0000 0.0000
# 4 0.0000 0.0000 0.0000 19.0632 0.0000 0.0000
# 5 0.0000 0.0000 0.0000 0.0000 19.0632 0.0000
# 6 0.0000 0.0000 0.0000 0.0000 0.0000 17.8168
#
#
#
# Elastic Compliance Matrix: (Units=1/GPa)
#
#
# Indices 1 2 3 4 5 6 
#
# 1 0.020793 -0.007270 -0.008446 0.000000 0.000000 0.000000
# 2 -0.007270 0.020793 -0.008446 0.000000 0.000000 0.000000
# 3 -0.008446 -0.008446 0.025384 0.000000 0.000000 0.000000
# 4 0.000000 0.000000 0.000000 0.052457 0.000000 0.000000
# 5 0.000000 0.000000 0.000000 0.000000 0.052457 0.000000
# 6 0.000000 0.000000 0.000000 0.000000 0.000000 0.056127
#
#
# Mechanical properties :
#
#
# Convention : Reuss Voigt Hill
#
# Bulk Modulus (GPa) = 53.62633 54.31920 53.97276
# Shear Modulus (GPa) = 17.69589 17.85039 17.77314
#
# Velocity S-wave (km/s) = 3.36177 3.37641 3.36909
# Velocity P-wave (km/s) = 7.02261 7.06336 7.04301
#
# Compressibility (1/GPa) = 0.01864756
#
# Stress axis : x y z
#
# Youngs Moduli (GPa) = 48.09228 48.09228 39.39435
#
# Poissons Ratio (x) = 0.34964 0.33272
# Poissons Ratio (y) = 0.34964 0.33272
# Poissons Ratio (z) = 0.40618 0.40618
#
# Static dielectric constant tensor:
#      x y z
#    x 2.932390 0.000000 0.000000 
#    y 0.000000 2.932390 0.000000 
#    z 0.000000 0.000000 3.185950 
# 
# 
# High freq. dielectric constant tensor:
#      x y z
#    x 1.583050 0.000000 0.000000 
#    y 0.000000 1.583050 0.000000 
#    z 0.000000 0.000000 1.612290 
# 
# From -- ./inp_files/10455.got.cif
#   From: 2010.03.12/outbox.cif.g09.slc.cpg/sg191_6_cif.got.tgz:10455.got - 2010.04.01 12:09:02.
