data_PCOD8328271
_publ_section_title
;
Structure prediction by ZEFSAII (Michael W. Deem and Ramdas Pophale) SiO2 
 PCOD8328271
Probable space group: P 6/M M M
;
_chemical_formula_sum "Si O2"
_cell_formula_units_Z 132
_cell_length_a 18.423724
_cell_length_b 18.423724
_cell_length_c 28.469487
_cell_angle_alpha 90.000000
_cell_angle_beta 90.000000
_cell_angle_gamma 120.000000
_cell_volume 8368.837039
_symmetry_space_group_name_H-M "P 6/M M M"
_symmetry_group_IT_number 191
_symmetry_cell_setting 'hexagonal'
loop_
_space_group_symop_operation_xyz
x,y,z
x-y,x,z
-y,x-y,z
-x,-y,z
-x+y,-x,z
y,-x+y,z
x-y,-y,-z
-x,-x+y,-z
y,x,-z
-y,-x,-z
-x+y,y,-z
x,x-y,-z
-x,-y,-z
-x+y,-x,-z
y,-x+y,-z
x,y,-z
x-y,x,-z
-y,x-y,-z
-x+y,y,z
x,x-y,z
-y,-x,z
y,x,z
x-y,-y,z
-x,-x+y,z
loop_
_atom_site_type_symbol
_atom_site_label
_atom_site_fract_x
_atom_site_fract_y
_atom_site_fract_z
Si Si1 0.460053 0.092846 0.312718
Si Si2 0.669331 0.496299 0.594092
Si Si3 0.902477 0.263416 0.872005
Si Si4 0.366410 0.462438 0.500000
Si Si5 0.166966 0.666449 0.054304
Si Si6 0.099566 0.468881 0.210589
O O1 0.545422 0.090843 0.315745
O O2 0.451454 0.142376 0.357244
O O3 0.459968 0.133503 0.261979
O O4 0.380906 0.000000 0.316217
O O5 0.726990 0.453980 0.591633
O O6 0.572642 0.427359 0.594450
O O7 0.687591 0.553320 0.547561
O O8 0.837673 0.162328 0.875326
O O9 0.894640 0.311014 0.917435
O O10 0.872966 0.296785 0.827719
O O11 0.000000 0.285604 0.868206
O O12 0.394959 0.394959 0.500000
O O13 0.442567 0.557434 0.500000
O O14 0.154336 0.577168 0.071028
O O15 0.263479 0.736522 0.063064
O O16 0.142612 0.662692 0.000000
O O17 0.134549 0.567275 0.197879
O O18 0.000000 0.424071 0.213497
#
# Coordination Sequence:
#
# PCOD8328271 Si02
#       6
#    24  24  24  12  24  24
#     4   8  14  25  40  56  75 101 131 158 182 215
#     4  10  18  26  36  51  72  95 119 150 189 228
#     4  10  20  32  46  64  86 112 143 181 222 260
#     4   9  17  28  40  50  60  81 116 154 190 228
#     4   9  17  29  46  69  97 126 151 173 200 239
#     4   8  14  26  44  64  84 106 133 164 198 238
#
# _framework density 15.772800999999999
#
# number of rings (size 3 to 8) (size 9 to 14) (size 15 to 20)
#    0.000    3.000    0.000    2.818    0.000    5.091 
#    0.000    1.818    0.000    0.545    0.000    0.000 
#    0.000    0.000    0.000    4.545    0.000    0.000 
#
# Total GULP energy -1635252.509755 kJ/mol
# GULP energy per Si atom -12388.276589 kJ/mol
# Density = 1.573690 g / cm^3
# Si number density = 15.772801 Si / 1000 Ang^3
#
#
#
# Elastic Constant Matrix: (Units=GPa)
#
#
# Indices 1 2 3 4 5 6 
#
# 1 52.7626 25.6526 30.4325 0.0000 0.0000 0.0000
# 2 25.6526 52.7626 30.4325 0.0000 0.0000 0.0000
# 3 30.4325 30.4325 109.6999 0.0000 0.0000 0.0000
# 4 0.0000 0.0000 0.0000 10.6481 0.0000 0.0000
# 5 0.0000 0.0000 0.0000 0.0000 10.6481 0.0000
# 6 0.0000 0.0000 0.0000 0.0000 0.0000 13.5550
#
#
#
# Elastic Compliance Matrix: (Units=1/GPa)
#
#
# Indices 1 2 3 4 5 6 
#
# 1 0.026569 -0.010317 -0.004509 0.000000 0.000000 0.000000
# 2 -0.010317 0.026569 -0.004509 0.000000 0.000000 0.000000
# 3 -0.004509 -0.004509 0.011617 0.000000 0.000000 0.000000
# 4 0.000000 0.000000 0.000000 0.093914 0.000000 0.000000
# 5 0.000000 0.000000 0.000000 0.000000 0.093914 0.000000
# 6 0.000000 0.000000 0.000000 0.000000 0.000000 0.073773
#
#
# Mechanical properties :
#
#
# Convention : Reuss Voigt Hill
#
# Bulk Modulus (GPa) = 38.33298 43.14004 40.73651
# Shear Modulus (GPa) = 13.37894 15.55073 14.46484
#
# Velocity S-wave (km/s) = 2.91560 3.14334 3.03161
# Velocity P-wave (km/s) = 5.97413 6.37059 6.17554
#
# Compressibility (1/GPa) = 0.02608720
#
# Stress axis : x y z
#
# Youngs Moduli (GPa) = 37.63719 37.63719 86.07847
#
# Poissons Ratio (x) = 0.38831 0.38810
# Poissons Ratio (y) = 0.38831 0.38810
# Poissons Ratio (z) = 0.16969 0.16969
#
# Static dielectric constant tensor:
#      x y z
#    x 2.668910 0.000000 0.000000 
#    y 0.000000 2.668910 0.000000 
#    z 0.000000 0.000000 3.563690 
# 
# 
# High freq. dielectric constant tensor:
#      x y z
#    x 1.561490 0.000000 0.000000 
#    y 0.000000 1.561490 0.000000 
#    z 0.000000 0.000000 1.635120 
# 
# From -- ./inp_files/9784.got.cif
#   From: 2010.03.12/outbox.cif.g09.slc.cpg/sg191_5_cif.got.tgz:9784.got - 2010.04.01 12:09:02.
