data_PCOD8328965
_publ_section_title
;
Structure prediction by ZEFSAII (Michael W. Deem and Ramdas Pophale) SiO2 
 PCOD8328965
Probable space group: P 6/M M M
;
_chemical_formula_sum "Si O2"
_cell_formula_units_Z 132
_cell_length_a 17.502827
_cell_length_b 17.502827
_cell_length_c 28.335366
_cell_angle_alpha 90.000000
_cell_angle_beta 90.000000
_cell_angle_gamma 120.000000
_cell_volume 7517.541924
_symmetry_space_group_name_H-M "P 6/M M M"
_symmetry_group_IT_number 191
_symmetry_cell_setting 'hexagonal'
loop_
_space_group_symop_operation_xyz
x,y,z
x-y,x,z
-y,x-y,z
-x,-y,z
-x+y,-x,z
y,-x+y,z
x-y,-y,-z
-x,-x+y,-z
y,x,-z
-y,-x,-z
-x+y,y,-z
x,x-y,-z
-x,-y,-z
-x+y,-x,-z
y,-x+y,-z
x,y,-z
x-y,x,-z
-y,x-y,-z
-x+y,y,z
x,x-y,z
-y,-x,z
y,x,z
x-y,-y,z
-x,-x+y,z
loop_
_atom_site_type_symbol
_atom_site_label
_atom_site_fract_x
_atom_site_fract_y
_atom_site_fract_z
Si Si1 0.842625 0.331640 0.590416
Si Si2 0.511549 0.843439 0.227746
Si Si3 0.728082 0.629578 0.500000
Si Si4 0.630763 0.731052 0.859825
Si Si5 0.363107 0.467497 0.947929
Si Si6 0.371458 0.098901 0.680798
O O1 0.856897 0.428449 0.588517
O O2 0.738591 0.261410 0.590479
O O3 0.889245 0.318165 0.545514
O O4 0.888191 0.322342 0.637045
O O5 0.427602 0.855204 0.232264
O O6 0.480167 0.740084 0.225102
O O7 0.565362 0.894050 0.181310
O O8 0.573311 0.888366 0.272314
O O9 0.713616 0.713616 0.500000
O O10 0.832922 0.665844 0.500000
O O11 0.670250 0.835125 0.848794
O O12 0.711130 0.711130 0.864205
O O13 0.574750 0.711058 0.907989
O O14 0.427983 0.572018 0.938525
O O15 0.420939 0.420939 0.945666
O O16 0.319283 0.453849 0.000000
O O17 0.335212 0.167606 0.678577
O O18 0.287765 0.000000 0.679926
#
# Coordination Sequence:
#
# PCOD8328965 Si02
#       6
#    24  24  12  24  24  24
#     4  10  20  33  50  73 102 134 165 196 232 277
#     4  10  20  33  50  73 101 130 157 186 224 273
#     4  10  21  35  51  72  97 127 162 202 247 289
#     4  10  20  32  47  68  93 122 157 198 241 281
#     4   8  14  26  45  68  92 117 146 181 222 271
#     4  10  21  35  51  72  97 127 162 201 243 282
#
# _framework density 17.558931000000001
#
# number of rings (size 3 to 8) (size 9 to 14) (size 15 to 20)
#    0.000    2.364    0.000    3.364    0.000    5.091 
#    0.000    2.727    0.000    0.818    0.000    0.000 
#    0.000    8.727    0.000    4.545    0.000    1.091 
#
# Total GULP energy -1636565.251387 kJ/mol
# GULP energy per Si atom -12398.221601 kJ/mol
# Density = 1.751897 g / cm^3
# Si number density = 17.558931 Si / 1000 Ang^3
#
#
#
# Elastic Constant Matrix: (Units=GPa)
#
#
# Indices 1 2 3 4 5 6 
#
# 1 97.4701 68.5780 30.9895 0.0000 0.0000 0.0000
# 2 68.5780 97.4701 30.9895 0.0000 0.0000 0.0000
# 3 30.9895 30.9895 113.9386 0.0000 0.0000 0.0000
# 4 0.0000 0.0000 0.0000 19.6461 0.0000 0.0000
# 5 0.0000 0.0000 0.0000 0.0000 19.6461 0.0000
# 6 0.0000 0.0000 0.0000 0.0000 0.0000 14.4460
#
#
#
# Elastic Compliance Matrix: (Units=1/GPa)
#
#
# Indices 1 2 3 4 5 6 
#
# 1 0.020657 -0.013954 -0.001823 0.000000 0.000000 0.000000
# 2 -0.013954 0.020657 -0.001823 0.000000 0.000000 0.000000
# 3 -0.001823 -0.001823 0.009768 0.000000 0.000000 0.000000
# 4 0.000000 0.000000 0.000000 0.050901 0.000000 0.000000
# 5 0.000000 0.000000 0.000000 0.000000 0.050901 0.000000
# 6 0.000000 0.000000 0.000000 0.000000 0.000000 0.069223
#
#
# Mechanical properties :
#
#
# Convention : Reuss Voigt Hill
#
# Bulk Modulus (GPa) = 62.96541 63.33258 63.14899
# Shear Modulus (GPa) = 19.04022 22.63578 20.83800
#
# Velocity S-wave (km/s) = 3.29654 3.59434 3.44866
# Velocity P-wave (km/s) = 7.10119 7.30566 7.20415
#
# Compressibility (1/GPa) = 0.01588174
#
# Stress axis : x y z
#
# Youngs Moduli (GPa) = 48.40929 48.40929 102.37150
#
# Poissons Ratio (x) = 0.67552 0.18663
# Poissons Ratio (y) = 0.67552 0.18663
# Poissons Ratio (z) = 0.08825 0.08825
#
# Static dielectric constant tensor:
#      x y z
#    x 3.111040 0.000000 0.000000 
#    y 0.000000 3.111040 0.000000 
#    z 0.000000 0.000000 3.596220 
# 
# 
# High freq. dielectric constant tensor:
#      x y z
#    x 1.658540 0.000000 0.000000 
#    y 0.000000 1.658540 0.000000 
#    z 0.000000 0.000000 1.705440 
# 
# From -- ./inp_files/8718.got.cif
#   From: 2010.03.12/outbox.cif.g09.slc.cpg/sg191_5_cif.got.tgz:8718.got - 2010.04.01 12:09:02.
