data_PCOD8328978
_publ_section_title
;
Structure prediction by ZEFSAII (Michael W. Deem and Ramdas Pophale) SiO2 
 PCOD8328978
Probable space group: P 6/M M M
;
_chemical_formula_sum "Si O2"
_cell_formula_units_Z 144
_cell_length_a 20.914269
_cell_length_b 20.914269
_cell_length_c 23.143211
_cell_angle_alpha 90.000000
_cell_angle_beta 90.000000
_cell_angle_gamma 120.000000
_cell_volume 8766.770263
_symmetry_space_group_name_H-M "P 6/M M M"
_symmetry_group_IT_number 191
_symmetry_cell_setting 'hexagonal'
loop_
_space_group_symop_operation_xyz
x,y,z
x-y,x,z
-y,x-y,z
-x,-y,z
-x+y,-x,z
y,-x+y,z
x-y,-y,-z
-x,-x+y,-z
y,x,-z
-y,-x,-z
-x+y,y,-z
x,x-y,-z
-x,-y,-z
-x+y,-x,-z
y,-x+y,-z
x,y,-z
x-y,x,-z
-y,x-y,-z
-x+y,y,z
x,x-y,z
-y,-x,z
y,x,z
x-y,-y,z
-x,-x+y,z
loop_
_atom_site_type_symbol
_atom_site_label
_atom_site_fract_x
_atom_site_fract_y
_atom_site_fract_z
Si Si1 0.146827 0.438013 0.565322
Si Si2 0.476506 0.664091 0.261163
Si Si3 0.639412 0.085177 0.158841
Si Si4 0.082187 0.541094 0.567225
Si Si5 0.308622 0.082872 0.793390
Si Si6 0.456796 0.543205 0.063328
Si Si7 0.700959 0.617232 0.677365
O O1 0.118751 0.408725 0.500000
O O2 0.234749 0.469497 0.569410
O O3 0.129060 0.501805 0.583877
O O4 0.103988 0.370399 0.611775
O O5 0.484904 0.742452 0.246262
O O6 0.393278 0.606723 0.280721
O O7 0.494876 0.631688 0.205124
O O8 0.530852 0.670264 0.312169
O O9 0.721619 0.096122 0.162585
O O10 0.619529 0.108202 0.097437
O O11 0.580259 0.000000 0.173324
O O12 0.068796 0.534398 0.500000
O O13 0.000000 0.500000 0.596760
O O14 0.282004 0.141002 0.808929
O O15 0.335774 0.096272 0.726647
O O16 0.240024 0.000000 0.801121
O O17 0.500000 0.500000 0.053848
O O18 0.437320 0.562681 0.000000
O O19 0.634696 0.634696 0.680518
#
# Coordination Sequence:
#
# PCOD8328978 Si02
#       7
#    24  24  24  12  24  12  24
#     4  10  20  34  49  66  89 117 148 188 238 290
#     4  11  21  32  46  65  88 117 150 193 242 288
#     4   9  16  28  47  69  92 121 157 196 233 275
#     4   9  18  32  47  63  83 111 152 190 221 271
#     4   9  17  30  49  72  97 124 156 197 244 289
#     4   9  16  26  43  71 103 129 157 195 237 277
#     4  10  20  32  49  69  89 114 148 195 238 282
#
# _framework density 16.425661000000002
#
# number of rings (size 3 to 8) (size 9 to 14) (size 15 to 20)
#    0.000    2.333    0.833    5.167    1.167    2.000 
#    0.500    0.000    0.000    2.167    0.000    0.000 
#    0.000    0.000    0.000    0.000    0.000    0.000 
#
# Total GULP energy -1783919.241902 kJ/mol
# GULP energy per Si atom -12388.328069 kJ/mol
# Density = 1.638828 g / cm^3
# Si number density = 16.425661 Si / 1000 Ang^3
#
#
#
# Elastic Constant Matrix: (Units=GPa)
#
#
# Indices 1 2 3 4 5 6 
#
# 1 89.8897 52.4411 28.6743 0.0000 0.0000 0.0000
# 2 52.4411 89.8897 28.6743 0.0000 0.0000 0.0000
# 3 28.6743 28.6743 93.9205 0.0000 0.0000 0.0000
# 4 0.0000 0.0000 0.0000 11.7570 0.0000 0.0000
# 5 0.0000 0.0000 0.0000 0.0000 11.7570 0.0000
# 6 0.0000 0.0000 0.0000 0.0000 0.0000 18.7243
#
#
#
# Elastic Compliance Matrix: (Units=1/GPa)
#
#
# Indices 1 2 3 4 5 6 
#
# 1 0.017357 -0.009346 -0.002446 0.000000 0.000000 0.000000
# 2 -0.009346 0.017357 -0.002446 0.000000 0.000000 0.000000
# 3 -0.002446 -0.002446 0.012141 0.000000 0.000000 0.000000
# 4 0.000000 0.000000 0.000000 0.085056 0.000000 0.000000
# 5 0.000000 0.000000 0.000000 0.000000 0.085056 0.000000
# 6 0.000000 0.000000 0.000000 0.000000 0.000000 0.053406
#
#
# Mechanical properties :
#
#
# Convention : Reuss Voigt Hill
#
# Bulk Modulus (GPa) = 54.40710 54.80881 54.60795
# Shear Modulus (GPa) = 16.39477 19.37503 17.88490
#
# Velocity S-wave (km/s) = 3.16273 3.43820 3.30334
# Velocity P-wave (km/s) = 6.82146 7.01440 6.91860
#
# Compressibility (1/GPa) = 0.01837995
#
# Stress axis : x y z
#
# Youngs Moduli (GPa) = 57.61258 57.61258 82.36698
#
# Poissons Ratio (x) = 0.53844 0.20146
# Poissons Ratio (y) = 0.53844 0.20146
# Poissons Ratio (z) = 0.14092 0.14092
#
# Static dielectric constant tensor:
#      x y z
#    x 2.973430 0.000000 0.000000 
#    y 0.000000 2.973430 0.000000 
#    z 0.000000 0.000000 3.306230 
# 
# 
# High freq. dielectric constant tensor:
#      x y z
#    x 1.610300 0.000000 0.000000 
#    y 0.000000 1.610300 0.000000 
#    z 0.000000 0.000000 1.624480 
# 
# From -- ./inp_files/8936.got.cif
#   From: 2010.03.12/outbox.cif.g09.slc.cpg/sg191_5_cif.got.tgz:8936.got - 2010.04.01 12:09:02.
