data_PCOD8328409
_publ_section_title
;
Structure prediction by ZEFSAII (Michael W. Deem and Ramdas Pophale) SiO2 
 PCOD8328409
Probable space group: P 6/M M M
;
_chemical_formula_sum "Si O2"
_cell_formula_units_Z 120
_cell_length_a 27.341729
_cell_length_b 27.341729
_cell_length_c 11.734261
_cell_angle_alpha 90.000000
_cell_angle_beta 90.000000
_cell_angle_gamma 120.000000
_cell_volume 7596.933493
_symmetry_space_group_name_H-M "P 6/M M M"
_symmetry_group_IT_number 191
_symmetry_cell_setting 'hexagonal'
loop_
_space_group_symop_operation_xyz
x,y,z
x-y,x,z
-y,x-y,z
-x,-y,z
-x+y,-x,z
y,-x+y,z
x-y,-y,-z
-x,-x+y,-z
y,x,-z
-y,-x,-z
-x+y,y,-z
x,x-y,-z
-x,-y,-z
-x+y,-x,-z
y,-x+y,-z
x,y,-z
x-y,x,-z
-y,x-y,-z
-x+y,y,z
x,x-y,z
-y,-x,z
y,x,z
x-y,-y,z
-x,-x+y,z
loop_
_atom_site_type_symbol
_atom_site_label
_atom_site_fract_x
_atom_site_fract_y
_atom_site_fract_z
Si Si1 0.334947 0.064651 0.367803
Si Si2 0.935058 0.221860 0.000000
Si Si3 0.555241 0.333658 0.366507
Si Si4 0.738823 0.589159 0.000000
Si Si5 0.935766 0.172425 0.235286
Si Si6 0.440964 0.163371 0.248131
O O1 0.345795 0.080840 0.500000
O O2 0.283262 0.072446 0.327584
O O3 0.390955 0.105513 0.298246
O O4 0.319454 0.000000 0.346246
O O5 0.909442 0.263063 0.000000
O O6 0.917818 0.183331 0.888302
O O7 0.000000 0.266147 0.000000
O O8 0.544870 0.334575 0.500000
O O9 0.568762 0.284381 0.335241
O O10 0.607553 0.392448 0.324496
O O11 0.499414 0.324369 0.303012
O O12 0.709449 0.552884 0.887055
O O13 0.804800 0.609599 0.000000
O O14 0.893267 0.106734 0.265879
O O15 0.000000 0.184502 0.236193
O O16 0.428939 0.214470 0.275422
#
# Coordination Sequence:
#
# PCOD8328409 Si02
#       6
#    24  12  24  12  24  24
#     4  10  20  31  44  66  95 123 150 184 228 278
#     4  10  18  28  45  67  90 119 154 188 227 271
#     4   9  17  30  49  72  96 123 157 196 234 269
#     4  10  18  28  43  65  93 120 149 186 225 269
#     4  10  19  30  45  65  90 119 152 190 232 277
#     4  10  19  30  47  69  93 122 155 190 230 275
#
# _framework density 15.795847
#
# number of rings (size 3 to 8) (size 9 to 14) (size 15 to 20)
#    0.000    2.200    2.000    2.300    0.000    3.200 
#    0.000    0.500    0.000    0.800    0.000    4.200 
#    0.000    4.800    0.000    5.000    0.000    0.000 
#
# Total GULP energy -1487937.331787 kJ/mol
# GULP energy per Si atom -12399.477765 kJ/mol
# Density = 1.575989 g / cm^3
# Si number density = 15.795847 Si / 1000 Ang^3
#
#
#
# Elastic Constant Matrix: (Units=GPa)
#
#
# Indices 1 2 3 4 5 6 
#
# 1 93.1920 44.7809 34.8153 0.0000 0.0000 0.0000
# 2 44.7809 93.1920 34.8153 0.0000 0.0000 0.0000
# 3 34.8153 34.8153 84.1091 0.0000 0.0000 0.0000
# 4 0.0000 0.0000 0.0000 14.9690 0.0000 0.0000
# 5 0.0000 0.0000 0.0000 0.0000 14.9690 0.0000
# 6 0.0000 0.0000 0.0000 0.0000 0.0000 24.2056
#
#
#
# Elastic Compliance Matrix: (Units=1/GPa)
#
#
# Indices 1 2 3 4 5 6 
#
# 1 0.014909 -0.005747 -0.003792 0.000000 0.000000 0.000000
# 2 -0.005747 0.014909 -0.003792 0.000000 0.000000 0.000000
# 3 -0.003792 -0.003792 0.015029 0.000000 0.000000 0.000000
# 4 0.000000 0.000000 0.000000 0.066805 0.000000 0.000000
# 5 0.000000 0.000000 0.000000 0.000000 0.066805 0.000000
# 6 0.000000 0.000000 0.000000 0.000000 0.000000 0.041313
#
#
# Mechanical properties :
#
#
# Convention : Reuss Voigt Hill
#
# Bulk Modulus (GPa) = 54.99656 55.47959 55.23807
# Shear Modulus (GPa) = 19.80244 21.23415 20.51830
#
# Velocity S-wave (km/s) = 3.54453 3.67043 3.60803
# Velocity P-wave (km/s) = 7.18640 7.29122 7.23900
#
# Compressibility (1/GPa) = 0.01818296
#
# Stress axis : x y z
#
# Youngs Moduli (GPa) = 67.07347 67.07347 66.53883
#
# Poissons Ratio (x) = 0.38550 0.25233
# Poissons Ratio (y) = 0.38550 0.25233
# Poissons Ratio (z) = 0.25436 0.25436
#
# Static dielectric constant tensor:
#      x y z
#    x 2.902730 0.000000 0.000000 
#    y 0.000000 2.902730 0.000000 
#    z 0.000000 0.000000 3.256580 
# 
# 
# High freq. dielectric constant tensor:
#      x y z
#    x 1.589260 0.000000 0.000000 
#    y 0.000000 1.589260 0.000000 
#    z 0.000000 0.000000 1.616880 
# 
# From -- ./inp_files/3224.got.cif
#   From: 2010.03.12/outbox.cif.g09.slc.cpg/sg191_2_cif.got.tgz:3224.got - 2010.04.01 12:09:02.
