data_PCOD8328549
_publ_section_title
;
Structure prediction by ZEFSAII (Michael W. Deem and Ramdas Pophale) SiO2 
 PCOD8328549
Probable space group: P 6/M M M
;
_chemical_formula_sum "Si O2"
_cell_formula_units_Z 168
_cell_length_a 28.235420
_cell_length_b 28.235420
_cell_length_c 13.190663
_cell_angle_alpha 90.000000
_cell_angle_beta 90.000000
_cell_angle_gamma 120.000000
_cell_volume 9107.218601
_symmetry_space_group_name_H-M "P 6/M M M"
_symmetry_group_IT_number 191
_symmetry_cell_setting 'hexagonal'
loop_
_space_group_symop_operation_xyz
x,y,z
x-y,x,z
-y,x-y,z
-x,-y,z
-x+y,-x,z
y,-x+y,z
x-y,-y,-z
-x,-x+y,-z
y,x,-z
-y,-x,-z
-x+y,y,-z
x,x-y,-z
-x,-y,-z
-x+y,-x,-z
y,-x+y,-z
x,y,-z
x-y,x,-z
-y,x-y,-z
-x+y,y,z
x,x-y,z
-y,-x,z
y,x,z
x-y,-y,z
-x,-x+y,z
loop_
_atom_site_type_symbol
_atom_site_label
_atom_site_fract_x
_atom_site_fract_y
_atom_site_fract_z
Si Si1 0.062550 0.231091 0.381974
Si Si2 0.917675 0.595459 0.113740
Si Si3 0.445056 0.445056 0.881195
Si Si4 0.504460 0.307598 0.112227
Si Si5 0.421749 0.063093 0.385559
Si Si6 0.326969 0.062139 0.705482
Si Si7 0.842519 0.474750 0.308966
Si Si8 0.332284 0.555748 0.500000
O O1 0.063961 0.246226 0.500000
O O2 0.103682 0.207363 0.361222
O O3 0.088046 0.288370 0.316922
O O4 0.000000 0.185540 0.350678
O O5 0.852628 0.557156 0.117884
O O6 0.931315 0.648144 0.181752
O O7 0.947183 0.560938 0.149666
O O8 0.937324 0.617443 0.000000
O O9 0.500000 0.500000 0.834014
O O10 0.453436 0.453436 0.000000
O O11 0.503558 0.251779 0.133282
O O12 0.538771 0.349752 0.201364
O O13 0.529514 0.331300 0.000000
O O14 0.443968 0.072074 0.500000
O O15 0.376617 0.081914 0.374878
O O16 0.469407 0.099763 0.306895
O O17 0.397133 0.000000 0.351751
O O18 0.285235 0.000000 0.681374
O O19 0.856333 0.428167 0.334499
O O20 0.806067 0.478782 0.399132
O O21 0.387815 0.612186 0.500000
O O22 0.284981 0.569961 0.500000
#
# Coordination Sequence:
#
# PCOD8328549 Si02
#       8
#    24  24  12  24  24  24  24  12
#     4   9  18  33  54  81 112 146 186 229 271 317
#     4  10  19  32  51  75 105 142 180 222 270 321
#     4   9  18  32  50  76 109 143 179 217 263 322
#     4  10  22  40  58  76 103 138 175 221 276 327
#     4  10  20  35  53  75 111 153 182 211 259 320
#     4  10  18  31  50  73 106 146 183 220 259 308
#     4  11  22  37  58  83 108 134 173 222 271 329
#     4  10  21  38  59  81 103 127 159 211 279 342
#
# _framework density 18.446905000000001
#
# number of rings (size 3 to 8) (size 9 to 14) (size 15 to 20)
#    0.000    2.071    2.857    0.929    0.000    3.429 
#    0.000    2.143    0.000    0.429    0.000    1.000 
#    0.000    0.000    0.000    0.000    0.000    0.000 
#
# Total GULP energy -2081349.171368 kJ/mol
# GULP energy per Si atom -12388.983163 kJ/mol
# Density = 1.840492 g / cm^3
# Si number density = 18.446905 Si / 1000 Ang^3
#
#
#
# Elastic Constant Matrix: (Units=GPa)
#
#
# Indices 1 2 3 4 5 6 
#
# 1 83.7950 43.8888 31.7218 0.0000 0.0000 0.0000
# 2 43.8888 83.7950 31.7218 0.0000 0.0000 0.0000
# 3 31.7218 31.7218 106.8529 0.0000 0.0000 0.0000
# 4 0.0000 0.0000 0.0000 23.5839 0.0000 0.0000
# 5 0.0000 0.0000 0.0000 0.0000 23.5839 0.0000
# 6 0.0000 0.0000 0.0000 0.0000 0.0000 19.9531
#
#
#
# Elastic Compliance Matrix: (Units=1/GPa)
#
#
# Indices 1 2 3 4 5 6 
#
# 1 0.017123 -0.007936 -0.002727 0.000000 0.000000 0.000000
# 2 -0.007936 0.017123 -0.002727 0.000000 0.000000 0.000000
# 3 -0.002727 -0.002727 0.010978 0.000000 0.000000 0.000000
# 4 0.000000 0.000000 0.000000 0.042402 0.000000 0.000000
# 5 0.000000 0.000000 0.000000 0.000000 0.042402 0.000000
# 6 0.000000 0.000000 0.000000 0.000000 0.000000 0.050117
#
#
# Mechanical properties :
#
#
# Convention : Reuss Voigt Hill
#
# Bulk Modulus (GPa) = 54.22242 54.34530 54.28386
# Shear Modulus (GPa) = 23.46605 24.56488 24.01547
#
# Velocity S-wave (km/s) = 3.57050 3.65314 3.61206
# Velocity P-wave (km/s) = 6.81583 6.87883 6.84740
#
# Compressibility (1/GPa) = 0.01844256
#
# Stress axis : x y z
#
# Youngs Moduli (GPa) = 58.40136 58.40136 91.09098
#
# Poissons Ratio (x) = 0.46347 0.24844
# Poissons Ratio (y) = 0.46347 0.24844
# Poissons Ratio (z) = 0.15928 0.15928
#
# Static dielectric constant tensor:
#      x y z
#    x 3.327370 0.000000 0.000000 
#    y 0.000000 3.327370 0.000000 
#    z 0.000000 0.000000 3.667650 
# 
# 
# High freq. dielectric constant tensor:
#      x y z
#    x 1.694270 0.000000 0.000000 
#    y 0.000000 1.694270 0.000000 
#    z 0.000000 0.000000 1.726680 
# 
# From -- ./inp_files/5320.got.cif
#   From: 2010.03.12/outbox.cif.g09.slc.cpg/sg191_3_cif.got.tgz:5320.got - 2010.04.01 12:09:02.
