data_PCOD8328254
_publ_section_title
;
Structure prediction by ZEFSAII (Michael W. Deem and Ramdas Pophale) SiO2 
 PCOD8328254
Probable space group: P 6/M M M
;
_chemical_formula_sum "Si O2"
_cell_formula_units_Z 96
_cell_length_a 22.434576
_cell_length_b 22.434576
_cell_length_c 11.700736
_cell_angle_alpha 90.000000
_cell_angle_beta 90.000000
_cell_angle_gamma 120.000000
_cell_volume 5100.110015
_symmetry_space_group_name_H-M "P 6/M M M"
_symmetry_group_IT_number 191
_symmetry_cell_setting 'hexagonal'
loop_
_space_group_symop_operation_xyz
x,y,z
x-y,x,z
-y,x-y,z
-x,-y,z
-x+y,-x,z
y,-x+y,z
x-y,-y,-z
-x,-x+y,-z
y,x,-z
-y,-x,-z
-x+y,y,-z
x,x-y,-z
-x,-y,-z
-x+y,-x,-z
y,-x+y,-z
x,y,-z
x-y,x,-z
-y,x-y,-z
-x+y,y,z
x,x-y,z
-y,-x,z
y,x,z
x-y,-y,z
-x,-x+y,z
loop_
_atom_site_type_symbol
_atom_site_label
_atom_site_fract_x
_atom_site_fract_y
_atom_site_fract_z
Si Si1 0.359126 0.510306 0.000000
Si Si2 0.079337 0.673836 0.632506
Si Si3 0.666610 0.199215 0.751228
Si Si4 0.113253 0.750041 0.000000
Si Si5 0.923765 0.210820 0.234380
O O1 0.331134 0.529930 0.888347
O O2 0.328082 0.427807 0.000000
O O3 0.443626 0.556375 0.000000
O O4 0.097809 0.677877 0.500000
O O5 0.126407 0.652065 0.702693
O O6 0.094457 0.748789 0.671557
O O7 0.000000 0.617109 0.656697
O O8 0.606093 0.212185 0.707717
O O9 0.739231 0.260770 0.705529
O O10 0.077870 0.760244 0.889860
O O11 0.195320 0.804681 0.000000
O O12 0.870158 0.129843 0.244975
O O13 0.000000 0.222593 0.255089
#
# Coordination Sequence:
#
# PCOD8328254 Si02
#       5
#    12  24  24  12  24
#     4  10  20  33  54  82 111 144 180 219 268 321
#     4  10  22  39  58  79 104 139 182 228 278 323
#     4  11  22  37  57  81 110 144 181 222 268 323
#     4  10  17  31  55  80 105 137 178 223 266 308
#     4  10  20  34  56  83 111 141 176 220 268 321
#
# _framework density 18.823122000000001
#
# number of rings (size 3 to 8) (size 9 to 14) (size 15 to 20)
#    0.000    1.750    2.500    2.500    0.000    3.000 
#    0.000    3.125    0.000    5.750    0.000    0.000 
#    0.000    3.000    0.000    6.250    0.000    0.000 
#
# Total GULP energy -1190333.781739 kJ/mol
# GULP energy per Si atom -12399.310226 kJ/mol
# Density = 1.878028 g / cm^3
# Si number density = 18.823122 Si / 1000 Ang^3
#
#
#
# Elastic Constant Matrix: (Units=GPa)
#
#
# Indices 1 2 3 4 5 6 
#
# 1 110.8643 66.1424 37.6877 0.0000 0.0000 0.0000
# 2 66.1424 110.8643 37.6877 0.0000 0.0000 0.0000
# 3 37.6877 37.6877 83.5935 0.0000 0.0000 0.0000
# 4 0.0000 0.0000 0.0000 13.6504 0.0000 0.0000
# 5 0.0000 0.0000 0.0000 0.0000 13.6504 0.0000
# 6 0.0000 0.0000 0.0000 0.0000 0.0000 22.3609
#
#
#
# Elastic Compliance Matrix: (Units=1/GPa)
#
#
# Indices 1 2 3 4 5 6 
#
# 1 0.014676 -0.007684 -0.003152 0.000000 0.000000 0.000000
# 2 -0.007684 0.014676 -0.003152 0.000000 0.000000 0.000000
# 3 -0.003152 -0.003152 0.014805 0.000000 0.000000 0.000000
# 4 0.000000 0.000000 0.000000 0.073258 0.000000 0.000000
# 5 0.000000 0.000000 0.000000 0.000000 0.073258 0.000000
# 6 0.000000 0.000000 0.000000 0.000000 0.000000 0.044721
#
#
# Mechanical properties :
#
#
# Convention : Reuss Voigt Hill
#
# Bulk Modulus (GPa) = 61.80578 65.37310 63.58944
# Shear Modulus (GPa) = 18.60364 20.85264 19.72814
#
# Velocity S-wave (km/s) = 3.14720 3.33200 3.24092
# Velocity P-wave (km/s) = 6.79064 7.04334 6.91814
#
# Compressibility (1/GPa) = 0.01617972
#
# Stress axis : x y z
#
# Youngs Moduli (GPa) = 68.13789 68.13789 67.54482
#
# Poissons Ratio (x) = 0.52359 0.21292
# Poissons Ratio (y) = 0.52359 0.21292
# Poissons Ratio (z) = 0.21479 0.21479
#
# Static dielectric constant tensor:
#      x y z
#    x 3.344800 0.000000 0.000000 
#    y 0.000000 3.344800 0.000000 
#    z 0.000000 0.000000 3.503340 
# 
# 
# High freq. dielectric constant tensor:
#      x y z
#    x 1.717430 0.000000 0.000000 
#    y 0.000000 1.717430 0.000000 
#    z 0.000000 0.000000 1.735190 
# 
# From -- ./inp_files/2839.got.cif
#   From: 2010.03.12/outbox.cif.g09.slc.cpg/sg191_2_cif.got.tgz:2839.got - 2010.04.01 12:09:02.
