data_PCOD8328534
_publ_section_title
;
Structure prediction by ZEFSAII (Michael W. Deem and Ramdas Pophale) SiO2 
 PCOD8328534
Probable space group: P 6/M M M
;
_chemical_formula_sum "Si O2"
_cell_formula_units_Z 144
_cell_length_a 20.701127
_cell_length_b 20.701127
_cell_length_c 23.633992
_cell_angle_alpha 90.000000
_cell_angle_beta 90.000000
_cell_angle_gamma 120.000000
_cell_volume 8771.132978
_symmetry_space_group_name_H-M "P 6/M M M"
_symmetry_group_IT_number 191
_symmetry_cell_setting 'hexagonal'
loop_
_space_group_symop_operation_xyz
x,y,z
x-y,x,z
-y,x-y,z
-x,-y,z
-x+y,-x,z
y,-x+y,z
x-y,-y,-z
-x,-x+y,-z
y,x,-z
-y,-x,-z
-x+y,y,-z
x,x-y,-z
-x,-y,-z
-x+y,-x,-z
y,-x+y,-z
x,y,-z
x-y,x,-z
-y,x-y,-z
-x+y,y,z
x,x-y,z
-y,-x,z
y,x,z
x-y,-y,z
-x,-x+y,z
loop_
_atom_site_type_symbol
_atom_site_label
_atom_site_fract_x
_atom_site_fract_y
_atom_site_fract_z
Si Si1 0.915439 0.534248 0.000000
Si Si2 0.180335 0.515063 0.893253
Si Si3 0.664521 0.478930 0.320422
Si Si4 0.086097 0.439972 0.782735
Si Si5 0.698170 0.613616 0.385792
Si Si6 0.223994 0.918461 0.726255
Si Si7 0.772764 0.084546 0.500000
O O1 0.869291 0.535057 0.945512
O O2 0.921613 0.460807 0.000000
O O3 0.000000 0.605595 0.000000
O O4 0.255618 0.511236 0.888430
O O5 0.202549 0.601274 0.900625
O O6 0.129104 0.480893 0.838794
O O7 0.744700 0.489400 0.304160
O O8 0.607437 0.392564 0.333678
O O9 0.631959 0.504987 0.269248
O O10 0.669166 0.526396 0.376163
O O11 0.089437 0.364837 0.773470
O O12 0.000000 0.420532 0.785895
O O13 0.629173 0.629173 0.383521
O O14 0.756128 0.658715 0.336012
O O15 0.738410 0.636263 0.445698
O O16 0.138738 0.861263 0.740404
O O17 0.233190 0.000000 0.728708
O O18 0.861892 0.138108 0.500000
O O19 0.756460 0.000000 0.500000
#
# Coordination Sequence:
#
# PCOD8328534 Si02
#       7
#    12  24  24  24  24  24  12
#     4   9  19  34  50  66  86 115 152 192 226 260
#     4  11  21  33  48  67  93 122 153 187 227 275
#     4  11  21  33  48  67  93 121 150 185 231 284
#     4  10  20  32  49  69  89 117 152 192 231 267
#     4   9  18  31  49  69  88 114 149 191 230 265
#     4   9  16  28  45  66  90 115 145 180 222 267
#     4  10  18  30  49  72  95 119 151 189 230 272
#
# _framework density 16.417491999999999
#
# number of rings (size 3 to 8) (size 9 to 14) (size 15 to 20)
#    0.000    2.083    0.000    7.083    0.000    3.000 
#    0.000    2.917    0.000    1.750    0.000    1.167 
#    0.000    4.000    0.000    0.000    0.000    0.333 
#
# Total GULP energy -1785322.734264 kJ/mol
# GULP energy per Si atom -12398.074543 kJ/mol
# Density = 1.638012 g / cm^3
# Si number density = 16.417492 Si / 1000 Ang^3
#
#
#
# Elastic Constant Matrix: (Units=GPa)
#
#
# Indices 1 2 3 4 5 6 
#
# 1 94.5828 59.1131 30.8847 0.0000 0.0000 0.0000
# 2 59.1131 94.5828 30.8847 0.0000 0.0000 0.0000
# 3 30.8847 30.8847 81.5129 0.0000 0.0000 0.0000
# 4 0.0000 0.0000 0.0000 15.1629 0.0000 0.0000
# 5 0.0000 0.0000 0.0000 0.0000 15.1629 0.0000
# 6 0.0000 0.0000 0.0000 0.0000 0.0000 17.7348
#
#
#
# Elastic Compliance Matrix: (Units=1/GPa)
#
#
# Indices 1 2 3 4 5 6 
#
# 1 0.017934 -0.010259 -0.002908 0.000000 0.000000 0.000000
# 2 -0.010259 0.017934 -0.002908 0.000000 0.000000 0.000000
# 3 -0.002908 -0.002908 0.014472 0.000000 0.000000 0.000000
# 4 0.000000 0.000000 0.000000 0.065950 0.000000 0.000000
# 5 0.000000 0.000000 0.000000 0.000000 0.065950 0.000000
# 6 0.000000 0.000000 0.000000 0.000000 0.000000 0.056386
#
#
# Mechanical properties :
#
#
# Convention : Reuss Voigt Hill
#
# Bulk Modulus (GPa) = 54.97625 56.93817 55.95721
# Shear Modulus (GPa) = 18.06098 19.59854 18.82976
#
# Velocity S-wave (km/s) = 3.32038 3.45883 3.39031
# Velocity P-wave (km/s) = 6.94687 7.12096 7.03445
#
# Compressibility (1/GPa) = 0.01818967
#
# Stress axis : x y z
#
# Youngs Moduli (GPa) = 55.75971 55.75971 69.10056
#
# Poissons Ratio (x) = 0.57204 0.20095
# Poissons Ratio (y) = 0.57204 0.20095
# Poissons Ratio (z) = 0.16215 0.16215
#
# Static dielectric constant tensor:
#      x y z
#    x 3.085170 0.000000 0.000000 
#    y 0.000000 3.085170 0.000000 
#    z 0.000000 0.000000 3.133250 
# 
# 
# High freq. dielectric constant tensor:
#      x y z
#    x 1.623240 0.000000 0.000000 
#    y 0.000000 1.623240 0.000000 
#    z 0.000000 0.000000 1.628040 
# 
# From -- ./inp_files/7651.got.cif
#   From: 2010.03.12/outbox.cif.g09.slc.cpg/sg191_4_cif.got.tgz:7651.got - 2010.04.01 12:09:02.
