data_PCOD8328279
_publ_section_title
;
Structure prediction by ZEFSAII (Michael W. Deem and Ramdas Pophale) SiO2 
 PCOD8328279
Probable space group: P 6/M M M
;
_chemical_formula_sum "Si O2"
_cell_formula_units_Z 108
_cell_length_a 30.510854
_cell_length_b 30.510854
_cell_length_c 10.013162
_cell_angle_alpha 90.000000
_cell_angle_beta 90.000000
_cell_angle_gamma 120.000000
_cell_volume 8072.547362
_symmetry_space_group_name_H-M "P 6/M M M"
_symmetry_group_IT_number 191
_symmetry_cell_setting 'hexagonal'
loop_
_space_group_symop_operation_xyz
x,y,z
x-y,x,z
-y,x-y,z
-x,-y,z
-x+y,-x,z
y,-x+y,z
x-y,-y,-z
-x,-x+y,-z
y,x,-z
-y,-x,-z
-x+y,y,-z
x,x-y,-z
-x,-y,-z
-x+y,-x,-z
y,-x+y,-z
x,y,-z
x-y,x,-z
-y,x-y,-z
-x+y,y,z
x,x-y,z
-y,-x,z
y,x,z
x-y,-y,z
-x,-x+y,z
loop_
_atom_site_type_symbol
_atom_site_label
_atom_site_fract_x
_atom_site_fract_y
_atom_site_fract_z
Si Si1 0.159623 0.942284 0.500000
Si Si2 0.527518 0.055035 0.342520
Si Si3 0.059918 0.700270 0.154185
Si Si4 0.939507 0.563961 0.349521
Si Si5 0.944868 0.153327 0.000000
Si Si6 0.909111 0.190947 0.241016
O O1 0.098914 0.901087 0.500000
O O2 0.187969 0.934683 0.623548
O O3 0.169385 0.000000 0.500000
O O4 0.523568 0.047136 0.500000
O O5 0.587505 0.082863 0.305456
O O6 0.500000 0.000000 0.271806
O O7 0.079660 0.668995 0.240761
O O8 0.086333 0.755171 0.220926
O O9 0.000000 0.675971 0.165214
O O10 0.076590 0.702670 0.000000
O O11 0.921191 0.567518 0.500000
O O12 0.000000 0.591378 0.348956
O O13 0.939180 0.181261 0.873618
O O14 0.906241 0.093760 0.000000
O O15 0.000000 0.159043 0.000000
O O16 0.849797 0.150204 0.237154
#
# Coordination Sequence:
#
# PCOD8328279 Si02
#       6
#    12  12  24  24  12  24
#     4  10  20  32  46  63  80  97 119 151 193 239
#     4   7  10  20  35  49  69  93 123 157 183 209
#     4  10  18  26  37  54  76  97 122 157 193 226
#     4   8  14  23  36  53  70  95 126 155 186 216
#     4  10  18  30  46  61  76  97 123 149 185 235
#     4  10  20  31  43  58  77 101 126 154 191 235
#
# _framework density 13.378677
#
# number of rings (size 3 to 8) (size 9 to 14) (size 15 to 20)
#    0.000    2.778    1.111    3.333    1.556    0.000 
#    0.000    0.556    0.000    3.556    0.000    0.000 
#    0.000    5.333    0.000    0.000    0.000    0.889 
#
# Total GULP energy -1338185.753275 kJ/mol
# GULP energy per Si atom -12390.608827 kJ/mol
# Density = 1.334823 g / cm^3
# Si number density = 13.378677 Si / 1000 Ang^3
#
#
#
# Elastic Constant Matrix: (Units=GPa)
#
#
# Indices 1 2 3 4 5 6 
#
# 1 83.1841 40.4869 39.0787 0.0000 0.0000 0.0000
# 2 40.4869 83.1841 39.0787 0.0000 0.0000 0.0000
# 3 39.0787 39.0787 98.1185 0.0000 0.0000 0.0000
# 4 0.0000 0.0000 0.0000 20.9815 0.0000 0.0000
# 5 0.0000 0.0000 0.0000 0.0000 20.9815 0.0000
# 6 0.0000 0.0000 0.0000 0.0000 0.0000 21.3486
#
#
#
# Elastic Compliance Matrix: (Units=1/GPa)
#
#
# Indices 1 2 3 4 5 6 
#
# 1 0.017113 -0.006307 -0.004304 0.000000 0.000000 0.000000
# 2 -0.006307 0.017113 -0.004304 0.000000 0.000000 0.000000
# 3 -0.004304 -0.004304 0.013620 0.000000 0.000000 0.000000
# 4 0.000000 0.000000 0.000000 0.047661 0.000000 0.000000
# 5 0.000000 0.000000 0.000000 0.000000 0.047661 0.000000
# 6 0.000000 0.000000 0.000000 0.000000 0.000000 0.046841
#
#
# Mechanical properties :
#
#
# Convention : Reuss Voigt Hill
#
# Bulk Modulus (GPa) = 55.50428 55.75281 55.62854
# Shear Modulus (GPa) = 22.13904 22.38517 22.26211
#
# Velocity S-wave (km/s) = 4.07234 4.09491 4.08364
# Velocity P-wave (km/s) = 7.98054 8.00756 7.99407
#
# Compressibility (1/GPa) = 0.01801663
#
# Stress axis : x y z
#
# Youngs Moduli (GPa) = 58.43415 58.43415 73.42166
#
# Poissons Ratio (x) = 0.36857 0.31599
# Poissons Ratio (y) = 0.36857 0.31599
# Poissons Ratio (z) = 0.25149 0.25149
#
# Static dielectric constant tensor:
#      x y z
#    x 2.617310 0.000000 0.000000 
#    y 0.000000 2.617310 0.000000 
#    z 0.000000 0.000000 2.804870 
# 
# 
# High freq. dielectric constant tensor:
#      x y z
#    x 1.479850 0.000000 0.000000 
#    y 0.000000 1.479850 0.000000 
#    z 0.000000 0.000000 1.520000 
# 
# From -- ./inp_files/3157.got.cif
#   From: 2010.03.12/outbox.cif.g09.slc.cpg/sg191_2_cif.got.tgz:3157.got - 2010.04.01 12:09:02.
