data_PCOD8328118
_publ_section_title
;
Structure prediction by ZEFSAII (Michael W. Deem and Ramdas Pophale) SiO2 
 PCOD8328118
Probable space group: P -6 2 C
;
_chemical_formula_sum "Si O2"
_cell_formula_units_Z 52
_cell_length_a 12.700974
_cell_length_b 12.700974
_cell_length_c 20.668076
_cell_angle_alpha 90.000000
_cell_angle_beta 90.000000
_cell_angle_gamma 120.000000
_cell_volume 2887.385263
_symmetry_space_group_name_H-M "P -6 2 C"
_symmetry_group_IT_number 190
_symmetry_cell_setting 'hexagonal'
loop_
_space_group_symop_operation_xyz
x,y,z
-x+y,-x,1/2-z
-y,x-y,z
x,y,1/2-z
-x+y,-x,z
-y,x-y,1/2-z
x-y,-y,-z
-x,-x+y,-z
y,x,-z
y,x,1/2+z
x-y,-y,1/2+z
-x,-x+y,1/2+z
loop_
_atom_site_type_symbol
_atom_site_label
_atom_site_fract_x
_atom_site_fract_y
_atom_site_fract_z
Si Si1 0.757142 0.002574 0.676376
Si Si2 0.669481 0.084180 0.941677
Si Si3 0.666668 0.333333 0.675169
Si Si4 0.244678 0.003410 0.323535
Si Si5 0.669197 0.535772 0.594540
O O1 0.711665 0.999601 0.750000
O O2 0.746808 0.875832 0.656958
O O3 0.673400 0.027375 0.627622
O O4 0.897071 0.105802 0.668908
O O5 0.790433 0.215402 0.953068
O O6 0.546791 0.092523 0.944251
O O7 0.666706 0.000000 0.000000
O O8 0.666667 0.333334 0.750000
O O9 0.689854 0.463014 0.652021
O O10 0.289973 0.008860 0.250000
O O11 0.330587 0.981857 0.373068
#
# Coordination Sequence:
#
# PCOD8328118 Si02
#       5
#    12  12   4  12  12
#     4   9  18  32  52  77 104 131 162 201 247 298
#     4  10  21  36  52  73 101 132 170 213 253 299
#     4   9  15  27  48  75 102 126 163 218 259 294
#     4   9  16  29  50  76 102 129 160 199 248 300
#     4   9  19  32  49  73  99 132 171 207 253 303
#
# _framework density 18.009373
#
# number of rings (size 3 to 8) (size 9 to 14) (size 15 to 20)
#    0.000    2.769    0.000    1.615    0.000   10.154 
#    0.000    3.462    0.000    0.923    0.000    0.000 
#    0.000    0.000    0.000    0.000    0.000    0.000 
#
# Total GULP energy -644719.291886 kJ/mol
# GULP energy per Si atom -12398.447921 kJ/mol
# Density = 1.796838 g / cm^3
# Si number density = 18.009373 Si / 1000 Ang^3
#
#
#
# Elastic Constant Matrix: (Units=GPa)
#
#
# Indices 1 2 3 4 5 6 
#
# 1 69.6212 35.0569 32.3718 0.0000 0.0001 0.0009
# 2 35.0569 69.6223 32.3715 -0.0001 0.0000 -0.0006
# 3 32.3718 32.3715 80.1484 -0.0001 0.0000 -0.0002
# 4 0.0000 -0.0001 -0.0001 21.1149 0.0000 0.0001
# 5 0.0001 0.0000 0.0000 0.0000 21.1150 0.0000
# 6 0.0009 -0.0006 -0.0002 0.0001 0.0000 17.2797
#
#
#
# Elastic Compliance Matrix: (Units=1/GPa)
#
#
# Indices 1 2 3 4 5 6 
#
# 1 0.020833 -0.008099 -0.005143 0.000000 0.000000 -0.000001
# 2 -0.008099 0.020832 -0.005143 0.000000 0.000000 0.000001
# 3 -0.005143 -0.005143 0.016632 0.000000 0.000000 0.000000
# 4 0.000000 0.000000 0.000000 0.047360 0.000000 0.000000
# 5 0.000000 0.000000 0.000000 0.000000 0.047360 0.000000
# 6 -0.000001 0.000001 0.000000 0.000000 0.000000 0.057871
#
#
# Mechanical properties :
#
#
# Convention : Reuss Voigt Hill
#
# Bulk Modulus (GPa) = 46.45387 46.55472 46.50429
# Shear Modulus (GPa) = 19.62067 19.87472 19.74769
#
# Velocity S-wave (km/s) = 3.30429 3.32562 3.31497
# Velocity P-wave (km/s) = 6.35673 6.37595 6.36635
#
# Compressibility (1/GPa) = 0.02152673
#
# Stress axis : x y z
#
# Youngs Moduli (GPa) = 48.00104 48.00217 60.12673
#
# Poissons Ratio (x) = 0.38875 0.30926
# Poissons Ratio (y) = 0.38874 0.30924
# Poissons Ratio (z) = 0.24689 0.24688
#
# Static dielectric constant tensor:
#      x y z
#    x 3.421490 0.000000 0.000000 
#    y 0.000000 3.421520 0.000000 
#    z 0.000000 0.000000 3.119500 
# 
# 
# High freq. dielectric constant tensor:
#      x y z
#    x 1.692030 0.000000 0.000000 
#    y 0.000000 1.692030 0.000000 
#    z 0.000000 0.000000 1.680730 
# 
# From -- ./inp_files/2724.got.cif
#   From: 2010.06.25/outbox.cif.g09.slc.cpg/sg190_2_cif.got.tgz:2724.got - 2010.06.28 13:08:06.
