data_PCOD8328835
_publ_section_title
;
Structure prediction by ZEFSAII (Michael W. Deem and Ramdas Pophale) SiO2 
 PCOD8328835
Probable space group: P 6/M M M
;
_chemical_formula_sum "Si O2"
_cell_formula_units_Z 84
_cell_length_a 17.297260
_cell_length_b 17.297260
_cell_length_c 19.365404
_cell_angle_alpha 90.000000
_cell_angle_beta 90.000000
_cell_angle_gamma 120.000000
_cell_volume 5017.782358
_symmetry_space_group_name_H-M "P 6/M M M"
_symmetry_group_IT_number 191
_symmetry_cell_setting 'hexagonal'
loop_
_space_group_symop_operation_xyz
x,y,z
x-y,x,z
-y,x-y,z
-x,-y,z
-x+y,-x,z
y,-x+y,z
x-y,-y,-z
-x,-x+y,-z
y,x,-z
-y,-x,-z
-x+y,y,-z
x,x-y,-z
-x,-y,-z
-x+y,-x,-z
y,-x+y,-z
x,y,-z
x-y,x,-z
-y,x-y,-z
-x+y,y,z
x,x-y,z
-y,-x,z
y,x,z
x-y,-y,z
-x,-x+y,z
loop_
_atom_site_type_symbol
_atom_site_label
_atom_site_fract_x
_atom_site_fract_y
_atom_site_fract_z
Si Si1 0.353971 0.353971 0.103887
Si Si2 0.487420 0.158111 0.352977
Si Si3 0.481878 0.147507 0.000000
Si Si4 0.894878 0.534853 0.500000
Si Si5 0.408605 0.000000 0.259226
Si Si6 0.000000 0.825023 0.918001
O O1 0.340001 0.429617 0.066887
O O2 0.383864 0.383864 0.180792
O O3 0.262027 0.262027 0.108149
O O4 0.576205 0.152410 0.355149
O O5 0.509248 0.254624 0.326684
O O6 0.443451 0.140572 0.429651
O O7 0.418397 0.086382 0.298786
O O8 0.583145 0.166289 0.000000
O O9 0.483041 0.241521 0.000000
O O10 0.859301 0.429651 0.500000
O O11 0.000000 0.590470 0.500000
O O12 0.500000 0.000000 0.263245
O O13 0.912656 0.825312 0.889515
O O14 0.000000 0.824756 0.000000
#
# Coordination Sequence:
#
# PCOD8328835 Si02
#       6
#    12  24  12  12  12  12
#     4  11  21  36  57  76 101 134 175 210 248 312
#     4  10  19  31  49  72  99 131 169 209 249 293
#     4  11  22  37  56  78 102 131 170 217 264 306
#     4   9  15  28  48  69  96 128 165 204 247 293
#     4  10  21  36  50  69  99 136 169 205 252 296
#     4  10  19  33  54  81 106 126 152 195 250 305
#
# _framework density 16.740463999999999
#
# number of rings (size 3 to 8) (size 9 to 14) (size 15 to 20)
#    0.000    1.857    2.857    3.571    0.000    2.857 
#    0.000    1.429    0.000    3.429    0.000    0.000 
#    0.000    0.000    0.000    0.000    0.000    1.857 
#
# Total GULP energy -1041229.524989 kJ/mol
# GULP energy per Si atom -12395.589583 kJ/mol
# Density = 1.670236 g / cm^3
# Si number density = 16.740464 Si / 1000 Ang^3
#
#
#
# Elastic Constant Matrix: (Units=GPa)
#
#
# Indices 1 2 3 4 5 6 
#
# 1 83.5034 15.7086 35.1184 0.0000 0.0000 0.0000
# 2 15.7086 83.5034 35.1184 0.0000 0.0000 0.0000
# 3 35.1184 35.1184 123.6862 0.0000 0.0000 0.0000
# 4 0.0000 0.0000 0.0000 0.3823 0.0000 0.0000
# 5 0.0000 0.0000 0.0000 0.0000 0.3823 0.0000
# 6 0.0000 0.0000 0.0000 0.0000 0.0000 33.8974
#
#
#
# Elastic Compliance Matrix: (Units=1/GPa)
#
#
# Indices 1 2 3 4 5 6 
#
# 1 0.013683 -0.001068 -0.003582 0.000000 0.000000 0.000000
# 2 -0.001068 0.013683 -0.003582 0.000000 0.000000 0.000000
# 3 -0.003582 -0.003582 0.010119 0.000000 0.000000 0.000000
# 4 0.000000 0.000000 0.000000 2.615748 0.000000 0.000000
# 5 0.000000 0.000000 0.000000 0.000000 2.615747 0.000000
# 6 0.000000 0.000000 0.000000 0.000000 0.000000 0.029501
#
#
# Mechanical properties :
#
#
# Convention : Reuss Voigt Hill
#
# Bulk Modulus (GPa) = 47.56932 51.39819 49.48375
# Shear Modulus (GPa) = 0.93951 20.58223 10.76087
#
# Velocity S-wave (km/s) = 0.74996 3.51021 2.53811
# Velocity P-wave (km/s) = 5.40623 6.87011 6.18166
#
# Compressibility (1/GPa) = 0.02102195
#
# Stress axis : x y z
#
# Youngs Moduli (GPa) = 73.08450 73.08450 98.82424
#
# Poissons Ratio (x) = 0.07803 0.35397
# Poissons Ratio (y) = 0.07803 0.35397
# Poissons Ratio (z) = 0.26178 0.26178
#
# Static dielectric constant tensor:
#      x y z
#    x 3.207090 0.000000 0.000000 
#    y 0.000000 3.207090 0.000000 
#    z 0.000000 0.000000 3.083340 
# 
# 
# High freq. dielectric constant tensor:
#      x y z
#    x 1.636470 0.000000 0.000000 
#    y 0.000000 1.636470 0.000000 
#    z 0.000000 0.000000 1.640340 
# 
# From -- ./inp_files/4045.got.cif
#   From: 2010.03.12/outbox.cif.g09.slc.cpg/sg191_3_cif.got.tgz:4045.got - 2010.04.01 12:09:02.
