data_PCOD8328672
_publ_section_title
;
Structure prediction by ZEFSAII (Michael W. Deem and Ramdas Pophale) SiO2 
 PCOD8328672
Probable space group: P 6/M M M
;
_chemical_formula_sum "Si O2"
_cell_formula_units_Z 108
_cell_length_a 31.395742
_cell_length_b 31.395742
_cell_length_c 7.808602
_cell_angle_alpha 90.000000
_cell_angle_beta 90.000000
_cell_angle_gamma 120.000000
_cell_volume 6665.694762
_symmetry_space_group_name_H-M "P 6/M M M"
_symmetry_group_IT_number 191
_symmetry_cell_setting 'hexagonal'
loop_
_space_group_symop_operation_xyz
x,y,z
x-y,x,z
-y,x-y,z
-x,-y,z
-x+y,-x,z
y,-x+y,z
x-y,-y,-z
-x,-x+y,-z
y,x,-z
-y,-x,-z
-x+y,y,-z
x,x-y,-z
-x,-y,-z
-x+y,-x,-z
y,-x+y,-z
x,y,-z
x-y,x,-z
-y,x-y,-z
-x+y,y,z
x,x-y,z
-y,-x,z
y,x,z
x-y,-y,z
-x,-x+y,z
loop_
_atom_site_type_symbol
_atom_site_label
_atom_site_fract_x
_atom_site_fract_y
_atom_site_fract_z
Si Si1 0.147936 0.390640 0.202815
Si Si2 0.203793 0.149167 0.297813
Si Si3 0.500613 0.699579 0.190837
Si Si4 0.566352 0.232460 0.500000
Si Si5 0.946154 0.702399 0.802146
O O1 0.192289 0.384578 0.282263
O O2 0.156090 0.444713 0.245633
O O3 0.095988 0.348608 0.282246
O O4 0.148065 0.384253 0.000000
O O5 0.209989 0.153799 0.500000
O O6 0.188288 0.094144 0.235582
O O7 0.162168 0.162168 0.237082
O O8 0.256160 0.186941 0.216515
O O9 0.501438 0.750719 0.186910
O O10 0.461703 0.663368 0.330319
O O11 0.486551 0.675543 0.000000
O O12 0.620648 0.241296 0.500000
O O13 0.569892 0.284946 0.500000
O O14 0.000000 0.721314 0.715343
O O15 0.950152 0.692850 0.000000
#
# Coordination Sequence:
#
# PCOD8328672 Si02
#       5
#    24  24  24  12  24
#     4   8  13  23  39  56  78 109 138 164 198 240
#     4   9  17  28  39  52  73 101 131 164 204 249
#     4   8  15  28  43  59  82 112 144 177 211 247
#     4  10  19  30  44  64  89 115 143 175 210 247
#     4   9  16  25  39  60  84 107 131 162 200 245
#
# _framework density 16.202362999999998
#
# number of rings (size 3 to 8) (size 9 to 14) (size 15 to 20)
#    0.000    3.333    0.000    2.111    0.000    1.778 
#    2.000    0.000    0.000    1.556    0.000    1.556 
#    0.000    1.778    0.000   14.222    0.000    5.778 
#
# Total GULP energy -1338125.624735 kJ/mol
# GULP energy per Si atom -12390.052081 kJ/mol
# Density = 1.616549 g / cm^3
# Si number density = 16.202363 Si / 1000 Ang^3
#
#
#
# Elastic Constant Matrix: (Units=GPa)
#
#
# Indices 1 2 3 4 5 6 
#
# 1 89.2399 40.6122 28.3364 0.0000 0.0000 0.0000
# 2 40.6122 89.2399 28.3364 0.0000 0.0000 0.0000
# 3 28.3364 28.3364 48.4469 0.0000 0.0000 0.0000
# 4 0.0000 0.0000 0.0000 14.6243 0.0000 0.0000
# 5 0.0000 0.0000 0.0000 0.0000 14.6243 0.0000
# 6 0.0000 0.0000 0.0000 0.0000 0.0000 24.3138
#
#
#
# Elastic Compliance Matrix: (Units=1/GPa)
#
#
# Indices 1 2 3 4 5 6 
#
# 1 0.015453 -0.005112 -0.006048 0.000000 0.000000 0.000000
# 2 -0.005112 0.015453 -0.006048 0.000000 0.000000 0.000000
# 3 -0.006048 -0.006048 0.027716 0.000000 0.000000 0.000000
# 4 0.000000 0.000000 0.000000 0.068379 0.000000 0.000000
# 5 0.000000 0.000000 0.000000 0.000000 0.068379 0.000000
# 6 0.000000 0.000000 0.000000 0.000000 0.000000 0.041129
#
#
# Mechanical properties :
#
#
# Convention : Reuss Voigt Hill
#
# Bulk Modulus (GPa) = 41.31406 46.83295 44.07351
# Shear Modulus (GPa) = 17.92151 19.35526 18.63838
#
# Velocity S-wave (km/s) = 3.32942 3.46004 3.39536
# Velocity P-wave (km/s) = 6.35092 6.70300 6.52934
#
# Compressibility (1/GPa) = 0.02420483
#
# Stress axis : x y z
#
# Youngs Moduli (GPa) = 64.71401 64.71401 36.07978
#
# Poissons Ratio (x) = 0.33081 0.21822
# Poissons Ratio (y) = 0.33081 0.21822
# Poissons Ratio (z) = 0.39141 0.39141
#
# Static dielectric constant tensor:
#      x y z
#    x 3.123590 0.000000 0.000000 
#    y 0.000000 3.123590 0.000000 
#    z 0.000000 0.000000 3.048700 
# 
# 
# High freq. dielectric constant tensor:
#      x y z
#    x 1.596480 0.000000 0.000000 
#    y 0.000000 1.596480 0.000000 
#    z 0.000000 0.000000 1.615030 
# 
# From -- ./inp_files/1742.got.cif
#   From: 2010.03.12/outbox.cif.g09.slc.cpg/sg191_1_cif.got.tgz:1742.got - 2010.04.01 12:09:02.
