data_PCOD8328757
_publ_section_title
;
Structure prediction by ZEFSAII (Michael W. Deem and Ramdas Pophale) SiO2 
 PCOD8328757
Probable space group: P 6/M M M
;
_chemical_formula_sum "Si O2"
_cell_formula_units_Z 192
_cell_length_a 23.332892
_cell_length_b 23.332892
_cell_length_c 22.190181
_cell_angle_alpha 90.000000
_cell_angle_beta 90.000000
_cell_angle_gamma 120.000000
_cell_volume 10462.334909
_symmetry_space_group_name_H-M "P 6/M M M"
_symmetry_group_IT_number 191
_symmetry_cell_setting 'hexagonal'
loop_
_space_group_symop_operation_xyz
x,y,z
x-y,x,z
-y,x-y,z
-x,-y,z
-x+y,-x,z
y,-x+y,z
x-y,-y,-z
-x,-x+y,-z
y,x,-z
-y,-x,-z
-x+y,y,-z
x,x-y,-z
-x,-y,-z
-x+y,-x,-z
y,-x+y,-z
x,y,-z
x-y,x,-z
-y,x-y,-z
-x+y,y,z
x,x-y,z
-y,-x,z
y,x,z
x-y,-y,z
-x,-x+y,z
loop_
_atom_site_type_symbol
_atom_site_label
_atom_site_fract_x
_atom_site_fract_y
_atom_site_fract_z
Si Si1 0.332432 0.800636 0.863214
Si Si2 0.805245 0.732427 0.233057
Si Si3 0.704270 0.629723 0.691178
Si Si4 0.076321 0.664291 0.931730
Si Si5 0.734752 0.603748 0.433643
Si Si6 0.074399 0.280948 0.094050
Si Si7 0.483650 0.643641 0.729095
Si Si8 0.333078 0.792192 0.600256
O O1 0.397188 0.794376 0.878808
O O2 0.265447 0.734554 0.886449
O O3 0.341256 0.868461 0.892165
O O4 0.323878 0.803353 0.791377
O O5 0.884231 0.768462 0.239996
O O6 0.785020 0.785020 0.255905
O O7 0.773397 0.665833 0.273197
O O8 0.783797 0.709940 0.165160
O O9 0.665911 0.665911 0.712144
O O10 0.718306 0.639541 0.619502
O O11 0.658626 0.556427 0.714562
O O12 0.090863 0.739611 0.933101
O O13 0.000000 0.614861 0.908594
O O14 0.083061 0.644903 0.000000
O O15 0.730539 0.630751 0.500000
O O16 0.806946 0.613891 0.421907
O O17 0.680393 0.526734 0.430022
O O18 0.131887 0.263774 0.074395
O O19 0.000000 0.223052 0.073156
O O20 0.435746 0.564255 0.732662
O O21 0.462676 0.673084 0.673088
O O22 0.405230 0.810460 0.577888
O O23 0.280180 0.719821 0.576460
#
# Coordination Sequence:
#
# PCOD8328757 Si02
#       8
#    24  24  24  24  24  24  24  24
#     4  11  23  38  57  80 106 135 166 203 249 303
#     4   9  17  29  47  72  99 125 154 191 235 281
#     4  10  19  30  47  70  93 119 155 198 242 287
#     4  10  22  39  57  77 101 132 172 214 254 296
#     4   9  18  31  44  59  84 119 154 188 231 284
#     4   9  17  30  50  76 105 135 168 208 252 297
#     4   9  19  33  48  69  96 125 156 192 236 286
#     4   9  16  27  44  64  85 110 143 185 230 274
#
# _framework density 18.351542999999999
#
# number of rings (size 3 to 8) (size 9 to 14) (size 15 to 20)
#    0.000    2.500    0.000    2.125    0.000    6.250 
#    0.000    3.125    0.000    1.750    0.000    5.250 
#    0.000    0.000    0.000    3.125    0.000    3.250 
#
# Total GULP energy -2378797.684336 kJ/mol
# GULP energy per Si atom -12389.571273 kJ/mol
# Density = 1.830977 g / cm^3
# Si number density = 18.351543 Si / 1000 Ang^3
#
#
#
# Elastic Constant Matrix: (Units=GPa)
#
#
# Indices 1 2 3 4 5 6 
#
# 1 85.5131 42.6798 24.8368 0.0000 0.0000 0.0000
# 2 42.6798 85.5131 24.8368 0.0000 0.0000 0.0000
# 3 24.8368 24.8368 63.6332 0.0000 0.0000 0.0000
# 4 0.0000 0.0000 0.0000 14.4863 0.0000 0.0000
# 5 0.0000 0.0000 0.0000 0.0000 14.4863 0.0000
# 6 0.0000 0.0000 0.0000 0.0000 0.0000 21.4166
#
#
#
# Elastic Compliance Matrix: (Units=1/GPa)
#
#
# Indices 1 2 3 4 5 6 
#
# 1 0.016269 -0.007078 -0.003587 0.000000 0.000000 0.000000
# 2 -0.007078 0.016269 -0.003587 0.000000 0.000000 0.000000
# 3 -0.003587 -0.003587 0.018515 0.000000 0.000000 0.000000
# 4 0.000000 0.000000 0.000000 0.069031 0.000000 0.000000
# 5 0.000000 0.000000 0.000000 0.000000 0.069031 0.000000
# 6 0.000000 0.000000 0.000000 0.000000 0.000000 0.046693
#
#
# Mechanical properties :
#
#
# Convention : Reuss Voigt Hill
#
# Bulk Modulus (GPa) = 44.35013 46.59624 45.47318
# Shear Modulus (GPa) = 18.39404 19.56491 18.97948
#
# Velocity S-wave (km/s) = 3.16937 3.26869 3.21941
# Velocity P-wave (km/s) = 6.13292 6.30014 6.21709
#
# Compressibility (1/GPa) = 0.02254785
#
# Stress axis : x y z
#
# Youngs Moduli (GPa) = 61.46825 61.46825 54.00919
#
# Poissons Ratio (x) = 0.43506 0.19375
# Poissons Ratio (y) = 0.43506 0.19375
# Poissons Ratio (z) = 0.22050 0.22050
#
# Static dielectric constant tensor:
#      x y z
#    x 3.359280 0.000000 0.000000 
#    y 0.000000 3.359280 0.000000 
#    z 0.000000 0.000000 3.476060 
# 
# 
# High freq. dielectric constant tensor:
#      x y z
#    x 1.696990 0.000000 0.000000 
#    y 0.000000 1.696990 0.000000 
#    z 0.000000 0.000000 1.715250 
# 
# From -- ./inp_files/8142.got.cif
#   From: 2010.03.12/outbox.cif.g09.slc.cpg/sg191_5_cif.got.tgz:8142.got - 2010.04.01 12:09:02.
