data_PCOD8328960
_publ_section_title
;
Structure prediction by ZEFSAII (Michael W. Deem and Ramdas Pophale) SiO2 
 PCOD8328960
Probable space group: P 6/M M M
;
_chemical_formula_sum "Si O2"
_cell_formula_units_Z 168
_cell_length_a 17.588758
_cell_length_b 17.588758
_cell_length_c 35.834086
_cell_angle_alpha 90.000000
_cell_angle_beta 90.000000
_cell_angle_gamma 120.000000
_cell_volume 9600.576455
_symmetry_space_group_name_H-M "P 6/M M M"
_symmetry_group_IT_number 191
_symmetry_cell_setting 'hexagonal'
loop_
_space_group_symop_operation_xyz
x,y,z
x-y,x,z
-y,x-y,z
-x,-y,z
-x+y,-x,z
y,-x+y,z
x-y,-y,-z
-x,-x+y,-z
y,x,-z
-y,-x,-z
-x+y,y,-z
x,x-y,-z
-x,-y,-z
-x+y,-x,-z
y,-x+y,-z
x,y,-z
x-y,x,-z
-y,x-y,-z
-x+y,y,z
x,x-y,z
-y,-x,z
y,x,z
x-y,-y,z
-x,-x+y,z
loop_
_atom_site_type_symbol
_atom_site_label
_atom_site_fract_x
_atom_site_fract_y
_atom_site_fract_z
Si Si1 0.636222 0.532338 0.541221
Si Si2 0.333227 0.840978 0.042384
Si Si3 0.332137 0.844031 0.320028
Si Si4 0.629154 0.729424 0.249258
Si Si5 0.268447 0.899762 0.610537
Si Si6 0.267704 0.366262 0.891869
Si Si7 0.532541 0.896477 0.177791
O O1 0.679329 0.545033 0.500000
O O2 0.571555 0.428446 0.549055
O O3 0.578771 0.578771 0.542856
O O4 0.710702 0.575282 0.572496
O O5 0.426689 0.853377 0.053599
O O6 0.260937 0.739064 0.047463
O O7 0.312651 0.901235 0.069146
O O8 0.334026 0.871992 0.000000
O O9 0.426354 0.852707 0.318321
O O10 0.257977 0.742024 0.320005
O O11 0.322145 0.894427 0.284919
O O12 0.326831 0.892671 0.356894
O O13 0.669142 0.834571 0.253728
O O14 0.708736 0.708736 0.244548
O O15 0.564563 0.698162 0.213817
O O16 0.164481 0.835520 0.618654
O O17 0.289074 0.000000 0.607491
O O18 0.162660 0.325320 0.893715
O O19 0.287545 0.287545 0.883870
O O20 0.305742 0.439529 0.859514
O O21 0.426668 0.853335 0.178631
O O22 0.575745 0.000000 0.177946
#
# Coordination Sequence:
#
# PCOD8328960 Si02
#       7
#    24  24  24  24  24  24  24
#     4   8  14  26  45  68  92 117 146 181 222 271
#     4   9  17  29  46  69  97 127 156 186 223 270
#     4  10  20  33  50  73 100 127 153 184 226 277
#     4  10  20  33  50  72  97 127 163 202 241 278
#     4  10  20  32  47  68  93 122 157 197 238 278
#     4  10  20  33  49  69  93 122 157 197 239 280
#     4   9  17  30  49  72  96 121 150 184 223 272
#
# _framework density 17.498947999999999
#
# number of rings (size 3 to 8) (size 9 to 14) (size 15 to 20)
#    0.000    2.571    0.000    2.857    0.000    4.286 
#    0.000    0.714    0.000    4.714    0.000    0.000 
#    0.000    6.857    0.000    7.143    0.000    0.571 
#
# Total GULP energy -2082714.589654 kJ/mol
# GULP energy per Si atom -12397.110653 kJ/mol
# Density = 1.745912 g / cm^3
# Si number density = 17.498948 Si / 1000 Ang^3
#
#
#
# Elastic Constant Matrix: (Units=GPa)
#
#
# Indices 1 2 3 4 5 6 
#
# 1 83.6748 52.8331 31.6170 0.0000 0.0000 0.0000
# 2 52.8331 83.6748 31.6170 0.0000 0.0000 0.0000
# 3 31.6170 31.6170 112.1946 0.0000 0.0000 0.0000
# 4 0.0000 0.0000 0.0000 19.0517 0.0000 0.0000
# 5 0.0000 0.0000 0.0000 0.0000 19.0517 0.0000
# 6 0.0000 0.0000 0.0000 0.0000 0.0000 15.4208
#
#
#
# Elastic Compliance Matrix: (Units=1/GPa)
#
#
# Indices 1 2 3 4 5 6 
#
# 1 0.020425 -0.011999 -0.002374 0.000000 0.000000 0.000000
# 2 -0.011999 0.020425 -0.002374 0.000000 0.000000 0.000000
# 3 -0.002374 -0.002374 0.010251 0.000000 0.000000 0.000000
# 4 0.000000 0.000000 0.000000 0.052489 0.000000 0.000000
# 5 0.000000 0.000000 0.000000 0.000000 0.052489 0.000000
# 6 0.000000 0.000000 0.000000 0.000000 0.000000 0.064847
#
#
# Mechanical properties :
#
#
# Convention : Reuss Voigt Hill
#
# Bulk Modulus (GPa) = 56.80256 56.85313 56.82785
# Shear Modulus (GPa) = 19.20942 21.60333 20.40637
#
# Velocity S-wave (km/s) = 3.31682 3.51743 3.41860
# Velocity P-wave (km/s) = 6.87018 7.00403 6.93743
#
# Compressibility (1/GPa) = 0.01760484
#
# Stress axis : x y z
#
# Youngs Moduli (GPa) = 48.96070 48.96070 97.54883
#
# Poissons Ratio (x) = 0.58748 0.23161
# Poissons Ratio (y) = 0.58748 0.23161
# Poissons Ratio (z) = 0.11625 0.11625
#
# Static dielectric constant tensor:
#      x y z
#    x 3.038650 0.000000 0.000000 
#    y 0.000000 3.038650 0.000000 
#    z 0.000000 0.000000 3.558410 
# 
# 
# High freq. dielectric constant tensor:
#      x y z
#    x 1.652060 0.000000 0.000000 
#    y 0.000000 1.652060 0.000000 
#    z 0.000000 0.000000 1.698260 
# 
# From -- ./inp_files/10748.got.cif
#   From: 2010.03.12/outbox.cif.g09.slc.cpg/sg191_6_cif.got.tgz:10748.got - 2010.04.01 12:09:02.
