data_PCOD8328774
_publ_section_title
;
Structure prediction by ZEFSAII (Michael W. Deem and Ramdas Pophale) SiO2 
 PCOD8328774
Probable space group: P 6/M M M
;
_chemical_formula_sum "Si O2"
_cell_formula_units_Z 132
_cell_length_a 27.200089
_cell_length_b 27.200089
_cell_length_c 12.842058
_cell_angle_alpha 90.000000
_cell_angle_beta 90.000000
_cell_angle_gamma 120.000000
_cell_volume 8228.220262
_symmetry_space_group_name_H-M "P 6/M M M"
_symmetry_group_IT_number 191
_symmetry_cell_setting 'hexagonal'
loop_
_space_group_symop_operation_xyz
x,y,z
x-y,x,z
-y,x-y,z
-x,-y,z
-x+y,-x,z
y,-x+y,z
x-y,-y,-z
-x,-x+y,-z
y,x,-z
-y,-x,-z
-x+y,y,-z
x,x-y,-z
-x,-y,-z
-x+y,-x,-z
y,-x+y,-z
x,y,-z
x-y,x,-z
-y,x-y,-z
-x+y,y,z
x,x-y,z
-y,-x,z
y,x,z
x-y,-y,z
-x,-x+y,z
loop_
_atom_site_type_symbol
_atom_site_label
_atom_site_fract_x
_atom_site_fract_y
_atom_site_fract_z
Si Si1 0.064682 0.341199 0.734866
Si Si2 0.728731 0.157604 0.880799
Si Si3 0.824079 0.759592 0.378951
Si Si4 0.374598 0.934887 0.382581
Si Si5 0.378189 0.866617 0.199634
Si Si6 0.061195 0.472869 0.000000
O O1 0.103793 0.373887 0.832583
O O2 0.081365 0.297100 0.686204
O O3 0.073098 0.386714 0.646316
O O4 0.000000 0.307946 0.774521
O O5 0.791697 0.208304 0.874220
O O6 0.689114 0.177334 0.814951
O O7 0.707520 0.143440 0.000000
O O8 0.811660 0.743521 0.500000
O O9 0.890116 0.780231 0.352261
O O10 0.809566 0.809566 0.351814
O O11 0.371368 0.913314 0.500000
O O12 0.392137 0.897869 0.310181
O O13 0.423508 0.000000 0.370890
O O14 0.420549 0.841098 0.182986
O O15 0.382509 0.909315 0.108043
O O16 0.054634 0.527317 0.000000
O O17 0.000000 0.416152 0.000000
#
# Coordination Sequence:
#
# PCOD8328774 Si02
#       6
#    24  24  24  24  24  12
#     4   9  17  29  45  65  89 119 151 181 215 264
#     4  10  20  33  47  65  88 116 146 183 229 273
#     4   9  16  26  42  63  86 114 149 188 226 265
#     4   9  17  28  42  64  95 124 147 174 211 256
#     4  10  19  31  46  64  85 115 149 183 217 255
#     4   9  16  26  41  62  86 110 140 174 206 245
#
# _framework density 16.042351
#
# number of rings (size 3 to 8) (size 9 to 14) (size 15 to 20)
#    0.000    2.636    0.909    1.636    0.000    4.727 
#    0.000    0.909    0.000    5.455    0.000    1.273 
#    0.000    0.000    0.000    0.545    0.000    0.727 
#
# Total GULP energy -1635576.908843 kJ/mol
# GULP energy per Si atom -12390.734158 kJ/mol
# Density = 1.600584 g / cm^3
# Si number density = 16.042351 Si / 1000 Ang^3
#
#
#
# Elastic Constant Matrix: (Units=GPa)
#
#
# Indices 1 2 3 4 5 6 
#
# 1 71.4092 36.8621 31.0064 0.0000 0.0000 0.0000
# 2 36.8621 71.4092 31.0064 0.0000 0.0000 0.0000
# 3 31.0064 31.0064 94.6110 0.0000 0.0000 0.0000
# 4 0.0000 0.0000 0.0000 19.4548 0.0000 0.0000
# 5 0.0000 0.0000 0.0000 0.0000 19.4548 0.0000
# 6 0.0000 0.0000 0.0000 0.0000 0.0000 17.2736
#
#
#
# Elastic Compliance Matrix: (Units=1/GPa)
#
#
# Indices 1 2 3 4 5 6 
#
# 1 0.020158 -0.008788 -0.003726 0.000000 0.000000 0.000000
# 2 -0.008788 0.020158 -0.003726 0.000000 0.000000 0.000000
# 3 -0.003726 -0.003726 0.013012 0.000000 0.000000 0.000000
# 4 0.000000 0.000000 0.000000 0.051401 0.000000 0.000000
# 5 0.000000 0.000000 0.000000 0.000000 0.051401 0.000000
# 6 0.000000 0.000000 0.000000 0.000000 0.000000 0.057892
#
#
# Mechanical properties :
#
#
# Convention : Reuss Voigt Hill
#
# Bulk Modulus (GPa) = 47.96778 48.35324 48.16051
# Shear Modulus (GPa) = 19.72756 20.47362 20.10059
#
# Velocity S-wave (km/s) = 3.51054 3.57630 3.54357
# Velocity P-wave (km/s) = 6.81157 6.87457 6.84314
#
# Compressibility (1/GPa) = 0.02084733
#
# Stress axis : x y z
#
# Youngs Moduli (GPa) = 49.60775 49.60775 76.85197
#
# Poissons Ratio (x) = 0.43594 0.28638
# Poissons Ratio (y) = 0.43594 0.28638
# Poissons Ratio (z) = 0.18486 0.18486
#
# Static dielectric constant tensor:
#      x y z
#    x 3.030710 0.000000 0.000000 
#    y 0.000000 3.030710 0.000000 
#    z 0.000000 0.000000 3.066280 
# 
# 
# High freq. dielectric constant tensor:
#      x y z
#    x 1.599800 0.000000 0.000000 
#    y 0.000000 1.599800 0.000000 
#    z 0.000000 0.000000 1.616330 
# 
# From -- ./inp_files/3364.got.cif
#   From: 2010.03.12/outbox.cif.g09.slc.cpg/sg191_2_cif.got.tgz:3364.got - 2010.04.01 12:09:02.
