data_PCOD8328356
_publ_section_title
;
Structure prediction by ZEFSAII (Michael W. Deem and Ramdas Pophale) SiO2 
 PCOD8328356
Probable space group: P 6/M M M
;
_chemical_formula_sum "Si O2"
_cell_formula_units_Z 168
_cell_length_a 24.544391
_cell_length_b 24.544391
_cell_length_c 22.043168
_cell_angle_alpha 90.000000
_cell_angle_beta 90.000000
_cell_angle_gamma 120.000000
_cell_volume 11500.299847
_symmetry_space_group_name_H-M "P 6/M M M"
_symmetry_group_IT_number 191
_symmetry_cell_setting 'hexagonal'
loop_
_space_group_symop_operation_xyz
x,y,z
x-y,x,z
-y,x-y,z
-x,-y,z
-x+y,-x,z
y,-x+y,z
x-y,-y,-z
-x,-x+y,-z
y,x,-z
-y,-x,-z
-x+y,y,-z
x,x-y,-z
-x,-y,-z
-x+y,-x,-z
y,-x+y,-z
x,y,-z
x-y,x,-z
-y,x-y,-z
-x+y,y,z
x,x-y,z
-y,-x,z
y,x,z
x-y,-y,z
-x,-x+y,z
loop_
_atom_site_type_symbol
_atom_site_label
_atom_site_fract_x
_atom_site_fract_y
_atom_site_fract_z
Si Si1 0.716904 0.560748 0.660905
Si Si2 0.788196 0.332241 0.746606
Si Si3 0.598065 0.526323 0.928410
Si Si4 0.928065 0.653419 0.241766
Si Si5 0.810824 0.741915 0.662617
Si Si6 0.715332 0.071631 0.430535
Si Si7 0.440329 0.158249 0.150248
O O1 0.791380 0.582759 0.664073
O O2 0.676006 0.487697 0.680048
O O3 0.698892 0.599028 0.708072
O O4 0.696663 0.574085 0.594737
O O5 0.807068 0.403534 0.756405
O O6 0.712977 0.287024 0.750575
O O7 0.821297 0.313512 0.797992
O O8 0.544361 0.455640 0.909269
O O9 0.575349 0.575349 0.907520
O O10 0.665514 0.544283 0.900610
O O11 0.606963 0.529799 0.000000
O O12 0.924145 0.711848 0.270453
O O13 0.887972 0.628214 0.179737
O O14 0.000000 0.672665 0.228419
O O15 0.884320 0.768640 0.656014
O O16 0.801328 0.801328 0.654262
O O17 0.774253 0.691781 0.609665
O O18 0.736518 0.087552 0.500000
O O19 0.657959 0.000000 0.423693
O O20 0.440249 0.220125 0.123362
#
# Coordination Sequence:
#
# PCOD8328356 Si02
#       7
#    24  24  24  24  24  24  24
#     4   9  16  25  38  57  78  99 125 157 191 226
#     4   9  17  28  42  59  78 100 125 155 191 229
#     4   9  18  32  47  61  80 109 143 174 201 233
#     4   9  15  24  39  57  80 106 127 153 191 233
#     4   9  16  25  37  54  77 103 129 157 190 226
#     4   9  16  25  39  58  78  99 120 146 185 233
#     4  10  18  27  42  64  86 105 129 162 200 240
#
# _framework density 14.608314
#
# number of rings (size 3 to 8) (size 9 to 14) (size 15 to 20)
#    0.000    2.857    0.000    6.143    0.000    1.429 
#    0.000    0.000    0.000    9.429    0.000    1.000 
#    0.000    1.143    0.000    3.571    0.000    0.000 
#
# Total GULP energy -2081431.811953 kJ/mol
# GULP energy per Si atom -12389.475071 kJ/mol
# Density = 1.457506 g / cm^3
# Si number density = 14.608314 Si / 1000 Ang^3
#
#
#
# Elastic Constant Matrix: (Units=GPa)
#
#
# Indices 1 2 3 4 5 6 
#
# 1 73.7978 33.6434 32.1153 0.0000 0.0000 0.0000
# 2 33.6434 73.7978 32.1153 0.0000 0.0000 0.0000
# 3 32.1153 32.1153 56.5866 0.0000 0.0000 0.0000
# 4 0.0000 0.0000 0.0000 18.6515 0.0000 0.0000
# 5 0.0000 0.0000 0.0000 0.0000 18.6515 0.0000
# 6 0.0000 0.0000 0.0000 0.0000 0.0000 20.0772
#
#
#
# Elastic Compliance Matrix: (Units=1/GPa)
#
#
# Indices 1 2 3 4 5 6 
#
# 1 0.019495 -0.005408 -0.007995 0.000000 0.000000 0.000000
# 2 -0.005408 0.019495 -0.007995 0.000000 0.000000 0.000000
# 3 -0.007995 -0.007995 0.026747 0.000000 0.000000 0.000000
# 4 0.000000 0.000000 0.000000 0.053615 0.000000 0.000000
# 5 0.000000 0.000000 0.000000 0.000000 0.053615 0.000000
# 6 0.000000 0.000000 0.000000 0.000000 0.000000 0.049808
#
#
# Mechanical properties :
#
#
# Convention : Reuss Voigt Hill
#
# Bulk Modulus (GPa) = 43.58988 44.43667 44.01327
# Shear Modulus (GPa) = 18.30033 18.56326 18.43180
#
# Velocity S-wave (km/s) = 3.54324 3.56860 3.55594
# Velocity P-wave (km/s) = 6.82959 6.88946 6.85959
#
# Compressibility (1/GPa) = 0.02294111
#
# Stress axis : x y z
#
# Youngs Moduli (GPa) = 51.29410 51.29410 37.38742
#
# Poissons Ratio (x) = 0.27742 0.29891
# Poissons Ratio (y) = 0.27742 0.29891
# Poissons Ratio (z) = 0.41009 0.41009
#
# Static dielectric constant tensor:
#      x y z
#    x 2.832670 0.000000 0.000000 
#    y 0.000000 2.832670 0.000000 
#    z 0.000000 0.000000 2.805810 
# 
# 
# High freq. dielectric constant tensor:
#      x y z
#    x 1.546210 0.000000 0.000000 
#    y 0.000000 1.546210 0.000000 
#    z 0.000000 0.000000 1.540560 
# 
# From -- ./inp_files/9234.got.cif
#   From: 2010.03.12/outbox.cif.g09.slc.cpg/sg191_5_cif.got.tgz:9234.got - 2010.04.01 12:09:02.
