data_PCOD8328708
_publ_section_title
;
Structure prediction by ZEFSAII (Michael W. Deem and Ramdas Pophale) SiO2 
 PCOD8328708
Probable space group: P 6/M M M
;
_chemical_formula_sum "Si O2"
_cell_formula_units_Z 108
_cell_length_a 18.106875
_cell_length_b 18.106875
_cell_length_c 23.318257
_cell_angle_alpha 90.000000
_cell_angle_beta 90.000000
_cell_angle_gamma 120.000000
_cell_volume 6620.849610
_symmetry_space_group_name_H-M "P 6/M M M"
_symmetry_group_IT_number 191
_symmetry_cell_setting 'hexagonal'
loop_
_space_group_symop_operation_xyz
x,y,z
x-y,x,z
-y,x-y,z
-x,-y,z
-x+y,-x,z
y,-x+y,z
x-y,-y,-z
-x,-x+y,-z
y,x,-z
-y,-x,-z
-x+y,y,-z
x,x-y,-z
-x,-y,-z
-x+y,-x,-z
y,-x+y,-z
x,y,-z
x-y,x,-z
-y,x-y,-z
-x+y,y,z
x,x-y,z
-y,-x,z
y,x,z
x-y,-y,z
-x,-x+y,z
loop_
_atom_site_type_symbol
_atom_site_label
_atom_site_fract_x
_atom_site_fract_y
_atom_site_fract_z
Si Si1 0.636193 0.901479 0.217901
Si Si2 0.901426 0.368554 0.319533
Si Si3 0.331121 0.496021 0.121106
Si Si4 0.539967 0.905537 0.000000
Si Si5 0.668605 0.504549 0.438194
O O1 0.674408 0.837204 0.211498
O O2 0.571751 0.866539 0.272108
O O3 0.580844 0.896617 0.162712
O O4 0.712579 0.000000 0.225014
O O5 0.858430 0.429215 0.313999
O O6 0.886518 0.325915 0.382955
O O7 0.000000 0.427358 0.308217
O O8 0.263592 0.527183 0.134109
O O9 0.426131 0.573869 0.131002
O O10 0.315148 0.459766 0.056541
O O11 0.456630 0.913259 0.000000
O O12 0.622623 0.000000 0.000000
O O13 0.683428 0.553409 0.500000
O O14 0.736933 0.473866 0.430675
O O15 0.576148 0.423853 0.439457
#
# Coordination Sequence:
#
# PCOD8328708 Si02
#       5
#    24  24  24  12  24
#     4  10  20  33  49  67  87 112 142 178 220 266
#     4   9  17  28  42  61  84 110 140 172 208 253
#     4  10  19  30  45  66  93 124 156 188 220 255
#     4   9  17  28  42  60  84 119 161 197 225 252
#     4   9  16  25  37  53  75 105 141 178 211 241
#
# _framework density 16.312106
#
# number of rings (size 3 to 8) (size 9 to 14) (size 15 to 20)
#    0.000    2.556    0.000    2.778    0.000    3.556 
#    0.000    3.333    0.000    7.333    0.000    0.000 
#    0.000    0.000    0.000    0.000    0.000   23.111 
#
# Total GULP energy -1338187.389608 kJ/mol
# GULP energy per Si atom -12390.623978 kJ/mol
# Density = 1.627498 g / cm^3
# Si number density = 16.312106 Si / 1000 Ang^3
#
#
#
# Elastic Constant Matrix: (Units=GPa)
#
#
# Indices 1 2 3 4 5 6 
#
# 1 56.0116 28.7934 25.9715 0.0000 0.0000 0.0000
# 2 28.7934 56.0116 25.9715 0.0000 0.0000 0.0000
# 3 25.9715 25.9715 116.2481 0.0000 0.0000 0.0000
# 4 0.0000 0.0000 0.0000 2.1293 0.0000 0.0000
# 5 0.0000 0.0000 0.0000 0.0000 2.1293 0.0000
# 6 0.0000 0.0000 0.0000 0.0000 0.0000 13.6091
#
#
#
# Elastic Compliance Matrix: (Units=1/GPa)
#
#
# Indices 1 2 3 4 5 6 
#
# 1 0.025201 -0.011539 -0.003052 0.000000 0.000000 0.000000
# 2 -0.011539 0.025201 -0.003052 0.000000 0.000000 0.000000
# 3 -0.003052 -0.003052 0.009966 0.000000 0.000000 0.000000
# 4 0.000000 0.000000 0.000000 0.469633 0.000000 0.000000
# 5 0.000000 0.000000 0.000000 0.000000 0.469633 0.000000
# 6 0.000000 0.000000 0.000000 0.000000 0.000000 0.073480
#
#
# Mechanical properties :
#
#
# Convention : Reuss Voigt Hill
#
# Bulk Modulus (GPa) = 39.87246 43.30493 41.58870
# Shear Modulus (GPa) = 4.47723 13.40920 8.94322
#
# Velocity S-wave (km/s) = 1.65852 2.87023 2.34403
# Velocity P-wave (km/s) = 5.30699 6.13104 5.73384
#
# Compressibility (1/GPa) = 0.02507997
#
# Stress axis : x y z
#
# Youngs Moduli (GPa) = 39.68151 39.68151 100.34057
#
# Poissons Ratio (x) = 0.45790 0.30625
# Poissons Ratio (y) = 0.45790 0.30625
# Poissons Ratio (z) = 0.12111 0.12111
#
# Static dielectric constant tensor:
#      x y z
#    x 2.832180 0.000000 0.000000 
#    y 0.000000 2.832180 0.000000 
#    z 0.000000 0.000000 3.950650 
# 
# 
# High freq. dielectric constant tensor:
#      x y z
#    x 1.592550 0.000000 0.000000 
#    y 0.000000 1.592550 0.000000 
#    z 0.000000 0.000000 1.654670 
# 
# From -- ./inp_files/8311.got.cif
#   From: 2010.03.12/outbox.cif.g09.slc.cpg/sg191_5_cif.got.tgz:8311.got - 2010.04.01 12:09:02.
