data_PCOD8328632
_publ_section_title
;
Structure prediction by ZEFSAII (Michael W. Deem and Ramdas Pophale) SiO2 
 PCOD8328632
Probable space group: P 6/M M M
;
_chemical_formula_sum "Si O2"
_cell_formula_units_Z 168
_cell_length_a 22.291914
_cell_length_b 22.291914
_cell_length_c 23.774767
_cell_angle_alpha 90.000000
_cell_angle_beta 90.000000
_cell_angle_gamma 120.000000
_cell_volume 10231.554430
_symmetry_space_group_name_H-M "P 6/M M M"
_symmetry_group_IT_number 191
_symmetry_cell_setting 'hexagonal'
loop_
_space_group_symop_operation_xyz
x,y,z
x-y,x,z
-y,x-y,z
-x,-y,z
-x+y,-x,z
y,-x+y,z
x-y,-y,-z
-x,-x+y,-z
y,x,-z
-y,-x,-z
-x+y,y,-z
x,x-y,-z
-x,-y,-z
-x+y,-x,-z
y,-x+y,-z
x,y,-z
x-y,x,-z
-y,x-y,-z
-x+y,y,z
x,x-y,z
-y,-x,z
y,x,z
x-y,-y,z
-x,-x+y,z
loop_
_atom_site_type_symbol
_atom_site_label
_atom_site_fract_x
_atom_site_fract_y
_atom_site_fract_z
Si Si1 0.474002 0.807312 0.733623
Si Si2 0.293545 0.078464 0.223170
Si Si3 0.434032 0.148255 0.838624
Si Si4 0.075732 0.793216 0.649027
Si Si5 0.594887 0.729121 0.564378
Si Si6 0.530588 0.609571 0.641740
Si Si7 0.608065 0.527369 0.063930
O O1 0.394580 0.789160 0.730619
O O2 0.478310 0.739155 0.716583
O O3 0.502832 0.832308 0.796063
O O4 0.523427 0.871273 0.693393
O O5 0.269386 0.134693 0.208110
O O6 0.361048 0.092634 0.188567
O O7 0.315221 0.086219 0.288756
O O8 0.231552 0.000000 0.209930
O O9 0.431201 0.215601 0.855985
O O10 0.446877 0.119559 0.895607
O O11 0.125922 0.874079 0.638408
O O12 0.088414 0.748595 0.603509
O O13 0.000000 0.782417 0.641153
O O14 0.614728 0.726196 0.500000
O O15 0.568003 0.784002 0.571869
O O16 0.538252 0.652946 0.585015
O O17 0.461841 0.538159 0.632649
O O18 0.594259 0.594259 0.651931
O O19 0.553831 0.446170 0.073456
O O20 0.570606 0.570606 0.077701
O O21 0.635489 0.540183 0.000000
#
# Coordination Sequence:
#
# PCOD8328632 Si02
#       7
#    24  24  24  24  24  24  24
#     4  10  20  34  51  70  93 121 154 191 230 273
#     4   9  17  29  46  68  94 123 153 187 229 276
#     4  10  19  29  45  70  95 119 149 186 230 276
#     4   9  17  29  45  65  89 116 145 178 216 258
#     4  10  20  33  49  67  87 114 148 183 219 263
#     4  10  21  34  48  69  94 118 146 182 226 275
#     4   9  18  32  48  65  87 118 155 190 222 260
#
# _framework density 16.419792000000001
#
# number of rings (size 3 to 8) (size 9 to 14) (size 15 to 20)
#    0.000    2.429    0.000    3.143    0.000    6.286 
#    0.000    2.143    0.000    0.857    0.000    2.000 
#    0.000    0.000    0.000    3.571    0.000    3.714 
#
# Total GULP energy -2082566.140704 kJ/mol
# GULP energy per Si atom -12396.227028 kJ/mol
# Density = 1.638242 g / cm^3
# Si number density = 16.419792 Si / 1000 Ang^3
#
#
#
# Elastic Constant Matrix: (Units=GPa)
#
#
# Indices 1 2 3 4 5 6 
#
# 1 87.7772 47.3378 50.6228 0.0000 0.0000 0.0000
# 2 47.3378 87.7772 50.6228 0.0000 0.0000 0.0000
# 3 50.6228 50.6228 95.4508 0.0000 0.0000 0.0000
# 4 0.0000 0.0000 0.0000 21.9670 0.0000 0.0000
# 5 0.0000 0.0000 0.0000 0.0000 21.9670 0.0000
# 6 0.0000 0.0000 0.0000 0.0000 0.0000 20.2197
#
#
#
# Elastic Compliance Matrix: (Units=1/GPa)
#
#
# Indices 1 2 3 4 5 6 
#
# 1 0.018505 -0.006223 -0.006514 0.000000 0.000000 0.000000
# 2 -0.006223 0.018505 -0.006514 0.000000 0.000000 0.000000
# 3 -0.006514 -0.006514 0.017386 0.000000 0.000000 0.000000
# 4 0.000000 0.000000 0.000000 0.045523 0.000000 0.000000
# 5 0.000000 0.000000 0.000000 0.000000 0.045523 0.000000
# 6 0.000000 0.000000 0.000000 0.000000 0.000000 0.049457
#
#
# Mechanical properties :
#
#
# Convention : Reuss Voigt Hill
#
# Bulk Modulus (GPa) = 62.91418 63.13023 63.02221
# Shear Modulus (GPa) = 20.94690 20.99220 20.96955
#
# Velocity S-wave (km/s) = 3.57558 3.57945 3.57752
# Velocity P-wave (km/s) = 7.44618 7.45750 7.45185
#
# Compressibility (1/GPa) = 0.01589467
#
# Stress axis : x y z
#
# Youngs Moduli (GPa) = 54.03867 54.03867 57.51767
#
# Poissons Ratio (x) = 0.33629 0.37466
# Poissons Ratio (y) = 0.33629 0.37466
# Poissons Ratio (z) = 0.35200 0.35200
#
# Static dielectric constant tensor:
#      x y z
#    x 3.148250 0.000000 0.000000 
#    y 0.000000 3.148250 0.000000 
#    z 0.000000 0.000000 3.035330 
# 
# 
# High freq. dielectric constant tensor:
#      x y z
#    x 1.629270 0.000000 0.000000 
#    y 0.000000 1.629270 0.000000 
#    z 0.000000 0.000000 1.623610 
# 
# From -- ./inp_files/7934.got.cif
#   From: 2010.03.12/outbox.cif.g09.slc.cpg/sg191_4_cif.got.tgz:7934.got - 2010.04.01 12:09:02.
