data_PCOD8328904
_publ_section_title
;
Structure prediction by ZEFSAII (Michael W. Deem and Ramdas Pophale) SiO2 
 PCOD8328904
Probable space group: P 6/M M M
;
_chemical_formula_sum "Si O2"
_cell_formula_units_Z 72
_cell_length_a 21.806118
_cell_length_b 21.806118
_cell_length_c 10.308494
_cell_angle_alpha 90.000000
_cell_angle_beta 90.000000
_cell_angle_gamma 120.000000
_cell_volume 4245.047654
_symmetry_space_group_name_H-M "P 6/M M M"
_symmetry_group_IT_number 191
_symmetry_cell_setting 'hexagonal'
loop_
_space_group_symop_operation_xyz
x,y,z
x-y,x,z
-y,x-y,z
-x,-y,z
-x+y,-x,z
y,-x+y,z
x-y,-y,-z
-x,-x+y,-z
y,x,-z
-y,-x,-z
-x+y,y,-z
x,x-y,-z
-x,-y,-z
-x+y,-x,-z
y,-x+y,-z
x,y,-z
x-y,x,-z
-y,x-y,-z
-x+y,y,z
x,x-y,z
-y,-x,z
y,x,z
x-y,-y,z
-x,-x+y,z
loop_
_atom_site_type_symbol
_atom_site_label
_atom_site_fract_x
_atom_site_fract_y
_atom_site_fract_z
Si Si1 0.574116 0.917621 0.225399
Si Si2 0.521094 0.335365 0.000000
Si Si3 0.609437 0.525621 0.500000
Si Si4 0.789143 0.076935 0.849500
O O1 0.544281 0.889909 0.368656
O O2 0.644056 0.911921 0.225607
O O3 0.594611 0.000000 0.198427
O O4 0.516706 0.863554 0.124397
O O5 0.603839 0.396162 0.000000
O O6 0.514760 0.257380 0.000000
O O7 0.566391 0.566391 0.500000
O O8 0.558196 0.441805 0.500000
O O9 0.867127 0.132874 0.800552
O O10 0.779212 0.000000 0.821374
O O11 0.778025 0.086789 0.000000
#
# Coordination Sequence:
#
# PCOD8328904 Si02
#       4
#    24  12  12  24
#     4  10  19  33  55  79  99 124 159 207 259 304
#     4  12  24  37  51  69  98 133 171 207 241 288
#     4   9  18  32  49  74 105 128 152 194 254 315
#     4   9  16  28  47  72 101 130 163 203 247 292
#
# _framework density 16.960940000000001
#
# number of rings (size 3 to 8) (size 9 to 14) (size 15 to 20)
#    0.000    2.167    1.667    2.667    0.000    2.667 
#    0.000    3.333    0.000    0.333    0.000    4.667 
#    0.000    0.000    0.000    0.000    0.000   19.667 
#
# Total GULP energy -892239.163533 kJ/mol
# GULP energy per Si atom -12392.210605 kJ/mol
# Density = 1.692234 g / cm^3
# Si number density = 16.960940 Si / 1000 Ang^3
#
#
#
# Elastic Constant Matrix: (Units=GPa)
#
#
# Indices 1 2 3 4 5 6 
#
# 1 106.1358 61.9038 57.1481 0.0000 0.0000 0.0000
# 2 61.9038 106.1358 57.1481 0.0000 0.0000 0.0000
# 3 57.1481 57.1481 124.9944 0.0000 0.0000 0.0000
# 4 0.0000 0.0000 0.0000 6.5925 0.0000 0.0000
# 5 0.0000 0.0000 0.0000 0.0000 6.5925 0.0000
# 6 0.0000 0.0000 0.0000 0.0000 0.0000 22.1160
#
#
#
# Elastic Compliance Matrix: (Units=1/GPa)
#
#
# Indices 1 2 3 4 5 6 
#
# 1 0.015622 -0.006986 -0.003949 0.000000 0.000000 0.000000
# 2 -0.006986 0.015622 -0.003949 0.000000 0.000000 0.000000
# 3 -0.003949 -0.003949 0.011611 0.000000 0.000000 0.000000
# 4 0.000000 0.000000 0.000000 0.151687 0.000000 0.000000
# 5 0.000000 0.000000 0.000000 0.000000 0.151687 0.000000
# 6 0.000000 0.000000 0.000000 0.000000 0.000000 0.045216
#
#
# Mechanical properties :
#
#
# Convention : Reuss Voigt Hill
#
# Bulk Modulus (GPa) = 76.39623 76.62955 76.51289
# Shear Modulus (GPa) = 11.74878 17.79793 14.77335
#
# Velocity S-wave (km/s) = 2.63477 3.24288 2.95451
# Velocity P-wave (km/s) = 7.37538 7.70063 7.53976
#
# Compressibility (1/GPa) = 0.01308965
#
# Stress axis : x y z
#
# Youngs Moduli (GPa) = 64.01034 64.01034 86.12366
#
# Poissons Ratio (x) = 0.44715 0.34009
# Poissons Ratio (y) = 0.44715 0.34009
# Poissons Ratio (z) = 0.25277 0.25277
#
# Static dielectric constant tensor:
#      x y z
#    x 3.247750 0.000000 0.000000 
#    y 0.000000 3.247750 0.000000 
#    z 0.000000 0.000000 1.209620 
# 
# 
# High freq. dielectric constant tensor:
#      x y z
#    x 1.644040 0.000000 0.000000 
#    y 0.000000 1.644040 0.000000 
#    z 0.000000 0.000000 1.645870 
# 
# From -- ./inp_files/2566.got.cif
#   From: 2010.03.12/outbox.cif.g09.slc.cpg/sg191_2_cif.got.tgz:2566.got - 2010.04.01 12:09:02.
