data_PCOD8328679
_publ_section_title
;
Structure prediction by ZEFSAII (Michael W. Deem and Ramdas Pophale) SiO2 
 PCOD8328679
Probable space group: P 6/M M M
;
_chemical_formula_sum "Si O2"
_cell_formula_units_Z 168
_cell_length_a 18.347610
_cell_length_b 18.347610
_cell_length_c 34.672357
_cell_angle_alpha 90.000000
_cell_angle_beta 90.000000
_cell_angle_gamma 120.000000
_cell_volume 10108.180713
_symmetry_space_group_name_H-M "P 6/M M M"
_symmetry_group_IT_number 191
_symmetry_cell_setting 'hexagonal'
loop_
_space_group_symop_operation_xyz
x,y,z
x-y,x,z
-y,x-y,z
-x,-y,z
-x+y,-x,z
y,-x+y,z
x-y,-y,-z
-x,-x+y,-z
y,x,-z
-y,-x,-z
-x+y,y,-z
x,x-y,-z
-x,-y,-z
-x+y,-x,-z
y,-x+y,-z
x,y,-z
x-y,x,-z
-y,x-y,-z
-x+y,y,z
x,x-y,z
-y,-x,z
y,x,z
x-y,-y,z
-x,-x+y,z
loop_
_atom_site_type_symbol
_atom_site_label
_atom_site_fract_x
_atom_site_fract_y
_atom_site_fract_z
Si Si1 0.500884 0.666496 0.455884
Si Si2 0.744144 0.092956 0.401139
Si Si3 0.500066 0.666511 0.955468
Si Si4 0.902208 0.533357 0.175531
Si Si5 0.167394 0.667965 0.742376
Si Si6 0.736172 0.096983 0.894351
Si Si7 0.743690 0.093401 0.686897
O O1 0.527925 0.666090 0.500000
O O2 0.477016 0.738508 0.449134
O O3 0.421099 0.578902 0.444253
O O4 0.576405 0.679779 0.428470
O O5 0.840432 0.159569 0.412184
O O6 0.724369 0.105831 0.357198
O O7 0.730731 0.000000 0.407266
O O8 0.472897 0.736449 0.948382
O O9 0.423207 0.576794 0.941949
O O10 0.583931 0.689224 0.931835
O O11 0.521649 0.663249 0.000000
O O12 0.877368 0.438684 0.162640
O O13 0.852170 0.531574 0.213615
O O14 0.878029 0.577444 0.142133
O O15 0.000000 0.586322 0.185512
O O16 0.151379 0.575690 0.734461
O O17 0.263876 0.736125 0.733523
O O18 0.106081 0.680253 0.713791
O O19 0.837243 0.162758 0.896252
O O20 0.716229 0.000000 0.892070
O O21 0.840476 0.159525 0.697700
O O22 0.728842 0.000000 0.693654
#
# Coordination Sequence:
#
# PCOD8328679 Si02
#       7
#    24  24  24  24  24  24  24
#     4   9  17  29  45  65  90 120 152 184 217 253
#     4   9  18  32  48  66  88 114 144 179 221 267
#     4   9  17  29  46  69  97 127 155 181 211 252
#     4   9  17  29  46  68  92 117 146 181 220 262
#     4  10  19  30  44  64  92 125 159 190 217 246
#     4  10  20  33  48  66  89 117 150 188 229 271
#     4   9  18  32  49  67  87 113 145 181 222 268
#
# _framework density 16.620201999999999
#
# number of rings (size 3 to 8) (size 9 to 14) (size 15 to 20)
#    0.000    2.714    0.000    1.714    0.000    4.286 
#    0.000    2.857    0.000    6.714    0.000    2.000 
#    0.000    0.000    0.000   11.714    0.000    6.857 
#
# Total GULP energy -2082959.427135 kJ/mol
# GULP energy per Si atom -12398.568019 kJ/mol
# Density = 1.658237 g / cm^3
# Si number density = 16.620202 Si / 1000 Ang^3
#
#
#
# Elastic Constant Matrix: (Units=GPa)
#
#
# Indices 1 2 3 4 5 6 
#
# 1 90.0034 57.4346 44.0246 0.0000 0.0000 0.0000
# 2 57.4346 90.0034 44.0246 0.0000 0.0000 0.0000
# 3 44.0246 44.0246 67.2384 0.0000 0.0000 0.0000
# 4 0.0000 0.0000 0.0000 23.0408 0.0000 0.0000
# 5 0.0000 0.0000 0.0000 0.0000 23.0408 0.0000
# 6 0.0000 0.0000 0.0000 0.0000 0.0000 16.2844
#
#
#
# Elastic Compliance Matrix: (Units=1/GPa)
#
#
# Indices 1 2 3 4 5 6 
#
# 1 0.020921 -0.009783 -0.007292 0.000000 0.000000 0.000000
# 2 -0.009783 0.020921 -0.007292 0.000000 0.000000 0.000000
# 3 -0.007292 -0.007292 0.024422 0.000000 0.000000 0.000000
# 4 0.000000 0.000000 0.000000 0.043401 0.000000 0.000000
# 5 0.000000 0.000000 0.000000 0.000000 0.043401 0.000000
# 6 0.000000 0.000000 0.000000 0.000000 0.000000 0.061409
#
#
# Mechanical properties :
#
#
# Convention : Reuss Voigt Hill
#
# Bulk Modulus (GPa) = 57.05316 59.80139 58.42728
# Shear Modulus (GPa) = 18.58371 19.25729 18.92050
#
# Velocity S-wave (km/s) = 3.34749 3.40761 3.37768
# Velocity P-wave (km/s) = 7.02446 7.17925 7.10228
#
# Compressibility (1/GPa) = 0.01752751
#
# Stress axis : x y z
#
# Youngs Moduli (GPa) = 47.79923 47.79923 40.94716
#
# Poissons Ratio (x) = 0.46764 0.29860
# Poissons Ratio (y) = 0.46764 0.29860
# Poissons Ratio (z) = 0.34856 0.34856
#
# Static dielectric constant tensor:
#      x y z
#    x 3.034920 0.000000 0.000000 
#    y 0.000000 3.034920 0.000000 
#    z 0.000000 0.000000 3.231470 
# 
# 
# High freq. dielectric constant tensor:
#      x y z
#    x 1.625410 0.000000 0.000000 
#    y 0.000000 1.625410 0.000000 
#    z 0.000000 0.000000 1.648750 
# 
# From -- ./inp_files/10733.got.cif
#   From: 2010.03.12/outbox.cif.g09.slc.cpg/sg191_6_cif.got.tgz:10733.got - 2010.04.01 12:09:02.
