data_PCOD8328037
_publ_section_title
;
Structure prediction by ZEFSAII (Michael W. Deem and Ramdas Pophale) SiO2 
 PCOD8328037
Probable space group: P -6 2 C
;
_chemical_formula_sum "Si O2"
_cell_formula_units_Z 52
_cell_length_a 11.206376
_cell_length_b 11.206376
_cell_length_c 22.087564
_cell_angle_alpha 90.000000
_cell_angle_beta 90.000000
_cell_angle_gamma 120.000000
_cell_volume 2402.198174
_symmetry_space_group_name_H-M "P -6 2 C"
_symmetry_group_IT_number 190
_symmetry_cell_setting 'hexagonal'
loop_
_space_group_symop_operation_xyz
x,y,z
-x+y,-x,1/2-z
-y,x-y,z
x,y,1/2-z
-x+y,-x,z
-y,x-y,1/2-z
x-y,-y,-z
-x,-x+y,-z
y,x,-z
y,x,1/2+z
x-y,-y,1/2+z
-x,-x+y,1/2+z
loop_
_atom_site_type_symbol
_atom_site_label
_atom_site_fract_x
_atom_site_fract_y
_atom_site_fract_z
Si Si1 0.184087 0.364806 0.861658
Si Si2 0.666668 0.333335 0.179522
Si Si3 0.709059 0.111060 0.618014
Si Si4 0.789188 0.504475 0.750000
Si Si5 0.423394 0.048371 0.933194
Si Si6 0.062024 0.174489 0.750000
O O1 0.301326 0.516693 0.841615
O O2 0.261696 0.293569 0.893544
O O3 0.090498 0.270785 0.807320
O O4 0.086292 0.379540 0.908327
O O5 0.666667 0.333334 0.250000
O O6 0.742226 0.148464 0.689234
O O7 0.562667 0.095989 0.603376
O O8 0.822947 0.220327 0.572156
O O9 0.819305 0.376466 0.750000
O O10 0.435356 0.000000 0.000000
O O11 0.154881 0.099732 0.750000
#
# Coordination Sequence:
#
# PCOD8328037 Si02
#       6
#    12   4  12   6  12   6
#     4  12  25  45  71 107 149 189 243 304 379 447
#     4  12  24  42  69 114 150 189 222 304 389 457
#     4  12  25  48  76 110 146 194 244 315 368 449
#     4  10  19  41  72 112 145 182 248 304 370 438
#     4  12  29  47  76 105 143 199 253 301 369 448
#     4  10  23  43  70 106 143 190 240 304 384 456
#
# _framework density 21.646837999999999
#
# number of rings (size 3 to 8) (size 9 to 14) (size 15 to 20)
#    0.462    0.000    5.769    2.538    3.231    1.846 
#    1.385    0.000    0.000    0.000    0.000    0.000 
#    0.000    0.000    0.000    0.000    0.000    0.000 
#
# Total GULP energy -644821.294093 kJ/mol
# GULP energy per Si atom -12400.409502 kJ/mol
# Density = 2.159757 g / cm^3
# Si number density = 21.646838 Si / 1000 Ang^3
#
#
#
# Elastic Constant Matrix: (Units=GPa)
#
#
# Indices 1 2 3 4 5 6 
#
# 1 95.6650 3.9344 18.9753 0.0000 -0.0001 0.0000
# 2 3.9344 95.6651 18.9754 0.0001 0.0001 0.0001
# 3 18.9753 18.9754 79.2914 -0.0001 0.0000 0.0000
# 4 0.0000 0.0001 -0.0001 35.1832 -0.0002 -0.0001
# 5 -0.0001 0.0001 0.0000 -0.0002 35.1829 0.0000
# 6 0.0000 0.0001 0.0000 -0.0001 0.0000 45.8654
#
#
#
# Elastic Compliance Matrix: (Units=1/GPa)
#
#
# Indices 1 2 3 4 5 6 
#
# 1 0.010975 0.000073 -0.002644 0.000000 0.000000 0.000000
# 2 0.000073 0.010975 -0.002644 0.000000 0.000000 0.000000
# 3 -0.002644 -0.002644 0.013877 0.000000 0.000000 0.000000
# 4 0.000000 0.000000 0.000000 0.028423 0.000000 0.000000
# 5 0.000000 0.000000 0.000000 0.000000 0.028423 0.000000
# 6 0.000000 0.000000 0.000000 0.000000 0.000000 0.021803
#
#
# Mechanical properties :
#
#
# Convention : Reuss Voigt Hill
#
# Bulk Modulus (GPa) = 39.37469 39.37686 39.37577
# Shear Modulus (GPa) = 37.48984 38.49540 37.99262
#
# Velocity S-wave (km/s) = 4.16611 4.22161 4.19395
# Velocity P-wave (km/s) = 6.43203 6.48018 6.45615
#
# Compressibility (1/GPa) = 0.02539702
#
# Stress axis : x y z
#
# Youngs Moduli (GPa) = 91.11992 91.12004 72.06119
#
# Poissons Ratio (x) = -0.00666 0.19052
# Poissons Ratio (y) = -0.00666 0.19052
# Poissons Ratio (z) = 0.24090 0.24090
#
# Static dielectric constant tensor:
#      x y z
#    x 3.913990 0.000000 0.000000 
#    y 0.000000 3.913990 0.000000 
#    z 0.000000 0.000000 3.675860 
# 
# 
# High freq. dielectric constant tensor:
#      x y z
#    x 1.861620 0.000000 0.000000 
#    y 0.000000 1.861620 0.000000 
#    z 0.000000 0.000000 1.835820 
# 
# From -- ./inp_files/4239.got.cif
#   From: 2010.06.25/outbox.cif.g09.slc.cpg/sg190_3_cif.got.tgz:4239.got - 2010.06.28 13:08:06.
