data_PCOD8328791
_publ_section_title
;
Structure prediction by ZEFSAII (Michael W. Deem and Ramdas Pophale) SiO2 
 PCOD8328791
Probable space group: P 6/M M M
;
_chemical_formula_sum "Si O2"
_cell_formula_units_Z 192
_cell_length_a 23.300086
_cell_length_b 23.300086
_cell_length_c 23.943649
_cell_angle_alpha 90.000000
_cell_angle_beta 90.000000
_cell_angle_gamma 120.000000
_cell_volume 11257.346065
_symmetry_space_group_name_H-M "P 6/M M M"
_symmetry_group_IT_number 191
_symmetry_cell_setting 'hexagonal'
loop_
_space_group_symop_operation_xyz
x,y,z
x-y,x,z
-y,x-y,z
-x,-y,z
-x+y,-x,z
y,-x+y,z
x-y,-y,-z
-x,-x+y,-z
y,x,-z
-y,-x,-z
-x+y,y,-z
x,x-y,-z
-x,-y,-z
-x+y,-x,-z
y,-x+y,-z
x,y,-z
x-y,x,-z
-y,x-y,-z
-x+y,y,z
x,x-y,z
-y,-x,z
y,x,z
x-y,-y,z
-x,-x+y,z
loop_
_atom_site_type_symbol
_atom_site_label
_atom_site_fract_x
_atom_site_fract_y
_atom_site_fract_z
Si Si1 0.074712 0.278209 0.063664
Si Si2 0.077250 0.605906 0.351422
Si Si3 0.395770 0.075856 0.247230
Si Si4 0.071736 0.803348 0.712447
Si Si5 0.860969 0.589530 0.130697
Si Si6 0.729373 0.801991 0.418291
Si Si7 0.145291 0.422610 0.436163
Si Si8 0.601406 0.074208 0.934647
O O1 0.124979 0.249958 0.072301
O O2 0.091629 0.336478 0.107601
O O3 0.000000 0.219113 0.075201
O O4 0.081193 0.305352 0.000000
O O5 0.092927 0.546464 0.351871
O O6 0.095171 0.639127 0.290009
O O7 0.123560 0.658795 0.397648
O O8 0.000000 0.579790 0.364895
O O9 0.343090 0.089125 0.278760
O O10 0.420083 0.122066 0.193424
O O11 0.364254 0.000000 0.227769
O O12 0.128263 0.871738 0.740469
O O13 0.069999 0.812345 0.647037
O O14 0.000000 0.783329 0.739001
O O15 0.784847 0.569694 0.127031
O O16 0.870034 0.538164 0.093154
O O17 0.744094 0.872047 0.445257
O O18 0.778117 0.778117 0.444418
O O19 0.654631 0.745915 0.430909
O O20 0.147775 0.445544 0.500000
O O21 0.217453 0.434905 0.417337
O O22 0.541218 0.082435 0.911457
O O23 0.586857 0.000000 0.920312
O O24 0.608374 0.086033 0.000000
#
# Coordination Sequence:
#
# PCOD8328791 Si02
#       8
#    24  24  24  24  24  24  24  24
#     4   9  17  29  45  67  98 134 169 207 252 298
#     4  10  21  36  54  78 105 130 157 194 244 295
#     4  10  19  31  47  69  98 131 164 196 235 289
#     4   9  16  27  44  64  89 123 161 199 238 281
#     4  11  21  30  47  75 101 126 158 199 247 293
#     4   9  16  27  44  66  93 126 163 202 242 283
#     4  10  20  33  52  77 103 132 164 197 235 282
#     4   9  18  33  52  72  96 128 163 198 238 288
#
# _framework density 17.055530000000001
#
# number of rings (size 3 to 8) (size 9 to 14) (size 15 to 20)
#    0.000    2.375    1.250    2.625    0.000    4.000 
#    0.000    1.875    0.000    0.875    0.000    3.500 
#    0.000    0.000    0.000    7.125    0.000    8.750 
#
# Total GULP energy -2380073.804536 kJ/mol
# GULP energy per Si atom -12396.217732 kJ/mol
# Density = 1.701671 g / cm^3
# Si number density = 17.055530 Si / 1000 Ang^3
#
#
#
# Elastic Constant Matrix: (Units=GPa)
#
#
# Indices 1 2 3 4 5 6 
#
# 1 112.9928 64.9879 46.2755 0.0000 0.0000 0.0000
# 2 64.9879 112.9928 46.2755 0.0000 0.0000 0.0000
# 3 46.2755 46.2755 67.7475 0.0000 0.0000 0.0000
# 4 0.0000 0.0000 0.0000 8.7185 0.0000 0.0000
# 5 0.0000 0.0000 0.0000 0.0000 8.7185 0.0000
# 6 0.0000 0.0000 0.0000 0.0000 0.0000 24.0024
#
#
#
# Elastic Compliance Matrix: (Units=1/GPa)
#
#
# Indices 1 2 3 4 5 6 
#
# 1 0.014772 -0.006059 -0.005952 0.000000 0.000000 0.000000
# 2 -0.006059 0.014772 -0.005952 0.000000 0.000000 0.000000
# 3 -0.005952 -0.005952 0.022892 0.000000 0.000000 0.000000
# 4 0.000000 0.000000 0.000000 0.114698 0.000000 0.000000
# 5 0.000000 0.000000 0.000000 0.000000 0.114698 0.000000
# 6 0.000000 0.000000 0.000000 0.000000 0.000000 0.041662
#
#
# Mechanical properties :
#
#
# Convention : Reuss Voigt Hill
#
# Bulk Modulus (GPa) = 60.56461 67.64565 64.10513
# Shear Modulus (GPa) = 13.70148 17.36752 15.53450
#
# Velocity S-wave (km/s) = 2.83741 3.19453 3.02125
# Velocity P-wave (km/s) = 6.80602 7.30444 7.05963
#
# Compressibility (1/GPa) = 0.01651129
#
# Stress axis : x y z
#
# Youngs Moduli (GPa) = 67.69375 67.69375 43.68398
#
# Poissons Ratio (x) = 0.41014 0.26000
# Poissons Ratio (y) = 0.41014 0.26000
# Poissons Ratio (z) = 0.40291 0.40291
#
# Static dielectric constant tensor:
#      x y z
#    x 3.258540 0.000000 0.000000 
#    y 0.000000 3.258540 0.000000 
#    z 0.000000 0.000000 3.219130 
# 
# 
# High freq. dielectric constant tensor:
#      x y z
#    x 1.641570 0.000000 0.000000 
#    y 0.000000 1.641570 0.000000 
#    z 0.000000 0.000000 1.660380 
# 
# From -- ./inp_files/8127.got.cif
#   From: 2010.03.12/outbox.cif.g09.slc.cpg/sg191_5_cif.got.tgz:8127.got - 2010.04.01 12:09:02.
