data_PCOD8328385
_publ_section_title
;
Structure prediction by ZEFSAII (Michael W. Deem and Ramdas Pophale) SiO2 
 PCOD8328385
Probable space group: P 6/M M M
;
_chemical_formula_sum "Si O2"
_cell_formula_units_Z 156
_cell_length_a 19.358410
_cell_length_b 19.358410
_cell_length_c 29.182414
_cell_angle_alpha 90.000000
_cell_angle_beta 90.000000
_cell_angle_gamma 120.000000
_cell_volume 9470.899181
_symmetry_space_group_name_H-M "P 6/M M M"
_symmetry_group_IT_number 191
_symmetry_cell_setting 'hexagonal'
loop_
_space_group_symop_operation_xyz
x,y,z
x-y,x,z
-y,x-y,z
-x,-y,z
-x+y,-x,z
y,-x+y,z
x-y,-y,-z
-x,-x+y,-z
y,x,-z
-y,-x,-z
-x+y,y,-z
x,x-y,-z
-x,-y,-z
-x+y,-x,-z
y,-x+y,-z
x,y,-z
x-y,x,-z
-y,x-y,-z
-x+y,y,z
x,x-y,z
-y,-x,z
y,x,z
x-y,-y,z
-x,-x+y,z
loop_
_atom_site_type_symbol
_atom_site_label
_atom_site_fract_x
_atom_site_fract_y
_atom_site_fract_z
Si Si1 0.456363 0.543638 0.554146
Si Si2 0.529366 0.622715 0.889132
Si Si3 0.287271 0.419309 0.550939
Si Si4 0.468729 0.375758 0.700908
Si Si5 0.246557 0.910638 0.641140
Si Si6 0.908637 0.247477 0.946541
Si Si7 0.333855 0.508167 0.795571
O O1 0.500000 0.500000 0.577104
O O2 0.459560 0.540441 0.500000
O O3 0.365652 0.496301 0.570600
O O4 0.435189 0.564812 0.902746
O O5 0.571974 0.571974 0.894927
O O6 0.575726 0.699975 0.921464
O O7 0.536662 0.649030 0.836366
O O8 0.300221 0.392708 0.500000
O O9 0.224528 0.449055 0.548154
O O10 0.258911 0.346187 0.586162
O O11 0.559650 0.440351 0.684798
O O12 0.422135 0.422135 0.711199
O O13 0.421852 0.306819 0.663419
O O14 0.467395 0.332207 0.747671
O O15 0.154997 0.845004 0.654062
O O16 0.267610 0.000000 0.656568
O O17 0.846447 0.153554 0.935372
O O18 0.000000 0.273085 0.931359
O O19 0.907596 0.264001 0.000000
O O20 0.249313 0.498625 0.805605
O O21 0.398958 0.601043 0.793921
#
# Coordination Sequence:
#
# PCOD8328385 Si02
#       7
#    12  24  24  24  24  24  24
#     4   9  16  26  42  62  82 110 146 178 208 246
#     4   9  17  28  43  63  86 114 148 186 226 266
#     4   9  18  31  45  65  91 117 148 183 219 258
#     4   9  18  31  47  66  88 116 147 180 219 262
#     4  10  20  33  50  70  92 117 148 185 225 269
#     4   9  17  29  45  65  89 117 150 188 230 275
#     4  10  18  28  42  60  85 115 148 182 216 256
#
# _framework density 16.471508
#
# number of rings (size 3 to 8) (size 9 to 14) (size 15 to 20)
#    0.000    2.692    0.000    2.000    1.077    3.077 
#    0.462    1.538    0.000    0.923    0.000    1.077 
#    0.000    0.000    0.000    3.846    0.000   32.000 
#
# Total GULP energy -1932921.393975 kJ/mol
# GULP energy per Si atom -12390.521756 kJ/mol
# Density = 1.643402 g / cm^3
# Si number density = 16.471508 Si / 1000 Ang^3
#
#
#
# Elastic Constant Matrix: (Units=GPa)
#
#
# Indices 1 2 3 4 5 6 
#
# 1 76.7040 41.9127 25.9757 0.0000 0.0000 0.0000
# 2 41.9127 76.7040 25.9757 0.0000 0.0000 0.0000
# 3 25.9757 25.9757 57.4080 0.0000 0.0000 0.0000
# 4 0.0000 0.0000 0.0000 18.8351 0.0000 0.0000
# 5 0.0000 0.0000 0.0000 0.0000 18.8351 0.0000
# 6 0.0000 0.0000 0.0000 0.0000 0.0000 17.3957
#
#
#
# Elastic Compliance Matrix: (Units=1/GPa)
#
#
# Indices 1 2 3 4 5 6 
#
# 1 0.019628 -0.009114 -0.004757 0.000000 0.000000 0.000000
# 2 -0.009114 0.019628 -0.004757 0.000000 0.000000 0.000000
# 3 -0.004757 -0.004757 0.021724 0.000000 0.000000 0.000000
# 4 0.000000 0.000000 0.000000 0.053092 0.000000 0.000000
# 5 0.000000 0.000000 0.000000 0.000000 0.053092 0.000000
# 6 0.000000 0.000000 0.000000 0.000000 0.000000 0.057486
#
#
# Mechanical properties :
#
#
# Convention : Reuss Voigt Hill
#
# Bulk Modulus (GPa) = 42.15297 44.28266 43.21782
# Shear Modulus (GPa) = 18.53105 18.80998 18.67052
#
# Velocity S-wave (km/s) = 3.35780 3.38297 3.37041
# Velocity P-wave (km/s) = 6.37809 6.49631 6.43747
#
# Compressibility (1/GPa) = 0.02372312
#
# Stress axis : x y z
#
# Youngs Moduli (GPa) = 50.94640 50.94640 46.03130
#
# Poissons Ratio (x) = 0.46434 0.21899
# Poissons Ratio (y) = 0.46434 0.21899
# Poissons Ratio (z) = 0.24237 0.24237
#
# Static dielectric constant tensor:
#      x y z
#    x 3.165540 0.000000 0.000000 
#    y 0.000000 3.165540 0.000000 
#    z 0.000000 0.000000 3.124480 
# 
# 
# High freq. dielectric constant tensor:
#      x y z
#    x 1.618820 0.000000 0.000000 
#    y 0.000000 1.618820 0.000000 
#    z 0.000000 0.000000 1.633580 
# 
# From -- ./inp_files/10820.got.cif
#   From: 2010.03.12/outbox.cif.g09.slc.cpg/sg191_6_cif.got.tgz:10820.got - 2010.04.01 12:09:02.
