data_PCOD8328428
_publ_section_title
;
Structure prediction by ZEFSAII (Michael W. Deem and Ramdas Pophale) SiO2 
 PCOD8328428
Probable space group: P 6/M M M
;
_chemical_formula_sum "Si O2"
_cell_formula_units_Z 96
_cell_length_a 27.490417
_cell_length_b 27.490417
_cell_length_c 9.578669
_cell_angle_alpha 90.000000
_cell_angle_beta 90.000000
_cell_angle_gamma 120.000000
_cell_volume 6269.002645
_symmetry_space_group_name_H-M "P 6/M M M"
_symmetry_group_IT_number 191
_symmetry_cell_setting 'hexagonal'
loop_
_space_group_symop_operation_xyz
x,y,z
x-y,x,z
-y,x-y,z
-x,-y,z
-x+y,-x,z
y,-x+y,z
x-y,-y,-z
-x,-x+y,-z
y,x,-z
-y,-x,-z
-x+y,y,-z
x,x-y,-z
-x,-y,-z
-x+y,-x,-z
y,-x+y,-z
x,y,-z
x-y,x,-z
-y,x-y,-z
-x+y,y,z
x,x-y,z
-y,-x,z
y,x,z
x-y,-y,z
-x,-x+y,z
loop_
_atom_site_type_symbol
_atom_site_label
_atom_site_fract_x
_atom_site_fract_y
_atom_site_fract_z
Si Si1 0.418428 0.110131 0.841765
Si Si2 0.876339 0.752678 0.335905
Si Si3 0.302033 0.000000 0.846075
Si Si4 0.064206 0.587796 0.338381
Si Si5 0.363933 0.181967 0.834346
Si Si6 0.791243 0.791243 0.662082
O O1 0.465428 0.108334 0.746249
O O2 0.403186 0.156572 0.791286
O O3 0.362242 0.052200 0.824561
O O4 0.440949 0.121444 0.000000
O O5 0.868461 0.736921 0.500000
O O6 0.847497 0.694993 0.248215
O O7 0.848457 0.791087 0.296808
O O8 0.260585 0.000000 0.733044
O O9 0.277863 0.000000 0.000000
O O10 0.069403 0.604057 0.500000
O O11 0.081520 0.540760 0.312338
O O12 0.000000 0.564072 0.288015
O O13 0.349371 0.174686 0.000000
O O14 0.779989 0.779989 0.500000
#
# Coordination Sequence:
#
# PCOD8328428 Si02
#       6
#    24  12  12  24  12  12
#     4  10  19  30  44  66  94 123 152 185 222 265
#     4  10  20  32  46  65  88 116 152 192 236 284
#     4  10  18  28  45  67  91 122 155 184 223 268
#     4   9  18  31  46  65  90 121 154 185 217 255
#     4  10  20  32  46  66  95 125 153 186 226 274
#     4  10  20  32  46  64  87 116 152 193 235 282
#
# _framework density 15.313442
#
# number of rings (size 3 to 8) (size 9 to 14) (size 15 to 20)
#    0.000    2.250    3.750    0.750    0.000    2.500 
#    0.000    1.250    0.000    0.250    0.000    1.750 
#    1.250    0.000    0.750    2.250    1.000    2.500 
#
# Total GULP energy -1189907.066936 kJ/mol
# GULP energy per Si atom -12394.865281 kJ/mol
# Density = 1.527859 g / cm^3
# Si number density = 15.313442 Si / 1000 Ang^3
#
#
#
# Elastic Constant Matrix: (Units=GPa)
#
#
# Indices 1 2 3 4 5 6 
#
# 1 101.2648 41.7563 42.3366 0.0000 0.0000 0.0000
# 2 41.7563 101.2648 42.3366 0.0000 0.0000 0.0000
# 3 42.3366 42.3366 50.8731 0.0000 0.0000 0.0000
# 4 0.0000 0.0000 0.0000 22.8578 0.0000 0.0000
# 5 0.0000 0.0000 0.0000 0.0000 22.8578 0.0000
# 6 0.0000 0.0000 0.0000 0.0000 0.0000 29.7543
#
#
#
# Elastic Compliance Matrix: (Units=1/GPa)
#
#
# Indices 1 2 3 4 5 6 
#
# 1 0.015293 -0.001511 -0.011470 0.000000 0.000000 0.000000
# 2 -0.001511 0.015293 -0.011470 0.000000 0.000000 0.000000
# 3 -0.011470 -0.011470 0.038747 0.000000 0.000000 0.000000
# 4 0.000000 0.000000 0.000000 0.043749 0.000000 0.000000
# 5 0.000000 0.000000 0.000000 0.000000 0.043749 0.000000
# 6 0.000000 0.000000 0.000000 0.000000 0.000000 0.033609
#
#
# Mechanical properties :
#
#
# Convention : Reuss Voigt Hill
#
# Bulk Modulus (GPa) = 48.94070 56.25130 52.59600
# Shear Modulus (GPa) = 20.31267 23.55886 21.93576
#
# Velocity S-wave (km/s) = 3.64601 3.92655 3.78888
# Velocity P-wave (km/s) = 7.05360 7.57431 7.31858
#
# Compressibility (1/GPa) = 0.02043289
#
# Stress axis : x y z
#
# Youngs Moduli (GPa) = 65.38776 65.38776 25.80842
#
# Poissons Ratio (x) = 0.09880 0.29602
# Poissons Ratio (y) = 0.09880 0.29602
# Poissons Ratio (z) = 0.74998 0.74998
#
# Static dielectric constant tensor:
#      x y z
#    x 2.904830 0.000000 0.000000 
#    y 0.000000 2.904830 0.000000 
#    z 0.000000 0.000000 3.011810 
# 
# 
# High freq. dielectric constant tensor:
#      x y z
#    x 1.571960 0.000000 0.000000 
#    y 0.000000 1.571960 0.000000 
#    z 0.000000 0.000000 1.589070 
# 
# From -- ./inp_files/1638.got.cif
#   From: 2010.03.12/outbox.cif.g09.slc.cpg/sg191_1_cif.got.tgz:1638.got - 2010.04.01 12:09:02.
