data_PCOD8328009
_publ_section_title
;
Structure prediction by ZEFSAII (Michael W. Deem and Ramdas Pophale) SiO2 
 PCOD8328009
Probable space group: P -6 2 C
;
_chemical_formula_sum "Si O2"
_cell_formula_units_Z 78
_cell_length_a 23.388478
_cell_length_b 23.388478
_cell_length_c 8.152869
_cell_angle_alpha 90.000000
_cell_angle_beta 90.000000
_cell_angle_gamma 120.000000
_cell_volume 3862.291231
_symmetry_space_group_name_H-M "P -6 2 C"
_symmetry_group_IT_number 190
_symmetry_cell_setting 'hexagonal'
loop_
_space_group_symop_operation_xyz
x,y,z
-x+y,-x,1/2-z
-y,x-y,z
x,y,1/2-z
-x+y,-x,z
-y,x-y,1/2-z
x-y,-y,-z
-x,-x+y,-z
y,x,-z
y,x,1/2+z
x-y,-y,1/2+z
-x,-x+y,1/2+z
loop_
_atom_site_type_symbol
_atom_site_label
_atom_site_fract_x
_atom_site_fract_y
_atom_site_fract_z
Si Si1 0.410257 0.730816 0.750000
Si Si2 0.465235 0.536097 0.058367
Si Si3 0.862981 0.931682 0.941596
Si Si4 0.593102 0.666496 0.444638
Si Si5 0.263492 0.194370 0.057003
Si Si6 0.190431 0.675472 0.061465
Si Si7 0.802584 0.605116 0.056945
O O1 0.392637 0.654719 0.750000
O O2 0.444954 0.756542 0.576675
O O3 0.471767 0.540760 0.250000
O O4 0.521767 0.607577 0.989481
O O5 0.391206 0.515720 0.004875
O O6 0.477918 0.477918 0.000000
O O7 0.856522 0.929474 0.750000
O O8 0.797521 0.926298 0.021935
O O9 0.870405 0.870405 0.000000
O O10 0.926066 0.000000 0.000000
O O11 0.594248 0.673036 0.250000
O O12 0.649991 0.649991 0.500000
O O13 0.605502 0.734997 0.521857
O O14 0.261131 0.192241 0.250000
O O15 0.327484 0.192779 0.997062
O O16 0.258408 0.258408 0.000000
O O17 0.210220 0.668011 0.250000
O O18 0.185765 0.741167 0.054591
O O19 0.804774 0.590478 0.250000
#
# Coordination Sequence:
#
# PCOD8328009 Si02
#       7
#     6  12  12  12  12  12  12
#     4  10  26  44  64  98 126 170 210 242 324 372
#     4   9  21  38  61  90 122 162 207 256 309 362
#     4  10  19  33  52  77 107 145 189 239 299 358
#     4  10  21  39  61  91 122 161 203 252 311 370
#     4   9  21  39  58  81 113 152 198 249 304 360
#     4  11  24  42  64  96 129 166 212 259 309 372
#     4  11  23  40  62  89 123 162 204 256 309 368
#
# _framework density 20.195267000000001
#
# number of rings (size 3 to 8) (size 9 to 14) (size 15 to 20)
#    0.154    1.846    0.769    1.538    3.231    4.308 
#    0.000    4.615    0.000    0.000    0.000    0.000 
#    0.000    0.000    0.000    0.000    0.000    0.000 
#
# Total GULP energy -966530.983631 kJ/mol
# GULP energy per Si atom -12391.422867 kJ/mol
# Density = 2.014930 g / cm^3
# Si number density = 20.195267 Si / 1000 Ang^3
#
#
#
# Elastic Constant Matrix: (Units=GPa)
#
#
# Indices 1 2 3 4 5 6 
#
# 1 123.3385 63.7590 22.0880 0.0000 0.0000 0.0000
# 2 63.7590 123.3385 22.0880 0.0000 0.0000 0.0000
# 3 22.0880 22.0880 65.1440 0.0000 0.0000 0.0000
# 4 0.0000 0.0000 0.0000 16.3772 0.0000 0.0000
# 5 0.0000 0.0000 0.0000 0.0000 16.3772 0.0000
# 6 0.0000 0.0000 0.0000 0.0000 0.0000 29.7898
#
#
#
# Elastic Compliance Matrix: (Units=1/GPa)
#
#
# Indices 1 2 3 4 5 6 
#
# 1 0.011297 -0.005487 -0.001970 0.000000 0.000000 0.000000
# 2 -0.005487 0.011297 -0.001970 0.000000 0.000000 0.000000
# 3 -0.001970 -0.001970 0.016686 0.000000 0.000000 0.000000
# 4 0.000000 0.000000 0.000000 0.061061 0.000000 0.000000
# 5 0.000000 0.000000 0.000000 0.000000 0.061061 0.000000
# 6 0.000000 0.000000 0.000000 0.000000 0.000000 0.033569
#
#
# Mechanical properties :
#
#
# Convention : Reuss Voigt Hill
#
# Bulk Modulus (GPa) = 48.95580 58.63233 53.79406
# Shear Modulus (GPa) = 22.66201 26.10122 24.38162
#
# Velocity S-wave (km/s) = 3.35348 3.59896 3.47838
# Velocity P-wave (km/s) = 6.26803 6.80924 6.54423
#
# Compressibility (1/GPa) = 0.02042659
#
# Stress axis : x y z
#
# Youngs Moduli (GPa) = 88.51821 88.51821 59.92876
#
# Poissons Ratio (x) = 0.48572 0.11806
# Poissons Ratio (y) = 0.48572 0.11806
# Poissons Ratio (z) = 0.17438 0.17438
#
# Static dielectric constant tensor:
#      x y z
#    x 3.929260 0.000000 0.000000 
#    y 0.000000 3.929260 0.000000 
#    z 0.000000 0.000000 3.577990 
# 
# 
# High freq. dielectric constant tensor:
#      x y z
#    x 1.787690 0.000000 0.000000 
#    y 0.000000 1.787690 0.000000 
#    z 0.000000 0.000000 1.793000 
# 
# From -- ./inp_files/1377.got.cif
#   From: 2010.06.25/outbox.cif.g09.slc.cpg/sg190_1_cif.got.tgz:1377.got - 2010.06.28 13:08:06.
