data_PCOD8328163
_publ_section_title
;
Structure prediction by ZEFSAII (Michael W. Deem and Ramdas Pophale) SiO2 
 PCOD8328163
Probable space group: P -6 2 C
;
_chemical_formula_sum "Si O2"
_cell_formula_units_Z 66
_cell_length_a 21.083807
_cell_length_b 21.083807
_cell_length_c 9.995437
_cell_angle_alpha 90.000000
_cell_angle_beta 90.000000
_cell_angle_gamma 120.000000
_cell_volume 3847.959408
_symmetry_space_group_name_H-M "P -6 2 C"
_symmetry_group_IT_number 190
_symmetry_cell_setting 'hexagonal'
loop_
_space_group_symop_operation_xyz
x,y,z
-x+y,-x,1/2-z
-y,x-y,z
x,y,1/2-z
-x+y,-x,z
-y,x-y,1/2-z
x-y,-y,-z
-x,-x+y,-z
y,x,-z
y,x,1/2+z
x-y,-y,1/2+z
-x,-x+y,1/2+z
loop_
_atom_site_type_symbol
_atom_site_label
_atom_site_fract_x
_atom_site_fract_y
_atom_site_fract_z
Si Si1 0.441043 0.224073 0.460874
Si Si2 0.066956 0.653196 0.900044
Si Si3 0.680222 0.614999 0.396280
Si Si4 0.284526 0.570574 0.750000
Si Si5 0.738139 0.239801 0.750000
Si Si6 0.167714 0.569833 0.250000
Si Si7 0.445656 0.916426 0.981994
O O1 0.395243 0.263588 0.419555
O O2 0.384227 0.139039 0.430154
O O3 0.518658 0.256525 0.381318
O O4 0.452862 0.229164 0.619202
O O5 0.034796 0.640133 0.750000
O O6 0.112761 0.609664 0.920307
O O7 0.000000 0.633461 0.000000
O O8 0.685852 0.649460 0.250000
O O9 0.660720 0.660720 0.500000
O O10 0.618239 0.529074 0.388353
O O11 0.250498 0.625891 0.750000
O O12 0.758178 0.324211 0.750000
O O13 0.652215 0.185993 0.750000
O O14 0.120349 0.528449 0.121281
O O15 0.506532 0.000000 0.000000
#
# Coordination Sequence:
#
# PCOD8328163 Si02
#       7
#    12  12  12   6   6   6  12
#     4  12  24  41  58  80 113 142 187 233 283 343
#     4  11  24  39  59  80 107 141 182 228 282 337
#     4  11  24  39  59  80 107 141 182 228 282 337
#     4  10  26  38  58  79 106 149 192 234 291 342
#     4  12  27  36  54  76 108 137 180 232 289 332
#     4  12  23  40  50  79 106 140 182 234 292 330
#     4  10  23  32  54  74 105 133 177 224 271 330
#
# _framework density 17.151948999999998
#
# number of rings (size 3 to 8) (size 9 to 14) (size 15 to 20)
#    0.182    0.727    5.455    0.727   17.818    0.000 
#    0.000    0.000    0.000    0.000    0.000    0.000 
#    0.000    0.000    0.000    0.545    0.000    3.091 
#
# Total GULP energy -818049.457696 kJ/mol
# GULP energy per Si atom -12394.688753 kJ/mol
# Density = 1.711291 g / cm^3
# Si number density = 17.151949 Si / 1000 Ang^3
#
#
#
# Elastic Constant Matrix: (Units=GPa)
#
#
# Indices 1 2 3 4 5 6 
#
# 1 75.0931 24.2203 27.3962 0.0000 0.0000 0.0000
# 2 24.2203 75.0931 27.3962 0.0000 0.0000 0.0000
# 3 27.3962 27.3962 149.2809 0.0000 0.0000 0.0000
# 4 0.0000 0.0000 0.0000 20.2060 0.0000 0.0000
# 5 0.0000 0.0000 0.0000 0.0000 20.2060 0.0000
# 6 0.0000 0.0000 0.0000 0.0000 0.0000 25.4364
#
#
#
# Elastic Compliance Matrix: (Units=1/GPa)
#
#
# Indices 1 2 3 4 5 6 
#
# 1 0.015430 -0.004227 -0.002056 0.000000 0.000000 0.000000
# 2 -0.004227 0.015430 -0.002056 0.000000 0.000000 0.000000
# 3 -0.002056 -0.002056 0.007453 0.000000 0.000000 0.000000
# 4 0.000000 0.000000 0.000000 0.049490 0.000000 0.000000
# 5 0.000000 0.000000 0.000000 0.000000 0.049490 0.000000
# 6 0.000000 0.000000 0.000000 0.000000 0.000000 0.039314
#
#
# Mechanical properties :
#
#
# Convention : Reuss Voigt Hill
#
# Bulk Modulus (GPa) = 46.21900 50.83251 48.52576
# Shear Modulus (GPa) = 24.93791 27.86662 26.40227
#
# Velocity S-wave (km/s) = 3.81719 4.03512 3.92767
# Velocity P-wave (km/s) = 6.81419 7.17011 6.99442
#
# Compressibility (1/GPa) = 0.02163612
#
# Stress axis : x y z
#
# Youngs Moduli (GPa) = 64.80801 64.80801 134.16607
#
# Poissons Ratio (x) = 0.27392 0.27586
# Poissons Ratio (y) = 0.27392 0.27586
# Poissons Ratio (z) = 0.13325 0.13325
#
# Static dielectric constant tensor:
#      x y z
#    x 3.022370 0.000000 0.000000 
#    y 0.000000 3.022370 0.000000 
#    z 0.000000 0.000000 3.400280 
# 
# 
# High freq. dielectric constant tensor:
#      x y z
#    x 1.631970 0.000000 0.000000 
#    y 0.000000 1.631970 0.000000 
#    z 0.000000 0.000000 1.684540 
# 
# From -- ./inp_files/1094.got.cif
#   From: 2010.06.25/outbox.cif.g09.slc.cpg/sg190_1_cif.got.tgz:1094.got - 2010.06.28 13:08:06.
