data_PCOD8328836
_publ_section_title
;
Structure prediction by ZEFSAII (Michael W. Deem and Ramdas Pophale) SiO2 
 PCOD8328836
Probable space group: P 6/M M M
;
_chemical_formula_sum "Si O2"
_cell_formula_units_Z 192
_cell_length_a 22.580010
_cell_length_b 22.580010
_cell_length_c 24.528934
_cell_angle_alpha 90.000000
_cell_angle_beta 90.000000
_cell_angle_gamma 120.000000
_cell_volume 10830.725930
_symmetry_space_group_name_H-M "P 6/M M M"
_symmetry_group_IT_number 191
_symmetry_cell_setting 'hexagonal'
loop_
_space_group_symop_operation_xyz
x,y,z
x-y,x,z
-y,x-y,z
-x,-y,z
-x+y,-x,z
y,-x+y,z
x-y,-y,-z
-x,-x+y,-z
y,x,-z
-y,-x,-z
-x+y,y,-z
x,x-y,-z
-x,-y,-z
-x+y,-x,-z
y,-x+y,-z
x,y,-z
x-y,x,-z
-y,x-y,-z
-x+y,y,z
x,x-y,z
-y,-x,z
y,x,z
x-y,-y,z
-x,-x+y,z
loop_
_atom_site_type_symbol
_atom_site_label
_atom_site_fract_x
_atom_site_fract_y
_atom_site_fract_z
Si Si1 0.278809 0.204143 0.437505
Si Si2 0.215301 0.292411 0.839388
Si Si3 0.614949 0.737832 0.060401
Si Si4 0.465762 0.799231 0.212571
Si Si5 0.921649 0.315489 0.245687
Si Si6 0.666530 0.200946 0.084173
Si Si7 0.470775 0.804471 0.437988
Si Si8 0.728554 0.133004 0.363690
O O1 0.302345 0.217275 0.500000
O O2 0.253266 0.126633 0.419812
O O3 0.215264 0.215264 0.426087
O O4 0.343446 0.257157 0.403724
O O5 0.134291 0.268581 0.843273
O O6 0.226725 0.226725 0.833561
O O7 0.257718 0.332633 0.893486
O O8 0.246887 0.342223 0.787462
O O9 0.607602 0.803801 0.067611
O O10 0.538469 0.673417 0.068300
O O11 0.642377 0.734132 0.000000
O O12 0.397046 0.794092 0.237456
O O13 0.475165 0.737583 0.237345
O O14 0.529180 0.872672 0.226598
O O15 0.459194 0.791559 0.148471
O O16 0.910463 0.300480 0.309390
O O17 0.000000 0.373561 0.234844
O O18 0.595054 0.190107 0.060330
O O19 0.729255 0.270746 0.059338
O O20 0.495148 0.830001 0.500000
O O21 0.402907 0.805813 0.423247
O O22 0.455259 0.727630 0.431367
O O23 0.527156 0.853772 0.394474
O O24 0.796082 0.203919 0.349804
#
# Coordination Sequence:
#
# PCOD8328836 Si02
#       8
#    24  24  24  24  24  24  24  24
#     4   9  17  30  49  72  97 124 154 189 229 275
#     4  10  20  36  57  80 105 134 168 206 251 305
#     4   9  17  30  49  73 101 133 168 207 252 301
#     4  10  19  33  52  72  96 128 168 210 252 299
#     4  11  22  35  53  75 101 134 169 210 258 305
#     4   9  16  27  45  69  97 130 169 213 259 304
#     4   9  17  30  49  73 101 134 173 217 264 311
#     4  10  19  31  49  73 100 128 163 206 250 296
#
# _framework density 17.727343000000001
#
# number of rings (size 3 to 8) (size 9 to 14) (size 15 to 20)
#    0.000    2.375    1.250    2.250    0.000    4.250 
#    0.000    0.000    0.000    4.000    0.000    6.125 
#    0.000    0.000    0.000    7.125    0.000    2.750 
#
# Total GULP energy -2379987.671315 kJ/mol
# GULP energy per Si atom -12395.769121 kJ/mol
# Density = 1.768699 g / cm^3
# Si number density = 17.727343 Si / 1000 Ang^3
#
#
#
# Elastic Constant Matrix: (Units=GPa)
#
#
# Indices 1 2 3 4 5 6 
#
# 1 92.8348 55.7154 36.4374 0.0000 0.0000 0.0000
# 2 55.7154 92.8348 36.4374 0.0000 0.0000 0.0000
# 3 36.4374 36.4374 81.5284 0.0000 0.0000 0.0000
# 4 0.0000 0.0000 0.0000 8.2540 0.0000 0.0000
# 5 0.0000 0.0000 0.0000 0.0000 8.2540 0.0000
# 6 0.0000 0.0000 0.0000 0.0000 0.0000 18.5597
#
#
#
# Elastic Compliance Matrix: (Units=1/GPa)
#
#
# Indices 1 2 3 4 5 6 
#
# 1 0.017781 -0.009159 -0.003853 0.000000 0.000000 0.000000
# 2 -0.009159 0.017781 -0.003853 0.000000 0.000000 0.000000
# 3 -0.003853 -0.003853 0.015710 0.000000 0.000000 0.000000
# 4 0.000000 0.000000 0.000000 0.121153 0.000000 0.000000
# 5 0.000000 0.000000 0.000000 0.000000 0.121153 0.000000
# 6 0.000000 0.000000 0.000000 0.000000 0.000000 0.053880
#
#
# Mechanical properties :
#
#
# Convention : Reuss Voigt Hill
#
# Bulk Modulus (GPa) = 57.01096 58.26425 57.63760
# Shear Modulus (GPa) = 12.91867 16.25409 14.58638
#
# Velocity S-wave (km/s) = 2.70245 3.03131 2.87159
# Velocity P-wave (km/s) = 6.47822 6.72235 6.60142
#
# Compressibility (1/GPa) = 0.01754049
#
# Stress axis : x y z
#
# Youngs Moduli (GPa) = 56.23946 56.23946 63.65319
#
# Poissons Ratio (x) = 0.51509 0.24529
# Poissons Ratio (y) = 0.51509 0.24529
# Poissons Ratio (z) = 0.21672 0.21672
#
# Static dielectric constant tensor:
#      x y z
#    x 3.217110 0.000000 0.000000 
#    y 0.000000 3.217110 0.000000 
#    z 0.000000 0.000000 3.449020 
# 
# 
# High freq. dielectric constant tensor:
#      x y z
#    x 1.667590 0.000000 0.000000 
#    y 0.000000 1.667590 0.000000 
#    z 0.000000 0.000000 1.691500 
# 
# From -- ./inp_files/9331.got.cif
#   From: 2010.03.12/outbox.cif.g09.slc.cpg/sg191_5_cif.got.tgz:9331.got - 2010.04.01 12:09:02.
