data_PCOD8328867
_publ_section_title
;
Structure prediction by ZEFSAII (Michael W. Deem and Ramdas Pophale) SiO2 
 PCOD8328867
Probable space group: P 6/M M M
;
_chemical_formula_sum "Si O2"
_cell_formula_units_Z 120
_cell_length_a 17.587957
_cell_length_b 17.587957
_cell_length_c 26.919275
_cell_angle_alpha 90.000000
_cell_angle_beta 90.000000
_cell_angle_gamma 120.000000
_cell_volume 7211.486273
_symmetry_space_group_name_H-M "P 6/M M M"
_symmetry_group_IT_number 191
_symmetry_cell_setting 'hexagonal'
loop_
_space_group_symop_operation_xyz
x,y,z
x-y,x,z
-y,x-y,z
-x,-y,z
-x+y,-x,z
y,-x+y,z
x-y,-y,-z
-x,-x+y,-z
y,x,-z
-y,-x,-z
-x+y,y,-z
x,x-y,-z
-x,-y,-z
-x+y,-x,-z
y,-x+y,-z
x,y,-z
x-y,x,-z
-y,x-y,-z
-x+y,y,z
x,x-y,z
-y,-x,z
y,x,z
x-y,-y,z
-x,-x+y,z
loop_
_atom_site_type_symbol
_atom_site_label
_atom_site_fract_x
_atom_site_fract_y
_atom_site_fract_z
Si Si1 0.532413 0.896209 0.144090
Si Si2 0.665559 0.147992 0.500000
Si Si3 0.262652 0.360274 0.055290
Si Si4 0.000000 0.410018 0.317959
Si Si5 0.159623 0.489559 0.749565
Si Si6 0.350794 0.000000 0.571980
Si Si7 0.171117 0.171117 0.558299
O O1 0.428917 0.857834 0.137504
O O2 0.562085 0.865706 0.095354
O O3 0.550236 0.858846 0.194699
O O4 0.582147 0.000000 0.148755
O O5 0.757605 0.242396 0.500000
O O6 0.582413 0.164826 0.500000
O O7 0.659774 0.089073 0.547550
O O8 0.157688 0.315376 0.057217
O O9 0.284662 0.284662 0.068865
O O10 0.298071 0.399262 0.000000
O O11 0.915363 0.339250 0.287735
O O12 0.000000 0.371500 0.370933
O O13 0.000000 0.500000 0.324433
O O14 0.250639 0.501278 0.729863
O O15 0.164165 0.582083 0.749940
O O16 0.260295 0.000000 0.569085
O O17 0.087511 0.175022 0.581073
O O18 0.158567 0.158567 0.500000
#
# Coordination Sequence:
#
# PCOD8328867 Si02
#       7
#    24  12  24  12  24  12  12
#     4   9  16  28  46  67  92 121 156 195 239 290
#     4  11  22  37  56  80 108 139 172 207 248 294
#     4   9  17  28  43  65  93 124 158 196 241 291
#     4  10  21  37  52  71  99 132 165 204 250 287
#     4  10  19  32  50  71  95 125 163 205 248 291
#     4  11  21  36  58  78 104 136 176 209 243 295
#     4  10  19  33  54  82 111 136 163 199 242 288
#
# _framework density 16.64012
#
# number of rings (size 3 to 8) (size 9 to 14) (size 15 to 20)
#    0.000    2.200    2.000    2.800    0.000    2.400 
#    0.000    2.000    0.000    3.000    0.000    1.400 
#    0.000    0.000    0.000    0.000    0.000    0.000 
#
# Total GULP energy -1487200.356800 kJ/mol
# GULP energy per Si atom -12393.336307 kJ/mol
# Density = 1.660225 g / cm^3
# Si number density = 16.640120 Si / 1000 Ang^3
#
#
#
# Elastic Constant Matrix: (Units=GPa)
#
#
# Indices 1 2 3 4 5 6 
#
# 1 94.8980 42.7497 49.2311 0.0000 0.0000 0.0000
# 2 42.7497 94.8980 49.2311 0.0000 0.0000 0.0000
# 3 49.2311 49.2311 122.4255 0.0000 0.0000 0.0000
# 4 0.0000 0.0000 0.0000 14.7967 0.0000 0.0000
# 5 0.0000 0.0000 0.0000 0.0000 14.7967 0.0000
# 6 0.0000 0.0000 0.0000 0.0000 0.0000 26.0742
#
#
#
# Elastic Compliance Matrix: (Units=1/GPa)
#
#
# Indices 1 2 3 4 5 6 
#
# 1 0.014687 -0.004489 -0.004101 0.000000 0.000000 0.000000
# 2 -0.004489 0.014687 -0.004101 0.000000 0.000000 0.000000
# 3 -0.004101 -0.004101 0.011467 0.000000 0.000000 0.000000
# 4 0.000000 0.000000 0.000000 0.067583 0.000000 0.000000
# 5 0.000000 0.000000 0.000000 0.000000 0.067583 0.000000
# 6 0.000000 0.000000 0.000000 0.000000 0.000000 0.038352
#
#
# Mechanical properties :
#
#
# Convention : Reuss Voigt Hill
#
# Bulk Modulus (GPa) = 64.68669 66.07171 65.37920
# Shear Modulus (GPa) = 20.41699 22.53416 21.47557
#
# Velocity S-wave (km/s) = 3.50662 3.68395 3.59638
# Velocity P-wave (km/s) = 7.43999 7.60840 7.52467
#
# Compressibility (1/GPa) = 0.01545913
#
# Stress axis : x y z
#
# Youngs Moduli (GPa) = 68.08599 68.08599 87.20954
#
# Poissons Ratio (x) = 0.30562 0.35766
# Poissons Ratio (y) = 0.30562 0.35766
# Poissons Ratio (z) = 0.27923 0.27923
#
# Static dielectric constant tensor:
#      x y z
#    x 3.163430 0.000000 0.000000 
#    y 0.000000 3.163430 0.000000 
#    z 0.000000 0.000000 3.219470 
# 
# 
# High freq. dielectric constant tensor:
#      x y z
#    x 1.634020 0.000000 0.000000 
#    y 0.000000 1.634020 0.000000 
#    z 0.000000 0.000000 1.639990 
# 
# From -- ./inp_files/9682.got.cif
#   From: 2010.03.12/outbox.cif.g09.slc.cpg/sg191_5_cif.got.tgz:9682.got - 2010.04.01 12:09:02.
