data_PCOD8328646
_publ_section_title
;
Structure prediction by ZEFSAII (Michael W. Deem and Ramdas Pophale) SiO2 
 PCOD8328646
Probable space group: P 6/M M M
;
_chemical_formula_sum "Si O2"
_cell_formula_units_Z 168
_cell_length_a 25.984750
_cell_length_b 25.984750
_cell_length_c 19.322066
_cell_angle_alpha 90.000000
_cell_angle_beta 90.000000
_cell_angle_gamma 120.000000
_cell_volume 11298.512712
_symmetry_space_group_name_H-M "P 6/M M M"
_symmetry_group_IT_number 191
_symmetry_cell_setting 'hexagonal'
loop_
_space_group_symop_operation_xyz
x,y,z
x-y,x,z
-y,x-y,z
-x,-y,z
-x+y,-x,z
y,-x+y,z
x-y,-y,-z
-x,-x+y,-z
y,x,-z
-y,-x,-z
-x+y,y,-z
x,x-y,-z
-x,-y,-z
-x+y,-x,-z
y,-x+y,-z
x,y,-z
x-y,x,-z
-y,x-y,-z
-x+y,y,z
x,x-y,z
-y,-x,z
y,x,z
x-y,-y,z
-x,-x+y,z
loop_
_atom_site_type_symbol
_atom_site_label
_atom_site_fract_x
_atom_site_fract_y
_atom_site_fract_z
Si Si1 0.633770 0.877675 0.076133
Si Si2 0.333400 0.786299 0.289885
Si Si3 0.822056 0.295494 0.577291
Si Si4 0.067134 0.817904 0.156477
Si Si5 0.932719 0.251472 0.720449
Si Si6 0.432939 0.276996 0.792701
Si Si7 0.067338 0.718768 0.575493
O O1 0.631317 0.815659 0.069697
O O2 0.698352 0.925622 0.105528
O O3 0.581651 0.870224 0.128734
O O4 0.624235 0.897968 0.000000
O O5 0.395428 0.790856 0.273759
O O6 0.281938 0.718063 0.285213
O O7 0.334964 0.811986 0.366348
O O8 0.324538 0.825184 0.230489
O O9 0.813430 0.314429 0.500000
O O10 0.774244 0.225757 0.590450
O O11 0.888159 0.306541 0.585379
O O12 0.113218 0.886783 0.138033
O O13 0.082379 0.806578 0.234523
O O14 0.000000 0.805694 0.149636
O O15 0.893013 0.280635 0.739759
O O16 0.923291 0.235626 0.638163
O O17 0.000000 0.301486 0.736705
O O18 0.421869 0.210935 0.786602
O O19 0.078795 0.750871 0.500000
O O20 0.000000 0.663166 0.578841
#
# Coordination Sequence:
#
# PCOD8328646 Si02
#       7
#    24  24  24  24  24  24  24
#     4   8  14  25  42  64  86 105 129 163 202 245
#     4  10  19  30  44  61  81 106 138 177 215 250
#     4   9  17  28  42  59  78 105 142 179 216 258
#     4   9  17  27  41  62  89 119 147 178 215 252
#     4   9  15  24  40  61  84 108 136 171 210 254
#     4   9  16  27  43  60  80 107 136 166 203 250
#     4   9  16  25  39  60  85 110 136 170 211 254
#
# _framework density 14.869213999999999
#
# number of rings (size 3 to 8) (size 9 to 14) (size 15 to 20)
#    0.000    3.000    1.429    1.429    0.000    1.143 
#    0.000    0.000    0.000    3.143    0.000    2.000 
#    0.000    1.143    0.000   10.714    0.000    0.857 
#
# Total GULP energy -2081407.761653 kJ/mol
# GULP energy per Si atom -12389.331915 kJ/mol
# Density = 1.483537 g / cm^3
# Si number density = 14.869214 Si / 1000 Ang^3
#
#
#
# Elastic Constant Matrix: (Units=GPa)
#
#
# Indices 1 2 3 4 5 6 
#
# 1 63.3224 31.8248 34.2285 0.0000 0.0000 0.0000
# 2 31.8248 63.3224 34.2285 0.0000 0.0000 0.0000
# 3 34.2285 34.2285 119.7726 0.0000 0.0000 0.0000
# 4 0.0000 0.0000 0.0000 13.9128 0.0000 0.0000
# 5 0.0000 0.0000 0.0000 0.0000 13.9128 0.0000
# 6 0.0000 0.0000 0.0000 0.0000 0.0000 15.7488
#
#
#
# Elastic Compliance Matrix: (Units=1/GPa)
#
#
# Indices 1 2 3 4 5 6 
#
# 1 0.022489 -0.009259 -0.003781 0.000000 0.000000 0.000000
# 2 -0.009259 0.022489 -0.003781 0.000000 0.000000 0.000000
# 3 -0.003781 -0.003781 0.010510 0.000000 0.000000 0.000000
# 4 0.000000 0.000000 0.000000 0.071876 0.000000 0.000000
# 5 0.000000 0.000000 0.000000 0.000000 0.071876 0.000000
# 6 0.000000 0.000000 0.000000 0.000000 0.000000 0.063497
#
#
# Mechanical properties :
#
#
# Convention : Reuss Voigt Hill
#
# Bulk Modulus (GPa) = 45.77268 49.66457 47.71862
# Shear Modulus (GPa) = 16.46562 18.45724 17.46143
#
# Velocity S-wave (km/s) = 3.33132 3.52704 3.43057
# Velocity P-wave (km/s) = 6.75627 7.07532 6.91764
#
# Compressibility (1/GPa) = 0.02184710
#
# Stress axis : x y z
#
# Youngs Moduli (GPa) = 44.46533 44.46533 95.14567
#
# Poissons Ratio (x) = 0.41171 0.35974
# Poissons Ratio (y) = 0.41171 0.35974
# Poissons Ratio (z) = 0.16812 0.16812
#
# Static dielectric constant tensor:
#      x y z
#    x 2.653820 0.000000 0.000000 
#    y 0.000000 2.653820 0.000000 
#    z 0.000000 0.000000 3.423370 
# 
# 
# High freq. dielectric constant tensor:
#      x y z
#    x 1.538000 0.000000 0.000000 
#    y 0.000000 1.538000 0.000000 
#    z 0.000000 0.000000 1.584550 
# 
# From -- ./inp_files/7979.got.cif
#   From: 2010.03.12/outbox.cif.g09.slc.cpg/sg191_4_cif.got.tgz:7979.got - 2010.04.01 12:09:02.
