data_PCOD8328014
_publ_section_title
;
Structure prediction by ZEFSAII (Michael W. Deem and Ramdas Pophale) SiO2 
 PCOD8328014
Probable space group: P -6 2 C
;
_chemical_formula_sum "Si O2"
_cell_formula_units_Z 48
_cell_length_a 18.798130
_cell_length_b 18.798130
_cell_length_c 7.834129
_cell_angle_alpha 90.000000
_cell_angle_beta 90.000000
_cell_angle_gamma 120.000000
_cell_volume 2397.456012
_symmetry_space_group_name_H-M "P -6 2 C"
_symmetry_group_IT_number 190
_symmetry_cell_setting 'hexagonal'
loop_
_space_group_symop_operation_xyz
x,y,z
-x+y,-x,1/2-z
-y,x-y,z
x,y,1/2-z
-x+y,-x,z
-y,x-y,1/2-z
x-y,-y,-z
-x,-x+y,-z
y,x,-z
y,x,1/2+z
x-y,-y,1/2+z
-x,-x+y,1/2+z
loop_
_atom_site_type_symbol
_atom_site_label
_atom_site_fract_x
_atom_site_fract_y
_atom_site_fract_z
Si Si1 0.715656 0.188617 0.750000
Si Si2 0.155458 0.536299 0.250000
Si Si3 0.431926 0.084974 0.060070
Si Si4 0.906803 0.091042 0.948562
Si Si5 0.366349 0.209865 0.438094
O O1 0.780149 0.284568 0.750000
O O2 0.632478 0.191370 0.750000
O O3 0.723338 0.139738 0.585622
O O4 0.103939 0.503913 0.424914
O O5 0.463038 0.080113 0.250000
O O6 0.401121 0.148795 0.055293
O O7 0.354043 0.000000 0.000000
O O8 0.896881 0.098159 0.750000
O O9 0.840922 0.109471 0.037923
O O10 0.000000 0.155712 0.000000
O O11 0.886819 0.000000 0.000000
O O12 0.383637 0.252172 0.250000
#
# Coordination Sequence:
#
# PCOD8328014 Si02
#       5
#     6   6  12  12  12
#     4  10  21  40  60  88 118 158 196 238 300 360
#     4  10  21  36  60  84 118 150 188 240 286 354
#     4  10  19  33  58  87 116 143 188 239 292 342
#     4  12  24  40  61  88 122 160 209 254 303 348
#     4  10  21  38  61  88 118 157 197 247 295 356
#
# _framework density 20.021222000000002
#
# number of rings (size 3 to 8) (size 9 to 14) (size 15 to 20)
#    0.000    1.500    2.500    3.500    0.000    3.000 
#    0.000    1.250    0.000    3.000    0.000    0.000 
#    0.000    0.000    0.000    0.000    0.000    0.000 
#
# Total GULP energy -594911.129437 kJ/mol
# GULP energy per Si atom -12393.981863 kJ/mol
# Density = 1.997565 g / cm^3
# Si number density = 20.021222 Si / 1000 Ang^3
#
#
#
# Elastic Constant Matrix: (Units=GPa)
#
#
# Indices 1 2 3 4 5 6 
#
# 1 94.0895 -35.3259 32.4209 0.0000 0.0000 0.0000
# 2 -35.3259 94.0895 32.4209 0.0000 0.0000 0.0000
# 3 32.4209 32.4209 191.0233 0.0000 0.0000 0.0000
# 4 0.0000 0.0000 0.0000 15.2938 0.0000 0.0000
# 5 0.0000 0.0000 0.0000 0.0000 15.2938 0.0000
# 6 0.0000 0.0000 0.0000 0.0000 0.0000 64.7077
#
#
#
# Elastic Compliance Matrix: (Units=1/GPa)
#
#
# Indices 1 2 3 4 5 6 
#
# 1 0.014333 0.006606 -0.003554 0.000000 0.000000 0.000000
# 2 0.006606 0.014333 -0.003554 0.000000 0.000000 0.000000
# 3 -0.003554 -0.003554 0.006441 0.000000 0.000000 0.000000
# 4 0.000000 0.000000 0.000000 0.065386 0.000000 0.000000
# 5 0.000000 0.000000 0.000000 0.000000 0.065386 0.000000
# 6 0.000000 0.000000 0.000000 0.000000 0.000000 0.015454
#
#
# Mechanical properties :
#
#
# Convention : Reuss Voigt Hill
#
# Bulk Modulus (GPa) = 29.32244 48.69268 39.00756
# Shear Modulus (GPa) = 25.81250 42.37146 34.09198
#
# Velocity S-wave (km/s) = 3.59452 4.60535 4.13097
# Velocity P-wave (km/s) = 5.64844 7.25619 6.50220
#
# Compressibility (1/GPa) = 0.03410357
#
# Stress axis : x y z
#
# Youngs Moduli (GPa) = 69.76973 69.76973 155.24895
#
# Poissons Ratio (x) = -0.46089 0.55172
# Poissons Ratio (y) = -0.46089 0.55172
# Poissons Ratio (z) = 0.24794 0.24794
#
# Static dielectric constant tensor:
#      x y z
#    x 3.252100 0.000000 0.000000 
#    y 0.000000 3.252100 0.000000 
#    z 0.000000 0.000000 4.549050 
# 
# 
# High freq. dielectric constant tensor:
#      x y z
#    x 1.762030 0.000000 0.000000 
#    y 0.000000 1.762030 0.000000 
#    z 0.000000 0.000000 1.811080 
# 
# From -- ./inp_files/631.got.cif
#   From: 2010.06.25/outbox.cif.g09.slc.cpg/sg190_1_cif.got.tgz:631.got - 2010.06.28 13:08:06.
