data_PCOD8328703
_publ_section_title
;
Structure prediction by ZEFSAII (Michael W. Deem and Ramdas Pophale) SiO2 
 PCOD8328703
Probable space group: P 6/M M M
;
_chemical_formula_sum "Si O2"
_cell_formula_units_Z 132
_cell_length_a 18.256897
_cell_length_b 18.256897
_cell_length_c 28.103319
_cell_angle_alpha 90.000000
_cell_angle_beta 90.000000
_cell_angle_gamma 120.000000
_cell_volume 8112.265868
_symmetry_space_group_name_H-M "P 6/M M M"
_symmetry_group_IT_number 191
_symmetry_cell_setting 'hexagonal'
loop_
_space_group_symop_operation_xyz
x,y,z
x-y,x,z
-y,x-y,z
-x,-y,z
-x+y,-x,z
y,-x+y,z
x-y,-y,-z
-x,-x+y,-z
y,x,-z
-y,-x,-z
-x+y,y,-z
x,x-y,-z
-x,-y,-z
-x+y,-x,-z
y,-x+y,-z
x,y,-z
x-y,x,-z
-y,x-y,-z
-x+y,y,z
x,x-y,z
-y,-x,z
y,x,z
x-y,-y,z
-x,-x+y,z
loop_
_atom_site_type_symbol
_atom_site_label
_atom_site_fract_x
_atom_site_fract_y
_atom_site_fract_z
Si Si1 0.631331 0.531156 0.447047
Si Si2 0.533677 0.901941 0.185365
Si Si3 0.668562 0.502032 0.286588
Si Si4 0.736418 0.638520 0.363961
Si Si5 0.252041 0.344042 0.000000
Si Si6 0.643414 0.739863 0.103311
O O1 0.669065 0.537165 0.500000
O O2 0.567749 0.432252 0.433666
O O3 0.577853 0.577853 0.446101
O O4 0.707198 0.576671 0.409698
O O5 0.440110 0.880219 0.171101
O O6 0.531554 0.850444 0.231916
O O7 0.567550 0.873972 0.140406
O O8 0.592574 0.000000 0.197482
O O9 0.736209 0.472417 0.298541
O O10 0.574199 0.425802 0.296590
O O11 0.685962 0.581824 0.318715
O O12 0.838114 0.676228 0.358709
O O13 0.714486 0.714486 0.368561
O O14 0.290790 0.395657 0.950481
O O15 0.262278 0.262278 0.000000
O O16 0.152208 0.304416 0.000000
O O17 0.681829 0.840915 0.108654
O O18 0.717327 0.717327 0.113226
#
# Coordination Sequence:
#
# PCOD8328703 Si02
#       6
#    24  24  24  24  12  24
#     4   8  14  26  45  68  92 117 145 176 211 254
#     4   9  17  28  42  61  85 113 145 179 211 245
#     4  10  19  30  45  66  92 119 145 173 208 252
#     4  10  20  32  47  67  90 117 150 188 227 266
#     4   8  14  24  39  58  79 105 137 175 216 256
#     4   9  16  27  43  62  84 110 142 178 216 257
#
# _framework density 16.271656
#
# number of rings (size 3 to 8) (size 9 to 14) (size 15 to 20)
#    0.000    2.909    0.000    2.364    0.000    2.182 
#    0.000    0.455    0.000    3.909    0.000    2.545 
#    0.000    0.000    0.000   10.364    0.000    4.000 
#
# Total GULP energy -1635384.166898 kJ/mol
# GULP energy per Si atom -12389.273992 kJ/mol
# Density = 1.623462 g / cm^3
# Si number density = 16.271656 Si / 1000 Ang^3
#
#
#
# Elastic Constant Matrix: (Units=GPa)
#
#
# Indices 1 2 3 4 5 6 
#
# 1 68.3271 36.0349 39.8815 0.0000 0.0000 0.0000
# 2 36.0349 68.3271 39.8815 0.0000 0.0000 0.0000
# 3 39.8815 39.8815 94.1661 0.0000 0.0000 0.0000
# 4 0.0000 0.0000 0.0000 19.9437 0.0000 0.0000
# 5 0.0000 0.0000 0.0000 0.0000 19.9437 0.0000
# 6 0.0000 0.0000 0.0000 0.0000 0.0000 16.1461
#
#
#
# Elastic Compliance Matrix: (Units=1/GPa)
#
#
# Indices 1 2 3 4 5 6 
#
# 1 0.022568 -0.008399 -0.006001 0.000000 0.000000 0.000000
# 2 -0.008399 0.022568 -0.006001 0.000000 0.000000 0.000000
# 3 -0.006001 -0.006001 0.015702 0.000000 0.000000 0.000000
# 4 0.000000 0.000000 0.000000 0.050141 0.000000 0.000000
# 5 0.000000 0.000000 0.000000 0.000000 0.050141 0.000000
# 6 0.000000 0.000000 0.000000 0.000000 0.000000 0.061934
#
#
# Mechanical properties :
#
#
# Convention : Reuss Voigt Hill
#
# Bulk Modulus (GPa) = 49.90902 51.37957 50.64429
# Shear Modulus (GPa) = 18.48193 18.87486 18.67839
#
# Velocity S-wave (km/s) = 3.37387 3.40955 3.39176
# Velocity P-wave (km/s) = 6.77616 6.86620 6.82133
#
# Compressibility (1/GPa) = 0.02003646
#
# Stress axis : x y z
#
# Youngs Moduli (GPa) = 44.31108 44.31108 63.68492
#
# Poissons Ratio (x) = 0.37219 0.38215
# Poissons Ratio (y) = 0.37219 0.38215
# Poissons Ratio (z) = 0.26589 0.26589
#
# Static dielectric constant tensor:
#      x y z
#    x 2.896700 0.000000 0.000000 
#    y 0.000000 2.896700 0.000000 
#    z 0.000000 0.000000 3.456450 
# 
# 
# High freq. dielectric constant tensor:
#      x y z
#    x 1.600580 0.000000 0.000000 
#    y 0.000000 1.600580 0.000000 
#    z 0.000000 0.000000 1.646140 
# 
# From -- ./inp_files/10482.got.cif
#   From: 2010.03.12/outbox.cif.g09.slc.cpg/sg191_6_cif.got.tgz:10482.got - 2010.04.01 12:09:02.
