data_PCOD8328225
_publ_section_title
;
Structure prediction by ZEFSAII (Michael W. Deem and Ramdas Pophale) SiO2 
 PCOD8328225
Probable space group: P 6/M M M
;
_chemical_formula_sum "Si O2"
_cell_formula_units_Z 60
_cell_length_a 24.480103
_cell_length_b 24.480103
_cell_length_c 10.368757
_cell_angle_alpha 90.000000
_cell_angle_beta 90.000000
_cell_angle_gamma 120.000000
_cell_volume 5381.257943
_symmetry_space_group_name_H-M "P 6/M M M"
_symmetry_group_IT_number 191
_symmetry_cell_setting 'hexagonal'
loop_
_space_group_symop_operation_xyz
x,y,z
x-y,x,z
-y,x-y,z
-x,-y,z
-x+y,-x,z
y,-x+y,z
x-y,-y,-z
-x,-x+y,-z
y,x,-z
-y,-x,-z
-x+y,y,-z
x,x-y,-z
-x,-y,-z
-x+y,-x,-z
y,-x+y,-z
x,y,-z
x-y,x,-z
-y,x-y,-z
-x+y,y,z
x,x-y,z
-y,-x,z
y,x,z
x-y,-y,z
-x,-x+y,z
loop_
_atom_site_type_symbol
_atom_site_label
_atom_site_fract_x
_atom_site_fract_y
_atom_site_fract_z
Si Si1 0.132804 0.631342 0.755645
Si Si2 0.792480 0.460626 0.000000
Si Si3 0.203184 0.666798 0.500000
Si Si4 0.434963 0.000000 0.852826
O O1 0.133438 0.566719 0.757292
O O2 0.174046 0.675614 0.873334
O O3 0.163043 0.667317 0.622659
O O4 0.061220 0.616926 0.774619
O O5 0.719670 0.439340 0.000000
O O6 0.798490 0.399245 0.000000
O O7 0.271652 0.728349 0.500000
O O8 0.213123 0.606562 0.500000
O O9 0.500000 0.000000 0.858998
O O10 0.412489 0.000000 0.000000
#
# Coordination Sequence:
#
# PCOD8328225 Si02
#       4
#    24  12  12  12
#     4   9  17  26  38  51  63  82 105 129 161 192
#     4  10  17  25  35  49  65  85 110 132 154 188
#     4  10  19  29  37  49  69  91 110 128 154 192
#     4   9  14  25  41  53  65  77  97 135 169 189
#
# _framework density 11.149808999999999
#
# number of rings (size 3 to 8) (size 9 to 14) (size 15 to 20)
#    0.000    2.600    2.000    1.600    0.000    0.800 
#    0.000    8.000    0.000    0.000    0.000    0.000 
#    0.000    0.000    0.000    0.000    0.000    0.000 
#
# Total GULP energy -743674.186897 kJ/mol
# GULP energy per Si atom -12394.569782 kJ/mol
# Density = 1.112443 g / cm^3
# Si number density = 11.149809 Si / 1000 Ang^3
#
#
#
# Elastic Constant Matrix: (Units=GPa)
#
#
# Indices 1 2 3 4 5 6 
#
# 1 34.5757 22.7086 32.3242 0.0000 0.0000 0.0000
# 2 22.7086 34.5757 32.3242 0.0000 0.0000 0.0000
# 3 32.3242 32.3242 113.7429 0.0000 0.0000 0.0000
# 4 0.0000 0.0000 0.0000 14.4660 0.0000 0.0000
# 5 0.0000 0.0000 0.0000 0.0000 14.4660 0.0000
# 6 0.0000 0.0000 0.0000 0.0000 0.0000 5.9335
#
#
#
# Elastic Compliance Matrix: (Units=1/GPa)
#
#
# Indices 1 2 3 4 5 6 
#
# 1 0.054983 -0.029284 -0.007303 0.000000 0.000000 0.000000
# 2 -0.029284 0.054983 -0.007303 0.000000 0.000000 0.000000
# 3 -0.007303 -0.007303 0.012943 0.000000 0.000000 0.000000
# 4 0.000000 0.000000 0.000000 0.069128 0.000000 0.000000
# 5 0.000000 0.000000 0.000000 0.000000 0.069128 0.000000
# 6 0.000000 0.000000 0.000000 0.000000 0.000000 0.168533
#
#
# Mechanical properties :
#
#
# Convention : Reuss Voigt Hill
#
# Bulk Modulus (GPa) = 28.46773 39.73423 34.10098
# Shear Modulus (GPa) = 9.44846 13.34226 11.39536
#
# Velocity S-wave (km/s) = 2.91419 3.46299 3.20038
# Velocity P-wave (km/s) = 6.07542 7.19054 6.65637
#
# Compressibility (1/GPa) = 0.03512750
#
# Stress axis : x y z
#
# Youngs Moduli (GPa) = 18.18751 18.18751 77.26338
#
# Poissons Ratio (x) = 0.53260 0.56428
# Poissons Ratio (y) = 0.53260 0.56428
# Poissons Ratio (z) = 0.13283 0.13283
#
# Static dielectric constant tensor:
#      x y z
#    x 2.186340 0.000000 0.000000 
#    y 0.000000 2.186340 0.000000 
#    z 0.000000 0.000000 2.670710 
# 
# 
# High freq. dielectric constant tensor:
#      x y z
#    x 1.383060 0.000000 0.000000 
#    y 0.000000 1.383060 0.000000 
#    z 0.000000 0.000000 1.440930 
# 
# From -- ./inp_files/811.got.cif
#   From: 2010.03.12/outbox.cif.g09.slc.cpg/sg191_1_cif.got.tgz:811.got - 2010.04.01 12:09:02.
