data_PCOD8328990
_publ_section_title
;
Structure prediction by ZEFSAII (Michael W. Deem and Ramdas Pophale) SiO2 
 PCOD8328990
Probable space group: P 6/M M M
;
_chemical_formula_sum "Si O2"
_cell_formula_units_Z 132
_cell_length_a 18.143206
_cell_length_b 18.143206
_cell_length_c 27.868357
_cell_angle_alpha 90.000000
_cell_angle_beta 90.000000
_cell_angle_gamma 120.000000
_cell_volume 7944.563859
_symmetry_space_group_name_H-M "P 6/M M M"
_symmetry_group_IT_number 191
_symmetry_cell_setting 'hexagonal'
loop_
_space_group_symop_operation_xyz
x,y,z
x-y,x,z
-y,x-y,z
-x,-y,z
-x+y,-x,z
y,-x+y,z
x-y,-y,-z
-x,-x+y,-z
y,x,-z
-y,-x,-z
-x+y,y,-z
x,x-y,-z
-x,-y,-z
-x+y,-x,-z
y,-x+y,-z
x,y,-z
x-y,x,-z
-y,x-y,-z
-x+y,y,z
x,x-y,z
-y,-x,z
y,x,z
x-y,-y,z
-x,-x+y,z
loop_
_atom_site_type_symbol
_atom_site_label
_atom_site_fract_x
_atom_site_fract_y
_atom_site_fract_z
Si Si1 0.262246 0.902370 0.632337
Si Si2 0.333563 0.835038 0.188357
Si Si3 0.903449 0.371543 0.287890
Si Si4 0.666346 0.502284 0.444855
Si Si5 0.734077 0.096151 0.000000
Si Si6 0.495768 0.333269 0.082010
O O1 0.160240 0.839760 0.626269
O O2 0.289045 0.865422 0.678282
O O3 0.312855 0.897762 0.586132
O O4 0.283528 0.000000 0.638712
O O5 0.401860 0.803719 0.187751
O O6 0.243722 0.756278 0.200840
O O7 0.350379 0.901086 0.231191
O O8 0.335191 0.873538 0.135680
O O9 0.858328 0.429164 0.296277
O O10 0.000000 0.427130 0.303930
O O11 0.662649 0.525752 0.500000
O O12 0.737949 0.475899 0.437004
O O13 0.576482 0.423519 0.428253
O O14 0.688824 0.107441 0.046534
O O15 0.835382 0.164619 0.000000
O O16 0.718436 0.000000 0.000000
O O17 0.524354 0.262177 0.079096
O O18 0.576406 0.423595 0.067594
#
# Coordination Sequence:
#
# PCOD8328990 Si02
#       6
#    24  24  24  24  12  24
#     4  10  20  33  48  65  86 113 146 185 228 272
#     4   9  16  26  40  59  85 118 154 185 209 235
#     4   9  17  28  42  62  88 116 145 178 217 260
#     4   9  17  29  46  69  97 127 155 180 206 240
#     4  10  21  35  49  66  87 111 140 178 225 271
#     4   9  17  28  43  64  92 126 159 187 212 241
#
# _framework density 16.615136
#
# number of rings (size 3 to 8) (size 9 to 14) (size 15 to 20)
#    0.000    2.727    0.000    1.909    0.000    5.091 
#    0.000    3.636    0.000    6.091    0.000    0.000 
#    0.000    0.000    0.000    4.545    0.000   23.636 
#
# Total GULP energy -1635821.002798 kJ/mol
# GULP energy per Si atom -12392.583355 kJ/mol
# Density = 1.657732 g / cm^3
# Si number density = 16.615136 Si / 1000 Ang^3
#
#
#
# Elastic Constant Matrix: (Units=GPa)
#
#
# Indices 1 2 3 4 5 6 
#
# 1 70.1820 40.2539 30.6982 0.0000 0.0000 0.0000
# 2 40.2539 70.1820 30.6982 0.0000 0.0000 0.0000
# 3 30.6982 30.6982 93.0250 0.0000 0.0000 0.0000
# 4 0.0000 0.0000 0.0000 19.9002 0.0000 0.0000
# 5 0.0000 0.0000 0.0000 0.0000 19.9002 0.0000
# 6 0.0000 0.0000 0.0000 0.0000 0.0000 14.9640
#
#
#
# Elastic Compliance Matrix: (Units=1/GPa)
#
#
# Indices 1 2 3 4 5 6 
#
# 1 0.022251 -0.011162 -0.003660 0.000000 0.000000 0.000000
# 2 -0.011162 0.022251 -0.003660 0.000000 0.000000 0.000000
# 3 -0.003660 -0.003660 0.013165 0.000000 0.000000 0.000000
# 4 0.000000 0.000000 0.000000 0.050251 0.000000 0.000000
# 5 0.000000 0.000000 0.000000 0.000000 0.050251 0.000000
# 6 0.000000 0.000000 0.000000 0.000000 0.000000 0.066827
#
#
# Mechanical properties :
#
#
# Convention : Reuss Voigt Hill
#
# Bulk Modulus (GPa) = 48.29518 48.52106 48.40812
# Shear Modulus (GPa) = 18.59701 19.73547 19.16624
#
# Velocity S-wave (km/s) = 3.34920 3.45019 3.40007
# Velocity P-wave (km/s) = 6.63975 6.71849 6.67923
#
# Compressibility (1/GPa) = 0.02070600
#
# Stress axis : x y z
#
# Youngs Moduli (GPa) = 44.94084 44.94084 75.95846
#
# Poissons Ratio (x) = 0.50163 0.27797
# Poissons Ratio (y) = 0.50163 0.27797
# Poissons Ratio (z) = 0.16446 0.16446
#
# Static dielectric constant tensor:
#      x y z
#    x 2.871010 0.000000 0.000000 
#    y 0.000000 2.871010 0.000000 
#    z 0.000000 0.000000 3.413120 
# 
# 
# High freq. dielectric constant tensor:
#      x y z
#    x 1.608620 0.000000 0.000000 
#    y 0.000000 1.608620 0.000000 
#    z 0.000000 0.000000 1.660330 
# 
# From -- ./inp_files/9707.got.cif
#   From: 2010.03.12/outbox.cif.g09.slc.cpg/sg191_5_cif.got.tgz:9707.got - 2010.04.01 12:09:02.
