data_PCOD8328775
_publ_section_title
;
Structure prediction by ZEFSAII (Michael W. Deem and Ramdas Pophale) SiO2 
 PCOD8328775
Probable space group: P 6/M M M
;
_chemical_formula_sum "Si O2"
_cell_formula_units_Z 132
_cell_length_a 27.142982
_cell_length_b 27.142982
_cell_length_c 13.338961
_cell_angle_alpha 90.000000
_cell_angle_beta 90.000000
_cell_angle_gamma 120.000000
_cell_volume 8510.748401
_symmetry_space_group_name_H-M "P 6/M M M"
_symmetry_group_IT_number 191
_symmetry_cell_setting 'hexagonal'
loop_
_space_group_symop_operation_xyz
x,y,z
x-y,x,z
-y,x-y,z
-x,-y,z
-x+y,-x,z
y,-x+y,z
x-y,-y,-z
-x,-x+y,-z
y,x,-z
-y,-x,-z
-x+y,y,-z
x,x-y,-z
-x,-y,-z
-x+y,-x,-z
y,-x+y,-z
x,y,-z
x-y,x,-z
-y,x-y,-z
-x+y,y,z
x,x-y,z
-y,-x,z
y,x,z
x-y,-y,z
-x,-x+y,z
loop_
_atom_site_type_symbol
_atom_site_label
_atom_site_fract_x
_atom_site_fract_y
_atom_site_fract_z
Si Si1 0.063644 0.825839 0.115863
Si Si2 0.602489 0.933059 0.615357
Si Si3 0.495681 0.106917 0.758183
Si Si4 0.289122 0.465880 0.884902
Si Si5 0.000000 0.441858 0.889024
Si Si6 0.119777 0.351845 0.768492
O O1 0.108223 0.891778 0.142135
O O2 0.076285 0.783736 0.180220
O O3 0.000000 0.813005 0.140697
O O4 0.069371 0.813595 0.000000
O O5 0.601370 0.916802 0.500000
O O6 0.537165 0.901006 0.653863
O O7 0.639524 0.911111 0.673566
O O8 0.629420 0.000000 0.630885
O O9 0.554228 0.108456 0.735346
O O10 0.507474 0.164187 0.815919
O O11 0.452534 0.055601 0.829893
O O12 0.242781 0.485561 0.870441
O O13 0.264389 0.400986 0.850602
O O14 0.308284 0.471416 0.000000
O O15 0.000000 0.500000 0.898353
O O16 0.000000 0.417882 0.000000
O O17 0.175835 0.351669 0.729587
#
# Coordination Sequence:
#
# PCOD8328775 Si02
#       6
#    24  24  24  24  12  24
#     4   9  16  26  42  64  90 120 153 188 225 266
#     4  10  20  32  45  62  87 119 152 186 225 269
#     4  10  19  31  46  65  88 116 149 183 218 260
#     4   9  17  29  45  65  89 115 141 172 217 271
#     4   9  16  26  41  63  89 113 138 172 215 259
#     4   9  17  29  45  64  86 113 147 186 225 266
#
# _framework density 15.509798999999999
#
# number of rings (size 3 to 8) (size 9 to 14) (size 15 to 20)
#    0.000    2.636    0.909    1.636    0.000    4.000 
#    0.000    0.909    0.000    0.545    0.000    1.273 
#    0.000    0.000    0.000    0.545    0.000    0.727 
#
# Total GULP energy -1636617.047277 kJ/mol
# GULP energy per Si atom -12398.613995 kJ/mol
# Density = 1.547450 g / cm^3
# Si number density = 15.509799 Si / 1000 Ang^3
#
#
#
# Elastic Constant Matrix: (Units=GPa)
#
#
# Indices 1 2 3 4 5 6 
#
# 1 82.7909 43.0003 43.1162 0.0000 0.0000 0.0000
# 2 43.0003 82.7909 43.1162 0.0000 0.0000 0.0000
# 3 43.1162 43.1162 96.1206 0.0000 0.0000 0.0000
# 4 0.0000 0.0000 0.0000 20.4472 0.0000 0.0000
# 5 0.0000 0.0000 0.0000 0.0000 20.4472 0.0000
# 6 0.0000 0.0000 0.0000 0.0000 0.0000 19.8953
#
#
#
# Elastic Compliance Matrix: (Units=1/GPa)
#
#
# Indices 1 2 3 4 5 6 
#
# 1 0.018306 -0.006826 -0.005149 0.000000 0.000000 0.000000
# 2 -0.006826 0.018306 -0.005149 0.000000 0.000000 0.000000
# 3 -0.005149 -0.005149 0.015023 0.000000 0.000000 0.000000
# 4 0.000000 0.000000 0.000000 0.048906 0.000000 0.000000
# 5 0.000000 0.000000 0.000000 0.000000 0.048906 0.000000
# 6 0.000000 0.000000 0.000000 0.000000 0.000000 0.050263
#
#
# Mechanical properties :
#
#
# Convention : Reuss Voigt Hill
#
# Bulk Modulus (GPa) = 57.52043 57.79641 57.65842
# Shear Modulus (GPa) = 20.85465 20.98927 20.92196
#
# Velocity S-wave (km/s) = 3.67087 3.68270 3.67679
# Velocity P-wave (km/s) = 7.42523 7.44502 7.43514
#
# Compressibility (1/GPa) = 0.01738513
#
# Stress axis : x y z
#
# Youngs Moduli (GPa) = 54.62812 54.62812 66.56363
#
# Poissons Ratio (x) = 0.37289 0.34276
# Poissons Ratio (y) = 0.37289 0.34276
# Poissons Ratio (z) = 0.28130 0.28130
#
# Static dielectric constant tensor:
#      x y z
#    x 2.943580 0.000000 0.000000 
#    y 0.000000 2.943580 0.000000 
#    z 0.000000 0.000000 2.903810 
# 
# 
# High freq. dielectric constant tensor:
#      x y z
#    x 1.584570 0.000000 0.000000 
#    y 0.000000 1.584570 0.000000 
#    z 0.000000 0.000000 1.585760 
# 
# From -- ./inp_files/3357.got.cif
#   From: 2010.03.12/outbox.cif.g09.slc.cpg/sg191_2_cif.got.tgz:3357.got - 2010.04.01 12:09:02.
