data_PCOD8328763
_publ_section_title
;
Structure prediction by ZEFSAII (Michael W. Deem and Ramdas Pophale) SiO2 
 PCOD8328763
Probable space group: P 6/M M M
;
_chemical_formula_sum "Si O2"
_cell_formula_units_Z 168
_cell_length_a 22.476778
_cell_length_b 22.476778
_cell_length_c 23.368379
_cell_angle_alpha 90.000000
_cell_angle_beta 90.000000
_cell_angle_gamma 120.000000
_cell_volume 10224.152805
_symmetry_space_group_name_H-M "P 6/M M M"
_symmetry_group_IT_number 191
_symmetry_cell_setting 'hexagonal'
loop_
_space_group_symop_operation_xyz
x,y,z
x-y,x,z
-y,x-y,z
-x,-y,z
-x+y,-x,z
y,-x+y,z
x-y,-y,-z
-x,-x+y,-z
y,x,-z
-y,-x,-z
-x+y,y,-z
x,x-y,-z
-x,-y,-z
-x+y,-x,-z
y,-x+y,-z
x,y,-z
x-y,x,-z
-y,x-y,-z
-x+y,y,z
x,x-y,z
-y,-x,z
y,x,z
x-y,-y,z
-x,-x+y,z
loop_
_atom_site_type_symbol
_atom_site_label
_atom_site_fract_x
_atom_site_fract_y
_atom_site_fract_z
Si Si1 0.469865 0.803134 0.066741
Si Si2 0.080554 0.408042 0.131918
Si Si3 0.285622 0.209260 0.065681
Si Si4 0.209394 0.922572 0.662873
Si Si5 0.264056 0.872198 0.565229
Si Si6 0.608318 0.526698 0.635962
Si Si7 0.395705 0.080873 0.739872
O O1 0.392176 0.784351 0.079634
O O2 0.478927 0.739464 0.087548
O O3 0.520848 0.873469 0.099300
O O4 0.486838 0.816737 0.000000
O O5 0.092952 0.350044 0.104642
O O6 0.109841 0.419903 0.196628
O O7 0.000000 0.386223 0.128187
O O8 0.259819 0.129910 0.079990
O O9 0.222532 0.222532 0.078312
O O10 0.309888 0.226646 0.000000
O O11 0.127370 0.872631 0.662087
O O12 0.243747 0.918915 0.603428
O O13 0.240223 0.897880 0.714233
O O14 0.224927 0.000000 0.671673
O O15 0.269252 0.896617 0.500000
O O16 0.207805 0.792196 0.572569
O O17 0.337118 0.882570 0.585081
O O18 0.553269 0.446732 0.630726
O O19 0.573673 0.573673 0.629875
O O20 0.645988 0.539278 0.697477
O O21 0.357463 0.000000 0.743970
#
# Coordination Sequence:
#
# PCOD8328763 Si02
#       7
#    24  24  24  24  24  24  24
#     4  10  21  36  51  65  85 117 155 190 223 264
#     4  10  19  30  48  73  95 115 142 182 233 280
#     4   9  17  29  45  66  93 122 150 182 223 271
#     4   9  17  29  45  65  90 120 152 186 224 266
#     4   9  17  29  45  65  90 119 149 182 220 261
#     4   9  17  29  46  67  90 116 144 176 215 257
#     4   8  16  30  45  64  91 119 145 173 211 264
#
# _framework density 16.431678999999999
#
# number of rings (size 3 to 8) (size 9 to 14) (size 15 to 20)
#    0.000    2.857    0.000    2.286    0.000    6.000 
#    0.000    2.857    0.000    0.571    0.000    1.000 
#    0.000    0.000    0.000   10.714    0.000    3.714 
#
# Total GULP energy -2082717.378172 kJ/mol
# GULP energy per Si atom -12397.127251 kJ/mol
# Density = 1.639428 g / cm^3
# Si number density = 16.431679 Si / 1000 Ang^3
#
#
#
# Elastic Constant Matrix: (Units=GPa)
#
#
# Indices 1 2 3 4 5 6 
#
# 1 83.1794 42.0889 33.1765 0.0000 0.0000 0.0000
# 2 42.0889 83.1794 33.1765 0.0000 0.0000 0.0000
# 3 33.1765 33.1765 86.6172 0.0000 0.0000 0.0000
# 4 0.0000 0.0000 0.0000 13.6282 0.0000 0.0000
# 5 0.0000 0.0000 0.0000 0.0000 13.6282 0.0000
# 6 0.0000 0.0000 0.0000 0.0000 0.0000 20.5453
#
#
#
# Elastic Compliance Matrix: (Units=1/GPa)
#
#
# Indices 1 2 3 4 5 6 
#
# 1 0.017176 -0.007161 -0.003836 0.000000 0.000000 0.000000
# 2 -0.007161 0.017176 -0.003836 0.000000 0.000000 0.000000
# 3 -0.003836 -0.003836 0.014484 0.000000 0.000000 0.000000
# 4 0.000000 0.000000 0.000000 0.073377 0.000000 0.000000
# 5 0.000000 0.000000 0.000000 0.000000 0.073377 0.000000
# 6 0.000000 0.000000 0.000000 0.000000 0.000000 0.048673
#
#
# Mechanical properties :
#
#
# Convention : Reuss Voigt Hill
#
# Bulk Modulus (GPa) = 52.16647 52.20664 52.18656
# Shear Modulus (GPa) = 17.83692 19.19593 18.51642
#
# Velocity S-wave (km/s) = 3.29830 3.42164 3.36054
# Velocity P-wave (km/s) = 6.80599 6.88848 6.84735
#
# Compressibility (1/GPa) = 0.01916940
#
# Stress axis : x y z
#
# Youngs Moduli (GPa) = 58.22215 58.22215 69.04406
#
# Poissons Ratio (x) = 0.41692 0.26484
# Poissons Ratio (y) = 0.41692 0.26484
# Poissons Ratio (z) = 0.22333 0.22333
#
# Static dielectric constant tensor:
#      x y z
#    x 3.004190 0.000000 0.000000 
#    y 0.000000 3.004190 0.000000 
#    z 0.000000 0.000000 3.386690 
# 
# 
# High freq. dielectric constant tensor:
#      x y z
#    x 1.615330 0.000000 0.000000 
#    y 0.000000 1.615330 0.000000 
#    z 0.000000 0.000000 1.636960 
# 
# From -- ./inp_files/7944.got.cif
#   From: 2010.03.12/outbox.cif.g09.slc.cpg/sg191_4_cif.got.tgz:7944.got - 2010.04.01 12:09:02.
