data_PCOD8328281
_publ_section_title
;
Structure prediction by ZEFSAII (Michael W. Deem and Ramdas Pophale) SiO2 
 PCOD8328281
Probable space group: P 6/M M M
;
_chemical_formula_sum "Si O2"
_cell_formula_units_Z 132
_cell_length_a 18.546320
_cell_length_b 18.546320
_cell_length_c 29.810324
_cell_angle_alpha 90.000000
_cell_angle_beta 90.000000
_cell_angle_gamma 120.000000
_cell_volume 8879.997136
_symmetry_space_group_name_H-M "P 6/M M M"
_symmetry_group_IT_number 191
_symmetry_cell_setting 'hexagonal'
loop_
_space_group_symop_operation_xyz
x,y,z
x-y,x,z
-y,x-y,z
-x,-y,z
-x+y,-x,z
y,-x+y,z
x-y,-y,-z
-x,-x+y,-z
y,x,-z
-y,-x,-z
-x+y,y,-z
x,x-y,-z
-x,-y,-z
-x+y,-x,-z
y,-x+y,-z
x,y,-z
x-y,x,-z
-y,x-y,-z
-x+y,y,z
x,x-y,z
-y,-x,z
y,x,z
x-y,-y,z
-x,-x+y,z
loop_
_atom_site_type_symbol
_atom_site_label
_atom_site_fract_x
_atom_site_fract_y
_atom_site_fract_z
Si Si1 0.668874 0.169788 0.285540
Si Si2 0.651444 0.906143 0.551384
Si Si3 0.368402 0.460755 0.804837
Si Si4 0.370364 0.902179 0.622484
Si Si5 0.585509 0.000000 0.949224
Si Si6 0.502450 0.668435 0.101843
O O1 0.576043 0.152085 0.285455
O O2 0.732299 0.267702 0.283381
O O3 0.682431 0.126583 0.241678
O O4 0.682420 0.132624 0.331601
O O5 0.623460 0.902230 0.500000
O O6 0.687385 0.843693 0.559626
O O7 0.568796 0.876125 0.580944
O O8 0.723351 0.000000 0.564102
O O9 0.455820 0.544181 0.800665
O O10 0.383671 0.383671 0.813800
O O11 0.318338 0.470514 0.846070
O O12 0.432868 0.865736 0.614355
O O13 0.423508 0.000000 0.627320
O O14 0.570523 0.915470 0.925261
O O15 0.500000 0.000000 0.946999
O O16 0.614455 0.000000 0.000000
O O17 0.503832 0.751916 0.084781
O O18 0.409765 0.590236 0.094994
#
# Coordination Sequence:
#
# PCOD8328281 Si02
#       6
#    24  24  24  24  12  24
#     4  10  18  26  37  54  78 106 137 173 210 246
#     4   9  17  29  45  63  82 105 135 172 213 257
#     4   9  16  27  41  56  77 107 140 173 211 252
#     4   9  17  28  41  58  79 105 138 173 208 248
#     4   9  18  32  46  60  84 116 145 177 218 258
#     4  10  18  29  45  65  87 113 148 186 219 253
#
# _framework density 14.864869000000001
#
# number of rings (size 3 to 8) (size 9 to 14) (size 15 to 20)
#    0.000    2.636    0.909    2.000    0.000    2.909 
#    0.000    3.636    0.000    1.636    0.000    1.273 
#    0.000    0.000    0.000    0.273    0.000    1.182 
#
# Total GULP energy -1636018.032943 kJ/mol
# GULP energy per Si atom -12394.076007 kJ/mol
# Density = 1.483104 g / cm^3
# Si number density = 14.864869 Si / 1000 Ang^3
#
#
#
# Elastic Constant Matrix: (Units=GPa)
#
#
# Indices 1 2 3 4 5 6 
#
# 1 62.8778 31.0505 37.6688 0.0000 0.0000 0.0000
# 2 31.0505 62.8778 37.6688 0.0000 0.0000 0.0000
# 3 37.6688 37.6688 101.2072 0.0000 0.0000 0.0000
# 4 0.0000 0.0000 0.0000 14.5919 0.0000 0.0000
# 5 0.0000 0.0000 0.0000 0.0000 14.5919 0.0000
# 6 0.0000 0.0000 0.0000 0.0000 0.0000 15.9136
#
#
#
# Elastic Compliance Matrix: (Units=1/GPa)
#
#
# Indices 1 2 3 4 5 6 
#
# 1 0.023298 -0.008121 -0.005649 0.000000 0.000000 0.000000
# 2 -0.008121 0.023298 -0.005649 0.000000 0.000000 0.000000
# 3 -0.005649 -0.005649 0.014086 0.000000 0.000000 0.000000
# 4 0.000000 0.000000 0.000000 0.068531 0.000000 0.000000
# 5 0.000000 0.000000 0.000000 0.000000 0.068531 0.000000
# 6 0.000000 0.000000 0.000000 0.000000 0.000000 0.062839
#
#
# Mechanical properties :
#
#
# Convention : Reuss Voigt Hill
#
# Bulk Modulus (GPa) = 45.77783 48.85987 47.31885
# Shear Modulus (GPa) = 16.30238 17.05779 16.68008
#
# Velocity S-wave (km/s) = 3.31525 3.39119 3.35343
# Velocity P-wave (km/s) = 6.74665 6.94797 6.84805
#
# Compressibility (1/GPa) = 0.02184464
#
# Stress axis : x y z
#
# Youngs Moduli (GPa) = 42.92132 42.92132 70.99397
#
# Poissons Ratio (x) = 0.34857 0.40104
# Poissons Ratio (y) = 0.34857 0.40104
# Poissons Ratio (z) = 0.24246 0.24246
#
# Static dielectric constant tensor:
#      x y z
#    x 2.727460 0.000000 0.000000 
#    y 0.000000 2.727460 0.000000 
#    z 0.000000 0.000000 3.156890 
# 
# 
# High freq. dielectric constant tensor:
#      x y z
#    x 1.539510 0.000000 0.000000 
#    y 0.000000 1.539510 0.000000 
#    z 0.000000 0.000000 1.584370 
# 
# From -- ./inp_files/10562.got.cif
#   From: 2010.03.12/outbox.cif.g09.slc.cpg/sg191_6_cif.got.tgz:10562.got - 2010.04.01 12:09:02.
