data_PCOD8328879
_publ_section_title
;
Structure prediction by ZEFSAII (Michael W. Deem and Ramdas Pophale) SiO2 
 PCOD8328879
Probable space group: P 6/M M M
;
_chemical_formula_sum "Si O2"
_cell_formula_units_Z 132
_cell_length_a 26.696494
_cell_length_b 26.696494
_cell_length_c 12.060189
_cell_angle_alpha 90.000000
_cell_angle_beta 90.000000
_cell_angle_gamma 120.000000
_cell_volume 7443.774455
_symmetry_space_group_name_H-M "P 6/M M M"
_symmetry_group_IT_number 191
_symmetry_cell_setting 'hexagonal'
loop_
_space_group_symop_operation_xyz
x,y,z
x-y,x,z
-y,x-y,z
-x,-y,z
-x+y,-x,z
y,-x+y,z
x-y,-y,-z
-x,-x+y,-z
y,x,-z
-y,-x,-z
-x+y,y,-z
x,x-y,-z
-x,-y,-z
-x+y,-x,-z
y,-x+y,-z
x,y,-z
x-y,x,-z
-y,x-y,-z
-x+y,y,z
x,x-y,z
-y,-x,z
y,x,z
x-y,-y,z
-x,-x+y,z
loop_
_atom_site_type_symbol
_atom_site_label
_atom_site_fract_x
_atom_site_fract_y
_atom_site_fract_z
Si Si1 0.673264 0.738105 0.000000
Si Si2 0.234246 0.880587 0.230746
Si Si3 0.932651 0.466326 0.630077
Si Si4 0.883115 0.351638 0.230984
Si Si5 0.555612 0.936449 0.000000
Si Si6 0.241519 0.176724 0.369667
Si Si7 0.668289 0.221577 0.123829
O O1 0.673086 0.772899 0.108244
O O2 0.616417 0.676811 0.000000
O O3 0.729000 0.729000 0.000000
O O4 0.188040 0.811961 0.243261
O O5 0.300568 0.897173 0.256919
O O6 0.220880 0.917753 0.316995
O O7 0.920806 0.460403 0.500000
O O8 0.905563 0.504594 0.675847
O O9 0.000000 0.500000 0.659323
O O10 0.813861 0.319503 0.217395
O O11 0.906233 0.383786 0.112738
O O12 0.563523 0.000000 0.000000
O O13 0.251113 0.184119 0.500000
O O14 0.220929 0.110465 0.333557
O O15 0.193284 0.193284 0.331778
O O16 0.603612 0.207223 0.137074
O O17 0.710922 0.289079 0.146040
O O18 0.679032 0.204809 0.000000
#
# Coordination Sequence:
#
# PCOD8328879 Si02
#       7
#    12  24  12  24  12  24  24
#     4   9  17  29  46  72 111 148 176 205 247 308
#     4  10  20  32  51  79 109 143 180 218 265 314
#     4  11  26  43  57  75 101 138 181 227 281 335
#     4  11  20  36  54  76 105 136 176 218 267 329
#     4   9  18  30  49  75  99 129 165 207 257 313
#     4   9  18  33  53  77 105 138 179 223 264 308
#     4  10  19  32  52  80 108 132 164 208 265 322
#
# _framework density 17.732938999999998
#
# number of rings (size 3 to 8) (size 9 to 14) (size 15 to 20)
#    0.000    2.091    1.818    2.091    0.000    4.000 
#    0.000    2.727    0.000    1.818    0.000    1.273 
#    0.000    0.000    0.000    0.000    0.000   18.909 
#
# Total GULP energy -1636041.625393 kJ/mol
# GULP energy per Si atom -12394.254738 kJ/mol
# Density = 1.769258 g / cm^3
# Si number density = 17.732939 Si / 1000 Ang^3
#
#
#
# Elastic Constant Matrix: (Units=GPa)
#
#
# Indices 1 2 3 4 5 6 
#
# 1 99.4735 55.0753 37.8701 0.0000 0.0000 0.0000
# 2 55.0753 99.4735 37.8701 0.0000 0.0000 0.0000
# 3 37.8701 37.8701 59.2866 0.0000 0.0000 0.0000
# 4 0.0000 0.0000 0.0000 25.3619 0.0000 0.0000
# 5 0.0000 0.0000 0.0000 0.0000 25.3619 0.0000
# 6 0.0000 0.0000 0.0000 0.0000 0.0000 22.1991
#
#
#
# Elastic Compliance Matrix: (Units=1/GPa)
#
#
# Indices 1 2 3 4 5 6 
#
# 1 0.015971 -0.006552 -0.006016 0.000000 0.000000 0.000000
# 2 -0.006552 0.015971 -0.006016 0.000000 0.000000 0.000000
# 3 -0.006016 -0.006016 0.024553 0.000000 0.000000 0.000000
# 4 0.000000 0.000000 0.000000 0.039429 0.000000 0.000000
# 5 0.000000 0.000000 0.000000 0.000000 0.039429 0.000000
# 6 0.000000 0.000000 0.000000 0.000000 0.000000 0.045047
#
#
# Mechanical properties :
#
#
# Convention : Reuss Voigt Hill
#
# Bulk Modulus (GPa) = 51.74531 57.76273 54.75402
# Shear Modulus (GPa) = 22.32007 23.07910 22.69959
#
# Velocity S-wave (km/s) = 3.55164 3.61152 3.58170
# Velocity P-wave (km/s) = 6.78694 7.07355 6.93173
#
# Compressibility (1/GPa) = 0.01932542
#
# Stress axis : x y z
#
# Youngs Moduli (GPa) = 62.61266 62.61266 40.72745
#
# Poissons Ratio (x) = 0.41025 0.24504
# Poissons Ratio (y) = 0.41025 0.24504
# Poissons Ratio (z) = 0.37671 0.37671
#
# Static dielectric constant tensor:
#      x y z
#    x 3.331790 0.000000 0.000000 
#    y 0.000000 3.331790 0.000000 
#    z 0.000000 0.000000 3.221250 
# 
# 
# High freq. dielectric constant tensor:
#      x y z
#    x 1.684020 0.000000 0.000000 
#    y 0.000000 1.684020 0.000000 
#    z 0.000000 0.000000 1.666410 
# 
# From -- ./inp_files/3401.got.cif
#   From: 2010.03.12/outbox.cif.g09.slc.cpg/sg191_2_cif.got.tgz:3401.got - 2010.04.01 12:09:02.
