data_PCOD8328090
_publ_section_title
;
Structure prediction by ZEFSAII (Michael W. Deem and Ramdas Pophale) SiO2 
 PCOD8328090
Probable space group: P -6 2 C
;
_chemical_formula_sum "Si O2"
_cell_formula_units_Z 52
_cell_length_a 14.963751
_cell_length_b 14.963751
_cell_length_c 13.676362
_cell_angle_alpha 90.000000
_cell_angle_beta 90.000000
_cell_angle_gamma 120.000000
_cell_volume 2652.052792
_symmetry_space_group_name_H-M "P -6 2 C"
_symmetry_group_IT_number 190
_symmetry_cell_setting 'hexagonal'
loop_
_space_group_symop_operation_xyz
x,y,z
-x+y,-x,1/2-z
-y,x-y,z
x,y,1/2-z
-x+y,-x,z
-y,x-y,1/2-z
x-y,-y,-z
-x,-x+y,-z
y,x,-z
y,x,1/2+z
x-y,-y,1/2+z
-x,-x+y,1/2+z
loop_
_atom_site_type_symbol
_atom_site_label
_atom_site_fract_x
_atom_site_fract_y
_atom_site_fract_z
Si Si1 0.139025 0.636909 0.533294
Si Si2 0.168622 0.286004 0.496398
Si Si3 0.729184 0.731824 0.361632
Si Si4 0.666668 0.333334 0.366756
Si Si5 0.453673 0.955176 0.362732
O O1 0.119741 0.726279 0.495805
O O2 0.245843 0.687837 0.591498
O O3 0.137746 0.571548 0.437007
O O4 0.051031 0.564999 0.610320
O O5 0.192611 0.192611 0.500000
O O6 0.106973 0.275122 0.396970
O O7 0.098092 0.279598 0.586851
O O8 0.759475 0.747379 0.250000
O O9 0.619607 0.630758 0.381894
O O10 0.666667 0.333334 0.250000
O O11 0.452264 0.921784 0.250000
#
# Coordination Sequence:
#
# PCOD8328090 Si02
#       5
#    12  12  12   4  12
#     4  11  21  38  59  92 125 157 195 254 295 359
#     4  11  22  41  63  88 119 155 199 255 304 354
#     4  10  23  42  63  85 119 164 202 243 305 368
#     4  12  24  36  58  89 124 159 198 246 301 362
#     4  10  20  38  62  89 123 163 202 242 301 368
#
# _framework density 19.607451999999999
#
# number of rings (size 3 to 8) (size 9 to 14) (size 15 to 20)
#    0.000    1.385    2.308    6.231    0.000    5.538 
#    5.538    1.154    0.000    0.000    0.000    0.000 
#    0.000    0.000    0.000    0.000    0.000    0.000 
#
# Total GULP energy -644830.046276 kJ/mol
# GULP energy per Si atom -12400.577813 kJ/mol
# Density = 1.956282 g / cm^3
# Si number density = 19.607452 Si / 1000 Ang^3
#
#
#
# Elastic Constant Matrix: (Units=GPa)
#
#
# Indices 1 2 3 4 5 6 
#
# 1 105.2663 36.7777 48.9781 0.0001 0.0000 0.0000
# 2 36.7777 105.2669 48.9786 0.0000 0.0000 0.0001
# 3 48.9781 48.9786 154.9566 0.0000 0.0002 0.0001
# 4 0.0001 0.0000 0.0000 18.5502 0.0001 0.0000
# 5 0.0000 0.0000 0.0002 0.0001 18.5500 0.0000
# 6 0.0000 0.0001 0.0001 0.0000 0.0000 34.2448
#
#
#
# Elastic Compliance Matrix: (Units=1/GPa)
#
#
# Indices 1 2 3 4 5 6 
#
# 1 0.011802 -0.002799 -0.002845 0.000000 0.000000 0.000000
# 2 -0.002799 0.011802 -0.002845 0.000000 0.000000 0.000000
# 3 -0.002845 -0.002845 0.008252 0.000000 0.000000 0.000000
# 4 0.000000 0.000000 0.000000 0.053908 0.000000 0.000000
# 5 0.000000 0.000000 0.000000 0.000000 0.053908 0.000000
# 6 0.000000 0.000000 0.000000 0.000000 0.000000 0.029202
#
#
# Mechanical properties :
#
#
# Convention : Reuss Voigt Hill
#
# Bulk Modulus (GPa) = 67.22646 70.55094 68.88870
# Shear Modulus (GPa) = 26.20381 29.65267 27.92824
#
# Velocity S-wave (km/s) = 3.65968 3.89307 3.77818
# Velocity P-wave (km/s) = 7.22622 7.50119 7.36499
#
# Compressibility (1/GPa) = 0.01487509
#
# Stress axis : x y z
#
# Youngs Moduli (GPa) = 84.73396 84.73425 121.18009
#
# Poissons Ratio (x) = 0.23720 0.34481
# Poissons Ratio (y) = 0.23720 0.34481
# Poissons Ratio (z) = 0.24110 0.24111
#
# Static dielectric constant tensor:
#      x y z
#    x 3.666200 0.000000 0.000000 
#    y 0.000000 3.666200 0.000000 
#    z 0.000000 0.000000 3.689520 
# 
# 
# High freq. dielectric constant tensor:
#      x y z
#    x 1.764710 0.000000 0.000000 
#    y 0.000000 1.764710 0.000000 
#    z 0.000000 0.000000 1.771230 
# 
# From -- ./inp_files/2728.got.cif
#   From: 2010.06.25/outbox.cif.g09.slc.cpg/sg190_2_cif.got.tgz:2728.got - 2010.06.28 13:08:06.
