data_PCOD8328925
_publ_section_title
;
Structure prediction by ZEFSAII (Michael W. Deem and Ramdas Pophale) SiO2 
 PCOD8328925
Probable space group: P 6/M M M
;
_chemical_formula_sum "Si O2"
_cell_formula_units_Z 168
_cell_length_a 29.941021
_cell_length_b 29.941021
_cell_length_c 12.987533
_cell_angle_alpha 90.000000
_cell_angle_beta 90.000000
_cell_angle_gamma 120.000000
_cell_volume 10083.017188
_symmetry_space_group_name_H-M "P 6/M M M"
_symmetry_group_IT_number 191
_symmetry_cell_setting 'hexagonal'
loop_
_space_group_symop_operation_xyz
x,y,z
x-y,x,z
-y,x-y,z
-x,-y,z
-x+y,-x,z
y,-x+y,z
x-y,-y,-z
-x,-x+y,-z
y,x,-z
-y,-x,-z
-x+y,y,-z
x,x-y,-z
-x,-y,-z
-x+y,-x,-z
y,-x+y,-z
x,y,-z
x-y,x,-z
-y,x-y,-z
-x+y,y,z
x,x-y,z
-y,-x,z
y,x,z
x-y,-y,z
-x,-x+y,z
loop_
_atom_site_type_symbol
_atom_site_label
_atom_site_fract_x
_atom_site_fract_y
_atom_site_fract_z
Si Si1 0.662589 0.528444 0.754381
Si Si2 0.333353 0.771739 0.119982
Si Si3 0.155590 0.212827 0.117438
Si Si4 0.319979 0.942282 0.117458
Si Si5 0.109456 0.788809 0.794233
Si Si6 0.607614 0.855675 0.614286
Si Si7 0.579898 0.523833 0.387134
O O1 0.665922 0.482621 0.811145
O O2 0.658272 0.566361 0.834792
O O3 0.710383 0.558698 0.677870
O O4 0.611230 0.507315 0.688038
O O5 0.383350 0.766699 0.145661
O O6 0.282481 0.717520 0.146846
O O7 0.333117 0.785510 0.000000
O O8 0.094491 0.188981 0.132140
O O9 0.167737 0.167737 0.143623
O O10 0.186366 0.259343 0.197306
O O11 0.171961 0.233191 0.000000
O O12 0.258227 0.911905 0.126845
O O13 0.345770 0.000000 0.167335
O O14 0.335561 0.948487 0.000000
O O15 0.168358 0.831643 0.824297
O O16 0.107734 0.767919 0.678133
O O17 0.611884 0.879792 0.500000
O O18 0.599016 0.799508 0.600958
O O19 0.606899 0.539054 0.500000
O O20 0.525025 0.474976 0.399637
O O21 0.570937 0.570937 0.347750
#
# Coordination Sequence:
#
# PCOD8328925 Si02
#       7
#    24  24  24  24  24  24  24
#     4  11  19  31  50  73  94 120 157 196 230 274
#     4  10  21  37  56  77 101 128 159 199 250 306
#     4   9  16  26  42  64  89 118 155 199 245 293
#     4  10  20  31  43  63  95 130 157 186 231 283
#     4   9  17  28  44  64  86 118 160 200 235 274
#     4   9  18  31  45  64  92 122 151 186 229 275
#     4   9  18  32  49  69  92 118 150 188 228 269
#
# _framework density 16.66168
#
# number of rings (size 3 to 8) (size 9 to 14) (size 15 to 20)
#    0.000    2.429    0.000    3.571    0.000    3.143 
#    0.000    0.000    0.000    8.714    0.000    7.000 
#    0.000    6.857    0.000    0.000    0.000    0.000 
#
# Total GULP energy -2081721.277857 kJ/mol
# GULP energy per Si atom -12391.198082 kJ/mol
# Density = 1.662376 g / cm^3
# Si number density = 16.661680 Si / 1000 Ang^3
#
#
#
# Elastic Constant Matrix: (Units=GPa)
#
#
# Indices 1 2 3 4 5 6 
#
# 1 108.2074 60.4797 54.1946 0.0000 0.0000 0.0000
# 2 60.4797 108.2074 54.1946 0.0000 0.0000 0.0000
# 3 54.1946 54.1946 92.3384 0.0000 0.0000 0.0000
# 4 0.0000 0.0000 0.0000 21.7519 0.0000 0.0000
# 5 0.0000 0.0000 0.0000 0.0000 21.7519 0.0000
# 6 0.0000 0.0000 0.0000 0.0000 0.0000 23.8638
#
#
#
# Elastic Compliance Matrix: (Units=1/GPa)
#
#
# Indices 1 2 3 4 5 6 
#
# 1 0.015235 -0.005717 -0.005586 0.000000 0.000000 0.000000
# 2 -0.005717 0.015235 -0.005586 0.000000 0.000000 0.000000
# 3 -0.005586 -0.005586 0.017387 0.000000 0.000000 0.000000
# 4 0.000000 0.000000 0.000000 0.045973 0.000000 0.000000
# 5 0.000000 0.000000 0.000000 0.000000 0.045973 0.000000
# 6 0.000000 0.000000 0.000000 0.000000 0.000000 0.041904
#
#
# Mechanical properties :
#
#
# Convention : Reuss Voigt Hill
#
# Bulk Modulus (GPa) = 71.03383 71.83236 71.43309
# Shear Modulus (GPa) = 22.70896 22.79913 22.75405
#
# Velocity S-wave (km/s) = 3.69581 3.70314 3.69948
# Velocity P-wave (km/s) = 7.80626 7.84157 7.82394
#
# Compressibility (1/GPa) = 0.01407780
#
# Stress axis : x y z
#
# Youngs Moduli (GPa) = 65.63945 65.63945 57.51587
#
# Poissons Ratio (x) = 0.37529 0.32127
# Poissons Ratio (y) = 0.37529 0.32127
# Poissons Ratio (z) = 0.36665 0.36665
#
# Static dielectric constant tensor:
#      x y z
#    x 3.144970 0.000000 0.000000 
#    y 0.000000 3.144970 0.000000 
#    z 0.000000 0.000000 3.185360 
# 
# 
# High freq. dielectric constant tensor:
#      x y z
#    x 1.639670 0.000000 0.000000 
#    y 0.000000 1.639670 0.000000 
#    z 0.000000 0.000000 1.632400 
# 
# From -- ./inp_files/3629.got.cif
#   From: 2010.03.12/outbox.cif.g09.slc.cpg/sg191_2_cif.got.tgz:3629.got - 2010.04.01 12:09:02.
