data_PCOD8328075
_publ_section_title
;
Structure prediction by ZEFSAII (Michael W. Deem and Ramdas Pophale) SiO2 
 PCOD8328075
Probable space group: P -6 2 C
;
_chemical_formula_sum "Si O2"
_cell_formula_units_Z 84
_cell_length_a 17.791470
_cell_length_b 17.791470
_cell_length_c 15.588711
_cell_angle_alpha 90.000000
_cell_angle_beta 90.000000
_cell_angle_gamma 120.000000
_cell_volume 4273.311019
_symmetry_space_group_name_H-M "P -6 2 C"
_symmetry_group_IT_number 190
_symmetry_cell_setting 'hexagonal'
loop_
_space_group_symop_operation_xyz
x,y,z
-x+y,-x,1/2-z
-y,x-y,z
x,y,1/2-z
-x+y,-x,z
-y,x-y,1/2-z
x-y,-y,-z
-x,-x+y,-z
y,x,-z
y,x,1/2+z
x-y,-y,1/2+z
-x,-x+y,1/2+z
loop_
_atom_site_type_symbol
_atom_site_label
_atom_site_fract_x
_atom_site_fract_y
_atom_site_fract_z
Si Si1 0.434103 0.016562 0.404264
Si Si2 0.498902 0.833078 0.147780
Si Si3 0.972764 0.574364 0.348618
Si Si4 0.057296 0.292689 0.915018
Si Si5 0.232232 0.291431 0.917907
Si Si6 0.178776 0.176349 0.250000
Si Si7 0.827542 0.331214 0.650479
Si Si8 0.823623 0.823276 0.250000
O O1 0.527885 0.055318 0.358700
O O2 0.392025 0.078449 0.397338
O O3 0.452451 0.000000 0.500000
O O4 0.358509 0.926684 0.364165
O O5 0.497813 0.836386 0.250000
O O6 0.403817 0.807928 0.111834
O O7 0.524004 0.763400 0.110365
O O8 0.566167 0.929398 0.116152
O O9 0.961581 0.589570 0.250000
O O10 0.919171 0.608822 0.403336
O O11 0.146989 0.296970 0.932984
O O12 0.007850 0.232195 0.834176
O O13 0.000000 0.255863 0.000000
O O14 0.224302 0.234480 0.834185
O O15 0.246301 0.246301 0.000000
O O16 0.151434 0.075381 0.250000
O O17 0.092408 0.182912 0.250000
O O18 0.806635 0.322209 0.750000
#
# Coordination Sequence:
#
# PCOD8328075 Si02
#       8
#    12  12  12  12  12   6  12   6
#     4  10  21  36  52  77 113 149 192 234 289 348
#     4   8  15  26  45  74 109 139 177 218 268 337
#     4  10  20  36  55  83 114 151 195 235 287 351
#     4  10  23  40  59  91 118 155 202 254 304 372
#     4  11  22  39  63  87 121 155 200 255 313 357
#     4  10  21  38  55  90 114 158 202 254 303 392
#     4   9  16  28  48  76 108 145 177 217 274 337
#     4  10  21  36  61  80 122 156 200 248 323 358
#
# _framework density 19.656889
#
# number of rings (size 3 to 8) (size 9 to 14) (size 15 to 20)
#    0.000    2.286    0.714    3.000    2.000    4.571 
#    0.000    0.000    0.000    5.143    0.000    0.000 
#    0.000    0.000    0.000    0.000    0.000    0.000 
#
# Total GULP energy -1040998.966270 kJ/mol
# GULP energy per Si atom -12392.844837 kJ/mol
# Density = 1.961215 g / cm^3
# Si number density = 19.656889 Si / 1000 Ang^3
#
#
#
# Elastic Constant Matrix: (Units=GPa)
#
#
# Indices 1 2 3 4 5 6 
#
# 1 95.8299 67.7236 42.9693 0.0000 0.0000 0.0000
# 2 67.7236 95.8299 42.9693 0.0000 0.0000 0.0000
# 3 42.9693 42.9693 84.9674 0.0000 0.0000 0.0000
# 4 0.0000 0.0000 0.0000 -38.0287 0.0000 0.0000
# 5 0.0000 0.0000 0.0000 0.0000 -38.0287 0.0000
# 6 0.0000 0.0000 0.0000 0.0000 0.0000 14.0532
#
#
#
# Elastic Compliance Matrix: (Units=1/GPa)
#
#
# Indices 1 2 3 4 5 6 
#
# 1 0.021953 -0.013626 -0.004211 0.000000 0.000000 0.000000
# 2 -0.013626 0.021953 -0.004211 0.000000 0.000000 0.000000
# 3 -0.004211 -0.004211 0.016028 0.000000 0.000000 0.000000
# 4 0.000000 0.000000 0.000000 -0.026296 0.000000 0.000000
# 5 0.000000 0.000000 0.000000 0.000000 -0.026296 0.000000
# 6 0.000000 0.000000 0.000000 0.000000 0.000000 0.071158
#
#
# Mechanical properties :
#
#
# Convention : Reuss Voigt Hill
#
# Bulk Modulus (GPa) = 63.13921 64.88352 64.01137
# Shear Modulus (GPa) = 39.10017 -4.20318 17.44850
#
# Velocity S-wave (km/s) = 4.46481 -1.46387 2.98258
# Velocity P-wave (km/s) = 7.66614 5.49750 6.67054
#
# Compressibility (1/GPa) = 0.01583802
#
# Stress axis : x y z
#
# Youngs Moduli (GPa) = 45.55180 45.55180 62.38936
#
# Poissons Ratio (x) = 0.62070 0.26272
# Poissons Ratio (y) = 0.62070 0.26272
# Poissons Ratio (z) = 0.19182 0.19182
#
# Static dielectric constant tensor:
#      x y z
#    x 3.552200 0.000000 0.000000 
#    y 0.000000 3.552200 0.000000 
#    z 0.000000 0.000000 3.389460 
# 
# 
# High freq. dielectric constant tensor:
#      x y z
#    x 1.760710 0.000000 0.000000 
#    y 0.000000 1.760710 0.000000 
#    z 0.000000 0.000000 1.757310 
# 
# From -- ./inp_files/3211.got.cif
#   From: 2010.06.25/outbox.cif.g09.slc.cpg/sg190_2_cif.got.tgz:3211.got - 2010.06.28 13:08:06.
