data_PCOD8328540
_publ_section_title
;
Structure prediction by ZEFSAII (Michael W. Deem and Ramdas Pophale) SiO2 
 PCOD8328540
Probable space group: P 6/M M M
;
_chemical_formula_sum "Si O2"
_cell_formula_units_Z 168
_cell_length_a 29.032566
_cell_length_b 29.032566
_cell_length_c 13.734509
_cell_angle_alpha 90.000000
_cell_angle_beta 90.000000
_cell_angle_gamma 120.000000
_cell_volume 10025.697898
_symmetry_space_group_name_H-M "P 6/M M M"
_symmetry_group_IT_number 191
_symmetry_cell_setting 'hexagonal'
loop_
_space_group_symop_operation_xyz
x,y,z
x-y,x,z
-y,x-y,z
-x,-y,z
-x+y,-x,z
y,-x+y,z
x-y,-y,-z
-x,-x+y,-z
y,x,-z
-y,-x,-z
-x+y,y,-z
x,x-y,-z
-x,-y,-z
-x+y,-x,-z
y,-x+y,-z
x,y,-z
x-y,x,-z
-y,x-y,-z
-x+y,y,z
x,x-y,z
-y,-x,z
y,x,z
x-y,-y,z
-x,-x+y,z
loop_
_atom_site_type_symbol
_atom_site_label
_atom_site_fract_x
_atom_site_fract_y
_atom_site_fract_z
Si Si1 0.332164 0.769663 0.109702
Si Si2 0.223053 0.059537 0.384931
Si Si3 0.112747 0.779394 0.706889
Si Si4 0.938765 0.283996 0.891235
Si Si5 0.444297 0.168595 0.384791
Si Si6 0.388920 0.451439 0.107687
Si Si7 0.141312 0.622800 0.739400
O O1 0.376146 0.752292 0.116210
O O2 0.278565 0.721436 0.151558
O O3 0.345017 0.819406 0.174048
O O4 0.325108 0.783935 0.000000
O O5 0.227039 0.062845 0.500000
O O6 0.209413 0.104707 0.346174
O O7 0.279915 0.069517 0.346989
O O8 0.177486 0.000000 0.351704
O O9 0.166975 0.833026 0.709439
O O10 0.095496 0.762994 0.817459
O O11 0.122424 0.736148 0.650596
O O12 0.920052 0.327215 0.885739
O O13 0.000000 0.310657 0.860855
O O14 0.929608 0.259937 0.000000
O O15 0.446552 0.165892 0.500000
O O16 0.455880 0.227940 0.353262
O O17 0.487135 0.152931 0.344595
O O18 0.425885 0.425885 0.115166
O O19 0.403086 0.488379 0.203364
O O20 0.399023 0.479780 0.000000
O O21 0.148773 0.574387 0.697383
#
# Coordination Sequence:
#
# PCOD8328540 Si02
#       7
#    24  24  24  24  24  24  24
#     4   9  17  29  46  69  96 122 146 177 223 279
#     4   9  17  29  47  73 103 134 170 212 253 290
#     4  10  18  30  50  73  98 126 161 204 247 290
#     4   9  17  30  48  69  97 131 161 189 226 280
#     4  10  21  37  54  71  94 122 153 194 246 300
#     4   9  18  33  51  70  95 127 160 194 232 276
#     4  11  21  33  51  72  94 120 156 198 236 279
#
# _framework density 16.756938000000002
#
# number of rings (size 3 to 8) (size 9 to 14) (size 15 to 20)
#    0.000    2.429    1.429    2.714    0.000    4.000 
#    0.000    0.714    0.000    1.714    0.000    2.000 
#    0.000    0.000    0.000    0.000    0.000    0.000 
#
# Total GULP energy -2081869.112524 kJ/mol
# GULP energy per Si atom -12392.078051 kJ/mol
# Density = 1.671880 g / cm^3
# Si number density = 16.756938 Si / 1000 Ang^3
#
#
#
# Elastic Constant Matrix: (Units=GPa)
#
#
# Indices 1 2 3 4 5 6 
#
# 1 -29.6370 127.2502 28.9963 0.0000 0.0000 0.0000
# 2 127.2502 -29.6370 28.9963 0.0000 0.0000 0.0000
# 3 28.9963 28.9963 64.0145 0.0000 0.0000 0.0000
# 4 0.0000 0.0000 0.0000 21.3818 0.0000 0.0000
# 5 0.0000 0.0000 0.0000 0.0000 21.3818 0.0000
# 6 0.0000 0.0000 0.0000 0.0000 0.0000 -78.4436
#
#
#
# Elastic Compliance Matrix: (Units=1/GPa)
#
#
# Indices 1 2 3 4 5 6 
#
# 1 0.003821 0.010195 -0.006349 0.000000 0.000000 0.000000
# 2 0.010195 0.003821 -0.006349 0.000000 0.000000 0.000000
# 3 -0.006349 -0.006349 0.021373 0.000000 0.000000 0.000000
# 4 0.000000 0.000000 0.000000 0.046769 0.000000 0.000000
# 5 0.000000 0.000000 0.000000 0.000000 0.046769 0.000000
# 6 0.000000 0.000000 0.000000 0.000000 0.000000 -0.012748
#
#
# Mechanical properties :
#
#
# Convention : Reuss Voigt Hill
#
# Bulk Modulus (GPa) = 41.64887 41.69179 41.67033
# Shear Modulus (GPa) = 40.71193 -19.16949 10.77122
#
# Velocity S-wave (km/s) = 4.93440 -3.38594 2.53808
# Velocity P-wave (km/s) = 7.57450 3.10616 5.78884
#
# Compressibility (1/GPa) = 0.02401026
#
# Stress axis : x y z
#
# Youngs Moduli (GPa) = 261.69473 261.69474 46.78752
#
# Poissons Ratio (x) = -2.66804 0.29705
# Poissons Ratio (y) = -2.66804 0.29705
# Poissons Ratio (z) = 1.66150 1.66150
#
# Static dielectric constant tensor:
#      x y z
#    x 3.295300 0.000000 0.000000 
#    y 0.000000 3.295300 0.000000 
#    z 0.000000 0.000000 3.113050 
# 
# 
# High freq. dielectric constant tensor:
#      x y z
#    x 1.639750 0.000000 0.000000 
#    y 0.000000 1.639750 0.000000 
#    z 0.000000 0.000000 1.632870 
# 
# From -- ./inp_files/3633.got.cif
#   From: 2010.03.12/outbox.cif.g09.slc.cpg/sg191_2_cif.got.tgz:3633.got - 2010.04.01 12:09:02.
