data_PCOD8328417
_publ_section_title
;
Structure prediction by ZEFSAII (Michael W. Deem and Ramdas Pophale) SiO2 
 PCOD8328417
Probable space group: P 6/M M M
;
_chemical_formula_sum "Si O2"
_cell_formula_units_Z 144
_cell_length_a 21.649440
_cell_length_b 21.649440
_cell_length_c 21.727990
_cell_angle_alpha 90.000000
_cell_angle_beta 90.000000
_cell_angle_gamma 120.000000
_cell_volume 8819.490942
_symmetry_space_group_name_H-M "P 6/M M M"
_symmetry_group_IT_number 191
_symmetry_cell_setting 'hexagonal'
loop_
_space_group_symop_operation_xyz
x,y,z
x-y,x,z
-y,x-y,z
-x,-y,z
-x+y,-x,z
y,-x+y,z
x-y,-y,-z
-x,-x+y,-z
y,x,-z
-y,-x,-z
-x+y,y,-z
x,x-y,-z
-x,-y,-z
-x+y,-x,-z
y,-x+y,-z
x,y,-z
x-y,x,-z
-y,x-y,-z
-x+y,y,z
x,x-y,z
-y,-x,z
y,x,z
x-y,-y,z
-x,-x+y,z
loop_
_atom_site_type_symbol
_atom_site_label
_atom_site_fract_x
_atom_site_fract_y
_atom_site_fract_z
Si Si1 0.183482 0.666209 0.000000
Si Si2 0.469261 0.388062 0.109238
Si Si3 0.152616 0.446474 0.220254
Si Si4 0.709651 0.922896 0.369360
Si Si5 0.083072 0.429065 0.348732
Si Si6 0.715489 0.922930 0.222814
Si Si7 0.542236 0.457765 0.568437
O O1 0.135156 0.664905 0.057491
O O2 0.259978 0.740023 0.000000
O O3 0.197503 0.598752 0.000000
O O4 0.535227 0.464774 0.096394
O O5 0.399221 0.399221 0.108600
O O6 0.483187 0.359658 0.173638
O O7 0.238143 0.476286 0.216572
O O8 0.132744 0.457628 0.288894
O O9 0.110554 0.364436 0.199375
O O10 0.723093 0.861547 0.397360
O O11 0.630194 0.906493 0.385170
O O12 0.715277 0.925761 0.296175
O O13 0.768357 0.000000 0.396878
O O14 0.110408 0.494975 0.395057
O O15 0.000000 0.395969 0.329154
O O16 0.748143 0.874072 0.200934
O O17 0.763636 0.000000 0.193016
O O18 0.500000 0.500000 0.563431
O O19 0.559102 0.440899 0.500000
#
# Coordination Sequence:
#
# PCOD8328417 Si02
#       7
#    12  24  24  24  24  24  12
#     4  10  20  35  51  67  90 127 164 194 223 270
#     4  10  20  32  48  69  94 119 150 191 238 284
#     4  10  18  28  44  67  92 117 149 191 234 280
#     4   8  13  22  37  58  83 113 146 183 226 272
#     4   9  16  26  43  65  91 121 153 191 239 288
#     4   8  13  21  34  53  79 108 138 173 216 262
#     4   9  18  30  44  66  96 125 153 191 239 294
#
# _framework density 16.327473000000001
#
# number of rings (size 3 to 8) (size 9 to 14) (size 15 to 20)
#    0.000    2.917    0.000    4.833    1.167    1.000 
#    0.000    0.000    0.000    2.667    0.000    2.333 
#    0.833    0.000    0.000    0.000    0.000    0.000 
#
# Total GULP energy -1783974.712068 kJ/mol
# GULP energy per Si atom -12388.713278 kJ/mol
# Density = 1.629031 g / cm^3
# Si number density = 16.327473 Si / 1000 Ang^3
#
#
#
# Elastic Constant Matrix: (Units=GPa)
#
#
# Indices 1 2 3 4 5 6 
#
# 1 81.3817 36.1185 32.0258 0.0000 0.0000 0.0000
# 2 36.1185 81.3817 32.0258 0.0000 0.0000 0.0000
# 3 32.0258 32.0258 62.9552 0.0000 0.0000 0.0000
# 4 0.0000 0.0000 0.0000 12.1597 0.0000 0.0000
# 5 0.0000 0.0000 0.0000 0.0000 12.1597 0.0000
# 6 0.0000 0.0000 0.0000 0.0000 0.0000 22.6316
#
#
#
# Elastic Compliance Matrix: (Units=1/GPa)
#
#
# Indices 1 2 3 4 5 6 
#
# 1 0.016935 -0.005158 -0.005991 0.000000 0.000000 0.000000
# 2 -0.005158 0.016935 -0.005991 0.000000 0.000000 0.000000
# 3 -0.005991 -0.005991 0.021979 0.000000 0.000000 0.000000
# 4 0.000000 0.000000 0.000000 0.082239 0.000000 0.000000
# 5 0.000000 0.000000 0.000000 0.000000 0.082239 0.000000
# 6 0.000000 0.000000 0.000000 0.000000 0.000000 0.044186
#
#
# Mechanical properties :
#
#
# Convention : Reuss Voigt Hill
#
# Bulk Modulus (GPa) = 46.36255 47.33987 46.85121
# Shear Modulus (GPa) = 16.34084 17.76008 17.05046
#
# Velocity S-wave (km/s) = 3.16700 3.30167 3.23504
# Velocity P-wave (km/s) = 6.46763 6.60240 6.53536
#
# Compressibility (1/GPa) = 0.02156913
#
# Stress axis : x y z
#
# Youngs Moduli (GPa) = 59.05054 59.05054 45.49730
#
# Poissons Ratio (x) = 0.30461 0.27256
# Poissons Ratio (y) = 0.30461 0.27256
# Poissons Ratio (z) = 0.35375 0.35375
#
# Static dielectric constant tensor:
#      x y z
#    x 3.231420 0.000000 0.000000 
#    y 0.000000 3.231420 0.000000 
#    z 0.000000 0.000000 2.808040 
# 
# 
# High freq. dielectric constant tensor:
#      x y z
#    x 1.617150 0.000000 0.000000 
#    y 0.000000 1.617150 0.000000 
#    z 0.000000 0.000000 1.594360 
# 
# From -- ./inp_files/8893.got.cif
#   From: 2010.03.12/outbox.cif.g09.slc.cpg/sg191_5_cif.got.tgz:8893.got - 2010.04.01 12:09:02.
