data_PCOD8328439
_publ_section_title
;
Structure prediction by ZEFSAII (Michael W. Deem and Ramdas Pophale) SiO2 
 PCOD8328439
Probable space group: P 6/M M M
;
_chemical_formula_sum "Si O2"
_cell_formula_units_Z 168
_cell_length_a 21.743649
_cell_length_b 21.743649
_cell_length_c 24.359885
_cell_angle_alpha 90.000000
_cell_angle_beta 90.000000
_cell_angle_gamma 120.000000
_cell_volume 9974.031213
_symmetry_space_group_name_H-M "P 6/M M M"
_symmetry_group_IT_number 191
_symmetry_cell_setting 'hexagonal'
loop_
_space_group_symop_operation_xyz
x,y,z
x-y,x,z
-y,x-y,z
-x,-y,z
-x+y,-x,z
y,-x+y,z
x-y,-y,-z
-x,-x+y,-z
y,x,-z
-y,-x,-z
-x+y,y,-z
x,x-y,-z
-x,-y,-z
-x+y,-x,-z
y,-x+y,-z
x,y,-z
x-y,x,-z
-y,x-y,-z
-x+y,y,z
x,x-y,z
-y,-x,z
y,x,z
x-y,-y,z
-x,-x+y,z
loop_
_atom_site_type_symbol
_atom_site_label
_atom_site_fract_x
_atom_site_fract_y
_atom_site_fract_z
Si Si1 0.720786 0.581000 0.562839
Si Si2 0.186962 0.522282 0.258996
Si Si3 0.083744 0.473214 0.059569
Si Si4 0.422414 0.339549 0.826686
Si Si5 0.080143 0.468390 0.352643
Si Si6 0.078747 0.783921 0.232312
Si Si7 0.077777 0.788314 0.643594
O O1 0.712540 0.597550 0.500000
O O2 0.775662 0.551324 0.567776
O O3 0.643736 0.527241 0.588063
O O4 0.746260 0.650538 0.599157
O O5 0.257797 0.515593 0.255953
O O6 0.209522 0.604761 0.267808
O O7 0.138219 0.493865 0.204818
O O8 0.135717 0.471344 0.307414
O O9 0.113615 0.556808 0.071465
O O10 0.104635 0.438133 0.109169
O O11 0.000000 0.435141 0.056014
O O12 0.113096 0.464297 0.000000
O O13 0.400957 0.400957 0.816417
O O14 0.359281 0.263732 0.807934
O O15 0.071454 0.535727 0.346302
O O16 0.000000 0.398936 0.346433
O O17 0.133939 0.866062 0.219713
O O18 0.085791 0.763893 0.295244
O O19 0.000000 0.770941 0.221364
O O20 0.127951 0.872050 0.636175
O O21 0.000000 0.775255 0.632622
#
# Coordination Sequence:
#
# PCOD8328439 Si02
#       7
#    24  24  24  24  24  24  24
#     4  10  20  33  49  68  91 119 148 177 212 260
#     4  11  22  35  50  67  91 122 156 192 228 272
#     4   8  14  25  41  63  92 123 153 184 220 266
#     4  10  18  28  47  73  97 120 148 188 236 279
#     4  10  21  35  51  71  92 114 143 185 235 278
#     4   9  17  29  46  68  94 123 154 189 231 278
#     4   9  17  29  45  65  89 117 147 179 216 258
#
# _framework density 16.843741000000001
#
# number of rings (size 3 to 8) (size 9 to 14) (size 15 to 20)
#    0.000    2.429    0.000    3.571    0.000    5.143 
#    0.000    0.714    0.000    2.286    0.000    2.000 
#    0.000    1.143    0.000    3.571    0.000    3.714 
#
# Total GULP energy -2081586.236267 kJ/mol
# GULP energy per Si atom -12390.394263 kJ/mol
# Density = 1.680540 g / cm^3
# Si number density = 16.843741 Si / 1000 Ang^3
#
#
#
# Elastic Constant Matrix: (Units=GPa)
#
#
# Indices 1 2 3 4 5 6 
#
# 1 69.6213 30.2753 39.8454 0.0000 0.0000 0.0000
# 2 30.2753 69.6213 39.8454 0.0000 0.0000 0.0000
# 3 39.8454 39.8454 130.1166 0.0000 0.0000 0.0000
# 4 0.0000 0.0000 0.0000 14.6732 0.0000 0.0000
# 5 0.0000 0.0000 0.0000 0.0000 14.6732 0.0000
# 6 0.0000 0.0000 0.0000 0.0000 0.0000 19.6730
#
#
#
# Elastic Compliance Matrix: (Units=1/GPa)
#
#
# Indices 1 2 3 4 5 6 
#
# 1 0.019331 -0.006085 -0.004056 0.000000 0.000000 0.000000
# 2 -0.006085 0.019331 -0.004056 0.000000 0.000000 0.000000
# 3 -0.004056 -0.004056 0.010170 0.000000 0.000000 0.000000
# 4 0.000000 0.000000 0.000000 0.068151 0.000000 0.000000
# 5 0.000000 0.000000 0.000000 0.000000 0.068151 0.000000
# 6 0.000000 0.000000 0.000000 0.000000 0.000000 0.050831
#
#
# Mechanical properties :
#
#
# Convention : Reuss Voigt Hill
#
# Bulk Modulus (GPa) = 48.93144 54.36571 51.64857
# Shear Modulus (GPa) = 18.43846 20.43010 19.43428
#
# Velocity S-wave (km/s) = 3.31218 3.48648 3.40045
# Velocity P-wave (km/s) = 6.61367 6.96807 6.79318
#
# Compressibility (1/GPa) = 0.02043676
#
# Stress axis : x y z
#
# Youngs Moduli (GPa) = 51.73069 51.73069 98.33065
#
# Poissons Ratio (x) = 0.31476 0.39887
# Poissons Ratio (y) = 0.31476 0.39887
# Poissons Ratio (z) = 0.20984 0.20984
#
# Static dielectric constant tensor:
#      x y z
#    x 3.137890 0.000000 0.000000 
#    y 0.000000 3.137890 0.000000 
#    z 0.000000 0.000000 3.487140 
# 
# 
# High freq. dielectric constant tensor:
#      x y z
#    x 1.632750 0.000000 0.000000 
#    y 0.000000 1.632750 0.000000 
#    z 0.000000 0.000000 1.647620 
# 
# From -- ./inp_files/8005.got.cif
#   From: 2010.03.12/outbox.cif.g09.slc.cpg/sg191_5_cif.got.tgz:8005.got - 2010.04.01 12:09:02.
