data_PCOD8328410
_publ_section_title
;
Structure prediction by ZEFSAII (Michael W. Deem and Ramdas Pophale) SiO2 
 PCOD8328410
Probable space group: P 6/M M M
;
_chemical_formula_sum "Si O2"
_cell_formula_units_Z 126
_cell_length_a 30.550788
_cell_length_b 30.550788
_cell_length_c 8.827444
_cell_angle_alpha 90.000000
_cell_angle_beta 90.000000
_cell_angle_gamma 120.000000
_cell_volume 7135.270400
_symmetry_space_group_name_H-M "P 6/M M M"
_symmetry_group_IT_number 191
_symmetry_cell_setting 'hexagonal'
loop_
_space_group_symop_operation_xyz
x,y,z
x-y,x,z
-y,x-y,z
-x,-y,z
-x+y,-x,z
y,-x+y,z
x-y,-y,-z
-x,-x+y,-z
y,x,-z
-y,-x,-z
-x+y,y,-z
x,x-y,-z
-x,-y,-z
-x+y,-x,-z
y,-x+y,-z
x,y,-z
x-y,x,-z
-y,x-y,-z
-x+y,y,z
x,x-y,z
-y,-x,z
y,x,z
x-y,-y,z
-x,-x+y,z
loop_
_atom_site_type_symbol
_atom_site_label
_atom_site_fract_x
_atom_site_fract_y
_atom_site_fract_z
Si Si1 0.802590 0.707869 0.674433
Si Si2 0.198653 0.198653 0.179589
Si Si3 0.602871 0.750585 0.823533
Si Si4 0.594486 0.594486 0.168092
Si Si5 0.500000 0.500000 0.745084
Si Si6 0.554524 0.109047 0.336523
Si Si7 0.104792 0.457338 0.318644
Si Si8 0.099174 0.000000 0.819582
O O1 0.788055 0.707757 0.500000
O O2 0.858151 0.716301 0.693622
O O3 0.801243 0.752286 0.762187
O O4 0.761652 0.655170 0.747987
O O5 0.148870 0.148870 0.241220
O O6 0.199140 0.199140 0.000000
O O7 0.592516 0.796258 0.794128
O O8 0.556771 0.702130 0.744043
O O9 0.605043 0.740299 0.000000
O O10 0.542250 0.542250 0.147503
O O11 0.584854 0.634635 0.258477
O O12 0.615624 0.615624 0.000000
O O13 0.475703 0.524298 0.636861
O O14 0.567975 0.135950 0.500000
O O15 0.607480 0.121954 0.254891
O O16 0.103719 0.457515 0.500000
O O17 0.099319 0.049659 0.756785
O O18 0.098555 0.000000 0.000000
#
# Coordination Sequence:
#
# PCOD8328410 Si02
#       8
#    24  12  24  12   6  12  24  12
#     4  10  21  37  55  74  97 127 164 206 252 304
#     4  11  21  33  52  77 104 131 163 206 257 310
#     4  10  21  37  55  74  98 128 164 208 256 302
#     4  10  18  28  43  66  97 130 164 199 237 277
#     4   8  14  24  40  62  91 130 165 192 225 268
#     4   8  15  27  45  70 101 134 165 200 235 274
#     4  10  19  32  50  73 102 135 171 205 242 288
#     4   9  17  29  47  72 101 131 162 199 247 307
#
# _framework density 17.658757000000001
#
# number of rings (size 3 to 8) (size 9 to 14) (size 15 to 20)
#    0.000    2.286    0.000    3.238    0.000    6.476 
#    0.000    5.238    0.000    0.000    0.000    0.000 
#    0.952    4.571    0.571    0.000    0.762    0.000 
#
# Total GULP energy -1561794.485872 kJ/mol
# GULP energy per Si atom -12395.194332 kJ/mol
# Density = 1.761856 g / cm^3
# Si number density = 17.658757 Si / 1000 Ang^3
#
#
#
# Elastic Constant Matrix: (Units=GPa)
#
#
# Indices 1 2 3 4 5 6 
#
# 1 103.9581 62.4159 40.0848 0.0000 0.0000 0.0000
# 2 62.4159 103.9581 40.0848 0.0000 0.0000 0.0000
# 3 40.0848 40.0848 92.1182 0.0000 0.0000 0.0000
# 4 0.0000 0.0000 0.0000 22.3922 0.0000 0.0000
# 5 0.0000 0.0000 0.0000 0.0000 22.3922 0.0000
# 6 0.0000 0.0000 0.0000 0.0000 0.0000 20.7711
#
#
#
# Elastic Compliance Matrix: (Units=1/GPa)
#
#
# Indices 1 2 3 4 5 6 
#
# 1 0.015839 -0.008233 -0.003309 0.000000 0.000000 0.000000
# 2 -0.008233 0.015839 -0.003309 0.000000 0.000000 0.000000
# 3 -0.003309 -0.003309 0.013736 0.000000 0.000000 0.000000
# 4 0.000000 0.000000 0.000000 0.044658 0.000000 0.000000
# 5 0.000000 0.000000 0.000000 0.000000 0.044658 0.000000
# 6 0.000000 0.000000 0.000000 0.000000 0.000000 0.048144
#
#
# Mechanical properties :
#
#
# Convention : Reuss Voigt Hill
#
# Bulk Modulus (GPa) = 63.65905 65.02279 64.34092
# Shear Modulus (GPa) = 22.95536 23.60768 23.28152
#
# Velocity S-wave (km/s) = 3.60938 3.66031 3.63493
# Velocity P-wave (km/s) = 7.31423 7.40038 7.35743
#
# Compressibility (1/GPa) = 0.01570868
#
# Stress axis : x y z
#
# Youngs Moduli (GPa) = 63.13703 63.13703 72.80280
#
# Poissons Ratio (x) = 0.51983 0.24093
# Poissons Ratio (y) = 0.51983 0.24093
# Poissons Ratio (z) = 0.20894 0.20894
#
# Static dielectric constant tensor:
#      x y z
#    x 3.259050 0.000000 0.000000 
#    y 0.000000 3.259050 0.000000 
#    z 0.000000 0.000000 3.178030 
# 
# 
# High freq. dielectric constant tensor:
#      x y z
#    x 1.671590 0.000000 0.000000 
#    y 0.000000 1.671590 0.000000 
#    z 0.000000 0.000000 1.679520 
# 
# From -- ./inp_files/1916.got.cif
#   From: 2010.03.12/outbox.cif.g09.slc.cpg/sg191_1_cif.got.tgz:1916.got - 2010.04.01 12:09:02.
