data_PCOD8328401
_publ_section_title
;
Structure prediction by ZEFSAII (Michael W. Deem and Ramdas Pophale) SiO2 
 PCOD8328401
Probable space group: P 6/M M M
;
_chemical_formula_sum "Si O2"
_cell_formula_units_Z 168
_cell_length_a 21.235757
_cell_length_b 21.235757
_cell_length_c 28.636544
_cell_angle_alpha 90.000000
_cell_angle_beta 90.000000
_cell_angle_gamma 120.000000
_cell_volume 11183.731446
_symmetry_space_group_name_H-M "P 6/M M M"
_symmetry_group_IT_number 191
_symmetry_cell_setting 'hexagonal'
loop_
_space_group_symop_operation_xyz
x,y,z
x-y,x,z
-y,x-y,z
-x,-y,z
-x+y,-x,z
y,-x+y,z
x-y,-y,-z
-x,-x+y,-z
y,x,-z
-y,-x,-z
-x+y,y,-z
x,x-y,-z
-x,-y,-z
-x+y,-x,-z
y,-x+y,-z
x,y,-z
x-y,x,-z
-y,x-y,-z
-x+y,y,z
x,x-y,z
-y,-x,z
y,x,z
x-y,-y,z
-x,-x+y,z
loop_
_atom_site_type_symbol
_atom_site_label
_atom_site_fract_x
_atom_site_fract_y
_atom_site_fract_z
Si Si1 0.517984 0.183743 0.782813
Si Si2 0.373432 0.081848 0.448250
Si Si3 0.812825 0.335204 0.591561
Si Si4 0.697423 0.778678 0.355392
Si Si5 0.533771 0.918606 0.133608
Si Si6 0.666755 0.479330 0.053413
Si Si7 0.300578 0.848229 0.314006
O O1 0.600473 0.200946 0.787505
O O2 0.518547 0.259274 0.786196
O O3 0.466552 0.130184 0.823334
O O4 0.483330 0.140842 0.734574
O O5 0.348462 0.091600 0.500000
O O6 0.458836 0.137226 0.444029
O O7 0.329151 0.098167 0.409168
O O8 0.358374 0.000000 0.441395
O O9 0.810929 0.405465 0.574120
O O10 0.731754 0.268247 0.591281
O O11 0.847529 0.349681 0.643505
O O12 0.723306 0.861653 0.340935
O O13 0.764796 0.764796 0.348986
O O14 0.631266 0.721009 0.322766
O O15 0.462622 0.925243 0.136161
O O16 0.535083 0.879728 0.085450
O O17 0.604108 0.000000 0.135438
O O18 0.741556 0.483111 0.067374
O O19 0.603117 0.396884 0.062130
O O20 0.667430 0.502876 0.000000
O O21 0.227726 0.772275 0.313430
#
# Coordination Sequence:
#
# PCOD8328401 Si02
#       7
#    24  24  24  24  24  24  24
#     4  10  18  28  43  62  84 108 137 175 217 257
#     4   9  18  32  48  63  79 102 133 170 206 236
#     4  10  19  30  43  59  81 107 134 164 201 248
#     4   9  17  30  48  68  88 109 135 165 197 236
#     4   9  18  29  38  52  76 106 137 165 198 245
#     4   9  16  26  41  59  77  97 125 165 211 254
#     4   8  16  29  43  60  80 104 134 166 199 235
#
# _framework density 15.02182
#
# number of rings (size 3 to 8) (size 9 to 14) (size 15 to 20)
#    0.000    2.857    0.000    2.571    0.000    3.143 
#    0.000    5.000    0.000    3.571    0.000    0.000 
#    0.000    0.000    0.000    3.571    0.000    0.000 
#
# Total GULP energy -2082484.692719 kJ/mol
# GULP energy per Si atom -12395.742219 kJ/mol
# Density = 1.498763 g / cm^3
# Si number density = 15.021820 Si / 1000 Ang^3
#
#
#
# Elastic Constant Matrix: (Units=GPa)
#
#
# Indices 1 2 3 4 5 6 
#
# 1 60.7845 39.9556 19.3684 0.0000 0.0000 0.0000
# 2 39.9556 60.7845 19.3684 0.0000 0.0000 0.0000
# 3 19.3684 19.3684 77.1846 0.0000 0.0000 0.0000
# 4 0.0000 0.0000 0.0000 17.1800 0.0000 0.0000
# 5 0.0000 0.0000 0.0000 0.0000 17.1800 0.0000
# 6 0.0000 0.0000 0.0000 0.0000 0.0000 10.4144
#
#
#
# Elastic Compliance Matrix: (Units=1/GPa)
#
#
# Indices 1 2 3 4 5 6 
#
# 1 0.029498 -0.018512 -0.002757 0.000000 0.000000 0.000000
# 2 -0.018512 0.029498 -0.002757 0.000000 0.000000 0.000000
# 3 -0.002757 -0.002757 0.014340 0.000000 0.000000 0.000000
# 4 0.000000 0.000000 0.000000 0.058207 0.000000 0.000000
# 5 0.000000 0.000000 0.000000 0.000000 0.058207 0.000000
# 6 0.000000 0.000000 0.000000 0.000000 0.000000 0.096021
#
#
# Mechanical properties :
#
#
# Convention : Reuss Voigt Hill
#
# Bulk Modulus (GPa) = 39.54900 39.57093 39.55997
# Shear Modulus (GPa) = 14.60915 16.95897 15.78406
#
# Velocity S-wave (km/s) = 3.12192 3.36364 3.24503
# Velocity P-wave (km/s) = 6.27535 6.44088 6.35865
#
# Compressibility (1/GPa) = 0.02528509
#
# Stress axis : x y z
#
# Youngs Moduli (GPa) = 33.90004 33.90004 69.73704
#
# Poissons Ratio (x) = 0.62755 0.19226
# Poissons Ratio (y) = 0.62755 0.19226
# Poissons Ratio (z) = 0.09346 0.09346
#
# Static dielectric constant tensor:
#      x y z
#    x 2.766440 0.000000 0.000000 
#    y 0.000000 2.766440 0.000000 
#    z 0.000000 0.000000 3.112880 
# 
# 
# High freq. dielectric constant tensor:
#      x y z
#    x 1.551230 0.000000 0.000000 
#    y 0.000000 1.551230 0.000000 
#    z 0.000000 0.000000 1.578960 
# 
# From -- ./inp_files/10029.got.cif
#   From: 2010.03.12/outbox.cif.g09.slc.cpg/sg191_6_cif.got.tgz:10029.got - 2010.04.01 12:09:02.
