data_PCOD8328201
_publ_section_title
;
Structure prediction by ZEFSAII (Michael W. Deem and Ramdas Pophale) SiO2 
 PCOD8328201
Probable space group: P -6 2 C
;
_chemical_formula_sum "Si O2"
_cell_formula_units_Z 44
_cell_length_a 12.178865
_cell_length_b 12.178865
_cell_length_c 15.126021
_cell_angle_alpha 90.000000
_cell_angle_beta 90.000000
_cell_angle_gamma 120.000000
_cell_volume 1942.982834
_symmetry_space_group_name_H-M "P -6 2 C"
_symmetry_group_IT_number 190
_symmetry_cell_setting 'hexagonal'
loop_
_space_group_symop_operation_xyz
x,y,z
-x+y,-x,1/2-z
-y,x-y,z
x,y,1/2-z
-x+y,-x,z
-y,x-y,1/2-z
x-y,-y,-z
-x,-x+y,-z
y,x,-z
y,x,1/2+z
x-y,-y,1/2+z
-x,-x+y,1/2+z
loop_
_atom_site_type_symbol
_atom_site_label
_atom_site_fract_x
_atom_site_fract_y
_atom_site_fract_z
Si Si1 0.913300 0.352954 0.416925
Si Si2 0.666668 0.333334 0.143436
Si Si3 0.081390 0.433654 0.250000
Si Si4 0.000000 0.000000 0.895517
Si Si5 0.060808 0.787968 0.594178
Si Si6 0.077742 0.682705 0.250000
O O1 0.810212 0.395393 0.393534
O O2 0.839795 0.204487 0.432473
O O3 0.000000 0.432598 0.500000
O O4 0.001595 0.370359 0.335822
O O5 0.666667 0.333334 0.250000
O O6 0.125445 0.581415 0.250000
O O7 0.187861 0.395231 0.250000
O O8 0.104290 0.140009 0.862550
O O9 0.000000 0.000000 0.000000
O O10 0.000000 0.741308 0.500000
O O11 0.007560 0.672047 0.663535
#
# Coordination Sequence:
#
# PCOD8328201 Si02
#       6
#    12   4   6   4  12   6
#     4  12  26  46  76 107 144 196 254 310 375 459
#     4  12  27  51  78 106 152 211 258 309 381 475
#     4  12  26  46  66 102 145 190 256 310 372 450
#     4   9  18  37  65  97 142 173 223 304 368 436
#     4  11  23  43  68 103 140 184 240 302 381 450
#     4  12  26  42  70  96 139 194 238 314 376 446
#
# _framework density 22.645593999999999
#
# number of rings (size 3 to 8) (size 9 to 14) (size 15 to 20)
#    0.000    0.545    1.364    8.455    0.000    7.636 
#    0.000    0.000    0.000    0.000    0.000    0.000 
#    0.000    0.000    0.000    0.000    0.000    0.000 
#
# Total GULP energy -545618.794580 kJ/mol
# GULP energy per Si atom -12400.427150 kJ/mol
# Density = 2.259405 g / cm^3
# Si number density = 22.645594 Si / 1000 Ang^3
#
#
#
# Elastic Constant Matrix: (Units=GPa)
#
#
# Indices 1 2 3 4 5 6 
#
# 1 98.0276 19.4098 41.0867 -0.0004 -0.0008 0.0009
# 2 19.4098 98.0245 41.0868 0.0002 0.0009 -0.0006
# 3 41.0867 41.0868 152.1128 0.0002 -0.0001 0.0006
# 4 -0.0004 0.0002 0.0002 50.2857 0.0004 -0.0008
# 5 -0.0008 0.0009 -0.0001 0.0004 50.2841 0.0003
# 6 0.0009 -0.0006 0.0006 -0.0008 0.0003 39.3085
#
#
#
# Elastic Compliance Matrix: (Units=1/GPa)
#
#
# Indices 1 2 3 4 5 6 
#
# 1 0.011610 -0.001110 -0.002836 0.000000 0.000000 0.000000
# 2 -0.001110 0.011610 -0.002836 0.000000 0.000000 0.000000
# 3 -0.002836 -0.002836 0.008106 0.000000 0.000000 0.000000
# 4 0.000000 0.000000 0.000000 0.019886 0.000000 0.000000
# 5 0.000000 0.000000 0.000000 0.000000 0.019887 0.000000
# 6 0.000000 0.000000 0.000000 0.000000 0.000000 0.025440
#
#
# Mechanical properties :
#
#
# Convention : Reuss Voigt Hill
#
# Bulk Modulus (GPa) = 56.30173 61.25904 58.78039
# Shear Modulus (GPa) = 43.09449 44.41442 43.75446
#
# Velocity S-wave (km/s) = 4.36707 4.43344 4.40038
# Velocity P-wave (km/s) = 7.09538 7.30186 7.19936
#
# Compressibility (1/GPa) = 0.01776144
#
# Stress axis : x y z
#
# Youngs Moduli (GPa) = 86.13495 86.13187 123.36309
#
# Poissons Ratio (x) = 0.09562 0.34986
# Poissons Ratio (y) = 0.09562 0.34987
# Poissons Ratio (z) = 0.24428 0.24428
#
# Static dielectric constant tensor:
#      x y z
#    x 6.238200 -0.000010 0.000010 
#    y -0.000010 6.237170 0.000060 
#    z 0.000010 0.000060 4.007040 
# 
# 
# High freq. dielectric constant tensor:
#      x y z
#    x 1.907830 0.000000 0.000000 
#    y 0.000000 1.907830 0.000000 
#    z 0.000000 0.000000 1.896160 
# 
# From -- ./inp_files/3544.got.cif
#   From: 2010.06.25/outbox.cif.g09.slc.cpg/sg190_2_cif.got.tgz:3544.got - 2010.06.28 13:08:06.
