data_PCOD8328348
_publ_section_title
;
Structure prediction by ZEFSAII (Michael W. Deem and Ramdas Pophale) SiO2 
 PCOD8328348
Probable space group: P 6/M M M
;
_chemical_formula_sum "Si O2"
_cell_formula_units_Z 144
_cell_length_a 21.480440
_cell_length_b 21.480440
_cell_length_c 25.697968
_cell_angle_alpha 90.000000
_cell_angle_beta 90.000000
_cell_angle_gamma 120.000000
_cell_volume 10268.706993
_symmetry_space_group_name_H-M "P 6/M M M"
_symmetry_group_IT_number 191
_symmetry_cell_setting 'hexagonal'
loop_
_space_group_symop_operation_xyz
x,y,z
x-y,x,z
-y,x-y,z
-x,-y,z
-x+y,-x,z
y,-x+y,z
x-y,-y,-z
-x,-x+y,-z
y,x,-z
-y,-x,-z
-x+y,y,-z
x,x-y,-z
-x,-y,-z
-x+y,-x,-z
y,-x+y,-z
x,y,-z
x-y,x,-z
-y,x-y,-z
-x+y,y,z
x,x-y,z
-y,-x,z
y,x,z
x-y,-y,z
-x,-x+y,z
loop_
_atom_site_type_symbol
_atom_site_label
_atom_site_fract_x
_atom_site_fract_y
_atom_site_fract_z
Si Si1 0.784194 0.704955 0.440393
Si Si2 0.613325 0.080036 0.301555
Si Si3 0.151898 0.704666 0.601651
Si Si4 0.666300 0.482321 0.094928
Si Si5 0.664821 0.188614 0.500000
Si Si6 0.082197 0.614445 0.000000
Si Si7 0.533700 0.919540 0.814107
O O1 0.765340 0.678491 0.500000
O O2 0.868267 0.736533 0.429210
O O3 0.768600 0.768600 0.427198
O O4 0.736323 0.637543 0.404029
O O5 0.541762 0.083523 0.299929
O O6 0.664255 0.136199 0.344007
O O7 0.648509 0.099702 0.243894
O O8 0.595563 0.000000 0.317083
O O9 0.234084 0.765917 0.604134
O O10 0.141437 0.653731 0.552015
O O11 0.740288 0.480575 0.089464
O O12 0.599749 0.400252 0.093815
O O13 0.658866 0.530175 0.049720
O O14 0.668288 0.524878 0.147386
O O15 0.744620 0.255381 0.500000
O O16 0.607849 0.215698 0.500000
O O17 0.073637 0.536819 0.000000
O O18 0.000000 0.601601 0.000000
O O19 0.460899 0.921797 0.815186
O O20 0.597858 0.000000 0.830162
#
# Coordination Sequence:
#
# PCOD8328348 Si02
#       7
#    24  24  24  24  12  12  24
#     4   9  16  27  42  58  76  96 117 140 172 216
#     4   9  17  29  43  58  75  96 126 164 201 232
#     4  10  18  28  41  57  77  99 123 155 194 236
#     4  10  18  27  40  59  83 105 128 161 203 241
#     4  10  19  30  41  53  72  99 130 160 193 233
#     4   9  17  28  42  58  76 103 136 162 186 224
#     4   8  15  28  43  55  71 100 134 163 192 232
#
# _framework density 14.023187
#
# number of rings (size 3 to 8) (size 9 to 14) (size 15 to 20)
#    0.000    2.750    0.833    3.000    0.000    2.667 
#    0.000    0.833    0.000    2.500    0.000    1.167 
#    0.000    0.000    0.000    0.000    0.000    0.000 
#
# Total GULP energy -1784428.036274 kJ/mol
# GULP energy per Si atom -12391.861363 kJ/mol
# Density = 1.399127 g / cm^3
# Si number density = 14.023187 Si / 1000 Ang^3
#
#
#
# Elastic Constant Matrix: (Units=GPa)
#
#
# Indices 1 2 3 4 5 6 
#
# 1 51.8729 29.4013 39.4254 0.0000 0.0000 0.0000
# 2 29.4013 51.8729 39.4254 0.0000 0.0000 0.0000
# 3 39.4254 39.4254 101.4777 0.0000 0.0000 0.0000
# 4 0.0000 0.0000 0.0000 17.2647 0.0000 0.0000
# 5 0.0000 0.0000 0.0000 0.0000 17.2647 0.0000
# 6 0.0000 0.0000 0.0000 0.0000 0.0000 11.2358
#
#
#
# Elastic Compliance Matrix: (Units=1/GPa)
#
#
# Indices 1 2 3 4 5 6 
#
# 1 0.032124 -0.012377 -0.007672 0.000000 0.000000 0.000000
# 2 -0.012377 0.032124 -0.007672 0.000000 0.000000 0.000000
# 3 -0.007672 -0.007672 0.015816 0.000000 0.000000 0.000000
# 4 0.000000 0.000000 0.000000 0.057922 0.000000 0.000000
# 5 0.000000 0.000000 0.000000 0.000000 0.057922 0.000000
# 6 0.000000 0.000000 0.000000 0.000000 0.000000 0.089001
#
#
# Mechanical properties :
#
#
# Convention : Reuss Voigt Hill
#
# Bulk Modulus (GPa) = 40.61387 46.85862 43.73625
# Shear Modulus (GPa) = 14.34487 15.61782 14.98134
#
# Velocity S-wave (km/s) = 3.20181 3.34086 3.27207
# Velocity P-wave (km/s) = 6.53403 6.95481 6.74770
#
# Compressibility (1/GPa) = 0.02462213
#
# Stress axis : x y z
#
# Youngs Moduli (GPa) = 31.12942 31.12942 63.22789
#
# Poissons Ratio (x) = 0.38528 0.48509
# Poissons Ratio (y) = 0.38528 0.48509
# Poissons Ratio (z) = 0.23883 0.23883
#
# Static dielectric constant tensor:
#      x y z
#    x 2.611490 0.000000 0.000000 
#    y 0.000000 2.611490 0.000000 
#    z 0.000000 0.000000 3.270190 
# 
# 
# High freq. dielectric constant tensor:
#      x y z
#    x 1.510520 0.000000 0.000000 
#    y 0.000000 1.510520 0.000000 
#    z 0.000000 0.000000 1.540730 
# 
# From -- ./inp_files/9961.got.cif
#   From: 2010.03.12/outbox.cif.g09.slc.cpg/sg191_5_cif.got.tgz:9961.got - 2010.04.01 12:09:02.
