data_PCOD8328169
_publ_section_title
;
Structure prediction by ZEFSAII (Michael W. Deem and Ramdas Pophale) SiO2 
 PCOD8328169
Probable space group: P -6 2 C
;
_chemical_formula_sum "Si O2"
_cell_formula_units_Z 36
_cell_length_a 8.614735
_cell_length_b 8.614735
_cell_length_c 26.890400
_cell_angle_alpha 90.000000
_cell_angle_beta 90.000000
_cell_angle_gamma 120.000000
_cell_volume 1728.270589
_symmetry_space_group_name_H-M "P -6 2 C"
_symmetry_group_IT_number 190
_symmetry_cell_setting 'hexagonal'
loop_
_space_group_symop_operation_xyz
x,y,z
-x+y,-x,1/2-z
-y,x-y,z
x,y,1/2-z
-x+y,-x,z
-y,x-y,1/2-z
x-y,-y,-z
-x,-x+y,-z
y,x,-z
y,x,1/2+z
x-y,-y,1/2+z
-x,-x+y,1/2+z
loop_
_atom_site_type_symbol
_atom_site_label
_atom_site_fract_x
_atom_site_fract_y
_atom_site_fract_z
Si Si1 0.654765 0.003595 0.653599
Si Si2 0.119675 0.633695 0.046909
Si Si3 0.994803 0.319753 0.192446
O O1 0.715026 0.858076 0.662931
O O2 0.613032 0.004117 0.595554
O O3 0.476391 0.947396 0.685413
O O4 0.808110 0.198707 0.670678
O O5 0.173206 0.477108 0.046088
O O6 0.000000 0.619204 0.000000
O O7 0.987403 0.270348 0.250000
#
# Coordination Sequence:
#
# PCOD8328169 Si02
#       3
#    12  12  12
#     4  12  25  45  66 102 141 179 237 288 346 417
#     4  10  23  43  69 102 132 178 225 281 352 406
#     4  12  24  42  68  97 137 187 234 287 346 412
#
# _framework density 20.830072000000001
#
# number of rings (size 3 to 8) (size 9 to 14) (size 15 to 20)
#    0.667    0.000    3.333    5.000    4.667    0.000 
#    0.000    0.000    0.000    0.667    0.000    0.000 
#    0.000    0.000    0.000    0.000    0.000    0.000 
#
# Total GULP energy -446618.330835 kJ/mol
# GULP energy per Si atom -12406.064745 kJ/mol
# Density = 2.078266 g / cm^3
# Si number density = 20.830072 Si / 1000 Ang^3
#
#
#
# Elastic Constant Matrix: (Units=GPa)
#
#
# Indices 1 2 3 4 5 6 
#
# 1 87.0656 15.9925 51.8695 0.0000 0.0000 0.0000
# 2 15.9925 87.0656 51.8695 0.0000 0.0000 0.0000
# 3 51.8695 51.8695 182.9518 0.0000 0.0000 0.0000
# 4 0.0000 0.0000 0.0000 34.7629 0.0000 0.0000
# 5 0.0000 0.0000 0.0000 0.0000 34.7629 0.0000
# 6 0.0000 0.0000 0.0000 0.0000 0.0000 35.5366
#
#
#
# Elastic Compliance Matrix: (Units=1/GPa)
#
#
# Indices 1 2 3 4 5 6 
#
# 1 0.013824 -0.000246 -0.003850 0.000000 0.000000 0.000000
# 2 -0.000246 0.013824 -0.003850 0.000000 0.000000 0.000000
# 3 -0.003850 -0.003850 0.007649 0.000000 0.000000 0.000000
# 4 0.000000 0.000000 0.000000 0.028766 0.000000 0.000000
# 5 0.000000 0.000000 0.000000 0.000000 0.028766 0.000000
# 6 0.000000 0.000000 0.000000 0.000000 0.000000 0.028140
#
#
# Mechanical properties :
#
#
# Convention : Reuss Voigt Hill
#
# Bulk Modulus (GPa) = 51.52815 66.28289 58.90552
# Shear Modulus (GPa) = 34.88476 36.83591 35.86033
#
# Velocity S-wave (km/s) = 4.09679 4.20980 4.15368
# Velocity P-wave (km/s) = 6.86799 7.45115 7.16551
#
# Compressibility (1/GPa) = 0.01940687
#
# Stress axis : x y z
#
# Youngs Moduli (GPa) = 72.33694 72.33694 130.73949
#
# Poissons Ratio (x) = 0.01778 0.50330
# Poissons Ratio (y) = 0.01778 0.50330
# Poissons Ratio (z) = 0.27847 0.27847
#
# Static dielectric constant tensor:
#      x y z
#    x 3.610840 0.000000 0.000000 
#    y 0.000000 3.610840 0.000000 
#    z 0.000000 0.000000 3.675210 
# 
# 
# High freq. dielectric constant tensor:
#      x y z
#    x 1.811710 0.000000 0.000000 
#    y 0.000000 1.811710 0.000000 
#    z 0.000000 0.000000 1.825920 
# 
# From -- ./inp_files/4796.got.cif
#   From: 2010.06.25/outbox.cif.g09.slc.cpg/sg190_3_cif.got.tgz:4796.got - 2010.06.28 13:08:06.
