data_PCOD8328955
_publ_section_title
;
Structure prediction by ZEFSAII (Michael W. Deem and Ramdas Pophale) SiO2 
 PCOD8328955
Probable space group: P 6/M M M
;
_chemical_formula_sum "Si O2"
_cell_formula_units_Z 192
_cell_length_a 31.206049
_cell_length_b 31.206049
_cell_length_c 14.081960
_cell_angle_alpha 90.000000
_cell_angle_beta 90.000000
_cell_angle_gamma 120.000000
_cell_volume 11876.030663
_symmetry_space_group_name_H-M "P 6/M M M"
_symmetry_group_IT_number 191
_symmetry_cell_setting 'hexagonal'
loop_
_space_group_symop_operation_xyz
x,y,z
x-y,x,z
-y,x-y,z
-x,-y,z
-x+y,-x,z
y,-x+y,z
x-y,-y,-z
-x,-x+y,-z
y,x,-z
-y,-x,-z
-x+y,y,-z
x,x-y,-z
-x,-y,-z
-x+y,-x,-z
y,-x+y,-z
x,y,-z
x-y,x,-z
-y,x-y,-z
-x+y,y,z
x,x-y,z
-y,-x,z
y,x,z
x-y,-y,z
-x,-x+y,z
loop_
_atom_site_type_symbol
_atom_site_label
_atom_site_fract_x
_atom_site_fract_y
_atom_site_fract_z
Si Si1 0.905100 0.612190 0.607711
Si Si2 0.057829 0.765873 0.287326
Si Si3 0.058217 0.718147 0.105072
Si Si4 0.375593 0.851123 0.244417
Si Si5 0.430211 0.667186 0.110765
Si Si6 0.193562 0.484167 0.608992
Si Si7 0.364294 0.943414 0.225313
Si Si8 0.205533 0.055200 0.607851
O O1 0.922142 0.613449 0.500000
O O2 0.912215 0.664816 0.637333
O O3 0.847154 0.573311 0.621752
O O4 0.939524 0.598847 0.671429
O O5 0.075897 0.763918 0.179495
O O6 0.068568 0.820093 0.315044
O O7 0.000000 0.725771 0.297643
O O8 0.072328 0.678448 0.145916
O O9 0.000000 0.692136 0.094363
O O10 0.082534 0.736776 0.000000
O O11 0.428578 0.857155 0.265311
O O12 0.347504 0.815562 0.156215
O O13 0.341589 0.824845 0.335477
O O14 0.384815 0.905491 0.219339
O O15 0.439001 0.719501 0.150642
O O16 0.373903 0.626098 0.134649
O O17 0.440657 0.670875 0.000000
O O18 0.198825 0.500726 0.500000
O O19 0.246003 0.492005 0.647142
O O20 0.408599 0.000000 0.210213
O O21 0.226048 0.059879 0.500000
O O22 0.184572 0.092286 0.624100
O O23 0.160439 0.000000 0.625923
#
# Coordination Sequence:
#
# PCOD8328955 Si02
#       8
#    24  24  24  24  24  24  24  24
#     4   9  16  26  42  64  89 115 144 180 218 257
#     4   9  16  25  40  65  92 116 146 182 221 267
#     4   8  14  26  44  63  84 114 150 183 214 252
#     4  10  20  32  47  67  89 114 145 181 219 259
#     4   9  17  30  49  71  91 108 128 160 207 263
#     4   9  18  32  48  65  86 113 143 174 213 263
#     4   9  18  30  43  62  87 118 156 190 219 250
#     4   9  17  28  42  62  90 123 156 192 236 281
#
# _framework density 16.167017999999999
#
# number of rings (size 3 to 8) (size 9 to 14) (size 15 to 20)
#    0.000    3.000    0.000    2.000    0.000    3.500 
#    0.000    1.250    0.000    0.750    0.000    7.875 
#    0.000    0.000    0.000    0.000    0.000    0.000 
#
# Total GULP energy -2379734.338749 kJ/mol
# GULP energy per Si atom -12394.449681 kJ/mol
# Density = 1.613022 g / cm^3
# Si number density = 16.167018 Si / 1000 Ang^3
#
#
#
# Elastic Constant Matrix: (Units=GPa)
#
#
# Indices 1 2 3 4 5 6 
#
# 1 95.6908 55.9766 40.8395 0.0000 0.0000 0.0000
# 2 55.9766 95.6908 40.8395 0.0000 0.0000 0.0000
# 3 40.8395 40.8395 89.8340 0.0000 0.0000 0.0000
# 4 0.0000 0.0000 0.0000 18.4614 0.0000 0.0000
# 5 0.0000 0.0000 0.0000 0.0000 18.4614 0.0000
# 6 0.0000 0.0000 0.0000 0.0000 0.0000 19.8571
#
#
#
# Elastic Compliance Matrix: (Units=1/GPa)
#
#
# Indices 1 2 3 4 5 6 
#
# 1 0.016955 -0.008224 -0.003969 0.000000 0.000000 0.000000
# 2 -0.008224 0.016955 -0.003969 0.000000 0.000000 0.000000
# 3 -0.003969 -0.003969 0.014741 0.000000 0.000000 0.000000
# 4 0.000000 0.000000 0.000000 0.054167 0.000000 0.000000
# 5 0.000000 0.000000 0.000000 0.000000 0.054167 0.000000
# 6 0.000000 0.000000 0.000000 0.000000 0.000000 0.050360
#
#
# Mechanical properties :
#
#
# Convention : Reuss Voigt Hill
#
# Bulk Modulus (GPa) = 61.25323 61.83631 61.54477
# Shear Modulus (GPa) = 20.39876 20.92664 20.66270
#
# Velocity S-wave (km/s) = 3.55597 3.60168 3.57890
# Velocity P-wave (km/s) = 7.40472 7.45839 7.43161
#
# Compressibility (1/GPa) = 0.01632567
#
# Stress axis : x y z
#
# Youngs Moduli (GPa) = 58.97821 58.97821 67.84024
#
# Poissons Ratio (x) = 0.48506 0.26927
# Poissons Ratio (y) = 0.48506 0.26927
# Poissons Ratio (z) = 0.23410 0.23410
#
# Static dielectric constant tensor:
#      x y z
#    x 2.956270 0.000000 0.000000 
#    y 0.000000 2.956270 0.000000 
#    z 0.000000 0.000000 3.296700 
# 
# 
# High freq. dielectric constant tensor:
#      x y z
#    x 1.605510 0.000000 0.000000 
#    y 0.000000 1.605510 0.000000 
#    z 0.000000 0.000000 1.620380 
# 
# From -- ./inp_files/5543.got.cif
#   From: 2010.03.12/outbox.cif.g09.slc.cpg/sg191_3_cif.got.tgz:5543.got - 2010.04.01 12:09:02.
