data_PCOD8328375
_publ_section_title
;
Structure prediction by ZEFSAII (Michael W. Deem and Ramdas Pophale) SiO2 
 PCOD8328375
Probable space group: P 6/M M M
;
_chemical_formula_sum "Si O2"
_cell_formula_units_Z 168
_cell_length_a 22.383016
_cell_length_b 22.383016
_cell_length_c 26.335567
_cell_angle_alpha 90.000000
_cell_angle_beta 90.000000
_cell_angle_gamma 120.000000
_cell_volume 11426.428728
_symmetry_space_group_name_H-M "P 6/M M M"
_symmetry_group_IT_number 191
_symmetry_cell_setting 'hexagonal'
loop_
_space_group_symop_operation_xyz
x,y,z
x-y,x,z
-y,x-y,z
-x,-y,z
-x+y,-x,z
y,-x+y,z
x-y,-y,-z
-x,-x+y,-z
y,x,-z
-y,-x,-z
-x+y,y,-z
x,x-y,-z
-x,-y,-z
-x+y,-x,-z
y,-x+y,-z
x,y,-z
x-y,x,-z
-y,x-y,-z
-x+y,y,z
x,x-y,z
-y,-x,z
y,x,z
x-y,-y,z
-x,-x+y,z
loop_
_atom_site_type_symbol
_atom_site_label
_atom_site_fract_x
_atom_site_fract_y
_atom_site_fract_z
Si Si1 0.666234 0.474499 0.850947
Si Si2 0.712681 0.789274 0.908973
Si Si3 0.529934 0.610510 0.336533
Si Si4 0.531802 0.609944 0.553603
Si Si5 0.147022 0.435562 0.943840
Si Si6 0.714122 0.923082 0.789813
Si Si7 0.851017 0.563220 0.754194
O O1 0.732802 0.465603 0.853224
O O2 0.600040 0.399961 0.846516
O O3 0.659748 0.512091 0.901649
O O4 0.669013 0.520162 0.802998
O O5 0.732605 0.866303 0.927634
O O6 0.774700 0.774700 0.923301
O O7 0.642978 0.729986 0.934714
O O8 0.698609 0.782391 0.849285
O O9 0.454331 0.545670 0.330289
O O10 0.586514 0.586514 0.330018
O O11 0.538106 0.647212 0.392263
O O12 0.538520 0.665261 0.295006
O O13 0.535563 0.650066 0.500000
O O14 0.460435 0.539566 0.554812
O O15 0.593727 0.593727 0.551862
O O16 0.218102 0.436203 0.939265
O O17 0.137583 0.459278 0.000000
O O18 0.739893 0.869947 0.773322
O O19 0.643568 0.904873 0.762095
O O20 0.772950 0.000000 0.774330
O O21 0.774880 0.549760 0.744583
#
# Coordination Sequence:
#
# PCOD8328375 Si02
#       7
#    24  24  24  24  24  24  24
#     4  10  19  31  45  61  80 104 134 169 208 247
#     4   9  16  28  46  66  85 106 134 164 194 230
#     4   9  16  25  39  60  82 102 130 172 214 245
#     4   7  10  18  33  53  76 100 126 160 205 250
#     4   9  17  30  46  62  80 102 130 164 201 240
#     4   9  16  27  44  63  82 105 133 163 193 229
#     4  10  18  28  41  57  82 113 140 164 194 238
#
# _framework density 14.702757
#
# number of rings (size 3 to 8) (size 9 to 14) (size 15 to 20)
#    0.000    3.000    1.429    2.286    0.000    0.571 
#    0.000    0.000    0.000    3.143    0.000    3.000 
#    0.000    0.000    0.000    3.571    0.000    3.714 
#
# Total GULP energy -2081211.538871 kJ/mol
# GULP energy per Si atom -12388.163922 kJ/mol
# Density = 1.466929 g / cm^3
# Si number density = 14.702757 Si / 1000 Ang^3
#
#
#
# Elastic Constant Matrix: (Units=GPa)
#
#
# Indices 1 2 3 4 5 6 
#
# 1 56.8019 29.3897 41.2790 0.0000 0.0000 0.0000
# 2 29.3897 56.8019 41.2790 0.0000 0.0000 0.0000
# 3 41.2790 41.2790 120.5652 0.0000 0.0000 0.0000
# 4 0.0000 0.0000 0.0000 15.4127 0.0000 0.0000
# 5 0.0000 0.0000 0.0000 0.0000 15.4127 0.0000
# 6 0.0000 0.0000 0.0000 0.0000 0.0000 13.7061
#
#
#
# Elastic Compliance Matrix: (Units=1/GPa)
#
#
# Indices 1 2 3 4 5 6 
#
# 1 0.026872 -0.009608 -0.005911 0.000000 0.000000 0.000000
# 2 -0.009608 0.026872 -0.005911 0.000000 0.000000 0.000000
# 3 -0.005911 -0.005911 0.012342 0.000000 0.000000 0.000000
# 4 0.000000 0.000000 0.000000 0.064882 0.000000 0.000000
# 5 0.000000 0.000000 0.000000 0.000000 0.064882 0.000000
# 6 0.000000 0.000000 0.000000 0.000000 0.000000 0.072960
#
#
# Mechanical properties :
#
#
# Convention : Reuss Voigt Hill
#
# Bulk Modulus (GPa) = 43.05513 50.89607 46.97560
# Shear Modulus (GPa) = 15.65385 17.05438 16.35412
#
# Velocity S-wave (km/s) = 3.26650 3.40949 3.33876
# Velocity P-wave (km/s) = 6.60106 7.08458 6.84709
#
# Compressibility (1/GPa) = 0.02322604
#
# Stress axis : x y z
#
# Youngs Moduli (GPa) = 37.21365 37.21365 81.02644
#
# Poissons Ratio (x) = 0.35756 0.47892
# Poissons Ratio (y) = 0.35756 0.47892
# Poissons Ratio (z) = 0.21996 0.21996
#
# Static dielectric constant tensor:
#      x y z
#    x 2.666400 0.000000 0.000000 
#    y 0.000000 2.666400 0.000000 
#    z 0.000000 0.000000 3.099400 
# 
# 
# High freq. dielectric constant tensor:
#      x y z
#    x 1.534110 0.000000 0.000000 
#    y 0.000000 1.534110 0.000000 
#    z 0.000000 0.000000 1.568000 
# 
# From -- ./inp_files/10035.got.cif
#   From: 2010.03.12/outbox.cif.g09.slc.cpg/sg191_6_cif.got.tgz:10035.got - 2010.04.01 12:09:02.
