data_PCOD8328294
_publ_section_title
;
Structure prediction by ZEFSAII (Michael W. Deem and Ramdas Pophale) SiO2 
 PCOD8328294
Probable space group: P 6/M M M
;
_chemical_formula_sum "Si O2"
_cell_formula_units_Z 132
_cell_length_a 18.315600
_cell_length_b 18.315600
_cell_length_c 28.534783
_cell_angle_alpha 90.000000
_cell_angle_beta 90.000000
_cell_angle_gamma 120.000000
_cell_volume 8289.865922
_symmetry_space_group_name_H-M "P 6/M M M"
_symmetry_group_IT_number 191
_symmetry_cell_setting 'hexagonal'
loop_
_space_group_symop_operation_xyz
x,y,z
x-y,x,z
-y,x-y,z
-x,-y,z
-x+y,-x,z
y,-x+y,z
x-y,-y,-z
-x,-x+y,-z
y,x,-z
-y,-x,-z
-x+y,y,-z
x,x-y,-z
-x,-y,-z
-x+y,-x,-z
y,-x+y,-z
x,y,-z
x-y,x,-z
-y,x-y,-z
-x+y,y,z
x,x-y,z
-y,-x,z
y,x,z
x-y,-y,z
-x,-x+y,z
loop_
_atom_site_type_symbol
_atom_site_label
_atom_site_fract_x
_atom_site_fract_y
_atom_site_fract_z
Si Si1 0.499940 0.333461 0.053914
Si Si2 0.830540 0.331395 0.312118
Si Si3 0.172642 0.503225 0.500000
Si Si4 0.331231 0.835589 0.791321
Si Si5 0.733990 0.096006 0.870082
Si Si6 0.097366 0.464006 0.406220
O O1 0.528871 0.264436 0.061370
O O2 0.576811 0.423190 0.070849
O O3 0.416270 0.308215 0.083345
O O4 0.477624 0.337929 0.000000
O O5 0.852709 0.426355 0.314615
O O6 0.730491 0.269510 0.315566
O O7 0.863144 0.319935 0.261391
O O8 0.874022 0.314272 0.357171
O O9 0.273577 0.547153 0.500000
O O10 0.142238 0.571119 0.500000
O O11 0.138498 0.447796 0.452448
O O12 0.423549 0.847098 0.799048
O O13 0.262287 0.737714 0.800676
O O14 0.315394 0.894538 0.826062
O O15 0.834599 0.165402 0.868126
O O16 0.717707 0.000000 0.870076
O O17 0.124680 0.562340 0.404613
O O18 0.000000 0.403961 0.411966
#
# Coordination Sequence:
#
# PCOD8328294 Si02
#       6
#    24  24  12  24  24  24
#     4   9  17  29  46  69  98 131 162 187 210 241
#     4   9  16  26  40  58  80 106 137 170 200 228
#     4  10  18  27  39  53  68  87 116 156 201 246
#     4   9  17  28  43  64  91 122 151 177 205 241
#     4  10  21  35  49  66  88 114 145 183 228 272
#     4   9  17  27  37  50  70  96 124 156 197 240
#
# _framework density 15.923056000000001
#
# number of rings (size 3 to 8) (size 9 to 14) (size 15 to 20)
#    0.000    2.727    0.000    2.000    0.000    5.818 
#    0.000    6.364    0.000    0.182    0.000    0.000 
#    0.000    0.000    0.000    4.545    0.000    0.000 
#
# Total GULP energy -1635360.589905 kJ/mol
# GULP energy per Si atom -12389.095378 kJ/mol
# Density = 1.588681 g / cm^3
# Si number density = 15.923056 Si / 1000 Ang^3
#
#
#
# Elastic Constant Matrix: (Units=GPa)
#
#
# Indices 1 2 3 4 5 6 
#
# 1 41.0160 38.8228 34.6994 0.0000 0.0000 0.0000
# 2 38.8228 41.0160 34.6994 0.0000 0.0000 0.0000
# 3 34.6994 34.6994 118.2786 0.0000 0.0000 0.0000
# 4 0.0000 0.0000 0.0000 15.1767 0.0000 0.0000
# 5 0.0000 0.0000 0.0000 0.0000 15.1767 0.0000
# 6 0.0000 0.0000 0.0000 0.0000 0.0000 1.0966
#
#
#
# Elastic Compliance Matrix: (Units=1/GPa)
#
#
# Indices 1 2 3 4 5 6 
#
# 1 0.236391 -0.219578 -0.004932 0.000000 0.000000 0.000000
# 2 -0.219578 0.236391 -0.004932 0.000000 0.000000 0.000000
# 3 -0.004932 -0.004932 0.011349 0.000000 0.000000 0.000000
# 4 0.000000 0.000000 0.000000 0.065890 0.000000 0.000000
# 5 0.000000 0.000000 0.000000 0.000000 0.065890 0.000000
# 6 0.000000 0.000000 0.000000 0.000000 0.000000 0.911937
#
#
# Mechanical properties :
#
#
# Convention : Reuss Voigt Hill
#
# Bulk Modulus (GPa) = 39.61254 46.30597 42.95925
# Shear Modulus (GPa) = 2.50608 12.42927 7.46768
#
# Velocity S-wave (km/s) = 1.25590 2.79692 2.16796
# Velocity P-wave (km/s) = 5.19947 6.29083 5.77101
#
# Compressibility (1/GPa) = 0.02524453
#
# Stress axis : x y z
#
# Youngs Moduli (GPa) = 4.23029 4.23029 88.11666
#
# Poissons Ratio (x) = 0.92888 0.43462
# Poissons Ratio (y) = 0.92888 0.43462
# Poissons Ratio (z) = 0.02087 0.02087
#
# Static dielectric constant tensor:
#      x y z
#    x 2.698330 0.000000 0.000000 
#    y 0.000000 2.698330 0.000000 
#    z 0.000000 0.000000 3.649650 
# 
# 
# High freq. dielectric constant tensor:
#      x y z
#    x 1.566330 0.000000 0.000000 
#    y 0.000000 1.566330 0.000000 
#    z 0.000000 0.000000 1.646100 
# 
# From -- ./inp_files/10477.got.cif
#   From: 2010.03.12/outbox.cif.g09.slc.cpg/sg191_6_cif.got.tgz:10477.got - 2010.04.01 12:09:02.
