data_PCOD8328028
_publ_section_title
;
Structure prediction by ZEFSAII (Michael W. Deem and Ramdas Pophale) SiO2 
 PCOD8328028
Probable space group: P -6 2 C
;
_chemical_formula_sum "Si O2"
_cell_formula_units_Z 60
_cell_length_a 14.229662
_cell_length_b 14.229662
_cell_length_c 16.825349
_cell_angle_alpha 90.000000
_cell_angle_beta 90.000000
_cell_angle_gamma 120.000000
_cell_volume 2950.420261
_symmetry_space_group_name_H-M "P -6 2 C"
_symmetry_group_IT_number 190
_symmetry_cell_setting 'hexagonal'
loop_
_space_group_symop_operation_xyz
x,y,z
-x+y,-x,1/2-z
-y,x-y,z
x,y,1/2-z
-x+y,-x,z
-y,x-y,1/2-z
x-y,-y,-z
-x,-x+y,-z
y,x,-z
y,x,1/2+z
x-y,-y,1/2+z
-x,-x+y,1/2+z
loop_
_atom_site_type_symbol
_atom_site_label
_atom_site_fract_x
_atom_site_fract_y
_atom_site_fract_z
Si Si1 0.836973 0.781210 0.925045
Si Si2 0.022511 0.730476 0.340325
Si Si3 0.371120 0.475973 0.453559
Si Si4 0.295438 0.843935 0.998166
Si Si5 0.349932 0.129320 0.160496
O O1 0.943384 0.783999 0.890334
O O2 0.759465 0.663532 0.961038
O O3 0.771697 0.801794 0.855400
O O4 0.864451 0.864451 0.000000
O O5 0.056715 0.765163 0.250000
O O6 0.087275 0.668111 0.367263
O O7 0.893667 0.652668 0.349252
O O8 0.383619 0.383619 0.500000
O O9 0.482174 0.589945 0.456693
O O10 0.284641 0.504440 0.491026
O O11 0.305518 0.868312 0.902828
O O12 0.385466 0.118880 0.250000
#
# Coordination Sequence:
#
# PCOD8328028 Si02
#       5
#    12  12  12  12  12
#     4   9  19  34  58  85 114 152 200 242 299 371
#     4  10  21  37  59  87 123 164 201 255 317 367
#     4  11  20  38  60  84 121 159 208 258 308 381
#     4  10  21  36  58  87 112 159 203 247 308 368
#     4  10  19  36  57  84 120 155 200 251 307 365
#
# _framework density 20.336088
#
# number of rings (size 3 to 8) (size 9 to 14) (size 15 to 20)
#    0.000    2.000    2.000    2.800    0.000    0.000 
#    1.200    9.000    0.000    0.000    0.000    0.000 
#    0.000    0.000    0.000    0.000    0.000    0.000 
#
# Total GULP energy -743525.874231 kJ/mol
# GULP energy per Si atom -12392.097904 kJ/mol
# Density = 2.028980 g / cm^3
# Si number density = 20.336088 Si / 1000 Ang^3
#
#
#
# Elastic Constant Matrix: (Units=GPa)
#
#
# Indices 1 2 3 4 5 6 
#
# 1 58.8101 11.1959 27.8182 0.0000 0.0000 0.0000
# 2 11.1959 58.8101 27.8182 0.0000 0.0000 0.0000
# 3 27.8182 27.8182 119.1149 0.0000 0.0000 0.0000
# 4 0.0000 0.0000 0.0000 25.4473 0.0000 0.0000
# 5 0.0000 0.0000 0.0000 0.0000 25.4473 0.0000
# 6 0.0000 0.0000 0.0000 0.0000 0.0000 23.8071
#
#
#
# Elastic Compliance Matrix: (Units=1/GPa)
#
#
# Indices 1 2 3 4 5 6 
#
# 1 0.019271 -0.001731 -0.004096 0.000000 0.000000 0.000000
# 2 -0.001731 0.019271 -0.004096 0.000000 0.000000 0.000000
# 3 -0.004096 -0.004096 0.010309 0.000000 0.000000 0.000000
# 4 0.000000 0.000000 0.000000 0.039297 0.000000 0.000000
# 5 0.000000 0.000000 0.000000 0.000000 0.039297 0.000000
# 6 0.000000 0.000000 0.000000 0.000000 0.000000 0.042004
#
#
# Mechanical properties :
#
#
# Convention : Reuss Voigt Hill
#
# Bulk Modulus (GPa) = 34.47880 41.15551 37.81715
# Shear Modulus (GPa) = 25.13021 26.26722 25.69872
#
# Velocity S-wave (km/s) = 3.51913 3.59786 3.55871
# Velocity P-wave (km/s) = 5.78823 6.12708 5.96006
#
# Compressibility (1/GPa) = 0.02900333
#
# Stress axis : x y z
#
# Youngs Moduli (GPa) = 51.89130 51.89130 97.00676
#
# Poissons Ratio (x) = 0.08983 0.39737
# Poissons Ratio (y) = 0.08983 0.39737
# Poissons Ratio (z) = 0.21256 0.21256
#
# Static dielectric constant tensor:
#      x y z
#    x 3.791850 0.000000 0.000000 
#    y 0.000000 3.791850 0.000000 
#    z 0.000000 0.000000 3.925400 
# 
# 
# High freq. dielectric constant tensor:
#      x y z
#    x 1.784430 0.000000 0.000000 
#    y 0.000000 1.784430 0.000000 
#    z 0.000000 0.000000 1.787640 
# 
# From -- ./inp_files/2796.got.cif
#   From: 2010.06.25/outbox.cif.g09.slc.cpg/sg190_2_cif.got.tgz:2796.got - 2010.06.28 13:08:06.
