data_PCOD8328985
_publ_section_title
;
Structure prediction by ZEFSAII (Michael W. Deem and Ramdas Pophale) SiO2 
 PCOD8328985
Probable space group: P 6/M M M
;
_chemical_formula_sum "Si O2"
_cell_formula_units_Z 96
_cell_length_a 32.796022
_cell_length_b 32.796022
_cell_length_c 7.860545
_cell_angle_alpha 90.000000
_cell_angle_beta 90.000000
_cell_angle_gamma 120.000000
_cell_volume 7321.930937
_symmetry_space_group_name_H-M "P 6/M M M"
_symmetry_group_IT_number 191
_symmetry_cell_setting 'hexagonal'
loop_
_space_group_symop_operation_xyz
x,y,z
x-y,x,z
-y,x-y,z
-x,-y,z
-x+y,-x,z
y,-x+y,z
x-y,-y,-z
-x,-x+y,-z
y,x,-z
-y,-x,-z
-x+y,y,-z
x,x-y,-z
-x,-y,-z
-x+y,-x,-z
y,-x+y,-z
x,y,-z
x-y,x,-z
-y,x-y,-z
-x+y,y,z
x,x-y,z
-y,-x,z
y,x,z
x-y,-y,z
-x,-x+y,z
loop_
_atom_site_type_symbol
_atom_site_label
_atom_site_fract_x
_atom_site_fract_y
_atom_site_fract_z
Si Si1 0.200838 0.944362 0.313030
Si Si2 0.657343 0.713423 0.192067
Si Si3 0.574108 0.517883 0.000000
Si Si4 0.055272 0.855603 0.000000
Si Si5 0.055948 0.428977 0.687401
O O1 0.177140 0.927083 0.500000
O O2 0.235469 0.923311 0.279661
O O3 0.232156 0.000000 0.308869
O O4 0.162074 0.929307 0.166357
O O5 0.686291 0.686291 0.197061
O O6 0.607428 0.682537 0.286159
O O7 0.646870 0.721338 0.000000
O O8 0.606717 0.530723 0.831790
O O9 0.546281 0.546281 0.000000
O O10 0.537860 0.462141 0.000000
O O11 0.087306 0.912695 0.000000
O O12 0.000000 0.839865 0.000000
O O13 0.071880 0.452192 0.500000
O O14 0.000000 0.400407 0.701744
#
# Coordination Sequence:
#
# PCOD8328985 Si02
#       5
#    24  24  12  12  24
#     4   9  16  26  41  60  79  96 112 131 157 189
#     4   9  13  20  34  50  68  86 103 127 160 196
#     4   9  16  23  27  32  46  70 103 141 174 204
#     4  10  20  33  47  63  82 102 121 138 156 181
#     4   9  15  21  29  40  54  74 100 131 167 203
#
# _framework density 13.111295999999999
#
# number of rings (size 3 to 8) (size 9 to 14) (size 15 to 20)
#    0.000    2.875    2.500    0.750    0.000    4.000 
#    0.000    2.500    0.000    0.125    0.000    0.000 
#    0.000    0.000    0.000    6.250    0.000    0.000 
#
# Total GULP energy -1189417.530056 kJ/mol
# GULP energy per Si atom -12389.765938 kJ/mol
# Density = 1.308145 g / cm^3
# Si number density = 13.111296 Si / 1000 Ang^3
#
#
#
# Elastic Constant Matrix: (Units=GPa)
#
#
# Indices 1 2 3 4 5 6 
#
# 1 42.6709 25.9134 28.0158 0.0000 0.0000 0.0000
# 2 25.9134 42.6709 28.0158 0.0000 0.0000 0.0000
# 3 28.0158 28.0158 122.9609 0.0000 0.0000 0.0000
# 4 0.0000 0.0000 0.0000 3.0040 0.0000 0.0000
# 5 0.0000 0.0000 0.0000 0.0000 3.0040 0.0000
# 6 0.0000 0.0000 0.0000 0.0000 0.0000 8.3787
#
#
#
# Elastic Compliance Matrix: (Units=1/GPa)
#
#
# Indices 1 2 3 4 5 6 
#
# 1 0.038795 -0.020880 -0.004082 0.000000 0.000000 0.000000
# 2 -0.020880 0.038795 -0.004082 0.000000 0.000000 0.000000
# 3 -0.004082 -0.004082 0.009993 0.000000 0.000000 0.000000
# 4 0.000000 0.000000 0.000000 0.332892 0.000000 0.000000
# 5 0.000000 0.000000 0.000000 0.000000 0.332892 0.000000
# 6 0.000000 0.000000 0.000000 0.000000 0.000000 0.119350
#
#
# Mechanical properties :
#
#
# Convention : Reuss Voigt Hill
#
# Bulk Modulus (GPa) = 33.90298 41.35475 37.62887
# Shear Modulus (GPa) = 5.31555 11.30117 8.30836
#
# Velocity S-wave (km/s) = 2.01568 2.93907 2.52003
# Velocity P-wave (km/s) = 5.59743 6.56714 6.10158
#
# Compressibility (1/GPa) = 0.02949593
#
# Stress axis : x y z
#
# Youngs Moduli (GPa) = 25.77637 25.77637 100.07271
#
# Poissons Ratio (x) = 0.53821 0.40849
# Poissons Ratio (y) = 0.53821 0.40849
# Poissons Ratio (z) = 0.10522 0.10522
#
# Static dielectric constant tensor:
#      x y z
#    x 2.291560 0.000000 0.000000 
#    y 0.000000 2.291560 0.000000 
#    z 0.000000 0.000000 3.022850 
# 
# 
# High freq. dielectric constant tensor:
#      x y z
#    x 1.443800 0.000000 0.000000 
#    y 0.000000 1.443800 0.000000 
#    z 0.000000 0.000000 1.525470 
# 
# From -- ./inp_files/1527.got.cif
#   From: 2010.03.12/outbox.cif.g09.slc.cpg/sg191_1_cif.got.tgz:1527.got - 2010.04.01 12:09:02.
