data_PCOD8328987
_publ_section_title
;
Structure prediction by ZEFSAII (Michael W. Deem and Ramdas Pophale) SiO2 
 PCOD8328987
Probable space group: P 6/M M M
;
_chemical_formula_sum "Si O2"
_cell_formula_units_Z 132
_cell_length_a 18.027111
_cell_length_b 18.027111
_cell_length_c 30.086951
_cell_angle_alpha 90.000000
_cell_angle_beta 90.000000
_cell_angle_gamma 120.000000
_cell_volume 8467.614465
_symmetry_space_group_name_H-M "P 6/M M M"
_symmetry_group_IT_number 191
_symmetry_cell_setting 'hexagonal'
loop_
_space_group_symop_operation_xyz
x,y,z
x-y,x,z
-y,x-y,z
-x,-y,z
-x+y,-x,z
y,-x+y,z
x-y,-y,-z
-x,-x+y,-z
y,x,-z
-y,-x,-z
-x+y,y,-z
x,x-y,-z
-x,-y,-z
-x+y,-x,-z
y,-x+y,-z
x,y,-z
x-y,x,-z
-y,x-y,-z
-x+y,y,z
x,x-y,z
-y,-x,z
y,x,z
x-y,-y,z
-x,-x+y,z
loop_
_atom_site_type_symbol
_atom_site_label
_atom_site_fract_x
_atom_site_fract_y
_atom_site_fract_z
Si Si1 0.331222 0.839638 0.607082
Si Si2 0.411902 0.411902 0.549973
Si Si3 0.362498 0.098025 0.124482
Si Si4 0.498399 0.166660 0.705059
Si Si5 0.467066 0.099969 0.203845
Si Si6 0.836840 0.503262 0.050983
O O1 0.412873 0.825746 0.605241
O O2 0.248353 0.751648 0.591718
O O3 0.318570 0.866224 0.657170
O O4 0.340996 0.914862 0.574777
O O5 0.500000 0.500000 0.549838
O O6 0.380017 0.380017 0.500000
O O7 0.323242 0.161621 0.120656
O O8 0.430086 0.133233 0.165140
O O9 0.414006 0.101812 0.080130
O O10 0.285886 0.000000 0.131251
O O11 0.571486 0.142971 0.707621
O O12 0.536866 0.268433 0.707792
O O13 0.439731 0.121796 0.748296
O O14 0.570815 0.141630 0.199398
O O15 0.425154 0.000000 0.198813
O O16 0.737914 0.475828 0.057952
O O17 0.848612 0.424306 0.066128
O O18 0.864764 0.527831 0.000000
#
# Coordination Sequence:
#
# PCOD8328987 Si02
#       6
#    24  12  24  24  24  24
#     4   9  17  28  43  61  83 111 144 180 215 252
#     4   9  18  30  42  58  80 106 139 179 218 254
#     4  10  20  33  47  63  85 112 144 182 223 265
#     4   9  16  25  38  56  79 107 140 173 204 238
#     4   9  17  27  41  62  87 113 138 165 201 250
#     4   9  17  29  46  68  94 123 152 179 207 243
#
# _framework density 15.588806999999999
#
# number of rings (size 3 to 8) (size 9 to 14) (size 15 to 20)
#    0.000    2.818    0.000    1.636    1.273    4.000 
#    0.000    0.909    0.000    7.091    0.000    0.000 
#    0.000    0.000    0.000    4.818    0.000    1.182 
#
# Total GULP energy -1635779.533600 kJ/mol
# GULP energy per Si atom -12392.269194 kJ/mol
# Density = 1.555333 g / cm^3
# Si number density = 15.588807 Si / 1000 Ang^3
#
#
#
# Elastic Constant Matrix: (Units=GPa)
#
#
# Indices 1 2 3 4 5 6 
#
# 1 60.9923 30.4011 34.6318 0.0000 0.0000 0.0000
# 2 30.4011 60.9923 34.6318 0.0000 0.0000 0.0000
# 3 34.6318 34.6318 104.4603 0.0000 0.0000 0.0000
# 4 0.0000 0.0000 0.0000 15.4825 0.0000 0.0000
# 5 0.0000 0.0000 0.0000 0.0000 15.4825 0.0000
# 6 0.0000 0.0000 0.0000 0.0000 0.0000 15.2956
#
#
#
# Elastic Compliance Matrix: (Units=1/GPa)
#
#
# Indices 1 2 3 4 5 6 
#
# 1 0.023651 -0.009038 -0.004845 0.000000 0.000000 0.000000
# 2 -0.009038 0.023651 -0.004845 0.000000 0.000000 0.000000
# 3 -0.004845 -0.004845 0.012785 0.000000 0.000000 0.000000
# 4 0.000000 0.000000 0.000000 0.064589 0.000000 0.000000
# 5 0.000000 0.000000 0.000000 0.000000 0.064589 0.000000
# 6 0.000000 0.000000 0.000000 0.000000 0.000000 0.065378
#
#
# Mechanical properties :
#
#
# Convention : Reuss Voigt Hill
#
# Bulk Modulus (GPa) = 44.18319 47.30824 45.74571
# Shear Modulus (GPa) = 16.68650 17.70414 17.19532
#
# Velocity S-wave (km/s) = 3.27527 3.37366 3.32483
# Velocity P-wave (km/s) = 6.53511 6.75196 6.64442
#
# Compressibility (1/GPa) = 0.02263304
#
# Stress axis : x y z
#
# Youngs Moduli (GPa) = 42.28102 42.28102 78.21416
#
# Poissons Ratio (x) = 0.38213 0.37893
# Poissons Ratio (y) = 0.38213 0.37893
# Poissons Ratio (z) = 0.20484 0.20484
#
# Static dielectric constant tensor:
#      x y z
#    x 2.743050 0.000000 0.000000 
#    y 0.000000 2.743050 0.000000 
#    z 0.000000 0.000000 3.337880 
# 
# 
# High freq. dielectric constant tensor:
#      x y z
#    x 1.564230 0.000000 0.000000 
#    y 0.000000 1.564230 0.000000 
#    z 0.000000 0.000000 1.616900 
# 
# From -- ./inp_files/10465.got.cif
#   From: 2010.03.12/outbox.cif.g09.slc.cpg/sg191_6_cif.got.tgz:10465.got - 2010.04.01 12:09:02.
