data_PCOD8328486
_publ_section_title
;
Structure prediction by ZEFSAII (Michael W. Deem and Ramdas Pophale) SiO2 
 PCOD8328486
Probable space group: P 6/M M M
;
_chemical_formula_sum "Si O2"
_cell_formula_units_Z 72
_cell_length_a 20.261248
_cell_length_b 20.261248
_cell_length_c 12.583166
_cell_angle_alpha 90.000000
_cell_angle_beta 90.000000
_cell_angle_gamma 120.000000
_cell_volume 4473.556662
_symmetry_space_group_name_H-M "P 6/M M M"
_symmetry_group_IT_number 191
_symmetry_cell_setting 'hexagonal'
loop_
_space_group_symop_operation_xyz
x,y,z
x-y,x,z
-y,x-y,z
-x,-y,z
-x+y,-x,z
y,-x+y,z
x-y,-y,-z
-x,-x+y,-z
y,x,-z
-y,-x,-z
-x+y,y,-z
x,x-y,-z
-x,-y,-z
-x+y,-x,-z
y,-x+y,-z
x,y,-z
x-y,x,-z
-y,x-y,-z
-x+y,y,z
x,x-y,z
-y,-x,z
y,x,z
x-y,-y,z
-x,-x+y,z
loop_
_atom_site_type_symbol
_atom_site_label
_atom_site_fract_x
_atom_site_fract_y
_atom_site_fract_z
Si Si1 0.914519 0.233167 0.121490
Si Si2 0.765801 0.681241 0.500000
Si Si3 0.910156 0.455078 0.375649
Si Si4 0.139815 0.709609 0.306879
O O1 0.856229 0.143772 0.146409
O O2 0.893661 0.285596 0.193186
O O3 0.000000 0.250434 0.145744
O O4 0.906805 0.252982 0.000000
O O5 0.754300 0.754300 0.500000
O O6 0.855871 0.711742 0.500000
O O7 0.724784 0.631219 0.397300
O O8 0.890985 0.445493 0.500000
O O9 0.871460 0.373483 0.319648
O O10 0.000000 0.500000 0.355213
O O11 0.229461 0.770540 0.315795
#
# Coordination Sequence:
#
# PCOD8328486 Si02
#       4
#    24  12  12  24
#     4   9  17  30  49  71  96 126 160 198 237 278
#     4  10  18  29  47  68  93 121 153 191 231 279
#     4  11  20  30  49  71  95 123 154 193 241 285
#     4  10  20  33  48  69  95 124 156 192 237 286
#
# _framework density 16.094577000000001
#
# number of rings (size 3 to 8) (size 9 to 14) (size 15 to 20)
#    0.000    2.167    1.667    3.000    0.000    0.000 
#    1.000    0.833    0.000    3.500    0.000    2.333 
#    0.000    8.000    0.000    0.333    0.000    0.667 
#
# Total GULP energy -892831.074324 kJ/mol
# GULP energy per Si atom -12400.431588 kJ/mol
# Density = 1.605794 g / cm^3
# Si number density = 16.094577 Si / 1000 Ang^3
#
#
#
# Elastic Constant Matrix: (Units=GPa)
#
#
# Indices 1 2 3 4 5 6 
#
# 1 126.4899 82.1575 51.2701 0.0000 0.0000 0.0000
# 2 82.1575 126.4899 51.2701 0.0000 0.0000 0.0000
# 3 51.2701 51.2701 87.8332 0.0000 0.0000 0.0000
# 4 0.0000 0.0000 0.0000 18.9855 0.0000 0.0000
# 5 0.0000 0.0000 0.0000 0.0000 18.9855 0.0000
# 6 0.0000 0.0000 0.0000 0.0000 0.0000 22.1662
#
#
#
# Elastic Compliance Matrix: (Units=1/GPa)
#
#
# Indices 1 2 3 4 5 6 
#
# 1 0.014639 -0.007918 -0.003923 0.000000 0.000000 0.000000
# 2 -0.007918 0.014639 -0.003923 0.000000 0.000000 0.000000
# 3 -0.003923 -0.003923 0.015965 0.000000 0.000000 0.000000
# 4 0.000000 0.000000 0.000000 0.052672 0.000000 0.000000
# 5 0.000000 0.000000 0.000000 0.000000 0.052672 0.000000
# 6 0.000000 0.000000 0.000000 0.000000 0.000000 0.045114
#
#
# Mechanical properties :
#
#
# Convention : Reuss Voigt Hill
#
# Bulk Modulus (GPa) = 72.91567 78.91205 75.91386
# Shear Modulus (GPa) = 21.57031 22.43511 22.00271
#
# Velocity S-wave (km/s) = 3.66488 3.73762 3.70143
# Velocity P-wave (km/s) = 7.95684 8.23183 8.09550
#
# Compressibility (1/GPa) = 0.01371447
#
# Stress axis : x y z
#
# Youngs Moduli (GPa) = 68.31148 68.31148 62.63643
#
# Poissons Ratio (x) = 0.54089 0.24573
# Poissons Ratio (y) = 0.54089 0.24573
# Poissons Ratio (z) = 0.26799 0.26799
#
# Static dielectric constant tensor:
#      x y z
#    x 3.015010 0.000000 0.000000 
#    y 0.000000 3.015010 0.000000 
#    z 0.000000 0.000000 3.254160 
# 
# 
# High freq. dielectric constant tensor:
#      x y z
#    x 1.607530 0.000000 0.000000 
#    y 0.000000 1.607530 0.000000 
#    z 0.000000 0.000000 1.630070 
# 
# From -- ./inp_files/2314.got.cif
#   From: 2010.03.12/outbox.cif.g09.slc.cpg/sg191_2_cif.got.tgz:2314.got - 2010.04.01 12:09:02.
