data_PCOD8328300
_publ_section_title
;
Structure prediction by ZEFSAII (Michael W. Deem and Ramdas Pophale) SiO2 
 PCOD8328300
Probable space group: P 6/M M M
;
_chemical_formula_sum "Si O2"
_cell_formula_units_Z 132
_cell_length_a 19.331680
_cell_length_b 19.331680
_cell_length_c 28.083567
_cell_angle_alpha 90.000000
_cell_angle_beta 90.000000
_cell_angle_gamma 120.000000
_cell_volume 9089.125398
_symmetry_space_group_name_H-M "P 6/M M M"
_symmetry_group_IT_number 191
_symmetry_cell_setting 'hexagonal'
loop_
_space_group_symop_operation_xyz
x,y,z
x-y,x,z
-y,x-y,z
-x,-y,z
-x+y,-x,z
y,-x+y,z
x-y,-y,-z
-x,-x+y,-z
y,x,-z
-y,-x,-z
-x+y,y,-z
x,x-y,-z
-x,-y,-z
-x+y,-x,-z
y,-x+y,-z
x,y,-z
x-y,x,-z
-y,x-y,-z
-x+y,y,z
x,x-y,z
-y,-x,z
y,x,z
x-y,-y,z
-x,-x+y,z
loop_
_atom_site_type_symbol
_atom_site_label
_atom_site_fract_x
_atom_site_fract_y
_atom_site_fract_z
Si Si1 0.624872 0.092991 0.878289
Si Si2 0.660237 0.751203 0.944224
Si Si3 0.825845 0.494129 0.217669
Si Si4 0.494396 0.668557 0.405735
Si Si5 0.537518 0.627570 0.500000
Si Si6 0.462430 0.372413 0.688539
O O1 0.561375 0.122750 0.891564
O O2 0.688663 0.112937 0.920281
O O3 0.675561 0.134506 0.830882
O O4 0.575855 0.000000 0.867294
O O5 0.685852 0.842926 0.929744
O O6 0.729703 0.729703 0.930021
O O7 0.643898 0.739214 0.000000
O O8 0.733500 0.466999 0.218557
O O9 0.835143 0.417572 0.219521
O O10 0.868921 0.547871 0.264008
O O11 0.466258 0.733129 0.406046
O O12 0.417525 0.582476 0.405767
O O13 0.546275 0.678740 0.452822
O O14 0.545761 0.679131 0.358365
O O15 0.609714 0.609714 0.500000
O O16 0.453188 0.546813 0.500000
O O17 0.546988 0.453012 0.688732
O O18 0.390355 0.390355 0.687557
#
# Coordination Sequence:
#
# PCOD8328300 Si02
#       6
#    24  24  24  24  12  24
#     4   9  17  28  42  60  81 106 136 168 201 239
#     4   9  17  29  45  64  85 109 138 172 209 249
#     4  10  18  27  39  55  76 100 127 160 198 236
#     4  10  18  27  39  55  74  93 116 149 190 229
#     4   9  17  28  40  52  68  93 122 148 176 214
#     4   9  17  28  40  52  68  93 123 153 186 225
#
# _framework density 14.52285
#
# number of rings (size 3 to 8) (size 9 to 14) (size 15 to 20)
#    0.000    2.636    0.000    2.818    0.000    4.727 
#    0.000    4.545    0.000    0.545    0.000    1.273 
#    0.000    0.000    0.000    0.000    0.000    0.000 
#
# Total GULP energy -1636137.855953 kJ/mol
# GULP energy per Si atom -12394.983757 kJ/mol
# Density = 1.448980 g / cm^3
# Si number density = 14.522850 Si / 1000 Ang^3
#
#
#
# Elastic Constant Matrix: (Units=GPa)
#
#
# Indices 1 2 3 4 5 6 
#
# 1 48.7989 20.3221 33.2850 0.0000 0.0000 0.0000
# 2 20.3221 48.7989 33.2850 0.0000 0.0000 0.0000
# 3 33.2850 33.2850 88.8095 0.0000 0.0000 0.0000
# 4 0.0000 0.0000 0.0000 17.2890 0.0000 0.0000
# 5 0.0000 0.0000 0.0000 0.0000 17.2890 0.0000
# 6 0.0000 0.0000 0.0000 0.0000 0.0000 14.2384
#
#
#
# Elastic Compliance Matrix: (Units=1/GPa)
#
#
# Indices 1 2 3 4 5 6 
#
# 1 0.028878 -0.006239 -0.008485 0.000000 0.000000 0.000000
# 2 -0.006239 0.028878 -0.008485 0.000000 0.000000 0.000000
# 3 -0.008485 -0.008485 0.017620 0.000000 0.000000 0.000000
# 4 0.000000 0.000000 0.000000 0.057840 0.000000 0.000000
# 5 0.000000 0.000000 0.000000 0.000000 0.057840 0.000000
# 6 0.000000 0.000000 0.000000 0.000000 0.000000 0.070232
#
#
# Mechanical properties :
#
#
# Convention : Reuss Voigt Hill
#
# Bulk Modulus (GPa) = 34.53185 40.02127 37.27656
# Shear Modulus (GPa) = 15.75506 16.39764 16.07635
#
# Velocity S-wave (km/s) = 3.29727 3.36384 3.33072
# Velocity P-wave (km/s) = 6.19074 6.53487 6.36513
#
# Compressibility (1/GPa) = 0.02895878
#
# Stress axis : x y z
#
# Youngs Moduli (GPa) = 34.62877 34.62877 56.75292
#
# Poissons Ratio (x) = 0.21603 0.48155
# Poissons Ratio (y) = 0.21603 0.48155
# Poissons Ratio (z) = 0.29382 0.29382
#
# Static dielectric constant tensor:
#      x y z
#    x 2.688870 0.000000 0.000000 
#    y 0.000000 2.688870 0.000000 
#    z 0.000000 0.000000 3.173260 
# 
# 
# High freq. dielectric constant tensor:
#      x y z
#    x 1.526530 0.000000 0.000000 
#    y 0.000000 1.526530 0.000000 
#    z 0.000000 0.000000 1.573670 
# 
# From -- ./inp_files/10375.got.cif
#   From: 2010.03.12/outbox.cif.g09.slc.cpg/sg191_6_cif.got.tgz:10375.got - 2010.04.01 12:09:02.
