data_PCOD8328491
_publ_section_title
;
Structure prediction by ZEFSAII (Michael W. Deem and Ramdas Pophale) SiO2 
 PCOD8328491
Probable space group: P 6/M M M
;
_chemical_formula_sum "Si O2"
_cell_formula_units_Z 108
_cell_length_a 20.926834
_cell_length_b 20.926834
_cell_length_c 17.556846
_cell_angle_alpha 90.000000
_cell_angle_beta 90.000000
_cell_angle_gamma 120.000000
_cell_volume 6658.619374
_symmetry_space_group_name_H-M "P 6/M M M"
_symmetry_group_IT_number 191
_symmetry_cell_setting 'hexagonal'
loop_
_space_group_symop_operation_xyz
x,y,z
x-y,x,z
-y,x-y,z
-x,-y,z
-x+y,-x,z
y,-x+y,z
x-y,-y,-z
-x,-x+y,-z
y,x,-z
-y,-x,-z
-x+y,y,-z
x,x-y,-z
-x,-y,-z
-x+y,-x,-z
y,-x+y,-z
x,y,-z
x-y,x,-z
-y,x-y,-z
-x+y,y,z
x,x-y,z
-y,-x,z
y,x,z
x-y,-y,z
-x,-x+y,z
loop_
_atom_site_type_symbol
_atom_site_label
_atom_site_fract_x
_atom_site_fract_y
_atom_site_fract_z
Si Si1 0.485851 0.666170 0.500000
Si Si2 0.382620 0.916475 0.643970
Si Si3 0.555935 0.916157 0.912093
Si Si4 0.295216 0.078731 0.090317
Si Si5 0.478337 0.663606 0.219720
O O1 0.402075 0.597926 0.500000
O O2 0.483013 0.741507 0.500000
O O3 0.532007 0.663845 0.572105
O O4 0.461891 0.923782 0.644098
O O5 0.337322 0.872936 0.719146
O O6 0.395202 0.000000 0.641872
O O7 0.625488 0.908487 0.888229
O O8 0.490173 0.857084 0.860430
O O9 0.573871 0.000000 0.897192
O O10 0.533680 0.895270 0.000000
O O11 0.283833 0.141917 0.128793
O O12 0.231959 0.000000 0.122228
O O13 0.289311 0.079986 0.000000
O O14 0.490099 0.745050 0.212656
O O15 0.393778 0.606222 0.244491
#
# Coordination Sequence:
#
# PCOD8328491 Si02
#       5
#    12  24  24  24  24
#     4  10  18  29  47  71  98 123 148 180 223 276
#     4   9  18  32  49  67  87 115 151 188 222 258
#     4   9  18  32  49  66  82 106 145 191 233 272
#     4   8  13  22  37  56  76  98 127 164 205 247
#     4  11  22  34  47  64  89 118 147 182 229 284
#
# _framework density 16.219579
#
# number of rings (size 3 to 8) (size 9 to 14) (size 15 to 20)
#    0.000    2.667    0.000    4.000    0.000    4.444 
#    0.000    3.333    0.000    1.556    0.000    1.556 
#    0.000    0.000    0.000    0.000    0.000    0.000 
#
# Total GULP energy -1338390.207719 kJ/mol
# GULP energy per Si atom -12392.501923 kJ/mol
# Density = 1.618266 g / cm^3
# Si number density = 16.219579 Si / 1000 Ang^3
#
#
#
# Elastic Constant Matrix: (Units=GPa)
#
#
# Indices 1 2 3 4 5 6 
#
# 1 76.2053 52.6865 33.5866 0.0000 0.0000 0.0000
# 2 52.6865 76.2053 33.5866 0.0000 0.0000 0.0000
# 3 33.5866 33.5866 90.8088 0.0000 0.0000 0.0000
# 4 0.0000 0.0000 0.0000 18.4469 0.0000 0.0000
# 5 0.0000 0.0000 0.0000 0.0000 18.4469 0.0000
# 6 0.0000 0.0000 0.0000 0.0000 0.0000 11.7594
#
#
#
# Elastic Compliance Matrix: (Units=1/GPa)
#
#
# Indices 1 2 3 4 5 6 
#
# 1 0.026065 -0.016454 -0.003555 0.000000 0.000000 0.000000
# 2 -0.016454 0.026065 -0.003555 0.000000 0.000000 0.000000
# 3 -0.003555 -0.003555 0.013642 0.000000 0.000000 0.000000
# 4 0.000000 0.000000 0.000000 0.054210 0.000000 0.000000
# 5 0.000000 0.000000 0.000000 0.000000 0.054210 0.000000
# 6 0.000000 0.000000 0.000000 0.000000 0.000000 0.085038
#
#
# Mechanical properties :
#
#
# Convention : Reuss Voigt Hill
#
# Bulk Modulus (GPa) = 53.63438 53.65988 53.64713
# Shear Modulus (GPa) = 15.99636 17.95463 16.97550
#
# Velocity S-wave (km/s) = 3.14385 3.33073 3.23864
# Velocity P-wave (km/s) = 6.80572 6.92437 6.86530
#
# Compressibility (1/GPa) = 0.01864476
#
# Stress axis : x y z
#
# Youngs Moduli (GPa) = 38.36556 38.36556 73.30483
#
# Poissons Ratio (x) = 0.63127 0.26058
# Poissons Ratio (y) = 0.63127 0.26058
# Poissons Ratio (z) = 0.13638 0.13638
#
# Static dielectric constant tensor:
#      x y z
#    x 3.214880 0.000000 0.000000 
#    y 0.000000 3.214880 0.000000 
#    z 0.000000 0.000000 2.973670 
# 
# 
# High freq. dielectric constant tensor:
#      x y z
#    x 1.609120 0.000000 0.000000 
#    y 0.000000 1.609120 0.000000 
#    z 0.000000 0.000000 1.607350 
# 
# From -- ./inp_files/6109.got.cif
#   From: 2010.03.12/outbox.cif.g09.slc.cpg/sg191_4_cif.got.tgz:6109.got - 2010.04.01 12:09:02.
