data_PCOD8328855
_publ_section_title
;
Structure prediction by ZEFSAII (Michael W. Deem and Ramdas Pophale) SiO2 
 PCOD8328855
Probable space group: P 6/M M M
;
_chemical_formula_sum "Si O2"
_cell_formula_units_Z 144
_cell_length_a 22.454268
_cell_length_b 22.454268
_cell_length_c 18.637774
_cell_angle_alpha 90.000000
_cell_angle_beta 90.000000
_cell_angle_gamma 120.000000
_cell_volume 8138.089776
_symmetry_space_group_name_H-M "P 6/M M M"
_symmetry_group_IT_number 191
_symmetry_cell_setting 'hexagonal'
loop_
_space_group_symop_operation_xyz
x,y,z
x-y,x,z
-y,x-y,z
-x,-y,z
-x+y,-x,z
y,-x+y,z
x-y,-y,-z
-x,-x+y,-z
y,x,-z
-y,-x,-z
-x+y,y,-z
x,x-y,-z
-x,-y,-z
-x+y,-x,-z
y,-x+y,-z
x,y,-z
x-y,x,-z
-y,x-y,-z
-x+y,y,z
x,x-y,z
-y,-x,z
y,x,z
x-y,-y,z
-x,-x+y,z
loop_
_atom_site_type_symbol
_atom_site_label
_atom_site_fract_x
_atom_site_fract_y
_atom_site_fract_z
Si Si1 0.080144 0.471914 0.199245
Si Si2 0.665212 0.201223 0.581527
Si Si3 0.924137 0.205717 0.085248
Si Si4 0.713037 0.789534 0.419065
Si Si5 0.411478 0.273664 0.316590
Si Si6 0.287452 0.438813 0.083218
O O1 0.095141 0.547571 0.225082
O O2 0.100058 0.431277 0.256495
O O3 0.126961 0.483519 0.128876
O O4 0.000000 0.424827 0.180132
O O5 0.654246 0.176380 0.500000
O O6 0.593553 0.187106 0.615897
O O7 0.717831 0.282170 0.587642
O O8 0.692120 0.157725 0.621038
O O9 0.871521 0.128480 0.113841
O O10 0.896159 0.256046 0.108348
O O11 0.000000 0.232902 0.118442
O O12 0.926845 0.204355 0.000000
O O13 0.681129 0.767184 0.500000
O O14 0.740277 0.870139 0.407837
O O15 0.777424 0.777424 0.410252
O O16 0.659513 0.746476 0.356143
O O17 0.411168 0.205584 0.285318
O O18 0.231404 0.462807 0.097303
O O19 0.308192 0.447901 0.000000
#
# Coordination Sequence:
#
# PCOD8328855 Si02
#       6
#    24  24  24  24  24  24
#     4  11  23  35  48  69  98 129 156 187 233 287
#     4   9  16  26  42  64  89 118 156 203 250 291
#     4   8  13  22  39  63  88 113 142 178 218 259
#     4   9  17  30  50  75 101 130 165 204 243 282
#     4  10  19  32  49  67  92 127 166 204 239 277
#     4   9  18  34  55  74  90 112 147 192 239 286
#
# _framework density 17.694569000000001
#
# number of rings (size 3 to 8) (size 9 to 14) (size 15 to 20)
#    0.000    2.667    0.000    3.667    0.000    4.000 
#    0.000    0.833    0.000    4.000    0.000    9.333 
#    0.000    0.000    0.000    0.000    0.000   34.667 
#
# Total GULP energy -1784344.678232 kJ/mol
# GULP energy per Si atom -12391.282488 kJ/mol
# Density = 1.765430 g / cm^3
# Si number density = 17.694569 Si / 1000 Ang^3
#
#
#
# Elastic Constant Matrix: (Units=GPa)
#
#
# Indices 1 2 3 4 5 6 
#
# 1 93.9716 45.8326 37.5625 0.0000 0.0000 0.0000
# 2 45.8326 93.9716 37.5625 0.0000 0.0000 0.0000
# 3 37.5625 37.5625 66.8827 0.0000 0.0000 0.0000
# 4 0.0000 0.0000 0.0000 14.6938 0.0000 0.0000
# 5 0.0000 0.0000 0.0000 0.0000 14.6938 0.0000
# 6 0.0000 0.0000 0.0000 0.0000 0.0000 24.0695
#
#
#
# Elastic Compliance Matrix: (Units=1/GPa)
#
#
# Indices 1 2 3 4 5 6 
#
# 1 0.015509 -0.005264 -0.005754 0.000000 0.000000 0.000000
# 2 -0.005264 0.015509 -0.005754 0.000000 0.000000 0.000000
# 3 -0.005754 -0.005754 0.021414 0.000000 0.000000 0.000000
# 4 0.000000 0.000000 0.000000 0.068056 0.000000 0.000000
# 5 0.000000 0.000000 0.000000 0.000000 0.068056 0.000000
# 6 0.000000 0.000000 0.000000 0.000000 0.000000 0.041546
#
#
# Mechanical properties :
#
#
# Convention : Reuss Voigt Hill
#
# Bulk Modulus (GPa) = 52.94049 55.19345 54.06697
# Shear Modulus (GPa) = 18.52337 19.61597 19.06967
#
# Velocity S-wave (km/s) = 3.23900 3.33316 3.28642
# Velocity P-wave (km/s) = 6.63115 6.78773 6.70990
#
# Compressibility (1/GPa) = 0.01888914
#
# Stress axis : x y z
#
# Youngs Moduli (GPa) = 64.47923 64.47923 46.69818
#
# Poissons Ratio (x) = 0.33944 0.26868
# Poissons Ratio (y) = 0.33944 0.26868
# Poissons Ratio (z) = 0.37098 0.37098
#
# Static dielectric constant tensor:
#      x y z
#    x 3.364440 0.000000 0.000000 
#    y 0.000000 3.364440 0.000000 
#    z 0.000000 0.000000 3.215360 
# 
# 
# High freq. dielectric constant tensor:
#      x y z
#    x 1.674420 0.000000 0.000000 
#    y 0.000000 1.674420 0.000000 
#    z 0.000000 0.000000 1.670400 
# 
# From -- ./inp_files/7617.got.cif
#   From: 2010.03.12/outbox.cif.g09.slc.cpg/sg191_4_cif.got.tgz:7617.got - 2010.04.01 12:09:02.
