data_PCOD8328435
_publ_section_title
;
Structure prediction by ZEFSAII (Michael W. Deem and Ramdas Pophale) SiO2 
 PCOD8328435
Probable space group: P 6/M M M
;
_chemical_formula_sum "Si O2"
_cell_formula_units_Z 192
_cell_length_a 23.434234
_cell_length_b 23.434234
_cell_length_c 22.311163
_cell_angle_alpha 90.000000
_cell_angle_beta 90.000000
_cell_angle_gamma 120.000000
_cell_volume 10610.952372
_symmetry_space_group_name_H-M "P 6/M M M"
_symmetry_group_IT_number 191
_symmetry_cell_setting 'hexagonal'
loop_
_space_group_symop_operation_xyz
x,y,z
x-y,x,z
-y,x-y,z
-x,-y,z
-x+y,-x,z
y,-x+y,z
x-y,-y,-z
-x,-x+y,-z
y,x,-z
-y,-x,-z
-x+y,y,-z
x,x-y,-z
-x,-y,-z
-x+y,-x,-z
y,-x+y,-z
x,y,-z
x-y,x,-z
-y,x-y,-z
-x+y,y,z
x,x-y,z
-y,-x,z
y,x,z
x-y,-y,z
-x,-x+y,z
loop_
_atom_site_type_symbol
_atom_site_label
_atom_site_fract_x
_atom_site_fract_y
_atom_site_fract_z
Si Si1 0.198223 0.665003 0.635450
Si Si2 0.334638 0.793047 0.897606
Si Si3 0.868319 0.266199 0.933542
Si Si4 0.074448 0.281349 0.594102
Si Si5 0.192632 0.264418 0.730644
Si Si6 0.496842 0.184922 0.769477
Si Si7 0.923895 0.335468 0.432151
Si Si8 0.291573 0.365921 0.189052
O O1 0.206309 0.603155 0.613037
O O2 0.265124 0.734877 0.619962
O O3 0.186754 0.655650 0.706890
O O4 0.132606 0.660777 0.606582
O O5 0.402787 0.805573 0.925360
O O6 0.277019 0.722982 0.920494
O O7 0.322817 0.849806 0.923858
O O8 0.339666 0.792570 0.825051
O O9 0.804393 0.195608 0.923850
O O10 0.920491 0.276733 0.882182
O O11 0.898620 0.272434 0.000000
O O12 0.132174 0.264348 0.575325
O O13 0.074614 0.292629 0.664791
O O14 0.090076 0.350676 0.566014
O O15 0.000000 0.222913 0.574470
O O16 0.114107 0.228214 0.733697
O O17 0.209246 0.209246 0.750573
O O18 0.223170 0.325053 0.776159
O O19 0.465992 0.232996 0.765759
O O20 0.439646 0.112293 0.786422
O O21 0.917476 0.355092 0.500000
O O22 0.000000 0.384941 0.409045
O O23 0.340174 0.340174 0.207464
#
# Coordination Sequence:
#
# PCOD8328435 Si02
#       8
#    24  24  24  24  24  24  24  24
#     4  11  23  38  57  80 106 135 166 203 249 303
#     4   9  16  27  45  67  88 110 139 178 221 263
#     4   9  18  31  44  59  84 119 153 184 225 279
#     4   9  17  30  50  76 105 135 168 208 252 297
#     4   9  16  26  43  68  95 121 150 187 231 274
#     4   9  18  32  49  70  96 123 150 182 226 281
#     4  10  22  39  57  77 101 132 172 214 254 296
#     4  10  18  28  46  69  91 116 150 194 239 282
#
# _framework density 18.094512000000002
#
# number of rings (size 3 to 8) (size 9 to 14) (size 15 to 20)
#    0.000    2.500    0.000    3.625    0.000    5.500 
#    0.000    1.875    0.000   10.750    0.000    5.250 
#    0.000    0.000    0.000    3.125    0.000    3.250 
#
# Total GULP energy -2378609.236403 kJ/mol
# GULP energy per Si atom -12388.589773 kJ/mol
# Density = 1.805333 g / cm^3
# Si number density = 18.094512 Si / 1000 Ang^3
#
#
#
# Elastic Constant Matrix: (Units=GPa)
#
#
# Indices 1 2 3 4 5 6 
#
# 1 77.5106 39.7757 15.8212 0.0000 0.0000 0.0000
# 2 39.7757 77.5106 15.8212 0.0000 0.0000 0.0000
# 3 15.8212 15.8212 59.3793 0.0000 0.0000 0.0000
# 4 0.0000 0.0000 0.0000 13.9987 0.0000 0.0000
# 5 0.0000 0.0000 0.0000 0.0000 13.9987 0.0000
# 6 0.0000 0.0000 0.0000 0.0000 0.0000 18.8674
#
#
#
# Elastic Compliance Matrix: (Units=1/GPa)
#
#
# Indices 1 2 3 4 5 6 
#
# 1 0.017844 -0.008657 -0.002448 0.000000 0.000000 0.000000
# 2 -0.008657 0.017844 -0.002448 0.000000 0.000000 0.000000
# 3 -0.002448 -0.002448 0.018145 0.000000 0.000000 0.000000
# 4 0.000000 0.000000 0.000000 0.071435 0.000000 0.000000
# 5 0.000000 0.000000 0.000000 0.000000 0.071435 0.000000
# 6 0.000000 0.000000 0.000000 0.000000 0.000000 0.053001
#
#
# Mechanical properties :
#
#
# Convention : Reuss Voigt Hill
#
# Bulk Modulus (GPa) = 37.41463 39.69296 38.55380
# Shear Modulus (GPa) = 17.49977 18.90514 18.20245
#
# Velocity S-wave (km/s) = 3.11325 3.23584 3.17514
# Velocity P-wave (km/s) = 5.80046 5.99541 5.89874
#
# Compressibility (1/GPa) = 0.02672751
#
# Stress axis : x y z
#
# Youngs Moduli (GPa) = 56.04256 56.04256 55.11093
#
# Poissons Ratio (x) = 0.48517 0.13489
# Poissons Ratio (y) = 0.48517 0.13489
# Poissons Ratio (z) = 0.13717 0.13717
#
# Static dielectric constant tensor:
#      x y z
#    x 3.268780 0.000000 0.000000 
#    y 0.000000 3.268780 0.000000 
#    z 0.000000 0.000000 3.457170 
# 
# 
# High freq. dielectric constant tensor:
#      x y z
#    x 1.684280 0.000000 0.000000 
#    y 0.000000 1.684280 0.000000 
#    z 0.000000 0.000000 1.705040 
# 
# From -- ./inp_files/8130.got.cif
#   From: 2010.03.12/outbox.cif.g09.slc.cpg/sg191_5_cif.got.tgz:8130.got - 2010.04.01 12:09:02.
