data_PCOD8328290
_publ_section_title
;
Structure prediction by ZEFSAII (Michael W. Deem and Ramdas Pophale) SiO2 
 PCOD8328290
Probable space group: P 6/M M M
;
_chemical_formula_sum "Si O2"
_cell_formula_units_Z 120
_cell_length_a 18.924068
_cell_length_b 18.924068
_cell_length_c 27.802163
_cell_angle_alpha 90.000000
_cell_angle_beta 90.000000
_cell_angle_gamma 120.000000
_cell_volume 8622.599543
_symmetry_space_group_name_H-M "P 6/M M M"
_symmetry_group_IT_number 191
_symmetry_cell_setting 'hexagonal'
loop_
_space_group_symop_operation_xyz
x,y,z
x-y,x,z
-y,x-y,z
-x,-y,z
-x+y,-x,z
y,-x+y,z
x-y,-y,-z
-x,-x+y,-z
y,x,-z
-y,-x,-z
-x+y,y,-z
x,x-y,-z
-x,-y,-z
-x+y,-x,-z
y,-x+y,-z
x,y,-z
x-y,x,-z
-y,x-y,-z
-x+y,y,z
x,x-y,z
-y,-x,z
y,x,z
x-y,-y,z
-x,-x+y,z
loop_
_atom_site_type_symbol
_atom_site_label
_atom_site_fract_x
_atom_site_fract_y
_atom_site_fract_z
Si Si1 0.174325 0.668440 0.214910
Si Si2 0.092401 0.630406 0.500000
Si Si3 0.416359 0.416359 0.945513
Si Si4 0.668952 0.173865 0.595662
Si Si5 0.833785 0.332047 0.107297
Si Si6 0.091960 0.630277 0.308908
O O1 0.155419 0.577710 0.218764
O O2 0.270301 0.729700 0.221115
O O3 0.145875 0.680044 0.162289
O O4 0.126728 0.681426 0.259221
O O5 0.101111 0.550556 0.500000
O O6 0.133682 0.682999 0.451962
O O7 0.000000 0.609424 0.500000
O O8 0.500000 0.500000 0.942783
O O9 0.432587 0.347450 0.921465
O O10 0.388394 0.388394 0.000000
O O11 0.577184 0.154367 0.595843
O O12 0.729698 0.270303 0.594204
O O13 0.684957 0.137994 0.644544
O O14 0.817865 0.408933 0.102221
O O15 0.751132 0.248868 0.089944
O O16 0.100937 0.550469 0.308037
O O17 0.000000 0.609376 0.313432
#
# Coordination Sequence:
#
# PCOD8328290 Si02
#       6
#    24  12  12  24  24  24
#     4   9  16  25  38  55  74  95 121 156 197 236
#     4   9  17  28  40  50  64  87 114 144 182 226
#     4   9  18  30  42  58  80 106 137 172 208 244
#     4  10  18  27  38  52  69  89 115 150 190 226
#     4   9  17  28  43  61  82 108 139 174 211 248
#     4   9  17  26  36  50  69  93 120 148 183 227
#
# _framework density 13.916917
#
# number of rings (size 3 to 8) (size 9 to 14) (size 15 to 20)
#    0.000    2.800    0.000    2.100    1.400    4.400 
#    0.000    3.000    0.000    1.200    0.000    0.000 
#    0.000    0.000    0.000    0.300    0.000    1.300 
#
# Total GULP energy -1486599.108832 kJ/mol
# GULP energy per Si atom -12388.325907 kJ/mol
# Density = 1.388524 g / cm^3
# Si number density = 13.916917 Si / 1000 Ang^3
#
#
#
# Elastic Constant Matrix: (Units=GPa)
#
#
# Indices 1 2 3 4 5 6 
#
# 1 42.3676 21.4736 36.1928 0.0000 0.0000 0.0000
# 2 21.4736 42.3676 36.1928 0.0000 0.0000 0.0000
# 3 36.1928 36.1928 123.3372 0.0000 0.0000 0.0000
# 4 0.0000 0.0000 0.0000 15.8075 0.0000 0.0000
# 5 0.0000 0.0000 0.0000 0.0000 15.8075 0.0000
# 6 0.0000 0.0000 0.0000 0.0000 0.0000 10.4470
#
#
#
# Elastic Compliance Matrix: (Units=1/GPa)
#
#
# Indices 1 2 3 4 5 6 
#
# 1 0.035667 -0.012193 -0.006888 0.000000 0.000000 0.000000
# 2 -0.012193 0.035667 -0.006888 0.000000 0.000000 0.000000
# 3 -0.006888 -0.006888 0.012151 0.000000 0.000000 0.000000
# 4 0.000000 0.000000 0.000000 0.063261 0.000000 0.000000
# 5 0.000000 0.000000 0.000000 0.000000 0.063261 0.000000
# 6 0.000000 0.000000 0.000000 0.000000 0.000000 0.095721
#
#
# Mechanical properties :
#
#
# Convention : Reuss Voigt Hill
#
# Bulk Modulus (GPa) = 31.70038 43.97678 37.83858
# Shear Modulus (GPa) = 13.58018 16.02663 14.80341
#
# Velocity S-wave (km/s) = 3.12718 3.39719 3.26498
# Velocity P-wave (km/s) = 5.98888 6.85974 6.43905
#
# Compressibility (1/GPa) = 0.03154537
#
# Stress axis : x y z
#
# Youngs Moduli (GPa) = 28.03684 28.03684 82.30036
#
# Poissons Ratio (x) = 0.34186 0.56692
# Poissons Ratio (y) = 0.34186 0.56692
# Poissons Ratio (z) = 0.19313 0.19313
#
# Static dielectric constant tensor:
#      x y z
#    x 2.476680 0.000000 0.000000 
#    y 0.000000 2.476680 0.000000 
#    z 0.000000 0.000000 3.226940 
# 
# 
# High freq. dielectric constant tensor:
#      x y z
#    x 1.487410 0.000000 0.000000 
#    y 0.000000 1.487410 0.000000 
#    z 0.000000 0.000000 1.557500 
# 
# From -- ./inp_files/9658.got.cif
#   From: 2010.03.12/outbox.cif.g09.slc.cpg/sg191_5_cif.got.tgz:9658.got - 2010.04.01 12:09:02.
