data_PCOD8328574
_publ_section_title
;
Structure prediction by ZEFSAII (Michael W. Deem and Ramdas Pophale) SiO2 
 PCOD8328574
Probable space group: P 6/M M M
;
_chemical_formula_sum "Si O2"
_cell_formula_units_Z 168
_cell_length_a 21.227117
_cell_length_b 21.227117
_cell_length_c 28.414695
_cell_angle_alpha 90.000000
_cell_angle_beta 90.000000
_cell_angle_gamma 120.000000
_cell_volume 11088.062309
_symmetry_space_group_name_H-M "P 6/M M M"
_symmetry_group_IT_number 191
_symmetry_cell_setting 'hexagonal'
loop_
_space_group_symop_operation_xyz
x,y,z
x-y,x,z
-y,x-y,z
-x,-y,z
-x+y,-x,z
y,-x+y,z
x-y,-y,-z
-x,-x+y,-z
y,x,-z
-y,-x,-z
-x+y,y,-z
x,x-y,-z
-x,-y,-z
-x+y,-x,-z
y,-x+y,-z
x,y,-z
x-y,x,-z
-y,x-y,-z
-x+y,y,z
x,x-y,z
-y,-x,z
y,x,z
x-y,-y,z
-x,-x+y,z
loop_
_atom_site_type_symbol
_atom_site_label
_atom_site_fract_x
_atom_site_fract_y
_atom_site_fract_z
Si Si1 0.082871 0.470283 0.135481
Si Si2 0.719371 0.579721 0.219458
Si Si3 0.333412 0.807088 0.299866
Si Si4 0.666680 0.479498 0.554822
Si Si5 0.915774 0.578878 0.630880
Si Si6 0.333012 0.811945 0.947095
Si Si7 0.692932 0.918681 0.301282
O O1 0.105081 0.552541 0.151354
O O2 0.093537 0.425153 0.176884
O O3 0.126265 0.470199 0.089458
O O4 0.000000 0.427249 0.119933
O O5 0.795325 0.590650 0.199420
O O6 0.676707 0.503971 0.247245
O O7 0.735400 0.645237 0.254999
O O8 0.388122 0.776244 0.298000
O O9 0.255729 0.744272 0.320107
O O10 0.365887 0.877604 0.333041
O O11 0.664755 0.494833 0.500000
O O12 0.733155 0.466310 0.567117
O O13 0.592514 0.407487 0.570732
O O14 0.676700 0.551349 0.581125
O O15 0.907986 0.645478 0.651810
O O16 0.000000 0.601996 0.624828
O O17 0.395996 0.791991 0.942707
O O18 0.259034 0.740967 0.933314
O O19 0.330411 0.838662 0.000000
O O20 0.720018 0.860009 0.302009
O O21 0.762702 0.000000 0.300492
#
# Coordination Sequence:
#
# PCOD8328574 Si02
#       7
#    24  24  24  24  24  24  24
#     4  10  19  28  39  57  81 106 131 162 202 245
#     4   9  17  29  43  59  81 108 138 169 198 232
#     4  10  19  30  44  61  82 107 136 171 209 247
#     4  10  20  33  48  64  83 108 139 175 213 251
#     4  10  20  32  45  62  84 110 140 171 203 241
#     4   9  17  29  44  59  74  96 129 167 204 241
#     4   9  17  30  48  67  87 111 138 167 198 236
#
# _framework density 15.15143
#
# number of rings (size 3 to 8) (size 9 to 14) (size 15 to 20)
#    0.000    2.429    0.000    4.286    0.000    3.429 
#    0.000    3.571    0.000    4.714    0.000    0.000 
#    0.000    0.000    0.000    0.000    0.000    0.000 
#
# Total GULP energy -2082678.261381 kJ/mol
# GULP energy per Si atom -12396.894413 kJ/mol
# Density = 1.511694 g / cm^3
# Si number density = 15.151430 Si / 1000 Ang^3
#
#
#
# Elastic Constant Matrix: (Units=GPa)
#
#
# Indices 1 2 3 4 5 6 
#
# 1 87.6926 47.2490 43.1240 0.0000 0.0000 0.0000
# 2 47.2490 87.6926 43.1240 0.0000 0.0000 0.0000
# 3 43.1240 43.1240 78.5806 0.0000 0.0000 0.0000
# 4 0.0000 0.0000 0.0000 20.5361 0.0000 0.0000
# 5 0.0000 0.0000 0.0000 0.0000 20.5361 0.0000
# 6 0.0000 0.0000 0.0000 0.0000 0.0000 20.2218
#
#
#
# Elastic Compliance Matrix: (Units=1/GPa)
#
#
# Indices 1 2 3 4 5 6 
#
# 1 0.018070 -0.006656 -0.006264 0.000000 0.000000 0.000000
# 2 -0.006656 0.018070 -0.006264 0.000000 0.000000 0.000000
# 3 -0.006264 -0.006264 0.019601 0.000000 0.000000 0.000000
# 4 0.000000 0.000000 0.000000 0.048695 0.000000 0.000000
# 5 0.000000 0.000000 0.000000 0.000000 0.048695 0.000000
# 6 0.000000 0.000000 0.000000 0.000000 0.000000 0.049452
#
#
# Mechanical properties :
#
#
# Convention : Reuss Voigt Hill
#
# Bulk Modulus (GPa) = 57.55888 57.88442 57.72165
# Shear Modulus (GPa) = 20.26418 20.29005 20.27712
#
# Velocity S-wave (km/s) = 3.66108 3.66341 3.66224
# Velocity P-wave (km/s) = 7.47949 7.49540 7.48745
#
# Compressibility (1/GPa) = 0.01737351
#
# Stress axis : x y z
#
# Youngs Moduli (GPa) = 55.34024 55.34024 51.01784
#
# Poissons Ratio (x) = 0.36833 0.31958
# Poissons Ratio (y) = 0.36833 0.31958
# Poissons Ratio (z) = 0.34665 0.34665
#
# Static dielectric constant tensor:
#      x y z
#    x 2.802570 0.000000 0.000000 
#    y 0.000000 2.802570 0.000000 
#    z 0.000000 0.000000 2.914010 
# 
# 
# High freq. dielectric constant tensor:
#      x y z
#    x 1.565200 0.000000 0.000000 
#    y 0.000000 1.565200 0.000000 
#    z 0.000000 0.000000 1.578670 
# 
# From -- ./inp_files/10012.got.cif
#   From: 2010.03.12/outbox.cif.g09.slc.cpg/sg191_6_cif.got.tgz:10012.got - 2010.04.01 12:09:02.
