data_PCOD8328080
_publ_section_title
;
Structure prediction by ZEFSAII (Michael W. Deem and Ramdas Pophale) SiO2 
 PCOD8328080
Probable space group: P -6 2 C
;
_chemical_formula_sum "Si O2"
_cell_formula_units_Z 36
_cell_length_a 11.794299
_cell_length_b 11.794299
_cell_length_c 15.901532
_cell_angle_alpha 90.000000
_cell_angle_beta 90.000000
_cell_angle_gamma 120.000000
_cell_volume 1915.639865
_symmetry_space_group_name_H-M "P -6 2 C"
_symmetry_group_IT_number 190
_symmetry_cell_setting 'hexagonal'
loop_
_space_group_symop_operation_xyz
x,y,z
-x+y,-x,1/2-z
-y,x-y,z
x,y,1/2-z
-x+y,-x,z
-y,x-y,1/2-z
x-y,-y,-z
-x,-x+y,-z
y,x,-z
y,x,1/2+z
x-y,-y,1/2+z
-x,-x+y,1/2+z
loop_
_atom_site_type_symbol
_atom_site_label
_atom_site_fract_x
_atom_site_fract_y
_atom_site_fract_z
Si Si1 0.243996 0.744227 0.975061
Si Si2 0.244088 0.142894 0.574475
Si Si3 0.867427 0.151687 0.345133
O O1 0.184225 0.586805 0.981147
O O2 0.208907 0.781271 0.884957
O O3 0.182974 0.785672 0.051339
O O4 0.160107 0.160107 0.500000
O O5 0.218210 0.210916 0.655008
O O6 0.198148 0.993668 0.595273
O O7 0.906482 0.202241 0.250000
#
# Coordination Sequence:
#
# PCOD8328080 Si02
#       3
#    12  12  12
#     4   9  21  39  57  79 109 147 196 227 256 319
#     4  10  20  36  59  84 109 146 187 225 273 330
#     4  11  22  35  57  87 117 141 172 232 295 335
#
# _framework density 18.792674999999999
#
# number of rings (size 3 to 8) (size 9 to 14) (size 15 to 20)
#    0.667    1.333    0.000    5.667    0.000   12.000 
#    0.000    0.000    0.000    6.000    0.000    0.000 
#    0.000    0.000    0.000    0.000    0.000    0.000 
#
# Total GULP energy -446030.917518 kJ/mol
# GULP energy per Si atom -12389.747709 kJ/mol
# Density = 1.874990 g / cm^3
# Si number density = 18.792675 Si / 1000 Ang^3
#
#
#
# Elastic Constant Matrix: (Units=GPa)
#
#
# Indices 1 2 3 4 5 6 
#
# 1 127.9493 46.5377 39.2618 0.0000 0.0000 0.0000
# 2 46.5377 127.9493 39.2618 0.0000 0.0000 0.0000
# 3 39.2618 39.2618 84.2779 0.0000 0.0000 0.0000
# 4 0.0000 0.0000 0.0000 13.8108 0.0000 0.0000
# 5 0.0000 0.0000 0.0000 0.0000 13.8108 0.0000
# 6 0.0000 0.0000 0.0000 0.0000 0.0000 40.7058
#
#
#
# Elastic Compliance Matrix: (Units=1/GPa)
#
#
# Indices 1 2 3 4 5 6 
#
# 1 0.009767 -0.002516 -0.003378 0.000000 0.000000 0.000000
# 2 -0.002516 0.009767 -0.003378 0.000000 0.000000 0.000000
# 3 -0.003378 -0.003378 0.015013 0.000000 0.000000 0.000000
# 4 0.000000 0.000000 0.000000 0.072407 0.000000 0.000000
# 5 0.000000 0.000000 0.000000 0.000000 0.072407 0.000000
# 6 0.000000 0.000000 0.000000 0.000000 0.000000 0.024566
#
#
# Mechanical properties :
#
#
# Convention : Reuss Voigt Hill
#
# Bulk Modulus (GPa) = 62.48758 65.58877 64.03817
# Shear Modulus (GPa) = 21.94836 28.00649 24.97742
#
# Velocity S-wave (km/s) = 3.42119 3.86461 3.64964
# Velocity P-wave (km/s) = 6.99495 7.40882 7.20486
#
# Compressibility (1/GPa) = 0.01600318
#
# Stress axis : x y z
#
# Youngs Moduli (GPa) = 102.38261 102.38261 66.60907
#
# Poissons Ratio (x) = 0.25759 0.22501
# Poissons Ratio (y) = 0.25759 0.22501
# Poissons Ratio (z) = 0.34586 0.34586
#
# Static dielectric constant tensor:
#      x y z
#    x 3.519250 0.000000 0.000000 
#    y 0.000000 3.519250 0.000000 
#    z 0.000000 0.000000 3.401920 
# 
# 
# High freq. dielectric constant tensor:
#      x y z
#    x 1.730550 0.000000 0.000000 
#    y 0.000000 1.730550 0.000000 
#    z 0.000000 0.000000 1.712260 
# 
# From -- ./inp_files/2353.got.cif
#   From: 2010.06.25/outbox.cif.g09.slc.cpg/sg190_2_cif.got.tgz:2353.got - 2010.06.28 13:08:06.
