data_PCOD8328073
_publ_section_title
;
Structure prediction by ZEFSAII (Michael W. Deem and Ramdas Pophale) SiO2 
 PCOD8328073
Probable space group: P -6 2 C
;
_chemical_formula_sum "Si O2"
_cell_formula_units_Z 84
_cell_length_a 15.035210
_cell_length_b 15.035210
_cell_length_c 23.266808
_cell_angle_alpha 90.000000
_cell_angle_beta 90.000000
_cell_angle_gamma 120.000000
_cell_volume 4554.979581
_symmetry_space_group_name_H-M "P -6 2 C"
_symmetry_group_IT_number 190
_symmetry_cell_setting 'hexagonal'
loop_
_space_group_symop_operation_xyz
x,y,z
-x+y,-x,1/2-z
-y,x-y,z
x,y,1/2-z
-x+y,-x,z
-y,x-y,1/2-z
x-y,-y,-z
-x,-x+y,-z
y,x,-z
y,x,1/2+z
x-y,-y,1/2+z
-x,-x+y,1/2+z
loop_
_atom_site_type_symbol
_atom_site_label
_atom_site_fract_x
_atom_site_fract_y
_atom_site_fract_z
Si Si1 0.449618 0.294046 0.997303
Si Si2 0.344543 0.349939 0.597692
Si Si3 0.632399 0.513026 0.019053
Si Si4 0.038149 0.827341 0.184401
Si Si5 0.504342 0.387993 0.185139
Si Si6 0.163982 0.451013 0.853279
Si Si7 0.221108 0.039080 0.185229
O O1 0.377851 0.279382 0.052673
O O2 0.559407 0.392989 0.008185
O O3 0.452164 0.190053 0.984987
O O4 0.410652 0.314146 0.937833
O O5 0.270686 0.262876 0.640368
O O6 0.420465 0.443503 0.639946
O O7 0.660548 0.522311 0.085236
O O8 0.579271 0.579271 0.000000
O O9 0.052736 0.799473 0.250000
O O10 0.941295 0.844831 0.182365
O O11 0.142580 0.925392 0.161630
O O12 0.457949 0.365072 0.250000
O O13 0.620601 0.481023 0.190665
O O14 0.489434 0.283123 0.157071
O O15 0.094248 0.328416 0.848194
O O16 0.252072 0.032081 0.250000
#
# Coordination Sequence:
#
# PCOD8328073 Si02
#       7
#    12  12  12  12  12  12  12
#     4  11  23  41  61  85 115 152 200 255 297 360
#     4  11  21  40  57  82 117 150 195 244 294 359
#     4  12  22  40  63  87 115 158 202 249 310 353
#     4  10  20  36  59  84 116 157 194 242 298 352
#     4  12  22  36  59  88 125 160 186 241 319 376
#     4  12  22  37  56  91 122 154 197 248 300 381
#     4  10  20  35  56  86 117 151 197 240 288 356
#
# _framework density 18.441355999999999
#
# number of rings (size 3 to 8) (size 9 to 14) (size 15 to 20)
#    0.000    0.857    5.714    2.571    2.000    1.143 
#    0.000    0.000    0.000    0.000    0.000    0.000 
#    0.000    0.000    0.000    0.000    0.000    0.000 
#
# Total GULP energy -1040901.048239 kJ/mol
# GULP energy per Si atom -12391.679146 kJ/mol
# Density = 1.839938 g / cm^3
# Si number density = 18.441356 Si / 1000 Ang^3
#
#
#
# Elastic Constant Matrix: (Units=GPa)
#
#
# Indices 1 2 3 4 5 6 
#
# 1 105.6387 48.5177 29.2959 0.0000 0.0000 0.0000
# 2 48.5177 105.6387 29.2959 0.0000 0.0000 0.0000
# 3 29.2959 29.2959 100.8452 0.0000 0.0000 0.0000
# 4 0.0000 0.0000 0.0000 16.7210 0.0000 0.0000
# 5 0.0000 0.0000 0.0000 0.0000 16.7210 0.0000
# 6 0.0000 0.0000 0.0000 0.0000 0.0000 28.5605
#
#
#
# Elastic Compliance Matrix: (Units=1/GPa)
#
#
# Indices 1 2 3 4 5 6 
#
# 1 0.012399 -0.005107 -0.002118 0.000000 0.000000 0.000000
# 2 -0.005107 0.012399 -0.002118 0.000000 0.000000 0.000000
# 3 -0.002118 -0.002118 0.011147 0.000000 0.000000 0.000000
# 4 0.000000 0.000000 0.000000 0.059805 0.000000 0.000000
# 5 0.000000 0.000000 0.000000 0.000000 0.059805 0.000000
# 6 0.000000 0.000000 0.000000 0.000000 0.000000 0.035013
#
#
# Mechanical properties :
#
#
# Convention : Reuss Voigt Hill
#
# Bulk Modulus (GPa) = 57.94541 58.48241 58.21391
# Shear Modulus (GPa) = 23.25472 26.06803 24.66137
#
# Velocity S-wave (km/s) = 3.55492 3.76382 3.66086
# Velocity P-wave (km/s) = 6.95267 7.11828 7.03596
#
# Compressibility (1/GPa) = 0.01725762
#
# Stress axis : x y z
#
# Youngs Moduli (GPa) = 80.64922 80.64922 89.71044
#
# Poissons Ratio (x) = 0.41190 0.19004
# Poissons Ratio (y) = 0.41190 0.19004
# Poissons Ratio (z) = 0.17085 0.17085
#
# Static dielectric constant tensor:
#      x y z
#    x 3.692370 0.000000 0.000000 
#    y 0.000000 3.692370 0.000000 
#    z 0.000000 0.000000 3.738390 
# 
# 
# High freq. dielectric constant tensor:
#      x y z
#    x 1.712830 0.000000 0.000000 
#    y 0.000000 1.712830 0.000000 
#    z 0.000000 0.000000 1.721250 
# 
# From -- ./inp_files/4701.got.cif
#   From: 2010.06.25/outbox.cif.g09.slc.cpg/sg190_3_cif.got.tgz:4701.got - 2010.06.28 13:08:06.
