data_PCOD8328452
_publ_section_title
;
Structure prediction by ZEFSAII (Michael W. Deem and Ramdas Pophale) SiO2 
 PCOD8328452
Probable space group: P 6/M M M
;
_chemical_formula_sum "Si O2"
_cell_formula_units_Z 108
_cell_length_a 20.924363
_cell_length_b 20.924363
_cell_length_c 19.338044
_cell_angle_alpha 90.000000
_cell_angle_beta 90.000000
_cell_angle_gamma 120.000000
_cell_volume 7332.425634
_symmetry_space_group_name_H-M "P 6/M M M"
_symmetry_group_IT_number 191
_symmetry_cell_setting 'hexagonal'
loop_
_space_group_symop_operation_xyz
x,y,z
x-y,x,z
-y,x-y,z
-x,-y,z
-x+y,-x,z
y,-x+y,z
x-y,-y,-z
-x,-x+y,-z
y,x,-z
-y,-x,-z
-x+y,y,-z
x,x-y,-z
-x,-y,-z
-x+y,-x,-z
y,-x+y,-z
x,y,-z
x-y,x,-z
-y,x-y,-z
-x+y,y,z
x,x-y,z
-y,-x,z
y,x,z
x-y,-y,z
-x,-x+y,z
loop_
_atom_site_type_symbol
_atom_site_label
_atom_site_fract_x
_atom_site_fract_y
_atom_site_fract_z
Si Si1 0.616895 0.082237 0.576836
Si Si2 0.342398 0.914002 0.829322
Si Si3 0.223818 0.918153 0.077909
Si Si4 0.087361 0.543680 0.923771
Si Si5 0.667635 0.182397 0.298068
O O1 0.652486 0.103511 0.500000
O O2 0.540272 0.080543 0.576922
O O3 0.671190 0.143690 0.630889
O O4 0.600846 0.000000 0.597054
O O5 0.268423 0.900317 0.865967
O O6 0.380868 0.885396 0.882884
O O7 0.321832 0.864347 0.761656
O O8 0.395956 0.000000 0.809696
O O9 0.137380 0.862621 0.089121
O O10 0.237220 0.000000 0.089471
O O11 0.248790 0.910683 0.000000
O O12 0.000000 0.500000 0.930697
O O13 0.123530 0.561765 0.000000
O O14 0.590734 0.181467 0.289082
O O15 0.733679 0.266322 0.297363
#
# Coordination Sequence:
#
# PCOD8328452 Si02
#       5
#    24  24  24  12  24
#     4   8  15  29  48  65  79  98 129 169 208 247
#     4  10  18  29  45  64  83 106 139 182 222 256
#     4   9  17  29  45  65  88 112 139 173 215 260
#     4   9  16  26  42  64  83  99 129 177 228 266
#     4  11  21  31  42  59  84 115 143 171 208 254
#
# _framework density 14.729096
#
# number of rings (size 3 to 8) (size 9 to 14) (size 15 to 20)
#    0.000    2.556    1.111    2.889    0.000    4.000 
#    0.000    0.000    0.000    1.556    0.000    1.556 
#    0.000    0.000    0.000    0.000    0.000    0.000 
#
# Total GULP energy -1338656.451355 kJ/mol
# GULP energy per Si atom -12394.967142 kJ/mol
# Density = 1.469557 g / cm^3
# Si number density = 14.729096 Si / 1000 Ang^3
#
#
#
# Elastic Constant Matrix: (Units=GPa)
#
#
# Indices 1 2 3 4 5 6 
#
# 1 73.5483 39.7196 43.2331 0.0000 0.0000 0.0000
# 2 39.7196 73.5483 43.2331 0.0000 0.0000 0.0000
# 3 43.2331 43.2331 104.4460 0.0000 0.0000 0.0000
# 4 0.0000 0.0000 0.0000 27.6924 0.0000 0.0000
# 5 0.0000 0.0000 0.0000 0.0000 27.6924 0.0000
# 6 0.0000 0.0000 0.0000 0.0000 0.0000 16.9144
#
#
#
# Elastic Compliance Matrix: (Units=1/GPa)
#
#
# Indices 1 2 3 4 5 6 
#
# 1 0.021234 -0.008327 -0.005343 0.000000 0.000000 0.000000
# 2 -0.008327 0.021234 -0.005343 0.000000 0.000000 0.000000
# 3 -0.005343 -0.005343 0.013997 0.000000 0.000000 0.000000
# 4 0.000000 0.000000 0.000000 0.036111 0.000000 0.000000
# 5 0.000000 0.000000 0.000000 0.000000 0.036111 0.000000
# 6 0.000000 0.000000 0.000000 0.000000 0.000000 0.059121
#
#
# Mechanical properties :
#
#
# Convention : Reuss Voigt Hill
#
# Bulk Modulus (GPa) = 54.22712 55.99047 55.10879
# Shear Modulus (GPa) = 21.55366 22.81695 22.18531
#
# Velocity S-wave (km/s) = 3.82951 3.94014 3.88522
# Velocity P-wave (km/s) = 7.51331 7.66783 7.59096
#
# Compressibility (1/GPa) = 0.01844096
#
# Stress axis : x y z
#
# Youngs Moduli (GPa) = 47.09459 47.09459 71.44273
#
# Poissons Ratio (x) = 0.39215 0.38169
# Poissons Ratio (y) = 0.39215 0.38169
# Poissons Ratio (z) = 0.25161 0.25161
#
# Static dielectric constant tensor:
#      x y z
#    x 2.704700 0.000000 0.000000 
#    y 0.000000 2.704700 0.000000 
#    z 0.000000 0.000000 3.100020 
# 
# 
# High freq. dielectric constant tensor:
#      x y z
#    x 1.539540 0.000000 0.000000 
#    y 0.000000 1.539540 0.000000 
#    z 0.000000 0.000000 1.573720 
# 
# From -- ./inp_files/6085.got.cif
#   From: 2010.03.12/outbox.cif.g09.slc.cpg/sg191_4_cif.got.tgz:6085.got - 2010.04.01 12:09:02.
