data_PCOD8328273
_publ_section_title
;
Structure prediction by ZEFSAII (Michael W. Deem and Ramdas Pophale) SiO2 
 PCOD8328273
Probable space group: P 6/M M M
;
_chemical_formula_sum "Si O2"
_cell_formula_units_Z 144
_cell_length_a 19.053093
_cell_length_b 19.053093
_cell_length_c 30.011293
_cell_angle_alpha 90.000000
_cell_angle_beta 90.000000
_cell_angle_gamma 120.000000
_cell_volume 9435.095778
_symmetry_space_group_name_H-M "P 6/M M M"
_symmetry_group_IT_number 191
_symmetry_cell_setting 'hexagonal'
loop_
_space_group_symop_operation_xyz
x,y,z
x-y,x,z
-y,x-y,z
-x,-y,z
-x+y,-x,z
y,-x+y,z
x-y,-y,-z
-x,-x+y,-z
y,x,-z
-y,-x,-z
-x+y,y,-z
x,x-y,-z
-x,-y,-z
-x+y,-x,-z
y,-x+y,-z
x,y,-z
x-y,x,-z
-y,x-y,-z
-x+y,y,z
x,x-y,z
-y,-x,z
y,x,z
x-y,-y,z
-x,-x+y,z
loop_
_atom_site_type_symbol
_atom_site_label
_atom_site_fract_x
_atom_site_fract_y
_atom_site_fract_z
Si Si1 0.658433 0.907992 0.948354
Si Si2 0.529774 0.905748 0.610480
Si Si3 0.903716 0.374052 0.886375
Si Si4 0.538291 0.627632 0.211269
Si Si5 0.826810 0.332217 0.701419
Si Si6 0.092227 0.341353 0.551497
O O1 0.691749 0.845875 0.938447
O O2 0.574076 0.876679 0.922136
O O3 0.726543 0.000000 0.934366
O O4 0.636700 0.905810 0.000000
O O5 0.433329 0.866657 0.599072
O O6 0.540341 0.891503 0.662380
O O7 0.574382 0.872155 0.578784
O O8 0.572134 0.000000 0.601798
O O9 0.870549 0.435275 0.899896
O O10 0.870928 0.335762 0.837165
O O11 0.000000 0.426289 0.883495
O O12 0.459162 0.540839 0.217162
O O13 0.617048 0.617048 0.214301
O O14 0.543121 0.685047 0.251861
O O15 0.807249 0.403625 0.708290
O O16 0.746079 0.253922 0.686103
O O17 0.093469 0.363902 0.500000
O O18 0.152906 0.305811 0.560202
O O19 0.000000 0.274424 0.566019
#
# Coordination Sequence:
#
# PCOD8328273 Si02
#       6
#    24  24  24  24  24  24
#     4   9  17  28  42  60  81 105 133 166 203 241
#     4   9  17  28  42  59  77 100 132 167 201 237
#     4   8  14  25  41  60  79  99 126 159 195 237
#     4   8  14  25  39  53  71  96 125 157 190 224
#     4  10  18  26  36  51  73 100 129 160 193 229
#     4   9  17  29  45  64  85 108 134 165 201 241
#
# _framework density 15.262167
#
# number of rings (size 3 to 8) (size 9 to 14) (size 15 to 20)
#    0.000    3.167    0.000    2.167    0.000    3.333 
#    0.000    3.333    0.000    1.000    0.000    2.333 
#    0.000    0.000    0.000    0.000    0.000    0.000 
#
# Total GULP energy -1784124.737526 kJ/mol
# GULP energy per Si atom -12389.755122 kJ/mol
# Density = 1.522743 g / cm^3
# Si number density = 15.262167 Si / 1000 Ang^3
#
#
#
# Elastic Constant Matrix: (Units=GPa)
#
#
# Indices 1 2 3 4 5 6 
#
# 1 62.3971 32.5678 32.6712 0.0000 0.0000 0.0000
# 2 32.5678 62.3971 32.6712 0.0000 0.0000 0.0000
# 3 32.6712 32.6712 67.8044 0.0000 0.0000 0.0000
# 4 0.0000 0.0000 0.0000 15.7600 0.0000 0.0000
# 5 0.0000 0.0000 0.0000 0.0000 15.7600 0.0000
# 6 0.0000 0.0000 0.0000 0.0000 0.0000 14.9146
#
#
#
# Elastic Compliance Matrix: (Units=1/GPa)
#
#
# Indices 1 2 3 4 5 6 
#
# 1 0.024639 -0.008886 -0.007590 0.000000 0.000000 0.000000
# 2 -0.008886 0.024639 -0.007590 0.000000 0.000000 0.000000
# 3 -0.007590 -0.007590 0.022063 0.000000 0.000000 0.000000
# 4 0.000000 0.000000 0.000000 0.063452 0.000000 0.000000
# 5 0.000000 0.000000 0.000000 0.000000 0.063452 0.000000
# 6 0.000000 0.000000 0.000000 0.000000 0.000000 0.067048
#
#
# Mechanical properties :
#
#
# Convention : Reuss Voigt Hill
#
# Bulk Modulus (GPa) = 43.09010 43.15766 43.12388
# Shear Modulus (GPa) = 15.56851 15.59948 15.58400
#
# Velocity S-wave (km/s) = 3.19732 3.20050 3.19891
# Velocity P-wave (km/s) = 6.47496 6.48047 6.47772
#
# Compressibility (1/GPa) = 0.02320719
#
# Stress axis : x y z
#
# Youngs Moduli (GPa) = 40.58679 40.58679 45.32444
#
# Poissons Ratio (x) = 0.36064 0.34403
# Poissons Ratio (y) = 0.36064 0.34403
# Poissons Ratio (z) = 0.30807 0.30807
#
# Static dielectric constant tensor:
#      x y z
#    x 2.869500 0.000000 0.000000 
#    y 0.000000 2.869500 0.000000 
#    z 0.000000 0.000000 3.121910 
# 
# 
# High freq. dielectric constant tensor:
#      x y z
#    x 1.557930 0.000000 0.000000 
#    y 0.000000 1.557930 0.000000 
#    z 0.000000 0.000000 1.593530 
# 
# From -- ./inp_files/9946.got.cif
#   From: 2010.03.12/outbox.cif.g09.slc.cpg/sg191_5_cif.got.tgz:9946.got - 2010.04.01 12:09:02.
