data_PCOD8328167
_publ_section_title
;
Structure prediction by ZEFSAII (Michael W. Deem and Ramdas Pophale) SiO2 
 PCOD8328167
Probable space group: P -6 2 C
;
_chemical_formula_sum "Si O2"
_cell_formula_units_Z 52
_cell_length_a 13.730931
_cell_length_b 13.730931
_cell_length_c 13.758884
_cell_angle_alpha 90.000000
_cell_angle_beta 90.000000
_cell_angle_gamma 120.000000
_cell_volume 2246.538214
_symmetry_space_group_name_H-M "P -6 2 C"
_symmetry_group_IT_number 190
_symmetry_cell_setting 'hexagonal'
loop_
_space_group_symop_operation_xyz
x,y,z
-x+y,-x,1/2-z
-y,x-y,z
x,y,1/2-z
-x+y,-x,z
-y,x-y,1/2-z
x-y,-y,-z
-x,-x+y,-z
y,x,-z
y,x,1/2+z
x-y,-y,1/2+z
-x,-x+y,1/2+z
loop_
_atom_site_type_symbol
_atom_site_label
_atom_site_fract_x
_atom_site_fract_y
_atom_site_fract_z
Si Si1 0.528070 0.866863 0.058932
Si Si2 0.000000 0.000000 0.387756
Si Si3 0.548816 0.674150 0.134727
Si Si4 0.283183 0.363847 0.864971
Si Si5 0.767609 0.796744 0.642767
O O1 0.490303 0.744801 0.100435
O O2 0.448767 0.916724 0.091146
O O3 0.650016 0.948115 0.109645
O O4 0.530764 0.864996 0.940467
O O5 0.877450 0.902670 0.352990
O O6 0.000000 0.000000 0.500000
O O7 0.547988 0.667927 0.250000
O O8 0.676351 0.727317 0.090521
O O9 0.295811 0.398041 0.750000
O O10 0.154234 0.287065 0.900589
O O11 0.719322 0.762019 0.750000
#
# Coordination Sequence:
#
# PCOD8328167 Si02
#       5
#    12   4  12  12  12
#     4  11  24  41  69  97 130 175 226 284 343 405
#     4  12  25  35  64 105 142 179 220 276 337 413
#     4  11  23  42  69 101 134 174 227 285 340 409
#     4  10  23  43  64  93 131 175 221 277 341 411
#     4  10  23  42  66  96 138 181 223 276 347 418
#
# _framework density 23.146723999999999
#
# number of rings (size 3 to 8) (size 9 to 14) (size 15 to 20)
#    0.000    1.385    0.000    4.615    6.462    7.385 
#    0.000    3.462    0.000    0.923    0.000    3.231 
#    0.000    0.000    0.000    0.000    0.000    0.000 
#
# Total GULP energy -644246.429134 kJ/mol
# GULP energy per Si atom -12389.354406 kJ/mol
# Density = 2.309404 g / cm^3
# Si number density = 23.146724 Si / 1000 Ang^3
#
#
#
# Elastic Constant Matrix: (Units=GPa)
#
#
# Indices 1 2 3 4 5 6 
#
# 1 119.6073 66.9746 34.4140 0.0000 0.0000 0.0000
# 2 66.9746 119.6073 34.4140 0.0000 0.0000 0.0000
# 3 34.4140 34.4140 153.1783 0.0000 0.0000 0.0000
# 4 0.0000 0.0000 0.0000 32.1929 0.0000 0.0000
# 5 0.0000 0.0000 0.0000 0.0000 32.1929 0.0000
# 6 0.0000 0.0000 0.0000 0.0000 0.0000 26.3163
#
#
#
# Elastic Compliance Matrix: (Units=1/GPa)
#
#
# Indices 1 2 3 4 5 6 
#
# 1 0.012422 -0.006578 -0.001313 0.000000 0.000000 0.000000
# 2 -0.006578 0.012422 -0.001313 0.000000 0.000000 0.000000
# 3 -0.001313 -0.001313 0.007118 0.000000 0.000000 0.000000
# 4 0.000000 0.000000 0.000000 0.031063 0.000000 0.000000
# 5 0.000000 0.000000 0.000000 0.000000 0.031063 0.000000
# 6 0.000000 0.000000 0.000000 0.000000 0.000000 0.037999
#
#
# Mechanical properties :
#
#
# Convention : Reuss Voigt Hill
#
# Bulk Modulus (GPa) = 73.77694 73.77758 73.77726
# Shear Modulus (GPa) = 32.25555 35.24643 33.75099
#
# Velocity S-wave (km/s) = 3.73705 3.90646 3.82269
# Velocity P-wave (km/s) = 7.11080 7.23121 7.17126
#
# Compressibility (1/GPa) = 0.01355437
#
# Stress axis : x y z
#
# Youngs Moduli (GPa) = 80.50390 80.50390 140.48331
#
# Poissons Ratio (x) = 0.52954 0.18444
# Poissons Ratio (y) = 0.52954 0.18444
# Poissons Ratio (z) = 0.10570 0.10570
#
# Static dielectric constant tensor:
#      x y z
#    x 4.149810 0.000000 0.000000 
#    y 0.000000 4.149810 0.000000 
#    z 0.000000 0.000000 4.159440 
# 
# 
# High freq. dielectric constant tensor:
#      x y z
#    x 1.907920 0.000000 0.000000 
#    y 0.000000 1.907920 0.000000 
#    z 0.000000 0.000000 1.924320 
# 
# From -- ./inp_files/2668.got.cif
#   From: 2010.06.25/outbox.cif.g09.slc.cpg/sg190_2_cif.got.tgz:2668.got - 2010.06.28 13:08:06.
