data_PCOD8328408
_publ_section_title
;
Structure prediction by ZEFSAII (Michael W. Deem and Ramdas Pophale) SiO2 
 PCOD8328408
Probable space group: P 6/M M M
;
_chemical_formula_sum "Si O2"
_cell_formula_units_Z 120
_cell_length_a 26.653331
_cell_length_b 26.653331
_cell_length_c 11.543826
_cell_angle_alpha 90.000000
_cell_angle_beta 90.000000
_cell_angle_gamma 120.000000
_cell_volume 7102.044499
_symmetry_space_group_name_H-M "P 6/M M M"
_symmetry_group_IT_number 191
_symmetry_cell_setting 'hexagonal'
loop_
_space_group_symop_operation_xyz
x,y,z
x-y,x,z
-y,x-y,z
-x,-y,z
-x+y,-x,z
y,-x+y,z
x-y,-y,-z
-x,-x+y,-z
y,x,-z
-y,-x,-z
-x+y,y,-z
x,x-y,-z
-x,-y,-z
-x+y,-x,-z
y,-x+y,-z
x,y,-z
x-y,x,-z
-y,x-y,-z
-x+y,y,z
x,x-y,z
-y,-x,z
y,x,z
x-y,-y,z
-x,-x+y,z
loop_
_atom_site_type_symbol
_atom_site_label
_atom_site_fract_x
_atom_site_fract_y
_atom_site_fract_z
Si Si1 0.572385 0.845929 0.208366
Si Si2 0.734179 0.920531 0.000000
Si Si3 0.232420 0.170659 0.746702
Si Si4 0.726314 0.065893 0.634260
Si Si5 0.065882 0.371524 0.000000
Si Si6 0.220046 0.666652 0.133777
O O1 0.588274 0.794137 0.191304
O O2 0.597028 0.882725 0.327028
O O3 0.503121 0.817355 0.211970
O O4 0.596525 0.895339 0.110678
O O5 0.773650 0.942277 0.114353
O O6 0.699661 0.849831 0.000000
O O7 0.693382 0.947336 0.000000
O O8 0.218261 0.109131 0.695377
O O9 0.186335 0.186335 0.692089
O O10 0.296804 0.218721 0.710998
O O11 0.742976 0.074001 0.500000
O O12 0.673143 0.000000 0.657393
O O13 0.000000 0.363499 0.000000
O O14 0.207762 0.603881 0.175068
O O15 0.288085 0.711916 0.149012
O O16 0.201954 0.665284 0.000000
#
# Coordination Sequence:
#
# PCOD8328408 Si02
#       6
#    24  12  24  24  12  24
#     4  11  20  31  49  74 100 127 162 202 241 282
#     4  10  18  28  43  65  92 121 154 189 229 280
#     4  10  19  30  45  65  90 119 152 192 237 286
#     4  10  21  35  49  68  95 127 162 196 236 287
#     4  12  20  28  43  66  99 133 162 188 234 289
#     4   9  17  30  50  76 106 134 160 193 237 285
#
# _framework density 16.896543000000001
#
# number of rings (size 3 to 8) (size 9 to 14) (size 15 to 20)
#    0.000    1.800    3.000    3.200    0.000    2.400 
#    0.000    0.000    0.000    3.800    0.000    1.400 
#    0.000    4.000    0.000    5.000    0.000    0.000 
#
# Total GULP energy -1486594.054629 kJ/mol
# GULP energy per Si atom -12388.283789 kJ/mol
# Density = 1.685809 g / cm^3
# Si number density = 16.896543 Si / 1000 Ang^3
#
#
#
# Elastic Constant Matrix: (Units=GPa)
#
#
# Indices 1 2 3 4 5 6 
#
# 1 104.3030 56.1748 27.4996 0.0000 0.0000 0.0000
# 2 56.1748 104.3030 27.4996 0.0000 0.0000 0.0000
# 3 27.4996 27.4996 62.9210 0.0000 0.0000 0.0000
# 4 0.0000 0.0000 0.0000 22.3700 0.0000 0.0000
# 5 0.0000 0.0000 0.0000 0.0000 22.3700 0.0000
# 6 0.0000 0.0000 0.0000 0.0000 0.0000 24.0641
#
#
#
# Elastic Compliance Matrix: (Units=1/GPa)
#
#
# Indices 1 2 3 4 5 6 
#
# 1 0.014054 -0.006724 -0.003203 0.000000 0.000000 0.000000
# 2 -0.006724 0.014054 -0.003203 0.000000 0.000000 0.000000
# 3 -0.003203 -0.003203 0.018693 0.000000 0.000000 0.000000
# 4 0.000000 0.000000 0.000000 0.044703 0.000000 0.000000
# 5 0.000000 0.000000 0.000000 0.000000 0.044703 0.000000
# 6 0.000000 0.000000 0.000000 0.000000 0.000000 0.041556
#
#
# Mechanical properties :
#
#
# Convention : Reuss Voigt Hill
#
# Bulk Modulus (GPa) = 48.68930 54.87500 51.78215
# Shear Modulus (GPa) = 23.71144 24.45103 24.08124
#
# Velocity S-wave (km/s) = 3.75017 3.80821 3.77930
# Velocity P-wave (km/s) = 6.90148 7.20307 7.05388
#
# Compressibility (1/GPa) = 0.02053839
#
# Stress axis : x y z
#
# Youngs Moduli (GPa) = 71.15652 71.15652 53.49626
#
# Poissons Ratio (x) = 0.47848 0.17136
# Poissons Ratio (y) = 0.47848 0.17136
# Poissons Ratio (z) = 0.22793 0.22793
#
# Static dielectric constant tensor:
#      x y z
#    x 3.195690 0.000000 0.000000 
#    y 0.000000 3.195690 0.000000 
#    z 0.000000 0.000000 3.032430 
# 
# 
# High freq. dielectric constant tensor:
#      x y z
#    x 1.639280 0.000000 0.000000 
#    y 0.000000 1.639280 0.000000 
#    z 0.000000 0.000000 1.630510 
# 
# From -- ./inp_files/3204.got.cif
#   From: 2010.03.12/outbox.cif.g09.slc.cpg/sg191_2_cif.got.tgz:3204.got - 2010.04.01 12:09:02.
