data_PCOD8328738
_publ_section_title
;
Structure prediction by ZEFSAII (Michael W. Deem and Ramdas Pophale) SiO2 
 PCOD8328738
Probable space group: P 6/M M M
;
_chemical_formula_sum "Si O2"
_cell_formula_units_Z 132
_cell_length_a 17.845434
_cell_length_b 17.845434
_cell_length_c 27.800820
_cell_angle_alpha 90.000000
_cell_angle_beta 90.000000
_cell_angle_gamma 120.000000
_cell_volume 7667.300178
_symmetry_space_group_name_H-M "P 6/M M M"
_symmetry_group_IT_number 191
_symmetry_cell_setting 'hexagonal'
loop_
_space_group_symop_operation_xyz
x,y,z
x-y,x,z
-y,x-y,z
-x,-y,z
-x+y,-x,z
y,-x+y,z
x-y,-y,-z
-x,-x+y,-z
y,x,-z
-y,-x,-z
-x+y,y,-z
x,x-y,-z
-x,-y,-z
-x+y,-x,-z
y,-x+y,-z
x,y,-z
x-y,x,-z
-y,x-y,-z
-x+y,y,z
x,x-y,z
-y,-x,z
y,x,z
x-y,-y,z
-x,-x+y,z
loop_
_atom_site_type_symbol
_atom_site_label
_atom_site_fract_x
_atom_site_fract_y
_atom_site_fract_z
Si Si1 0.668017 0.159989 0.862126
Si Si2 0.637616 0.734876 0.944849
Si Si3 0.901378 0.634749 0.224224
Si Si4 0.504464 0.668818 0.417564
Si Si5 0.362279 0.266567 0.500000
Si Si6 0.466788 0.365328 0.685921
O O1 0.573576 0.147153 0.857009
O O2 0.738886 0.261114 0.857563
O O3 0.675249 0.122117 0.913304
O O4 0.681134 0.105034 0.820859
O O5 0.672954 0.836477 0.933505
O O6 0.714388 0.714388 0.933150
O O7 0.607713 0.712951 0.000000
O O8 0.836510 0.673020 0.217967
O O9 0.871756 0.574900 0.271382
O O10 0.000000 0.713704 0.228193
O O11 0.470293 0.735147 0.429173
O O12 0.428426 0.571575 0.426076
O O13 0.582155 0.686919 0.452840
O O14 0.538583 0.684476 0.362999
O O15 0.278711 0.278711 0.500000
O O16 0.328914 0.164457 0.500000
O O17 0.566621 0.433380 0.699182
O O18 0.415454 0.415454 0.677336
#
# Coordination Sequence:
#
# PCOD8328738 Si02
#       6
#    24  24  24  24  12  24
#     4  10  20  33  49  70  96 125 155 187 224 267
#     4   9  18  32  49  69  93 122 156 193 233 275
#     4  10  20  33  49  69  93 121 154 192 234 278
#     4  10  19  30  45  67  97 131 164 194 223 258
#     4  10  21  35  51  70  91 117 150 190 235 281
#     4   9  17  29  46  68  93 122 157 195 231 268
#
# _framework density 17.215969000000001
#
# number of rings (size 3 to 8) (size 9 to 14) (size 15 to 20)
#    0.000    2.364    0.000    2.818    0.000    4.000 
#    0.000    1.818    0.000    7.364    0.000    1.273 
#    0.000    4.364    0.000    6.000    0.000    0.000 
#
# Total GULP energy -1636752.331683 kJ/mol
# GULP energy per Si atom -12399.638876 kJ/mol
# Density = 1.717678 g / cm^3
# Si number density = 17.215969 Si / 1000 Ang^3
#
#
#
# Elastic Constant Matrix: (Units=GPa)
#
#
# Indices 1 2 3 4 5 6 
#
# 1 88.5944 55.8857 41.5869 0.0000 0.0000 0.0000
# 2 55.8857 88.5944 41.5869 0.0000 0.0000 0.0000
# 3 41.5869 41.5869 86.5514 0.0000 0.0000 0.0000
# 4 0.0000 0.0000 0.0000 22.0208 0.0000 0.0000
# 5 0.0000 0.0000 0.0000 0.0000 22.0208 0.0000
# 6 0.0000 0.0000 0.0000 0.0000 0.0000 16.3543
#
#
#
# Elastic Compliance Matrix: (Units=1/GPa)
#
#
# Indices 1 2 3 4 5 6 
#
# 1 0.020070 -0.010503 -0.004597 0.000000 0.000000 0.000000
# 2 -0.010503 0.020070 -0.004597 0.000000 0.000000 0.000000
# 3 -0.004597 -0.004597 0.015972 0.000000 0.000000 0.000000
# 4 0.000000 0.000000 0.000000 0.045412 0.000000 0.000000
# 5 0.000000 0.000000 0.000000 0.000000 0.045412 0.000000
# 6 0.000000 0.000000 0.000000 0.000000 0.000000 0.061146
#
#
# Mechanical properties :
#
#
# Convention : Reuss Voigt Hill
#
# Bulk Modulus (GPa) = 59.81417 60.20658 60.01037
# Shear Modulus (GPa) = 19.75905 20.39122 20.07513
#
# Velocity S-wave (km/s) = 3.39147 3.44530 3.41849
# Velocity P-wave (km/s) = 7.08202 7.13260 7.10736
#
# Compressibility (1/GPa) = 0.01671845
#
# Stress axis : x y z
#
# Youngs Moduli (GPa) = 49.82459 49.82459 62.61077
#
# Poissons Ratio (x) = 0.52328 0.28784
# Poissons Ratio (y) = 0.52328 0.28784
# Poissons Ratio (z) = 0.22906 0.22906
#
# Static dielectric constant tensor:
#      x y z
#    x 3.089160 0.000000 0.000000 
#    y 0.000000 3.089160 0.000000 
#    z 0.000000 0.000000 3.428440 
# 
# 
# High freq. dielectric constant tensor:
#      x y z
#    x 1.647800 0.000000 0.000000 
#    y 0.000000 1.647800 0.000000 
#    z 0.000000 0.000000 1.684150 
# 
# From -- ./inp_files/9751.got.cif
#   From: 2010.03.12/outbox.cif.g09.slc.cpg/sg191_5_cif.got.tgz:9751.got - 2010.04.01 12:09:02.
