data_PCOD8328991
_publ_section_title
;
Structure prediction by ZEFSAII (Michael W. Deem and Ramdas Pophale) SiO2 
 PCOD8328991
Probable space group: P 6/M M M
;
_chemical_formula_sum "Si O2"
_cell_formula_units_Z 120
_cell_length_a 18.239156
_cell_length_b 18.239156
_cell_length_c 26.664231
_cell_angle_alpha 90.000000
_cell_angle_beta 90.000000
_cell_angle_gamma 120.000000
_cell_volume 7681.909218
_symmetry_space_group_name_H-M "P 6/M M M"
_symmetry_group_IT_number 191
_symmetry_cell_setting 'hexagonal'
loop_
_space_group_symop_operation_xyz
x,y,z
x-y,x,z
-y,x-y,z
-x,-y,z
-x+y,-x,z
y,-x+y,z
x-y,-y,-z
-x,-x+y,-z
y,x,-z
-y,-x,-z
-x+y,y,-z
x,x-y,-z
-x,-y,-z
-x+y,-x,-z
y,-x+y,-z
x,y,-z
x-y,x,-z
-y,x-y,-z
-x+y,y,z
x,x-y,z
-y,-x,z
y,x,z
x-y,-y,z
-x,-x+y,z
loop_
_atom_site_type_symbol
_atom_site_label
_atom_site_fract_x
_atom_site_fract_y
_atom_site_fract_z
Si Si1 0.356700 0.260800 0.581181
Si Si2 0.834506 0.500999 0.231765
Si Si3 0.668272 0.504825 0.500000
Si Si4 0.743394 0.093013 0.695670
Si Si5 0.000000 0.412876 0.943325
Si Si6 0.332933 0.836595 0.116266
O O1 0.323577 0.161789 0.568048
O O2 0.282070 0.282070 0.569255
O O3 0.439554 0.321182 0.549093
O O4 0.384773 0.279227 0.639097
O O5 0.737690 0.475380 0.241086
O O6 0.844927 0.422464 0.247135
O O7 0.897103 0.577419 0.267064
O O8 0.860034 0.527434 0.174268
O O9 0.575278 0.424723 0.500000
O O10 0.737028 0.474056 0.500000
O O11 0.840501 0.159500 0.708949
O O12 0.731152 0.000000 0.702793
O O13 0.915595 0.342041 0.915715
O O14 0.000000 0.500000 0.941679
O O15 0.000000 0.382896 0.000000
O O16 0.408889 0.817778 0.105456
O O17 0.246055 0.753946 0.100312
#
# Coordination Sequence:
#
# PCOD8328991 Si02
#       6
#    24  24  12  24  12  24
#     4   9  18  32  48  66  88 115 146 181 221 265
#     4   9  17  28  43  63  87 115 146 180 215 254
#     4  10  20  33  48  65  88 118 153 188 222 257
#     4   9  18  31  46  65  89 116 146 179 219 265
#     4   9  18  30  42  60  86 112 141 180 222 256
#     4   9  17  29  45  63  85 115 150 183 216 257
#
# _framework density 15.621117
#
# number of rings (size 3 to 8) (size 9 to 14) (size 15 to 20)
#    0.000    2.900    0.000    0.800    1.400    4.000 
#    0.000    2.000    0.000    4.000    0.000    2.800 
#    0.000    2.400    0.000    0.500    0.000    1.300 
#
# Total GULP energy -1487741.340979 kJ/mol
# GULP energy per Si atom -12397.844508 kJ/mol
# Density = 1.558556 g / cm^3
# Si number density = 15.621117 Si / 1000 Ang^3
#
#
#
# Elastic Constant Matrix: (Units=GPa)
#
#
# Indices 1 2 3 4 5 6 
#
# 1 100.1691 68.7314 51.3108 0.0000 0.0000 0.0000
# 2 68.7314 100.1691 51.3108 0.0000 0.0000 0.0000
# 3 51.3108 51.3108 78.8281 0.0000 0.0000 0.0000
# 4 0.0000 0.0000 0.0000 21.8942 0.0000 0.0000
# 5 0.0000 0.0000 0.0000 0.0000 21.8942 0.0000
# 6 0.0000 0.0000 0.0000 0.0000 0.0000 15.7189
#
#
#
# Elastic Compliance Matrix: (Units=1/GPa)
#
#
# Indices 1 2 3 4 5 6 
#
# 1 0.020802 -0.011007 -0.006375 0.000000 0.000000 0.000000
# 2 -0.011007 0.020802 -0.006375 0.000000 0.000000 0.000000
# 3 -0.006375 -0.006375 0.020985 0.000000 0.000000 0.000000
# 4 0.000000 0.000000 0.000000 0.045674 0.000000 0.000000
# 5 0.000000 0.000000 0.000000 0.000000 0.045674 0.000000
# 6 0.000000 0.000000 0.000000 0.000000 0.000000 0.063618
#
#
# Mechanical properties :
#
#
# Convention : Reuss Voigt Hill
#
# Bulk Modulus (GPa) = 66.34473 69.09694 67.72083
# Shear Modulus (GPa) = 18.51204 19.08900 18.80052
#
# Velocity S-wave (km/s) = 3.44621 3.49950 3.47296
# Velocity P-wave (km/s) = 7.64189 7.78831 7.71545
#
# Compressibility (1/GPa) = 0.01507279
#
# Stress axis : x y z
#
# Youngs Moduli (GPa) = 48.07342 48.07342 47.65237
#
# Poissons Ratio (x) = 0.52916 0.30379
# Poissons Ratio (y) = 0.52916 0.30379
# Poissons Ratio (z) = 0.30648 0.30648
#
# Static dielectric constant tensor:
#      x y z
#    x 2.924530 0.000000 0.000000 
#    y 0.000000 2.924530 0.000000 
#    z 0.000000 0.000000 3.108680 
# 
# 
# High freq. dielectric constant tensor:
#      x y z
#    x 1.583840 0.000000 0.000000 
#    y 0.000000 1.583840 0.000000 
#    z 0.000000 0.000000 1.606880 
# 
# From -- ./inp_files/9588.got.cif
#   From: 2010.03.12/outbox.cif.g09.slc.cpg/sg191_5_cif.got.tgz:9588.got - 2010.04.01 12:09:02.
