data_PCOD8328377
_publ_section_title
;
Structure prediction by ZEFSAII (Michael W. Deem and Ramdas Pophale) SiO2 
 PCOD8328377
Probable space group: P 6/M M M
;
_chemical_formula_sum "Si O2"
_cell_formula_units_Z 132
_cell_length_a 16.636865
_cell_length_b 16.636865
_cell_length_c 33.868564
_cell_angle_alpha 90.000000
_cell_angle_beta 90.000000
_cell_angle_gamma 120.000000
_cell_volume 8118.399150
_symmetry_space_group_name_H-M "P 6/M M M"
_symmetry_group_IT_number 191
_symmetry_cell_setting 'hexagonal'
loop_
_space_group_symop_operation_xyz
x,y,z
x-y,x,z
-y,x-y,z
-x,-y,z
-x+y,-x,z
y,-x+y,z
x-y,-y,-z
-x,-x+y,-z
y,x,-z
-y,-x,-z
-x+y,y,-z
x,x-y,-z
-x,-y,-z
-x+y,-x,-z
y,-x+y,-z
x,y,-z
x-y,x,-z
-y,x-y,-z
-x+y,y,z
x,x-y,z
-y,-x,z
y,x,z
x-y,-y,z
-x,-x+y,z
loop_
_atom_site_type_symbol
_atom_site_label
_atom_site_fract_x
_atom_site_fract_y
_atom_site_fract_z
Si Si1 0.103155 0.646666 0.000000
Si Si2 0.105690 0.711058 0.416598
Si Si3 0.554091 0.445909 0.792385
Si Si4 0.670177 0.157916 0.084649
Si Si5 0.784896 0.392448 0.711137
Si Si6 0.108882 0.554441 0.369696
Si Si7 0.609548 0.713584 0.162469
Si Si8 0.330871 0.481366 0.500000
O O1 0.147734 0.700995 0.959509
O O2 0.111986 0.555993 0.000000
O O3 0.000000 0.627011 0.000000
O O4 0.179613 0.820388 0.408340
O O5 0.141008 0.650354 0.392771
O O6 0.103823 0.687554 0.462474
O O7 0.000000 0.684239 0.404450
O O8 0.500000 0.500000 0.784396
O O9 0.578138 0.421863 0.750463
O O10 0.648063 0.510848 0.816465
O O11 0.561570 0.123140 0.087555
O O12 0.732924 0.267077 0.095455
O O13 0.694164 0.099613 0.115529
O O14 0.719649 0.439298 0.710206
O O15 0.850843 0.425422 0.673822
O O16 0.000000 0.500000 0.365687
O O17 0.642443 0.821222 0.172499
O O18 0.688248 0.688248 0.175973
O O19 0.436007 0.563994 0.500000
O O20 0.261416 0.522832 0.500000
#
# Coordination Sequence:
#
# PCOD8328377 Si02
#       8
#    12  24  12  24  12  12  24  12
#     4   9  17  26  38  52  78 117 157 195 229 268
#     4  10  20  32  49  69  97 130 168 210 253 298
#     4  10  19  34  52  72  96 126 158 198 234 280
#     4  10  18  28  41  62  88 120 156 191 231 274
#     4  10  21  32  47  68  99 129 162 193 225 274
#     4  10  19  33  50  70  95 131 164 202 245 290
#     4  10  20  33  51  71  96 123 158 199 241 284
#     4  10  18  29  44  69  98 130 168 205 246 290
#
# _framework density 16.259364000000001
#
# number of rings (size 3 to 8) (size 9 to 14) (size 15 to 20)
#    0.182    1.909    1.818    2.727    0.000    1.091 
#    1.091    0.909    0.000    0.364    0.000    0.000 
#    0.000    2.182    0.000    0.000    0.000   56.727 
#
# Total GULP energy -1635744.192517 kJ/mol
# GULP energy per Si atom -12392.001458 kJ/mol
# Density = 1.622236 g / cm^3
# Si number density = 16.259364 Si / 1000 Ang^3
#
#
#
# Elastic Constant Matrix: (Units=GPa)
#
#
# Indices 1 2 3 4 5 6 
#
# 1 69.4660 47.2105 18.4103 0.0000 0.0000 0.0000
# 2 47.2105 69.4660 18.4103 0.0000 0.0000 0.0000
# 3 18.4103 18.4103 84.0153 0.0000 0.0000 0.0000
# 4 0.0000 0.0000 0.0000 13.6829 0.0000 0.0000
# 5 0.0000 0.0000 0.0000 0.0000 13.6829 0.0000
# 6 0.0000 0.0000 0.0000 0.0000 0.0000 11.1277
#
#
#
# Elastic Compliance Matrix: (Units=1/GPa)
#
#
# Indices 1 2 3 4 5 6 
#
# 1 0.027070 -0.017863 -0.002018 0.000000 0.000000 0.000000
# 2 -0.017863 0.027070 -0.002018 0.000000 0.000000 0.000000
# 3 -0.002018 -0.002018 0.012787 0.000000 0.000000 0.000000
# 4 0.000000 0.000000 0.000000 0.073084 0.000000 0.000000
# 5 0.000000 0.000000 0.000000 0.000000 0.073084 0.000000
# 6 0.000000 0.000000 0.000000 0.000000 0.000000 0.089866
#
#
# Mechanical properties :
#
#
# Convention : Reuss Voigt Hill
#
# Bulk Modulus (GPa) = 43.23168 43.44550 43.33859
# Shear Modulus (GPa) = 14.10569 16.95978 15.53274
#
# Velocity S-wave (km/s) = 2.94860 3.23318 3.09416
# Velocity P-wave (km/s) = 6.18376 6.38092 6.28311
#
# Compressibility (1/GPa) = 0.02313119
#
# Stress axis : x y z
#
# Youngs Moduli (GPa) = 36.94114 36.94114 78.20544
#
# Poissons Ratio (x) = 0.65987 0.15779
# Poissons Ratio (y) = 0.65987 0.15779
# Poissons Ratio (z) = 0.07453 0.07453
#
# Static dielectric constant tensor:
#      x y z
#    x 2.959690 0.000000 0.000000 
#    y 0.000000 2.959690 0.000000 
#    z 0.000000 0.000000 3.103630 
# 
# 
# High freq. dielectric constant tensor:
#      x y z
#    x 1.604440 0.000000 0.000000 
#    y 0.000000 1.604440 0.000000 
#    z 0.000000 0.000000 1.630140 
# 
# From -- ./inp_files/10622.got.cif
#   From: 2010.03.12/outbox.cif.g09.slc.cpg/sg191_6_cif.got.tgz:10622.got - 2010.04.01 12:09:02.
