data_PCOD8328689
_publ_section_title
;
Structure prediction by ZEFSAII (Michael W. Deem and Ramdas Pophale) SiO2 
 PCOD8328689
Probable space group: P 6/M M M
;
_chemical_formula_sum "Si O2"
_cell_formula_units_Z 120
_cell_length_a 17.659714
_cell_length_b 17.659714
_cell_length_c 31.239398
_cell_angle_alpha 90.000000
_cell_angle_beta 90.000000
_cell_angle_gamma 120.000000
_cell_volume 8437.244210
_symmetry_space_group_name_H-M "P 6/M M M"
_symmetry_group_IT_number 191
_symmetry_cell_setting 'hexagonal'
loop_
_space_group_symop_operation_xyz
x,y,z
x-y,x,z
-y,x-y,z
-x,-y,z
-x+y,-x,z
y,-x+y,z
x-y,-y,-z
-x,-x+y,-z
y,x,-z
-y,-x,-z
-x+y,y,-z
x,x-y,-z
-x,-y,-z
-x+y,-x,-z
y,-x+y,-z
x,y,-z
x-y,x,-z
-y,x-y,-z
-x+y,y,z
x,x-y,z
-y,-x,z
y,x,z
x-y,-y,z
-x,-x+y,z
loop_
_atom_site_type_symbol
_atom_site_label
_atom_site_fract_x
_atom_site_fract_y
_atom_site_fract_z
Si Si1 0.589508 0.000000 0.645095
Si Si2 0.590296 0.000000 0.740959
Si Si3 0.844169 0.512400 0.415566
Si Si4 0.508737 0.841644 0.797560
Si Si5 0.332893 0.841633 0.104693
Si Si6 0.590211 0.590211 0.951788
Si Si7 0.726180 0.625020 0.500000
O O1 0.623803 0.000000 0.692950
O O2 0.572362 0.912236 0.621012
O O3 0.500000 0.000000 0.647570
O O4 0.578080 0.915463 0.766130
O O5 0.500000 0.000000 0.741179
O O6 0.749677 0.499353 0.404063
O O7 0.836162 0.418081 0.419153
O O8 0.880884 0.562905 0.459701
O O9 0.411852 0.823704 0.789332
O O10 0.508523 0.754262 0.785816
O O11 0.537435 0.871149 0.846436
O O12 0.411950 0.823900 0.096435
O O13 0.245794 0.754207 0.092968
O O14 0.337242 0.915427 0.073251
O O15 0.500000 0.500000 0.951362
O O16 0.622279 0.622279 0.000000
O O17 0.704288 0.704288 0.500000
O O18 0.831797 0.663594 0.500000
#
# Coordination Sequence:
#
# PCOD8328689 Si02
#       7
#    12  12  24  24  24  12  12
#     4   9  18  30  42  56  80 112 140 170 207 245
#     4   9  17  28  40  56  78 106 137 167 206 249
#     4  10  19  30  45  64  87 114 145 178 213 250
#     4   9  16  26  41  59  78 101 132 170 208 245
#     4   9  16  26  40  57  76 100 132 169 206 242
#     4   9  17  27  37  51  74 103 132 163 200 239
#     4  10  19  31  49  70  91 116 144 178 217 257
#
# _framework density 14.222654
#
# number of rings (size 3 to 8) (size 9 to 14) (size 15 to 20)
#    0.000    2.700    1.000    1.500    0.000    5.600 
#    0.000    1.000    0.000    3.700    0.000    0.000 
#    0.000    0.000    0.000    0.600    0.000   12.700 
#
# Total GULP energy -1487724.000608 kJ/mol
# GULP energy per Si atom -12397.700005 kJ/mol
# Density = 1.419028 g / cm^3
# Si number density = 14.222654 Si / 1000 Ang^3
#
#
#
# Elastic Constant Matrix: (Units=GPa)
#
#
# Indices 1 2 3 4 5 6 
#
# 1 83.8359 46.7446 54.4053 0.0000 0.0000 0.0000
# 2 46.7446 83.8359 54.4053 0.0000 0.0000 0.0000
# 3 54.4053 54.4053 119.1391 0.0000 0.0000 0.0000
# 4 0.0000 0.0000 0.0000 14.8931 0.0000 0.0000
# 5 0.0000 0.0000 0.0000 0.0000 14.8931 0.0000
# 6 0.0000 0.0000 0.0000 0.0000 0.0000 18.5456
#
#
#
# Elastic Compliance Matrix: (Units=1/GPa)
#
#
# Indices 1 2 3 4 5 6 
#
# 1 0.019661 -0.007299 -0.005645 0.000000 0.000000 0.000000
# 2 -0.007299 0.019661 -0.005645 0.000000 0.000000 0.000000
# 3 -0.005645 -0.005645 0.013549 0.000000 0.000000 0.000000
# 4 0.000000 0.000000 0.000000 0.067145 0.000000 0.000000
# 5 0.000000 0.000000 0.000000 0.000000 0.067145 0.000000
# 6 0.000000 0.000000 0.000000 0.000000 0.000000 0.053921
#
#
# Mechanical properties :
#
#
# Convention : Reuss Voigt Hill
#
# Bulk Modulus (GPa) = 63.72342 66.43570 65.07956
# Shear Modulus (GPa) = 17.63708 18.41674 18.02691
#
# Velocity S-wave (km/s) = 3.52528 3.60236 3.56403
# Velocity P-wave (km/s) = 7.84038 8.00720 7.92423
#
# Compressibility (1/GPa) = 0.01569282
#
# Stress axis : x y z
#
# Youngs Moduli (GPa) = 50.86114 50.86114 73.80406
#
# Poissons Ratio (x) = 0.37124 0.41664
# Poissons Ratio (y) = 0.37124 0.41664
# Poissons Ratio (z) = 0.28712 0.28712
#
# Static dielectric constant tensor:
#      x y z
#    x 2.686990 0.000000 0.000000 
#    y 0.000000 2.686990 0.000000 
#    z 0.000000 0.000000 3.008060 
# 
# 
# High freq. dielectric constant tensor:
#      x y z
#    x 1.520550 0.000000 0.000000 
#    y 0.000000 1.520550 0.000000 
#    z 0.000000 0.000000 1.554030 
# 
# From -- ./inp_files/10344.got.cif
#   From: 2010.03.12/outbox.cif.g09.slc.cpg/sg191_6_cif.got.tgz:10344.got - 2010.04.01 12:09:02.
