data_PCOD8328036
_publ_section_title
;
Structure prediction by ZEFSAII (Michael W. Deem and Ramdas Pophale) SiO2 
 PCOD8328036
Probable space group: P -6 2 C
;
_chemical_formula_sum "Si O2"
_cell_formula_units_Z 60
_cell_length_a 16.337103
_cell_length_b 16.337103
_cell_length_c 13.306155
_cell_angle_alpha 90.000000
_cell_angle_beta 90.000000
_cell_angle_gamma 120.000000
_cell_volume 3075.624446
_symmetry_space_group_name_H-M "P -6 2 C"
_symmetry_group_IT_number 190
_symmetry_cell_setting 'hexagonal'
loop_
_space_group_symop_operation_xyz
x,y,z
-x+y,-x,1/2-z
-y,x-y,z
x,y,1/2-z
-x+y,-x,z
-y,x-y,1/2-z
x-y,-y,-z
-x,-x+y,-z
y,x,-z
y,x,1/2+z
x-y,-y,1/2+z
-x,-x+y,1/2+z
loop_
_atom_site_type_symbol
_atom_site_label
_atom_site_fract_x
_atom_site_fract_y
_atom_site_fract_z
Si Si1 0.842919 0.108688 0.525019
Si Si2 0.541047 0.805852 0.366653
Si Si3 0.974130 0.224968 0.362739
Si Si4 0.548343 0.602001 0.862843
Si Si5 0.601886 0.464495 0.936535
O O1 0.762150 0.123558 0.576415
O O2 0.874970 0.159590 0.417722
O O3 0.936861 0.155594 0.594414
O O4 0.805641 0.000000 0.500000
O O5 0.550972 0.836036 0.250000
O O6 0.515927 0.698197 0.373658
O O7 0.454099 0.806782 0.421656
O O8 0.960126 0.188537 0.250000
O O9 0.991592 0.330380 0.372954
O O10 0.512524 0.605264 0.750000
O O11 0.532949 0.499382 0.890282
O O12 0.489939 0.625419 0.944714
#
# Coordination Sequence:
#
# PCOD8328036 Si02
#       5
#    12  12  12  12  12
#     4  11  23  39  60  93 127 155 198 260 312 371
#     4  12  23  38  60  90 126 165 204 255 311 364
#     4  10  20  42  69  86 112 162 209 252 311 377
#     4  10  19  39  67  86 109 155 212 254 298 364
#     4  11  22  38  59  90 122 156 207 252 299 362
#
# _framework density 19.508233000000001
#
# number of rings (size 3 to 8) (size 9 to 14) (size 15 to 20)
#    0.000    1.200    4.000    4.000    2.800    1.600 
#    4.800    2.000    0.000    0.000    0.000    0.000 
#    0.000    0.000    0.000    0.000    0.000    0.000 
#
# Total GULP energy -743846.430660 kJ/mol
# GULP energy per Si atom -12397.440511 kJ/mol
# Density = 1.946383 g / cm^3
# Si number density = 19.508233 Si / 1000 Ang^3
#
#
#
# Elastic Constant Matrix: (Units=GPa)
#
#
# Indices 1 2 3 4 5 6 
#
# 1 73.4049 22.4517 48.1434 0.0000 0.0000 0.0000
# 2 22.4517 73.4049 48.1434 0.0000 0.0000 0.0000
# 3 48.1434 48.1434 181.9273 0.0000 0.0000 0.0000
# 4 0.0000 0.0000 0.0000 23.7164 0.0000 0.0000
# 5 0.0000 0.0000 0.0000 0.0000 23.7164 0.0000
# 6 0.0000 0.0000 0.0000 0.0000 0.0000 25.4766
#
#
#
# Elastic Compliance Matrix: (Units=1/GPa)
#
#
# Indices 1 2 3 4 5 6 
#
# 1 0.016918 -0.002708 -0.003760 0.000000 0.000000 0.000000
# 2 -0.002708 0.016918 -0.003760 0.000000 0.000000 0.000000
# 3 -0.003760 -0.003760 0.007487 0.000000 0.000000 0.000000
# 4 0.000000 0.000000 0.000000 0.042165 0.000000 0.000000
# 5 0.000000 0.000000 0.000000 0.000000 0.042165 0.000000
# 6 0.000000 0.000000 0.000000 0.000000 0.000000 0.039252
#
#
# Mechanical properties :
#
#
# Convention : Reuss Voigt Hill
#
# Bulk Modulus (GPa) = 47.92797 62.91268 55.42032
# Shear Modulus (GPa) = 25.99890 28.58179 27.29034
#
# Velocity S-wave (km/s) = 3.65460 3.83183 3.74426
# Velocity P-wave (km/s) = 6.51379 7.20393 6.86753
#
# Compressibility (1/GPa) = 0.02086464
#
# Stress axis : x y z
#
# Youngs Moduli (GPa) = 59.11009 59.11009 133.56782
#
# Poissons Ratio (x) = 0.16008 0.50224
# Poissons Ratio (y) = 0.16008 0.50224
# Poissons Ratio (z) = 0.22227 0.22227
#
# Static dielectric constant tensor:
#      x y z
#    x 3.386320 0.000000 0.000000 
#    y 0.000000 3.386320 0.000000 
#    z 0.000000 0.000000 3.801460 
# 
# 
# High freq. dielectric constant tensor:
#      x y z
#    x 1.743920 0.000000 0.000000 
#    y 0.000000 1.743920 0.000000 
#    z 0.000000 0.000000 1.774920 
# 
# From -- ./inp_files/2813.got.cif
#   From: 2010.06.25/outbox.cif.g09.slc.cpg/sg190_2_cif.got.tgz:2813.got - 2010.06.28 13:08:06.
