data_PCOD8328739
_publ_section_title
;
Structure prediction by ZEFSAII (Michael W. Deem and Ramdas Pophale) SiO2 
 PCOD8328739
Probable space group: P 6/M M M
;
_chemical_formula_sum "Si O2"
_cell_formula_units_Z 120
_cell_length_a 17.686719
_cell_length_b 17.686719
_cell_length_c 25.580031
_cell_angle_alpha 90.000000
_cell_angle_beta 90.000000
_cell_angle_gamma 120.000000
_cell_volume 6929.888549
_symmetry_space_group_name_H-M "P 6/M M M"
_symmetry_group_IT_number 191
_symmetry_cell_setting 'hexagonal'
loop_
_space_group_symop_operation_xyz
x,y,z
x-y,x,z
-y,x-y,z
-x,-y,z
-x+y,-x,z
y,-x+y,z
x-y,-y,-z
-x,-x+y,-z
y,x,-z
-y,-x,-z
-x+y,y,-z
x,x-y,-z
-x,-y,-z
-x+y,-x,-z
y,-x+y,-z
x,y,-z
x-y,x,-z
-y,x-y,-z
-x+y,y,z
x,x-y,z
-y,-x,z
y,x,z
x-y,-y,z
-x,-x+y,z
loop_
_atom_site_type_symbol
_atom_site_label
_atom_site_fract_x
_atom_site_fract_y
_atom_site_fract_z
Si Si1 0.533056 0.635649 0.703766
Si Si2 0.362798 0.095650 0.500000
Si Si3 0.836897 0.331055 0.591210
Si Si4 0.331734 0.489608 0.900108
Si Si5 0.629250 0.901050 0.000000
Si Si6 0.099813 0.730782 0.196688
O O1 0.430737 0.569264 0.716331
O O2 0.581470 0.581470 0.696820
O O3 0.543042 0.686388 0.649988
O O4 0.575672 0.704910 0.750066
O O5 0.329130 0.164565 0.500000
O O6 0.418140 0.103928 0.551377
O O7 0.277788 0.000000 0.500000
O O8 0.858953 0.429477 0.583535
O O9 0.735249 0.264752 0.578880
O O10 0.260230 0.520460 0.898176
O O11 0.426739 0.573262 0.903133
O O12 0.317301 0.429801 0.949918
O O13 0.326001 0.434271 0.849235
O O14 0.665274 0.832637 0.000000
O O15 0.711305 0.000000 0.000000
O O16 0.165529 0.834472 0.187221
O O17 0.000000 0.710823 0.199127
#
# Coordination Sequence:
#
# PCOD8328739 Si02
#       6
#    24  12  24  24  12  24
#     4   9  17  29  46  68  93 122 157 195 232 272
#     4  10  21  35  51  70  91 117 150 190 235 281
#     4  10  19  30  45  67  97 131 164 194 223 258
#     4  10  20  33  50  73 101 131 160 190 226 271
#     4  10  21  35  51  72  97 127 162 200 241 281
#     4  10  20  33  49  69  93 122 157 197 240 283
#
# _framework density 17.316295
#
# number of rings (size 3 to 8) (size 9 to 14) (size 15 to 20)
#    0.000    2.200    0.000    3.400    0.000    4.400 
#    0.000    2.000    0.000    6.800    0.000    0.000 
#    0.000    4.800    0.000    6.400    0.000    0.400 
#
# Total GULP energy -1487987.793025 kJ/mol
# GULP energy per Si atom -12399.898275 kJ/mol
# Density = 1.727688 g / cm^3
# Si number density = 17.316295 Si / 1000 Ang^3
#
#
#
# Elastic Constant Matrix: (Units=GPa)
#
#
# Indices 1 2 3 4 5 6 
#
# 1 91.8744 57.4698 45.7190 0.0000 0.0000 0.0000
# 2 57.4698 91.8744 45.7190 0.0000 0.0000 0.0000
# 3 45.7190 45.7190 106.3357 0.0000 0.0000 0.0000
# 4 0.0000 0.0000 0.0000 24.9688 0.0000 0.0000
# 5 0.0000 0.0000 0.0000 0.0000 24.9688 0.0000
# 6 0.0000 0.0000 0.0000 0.0000 0.0000 17.2023
#
#
#
# Elastic Compliance Matrix: (Units=1/GPa)
#
#
# Indices 1 2 3 4 5 6 
#
# 1 0.019077 -0.009989 -0.003908 0.000000 0.000000 0.000000
# 2 -0.009989 0.019077 -0.003908 0.000000 0.000000 0.000000
# 3 -0.003908 -0.003908 0.012764 0.000000 0.000000 0.000000
# 4 0.000000 0.000000 0.000000 0.040050 0.000000 0.000000
# 5 0.000000 0.000000 0.000000 0.000000 0.040050 0.000000
# 6 0.000000 0.000000 0.000000 0.000000 0.000000 0.058132
#
#
# Mechanical properties :
#
#
# Convention : Reuss Voigt Hill
#
# Bulk Modulus (GPa) = 65.31311 65.32222 65.31767
# Shear Modulus (GPa) = 21.75222 22.83977 22.29599
#
# Velocity S-wave (km/s) = 3.54809 3.63571 3.59217
# Velocity P-wave (km/s) = 7.38816 7.44509 7.41668
#
# Compressibility (1/GPa) = 0.01531086
#
# Stress axis : x y z
#
# Youngs Moduli (GPa) = 52.41873 52.41873 78.34368
#
# Poissons Ratio (x) = 0.52360 0.30613
# Poissons Ratio (y) = 0.52360 0.30613
# Poissons Ratio (z) = 0.20483 0.20483
#
# Static dielectric constant tensor:
#      x y z
#    x 3.082480 0.000000 0.000000 
#    y 0.000000 3.082480 0.000000 
#    z 0.000000 0.000000 3.584570 
# 
# 
# High freq. dielectric constant tensor:
#      x y z
#    x 1.650890 0.000000 0.000000 
#    y 0.000000 1.650890 0.000000 
#    z 0.000000 0.000000 1.691820 
# 
# From -- ./inp_files/8533.got.cif
#   From: 2010.03.12/outbox.cif.g09.slc.cpg/sg191_5_cif.got.tgz:8533.got - 2010.04.01 12:09:02.
