data_PCOD8328686
_publ_section_title
;
Structure prediction by ZEFSAII (Michael W. Deem and Ramdas Pophale) SiO2 
 PCOD8328686
Probable space group: P 6/M M M
;
_chemical_formula_sum "Si O2"
_cell_formula_units_Z 120
_cell_length_a 17.674700
_cell_length_b 17.674700
_cell_length_c 27.395288
_cell_angle_alpha 90.000000
_cell_angle_beta 90.000000
_cell_angle_gamma 120.000000
_cell_volume 7411.576648
_symmetry_space_group_name_H-M "P 6/M M M"
_symmetry_group_IT_number 191
_symmetry_cell_setting 'hexagonal'
loop_
_space_group_symop_operation_xyz
x,y,z
x-y,x,z
-y,x-y,z
-x,-y,z
-x+y,-x,z
y,-x+y,z
x-y,-y,-z
-x,-x+y,-z
y,x,-z
-y,-x,-z
-x+y,y,-z
x,x-y,-z
-x,-y,-z
-x+y,-x,-z
y,-x+y,-z
x,y,-z
x-y,x,-z
-y,x-y,-z
-x+y,y,z
x,x-y,z
-y,-x,z
y,x,z
x-y,-y,z
-x,-x+y,z
loop_
_atom_site_type_symbol
_atom_site_label
_atom_site_fract_x
_atom_site_fract_y
_atom_site_fract_z
Si Si1 0.667754 0.155555 0.876512
Si Si2 0.899149 0.269790 0.783872
Si Si3 0.362611 0.267053 0.500000
Si Si4 0.668970 0.505759 0.415045
Si Si5 0.364460 0.466821 0.310075
Si Si6 0.410364 0.000000 0.054511
O O1 0.583224 0.166448 0.874790
O O2 0.751432 0.248569 0.888689
O O3 0.675682 0.117063 0.825097
O O4 0.660550 0.087426 0.917932
O O5 0.834605 0.165395 0.791595
O O6 0.872907 0.295423 0.733091
O O7 0.000000 0.292640 0.784771
O O8 0.277411 0.277411 0.500000
O O9 0.328945 0.164473 0.500000
O O10 0.417823 0.314179 0.548025
O O11 0.735214 0.470427 0.426992
O O12 0.570421 0.429580 0.422257
O O13 0.686760 0.542138 0.359968
O O14 0.431044 0.568957 0.297677
O O15 0.418883 0.418883 0.317918
O O16 0.500000 0.000000 0.052481
O O17 0.375653 0.000000 0.000000
#
# Coordination Sequence:
#
# PCOD8328686 Si02
#       6
#    24  24  12  24  24  12
#     4  10  19  31  48  70  96 126 160 196 234 276
#     4  10  19  31  48  69  93 122 155 193 236 284
#     4  10  21  35  51  68  87 113 148 190 235 281
#     4  10  19  30  44  65  94 128 162 194 225 260
#     4   9  17  28  44  66  92 122 157 194 232 273
#     4   9  18  32  48  66  92 126 159 192 232 272
#
# _framework density 16.190888000000001
#
# number of rings (size 3 to 8) (size 9 to 14) (size 15 to 20)
#    0.000    2.300    1.000    2.500    0.000    2.800 
#    0.000    1.000    0.000    7.900    0.000    0.000 
#    0.000    0.000    0.000    6.400    0.000    9.100 
#
# Total GULP energy -1487810.352476 kJ/mol
# GULP energy per Si atom -12398.419604 kJ/mol
# Density = 1.615404 g / cm^3
# Si number density = 16.190888 Si / 1000 Ang^3
#
#
#
# Elastic Constant Matrix: (Units=GPa)
#
#
# Indices 1 2 3 4 5 6 
#
# 1 88.0208 51.5301 49.3666 0.0000 0.0000 0.0000
# 2 51.5301 88.0208 49.3666 0.0000 0.0000 0.0000
# 3 49.3666 49.3666 100.9376 0.0000 0.0000 0.0000
# 4 0.0000 0.0000 0.0000 18.2685 0.0000 0.0000
# 5 0.0000 0.0000 0.0000 0.0000 18.2685 0.0000
# 6 0.0000 0.0000 0.0000 0.0000 0.0000 18.2454
#
#
#
# Elastic Compliance Matrix: (Units=1/GPa)
#
#
# Indices 1 2 3 4 5 6 
#
# 1 0.019181 -0.008223 -0.005359 0.000000 0.000000 0.000000
# 2 -0.008223 0.019181 -0.005359 0.000000 0.000000 0.000000
# 3 -0.005359 -0.005359 0.015149 0.000000 0.000000 0.000000
# 4 0.000000 0.000000 0.000000 0.054739 0.000000 0.000000
# 5 0.000000 0.000000 0.000000 0.000000 0.054739 0.000000
# 6 0.000000 0.000000 0.000000 0.000000 0.000000 0.054808
#
#
# Mechanical properties :
#
#
# Convention : Reuss Voigt Hill
#
# Bulk Modulus (GPa) = 63.98880 64.16730 64.07805
# Shear Modulus (GPa) = 19.16520 19.40421 19.28470
#
# Velocity S-wave (km/s) = 3.44423 3.46564 3.45495
# Velocity P-wave (km/s) = 7.44475 7.46539 7.45507
#
# Compressibility (1/GPa) = 0.01562774
#
# Stress axis : x y z
#
# Youngs Moduli (GPa) = 52.13539 52.13539 66.01034
#
# Poissons Ratio (x) = 0.42873 0.35375
# Poissons Ratio (y) = 0.42873 0.35375
# Poissons Ratio (z) = 0.27940 0.27940
#
# Static dielectric constant tensor:
#      x y z
#    x 2.935840 0.000000 0.000000 
#    y 0.000000 2.935840 0.000000 
#    z 0.000000 0.000000 3.291720 
# 
# 
# High freq. dielectric constant tensor:
#      x y z
#    x 1.605170 0.000000 0.000000 
#    y 0.000000 1.605170 0.000000 
#    z 0.000000 0.000000 1.636460 
# 
# From -- ./inp_files/9537.got.cif
#   From: 2010.03.12/outbox.cif.g09.slc.cpg/sg191_5_cif.got.tgz:9537.got - 2010.04.01 12:09:02.
