data_PCOD8328737
_publ_section_title
;
Structure prediction by ZEFSAII (Michael W. Deem and Ramdas Pophale) SiO2 
 PCOD8328737
Probable space group: P 6/M M M
;
_chemical_formula_sum "Si O2"
_cell_formula_units_Z 132
_cell_length_a 17.846954
_cell_length_b 17.846954
_cell_length_c 27.784706
_cell_angle_alpha 90.000000
_cell_angle_beta 90.000000
_cell_angle_gamma 120.000000
_cell_volume 7664.161470
_symmetry_space_group_name_H-M "P 6/M M M"
_symmetry_group_IT_number 191
_symmetry_cell_setting 'hexagonal'
loop_
_space_group_symop_operation_xyz
x,y,z
x-y,x,z
-y,x-y,z
-x,-y,z
-x+y,-x,z
y,-x+y,z
x-y,-y,-z
-x,-x+y,-z
y,x,-z
-y,-x,-z
-x+y,y,-z
x,x-y,-z
-x,-y,-z
-x+y,-x,-z
y,-x+y,-z
x,y,-z
x-y,x,-z
-y,x-y,-z
-x+y,y,z
x,x-y,z
-y,-x,z
y,x,z
x-y,-y,z
-x,-x+y,z
loop_
_atom_site_type_symbol
_atom_site_label
_atom_site_fract_x
_atom_site_fract_y
_atom_site_fract_z
Si Si1 0.730758 0.097510 0.911397
Si Si2 0.668835 0.164431 0.172196
Si Si3 0.634721 0.101360 0.275998
Si Si4 0.666643 0.161312 0.554967
Si Si5 0.160234 0.668556 0.000000
Si Si6 0.361524 0.097308 0.635810
O O1 0.833861 0.166140 0.914233
O O2 0.690176 0.104421 0.861159
O O3 0.680095 0.114876 0.953331
O O4 0.714599 0.000000 0.915957
O O5 0.571393 0.142786 0.162581
O O6 0.735077 0.264924 0.160040
O O7 0.683587 0.147675 0.227223
O O8 0.565275 0.130550 0.290068
O O9 0.702992 0.129133 0.318943
O O10 0.587291 0.000000 0.266688
O O11 0.665533 0.132453 0.500000
O O12 0.574962 0.149924 0.569894
O O13 0.738835 0.261166 0.562594
O O14 0.685772 0.099726 0.588288
O O15 0.262209 0.737791 0.000000
O O16 0.146552 0.573276 0.000000
O O17 0.322535 0.161268 0.630655
O O18 0.282440 0.000000 0.642587
#
# Coordination Sequence:
#
# PCOD8328737 Si02
#       6
#    24  24  24  24  12  24
#     4  10  21  35  51  71  94 122 156 196 241 285
#     4  10  19  30  45  67  97 131 164 194 223 258
#     4   9  17  29  46  68  93 121 153 188 224 265
#     4   9  17  29  46  69  97 127 155 181 211 252
#     4  10  20  33  50  73 102 134 165 194 224 261
#     4  10  20  33  48  66  89 117 151 191 234 277
#
# _framework density 17.223020000000002
#
# number of rings (size 3 to 8) (size 9 to 14) (size 15 to 20)
#    0.000    2.364    0.000    2.909    0.000    4.727 
#    0.000    2.727    0.000    6.182    0.000    0.000 
#    0.000    2.182    0.000   10.364    0.000    0.000 
#
# Total GULP energy -1636830.907291 kJ/mol
# GULP energy per Si atom -12400.234146 kJ/mol
# Density = 1.718382 g / cm^3
# Si number density = 17.223020 Si / 1000 Ang^3
#
#
#
# Elastic Constant Matrix: (Units=GPa)
#
#
# Indices 1 2 3 4 5 6 
#
# 1 87.4384 55.9491 39.5560 0.0000 0.0000 0.0000
# 2 55.9491 87.4384 39.5560 0.0000 0.0000 0.0000
# 3 39.5560 39.5560 81.0162 0.0000 0.0000 0.0000
# 4 0.0000 0.0000 0.0000 20.1887 0.0000 0.0000
# 5 0.0000 0.0000 0.0000 0.0000 20.1887 0.0000
# 6 0.0000 0.0000 0.0000 0.0000 0.0000 15.7447
#
#
#
# Elastic Compliance Matrix: (Units=1/GPa)
#
#
# Indices 1 2 3 4 5 6 
#
# 1 0.020651 -0.011106 -0.004661 0.000000 0.000000 0.000000
# 2 -0.011106 0.020651 -0.004661 0.000000 0.000000 0.000000
# 3 -0.004661 -0.004661 0.016894 0.000000 0.000000 0.000000
# 4 0.000000 0.000000 0.000000 0.049533 0.000000 0.000000
# 5 0.000000 0.000000 0.000000 0.000000 0.049533 0.000000
# 6 0.000000 0.000000 0.000000 0.000000 0.000000 0.063514
#
#
# Mechanical properties :
#
#
# Convention : Reuss Voigt Hill
#
# Bulk Modulus (GPa) = 57.66029 58.44615 58.05322
# Shear Modulus (GPa) = 18.69787 19.27987 18.98887
#
# Velocity S-wave (km/s) = 3.29847 3.34941 3.32404
# Velocity P-wave (km/s) = 6.93237 6.99762 6.96507
#
# Compressibility (1/GPa) = 0.01734296
#
# Stress axis : x y z
#
# Youngs Moduli (GPa) = 48.42343 48.42343 59.19177
#
# Poissons Ratio (x) = 0.53777 0.27587
# Poissons Ratio (y) = 0.53777 0.27587
# Poissons Ratio (z) = 0.22568 0.22568
#
# Static dielectric constant tensor:
#      x y z
#    x 3.030930 0.000000 0.000000 
#    y 0.000000 3.030930 0.000000 
#    z 0.000000 0.000000 3.414270 
# 
# 
# High freq. dielectric constant tensor:
#      x y z
#    x 1.643940 0.000000 0.000000 
#    y 0.000000 1.643940 0.000000 
#    z 0.000000 0.000000 1.683370 
# 
# From -- ./inp_files/8717.got.cif
#   From: 2010.03.12/outbox.cif.g09.slc.cpg/sg191_5_cif.got.tgz:8717.got - 2010.04.01 12:09:02.
