data_PCOD8328591
_publ_section_title
;
Structure prediction by ZEFSAII (Michael W. Deem and Ramdas Pophale) SiO2 
 PCOD8328591
Probable space group: P 6/M M M
;
_chemical_formula_sum "Si O2"
_cell_formula_units_Z 120
_cell_length_a 18.671714
_cell_length_b 18.671714
_cell_length_c 25.052249
_cell_angle_alpha 90.000000
_cell_angle_beta 90.000000
_cell_angle_gamma 120.000000
_cell_volume 7563.899057
_symmetry_space_group_name_H-M "P 6/M M M"
_symmetry_group_IT_number 191
_symmetry_cell_setting 'hexagonal'
loop_
_space_group_symop_operation_xyz
x,y,z
x-y,x,z
-y,x-y,z
-x,-y,z
-x+y,-x,z
y,-x+y,z
x-y,-y,-z
-x,-x+y,-z
y,x,-z
-y,-x,-z
-x+y,y,-z
x,x-y,-z
-x,-y,-z
-x+y,-x,-z
y,-x+y,-z
x,y,-z
x-y,x,-z
-y,x-y,-z
-x+y,y,z
x,x-y,z
-y,-x,z
y,x,z
x-y,-y,z
-x,-x+y,z
loop_
_atom_site_type_symbol
_atom_site_label
_atom_site_fract_x
_atom_site_fract_y
_atom_site_fract_z
Si Si1 0.631168 0.092552 0.058151
Si Si2 0.170247 0.501346 0.833410
Si Si3 0.348003 0.092705 0.239385
Si Si4 0.655263 0.748760 0.362365
Si Si5 0.098079 0.628246 0.440456
O O1 0.544942 0.089883 0.057854
O O2 0.685895 0.150657 0.106363
O O3 0.614844 0.000000 0.067521
O O4 0.674749 0.125775 0.000000
O O5 0.265911 0.531822 0.821681
O O6 0.153389 0.576695 0.825170
O O7 0.111183 0.429404 0.793070
O O8 0.319326 0.159663 0.225194
O O9 0.372176 0.097850 0.301289
O O10 0.273792 0.000000 0.225499
O O11 0.694425 0.847213 0.371530
O O12 0.723937 0.723937 0.378712
O O13 0.572222 0.701734 0.397744
O O14 0.128114 0.664940 0.500000
O O15 0.132711 0.566356 0.425825
O O16 0.000000 0.576815 0.438856
#
# Coordination Sequence:
#
# PCOD8328591 Si02
#       5
#    24  24  24  24  24
#     4   8  14  25  40  56  74 100 138 182 220 248
#     4  10  19  29  41  59  85 116 148 179 210 246
#     4   9  18  31  46  64  85 110 140 175 216 259
#     4   9  17  29  45  65  88 113 142 176 213 254
#     4   8  14  25  41  61  84 109 138 173 210 244
#
# _framework density 15.864834
#
# number of rings (size 3 to 8) (size 9 to 14) (size 15 to 20)
#    0.000    3.200    0.000    2.000    0.000    2.800 
#    0.000    2.000    0.000    2.000    0.000    2.800 
#    0.000    0.000    0.000    5.000    0.000    5.200 
#
# Total GULP energy -1486918.133587 kJ/mol
# GULP energy per Si atom -12390.984447 kJ/mol
# Density = 1.582872 g / cm^3
# Si number density = 15.864834 Si / 1000 Ang^3
#
#
#
# Elastic Constant Matrix: (Units=GPa)
#
#
# Indices 1 2 3 4 5 6 
#
# 1 77.7789 47.8623 43.9989 0.0000 0.0000 0.0000
# 2 47.8623 77.7789 43.9989 0.0000 0.0000 0.0000
# 3 43.9989 43.9989 77.9155 0.0000 0.0000 0.0000
# 4 0.0000 0.0000 0.0000 19.9215 0.0000 0.0000
# 5 0.0000 0.0000 0.0000 0.0000 19.9215 0.0000
# 6 0.0000 0.0000 0.0000 0.0000 0.0000 14.9583
#
#
#
# Elastic Compliance Matrix: (Units=1/GPa)
#
#
# Indices 1 2 3 4 5 6 
#
# 1 0.023297 -0.010130 -0.007435 0.000000 0.000000 0.000000
# 2 -0.010130 0.023297 -0.007435 0.000000 0.000000 0.000000
# 3 -0.007435 -0.007435 0.021232 0.000000 0.000000 0.000000
# 4 0.000000 0.000000 0.000000 0.050197 0.000000 0.000000
# 5 0.000000 0.000000 0.000000 0.000000 0.050197 0.000000
# 6 0.000000 0.000000 0.000000 0.000000 0.000000 0.066853
#
#
# Mechanical properties :
#
#
# Convention : Reuss Voigt Hill
#
# Bulk Modulus (GPa) = 56.10334 56.13260 56.11797
# Shear Modulus (GPa) = 17.18133 17.46779 17.32456
#
# Velocity S-wave (km/s) = 3.29444 3.32179 3.30814
# Velocity P-wave (km/s) = 7.06479 7.08315 7.07397
#
# Compressibility (1/GPa) = 0.01782425
#
# Stress axis : x y z
#
# Youngs Moduli (GPa) = 42.92486 42.92486 47.09907
#
# Poissons Ratio (x) = 0.43482 0.35020
# Poissons Ratio (y) = 0.43482 0.35020
# Poissons Ratio (z) = 0.31916 0.31916
#
# Static dielectric constant tensor:
#      x y z
#    x 2.912210 0.000000 0.000000 
#    y 0.000000 2.912210 0.000000 
#    z 0.000000 0.000000 3.346020 
# 
# 
# High freq. dielectric constant tensor:
#      x y z
#    x 1.583830 0.000000 0.000000 
#    y 0.000000 1.583830 0.000000 
#    z 0.000000 0.000000 1.620540 
# 
# From -- ./inp_files/10221.got.cif
#   From: 2010.03.12/outbox.cif.g09.slc.cpg/sg191_6_cif.got.tgz:10221.got - 2010.04.01 12:09:02.
