data_PCOD8328899
_publ_section_title
;
Structure prediction by ZEFSAII (Michael W. Deem and Ramdas Pophale) SiO2 
 PCOD8328899
Probable space group: P 6/M M M
;
_chemical_formula_sum "Si O2"
_cell_formula_units_Z 108
_cell_length_a 17.789393
_cell_length_b 17.789393
_cell_length_c 22.155765
_cell_angle_alpha 90.000000
_cell_angle_beta 90.000000
_cell_angle_gamma 120.000000
_cell_volume 6072.110146
_symmetry_space_group_name_H-M "P 6/M M M"
_symmetry_group_IT_number 191
_symmetry_cell_setting 'hexagonal'
loop_
_space_group_symop_operation_xyz
x,y,z
x-y,x,z
-y,x-y,z
-x,-y,z
-x+y,-x,z
y,-x+y,z
x-y,-y,-z
-x,-x+y,-z
y,x,-z
-y,-x,-z
-x+y,y,-z
x,x-y,-z
-x,-y,-z
-x+y,-x,-z
y,-x+y,-z
x,y,-z
x-y,x,-z
-y,x-y,-z
-x+y,y,z
x,x-y,z
-y,-x,z
y,x,z
x-y,-y,z
-x,-x+y,z
loop_
_atom_site_type_symbol
_atom_site_label
_atom_site_fract_x
_atom_site_fract_y
_atom_site_fract_z
Si Si1 0.195653 0.097827 0.428145
Si Si2 0.196469 0.392938 0.571517
Si Si3 0.532541 0.634793 0.000000
Si Si4 0.464560 0.363055 0.647644
Si Si5 0.268280 0.900964 0.113085
Si Si6 0.331630 0.493155 0.220466
O O1 0.147161 0.147161 0.402557
O O2 0.193316 0.096658 0.500000
O O3 0.294081 0.147041 0.404648
O O4 0.198601 0.397201 0.500000
O O5 0.147210 0.441266 0.595089
O O6 0.562803 0.694679 0.059140
O O7 0.574892 0.574892 0.000000
O O8 0.427628 0.572373 0.000000
O O9 0.563777 0.436224 0.637458
O O10 0.400748 0.400748 0.642419
O O11 0.453552 0.319882 0.712939
O O12 0.164014 0.835986 0.116159
O O13 0.314284 0.897283 0.174319
O O14 0.289200 0.000000 0.103299
O O15 0.262934 0.525868 0.210502
O O16 0.428104 0.571897 0.209691
#
# Coordination Sequence:
#
# PCOD8328899 Si02
#       6
#    12  12  12  24  24  24
#     4   9  17  30  51  78 106 134 163 200 249 311
#     4  11  22  37  54  77 104 135 172 213 264 323
#     4   9  17  30  49  76 110 144 176 211 257 314
#     4  10  21  37  56  77 103 136 175 218 262 311
#     4  10  20  33  52  78 108 144 185 227 270 315
#     4  10  19  33  54  80 107 137 172 213 256 306
#
# _framework density 17.786238999999998
#
# number of rings (size 3 to 8) (size 9 to 14) (size 15 to 20)
#    0.000    2.111    1.111    2.667    0.000    4.444 
#    0.667    1.111    0.000    3.333    0.000    0.000 
#    0.000    2.667    0.000    0.000    0.000    0.000 
#
# Total GULP energy -1339392.444525 kJ/mol
# GULP energy per Si atom -12401.781894 kJ/mol
# Density = 1.774576 g / cm^3
# Si number density = 17.786239 Si / 1000 Ang^3
#
#
#
# Elastic Constant Matrix: (Units=GPa)
#
#
# Indices 1 2 3 4 5 6 
#
# 1 66.9035 85.5602 43.0156 0.0000 0.0000 0.0000
# 2 85.5602 66.9035 43.0156 0.0000 0.0000 0.0000
# 3 43.0156 43.0156 87.7641 0.0000 0.0000 0.0000
# 4 0.0000 0.0000 0.0000 22.1893 0.0000 0.0000
# 5 0.0000 0.0000 0.0000 0.0000 22.1893 0.0000
# 6 0.0000 0.0000 0.0000 0.0000 0.0000 -9.3283
#
#
#
# Elastic Compliance Matrix: (Units=1/GPa)
#
#
# Indices 1 2 3 4 5 6 
#
# 1 -0.022267 0.031333 -0.004444 0.000000 0.000000 0.000000
# 2 0.031333 -0.022267 -0.004444 0.000000 0.000000 0.000000
# 3 -0.004444 -0.004444 0.015750 0.000000 0.000000 0.000000
# 4 0.000000 0.000000 0.000000 0.045067 0.000000 0.000000
# 5 0.000000 0.000000 0.000000 0.000000 0.045067 0.000000
# 6 0.000000 0.000000 0.000000 0.000000 0.000000 -0.107201
#
#
# Mechanical properties :
#
#
# Convention : Reuss Voigt Hill
#
# Bulk Modulus (GPa) = 62.08031 62.75041 62.41536
# Shear Modulus (GPa) = -58.56623 10.34205 -24.11209
#
# Velocity S-wave (km/s) = -5.74450 2.41397 -3.68592
# Velocity P-wave (km/s) = 3.00329 6.56708 4.12958
#
# Compressibility (1/GPa) = 0.01610817
#
# Stress axis : x y z
#
# Youngs Moduli (GPa) = -44.90960 -44.90960 63.49154
#
# Poissons Ratio (x) = 1.40717 0.28214
# Poissons Ratio (y) = 1.40717 0.28214
# Poissons Ratio (z) = -0.19956 -0.19956
#
# Static dielectric constant tensor:
#      x y z
#    x 3.270110 0.000000 0.000000 
#    y 0.000000 3.270110 0.000000 
#    z 0.000000 0.000000 3.269620 
# 
# 
# High freq. dielectric constant tensor:
#      x y z
#    x 1.683720 0.000000 0.000000 
#    y 0.000000 1.683720 0.000000 
#    z 0.000000 0.000000 1.685250 
# 
# From -- ./inp_files/7372.got.cif
#   From: 2010.03.12/outbox.cif.g09.slc.cpg/sg191_4_cif.got.tgz:7372.got - 2010.04.01 12:09:02.
