data_PCOD8328135
_publ_section_title
;
Structure prediction by ZEFSAII (Michael W. Deem and Ramdas Pophale) SiO2 
 PCOD8328135
Probable space group: P -6 2 C
;
_chemical_formula_sum "Si O2"
_cell_formula_units_Z 60
_cell_length_a 15.399272
_cell_length_b 15.399272
_cell_length_c 13.263425
_cell_angle_alpha 90.000000
_cell_angle_beta 90.000000
_cell_angle_gamma 120.000000
_cell_volume 2723.872015
_symmetry_space_group_name_H-M "P -6 2 C"
_symmetry_group_IT_number 190
_symmetry_cell_setting 'hexagonal'
loop_
_space_group_symop_operation_xyz
x,y,z
-x+y,-x,1/2-z
-y,x-y,z
x,y,1/2-z
-x+y,-x,z
-y,x-y,1/2-z
x-y,-y,-z
-x,-x+y,-z
y,x,-z
y,x,1/2+z
x-y,-y,1/2+z
-x,-x+y,1/2+z
loop_
_atom_site_type_symbol
_atom_site_label
_atom_site_fract_x
_atom_site_fract_y
_atom_site_fract_z
Si Si1 0.374945 0.509552 0.063313
Si Si2 0.165976 0.454424 0.367582
Si Si3 0.210812 0.146784 0.133616
Si Si4 0.772559 0.841713 0.371109
Si Si5 0.928640 0.586956 0.136881
O O1 0.284305 0.519519 0.108754
O O2 0.484732 0.601965 0.084069
O O3 0.364271 0.410510 0.114967
O O4 0.364911 0.500877 0.941933
O O5 0.147791 0.450713 0.250000
O O6 0.111730 0.341121 0.411545
O O7 0.178403 0.125919 0.250000
O O8 0.141035 0.187281 0.084078
O O9 0.326972 0.227358 0.122116
O O10 0.195263 0.042979 0.086075
O O11 0.770137 0.841404 0.250000
O O12 0.903338 0.542823 0.250000
#
# Coordination Sequence:
#
# PCOD8328135 Si02
#       5
#    12  12  12  12  12
#     4  11  23  40  67  95 125 165 223 276 338 390
#     4  11  21  38  64  97 128 165 221 284 331 380
#     4   9  16  32  59  92 131 176 210 257 321 390
#     4   9  17  30  58  97 134 170 219 263 318 392
#     4  10  21  42  65  87 128 176 212 259 334 407
#
# _framework density 22.027467999999999
#
# number of rings (size 3 to 8) (size 9 to 14) (size 15 to 20)
#    0.000    2.000    2.000    2.600    0.000    1.600 
#    7.200    1.000    0.000    0.000    0.000    0.000 
#    0.000    0.000    0.000    0.000    0.000    0.000 
#
# Total GULP energy -744140.000968 kJ/mol
# GULP energy per Si atom -12402.333349 kJ/mol
# Density = 2.197733 g / cm^3
# Si number density = 22.027468 Si / 1000 Ang^3
#
#
#
# Elastic Constant Matrix: (Units=GPa)
#
#
# Indices 1 2 3 4 5 6 
#
# 1 128.8111 59.0538 42.4473 0.0000 0.0000 0.0000
# 2 59.0538 128.8111 42.4473 0.0000 0.0000 0.0000
# 3 42.4473 42.4473 87.6631 0.0000 0.0000 0.0000
# 4 0.0000 0.0000 0.0000 30.4647 0.0000 0.0000
# 5 0.0000 0.0000 0.0000 0.0000 30.4647 0.0000
# 6 0.0000 0.0000 0.0000 0.0000 0.0000 34.8786
#
#
#
# Elastic Compliance Matrix: (Units=1/GPa)
#
#
# Indices 1 2 3 4 5 6 
#
# 1 0.010575 -0.003761 -0.003299 0.000000 0.000000 0.000000
# 2 -0.003761 0.010575 -0.003299 0.000000 0.000000 0.000000
# 3 -0.003299 -0.003299 0.014602 0.000000 0.000000 0.000000
# 4 0.000000 0.000000 0.000000 0.032825 0.000000 0.000000
# 5 0.000000 0.000000 0.000000 0.000000 0.032825 0.000000
# 6 0.000000 0.000000 0.000000 0.000000 0.000000 0.028671
#
#
# Mechanical properties :
#
#
# Convention : Reuss Voigt Hill
#
# Bulk Modulus (GPa) = 66.52092 70.35357 68.43724
# Shear Modulus (GPa) = 32.09192 32.58405 32.33799
#
# Velocity S-wave (km/s) = 3.82108 3.85027 3.83570
# Velocity P-wave (km/s) = 7.05211 7.19545 7.12414
#
# Compressibility (1/GPa) = 0.01503287
#
# Stress axis : x y z
#
# Youngs Moduli (GPa) = 94.56550 94.56550 68.48151
#
# Poissons Ratio (x) = 0.35564 0.22595
# Poissons Ratio (y) = 0.35564 0.22595
# Poissons Ratio (z) = 0.31201 0.31201
#
# Static dielectric constant tensor:
#      x y z
#    x 3.905360 0.000000 0.000000 
#    y 0.000000 3.905360 0.000000 
#    z 0.000000 0.000000 4.005340 
# 
# 
# High freq. dielectric constant tensor:
#      x y z
#    x 1.857130 0.000000 0.000000 
#    y 0.000000 1.857130 0.000000 
#    z 0.000000 0.000000 1.879440 
# 
# From -- ./inp_files/2799.got.cif
#   From: 2010.06.25/outbox.cif.g09.slc.cpg/sg190_2_cif.got.tgz:2799.got - 2010.06.28 13:08:06.
