data_PCOD8328487
_publ_section_title
;
Structure prediction by ZEFSAII (Michael W. Deem and Ramdas Pophale) SiO2 
 PCOD8328487
Probable space group: P 6/M M M
;
_chemical_formula_sum "Si O2"
_cell_formula_units_Z 96
_cell_length_a 28.157030
_cell_length_b 28.157030
_cell_length_c 8.878531
_cell_angle_alpha 90.000000
_cell_angle_beta 90.000000
_cell_angle_gamma 120.000000
_cell_volume 6096.006680
_symmetry_space_group_name_H-M "P 6/M M M"
_symmetry_group_IT_number 191
_symmetry_cell_setting 'hexagonal'
loop_
_space_group_symop_operation_xyz
x,y,z
x-y,x,z
-y,x-y,z
-x,-y,z
-x+y,-x,z
y,-x+y,z
x-y,-y,-z
-x,-x+y,-z
y,x,-z
-y,-x,-z
-x+y,y,-z
x,x-y,-z
-x,-y,-z
-x+y,-x,-z
y,-x+y,-z
x,y,-z
x-y,x,-z
-y,x-y,-z
-x+y,y,z
x,x-y,z
-y,-x,z
y,x,z
x-y,-y,z
-x,-x+y,z
loop_
_atom_site_type_symbol
_atom_site_label
_atom_site_fract_x
_atom_site_fract_y
_atom_site_fract_z
Si Si1 0.698815 0.000000 0.173156
Si Si2 0.777073 0.658667 0.173537
Si Si3 0.402261 0.000000 0.322255
Si Si4 0.456285 0.174283 0.675350
Si Si5 0.106668 0.498434 0.825340
O O1 0.757642 0.054555 0.207105
O O2 0.652285 0.000000 0.274136
O O3 0.682010 0.000000 0.000000
O O4 0.841913 0.683825 0.211207
O O5 0.740473 0.606134 0.275331
O O6 0.765767 0.639669 0.000000
O O7 0.455717 0.053062 0.262904
O O8 0.404823 0.000000 0.500000
O O9 0.460425 0.164448 0.500000
O O10 0.474428 0.237214 0.710517
O O11 0.496392 0.159690 0.766543
O O12 0.118596 0.559298 0.794690
O O13 0.097080 0.482835 0.000000
#
# Coordination Sequence:
#
# PCOD8328487 Si02
#       5
#    12  24  12  24  24
#     4  10  18  29  47  68  96 129 161 196 232 277
#     4   9  17  29  46  67  92 125 160 192 230 276
#     4  12  23  33  48  71  98 128 158 193 239 286
#     4  10  20  33  50  72  95 118 148 189 234 282
#     4  11  23  37  52  70  94 125 159 195 237 287
#
# _framework density 15.748015000000001
#
# number of rings (size 3 to 8) (size 9 to 14) (size 15 to 20)
#    0.000    1.750    2.500    3.000    0.000    5.000 
#    0.000    0.000    0.000    0.500    0.000    0.000 
#    0.000    0.000    0.000    0.375    0.000   12.000 
#
# Total GULP energy -1190237.542090 kJ/mol
# GULP energy per Si atom -12398.307730 kJ/mol
# Density = 1.571217 g / cm^3
# Si number density = 15.748015 Si / 1000 Ang^3
#
#
#
# Elastic Constant Matrix: (Units=GPa)
#
#
# Indices 1 2 3 4 5 6 
#
# 1 112.3018 64.3161 48.3961 0.0000 0.0000 0.0000
# 2 64.3161 112.3018 48.3961 0.0000 0.0000 0.0000
# 3 48.3961 48.3961 87.4524 0.0000 0.0000 0.0000
# 4 0.0000 0.0000 0.0000 16.0311 0.0000 0.0000
# 5 0.0000 0.0000 0.0000 0.0000 16.0311 0.0000
# 6 0.0000 0.0000 0.0000 0.0000 0.0000 23.9929
#
#
#
# Elastic Compliance Matrix: (Units=1/GPa)
#
#
# Indices 1 2 3 4 5 6 
#
# 1 0.014483 -0.006356 -0.004497 0.000000 0.000000 0.000000
# 2 -0.006356 0.014483 -0.004497 0.000000 0.000000 0.000000
# 3 -0.004497 -0.004497 0.016412 0.000000 0.000000 0.000000
# 4 0.000000 0.000000 0.000000 0.062379 0.000000 0.000000
# 5 0.000000 0.000000 0.000000 0.000000 0.062379 0.000000
# 6 0.000000 0.000000 0.000000 0.000000 0.000000 0.041679
#
#
# Mechanical properties :
#
#
# Convention : Reuss Voigt Hill
#
# Bulk Modulus (GPa) = 68.13608 70.47476 69.30542
# Shear Modulus (GPa) = 20.20943 21.27418 20.74181
#
# Velocity S-wave (km/s) = 3.58620 3.67946 3.63313
# Velocity P-wave (km/s) = 7.77870 7.93095 7.85519
#
# Compressibility (1/GPa) = 0.01467651
#
# Stress axis : x y z
#
# Youngs Moduli (GPa) = 69.04621 69.04621 60.92978
#
# Poissons Ratio (x) = 0.43889 0.27402
# Poissons Ratio (y) = 0.43889 0.27402
# Poissons Ratio (z) = 0.31052 0.31052
#
# Static dielectric constant tensor:
#      x y z
#    x 3.114810 0.000000 0.000000 
#    y 0.000000 3.114810 0.000000 
#    z 0.000000 0.000000 3.132390 
# 
# 
# High freq. dielectric constant tensor:
#      x y z
#    x 1.587250 0.000000 0.000000 
#    y 0.000000 1.587250 0.000000 
#    z 0.000000 0.000000 1.618120 
# 
# From -- ./inp_files/1567.got.cif
#   From: 2010.03.12/outbox.cif.g09.slc.cpg/sg191_1_cif.got.tgz:1567.got - 2010.04.01 12:09:02.
