data_PCOD8328629
_publ_section_title
;
Structure prediction by ZEFSAII (Michael W. Deem and Ramdas Pophale) SiO2 
 PCOD8328629
Probable space group: P 6/M M M
;
_chemical_formula_sum "Si O2"
_cell_formula_units_Z 168
_cell_length_a 32.153704
_cell_length_b 32.153704
_cell_length_c 11.621928
_cell_angle_alpha 90.000000
_cell_angle_beta 90.000000
_cell_angle_gamma 120.000000
_cell_volume 10405.688745
_symmetry_space_group_name_H-M "P 6/M M M"
_symmetry_group_IT_number 191
_symmetry_cell_setting 'hexagonal'
loop_
_space_group_symop_operation_xyz
x,y,z
x-y,x,z
-y,x-y,z
-x,-y,z
-x+y,-x,z
y,-x+y,z
x-y,-y,-z
-x,-x+y,-z
y,x,-z
-y,-x,-z
-x+y,y,-z
x,x-y,-z
-x,-y,-z
-x+y,-x,-z
y,-x+y,-z
x,y,-z
x-y,x,-z
-y,x-y,-z
-x+y,y,z
x,x-y,z
-y,-x,z
y,x,z
x-y,-y,z
-x,-x+y,z
loop_
_atom_site_type_symbol
_atom_site_label
_atom_site_fract_x
_atom_site_fract_y
_atom_site_fract_z
Si Si1 0.569934 0.735775 0.500000
Si Si2 0.527420 0.148977 0.864618
Si Si3 0.199271 0.053241 0.868091
Si Si4 0.279313 0.896615 0.135395
Si Si5 0.944015 0.715620 0.266718
Si Si6 0.947848 0.559440 0.864737
Si Si7 0.717596 0.531469 0.742700
Si Si8 0.679162 0.789820 0.500000
O O1 0.573461 0.786731 0.500000
O O2 0.541611 0.706301 0.386840
O O3 0.624316 0.745692 0.500000
O O4 0.582230 0.164460 0.837059
O O5 0.493023 0.093699 0.823610
O O6 0.513558 0.183375 0.794810
O O7 0.519584 0.153718 0.000000
O O8 0.181407 0.090704 0.838754
O O9 0.244056 0.064301 0.789613
O O10 0.154923 0.000000 0.843233
O O11 0.216280 0.057990 0.000000
O O12 0.246574 0.915043 0.190859
O O13 0.334360 0.933166 0.169412
O O14 0.264427 0.843854 0.181984
O O15 0.271058 0.892921 0.000000
O O16 0.921813 0.706810 0.392198
O O17 0.000000 0.731452 0.271602
O O18 0.000000 0.574976 0.808220
O O19 0.953018 0.558270 0.000000
O O20 0.758404 0.516808 0.743866
O O21 0.681676 0.840838 0.500000
#
# Coordination Sequence:
#
# PCOD8328629 Si02
#       8
#    12  24  24  24  24  24  24  12
#     4   9  18  33  52  70  92 122 162 210 249 276
#     4   9  18  31  47  71 101 127 154 195 245 294
#     4   9  18  32  49  69  93 122 156 196 245 298
#     4  10  19  29  44  69 101 130 160 200 240 282
#     4  11  21  32  47  68  96 131 167 200 242 294
#     4   8  14  25  41  62  89 122 156 188 224 264
#     4  10  19  33  52  73  96 127 166 205 246 292
#     4  11  21  35  49  64  92 129 169 214 248 277
#
# _framework density 16.145015000000001
#
# number of rings (size 3 to 8) (size 9 to 14) (size 15 to 20)
#    0.000    2.429    1.429    2.786    0.000    3.429 
#    0.000    1.786    0.000    0.429    0.000    1.000 
#    0.000    2.571    0.000    0.000    0.000   14.857 
#
# Total GULP energy -2082727.330265 kJ/mol
# GULP energy per Si atom -12397.186490 kJ/mol
# Density = 1.610827 g / cm^3
# Si number density = 16.145015 Si / 1000 Ang^3
#
#
#
# Elastic Constant Matrix: (Units=GPa)
#
#
# Indices 1 2 3 4 5 6 
#
# 1 91.2764 56.2637 47.4267 0.0000 0.0000 0.0000
# 2 56.2637 91.2764 47.4267 0.0000 0.0000 0.0000
# 3 47.4267 47.4267 94.8636 0.0000 0.0000 0.0000
# 4 0.0000 0.0000 0.0000 42.7518 0.0000 0.0000
# 5 0.0000 0.0000 0.0000 0.0000 42.7518 0.0000
# 6 0.0000 0.0000 0.0000 0.0000 0.0000 17.5063
#
#
#
# Elastic Compliance Matrix: (Units=1/GPa)
#
#
# Indices 1 2 3 4 5 6 
#
# 1 0.019275 -0.009286 -0.004994 0.000000 0.000000 0.000000
# 2 -0.009286 0.019275 -0.004994 0.000000 0.000000 0.000000
# 3 -0.004994 -0.004994 0.015534 0.000000 0.000000 0.000000
# 4 0.000000 0.000000 0.000000 0.023391 0.000000 0.000000
# 5 0.000000 0.000000 0.000000 0.000000 0.023391 0.000000
# 6 0.000000 0.000000 0.000000 0.000000 0.000000 0.057122
#
#
# Mechanical properties :
#
#
# Convention : Reuss Voigt Hill
#
# Bulk Modulus (GPa) = 64.36413 64.40563 64.38488
# Shear Modulus (GPa) = 24.78760 29.02191 26.90476
#
# Velocity S-wave (km/s) = 3.92255 4.24438 4.08664
# Velocity P-wave (km/s) = 7.77612 7.99989 7.88880
#
# Compressibility (1/GPa) = 0.01553660
#
# Stress axis : x y z
#
# Youngs Moduli (GPa) = 51.88163 51.88163 64.37298
#
# Poissons Ratio (x) = 0.48180 0.32145
# Poissons Ratio (y) = 0.48180 0.32145
# Poissons Ratio (z) = 0.25907 0.25907
#
# Static dielectric constant tensor:
#      x y z
#    x 3.041550 0.000000 0.000000 
#    y 0.000000 3.041550 0.000000 
#    z 0.000000 0.000000 3.011250 
# 
# 
# High freq. dielectric constant tensor:
#      x y z
#    x 1.610790 0.000000 0.000000 
#    y 0.000000 1.610790 0.000000 
#    z 0.000000 0.000000 1.609350 
# 
# From -- ./inp_files/3653.got.cif
#   From: 2010.03.12/outbox.cif.g09.slc.cpg/sg191_2_cif.got.tgz:3653.got - 2010.04.01 12:09:02.
