data_PCOD8328062
_publ_section_title
;
Structure prediction by ZEFSAII (Michael W. Deem and Ramdas Pophale) SiO2 
 PCOD8328062
Probable space group: P -6 2 C
;
_chemical_formula_sum "Si O2"
_cell_formula_units_Z 30
_cell_length_a 11.637825
_cell_length_b 11.637825
_cell_length_c 13.774709
_cell_angle_alpha 90.000000
_cell_angle_beta 90.000000
_cell_angle_gamma 120.000000
_cell_volume 1615.685060
_symmetry_space_group_name_H-M "P -6 2 C"
_symmetry_group_IT_number 190
_symmetry_cell_setting 'hexagonal'
loop_
_space_group_symop_operation_xyz
x,y,z
-x+y,-x,1/2-z
-y,x-y,z
x,y,1/2-z
-x+y,-x,z
-y,x-y,1/2-z
x-y,-y,-z
-x,-x+y,-z
y,x,-z
y,x,1/2+z
x-y,-y,1/2+z
-x,-x+y,1/2+z
loop_
_atom_site_type_symbol
_atom_site_label
_atom_site_fract_x
_atom_site_fract_y
_atom_site_fract_z
Si Si1 0.333333 0.666668 0.885444
Si Si2 0.208326 0.999986 0.250000
Si Si3 0.842893 0.557399 0.750000
Si Si4 0.000000 0.000000 0.114710
Si Si5 0.333335 0.666667 0.114556
Si Si6 0.442590 0.285471 0.250000
O O1 0.204455 0.670029 0.845864
O O2 0.333334 0.666667 0.000000
O O3 0.353382 0.126962 0.250000
O O4 0.130233 0.999981 0.346650
O O5 0.226419 0.873017 0.250000
O O6 0.795563 0.465558 0.845863
O O7 0.000005 0.649336 0.750000
O O8 0.000000 0.000000 0.000000
#
# Coordination Sequence:
#
# PCOD8328062 Si02
#       6
#     4   6   6   4   4   6
#     4  10  26  40  61  92 115 157 209 241 286 353
#     4  10  20  40  60  86 126 160 192 244 304 346
#     4  10  21  42  65  83 124 160 191 247 302 349
#     4  10  20  34  55  92 124 154 203 241 292 353
#     4  10  26  40  61  92 115 157 209 241 286 353
#     4  10  21  42  65  83 124 160 191 247 302 349
#
# _framework density 18.567974
#
# number of rings (size 3 to 8) (size 9 to 14) (size 15 to 20)
#    0.000    2.400    4.000    0.000   11.200    4.800 
#    0.000    0.000    0.000    0.000    0.000    0.000 
#    0.000    0.000    0.000    0.000    0.000    0.000 
#
# Total GULP energy -372004.881103 kJ/mol
# GULP energy per Si atom -12400.162703 kJ/mol
# Density = 1.852571 g / cm^3
# Si number density = 18.567974 Si / 1000 Ang^3
#
#
#
# Elastic Constant Matrix: (Units=GPa)
#
#
# Indices 1 2 3 4 5 6 
#
# 1 106.0890 42.2469 38.6505 0.0001 0.0000 0.0002
# 2 42.2469 106.0906 38.6509 0.0000 0.0000 0.0003
# 3 38.6505 38.6509 194.2503 0.0002 -0.0002 0.0002
# 4 0.0001 0.0000 0.0002 11.1427 0.0000 0.0000
# 5 0.0000 0.0000 -0.0002 0.0000 11.1426 0.0000
# 6 0.0002 0.0003 0.0002 0.0000 0.0000 31.9218
#
#
#
# Elastic Compliance Matrix: (Units=1/GPa)
#
#
# Indices 1 2 3 4 5 6 
#
# 1 0.011592 -0.004071 -0.001497 0.000000 0.000000 0.000000
# 2 -0.004071 0.011592 -0.001497 0.000000 0.000000 0.000000
# 3 -0.001497 -0.001497 0.005744 0.000000 0.000000 0.000000
# 4 0.000000 0.000000 0.000000 0.089745 0.000000 0.000000
# 5 0.000000 0.000000 0.000000 0.000000 0.089745 0.000000
# 6 0.000000 0.000000 0.000000 0.000000 0.000000 0.031327
#
#
# Mechanical properties :
#
#
# Convention : Reuss Voigt Hill
#
# Bulk Modulus (GPa) = 67.56765 71.72515 69.64640
# Shear Modulus (GPa) = 19.31942 29.96685 24.64314
#
# Velocity S-wave (km/s) = 3.22913 4.02170 3.64701
# Velocity P-wave (km/s) = 7.09728 7.76387 7.43805
#
# Compressibility (1/GPa) = 0.01479998
#
# Stress axis : x y z
#
# Youngs Moduli (GPa) = 86.26297 86.26421 174.10855
#
# Poissons Ratio (x) = 0.35119 0.26056
# Poissons Ratio (y) = 0.35118 0.26056
# Poissons Ratio (z) = 0.12910 0.12910
#
# Static dielectric constant tensor:
#      x y z
#    x 3.485080 0.000000 0.000010 
#    y 0.000000 3.485070 0.000000 
#    z 0.000010 0.000000 3.178640 
# 
# 
# High freq. dielectric constant tensor:
#      x y z
#    x 1.732270 0.000000 0.000000 
#    y 0.000000 1.732270 0.000000 
#    z 0.000000 0.000000 1.698290 
# 
# From -- ./inp_files/2336.got.cif
#   From: 2010.06.25/outbox.cif.g09.slc.cpg/sg190_2_cif.got.tgz:2336.got - 2010.06.28 13:08:06.
