data_PCOD8328751
_publ_section_title
;
Structure prediction by ZEFSAII (Michael W. Deem and Ramdas Pophale) SiO2 
 PCOD8328751
Probable space group: P 6/M M M
;
_chemical_formula_sum "Si O2"
_cell_formula_units_Z 144
_cell_length_a 32.344969
_cell_length_b 32.344969
_cell_length_c 9.171433
_cell_angle_alpha 90.000000
_cell_angle_beta 90.000000
_cell_angle_gamma 120.000000
_cell_volume 8309.622756
_symmetry_space_group_name_H-M "P 6/M M M"
_symmetry_group_IT_number 191
_symmetry_cell_setting 'hexagonal'
loop_
_space_group_symop_operation_xyz
x,y,z
x-y,x,z
-y,x-y,z
-x,-y,z
-x+y,-x,z
y,-x+y,z
x-y,-y,-z
-x,-x+y,-z
y,x,-z
-y,-x,-z
-x+y,y,-z
x,x-y,-z
-x,-y,-z
-x+y,-x,-z
y,-x+y,-z
x,y,-z
x-y,x,-z
-y,x-y,-z
-x+y,y,z
x,x-y,z
-y,-x,z
y,x,z
x-y,-y,z
-x,-x+y,z
loop_
_atom_site_type_symbol
_atom_site_label
_atom_site_fract_x
_atom_site_fract_y
_atom_site_fract_z
Si Si1 0.524048 0.808971 0.670196
Si Si2 0.568462 0.946922 0.833000
Si Si3 0.053441 0.199416 0.667531
Si Si4 0.283848 0.903599 0.329162
Si Si5 0.228627 0.944862 0.170080
Si Si6 0.619179 0.145406 0.828988
O O1 0.513938 0.808355 0.500000
O O2 0.518415 0.759208 0.723832
O O3 0.577471 0.850430 0.707731
O O4 0.484648 0.816628 0.752212
O O5 0.605790 0.941457 0.732045
O O6 0.514325 0.908718 0.789819
O O7 0.576579 0.000000 0.809956
O O8 0.578818 0.939223 0.000000
O O9 0.056968 0.215836 0.500000
O O10 0.090291 0.180581 0.699815
O O11 0.067180 0.244705 0.768601
O O12 0.000000 0.156582 0.703300
O O13 0.282596 0.912174 0.500000
O O14 0.243790 0.910746 0.251117
O O15 0.267587 0.000000 0.200419
O O16 0.223266 0.932905 0.000000
O O17 0.576376 0.152752 0.770438
O O18 0.626157 0.154658 0.000000
#
# Coordination Sequence:
#
# PCOD8328751 Si02
#       6
#    24  24  24  24  24  24
#     4   9  19  35  52  70  93 122 156 193 234 281
#     4   9  17  29  45  66  95 131 166 196 227 267
#     4   9  18  33  52  72  94 122 156 193 235 284
#     4  10  19  30  46  68  95 128 165 203 240 275
#     4  10  20  32  46  67  97 131 166 202 237 274
#     4   9  18  32  50  73  98 122 151 189 233 279
#
# _framework density 17.329305999999999
#
# number of rings (size 3 to 8) (size 9 to 14) (size 15 to 20)
#    0.000    2.667    0.000    1.500    0.000    6.000 
#    0.000    3.333    0.000    0.500    0.000    5.833 
#    0.000    0.000    0.000    4.167    0.000    4.333 
#
# Total GULP energy -1785707.599694 kJ/mol
# GULP energy per Si atom -12400.747220 kJ/mol
# Density = 1.728986 g / cm^3
# Si number density = 17.329306 Si / 1000 Ang^3
#
#
#
# Elastic Constant Matrix: (Units=GPa)
#
#
# Indices 1 2 3 4 5 6 
#
# 1 114.5137 78.0529 47.6182 0.0000 0.0000 0.0000
# 2 78.0529 114.5137 47.6182 0.0000 0.0000 0.0000
# 3 47.6182 47.6182 67.4171 0.0000 0.0000 0.0000
# 4 0.0000 0.0000 0.0000 25.1517 0.0000 0.0000
# 5 0.0000 0.0000 0.0000 0.0000 25.1517 0.0000
# 6 0.0000 0.0000 0.0000 0.0000 0.0000 18.2304
#
#
#
# Elastic Compliance Matrix: (Units=1/GPa)
#
#
# Indices 1 2 3 4 5 6 
#
# 1 0.017704 -0.009723 -0.005637 0.000000 0.000000 0.000000
# 2 -0.009723 0.017704 -0.005637 0.000000 0.000000 0.000000
# 3 -0.005637 -0.005637 0.022796 0.000000 0.000000 0.000000
# 4 0.000000 0.000000 0.000000 0.039759 0.000000 0.000000
# 5 0.000000 0.000000 0.000000 0.000000 0.039759 0.000000
# 6 0.000000 0.000000 0.000000 0.000000 0.000000 0.054853
#
#
# Mechanical properties :
#
#
# Convention : Reuss Voigt Hill
#
# Bulk Modulus (GPa) = 61.69153 71.44701 66.56927
# Shear Modulus (GPa) = 20.83579 21.91714 21.37646
#
# Velocity S-wave (km/s) = 3.47124 3.56018 3.51599
# Velocity P-wave (km/s) = 7.19325 7.63010 7.41489
#
# Compressibility (1/GPa) = 0.01620968
#
# Stress axis : x y z
#
# Youngs Moduli (GPa) = 56.48513 56.48513 43.86694
#
# Poissons Ratio (x) = 0.54920 0.24728
# Poissons Ratio (y) = 0.54920 0.24728
# Poissons Ratio (z) = 0.31841 0.31841
#
# Static dielectric constant tensor:
#      x y z
#    x 3.186070 0.000000 0.000000 
#    y 0.000000 3.186070 0.000000 
#    z 0.000000 0.000000 3.249340 
# 
# 
# High freq. dielectric constant tensor:
#      x y z
#    x 1.657130 0.000000 0.000000 
#    y 0.000000 1.657130 0.000000 
#    z 0.000000 0.000000 1.671310 
# 
# From -- ./inp_files/1960.got.cif
#   From: 2010.03.12/outbox.cif.g09.slc.cpg/sg191_1_cif.got.tgz:1960.got - 2010.04.01 12:09:02.
