data_PCOD8328147
_publ_section_title
;
Structure prediction by ZEFSAII (Michael W. Deem and Ramdas Pophale) SiO2 
 PCOD8328147
Probable space group: P -6 2 C
;
_chemical_formula_sum "Si O2"
_cell_formula_units_Z 42
_cell_length_a 10.414699
_cell_length_b 10.414699
_cell_length_c 22.364643
_cell_angle_alpha 90.000000
_cell_angle_beta 90.000000
_cell_angle_gamma 120.000000
_cell_volume 2100.806474
_symmetry_space_group_name_H-M "P -6 2 C"
_symmetry_group_IT_number 190
_symmetry_cell_setting 'hexagonal'
loop_
_space_group_symop_operation_xyz
x,y,z
-x+y,-x,1/2-z
-y,x-y,z
x,y,1/2-z
-x+y,-x,z
-y,x-y,1/2-z
x-y,-y,-z
-x,-x+y,-z
y,x,-z
y,x,1/2+z
x-y,-y,1/2+z
-x,-x+y,1/2+z
loop_
_atom_site_type_symbol
_atom_site_label
_atom_site_fract_x
_atom_site_fract_y
_atom_site_fract_z
Si Si1 0.188315 0.853038 0.034331
Si Si2 0.270441 0.379873 0.914945
Si Si3 0.644002 0.485674 0.750000
Si Si4 0.398261 0.987699 0.628979
O O1 0.041553 0.777619 0.075953
O O2 0.327598 0.890804 0.076785
O O3 0.178369 0.741161 0.981598
O O4 0.207803 0.000000 0.000000
O O5 0.415581 0.501620 0.881655
O O6 0.133662 0.357583 0.873816
O O7 0.801719 0.488537 0.750000
O O8 0.634316 0.570649 0.807177
#
# Coordination Sequence:
#
# PCOD8328147 Si02
#       4
#    12  12   6  12
#     4   9  21  39  59  96 135 170 211 270 341 404
#     4  10  22  38  63  97 128 172 220 270 343 390
#     4  10  24  44  68  92 130 176 228 272 334 394
#     4  11  22  43  63  99 132 175 227 278 330 402
#
# _framework density 19.992324
#
# number of rings (size 3 to 8) (size 9 to 14) (size 15 to 20)
#    0.286    1.714    0.000    2.286   12.000    1.143 
#   46.286    1.429    0.000    0.000    0.000    0.000 
#    0.000    0.000    0.000    0.000    0.000    0.000 
#
# Total GULP energy -520502.290024 kJ/mol
# GULP energy per Si atom -12392.911667 kJ/mol
# Density = 1.994682 g / cm^3
# Si number density = 19.992324 Si / 1000 Ang^3
#
#
#
# Elastic Constant Matrix: (Units=GPa)
#
#
# Indices 1 2 3 4 5 6 
#
# 1 82.3799 28.2477 54.1071 0.0000 0.0000 0.0000
# 2 28.2477 82.3799 54.1071 0.0000 0.0000 0.0000
# 3 54.1071 54.1071 132.5904 0.0000 0.0000 0.0000
# 4 0.0000 0.0000 0.0000 34.1465 0.0000 0.0000
# 5 0.0000 0.0000 0.0000 0.0000 34.1465 0.0000
# 6 0.0000 0.0000 0.0000 0.0000 0.0000 27.0661
#
#
#
# Elastic Compliance Matrix: (Units=1/GPa)
#
#
# Indices 1 2 3 4 5 6 
#
# 1 0.016759 -0.001714 -0.006139 0.000000 0.000000 0.000000
# 2 -0.001714 0.016759 -0.006139 0.000000 0.000000 0.000000
# 3 -0.006139 -0.006139 0.012553 0.000000 0.000000 0.000000
# 4 0.000000 0.000000 0.000000 0.029286 0.000000 0.000000
# 5 0.000000 0.000000 0.000000 0.000000 0.029286 0.000000
# 6 0.000000 0.000000 0.000000 0.000000 0.000000 0.036947
#
#
# Mechanical properties :
#
#
# Convention : Reuss Voigt Hill
#
# Bulk Modulus (GPa) = 55.29553 63.36379 59.32966
# Shear Modulus (GPa) = 28.47330 29.79771 29.13550
#
# Velocity S-wave (km/s) = 3.77797 3.86483 3.82165
# Velocity P-wave (km/s) = 6.83733 7.18880 7.01527
#
# Compressibility (1/GPa) = 0.01808465
#
# Stress axis : x y z
#
# Youngs Moduli (GPa) = 59.66917 59.66917 79.66367
#
# Poissons Ratio (x) = 0.10229 0.48909
# Poissons Ratio (y) = 0.10229 0.48909
# Poissons Ratio (z) = 0.36634 0.36634
#
# Static dielectric constant tensor:
#      x y z
#    x 3.671640 0.000000 0.000000 
#    y 0.000000 3.671640 0.000000 
#    z 0.000000 0.000000 3.556180 
# 
# 
# High freq. dielectric constant tensor:
#      x y z
#    x 1.774430 0.000000 0.000000 
#    y 0.000000 1.774430 0.000000 
#    z 0.000000 0.000000 1.767760 
# 
# From -- ./inp_files/4071.got.cif
#   From: 2010.06.25/outbox.cif.g09.slc.cpg/sg190_3_cif.got.tgz:4071.got - 2010.06.28 13:08:06.
