data_PCOD8328733
_publ_section_title
;
Structure prediction by ZEFSAII (Michael W. Deem and Ramdas Pophale) SiO2 
 PCOD8328733
Probable space group: P 6/M M M
;
_chemical_formula_sum "Si O2"
_cell_formula_units_Z 72
_cell_length_a 18.073202
_cell_length_b 18.073202
_cell_length_c 15.088581
_cell_angle_alpha 90.000000
_cell_angle_beta 90.000000
_cell_angle_gamma 120.000000
_cell_volume 4268.243971
_symmetry_space_group_name_H-M "P 6/M M M"
_symmetry_group_IT_number 191
_symmetry_cell_setting 'hexagonal'
loop_
_space_group_symop_operation_xyz
x,y,z
x-y,x,z
-y,x-y,z
-x,-y,z
-x+y,-x,z
y,-x+y,z
x-y,-y,-z
-x,-x+y,-z
y,x,-z
-y,-x,-z
-x+y,y,-z
x,x-y,-z
-x,-y,-z
-x+y,-x,-z
y,-x+y,-z
x,y,-z
x-y,x,-z
-y,x-y,-z
-x+y,y,z
x,x-y,z
-y,-x,z
y,x,z
x-y,-y,z
-x,-x+y,z
loop_
_atom_site_type_symbol
_atom_site_label
_atom_site_fract_x
_atom_site_fract_y
_atom_site_fract_z
Si Si1 0.166357 0.497871 0.853037
Si Si2 0.637963 0.901132 0.500000
Si Si3 0.367438 0.466155 0.336403
Si Si4 0.265682 0.361452 0.000000
O O1 0.265011 0.530022 0.875743
O O2 0.146136 0.573068 0.873419
O O3 0.151041 0.470170 0.750634
O O4 0.105894 0.417252 0.913308
O O5 0.679389 0.839695 0.500000
O O6 0.577880 0.878200 0.414714
O O7 0.713269 0.000000 0.500000
O O8 0.438966 0.561035 0.367515
O O9 0.411674 0.411674 0.311054
O O10 0.279882 0.279882 0.000000
O O11 0.164220 0.328440 0.000000
#
# Coordination Sequence:
#
# PCOD8328733 Si02
#       4
#    24  12  24  12
#     4  10  19  30  45  67  97 130 161 189 217 252
#     4  10  19  31  47  66  89 117 152 192 233 277
#     4   9  17  29  46  67  90 118 152 189 227 267
#     4  10  21  35  51  70  91 117 150 190 233 275
#
# _framework density 16.868763000000001
#
# number of rings (size 3 to 8) (size 9 to 14) (size 15 to 20)
#    0.000    2.333    0.000    3.333    0.000    4.667 
#    0.000    1.667    0.000    5.000    0.000    0.000 
#    0.000    0.000    0.000   10.667    0.000    0.000 
#
# Total GULP energy -892749.935634 kJ/mol
# GULP energy per Si atom -12399.304662 kJ/mol
# Density = 1.683037 g / cm^3
# Si number density = 16.868763 Si / 1000 Ang^3
#
#
#
# Elastic Constant Matrix: (Units=GPa)
#
#
# Indices 1 2 3 4 5 6 
#
# 1 93.9349 52.6787 38.3440 0.0000 0.0000 0.0000
# 2 52.6787 93.9349 38.3440 0.0000 0.0000 0.0000
# 3 38.3440 38.3440 76.1113 0.0000 0.0000 0.0000
# 4 0.0000 0.0000 0.0000 20.7556 0.0000 0.0000
# 5 0.0000 0.0000 0.0000 0.0000 20.7556 0.0000
# 6 0.0000 0.0000 0.0000 0.0000 0.0000 20.6281
#
#
#
# Elastic Compliance Matrix: (Units=1/GPa)
#
#
# Indices 1 2 3 4 5 6 
#
# 1 0.016750 -0.007489 -0.004666 0.000000 0.000000 0.000000
# 2 -0.007489 0.016750 -0.004666 0.000000 0.000000 0.000000
# 3 -0.004666 -0.004666 0.017840 0.000000 0.000000 0.000000
# 4 0.000000 0.000000 0.000000 0.048180 0.000000 0.000000
# 5 0.000000 0.000000 0.000000 0.000000 0.048180 0.000000
# 6 0.000000 0.000000 0.000000 0.000000 0.000000 0.048478
#
#
# Mechanical properties :
#
#
# Convention : Reuss Voigt Hill
#
# Bulk Modulus (GPa) = 56.49948 58.07939 57.28943
# Shear Modulus (GPa) = 21.21192 21.40215 21.30704
#
# Velocity S-wave (km/s) = 3.54993 3.56581 3.55788
# Velocity P-wave (km/s) = 7.09710 7.17344 7.13537
#
# Compressibility (1/GPa) = 0.01769928
#
# Stress axis : x y z
#
# Youngs Moduli (GPa) = 59.70181 59.70181 56.05507
#
# Poissons Ratio (x) = 0.44710 0.26153
# Poissons Ratio (y) = 0.44710 0.26153
# Poissons Ratio (z) = 0.27854 0.27854
#
# Static dielectric constant tensor:
#      x y z
#    x 2.987090 0.000000 0.000000 
#    y 0.000000 2.987090 0.000000 
#    z 0.000000 0.000000 3.293730 
# 
# 
# High freq. dielectric constant tensor:
#      x y z
#    x 1.630560 0.000000 0.000000 
#    y 0.000000 1.630560 0.000000 
#    z 0.000000 0.000000 1.666910 
# 
# From -- ./inp_files/3908.got.cif
#   From: 2010.03.12/outbox.cif.g09.slc.cpg/sg191_2_cif.got.tgz:3908.got - 2010.04.01 12:09:02.
