data_PCOD8328912
_publ_section_title
;
Structure prediction by ZEFSAII (Michael W. Deem and Ramdas Pophale) SiO2 
 PCOD8328912
Probable space group: P 6/M M M
;
_chemical_formula_sum "Si O2"
_cell_formula_units_Z 90
_cell_length_a 26.072920
_cell_length_b 26.072920
_cell_length_c 7.368806
_cell_angle_alpha 90.000000
_cell_angle_beta 90.000000
_cell_angle_gamma 120.000000
_cell_volume 4338.175315
_symmetry_space_group_name_H-M "P 6/M M M"
_symmetry_group_IT_number 191
_symmetry_cell_setting 'hexagonal'
loop_
_space_group_symop_operation_xyz
x,y,z
x-y,x,z
-y,x-y,z
-x,-y,z
-x+y,-x,z
y,-x+y,z
x-y,-y,-z
-x,-x+y,-z
y,x,-z
-y,-x,-z
-x+y,y,-z
x,x-y,-z
-x,-y,-z
-x+y,-x,-z
y,-x+y,-z
x,y,-z
x-y,x,-z
-y,x-y,-z
-x+y,y,z
x,x-y,z
-y,-x,z
y,x,z
x-y,-y,z
-x,-x+y,z
loop_
_atom_site_type_symbol
_atom_site_label
_atom_site_fract_x
_atom_site_fract_y
_atom_site_fract_z
Si Si1 0.933590 0.555048 0.285053
Si Si2 0.576898 0.423103 0.716603
Si Si3 0.331662 0.065888 0.284728
Si Si4 0.743344 0.371672 0.000000
Si Si5 0.067320 0.134640 0.284128
Si Si6 0.134657 0.269314 0.716990
O O1 0.936958 0.554045 0.500000
O O2 0.884422 0.490884 0.215770
O O3 0.912910 0.601349 0.219810
O O4 0.000000 0.575731 0.210093
O O5 0.582719 0.417282 0.500000
O O6 0.608281 0.391720 0.818776
O O7 0.330193 0.067789 0.500000
O O8 0.305748 0.105024 0.202441
O O9 0.289315 0.000000 0.213276
O O10 0.700275 0.400550 0.000000
O O11 0.101002 0.101002 0.210460
O O12 0.067282 0.134563 0.500000
O O13 0.100979 0.201958 0.210039
O O14 0.134116 0.268232 0.500000
#
# Coordination Sequence:
#
# PCOD8328912 Si02
#       6
#    24  12  24   6  12  12
#     4   8  14  26  47  78 111 135 161 210 270 327
#     4  10  19  36  64  88 107 144 188 220 274 342
#     4   8  13  21  32  51  85 121 151 196 257 310
#     4  10  26  48  59  76 114 150 186 246 286 308
#     4   9  15  20  25  33  49  83 138 202 258 302
#     4   9  14  19  27  42  67 105 153 194 240 309
#
# _framework density 20.74605
#
# number of rings (size 3 to 8) (size 9 to 14) (size 15 to 20)
#    0.133    3.200    0.000    2.933    0.000    5.867 
#    2.400    1.333    0.000    0.000    0.000    0.000 
#    0.000    0.000    0.000    0.000    0.000    0.000 
#
# Total GULP energy -1115085.324983 kJ/mol
# GULP energy per Si atom -12389.836944 kJ/mol
# Density = 2.069883 g / cm^3
# Si number density = 20.746050 Si / 1000 Ang^3
#
#
#
# Elastic Constant Matrix: (Units=GPa)
#
#
# Indices 1 2 3 4 5 6 
#
# 1 190.8684 123.7755 16.9857 0.0000 0.0000 0.0000
# 2 123.7755 190.8684 16.9857 0.0000 0.0000 0.0000
# 3 16.9857 16.9857 46.6652 0.0000 0.0000 0.0000
# 4 0.0000 0.0000 0.0000 -6.3085 0.0000 0.0000
# 5 0.0000 0.0000 0.0000 0.0000 -6.3085 0.0000
# 6 0.0000 0.0000 0.0000 0.0000 0.0000 33.5465
#
#
#
# Elastic Compliance Matrix: (Units=1/GPa)
#
#
# Indices 1 2 3 4 5 6 
#
# 1 0.009106 -0.005798 -0.001204 0.000000 0.000000 0.000000
# 2 -0.005798 0.009106 -0.001204 0.000000 0.000000 0.000000
# 3 -0.001204 -0.001204 0.022306 0.000000 0.000000 0.000000
# 4 0.000000 0.000000 0.000000 -0.158516 0.000000 0.000000
# 5 0.000000 0.000000 0.000000 0.000000 -0.158516 0.000000
# 6 0.000000 0.000000 0.000000 0.000000 0.000000 0.029809
#
#
# Mechanical properties :
#
#
# Convention : Reuss Voigt Hill
#
# Bulk Modulus (GPa) = 41.48409 82.65510 62.06959
# Shear Modulus (GPa) = -22.49659 22.22957 -0.13351
#
# Velocity S-wave (km/s) = -3.29656 3.27694 -0.25396
# Velocity P-wave (km/s) = 2.35579 7.36516 5.46788
#
# Compressibility (1/GPa) = 0.02410563
#
# Stress axis : x y z
#
# Youngs Moduli (GPa) = 109.81226 109.81226 44.83130
#
# Poissons Ratio (x) = 0.63672 0.05398
# Poissons Ratio (y) = 0.63672 0.05398
# Poissons Ratio (z) = 0.13223 0.13223
#
# Static dielectric constant tensor:
#      x y z
#    x 4.070120 0.000000 0.000000 
#    y 0.000000 4.070120 0.000000 
#    z 0.000000 0.000000 3.125130 
# 
# 
# High freq. dielectric constant tensor:
#      x y z
#    x 1.808670 0.000000 0.000000 
#    y 0.000000 1.808670 0.000000 
#    z 0.000000 0.000000 1.778320 
# 
# From -- ./inp_files/1333.got.cif
#   From: 2010.03.12/outbox.cif.g09.slc.cpg/sg191_1_cif.got.tgz:1333.got - 2010.04.01 12:09:02.
