data_PCOD8328284
_publ_section_title
;
Structure prediction by ZEFSAII (Michael W. Deem and Ramdas Pophale) SiO2 
 PCOD8328284
Probable space group: P 6/M M M
;
_chemical_formula_sum "Si O2"
_cell_formula_units_Z 168
_cell_length_a 23.075578
_cell_length_b 23.075578
_cell_length_c 25.474223
_cell_angle_alpha 90.000000
_cell_angle_beta 90.000000
_cell_angle_gamma 120.000000
_cell_volume 11747.264684
_symmetry_space_group_name_H-M "P 6/M M M"
_symmetry_group_IT_number 191
_symmetry_cell_setting 'hexagonal'
loop_
_space_group_symop_operation_xyz
x,y,z
x-y,x,z
-y,x-y,z
-x,-y,z
-x+y,-x,z
y,-x+y,z
x-y,-y,-z
-x,-x+y,-z
y,x,-z
-y,-x,-z
-x+y,y,-z
x,x-y,-z
-x,-y,-z
-x+y,-x,-z
y,-x+y,-z
x,y,-z
x-y,x,-z
-y,x-y,-z
-x+y,y,z
x,x-y,z
-y,-x,z
y,x,z
x-y,-y,z
-x,-x+y,z
loop_
_atom_site_type_symbol
_atom_site_label
_atom_site_fract_x
_atom_site_fract_y
_atom_site_fract_z
Si Si1 0.075527 0.279534 0.559261
Si Si2 0.925124 0.720707 0.940000
Si Si3 0.206705 0.283440 0.753959
Si Si4 0.396134 0.921597 0.186091
Si Si5 0.620061 0.743604 0.849629
Si Si6 0.720437 0.078673 0.653920
Si Si7 0.477125 0.079594 0.306048
O O1 0.079105 0.305987 0.500000
O O2 0.124123 0.248245 0.565597
O O3 0.100765 0.342832 0.598045
O O4 0.000000 0.221498 0.573300
O O5 0.873945 0.747890 0.927609
O O6 0.907704 0.656955 0.904351
O O7 0.000000 0.780953 0.928109
O O8 0.918267 0.696434 0.000000
O O9 0.126941 0.253881 0.762451
O O10 0.222674 0.222674 0.749826
O O11 0.248625 0.330548 0.802104
O O12 0.226854 0.327760 0.701188
O O13 0.452150 0.904300 0.165305
O O14 0.328867 0.882385 0.151886
O O15 0.378038 0.897925 0.246085
O O16 0.423119 0.000000 0.181101
O O17 0.597348 0.798674 0.845294
O O18 0.671350 0.109948 0.660346
O O19 0.674247 0.000000 0.656376
O O20 0.553098 0.106195 0.327154
O O21 0.437582 0.000000 0.308594
#
# Coordination Sequence:
#
# PCOD8328284 Si02
#       7
#    24  24  24  24  24  24  24
#     4   9  17  28  41  56  75 103 138 174 213 256
#     4   9  17  28  42  59  80 109 142 175 212 253
#     4  10  18  26  38  57  80 104 130 166 210 250
#     4   9  15  24  40  60  82 106 130 157 190 230
#     4  10  18  27  41  61  84 106 132 166 203 246
#     4   9  15  24  38  55  77 100 125 159 195 236
#     4   8  13  21  35  55  78 103 126 149 181 222
#
# _framework density 14.301202
#
# number of rings (size 3 to 8) (size 9 to 14) (size 15 to 20)
#    0.000    2.857    1.429    2.571    0.000    0.000 
#    0.000    0.000    0.000    1.571    0.000    7.000 
#    0.000    6.857    0.000    0.857    0.000    4.571 
#
# Total GULP energy -2081847.372670 kJ/mol
# GULP energy per Si atom -12391.948647 kJ/mol
# Density = 1.426865 g / cm^3
# Si number density = 14.301202 Si / 1000 Ang^3
#
#
#
# Elastic Constant Matrix: (Units=GPa)
#
#
# Indices 1 2 3 4 5 6 
#
# 1 87.7604 48.6561 36.2734 0.0000 0.0000 0.0000
# 2 48.6561 87.7604 36.2734 0.0000 0.0000 0.0000
# 3 36.2734 36.2734 72.2120 0.0000 0.0000 0.0000
# 4 0.0000 0.0000 0.0000 16.9273 0.0000 0.0000
# 5 0.0000 0.0000 0.0000 0.0000 16.9273 0.0000
# 6 0.0000 0.0000 0.0000 0.0000 0.0000 19.5521
#
#
#
# Elastic Compliance Matrix: (Units=1/GPa)
#
#
# Indices 1 2 3 4 5 6 
#
# 1 0.017788 -0.007785 -0.005024 0.000000 0.000000 0.000000
# 2 -0.007785 0.017788 -0.005024 0.000000 0.000000 0.000000
# 3 -0.005024 -0.005024 0.018896 0.000000 0.000000 0.000000
# 4 0.000000 0.000000 0.000000 0.059076 0.000000 0.000000
# 5 0.000000 0.000000 0.000000 0.000000 0.059076 0.000000
# 6 0.000000 0.000000 0.000000 0.000000 0.000000 0.051145
#
#
# Mechanical properties :
#
#
# Convention : Reuss Voigt Hill
#
# Bulk Modulus (GPa) = 53.18275 54.45988 53.82131
# Shear Modulus (GPa) = 18.81789 19.11665 18.96727
#
# Velocity S-wave (km/s) = 3.63137 3.66008 3.64575
# Velocity P-wave (km/s) = 7.40613 7.48498 7.44566
#
# Compressibility (1/GPa) = 0.01880309
#
# Stress axis : x y z
#
# Youngs Moduli (GPa) = 56.21899 56.21899 52.92164
#
# Poissons Ratio (x) = 0.43767 0.26590
# Poissons Ratio (y) = 0.43767 0.26590
# Poissons Ratio (z) = 0.28247 0.28247
#
# Static dielectric constant tensor:
#      x y z
#    x 2.790450 0.000000 0.000000 
#    y 0.000000 2.790450 0.000000 
#    z 0.000000 0.000000 2.870780 
# 
# 
# High freq. dielectric constant tensor:
#      x y z
#    x 1.525090 0.000000 0.000000 
#    y 0.000000 1.525090 0.000000 
#    z 0.000000 0.000000 1.539550 
# 
# From -- ./inp_files/9159.got.cif
#   From: 2010.03.12/outbox.cif.g09.slc.cpg/sg191_5_cif.got.tgz:9159.got - 2010.04.01 12:09:02.
