data_PCOD8328814
_publ_section_title
;
Structure prediction by ZEFSAII (Michael W. Deem and Ramdas Pophale) SiO2 
 PCOD8328814
Probable space group: P 6/M M M
;
_chemical_formula_sum "Si O2"
_cell_formula_units_Z 72
_cell_length_a 21.975322
_cell_length_b 21.975322
_cell_length_c 10.268016
_cell_angle_alpha 90.000000
_cell_angle_beta 90.000000
_cell_angle_gamma 120.000000
_cell_volume 4294.253351
_symmetry_space_group_name_H-M "P 6/M M M"
_symmetry_group_IT_number 191
_symmetry_cell_setting 'hexagonal'
loop_
_space_group_symop_operation_xyz
x,y,z
x-y,x,z
-y,x-y,z
-x,-y,z
-x+y,-x,z
y,-x+y,z
x-y,-y,-z
-x,-x+y,-z
y,x,-z
-y,-x,-z
-x+y,y,-z
x,x-y,-z
-x,-y,-z
-x+y,-x,-z
y,-x+y,-z
x,y,-z
x-y,x,-z
-y,x-y,-z
-x+y,y,z
x,x-y,z
-y,-x,z
y,x,z
x-y,-y,z
-x,-x+y,z
loop_
_atom_site_type_symbol
_atom_site_label
_atom_site_fract_x
_atom_site_fract_y
_atom_site_fract_z
Si Si1 0.840013 0.680026 0.156542
Si Si2 0.525277 0.608738 0.000000
Si Si3 0.083443 0.683369 0.245983
Si Si4 0.078651 0.921350 0.846001
Si Si5 0.611132 0.527674 0.500000
O O1 0.765992 0.648170 0.228606
O O2 0.880794 0.761588 0.192397
O O3 0.833669 0.667338 0.000000
O O4 0.545675 0.656323 0.872823
O O5 0.563665 0.563665 0.000000
O O6 0.441741 0.558260 0.000000
O O7 0.109956 0.662096 0.375079
O O8 0.000000 0.650295 0.245778
O O9 0.000000 0.880125 0.787206
O O10 0.074656 0.925345 0.000000
O O11 0.565294 0.565294 0.500000
O O12 0.556805 0.443196 0.500000
#
# Coordination Sequence:
#
# PCOD8328814 Si02
#       5
#    12  12  24  12  12
#     4  11  20  30  45  70 107 142 176 218 276 326
#     4   9  16  27  46  70  95 122 155 194 242 302
#     4  10  19  31  48  71 103 135 167 207 254 311
#     4   9  17  28  44  65  95 140 194 240 276 316
#     4   9  18  33  52  74 101 128 157 196 248 304
#
# _framework density 16.766594000000001
#
# number of rings (size 3 to 8) (size 9 to 14) (size 15 to 20)
#    0.000    2.333    1.667    2.167    0.000    6.667 
#    0.000    0.000    0.000    0.000    0.000    0.000 
#   33.333    0.000    0.000   12.667    0.000    4.000 
#
# Total GULP energy -892579.045483 kJ/mol
# GULP energy per Si atom -12396.931187 kJ/mol
# Density = 1.672843 g / cm^3
# Si number density = 16.766594 Si / 1000 Ang^3
#
#
#
# Elastic Constant Matrix: (Units=GPa)
#
#
# Indices 1 2 3 4 5 6 
#
# 1 113.3626 63.8652 50.9820 0.0000 0.0000 0.0000
# 2 63.8652 113.3626 50.9820 0.0000 0.0000 0.0000
# 3 50.9820 50.9820 126.3144 0.0000 0.0000 0.0000
# 4 0.0000 0.0000 0.0000 13.9796 0.0000 0.0000
# 5 0.0000 0.0000 0.0000 0.0000 13.9796 0.0000
# 6 0.0000 0.0000 0.0000 0.0000 0.0000 24.7487
#
#
#
# Elastic Compliance Matrix: (Units=1/GPa)
#
#
# Indices 1 2 3 4 5 6 
#
# 1 0.013776 -0.006427 -0.002966 0.000000 0.000000 0.000000
# 2 -0.006427 0.013776 -0.002966 0.000000 0.000000 0.000000
# 3 -0.002966 -0.002966 0.010311 0.000000 0.000000 0.000000
# 4 0.000000 0.000000 0.000000 0.071533 0.000000 0.000000
# 5 0.000000 0.000000 0.000000 0.000000 0.071533 0.000000
# 6 0.000000 0.000000 0.000000 0.000000 0.000000 0.040406
#
#
# Mechanical properties :
#
#
# Convention : Reuss Voigt Hill
#
# Bulk Modulus (GPa) = 76.07757 76.07757 76.07757
# Shear Modulus (GPa) = 19.96525 23.02227 21.49376
#
# Velocity S-wave (km/s) = 3.45450 3.70956 3.58430
# Velocity P-wave (km/s) = 7.83482 7.98879 7.91218
#
# Compressibility (1/GPa) = 0.01314448
#
# Stress axis : x y z
#
# Youngs Moduli (GPa) = 72.58995 72.58995 96.98304
#
# Poissons Ratio (x) = 0.46654 0.28766
# Poissons Ratio (y) = 0.46654 0.28766
# Poissons Ratio (z) = 0.21531 0.21531
#
# Static dielectric constant tensor:
#      x y z
#    x 3.088120 0.000000 0.000000 
#    y 0.000000 3.088120 0.000000 
#    z 0.000000 0.000000 3.152610 
# 
# 
# High freq. dielectric constant tensor:
#      x y z
#    x 1.633210 0.000000 0.000000 
#    y 0.000000 1.633210 0.000000 
#    z 0.000000 0.000000 1.635200 
# 
# From -- ./inp_files/999.got.cif
#   From: 2010.03.12/outbox.cif.g09.slc.cpg/sg191_1_cif.got.tgz:999.got - 2010.04.01 12:09:02.
