data_PCOD8328433
_publ_section_title
;
Structure prediction by ZEFSAII (Michael W. Deem and Ramdas Pophale) SiO2 
 PCOD8328433
Probable space group: P 6/M M M
;
_chemical_formula_sum "Si O2"
_cell_formula_units_Z 108
_cell_length_a 30.333930
_cell_length_b 30.333930
_cell_length_c 9.043442
_cell_angle_alpha 90.000000
_cell_angle_beta 90.000000
_cell_angle_gamma 120.000000
_cell_volume 7206.456173
_symmetry_space_group_name_H-M "P 6/M M M"
_symmetry_group_IT_number 191
_symmetry_cell_setting 'hexagonal'
loop_
_space_group_symop_operation_xyz
x,y,z
x-y,x,z
-y,x-y,z
-x,-y,z
-x+y,-x,z
y,-x+y,z
x-y,-y,-z
-x,-x+y,-z
y,x,-z
-y,-x,-z
-x+y,y,-z
x,x-y,-z
-x,-y,-z
-x+y,-x,-z
y,-x+y,-z
x,y,-z
x-y,x,-z
-y,x-y,-z
-x+y,y,z
x,x-y,z
-y,-x,z
y,x,z
x-y,-y,z
-x,-x+y,z
loop_
_atom_site_type_symbol
_atom_site_label
_atom_site_fract_x
_atom_site_fract_y
_atom_site_fract_z
Si Si1 0.469807 0.939614 0.166284
Si Si2 0.000000 0.273596 0.163302
Si Si3 0.833093 0.166908 0.174859
Si Si4 0.000000 0.814259 0.326852
Si Si5 0.888581 0.111420 0.676826
Si Si6 0.719070 0.619995 0.168261
Si Si7 0.058862 0.617280 0.673784
O O1 0.416784 0.920340 0.250865
O O2 0.500000 0.000000 0.165151
O O3 0.458834 0.917667 0.000000
O O4 0.047711 0.327881 0.185358
O O5 0.000000 0.236915 0.288008
O O6 0.000000 0.251436 0.000000
O O7 0.860294 0.139707 0.255714
O O8 0.856924 0.225672 0.221496
O O9 0.839028 0.160973 0.000000
O O10 0.052627 0.862101 0.266452
O O11 0.000000 0.819315 0.500000
O O12 0.885440 0.114561 0.500000
O O13 0.674830 0.579073 0.272299
O O14 0.707744 0.599835 0.000000
O O15 0.064233 0.614387 0.500000
O O16 0.000000 0.597197 0.718790
#
# Coordination Sequence:
#
# PCOD8328433 Si02
#       7
#    12  12  12  12  12  24  24
#     4   9  17  29  45  63  85 113 146 183 218 249
#     4  10  18  28  46  65  84 111 145 182 219 265
#     4  10  20  32  46  64  87 115 148 185 222 266
#     4  10  20  32  46  63  83 107 136 176 226 279
#     4  10  20  32  46  63  84 108 136 175 225 280
#     4  10  19  30  43  62  87 116 148 182 221 264
#     4  10  19  29  43  63  87 115 148 184 218 253
#
# _framework density 14.986561999999999
#
# number of rings (size 3 to 8) (size 9 to 14) (size 15 to 20)
#    0.000    2.111    3.333    1.000    0.000    4.000 
#    0.000    0.000    0.000    0.222    0.000    1.556 
#    0.000    0.000    0.000    2.667    0.000   13.111 
#
# Total GULP energy -1338750.680727 kJ/mol
# GULP energy per Si atom -12395.839636 kJ/mol
# Density = 1.495245 g / cm^3
# Si number density = 14.986562 Si / 1000 Ang^3
#
#
#
# Elastic Constant Matrix: (Units=GPa)
#
#
# Indices 1 2 3 4 5 6 
#
# 1 106.4715 44.8317 37.4620 0.0000 0.0000 0.0000
# 2 44.8317 106.4715 37.4620 0.0000 0.0000 0.0000
# 3 37.4620 37.4620 52.5645 0.0000 0.0000 0.0000
# 4 0.0000 0.0000 0.0000 21.2162 0.0000 0.0000
# 5 0.0000 0.0000 0.0000 0.0000 21.2162 0.0000
# 6 0.0000 0.0000 0.0000 0.0000 0.0000 30.8199
#
#
#
# Elastic Compliance Matrix: (Units=1/GPa)
#
#
# Indices 1 2 3 4 5 6 
#
# 1 0.013219 -0.003005 -0.007279 0.000000 0.000000 0.000000
# 2 -0.003005 0.013219 -0.007279 0.000000 0.000000 0.000000
# 3 -0.007279 -0.007279 0.029400 0.000000 0.000000 0.000000
# 4 0.000000 0.000000 0.000000 0.047134 0.000000 0.000000
# 5 0.000000 0.000000 0.000000 0.000000 0.047134 0.000000
# 6 0.000000 0.000000 0.000000 0.000000 0.000000 0.032447
#
#
# Mechanical properties :
#
#
# Convention : Reuss Voigt Hill
#
# Bulk Modulus (GPa) = 48.28457 56.11320 52.19889
# Shear Modulus (GPa) = 22.26364 24.36724 23.31544
#
# Velocity S-wave (km/s) = 3.85849 4.03667 3.94859
# Velocity P-wave (km/s) = 7.22075 7.69739 7.46288
#
# Compressibility (1/GPa) = 0.02071055
#
# Stress axis : x y z
#
# Youngs Moduli (GPa) = 75.65099 75.65099 34.01361
#
# Poissons Ratio (x) = 0.22731 0.24760
# Poissons Ratio (y) = 0.22731 0.24760
# Poissons Ratio (z) = 0.55069 0.55069
#
# Static dielectric constant tensor:
#      x y z
#    x 2.884530 0.000000 0.000000 
#    y 0.000000 2.884530 0.000000 
#    z 0.000000 0.000000 2.944090 
# 
# 
# High freq. dielectric constant tensor:
#      x y z
#    x 1.552890 0.000000 0.000000 
#    y 0.000000 1.552890 0.000000 
#    z 0.000000 0.000000 1.577400 
# 
# From -- ./inp_files/1799.got.cif
#   From: 2010.03.12/outbox.cif.g09.slc.cpg/sg191_1_cif.got.tgz:1799.got - 2010.04.01 12:09:02.
