data_PCOD8328140
_publ_section_title
;
Structure prediction by ZEFSAII (Michael W. Deem and Ramdas Pophale) SiO2 
 PCOD8328140
Probable space group: P -6 2 C
;
_chemical_formula_sum "Si O2"
_cell_formula_units_Z 42
_cell_length_a 8.488695
_cell_length_b 8.488695
_cell_length_c 32.334174
_cell_angle_alpha 90.000000
_cell_angle_beta 90.000000
_cell_angle_gamma 120.000000
_cell_volume 2017.782086
_symmetry_space_group_name_H-M "P -6 2 C"
_symmetry_group_IT_number 190
_symmetry_cell_setting 'hexagonal'
loop_
_space_group_symop_operation_xyz
x,y,z
-x+y,-x,1/2-z
-y,x-y,z
x,y,1/2-z
-x+y,-x,z
-y,x-y,1/2-z
x-y,-y,-z
-x,-x+y,-z
y,x,-z
y,x,1/2+z
x-y,-y,1/2+z
-x,-x+y,1/2+z
loop_
_atom_site_type_symbol
_atom_site_label
_atom_site_fract_x
_atom_site_fract_y
_atom_site_fract_z
Si Si1 0.338760 0.336748 0.451335
Si Si2 0.966540 0.183890 0.750000
Si Si3 0.331631 0.006200 0.917563
Si Si4 0.854666 0.305931 0.829884
O O1 0.362577 0.362577 0.500000
O O2 0.130208 0.265057 0.440335
O O3 0.463100 0.531916 0.430508
O O4 0.398849 0.198929 0.432642
O O5 0.952981 0.289273 0.789523
O O6 0.162150 0.192040 0.750000
O O7 0.325817 0.032005 0.868406
O O8 0.856540 0.498881 0.830519
#
# Coordination Sequence:
#
# PCOD8328140 Si02
#       4
#    12   6  12  12
#     4  12  24  42  64  95 136 179 235 293 351 409
#     4  10  24  36  68 106 126 166 218 278 322 410
#     4  12  25  43  67  99 133 186 233 289 350 416
#     4  10  21  44  68  93 132 181 219 265 348 406
#
# _framework density 20.814934999999998
#
# number of rings (size 3 to 8) (size 9 to 14) (size 15 to 20)
#    0.857    0.000    2.857    5.143    4.000    0.000 
#    0.000    0.000    0.000    4.571    0.000    0.000 
#    0.000    0.000    0.000    0.000    0.000    0.000 
#
# Total GULP energy -520862.855107 kJ/mol
# GULP energy per Si atom -12401.496550 kJ/mol
# Density = 2.076756 g / cm^3
# Si number density = 20.814935 Si / 1000 Ang^3
#
#
#
# Elastic Constant Matrix: (Units=GPa)
#
#
# Indices 1 2 3 4 5 6 
#
# 1 76.9137 14.6549 44.7747 0.0000 0.0000 0.0000
# 2 14.6549 76.9137 44.7747 0.0000 0.0000 0.0000
# 3 44.7747 44.7747 198.2055 0.0000 0.0000 0.0000
# 4 0.0000 0.0000 0.0000 -33.7507 0.0000 0.0000
# 5 0.0000 0.0000 0.0000 0.0000 -33.7507 0.0000
# 6 0.0000 0.0000 0.0000 0.0000 0.0000 31.1294
#
#
#
# Elastic Compliance Matrix: (Units=1/GPa)
#
#
# Indices 1 2 3 4 5 6 
#
# 1 0.015040 -0.001022 -0.003167 0.000000 0.000000 0.000000
# 2 -0.001022 0.015040 -0.003167 0.000000 0.000000 0.000000
# 3 -0.003167 -0.003167 0.006476 0.000000 0.000000 0.000000
# 4 0.000000 0.000000 0.000000 -0.029629 0.000000 0.000000
# 5 0.000000 0.000000 0.000000 0.000000 -0.029629 0.000000
# 6 0.000000 0.000000 0.000000 0.000000 0.000000 0.032124
#
#
# Mechanical properties :
#
#
# Convention : Reuss Voigt Hill
#
# Bulk Modulus (GPa) = 45.77773 62.27128 54.02450
# Shear Modulus (GPa) = 159.16675 9.24751 84.20713
#
# Velocity S-wave (km/s) = 8.75406 2.11007 6.36734
# Velocity P-wave (km/s) = 11.14534 5.99317 8.94809
#
# Compressibility (1/GPa) = 0.02184468
#
# Stress axis : x y z
#
# Youngs Moduli (GPa) = 66.49052 66.49052 154.41815
#
# Poissons Ratio (x) = 0.06797 0.48897
# Poissons Ratio (y) = 0.06797 0.48897
# Poissons Ratio (z) = 0.21055 0.21055
#
# Static dielectric constant tensor:
#      x y z
#    x 3.531460 0.000000 0.000000 
#    y 0.000000 3.531460 0.000000 
#    z 0.000000 0.000000 3.749180 
# 
# 
# High freq. dielectric constant tensor:
#      x y z
#    x 1.805250 0.000000 0.000000 
#    y 0.000000 1.805250 0.000000 
#    z 0.000000 0.000000 1.828920 
# 
# From -- ./inp_files/5068.got.cif
#   From: 2010.06.25/outbox.cif.g09.slc.cpg/sg190_3_cif.got.tgz:5068.got - 2010.06.28 13:08:06.
