data_PCOD8328789
_publ_section_title
;
Structure prediction by ZEFSAII (Michael W. Deem and Ramdas Pophale) SiO2 
 PCOD8328789
Probable space group: P 6/M M M
;
_chemical_formula_sum "Si O2"
_cell_formula_units_Z 132
_cell_length_a 17.868948
_cell_length_b 17.868948
_cell_length_c 29.528185
_cell_angle_alpha 90.000000
_cell_angle_beta 90.000000
_cell_angle_gamma 120.000000
_cell_volume 8165.172324
_symmetry_space_group_name_H-M "P 6/M M M"
_symmetry_group_IT_number 191
_symmetry_cell_setting 'hexagonal'
loop_
_space_group_symop_operation_xyz
x,y,z
x-y,x,z
-y,x-y,z
-x,-y,z
-x+y,-x,z
y,-x+y,z
x-y,-y,-z
-x,-x+y,-z
y,x,-z
-y,-x,-z
-x+y,y,-z
x,x-y,-z
-x,-y,-z
-x+y,-x,-z
y,-x+y,-z
x,y,-z
x-y,x,-z
-y,x-y,-z
-x+y,y,z
x,x-y,z
-y,-x,z
y,x,z
x-y,-y,z
-x,-x+y,z
loop_
_atom_site_type_symbol
_atom_site_label
_atom_site_fract_x
_atom_site_fract_y
_atom_site_fract_z
Si Si1 0.411296 0.411296 0.949330
Si Si2 0.667785 0.507124 0.371416
Si Si3 0.640298 0.903689 0.551504
Si Si4 0.668060 0.509588 0.112092
Si Si5 0.736744 0.640721 0.294402
Si Si6 0.902164 0.637272 0.808918
O O1 0.500000 0.500000 0.950716
O O2 0.427440 0.340863 0.923943
O O3 0.377576 0.377576 0.000000
O O4 0.738321 0.476642 0.371414
O O5 0.573980 0.426021 0.371214
O O6 0.675919 0.561086 0.416316
O O7 0.676325 0.561677 0.326719
O O8 0.606413 0.892676 0.500000
O O9 0.674601 0.837301 0.562447
O O10 0.719625 0.000000 0.560155
O O11 0.750967 0.501933 0.098183
O O12 0.585115 0.414886 0.112941
O O13 0.678502 0.551733 0.161465
O O14 0.837446 0.674892 0.304902
O O15 0.720348 0.720348 0.303348
O O16 0.712500 0.606996 0.243015
O O17 0.837515 0.675029 0.818370
O O18 0.000000 0.711661 0.820620
#
# Coordination Sequence:
#
# PCOD8328789 Si02
#       6
#    12  24  24  24  24  24
#     4   9  18  32  48  66  90 120 153 191 232 270
#     4  10  20  33  47  65  90 120 153 189 229 271
#     4   9  18  32  49  68  90 117 149 185 226 271
#     4  10  19  31  47  68  94 124 157 193 233 277
#     4   9  18  31  47  68  93 121 152 186 227 273
#     4   9  17  30  48  69  93 122 155 190 229 274
#
# _framework density 16.166222999999999
#
# number of rings (size 3 to 8) (size 9 to 14) (size 15 to 20)
#    0.000    2.636    0.909    0.909    0.000    2.909 
#    0.000    2.727    0.000    4.909    0.000    3.818 
#    0.000    4.364    0.000    0.364    0.000    8.273 
#
# Total GULP energy -1636417.034494 kJ/mol
# GULP energy per Si atom -12397.098746 kJ/mol
# Density = 1.612943 g / cm^3
# Si number density = 16.166223 Si / 1000 Ang^3
#
#
#
# Elastic Constant Matrix: (Units=GPa)
#
#
# Indices 1 2 3 4 5 6 
#
# 1 112.7467 80.0412 57.6800 0.0000 0.0000 0.0000
# 2 80.0412 112.7467 57.6800 0.0000 0.0000 0.0000
# 3 57.6800 57.6800 99.5432 0.0000 0.0000 0.0000
# 4 0.0000 0.0000 0.0000 21.2065 0.0000 0.0000
# 5 0.0000 0.0000 0.0000 0.0000 21.2065 0.0000
# 6 0.0000 0.0000 0.0000 0.0000 0.0000 16.3527
#
#
#
# Elastic Compliance Matrix: (Units=1/GPa)
#
#
# Indices 1 2 3 4 5 6 
#
# 1 0.019258 -0.011318 -0.004601 0.000000 0.000000 0.000000
# 2 -0.011318 0.019258 -0.004601 0.000000 0.000000 0.000000
# 3 -0.004601 -0.004601 0.015378 0.000000 0.000000 0.000000
# 4 0.000000 0.000000 0.000000 0.047155 0.000000 0.000000
# 5 0.000000 0.000000 0.000000 0.000000 0.047155 0.000000
# 6 0.000000 0.000000 0.000000 0.000000 0.000000 0.061152
#
#
# Mechanical properties :
#
#
# Convention : Reuss Voigt Hill
#
# Bulk Modulus (GPa) = 77.79355 79.53769 78.66562
# Shear Modulus (GPa) = 19.63243 20.39550 20.01397
#
# Velocity S-wave (km/s) = 3.48862 3.55577 3.52236
# Velocity P-wave (km/s) = 8.02825 8.13417 8.08138
#
# Compressibility (1/GPa) = 0.01285454
#
# Stress axis : x y z
#
# Youngs Moduli (GPa) = 51.92638 51.92638 65.02876
#
# Poissons Ratio (x) = 0.58770 0.29919
# Poissons Ratio (y) = 0.58770 0.29919
# Poissons Ratio (z) = 0.23891 0.23891
#
# Static dielectric constant tensor:
#      x y z
#    x 3.046820 0.000000 0.000000 
#    y 0.000000 3.046820 0.000000 
#    z 0.000000 0.000000 3.281030 
# 
# 
# High freq. dielectric constant tensor:
#      x y z
#    x 1.610660 0.000000 0.000000 
#    y 0.000000 1.610660 0.000000 
#    z 0.000000 0.000000 1.633600 
# 
# From -- ./inp_files/9754.got.cif
#   From: 2010.03.12/outbox.cif.g09.slc.cpg/sg191_5_cif.got.tgz:9754.got - 2010.04.01 12:09:02.
