data_PCOD8328099
_publ_section_title
;
Structure prediction by ZEFSAII (Michael W. Deem and Ramdas Pophale) SiO2 
 PCOD8328099
Probable space group: P -6 2 C
;
_chemical_formula_sum "Si O2"
_cell_formula_units_Z 30
_cell_length_a 11.637785
_cell_length_b 11.637785
_cell_length_c 13.770759
_cell_angle_alpha 90.000000
_cell_angle_beta 90.000000
_cell_angle_gamma 120.000000
_cell_volume 1615.210647
_symmetry_space_group_name_H-M "P -6 2 C"
_symmetry_group_IT_number 190
_symmetry_cell_setting 'hexagonal'
loop_
_space_group_symop_operation_xyz
x,y,z
-x+y,-x,1/2-z
-y,x-y,z
x,y,1/2-z
-x+y,-x,z
-y,x-y,1/2-z
x-y,-y,-z
-x,-x+y,-z
y,x,-z
y,x,1/2+z
x-y,-y,1/2+z
-x,-x+y,1/2+z
loop_
_atom_site_type_symbol
_atom_site_label
_atom_site_fract_x
_atom_site_fract_y
_atom_site_fract_z
Si Si1 0.823777 0.775885 0.750000
Si Si2 0.333333 0.666667 0.385189
Si Si3 0.000000 0.000000 0.385430
Si Si4 0.666668 0.333334 0.114438
Si Si5 0.333448 0.458295 0.250000
Si Si6 0.490435 0.109325 0.250000
O O1 0.871088 0.867772 0.654135
O O2 0.893122 0.686713 0.750000
O O3 0.666656 0.683973 0.750000
O O4 0.333334 0.666667 0.499895
O O5 0.333574 0.536509 0.346643
O O6 0.000000 0.000000 0.500000
O O7 0.537672 0.201158 0.154075
O O8 0.460362 0.440098 0.250000
#
# Coordination Sequence:
#
# PCOD8328099 Si02
#       6
#     6   4   4   4   6   6
#     4  10  21  42  65  79 126 160 191 243 298 349
#     4  10  20  40  55  98 112 154 203 235 292 350
#     4  10  26  40  61  92 115 157 209 241 286 353
#     4  10  26  34  61  92 121 145 200 244 292 350
#     4  10  20  40  62  84 124 158 192 240 298 352
#     4  10  21  42  59  85 124 158 187 245 302 347
#
# _framework density 18.573429000000001
#
# number of rings (size 3 to 8) (size 9 to 14) (size 15 to 20)
#    0.000    2.400    4.000    0.000   11.200    4.800 
#    0.000    0.000    0.000    0.000    0.000    0.000 
#    0.000    0.000    0.000    0.000    0.000    0.000 
#
# Total GULP energy -372010.825652 kJ/mol
# GULP energy per Si atom -12400.360855 kJ/mol
# Density = 1.853115 g / cm^3
# Si number density = 18.573429 Si / 1000 Ang^3
#
#
#
# Elastic Constant Matrix: (Units=GPa)
#
#
# Indices 1 2 3 4 5 6 
#
# 1 105.2357 36.0378 37.2688 -0.0001 0.0000 -0.0001
# 2 36.0378 105.2350 37.2688 0.0000 0.0000 -0.0002
# 3 37.2688 37.2688 193.3104 0.0002 0.0000 -0.0001
# 4 -0.0001 0.0000 0.0002 8.6754 -0.0001 0.0000
# 5 0.0000 0.0000 0.0000 -0.0001 8.6756 0.0000
# 6 -0.0001 -0.0002 -0.0001 0.0000 0.0000 34.5986
#
#
#
# Elastic Compliance Matrix: (Units=1/GPa)
#
#
# Indices 1 2 3 4 5 6 
#
# 1 0.011166 -0.003286 -0.001519 0.000000 0.000000 0.000000
# 2 -0.003286 0.011166 -0.001519 0.000000 0.000000 0.000000
# 3 -0.001519 -0.001519 0.005759 0.000000 0.000000 0.000000
# 4 0.000000 0.000000 0.000000 0.115268 0.000001 0.000000
# 5 0.000000 0.000000 0.000000 0.000001 0.115266 0.000000
# 6 0.000000 0.000000 0.000000 0.000000 0.000000 0.028903
#
#
# Mechanical properties :
#
#
# Convention : Reuss Voigt Hill
#
# Bulk Modulus (GPa) = 64.75826 69.43688 67.09757
# Shear Modulus (GPa) = 16.37614 29.93698 23.15656
#
# Velocity S-wave (km/s) = 2.97256 4.01910 3.53478
# Velocity P-wave (km/s) = 6.83544 7.68139 7.27073
#
# Compressibility (1/GPa) = 0.01544204
#
# Stress axis : x y z
#
# Youngs Moduli (GPa) = 89.56025 89.55963 173.64686
#
# Poissons Ratio (x) = 0.29426 0.26381
# Poissons Ratio (y) = 0.29426 0.26381
# Poissons Ratio (z) = 0.13606 0.13606
#
# Static dielectric constant tensor:
#      x y z
#    x 3.484690 0.000000 0.000000 
#    y 0.000000 3.484700 0.000000 
#    z 0.000000 0.000000 3.139670 
# 
# 
# High freq. dielectric constant tensor:
#      x y z
#    x 1.732670 0.000000 0.000000 
#    y 0.000000 1.732670 0.000000 
#    z 0.000000 0.000000 1.698180 
# 
# From -- ./inp_files/2335.got.cif
#   From: 2010.06.25/outbox.cif.g09.slc.cpg/sg190_2_cif.got.tgz:2335.got - 2010.06.28 13:08:06.
