data_PCOD8328126
_publ_section_title
;
Structure prediction by ZEFSAII (Michael W. Deem and Ramdas Pophale) SiO2 
 PCOD8328126
Probable space group: P -6 2 C
;
_chemical_formula_sum "Si O2"
_cell_formula_units_Z 52
_cell_length_a 15.202758
_cell_length_b 15.202758
_cell_length_c 13.388722
_cell_angle_alpha 90.000000
_cell_angle_beta 90.000000
_cell_angle_gamma 120.000000
_cell_volume 2679.874897
_symmetry_space_group_name_H-M "P -6 2 C"
_symmetry_group_IT_number 190
_symmetry_cell_setting 'hexagonal'
loop_
_space_group_symop_operation_xyz
x,y,z
-x+y,-x,1/2-z
-y,x-y,z
x,y,1/2-z
-x+y,-x,z
-y,x-y,1/2-z
x-y,-y,-z
-x,-x+y,-z
y,x,-z
y,x,1/2+z
x-y,-y,1/2+z
-x,-x+y,1/2+z
loop_
_atom_site_type_symbol
_atom_site_label
_atom_site_fract_x
_atom_site_fract_y
_atom_site_fract_z
Si Si1 0.186744 0.686134 0.485104
Si Si2 0.164207 0.278401 0.494552
Si Si3 0.728036 0.738155 0.362700
Si Si4 0.666668 0.333334 0.371011
Si Si5 0.365979 0.865239 0.366783
O O1 0.114933 0.731888 0.512958
O O2 0.235455 0.670605 0.586708
O O3 0.274107 0.760899 0.409271
O O4 0.115070 0.580741 0.427326
O O5 0.185040 0.185040 0.500000
O O6 0.113118 0.268839 0.386458
O O7 0.083906 0.275094 0.573907
O O8 0.759932 0.738694 0.250000
O O9 0.611829 0.649453 0.384154
O O10 0.666667 0.333334 0.250000
O O11 0.377608 0.850666 0.250000
#
# Coordination Sequence:
#
# PCOD8328126 Si02
#       5
#    12  12  12   4  12
#     4   9  18  32  53  85 112 154 192 233 280 339
#     4  10  21  39  58  82 116 150 191 243 291 340
#     4   9  20  39  61  83 112 151 190 239 296 344
#     4   9  18  33  49  74 118 162 198 228 274 341
#     4   9  16  31  57  87 116 145 186 237 289 339
#
# _framework density 19.403891000000002
#
# number of rings (size 3 to 8) (size 9 to 14) (size 15 to 20)
#    0.000    2.769    0.000    1.154    0.000    2.769 
#   18.000    0.000    0.000    0.000    0.000    0.000 
#    0.000    0.000    0.000    0.000    0.000    0.000 
#
# Total GULP energy -644448.270649 kJ/mol
# GULP energy per Si atom -12393.235974 kJ/mol
# Density = 1.935973 g / cm^3
# Si number density = 19.403891 Si / 1000 Ang^3
#
#
#
# Elastic Constant Matrix: (Units=GPa)
#
#
# Indices 1 2 3 4 5 6 
#
# 1 100.9432 53.4072 48.3754 0.0000 -0.0001 0.0001
# 2 53.4072 100.9437 48.3757 0.0000 0.0000 0.0001
# 3 48.3754 48.3757 128.8718 0.0001 0.0000 0.0001
# 4 0.0000 0.0000 0.0001 18.4282 0.0000 0.0000
# 5 -0.0001 0.0000 0.0000 0.0000 18.4281 0.0000
# 6 0.0001 0.0001 0.0001 0.0000 0.0000 23.7680
#
#
#
# Elastic Compliance Matrix: (Units=1/GPa)
#
#
# Indices 1 2 3 4 5 6 
#
# 1 0.014754 -0.006282 -0.003180 0.000000 0.000000 0.000000
# 2 -0.006282 0.014754 -0.003180 0.000000 0.000000 0.000000
# 3 -0.003180 -0.003180 0.010147 0.000000 0.000000 0.000000
# 4 0.000000 0.000000 0.000000 0.054265 0.000000 0.000000
# 5 0.000000 0.000000 0.000000 0.000000 0.054265 0.000000
# 6 0.000000 0.000000 0.000000 0.000000 0.000000 0.042073
#
#
# Mechanical properties :
#
#
# Convention : Reuss Voigt Hill
#
# Bulk Modulus (GPa) = 69.58652 70.11948 69.85300
# Shear Modulus (GPa) = 22.69273 24.16487 23.42880
#
# Velocity S-wave (km/s) = 3.42350 3.53280 3.47858
# Velocity P-wave (km/s) = 7.18102 7.27022 7.22576
#
# Compressibility (1/GPa) = 0.01437060
#
# Stress axis : x y z
#
# Youngs Moduli (GPa) = 67.77623 67.77640 98.54868
#
# Poissons Ratio (x) = 0.42578 0.31341
# Poissons Ratio (y) = 0.42578 0.31341
# Poissons Ratio (z) = 0.21555 0.21555
#
# Static dielectric constant tensor:
#      x y z
#    x 3.514930 0.000000 0.000000 
#    y 0.000000 3.514930 0.000000 
#    z 0.000000 0.000000 3.556810 
# 
# 
# High freq. dielectric constant tensor:
#      x y z
#    x 1.746660 0.000000 0.000000 
#    y 0.000000 1.746660 0.000000 
#    z 0.000000 0.000000 1.750760 
# 
# From -- ./inp_files/2729.got.cif
#   From: 2010.06.25/outbox.cif.g09.slc.cpg/sg190_2_cif.got.tgz:2729.got - 2010.06.28 13:08:06.
