data_PCOD8328783
_publ_section_title
;
Structure prediction by ZEFSAII (Michael W. Deem and Ramdas Pophale) SiO2 
 PCOD8328783
Probable space group: P 6/M M M
;
_chemical_formula_sum "Si O2"
_cell_formula_units_Z 156
_cell_length_a 22.591929
_cell_length_b 22.591929
_cell_length_c 20.637646
_cell_angle_alpha 90.000000
_cell_angle_beta 90.000000
_cell_angle_gamma 120.000000
_cell_volume 9122.154413
_symmetry_space_group_name_H-M "P 6/M M M"
_symmetry_group_IT_number 191
_symmetry_cell_setting 'hexagonal'
loop_
_space_group_symop_operation_xyz
x,y,z
x-y,x,z
-y,x-y,z
-x,-y,z
-x+y,-x,z
y,-x+y,z
x-y,-y,-z
-x,-x+y,-z
y,x,-z
-y,-x,-z
-x+y,y,-z
x,x-y,-z
-x,-y,-z
-x+y,-x,-z
y,-x+y,-z
x,y,-z
x-y,x,-z
-y,x-y,-z
-x+y,y,z
x,x-y,z
-y,-x,z
y,x,z
x-y,-y,z
-x,-x+y,z
loop_
_atom_site_type_symbol
_atom_site_label
_atom_site_fract_x
_atom_site_fract_y
_atom_site_fract_z
Si Si1 0.198538 0.666431 0.368700
Si Si2 0.267011 0.873643 0.572323
Si Si3 0.526006 0.606631 0.000000
Si Si4 0.076874 0.789737 0.180541
Si Si5 0.074213 0.280673 0.671395
Si Si6 0.079550 0.662250 0.866028
Si Si7 0.197464 0.530700 0.783529
O O1 0.192142 0.596071 0.391262
O O2 0.273190 0.726811 0.389000
O O3 0.139051 0.671968 0.406105
O O4 0.187614 0.669009 0.292640
O O5 0.280957 0.905093 0.500000
O O6 0.197602 0.802399 0.575546
O O7 0.261437 0.924429 0.622935
O O8 0.549888 0.654514 0.936881
O O9 0.561138 0.561138 0.000000
O O10 0.443720 0.556281 0.000000
O O11 0.132151 0.867850 0.161138
O O12 0.086487 0.776237 0.255731
O O13 0.090134 0.738035 0.138185
O O14 0.000000 0.776021 0.167975
O O15 0.129264 0.258528 0.651999
O O16 0.000000 0.213209 0.665694
O O17 0.126693 0.652396 0.814703
O O18 0.000000 0.605803 0.852775
O O19 0.261563 0.523126 0.807803
O O20 0.212370 0.606185 0.802102
#
# Coordination Sequence:
#
# PCOD8328783 Si02
#       7
#    24  24  12  24  24  24  24
#     4   9  17  29  45  64  86 115 151 191 232 272
#     4   9  17  28  42  62  88 116 146 183 228 273
#     4   9  18  32  47  66  95 126 156 192 236 283
#     4   9  17  30  49  73  99 125 156 195 238 281
#     4   9  17  30  49  71  94 121 153 189 228 273
#     4  10  19  31  50  72  92 119 154 194 239 282
#     4  10  19  31  47  66  90 119 153 192 234 282
#
# _framework density 17.101223999999998
#
# number of rings (size 3 to 8) (size 9 to 14) (size 15 to 20)
#    0.000    2.692    0.000    2.154    0.000    5.231 
#    0.000    1.538    0.000    2.615    0.000    4.308 
#    0.000    0.000    0.000    3.846    0.000   13.077 
#
# Total GULP energy -1933925.635696 kJ/mol
# GULP energy per Si atom -12396.959203 kJ/mol
# Density = 1.706230 g / cm^3
# Si number density = 17.101224 Si / 1000 Ang^3
#
#
#
# Elastic Constant Matrix: (Units=GPa)
#
#
# Indices 1 2 3 4 5 6 
#
# 1 93.1902 47.4467 38.3158 0.0000 0.0000 0.0000
# 2 47.4467 93.1902 38.3158 0.0000 0.0000 0.0000
# 3 38.3158 38.3158 50.5046 0.0000 0.0000 0.0000
# 4 0.0000 0.0000 0.0000 16.2528 0.0000 0.0000
# 5 0.0000 0.0000 0.0000 0.0000 16.2528 0.0000
# 6 0.0000 0.0000 0.0000 0.0000 0.0000 22.8717
#
#
#
# Elastic Compliance Matrix: (Units=1/GPa)
#
#
# Indices 1 2 3 4 5 6 
#
# 1 0.016991 -0.004870 -0.009196 0.000000 0.000000 0.000000
# 2 -0.004870 0.016991 -0.009196 0.000000 0.000000 0.000000
# 3 -0.009196 -0.009196 0.033753 0.000000 0.000000 0.000000
# 4 0.000000 0.000000 0.000000 0.061528 0.000000 0.000000
# 5 0.000000 0.000000 0.000000 0.000000 0.061528 0.000000
# 6 0.000000 0.000000 0.000000 0.000000 0.000000 0.043722
#
#
# Mechanical properties :
#
#
# Convention : Reuss Voigt Hill
#
# Bulk Modulus (GPa) = 47.14272 53.89351 50.51811
# Shear Modulus (GPa) = 17.35461 18.59589 17.97525
#
# Velocity S-wave (km/s) = 3.18907 3.30115 3.24560
# Velocity P-wave (km/s) = 6.41771 6.79065 6.60681
#
# Compressibility (1/GPa) = 0.02121219
#
# Stress axis : x y z
#
# Youngs Moduli (GPa) = 58.85415 58.85415 29.62671
#
# Poissons Ratio (x) = 0.28661 0.27244
# Poissons Ratio (y) = 0.28661 0.27244
# Poissons Ratio (z) = 0.54122 0.54122
#
# Static dielectric constant tensor:
#      x y z
#    x 3.160360 0.000000 0.000000 
#    y 0.000000 3.160360 0.000000 
#    z 0.000000 0.000000 3.238420 
# 
# 
# High freq. dielectric constant tensor:
#      x y z
#    x 1.647310 0.000000 0.000000 
#    y 0.000000 1.647310 0.000000 
#    z 0.000000 0.000000 1.651760 
# 
# From -- ./inp_files/7744.got.cif
#   From: 2010.03.12/outbox.cif.g09.slc.cpg/sg191_4_cif.got.tgz:7744.got - 2010.04.01 12:09:02.
