data_PCOD8328070
_publ_section_title
;
Structure prediction by ZEFSAII (Michael W. Deem and Ramdas Pophale) SiO2 
 PCOD8328070
Probable space group: P -6 2 C
;
_chemical_formula_sum "Si O2"
_cell_formula_units_Z 36
_cell_length_a 16.222995
_cell_length_b 16.222995
_cell_length_c 8.730154
_cell_angle_alpha 90.000000
_cell_angle_beta 90.000000
_cell_angle_gamma 120.000000
_cell_volume 1989.823727
_symmetry_space_group_name_H-M "P -6 2 C"
_symmetry_group_IT_number 190
_symmetry_cell_setting 'hexagonal'
loop_
_space_group_symop_operation_xyz
x,y,z
-x+y,-x,1/2-z
-y,x-y,z
x,y,1/2-z
-x+y,-x,z
-y,x-y,1/2-z
x-y,-y,-z
-x,-x+y,-z
y,x,-z
y,x,1/2+z
x-y,-y,1/2+z
-x,-x+y,1/2+z
loop_
_atom_site_type_symbol
_atom_site_label
_atom_site_fract_x
_atom_site_fract_y
_atom_site_fract_z
Si Si1 0.102343 0.547946 0.927501
Si Si2 0.105026 0.386262 0.069241
Si Si3 0.268817 0.372769 0.928171
O O1 0.095051 0.520355 0.750000
O O2 0.148955 0.661423 0.950403
O O3 0.153394 0.497314 0.014238
O O4 0.000000 0.505322 0.000000
O O5 0.098771 0.380460 0.250000
O O6 0.169794 0.343648 0.010554
O O7 0.000000 0.323838 0.000000
O O8 0.250938 0.347127 0.750000
O O9 0.311624 0.311624 0.000000
#
# Coordination Sequence:
#
# PCOD8328070 Si02
#       3
#    12  12  12
#     4   9  17  31  51  73 100 133 168 211 258 308
#     4  11  21  34  54  78 107 141 179 220 264 314
#     4  10  20  35  55  79 107 140 178 219 266 316
#
# _framework density 18.092055999999999
#
# number of rings (size 3 to 8) (size 9 to 14) (size 15 to 20)
#    0.000    2.000    0.000    7.000    0.000    4.000 
#    2.000    0.000    0.000    0.667    0.000    4.667 
#    0.000    0.000    0.000    0.000    0.000    0.000 
#
# Total GULP energy -446094.496853 kJ/mol
# GULP energy per Si atom -12391.513801 kJ/mol
# Density = 1.805088 g / cm^3
# Si number density = 18.092056 Si / 1000 Ang^3
#
#
#
# Elastic Constant Matrix: (Units=GPa)
#
#
# Indices 1 2 3 4 5 6 
#
# 1 94.6515 47.5072 60.0842 0.0000 0.0000 0.0000
# 2 47.5072 94.6515 60.0842 0.0000 0.0000 0.0000
# 3 60.0842 60.0842 177.2654 0.0000 0.0000 0.0000
# 4 0.0000 0.0000 0.0000 22.2088 0.0000 0.0000
# 5 0.0000 0.0000 0.0000 0.0000 22.2088 0.0000
# 6 0.0000 0.0000 0.0000 0.0000 0.0000 23.5721
#
#
#
# Elastic Compliance Matrix: (Units=1/GPa)
#
#
# Indices 1 2 3 4 5 6 
#
# 1 0.015535 -0.005676 -0.003342 0.000000 0.000000 0.000000
# 2 -0.005676 0.015535 -0.003342 0.000000 0.000000 0.000000
# 3 -0.003342 -0.003342 0.007907 0.000000 0.000000 0.000000
# 4 0.000000 0.000000 0.000000 0.045027 0.000000 0.000000
# 5 0.000000 0.000000 0.000000 0.000000 0.045027 0.000000
# 6 0.000000 0.000000 0.000000 0.000000 0.000000 0.042423
#
#
# Mechanical properties :
#
#
# Convention : Reuss Voigt Hill
#
# Bulk Modulus (GPa) = 70.13615 77.99104 74.06360
# Shear Modulus (GPa) = 24.88465 26.85744 25.87105
#
# Velocity S-wave (km/s) = 3.71272 3.85709 3.78559
# Velocity P-wave (km/s) = 7.56502 7.93962 7.75458
#
# Compressibility (1/GPa) = 0.01425798
#
# Stress axis : x y z
#
# Youngs Moduli (GPa) = 64.36922 64.36922 126.47554
#
# Poissons Ratio (x) = 0.36537 0.42266
# Poissons Ratio (y) = 0.36537 0.42266
# Poissons Ratio (z) = 0.21511 0.21511
#
# Static dielectric constant tensor:
#      x y z
#    x 3.441660 0.000000 0.000000 
#    y 0.000000 3.441660 0.000000 
#    z 0.000000 0.000000 3.498310 
# 
# 
# High freq. dielectric constant tensor:
#      x y z
#    x 1.682620 0.000000 0.000000 
#    y 0.000000 1.682620 0.000000 
#    z 0.000000 0.000000 1.723720 
# 
# From -- ./inp_files/451.got.cif
#   From: 2010.06.25/outbox.cif.g09.slc.cpg/sg190_1_cif.got.tgz:451.got - 2010.06.28 13:08:06.
