data_PCOD8328419
_publ_section_title
;
Structure prediction by ZEFSAII (Michael W. Deem and Ramdas Pophale) SiO2 
 PCOD8328419
Probable space group: P 6/M M M
;
_chemical_formula_sum "Si O2"
_cell_formula_units_Z 168
_cell_length_a 23.318760
_cell_length_b 23.318760
_cell_length_c 20.355674
_cell_angle_alpha 90.000000
_cell_angle_beta 90.000000
_cell_angle_gamma 120.000000
_cell_volume 9585.770431
_symmetry_space_group_name_H-M "P 6/M M M"
_symmetry_group_IT_number 191
_symmetry_cell_setting 'hexagonal'
loop_
_space_group_symop_operation_xyz
x,y,z
x-y,x,z
-y,x-y,z
-x,-y,z
-x+y,-x,z
y,-x+y,z
x-y,-y,-z
-x,-x+y,-z
y,x,-z
-y,-x,-z
-x+y,y,-z
x,x-y,-z
-x,-y,-z
-x+y,-x,-z
y,-x+y,-z
x,y,-z
x-y,x,-z
-y,x-y,-z
-x+y,y,z
x,x-y,z
-y,-x,z
y,x,z
x-y,-y,z
-x,-x+y,z
loop_
_atom_site_type_symbol
_atom_site_label
_atom_site_fract_x
_atom_site_fract_y
_atom_site_fract_z
Si Si1 0.605344 0.734916 0.926376
Si Si2 0.715866 0.923904 0.823280
Si Si3 0.333207 0.793504 0.403009
Si Si4 0.605754 0.870409 0.571826
Si Si5 0.074512 0.366597 0.290130
Si Si6 0.837017 0.355811 0.738061
Si Si7 0.332826 0.796280 0.118166
O O1 0.600109 0.800055 0.920670
O O2 0.663556 0.743504 0.877910
O O3 0.532649 0.674130 0.907342
O O4 0.623617 0.723965 0.000000
O O5 0.740332 0.870166 0.836256
O O6 0.678768 0.905362 0.752856
O O7 0.777959 0.000000 0.824108
O O8 0.403300 0.806600 0.430240
O O9 0.275679 0.724322 0.431865
O O10 0.324193 0.854043 0.427789
O O11 0.328894 0.788433 0.324091
O O12 0.636732 0.901918 0.500000
O O13 0.606577 0.803289 0.583648
O O14 0.644876 0.917873 0.632511
O O15 0.112899 0.441422 0.266473
O O16 0.000000 0.345265 0.275227
O O17 0.873641 0.436821 0.738558
O O18 0.793442 0.327746 0.803096
O O19 0.402963 0.805926 0.093304
O O20 0.273559 0.726442 0.090938
#
# Coordination Sequence:
#
# PCOD8328419 Si02
#       7
#    24  24  24  24  24  24  24
#     4   9  18  32  50  72 101 136 170 206 248 293
#     4  10  20  35  57  83 107 131 162 199 237 282
#     4   9  16  25  39  58  81 109 147 196 250 304
#     4   9  18  31  45  62  88 121 152 186 234 290
#     4  10  19  31  50  73  94 122 160 201 243 287
#     4   9  17  28  42  62  89 123 160 205 257 306
#     4  10  18  28  44  67  97 133 174 219 266 311
#
# _framework density 17.525977999999999
#
# number of rings (size 3 to 8) (size 9 to 14) (size 15 to 20)
#    0.000    2.571    1.429    1.143    0.000    2.571 
#    0.000    1.429    0.000    2.286    0.000    5.000 
#    0.000    0.000    0.000    3.571    0.000    0.000 
#
# Total GULP energy -2081741.085957 kJ/mol
# GULP energy per Si atom -12391.315988 kJ/mol
# Density = 1.748609 g / cm^3
# Si number density = 17.525978 Si / 1000 Ang^3
#
#
#
# Elastic Constant Matrix: (Units=GPa)
#
#
# Indices 1 2 3 4 5 6 
#
# 1 68.6330 35.7063 17.1682 0.0000 0.0000 0.0000
# 2 35.7063 68.6330 17.1682 0.0000 0.0000 0.0000
# 3 17.1682 17.1682 91.7355 0.0000 0.0000 0.0000
# 4 0.0000 0.0000 0.0000 12.2182 0.0000 0.0000
# 5 0.0000 0.0000 0.0000 0.0000 12.2182 0.0000
# 6 0.0000 0.0000 0.0000 0.0000 0.0000 16.4634
#
#
#
# Elastic Compliance Matrix: (Units=1/GPa)
#
#
# Indices 1 2 3 4 5 6 
#
# 1 0.020292 -0.010079 -0.001911 0.000000 0.000000 0.000000
# 2 -0.010079 0.020292 -0.001911 0.000000 0.000000 0.000000
# 3 -0.001911 -0.001911 0.011616 0.000000 0.000000 0.000000
# 4 0.000000 0.000000 0.000000 0.081845 0.000000 0.000000
# 5 0.000000 0.000000 0.000000 0.000000 0.081845 0.000000
# 6 0.000000 0.000000 0.000000 0.000000 0.000000 0.060741
#
#
# Mechanical properties :
#
#
# Convention : Reuss Voigt Hill
#
# Bulk Modulus (GPa) = 40.98855 41.00967 40.99911
# Shear Modulus (GPa) = 15.99665 18.77724 17.38694
#
# Velocity S-wave (km/s) = 3.02444 3.27677 3.15313
# Velocity P-wave (km/s) = 5.96945 6.14544 6.05809
#
# Compressibility (1/GPa) = 0.02439706
#
# Stress axis : x y z
#
# Youngs Moduli (GPa) = 49.28109 49.28109 86.08566
#
# Poissons Ratio (x) = 0.49669 0.16454
# Poissons Ratio (y) = 0.49669 0.16454
# Poissons Ratio (z) = 0.09419 0.09419
#
# Static dielectric constant tensor:
#      x y z
#    x 2.986090 0.000000 0.000000 
#    y 0.000000 2.986090 0.000000 
#    z 0.000000 0.000000 3.458480 
# 
# 
# High freq. dielectric constant tensor:
#      x y z
#    x 1.643790 0.000000 0.000000 
#    y 0.000000 1.643790 0.000000 
#    z 0.000000 0.000000 1.692360 
# 
# From -- ./inp_files/7912.got.cif
#   From: 2010.03.12/outbox.cif.g09.slc.cpg/sg191_4_cif.got.tgz:7912.got - 2010.04.01 12:09:02.
