data_PCOD8328053
_publ_section_title
;
Structure prediction by ZEFSAII (Michael W. Deem and Ramdas Pophale) SiO2 
 PCOD8328053
Probable space group: P -6 2 C
;
_chemical_formula_sum "Si O2"
_cell_formula_units_Z 72
_cell_length_a 23.600555
_cell_length_b 23.600555
_cell_length_c 8.713829
_cell_angle_alpha 90.000000
_cell_angle_beta 90.000000
_cell_angle_gamma 120.000000
_cell_volume 4203.239116
_symmetry_space_group_name_H-M "P -6 2 C"
_symmetry_group_IT_number 190
_symmetry_cell_setting 'hexagonal'
loop_
_space_group_symop_operation_xyz
x,y,z
-x+y,-x,1/2-z
-y,x-y,z
x,y,1/2-z
-x+y,-x,z
-y,x-y,1/2-z
x-y,-y,-z
-x,-x+y,-z
y,x,-z
y,x,1/2+z
x-y,-y,1/2+z
-x,-x+y,1/2+z
loop_
_atom_site_type_symbol
_atom_site_label
_atom_site_fract_x
_atom_site_fract_y
_atom_site_fract_z
Si Si1 0.600038 0.403693 0.569944
Si Si2 0.262888 0.737068 0.930935
Si Si3 0.932883 0.069028 0.429246
Si Si4 0.931345 0.529458 0.927904
Si Si5 0.148533 0.745205 0.067750
Si Si6 0.803098 0.069482 0.069686
O O1 0.615919 0.408653 0.750000
O O2 0.574832 0.329847 0.516994
O O3 0.663273 0.453506 0.474264
O O4 0.545342 0.423697 0.533288
O O5 0.255547 0.724864 0.750000
O O6 0.217499 0.765765 0.988328
O O7 0.941274 0.065038 0.250000
O O8 0.876177 0.085450 0.469093
O O9 0.000000 0.126356 0.500000
O O10 0.916718 0.000000 0.500000
O O11 0.943633 0.540705 0.750000
O O12 0.904611 0.576646 0.987882
O O13 0.000000 0.546833 0.000000
O O14 0.158058 0.748716 0.250000
O O15 0.126046 0.795329 0.011001
O O16 0.790388 0.068051 0.250000
O O17 0.750352 0.000000 0.000000
#
# Coordination Sequence:
#
# PCOD8328053 Si02
#       6
#    12  12  12  12  12  12
#     4  10  20  35  51  71 101 135 165 198 245 298
#     4  11  21  33  51  76 101 129 166 207 247 290
#     4  10  20  33  50  72 100 131 165 203 248 296
#     4   9  19  32  49  72  98 128 161 195 237 285
#     4  10  20  34  51  73 101 134 165 199 246 297
#     4  10  20  33  50  74 101 131 165 204 246 294
#
# _framework density 17.129646999999999
#
# number of rings (size 3 to 8) (size 9 to 14) (size 15 to 20)
#    0.000    2.000    0.000    5.500    0.000    7.333 
#    0.000    0.000    0.000    1.000    0.000    7.000 
#    0.000    0.000    0.000    0.000    0.000    0.000 
#
# Total GULP energy -893044.888824 kJ/mol
# GULP energy per Si atom -12403.401234 kJ/mol
# Density = 1.709066 g / cm^3
# Si number density = 17.129647 Si / 1000 Ang^3
#
#
#
# Elastic Constant Matrix: (Units=GPa)
#
#
# Indices 1 2 3 4 5 6 
#
# 1 96.4709 50.2707 33.0562 0.0000 0.0000 0.0000
# 2 50.2707 96.4709 33.0562 0.0000 0.0000 0.0000
# 3 33.0562 33.0562 66.0397 0.0000 0.0000 0.0000
# 4 0.0000 0.0000 0.0000 31.5310 0.0000 0.0000
# 5 0.0000 0.0000 0.0000 0.0000 31.5310 0.0000
# 6 0.0000 0.0000 0.0000 0.0000 0.0000 23.1001
#
#
#
# Elastic Compliance Matrix: (Units=1/GPa)
#
#
# Indices 1 2 3 4 5 6 
#
# 1 0.015222 -0.006423 -0.004404 0.000000 0.000000 0.000000
# 2 -0.006423 0.015222 -0.004404 0.000000 0.000000 0.000000
# 3 -0.004404 -0.004404 0.019552 0.000000 0.000000 0.000000
# 4 0.000000 0.000000 0.000000 0.031715 0.000000 0.000000
# 5 0.000000 0.000000 0.000000 0.000000 0.031715 0.000000
# 6 0.000000 0.000000 0.000000 0.000000 0.000000 0.043290
#
#
# Mechanical properties :
#
#
# Convention : Reuss Voigt Hill
#
# Bulk Modulus (GPa) = 51.19742 54.63863 52.91802
# Shear Modulus (GPa) = 25.81456 26.73898 26.27677
#
# Velocity S-wave (km/s) = 3.88624 3.95521 3.92087
# Velocity P-wave (km/s) = 7.07744 7.26805 7.17338
#
# Compressibility (1/GPa) = 0.01953223
#
# Stress axis : x y z
#
# Youngs Moduli (GPa) = 65.69451 65.69451 51.14670
#
# Poissons Ratio (x) = 0.42195 0.22527
# Poissons Ratio (y) = 0.42195 0.22527
# Poissons Ratio (z) = 0.28934 0.28934
#
# Static dielectric constant tensor:
#      x y z
#    x 3.240660 0.000000 0.000000 
#    y 0.000000 3.240660 0.000000 
#    z 0.000000 0.000000 3.262500 
# 
# 
# High freq. dielectric constant tensor:
#      x y z
#    x 1.650780 0.000000 0.000000 
#    y 0.000000 1.650780 0.000000 
#    z 0.000000 0.000000 1.677120 
# 
# From -- ./inp_files/1199.got.cif
#   From: 2010.06.25/outbox.cif.g09.slc.cpg/sg190_1_cif.got.tgz:1199.got - 2010.06.28 13:08:06.
