data_PCOD8328267
_publ_section_title
;
Structure prediction by ZEFSAII (Michael W. Deem and Ramdas Pophale) SiO2 
 PCOD8328267
Probable space group: P 6/M M M
;
_chemical_formula_sum "Si O2"
_cell_formula_units_Z 132
_cell_length_a 19.124862
_cell_length_b 19.124862
_cell_length_c 28.853538
_cell_angle_alpha 90.000000
_cell_angle_beta 90.000000
_cell_angle_gamma 120.000000
_cell_volume 9139.581828
_symmetry_space_group_name_H-M "P 6/M M M"
_symmetry_group_IT_number 191
_symmetry_cell_setting 'hexagonal'
loop_
_space_group_symop_operation_xyz
x,y,z
x-y,x,z
-y,x-y,z
-x,-y,z
-x+y,-x,z
y,-x+y,z
x-y,-y,-z
-x,-x+y,-z
y,x,-z
-y,-x,-z
-x+y,y,-z
x,x-y,-z
-x,-y,-z
-x+y,-x,-z
y,-x+y,-z
x,y,-z
x-y,x,-z
-y,x-y,-z
-x+y,y,z
x,x-y,z
-y,-x,z
y,x,z
x-y,-y,z
-x,-x+y,z
loop_
_atom_site_type_symbol
_atom_site_label
_atom_site_fract_x
_atom_site_fract_y
_atom_site_fract_z
Si Si1 0.173554 0.505127 0.823998
Si Si2 0.537842 0.629021 0.267730
Si Si3 0.669035 0.175256 0.359127
Si Si4 0.905725 0.373321 0.917962
Si Si5 0.735455 0.097386 0.000000
Si Si6 0.628885 0.537457 0.550469
O O1 0.267739 0.535478 0.824008
O O2 0.160146 0.580073 0.822138
O O3 0.132749 0.451171 0.778310
O O4 0.133439 0.456937 0.871036
O O5 0.451054 0.548947 0.267685
O O6 0.609537 0.609537 0.267832
O O7 0.548232 0.680881 0.313960
O O8 0.578816 0.157632 0.359771
O O9 0.729737 0.270264 0.355985
O O10 0.686495 0.141819 0.406798
O O11 0.874793 0.437397 0.930496
O O12 0.000000 0.424704 0.909640
O O13 0.884498 0.305811 0.956748
O O14 0.833991 0.166010 0.000000
O O15 0.711375 0.000000 0.000000
O O16 0.670980 0.546243 0.500000
O O17 0.547922 0.452079 0.552075
O O18 0.608706 0.608706 0.556544
#
# Coordination Sequence:
#
# PCOD8328267 Si02
#       6
#    24  24  24  24  12  24
#     4  10  18  27  39  56  79 103 127 156 193 234
#     4   9  17  28  40  51  64  88 123 157 184 215
#     4  10  18  26  36  51  71  91 111 140 183 230
#     4   9  17  29  45  63  83 109 139 168 197 235
#     4  10  19  31  47  66  87 111 142 178 215 253
#     4   8  14  25  39  51  63  84 115 145 170 202
#
# _framework density 14.442672999999999
#
# number of rings (size 3 to 8) (size 9 to 14) (size 15 to 20)
#    0.000    2.727    0.000    3.364    0.000    5.818 
#    0.000    1.818    0.000    3.727    0.000    0.000 
#    0.000    0.000    0.000    0.000    0.000    0.000 
#
# Total GULP energy -1635278.745004 kJ/mol
# GULP energy per Si atom -12388.475341 kJ/mol
# Density = 1.440980 g / cm^3
# Si number density = 14.442673 Si / 1000 Ang^3
#
#
#
# Elastic Constant Matrix: (Units=GPa)
#
#
# Indices 1 2 3 4 5 6 
#
# 1 38.3952 13.5230 32.3815 0.0000 0.0000 0.0000
# 2 13.5230 38.3952 32.3815 0.0000 0.0000 0.0000
# 3 32.3815 32.3815 144.6784 0.0000 0.0000 0.0000
# 4 0.0000 0.0000 0.0000 12.3411 0.0000 0.0000
# 5 0.0000 0.0000 0.0000 0.0000 12.3411 0.0000
# 6 0.0000 0.0000 0.0000 0.0000 0.0000 12.4361
#
#
#
# Elastic Compliance Matrix: (Units=1/GPa)
#
#
# Indices 1 2 3 4 5 6 
#
# 1 0.033463 -0.006742 -0.005981 0.000000 0.000000 0.000000
# 2 -0.006742 0.033463 -0.005981 0.000000 0.000000 0.000000
# 3 -0.005981 -0.005981 0.009589 0.000000 0.000000 0.000000
# 4 0.000000 0.000000 0.000000 0.081030 0.000000 0.000000
# 5 0.000000 0.000000 0.000000 0.000000 0.081030 0.000000
# 6 0.000000 0.000000 0.000000 0.000000 0.000000 0.080411
#
#
# Mechanical properties :
#
#
# Convention : Reuss Voigt Hill
#
# Bulk Modulus (GPa) = 25.56954 42.00452 33.78703
# Shear Modulus (GPa) = 13.53435 16.96919 15.25177
#
# Velocity S-wave (km/s) = 3.06454 3.43145 3.25317
# Velocity P-wave (km/s) = 5.50132 6.69676 6.12826
#
# Compressibility (1/GPa) = 0.03910903
#
# Stress axis : x y z
#
# Youngs Moduli (GPa) = 29.88337 29.88337 104.28571
#
# Poissons Ratio (x) = 0.20148 0.62370
# Poissons Ratio (y) = 0.20148 0.62370
# Poissons Ratio (z) = 0.17872 0.17872
#
# Static dielectric constant tensor:
#      x y z
#    x 2.574110 0.000000 0.000000 
#    y 0.000000 2.574110 0.000000 
#    z 0.000000 0.000000 3.386020 
# 
# 
# High freq. dielectric constant tensor:
#      x y z
#    x 1.510660 0.000000 0.000000 
#    y 0.000000 1.510660 0.000000 
#    z 0.000000 0.000000 1.583020 
# 
# From -- ./inp_files/10453.got.cif
#   From: 2010.03.12/outbox.cif.g09.slc.cpg/sg191_6_cif.got.tgz:10453.got - 2010.04.01 12:09:02.
