data_PCOD8328288
_publ_section_title
;
Structure prediction by ZEFSAII (Michael W. Deem and Ramdas Pophale) SiO2 
 PCOD8328288
Probable space group: P 6/M M M
;
_chemical_formula_sum "Si O2"
_cell_formula_units_Z 168
_cell_length_a 23.127323
_cell_length_b 23.127323
_cell_length_c 22.732390
_cell_angle_alpha 90.000000
_cell_angle_beta 90.000000
_cell_angle_gamma 120.000000
_cell_volume 10529.953702
_symmetry_space_group_name_H-M "P 6/M M M"
_symmetry_group_IT_number 191
_symmetry_cell_setting 'hexagonal'
loop_
_space_group_symop_operation_xyz
x,y,z
x-y,x,z
-y,x-y,z
-x,-y,z
-x+y,-x,z
y,-x+y,z
x-y,-y,-z
-x,-x+y,-z
y,x,-z
-y,-x,-z
-x+y,y,-z
x,x-y,-z
-x,-y,-z
-x+y,-x,-z
y,-x+y,-z
x,y,-z
x-y,x,-z
-y,x-y,-z
-x+y,y,z
x,x-y,z
-y,-x,z
y,x,z
x-y,-y,z
-x,-x+y,z
loop_
_atom_site_type_symbol
_atom_site_label
_atom_site_fract_x
_atom_site_fract_y
_atom_site_fract_z
Si Si1 0.466377 0.666492 0.932440
Si Si2 0.079276 0.601993 0.388101
Si Si3 0.924678 0.395872 0.745546
Si Si4 0.079298 0.360013 0.435697
Si Si5 0.925245 0.199871 0.666724
Si Si6 0.716103 0.923942 0.800565
Si Si7 0.148398 0.718877 0.834826
O O1 0.445521 0.722761 0.923528
O O2 0.404023 0.595978 0.911651
O O3 0.533332 0.684866 0.895882
O O4 0.484134 0.662549 0.000000
O O5 0.108009 0.554005 0.409585
O O6 0.099847 0.623749 0.321027
O O7 0.107818 0.668438 0.427619
O O8 0.000000 0.559934 0.391881
O O9 0.922794 0.461397 0.765064
O O10 0.872995 0.335139 0.784327
O O11 0.000000 0.409127 0.753678
O O12 0.103195 0.349076 0.500000
O O13 0.104471 0.333234 0.382015
O O14 0.000000 0.322337 0.432754
O O15 0.880260 0.119741 0.664613
O O16 0.920964 0.225816 0.731791
O O17 0.000000 0.217902 0.651119
O O18 0.742594 0.871297 0.812035
O O19 0.650180 0.903305 0.839670
O O20 0.773611 0.000000 0.816789
O O21 0.220757 0.779244 0.817314
#
# Coordination Sequence:
#
# PCOD8328288 Si02
#       7
#    24  24  24  24  24  24  24
#     4   9  17  29  44  61  84 117 156 193 223 248
#     4   8  14  24  37  53  73  99 131 164 198 237
#     4   9  16  26  41  58  77 105 139 173 209 250
#     4   9  16  24  35  53  77 104 132 162 198 241
#     4   9  17  29  44  61  82 108 137 169 206 250
#     4   9  17  29  46  66  86 109 137 170 208 251
#     4  10  18  26  40  63  87 110 139 176 216 254
#
# _framework density 15.954485999999999
#
# number of rings (size 3 to 8) (size 9 to 14) (size 15 to 20)
#    0.000    3.000    0.000    2.714    0.000    3.429 
#    0.000    1.429    0.000    2.286    0.000    7.000 
#    0.000    0.000    0.000    4.000    0.000    6.286 
#
# Total GULP energy -2081633.380418 kJ/mol
# GULP energy per Si atom -12390.674883 kJ/mol
# Density = 1.591817 g / cm^3
# Si number density = 15.954486 Si / 1000 Ang^3
#
#
#
# Elastic Constant Matrix: (Units=GPa)
#
#
# Indices 1 2 3 4 5 6 
#
# 1 76.1595 40.2310 35.8723 0.0000 0.0000 0.0000
# 2 40.2310 76.1595 35.8723 0.0000 0.0000 0.0000
# 3 35.8723 35.8723 52.3877 0.0000 0.0000 0.0000
# 4 0.0000 0.0000 0.0000 16.5822 0.0000 0.0000
# 5 0.0000 0.0000 0.0000 0.0000 16.5822 0.0000
# 6 0.0000 0.0000 0.0000 0.0000 0.0000 17.9643
#
#
#
# Elastic Compliance Matrix: (Units=1/GPa)
#
#
# Indices 1 2 3 4 5 6 
#
# 1 0.021350 -0.006483 -0.010180 0.000000 0.000000 0.000000
# 2 -0.006483 0.021350 -0.010180 0.000000 0.000000 0.000000
# 3 -0.010180 -0.010180 0.033030 0.000000 0.000000 0.000000
# 4 0.000000 0.000000 0.000000 0.060306 0.000000 0.000000
# 5 0.000000 0.000000 0.000000 0.000000 0.060306 0.000000
# 6 0.000000 0.000000 0.000000 0.000000 0.000000 0.055666
#
#
# Mechanical properties :
#
#
# Convention : Reuss Voigt Hill
#
# Bulk Modulus (GPa) = 45.36480 47.62866 46.49673
# Shear Modulus (GPa) = 15.97233 16.40781 16.19007
#
# Velocity S-wave (km/s) = 3.16748 3.21037 3.18899
# Velocity P-wave (km/s) = 6.47092 6.60754 6.53959
#
# Compressibility (1/GPa) = 0.02204352
#
# Stress axis : x y z
#
# Youngs Moduli (GPa) = 46.83849 46.83849 30.27552
#
# Poissons Ratio (x) = 0.30366 0.30821
# Poissons Ratio (y) = 0.30366 0.30821
# Poissons Ratio (z) = 0.47682 0.47682
#
# Static dielectric constant tensor:
#      x y z
#    x 2.981930 0.000000 0.000000 
#    y 0.000000 2.981930 0.000000 
#    z 0.000000 0.000000 3.044660 
# 
# 
# High freq. dielectric constant tensor:
#      x y z
#    x 1.593810 0.000000 0.000000 
#    y 0.000000 1.593810 0.000000 
#    z 0.000000 0.000000 1.600170 
# 
# From -- ./inp_files/7996.got.cif
#   From: 2010.03.12/outbox.cif.g09.slc.cpg/sg191_4_cif.got.tgz:7996.got - 2010.04.01 12:09:02.
