data_PCOD8328819
_publ_section_title
;
Structure prediction by ZEFSAII (Michael W. Deem and Ramdas Pophale) SiO2 
 PCOD8328819
Probable space group: P 6/M M M
;
_chemical_formula_sum "Si O2"
_cell_formula_units_Z 168
_cell_length_a 26.745061
_cell_length_b 26.745061
_cell_length_c 16.465111
_cell_angle_alpha 90.000000
_cell_angle_beta 90.000000
_cell_angle_gamma 120.000000
_cell_volume 10199.584496
_symmetry_space_group_name_H-M "P 6/M M M"
_symmetry_group_IT_number 191
_symmetry_cell_setting 'hexagonal'
loop_
_space_group_symop_operation_xyz
x,y,z
x-y,x,z
-y,x-y,z
-x,-y,z
-x+y,-x,z
y,-x+y,z
x-y,-y,-z
-x,-x+y,-z
y,x,-z
-y,-x,-z
-x+y,y,-z
x,x-y,-z
-x,-y,-z
-x+y,-x,-z
y,-x+y,-z
x,y,-z
x-y,x,-z
-y,x-y,-z
-x+y,y,z
x,x-y,z
-y,-x,z
y,x,z
x-y,-y,z
-x,-x+y,z
loop_
_atom_site_type_symbol
_atom_site_label
_atom_site_fract_x
_atom_site_fract_y
_atom_site_fract_z
Si Si1 0.263931 0.414753 0.000000
Si Si2 0.658009 0.724241 0.679105
Si Si3 0.064590 0.687197 0.850881
Si Si4 0.886822 0.497310 0.173444
Si Si5 0.833372 0.552057 0.406078
Si Si6 0.527404 0.367601 0.000000
Si Si7 0.064290 0.239435 0.406674
Si Si8 0.333413 0.782306 0.711148
O O1 0.279023 0.390220 0.920402
O O2 0.297890 0.485777 0.000000
O O3 0.196074 0.392147 0.000000
O O4 0.677335 0.677335 0.657253
O O5 0.654994 0.730465 0.776387
O O6 0.597044 0.704361 0.636935
O O7 0.704737 0.787038 0.647651
O O8 0.069970 0.634562 0.809904
O O9 0.000000 0.661190 0.886425
O O10 0.910435 0.455218 0.206610
O O11 0.881676 0.491096 0.076954
O O12 0.823948 0.476806 0.211570
O O13 0.845487 0.547373 0.500000
O O14 0.786151 0.572302 0.394251
O O15 0.810236 0.489239 0.367145
O O16 0.599269 0.400732 0.000000
O O17 0.068615 0.259116 0.500000
O O18 0.107863 0.215726 0.388332
O O19 0.000000 0.188105 0.385723
O O20 0.386259 0.772518 0.688907
O O21 0.278407 0.721594 0.735598
#
# Coordination Sequence:
#
# PCOD8328819 Si02
#       8
#    12  24  24  24  24  12  24  24
#     4  10  21  33  50  75 100 132 166 194 232 282
#     4  10  19  31  48  72  99 128 160 196 240 288
#     4  10  20  34  50  72 100 128 160 199 239 278
#     4   9  17  31  50  71  95 124 155 193 241 295
#     4  10  20  33  50  71  94 121 155 199 250 298
#     4   8  16  31  48  69  96 119 149 191 231 277
#     4   9  17  29  46  69  97 128 161 198 239 283
#     4  10  20  34  51  70  93 123 159 200 247 298
#
# _framework density 16.471259
#
# number of rings (size 3 to 8) (size 9 to 14) (size 15 to 20)
#    0.000    2.429    1.429    1.214    0.000    6.000 
#    0.000    0.000    0.000    5.857    0.000    2.000 
#    0.000    0.000    0.000    0.000    0.000    0.000 
#
# Total GULP energy -2081825.470189 kJ/mol
# GULP energy per Si atom -12391.818275 kJ/mol
# Density = 1.643377 g / cm^3
# Si number density = 16.471259 Si / 1000 Ang^3
#
#
#
# Elastic Constant Matrix: (Units=GPa)
#
#
# Indices 1 2 3 4 5 6 
#
# 1 89.6613 47.9264 40.3843 0.0000 0.0000 0.0000
# 2 47.9264 89.6613 40.3843 0.0000 0.0000 0.0000
# 3 40.3843 40.3843 80.6987 0.0000 0.0000 0.0000
# 4 0.0000 0.0000 0.0000 18.8854 0.0000 0.0000
# 5 0.0000 0.0000 0.0000 0.0000 18.8854 0.0000
# 6 0.0000 0.0000 0.0000 0.0000 0.0000 20.8674
#
#
#
# Elastic Compliance Matrix: (Units=1/GPa)
#
#
# Indices 1 2 3 4 5 6 
#
# 1 0.017126 -0.006835 -0.005150 0.000000 0.000000 0.000000
# 2 -0.006835 0.017126 -0.005150 0.000000 0.000000 0.000000
# 3 -0.005150 -0.005150 0.017546 0.000000 0.000000 0.000000
# 4 0.000000 0.000000 0.000000 0.052951 0.000000 0.000000
# 5 0.000000 0.000000 0.000000 0.000000 0.052951 0.000000
# 6 0.000000 0.000000 0.000000 0.000000 0.000000 0.047922
#
#
# Mechanical properties :
#
#
# Convention : Reuss Voigt Hill
#
# Bulk Modulus (GPa) = 57.04975 57.49017 57.26996
# Shear Modulus (GPa) = 20.34713 20.48273 20.41493
#
# Velocity S-wave (km/s) = 3.51851 3.53022 3.52437
# Velocity P-wave (km/s) = 7.15665 7.18301 7.16985
#
# Compressibility (1/GPa) = 0.01752856
#
# Stress axis : x y z
#
# Youngs Moduli (GPa) = 58.39036 58.39036 56.99174
#
# Poissons Ratio (x) = 0.39908 0.29352
# Poissons Ratio (y) = 0.39908 0.29352
# Poissons Ratio (z) = 0.30072 0.30072
#
# Static dielectric constant tensor:
#      x y z
#    x 3.107680 0.000000 0.000000 
#    y 0.000000 3.107680 0.000000 
#    z 0.000000 0.000000 3.114340 
# 
# 
# High freq. dielectric constant tensor:
#      x y z
#    x 1.622060 0.000000 0.000000 
#    y 0.000000 1.622060 0.000000 
#    z 0.000000 0.000000 1.635340 
# 
# From -- ./inp_files/5359.got.cif
#   From: 2010.03.12/outbox.cif.g09.slc.cpg/sg191_3_cif.got.tgz:5359.got - 2010.04.01 12:09:02.
