data_PCOD8328200
_publ_section_title
;
Structure prediction by ZEFSAII (Michael W. Deem and Ramdas Pophale) SiO2 
 PCOD8328200
Probable space group: P -6 2 C
;
_chemical_formula_sum "Si O2"
_cell_formula_units_Z 40
_cell_length_a 11.327330
_cell_length_b 11.327330
_cell_length_c 16.373395
_cell_angle_alpha 90.000000
_cell_angle_beta 90.000000
_cell_angle_gamma 120.000000
_cell_volume 1819.384443
_symmetry_space_group_name_H-M "P -6 2 C"
_symmetry_group_IT_number 190
_symmetry_cell_setting 'hexagonal'
loop_
_space_group_symop_operation_xyz
x,y,z
-x+y,-x,1/2-z
-y,x-y,z
x,y,1/2-z
-x+y,-x,z
-y,x-y,1/2-z
x-y,-y,-z
-x,-x+y,-z
y,x,-z
y,x,1/2+z
x-y,-y,1/2+z
-x,-x+y,1/2+z
loop_
_atom_site_type_symbol
_atom_site_label
_atom_site_fract_x
_atom_site_fract_y
_atom_site_fract_z
Si Si1 0.716038 0.869791 0.655454
Si Si2 0.715256 0.605345 0.846325
Si Si3 0.000000 0.000000 0.403845
Si Si4 0.385604 0.432482 0.090429
O O1 0.699237 0.848058 0.750000
O O2 0.700064 0.730933 0.618210
O O3 0.605366 0.909097 0.625734
O O4 0.864544 0.994911 0.630811
O O5 0.757260 0.620196 0.750000
O O6 0.825916 0.594219 0.902871
O O7 0.567374 0.473879 0.857107
O O8 0.000000 0.000000 0.500000
O O9 0.445033 0.445033 0.000000
#
# Coordination Sequence:
#
# PCOD8328200 Si02
#       4
#    12  12   4  12
#     4  11  23  42  69  98 131 174 225 283 348 422
#     4  11  25  46  72  98 140 189 233 281 356 441
#     4  12  22  35  67 102 136 161 217 288 355 398
#     4  12  27  43  73 101 140 180 237 297 349 418
#
# _framework density 21.985458000000001
#
# number of rings (size 3 to 8) (size 9 to 14) (size 15 to 20)
#    0.000    0.600    3.000    5.100    4.200    0.000 
#    1.800    0.000    0.000    0.000    0.000    0.000 
#    0.000    0.000    0.000    0.000    0.000    0.000 
#
# Total GULP energy -495943.588277 kJ/mol
# GULP energy per Si atom -12398.589707 kJ/mol
# Density = 2.193542 g / cm^3
# Si number density = 21.985458 Si / 1000 Ang^3
#
#
#
# Elastic Constant Matrix: (Units=GPa)
#
#
# Indices 1 2 3 4 5 6 
#
# 1 100.1742 23.7888 4.4707 0.0000 0.0000 0.0000
# 2 23.7888 100.1742 4.4707 0.0000 0.0000 0.0000
# 3 4.4707 4.4707 50.3387 0.0000 0.0000 0.0000
# 4 0.0000 0.0000 0.0000 30.3735 0.0000 0.0000
# 5 0.0000 0.0000 0.0000 0.0000 30.3735 0.0000
# 6 0.0000 0.0000 0.0000 0.0000 0.0000 38.1927
#
#
#
# Elastic Compliance Matrix: (Units=1/GPa)
#
#
# Indices 1 2 3 4 5 6 
#
# 1 0.010605 -0.002486 -0.000721 0.000000 0.000000 0.000000
# 2 -0.002486 0.010605 -0.000721 0.000000 0.000000 0.000000
# 3 -0.000721 -0.000721 0.019993 0.000000 0.000000 0.000000
# 4 0.000000 0.000000 0.000000 0.032923 0.000000 0.000000
# 5 0.000000 0.000000 0.000000 0.000000 0.032923 0.000000
# 6 0.000000 0.000000 0.000000 0.000000 0.000000 0.026183
#
#
# Mechanical properties :
#
#
# Convention : Reuss Voigt Hill
#
# Bulk Modulus (GPa) = 29.98762 35.12753 32.55757
# Shear Modulus (GPa) = 32.85013 34.31839 33.58426
#
# Velocity S-wave (km/s) = 3.86965 3.95518 3.91265
# Velocity P-wave (km/s) = 5.79956 6.07209 5.93739
#
# Compressibility (1/GPa) = 0.03334709
#
# Stress axis : x y z
#
# Youngs Moduli (GPa) = 94.29320 94.29320 50.01626
#
# Poissons Ratio (x) = 0.23444 0.03607
# Poissons Ratio (y) = 0.23444 0.03607
# Poissons Ratio (z) = 0.06799 0.06799
#
# Static dielectric constant tensor:
#      x y z
#    x 4.206030 0.000000 0.000000 
#    y 0.000000 4.206030 0.000000 
#    z 0.000000 0.000000 3.701720 
# 
# 
# High freq. dielectric constant tensor:
#      x y z
#    x 1.869940 0.000000 0.000000 
#    y 0.000000 1.869940 0.000000 
#    z 0.000000 0.000000 1.858390 
# 
# From -- ./inp_files/3394.got.cif
#   From: 2010.06.25/outbox.cif.g09.slc.cpg/sg190_2_cif.got.tgz:3394.got - 2010.06.28 13:08:06.
