data_PCOD8328846
_publ_section_title
;
Structure prediction by ZEFSAII (Michael W. Deem and Ramdas Pophale) SiO2 
 PCOD8328846
Probable space group: P 6/M M M
;
_chemical_formula_sum "Si O2"
_cell_formula_units_Z 168
_cell_length_a 22.961135
_cell_length_b 22.961135
_cell_length_c 20.227645
_cell_angle_alpha 90.000000
_cell_angle_beta 90.000000
_cell_angle_gamma 120.000000
_cell_volume 9235.547766
_symmetry_space_group_name_H-M "P 6/M M M"
_symmetry_group_IT_number 191
_symmetry_cell_setting 'hexagonal'
loop_
_space_group_symop_operation_xyz
x,y,z
x-y,x,z
-y,x-y,z
-x,-y,z
-x+y,-x,z
y,-x+y,z
x-y,-y,-z
-x,-x+y,-z
y,x,-z
-y,-x,-z
-x+y,y,-z
x,x-y,-z
-x,-y,-z
-x+y,-x,-z
y,-x+y,-z
x,y,-z
x-y,x,-z
-y,x-y,-z
-x+y,y,z
x,x-y,z
-y,-x,z
y,x,z
x-y,-y,z
-x,-x+y,z
loop_
_atom_site_type_symbol
_atom_site_label
_atom_site_fract_x
_atom_site_fract_y
_atom_site_fract_z
Si Si1 0.714311 0.791824 0.170651
Si Si2 0.538179 0.205055 0.597787
Si Si3 0.635971 0.925091 0.712010
Si Si4 0.667344 0.466437 0.885504
Si Si5 0.645346 0.481565 0.259699
Si Si6 0.393401 0.316947 0.924015
Si Si7 0.735896 0.126710 0.572096
O O1 0.742252 0.871126 0.156805
O O2 0.775144 0.775144 0.165404
O O3 0.681609 0.776634 0.244052
O O4 0.655761 0.748068 0.118689
O O5 0.595862 0.191723 0.570097
O O6 0.548754 0.274377 0.567390
O O7 0.540532 0.212462 0.677148
O O8 0.467590 0.142509 0.574141
O O9 0.560003 0.886389 0.735291
O O10 0.649340 0.919610 0.634104
O O11 0.656360 0.000000 0.729298
O O12 0.735402 0.470803 0.914703
O O13 0.602053 0.397948 0.910774
O O14 0.673384 0.466131 0.806340
O O15 0.658905 0.529141 0.908122
O O16 0.563096 0.436905 0.258969
O O17 0.377425 0.377425 0.909240
O O18 0.378511 0.294826 0.000000
O O19 0.733986 0.093652 0.500000
O O20 0.804493 0.195508 0.581794
#
# Coordination Sequence:
#
# PCOD8328846 Si02
#       7
#    24  24  24  24  24  24  24
#     4  10  20  35  57  84 111 138 171 211 252 298
#     4   9  16  26  41  60  83 112 151 200 252 304
#     4  10  19  31  50  75  98 125 164 209 255 301
#     4  11  22  35  53  76 105 140 178 221 269 322
#     4   9  18  30  45  67  94 127 164 207 258 311
#     4  10  22  39  58  81 107 139 179 220 266 313
#     4   9  18  31  45  62  89 125 159 194 243 302
#
# _framework density 18.190581999999999
#
# number of rings (size 3 to 8) (size 9 to 14) (size 15 to 20)
#    0.000    2.286    1.429    1.571    0.000    3.714 
#    0.000    3.571    0.000    1.857    0.000    4.000 
#    0.000    0.000    0.000    3.571    0.000    0.000 
#
# Total GULP energy -2081730.585594 kJ/mol
# GULP energy per Si atom -12391.253486 kJ/mol
# Density = 1.814918 g / cm^3
# Si number density = 18.190582 Si / 1000 Ang^3
#
#
#
# Elastic Constant Matrix: (Units=GPa)
#
#
# Indices 1 2 3 4 5 6 
#
# 1 92.3992 54.4695 20.2597 0.0000 0.0000 0.0000
# 2 54.4695 92.3992 20.2597 0.0000 0.0000 0.0000
# 3 20.2597 20.2597 92.0486 0.0000 0.0000 0.0000
# 4 0.0000 0.0000 0.0000 12.1518 0.0000 0.0000
# 5 0.0000 0.0000 0.0000 0.0000 12.1518 0.0000
# 6 0.0000 0.0000 0.0000 0.0000 0.0000 18.9648
#
#
#
# Elastic Compliance Matrix: (Units=1/GPa)
#
#
# Indices 1 2 3 4 5 6 
#
# 1 0.016807 -0.009558 -0.001595 0.000000 0.000000 0.000000
# 2 -0.009558 0.016807 -0.001595 0.000000 0.000000 0.000000
# 3 -0.001595 -0.001595 0.011566 0.000000 0.000000 0.000000
# 4 0.000000 0.000000 0.000000 0.082293 0.000000 0.000000
# 5 0.000000 0.000000 0.000000 0.000000 0.082293 0.000000
# 6 0.000000 0.000000 0.000000 0.000000 0.000000 0.052729
#
#
# Mechanical properties :
#
#
# Convention : Reuss Voigt Hill
#
# Bulk Modulus (GPa) = 50.80739 51.86941 51.33840
# Shear Modulus (GPa) = 16.97492 20.77754 18.87623
#
# Velocity S-wave (km/s) = 3.05810 3.38333 3.22482
# Velocity P-wave (km/s) = 6.36086 6.62110 6.49228
#
# Compressibility (1/GPa) = 0.01968217
#
# Stress axis : x y z
#
# Youngs Moduli (GPa) = 59.49978 59.49978 86.45913
#
# Poissons Ratio (x) = 0.56869 0.13794
# Poissons Ratio (y) = 0.56869 0.13794
# Poissons Ratio (z) = 0.09493 0.09493
#
# Static dielectric constant tensor:
#      x y z
#    x 3.171300 0.000000 0.000000 
#    y 0.000000 3.171300 0.000000 
#    z 0.000000 0.000000 3.649910 
# 
# 
# High freq. dielectric constant tensor:
#      x y z
#    x 1.677820 0.000000 0.000000 
#    y 0.000000 1.677820 0.000000 
#    z 0.000000 0.000000 1.722560 
# 
# From -- ./inp_files/9162.got.cif
#   From: 2010.03.12/outbox.cif.g09.slc.cpg/sg191_5_cif.got.tgz:9162.got - 2010.04.01 12:09:02.
