data_PCOD8328820
_publ_section_title
;
Structure prediction by ZEFSAII (Michael W. Deem and Ramdas Pophale) SiO2 
 PCOD8328820
Probable space group: P 6/M M M
;
_chemical_formula_sum "Si O2"
_cell_formula_units_Z 108
_cell_length_a 19.712335
_cell_length_b 19.712335
_cell_length_c 18.120773
_cell_angle_alpha 90.000000
_cell_angle_beta 90.000000
_cell_angle_gamma 120.000000
_cell_volume 6097.944873
_symmetry_space_group_name_H-M "P 6/M M M"
_symmetry_group_IT_number 191
_symmetry_cell_setting 'hexagonal'
loop_
_space_group_symop_operation_xyz
x,y,z
x-y,x,z
-y,x-y,z
-x,-y,z
-x+y,-x,z
y,-x+y,z
x-y,-y,-z
-x,-x+y,-z
y,x,-z
-y,-x,-z
-x+y,y,-z
x,x-y,-z
-x,-y,-z
-x+y,-x,-z
y,-x+y,-z
x,y,-z
x-y,x,-z
-y,x-y,-z
-x+y,y,z
x,x-y,z
-y,-x,z
y,x,z
x-y,-y,z
-x,-x+y,z
loop_
_atom_site_type_symbol
_atom_site_label
_atom_site_fract_x
_atom_site_fract_y
_atom_site_fract_z
Si Si1 0.819298 0.180703 0.085426
Si Si2 0.088980 0.544490 0.258854
Si Si3 0.909834 0.819668 0.871449
Si Si4 0.151229 0.575615 0.583936
Si Si5 0.312633 0.907572 0.804818
Si Si6 0.174421 0.348842 0.695753
Si Si7 0.515094 0.757547 0.418117
Si Si8 0.911691 0.823382 0.695920
O O1 0.866120 0.133881 0.096418
O O2 0.865902 0.268123 0.119844
O O3 0.808932 0.191069 0.000000
O O4 0.089621 0.544811 0.348744
O O5 0.126559 0.631391 0.222868
O O6 0.000000 0.500000 0.234446
O O7 0.866018 0.866018 0.899315
O O8 0.907291 0.814581 0.783783
O O9 0.114055 0.557028 0.500000
O O10 0.205424 0.538698 0.597037
O O11 0.247164 0.888450 0.743435
O O12 0.361023 0.000000 0.817575
O O13 0.204355 0.408710 0.630132
O O14 0.131345 0.262689 0.660427
O O15 0.548495 0.774248 0.500000
O O16 0.869936 0.869936 0.667296
#
# Coordination Sequence:
#
# PCOD8328820 Si02
#       8
#    12  12  12  12  24  12  12  12
#     4  11  23  37  56  78 103 139 182 232 287 339
#     4  10  20  34  54  77 105 142 179 215 263 321
#     4  10  19  31  48  75 109 144 178 218 275 343
#     4  10  19  33  51  78 114 148 179 215 264 325
#     4  10  20  35  54  79 106 136 180 227 272 329
#     4  11  18  30  56  80 109 145 184 231 275 314
#     4  10  20  33  51  80 117 153 186 220 267 328
#     4  10  19  32  52  79 110 144 185 232 283 332
#
# _framework density 17.710885000000001
#
# number of rings (size 3 to 8) (size 9 to 14) (size 15 to 20)
#    0.000    1.778    4.444    1.778    0.000    3.778 
#    0.000    0.556    0.000    5.778    0.000    0.000 
#    0.000    0.889    0.000    0.000    0.000    0.000 
#
# Total GULP energy -1338760.884079 kJ/mol
# GULP energy per Si atom -12395.934112 kJ/mol
# Density = 1.767057 g / cm^3
# Si number density = 17.710885 Si / 1000 Ang^3
#
#
#
# Elastic Constant Matrix: (Units=GPa)
#
#
# Indices 1 2 3 4 5 6 
#
# 1 113.8724 51.6124 47.7303 0.0000 0.0000 0.0000
# 2 51.6124 113.8724 47.7303 0.0000 0.0000 0.0000
# 3 47.7303 47.7303 101.1764 0.0000 0.0000 0.0000
# 4 0.0000 0.0000 0.0000 18.8042 0.0000 0.0000
# 5 0.0000 0.0000 0.0000 0.0000 18.8042 0.0000
# 6 0.0000 0.0000 0.0000 0.0000 0.0000 31.1300
#
#
#
# Elastic Compliance Matrix: (Units=1/GPa)
#
#
# Indices 1 2 3 4 5 6 
#
# 1 0.012182 -0.003880 -0.003917 0.000000 0.000000 0.000000
# 2 -0.003880 0.012182 -0.003917 0.000000 0.000000 0.000000
# 3 -0.003917 -0.003917 0.013579 0.000000 0.000000 0.000000
# 4 0.000000 0.000000 0.000000 0.053180 0.000000 0.000000
# 5 0.000000 0.000000 0.000000 0.000000 0.053180 0.000000
# 6 0.000000 0.000000 0.000000 0.000000 0.000000 0.032123
#
#
# Mechanical properties :
#
#
# Convention : Reuss Voigt Hill
#
# Bulk Modulus (GPa) = 68.88447 69.22969 69.05708
# Shear Modulus (GPa) = 24.42716 25.87089 25.14902
#
# Velocity S-wave (km/s) = 3.71781 3.82610 3.77234
# Velocity P-wave (km/s) = 7.57679 7.66109 7.61906
#
# Compressibility (1/GPa) = 0.01451706
#
# Stress axis : x y z
#
# Youngs Moduli (GPa) = 82.08895 82.08895 73.64300
#
# Poissons Ratio (x) = 0.31849 0.28843
# Poissons Ratio (y) = 0.31849 0.28843
# Poissons Ratio (z) = 0.32151 0.32151
#
# Static dielectric constant tensor:
#      x y z
#    x 3.470050 0.000000 0.000000 
#    y 0.000000 3.470050 0.000000 
#    z 0.000000 0.000000 3.167800 
# 
# 
# High freq. dielectric constant tensor:
#      x y z
#    x 1.688830 0.000000 0.000000 
#    y 0.000000 1.688830 0.000000 
#    z 0.000000 0.000000 1.659440 
# 
# From -- ./inp_files/6232.got.cif
#   From: 2010.03.12/outbox.cif.g09.slc.cpg/sg191_4_cif.got.tgz:6232.got - 2010.04.01 12:09:02.
