data_PCOD8328223
_publ_section_title
;
Structure prediction by ZEFSAII (Michael W. Deem and Ramdas Pophale) SiO2 
 PCOD8328223
Probable space group: P 6/M M M
;
_chemical_formula_sum "Si O2"
_cell_formula_units_Z 84
_cell_length_a 22.260603
_cell_length_b 22.260603
_cell_length_c 12.833809
_cell_angle_alpha 90.000000
_cell_angle_beta 90.000000
_cell_angle_gamma 120.000000
_cell_volume 5507.570336
_symmetry_space_group_name_H-M "P 6/M M M"
_symmetry_group_IT_number 191
_symmetry_cell_setting 'hexagonal'
loop_
_space_group_symop_operation_xyz
x,y,z
x-y,x,z
-y,x-y,z
-x,-y,z
-x+y,-x,z
y,-x+y,z
x-y,-y,-z
-x,-x+y,-z
y,x,-z
-y,-x,-z
-x+y,y,-z
x,x-y,-z
-x,-y,-z
-x+y,-x,-z
y,-x+y,-z
x,y,-z
x-y,x,-z
-y,x-y,-z
-x+y,y,z
x,x-y,z
-y,-x,z
y,x,z
x-y,-y,z
-x,-x+y,z
loop_
_atom_site_type_symbol
_atom_site_label
_atom_site_fract_x
_atom_site_fract_y
_atom_site_fract_z
Si Si1 0.147156 0.436128 0.692733
Si Si2 0.525133 0.334197 0.500000
Si Si3 0.788128 0.077026 0.378240
Si Si4 0.526961 0.193612 0.882086
O O1 0.217650 0.435299 0.681033
O O2 0.145639 0.484748 0.601271
O O3 0.085816 0.356714 0.681772
O O4 0.141630 0.465883 0.804885
O O5 0.602089 0.397912 0.500000
O O6 0.530399 0.265200 0.500000
O O7 0.779141 0.086609 0.500000
O O8 0.866199 0.133802 0.342087
O O9 0.774790 0.000000 0.353653
O O10 0.595927 0.191854 0.854715
O O11 0.544369 0.272185 0.865209
O O12 0.502046 0.168601 0.000000
#
# Coordination Sequence:
#
# PCOD8328223 Si02
#       4
#    24  12  24  24
#     4   9  16  26  39  57  81 109 140 174 212 252
#     4  10  17  24  35  53  78 107 140 180 225 263
#     4   9  16  28  47  68  88 109 134 164 199 242
#     4   9  16  25  38  56  79 109 147 190 231 265
#
# _framework density 15.251734000000001
#
# number of rings (size 3 to 8) (size 9 to 14) (size 15 to 20)
#    0.000    2.857    1.429    1.286    0.000    1.143 
#    0.000    2.857    0.000    5.429    0.000    4.000 
#    0.000    0.000    0.000    0.000    0.000    0.000 
#
# Total GULP energy -1041182.211228 kJ/mol
# GULP energy per Si atom -12395.026324 kJ/mol
# Density = 1.521702 g / cm^3
# Si number density = 15.251734 Si / 1000 Ang^3
#
#
#
# Elastic Constant Matrix: (Units=GPa)
#
#
# Indices 1 2 3 4 5 6 
#
# 1 78.2089 42.4882 35.7585 0.0000 0.0000 0.0000
# 2 42.4882 78.2089 35.7585 0.0000 0.0000 0.0000
# 3 35.7585 35.7585 77.5554 0.0000 0.0000 0.0000
# 4 0.0000 0.0000 0.0000 13.4625 0.0000 0.0000
# 5 0.0000 0.0000 0.0000 0.0000 13.4625 0.0000
# 6 0.0000 0.0000 0.0000 0.0000 0.0000 17.8603
#
#
#
# Elastic Compliance Matrix: (Units=1/GPa)
#
#
# Indices 1 2 3 4 5 6 
#
# 1 0.019697 -0.008298 -0.005256 0.000000 0.000000 0.000000
# 2 -0.008298 0.019697 -0.005256 0.000000 0.000000 0.000000
# 3 -0.005256 -0.005256 0.017741 0.000000 0.000000 0.000000
# 4 0.000000 0.000000 0.000000 0.074280 0.000000 0.000000
# 5 0.000000 0.000000 0.000000 0.000000 0.074280 0.000000
# 6 0.000000 0.000000 0.000000 0.000000 0.000000 0.055990
#
#
# Mechanical properties :
#
#
# Convention : Reuss Voigt Hill
#
# Bulk Modulus (GPa) = 51.24029 51.33153 51.28591
# Shear Modulus (GPa) = 16.34999 16.95494 16.65247
#
# Velocity S-wave (km/s) = 3.27771 3.33779 3.30789
# Velocity P-wave (km/s) = 6.92775 6.97020 6.94901
#
# Compressibility (1/GPa) = 0.01951589
#
# Stress axis : x y z
#
# Youngs Moduli (GPa) = 50.76846 50.76846 56.36731
#
# Poissons Ratio (x) = 0.42126 0.29627
# Poissons Ratio (y) = 0.42126 0.29627
# Poissons Ratio (z) = 0.26684 0.26684
#
# Static dielectric constant tensor:
#      x y z
#    x 2.782890 0.000000 0.000000 
#    y 0.000000 2.782890 0.000000 
#    z 0.000000 0.000000 3.020480 
# 
# 
# High freq. dielectric constant tensor:
#      x y z
#    x 1.559030 0.000000 0.000000 
#    y 0.000000 1.559030 0.000000 
#    z 0.000000 0.000000 1.576260 
# 
# From -- ./inp_files/2398.got.cif
#   From: 2010.03.12/outbox.cif.g09.slc.cpg/sg191_2_cif.got.tgz:2398.got - 2010.04.01 12:09:02.
