data_PCOD8328516
_publ_section_title
;
Structure prediction by ZEFSAII (Michael W. Deem and Ramdas Pophale) SiO2 
 PCOD8328516
Probable space group: P 6/M M M
;
_chemical_formula_sum "Si O2"
_cell_formula_units_Z 120
_cell_length_a 27.317305
_cell_length_b 27.317305
_cell_length_c 11.771388
_cell_angle_alpha 90.000000
_cell_angle_beta 90.000000
_cell_angle_gamma 120.000000
_cell_volume 7607.360720
_symmetry_space_group_name_H-M "P 6/M M M"
_symmetry_group_IT_number 191
_symmetry_cell_setting 'hexagonal'
loop_
_space_group_symop_operation_xyz
x,y,z
x-y,x,z
-y,x-y,z
-x,-y,z
-x+y,-x,z
y,-x+y,z
x-y,-y,-z
-x,-x+y,-z
y,x,-z
-y,-x,-z
-x+y,y,-z
x,x-y,-z
-x,-y,-z
-x+y,-x,-z
y,-x+y,-z
x,y,-z
x-y,x,-z
-y,x-y,-z
-x+y,y,z
x,x-y,z
-y,-x,z
y,x,z
x-y,-y,z
-x,-x+y,z
loop_
_atom_site_type_symbol
_atom_site_label
_atom_site_fract_x
_atom_site_fract_y
_atom_site_fract_z
Si Si1 0.333840 0.065438 0.367015
Si Si2 0.914284 0.199753 0.000000
Si Si3 0.554886 0.333566 0.367973
Si Si4 0.737726 0.590494 0.000000
Si Si5 0.938480 0.173043 0.238631
Si Si6 0.440312 0.162379 0.246519
O O1 0.341040 0.077837 0.500000
O O2 0.287603 0.080730 0.321548
O O3 0.393006 0.106049 0.307077
O O4 0.314103 0.000000 0.340134
O O5 0.908970 0.256219 0.000000
O O6 0.946180 0.197823 0.111850
O O7 0.851976 0.148025 0.000000
O O8 0.541391 0.334425 0.500000
O O9 0.570652 0.285326 0.342483
O O10 0.607174 0.392827 0.328123
O O11 0.500343 0.322915 0.297954
O O12 0.705817 0.557067 0.113716
O O13 0.799288 0.598576 0.000000
O O14 0.893325 0.106676 0.245856
O O15 0.000000 0.183033 0.275445
O O16 0.427292 0.213646 0.264804
#
# Coordination Sequence:
#
# PCOD8328516 Si02
#       6
#    24  12  24  12  24  24
#     4  10  20  31  44  66  95 121 147 185 229 276
#     4   9  15  27  44  63  87 115 144 181 225 266
#     4   9  17  29  47  71  97 125 158 196 233 267
#     4   9  16  27  44  67  93 117 148 189 226 266
#     4  10  19  30  45  65  90 119 151 188 230 276
#     4  10  18  30  48  68  91 122 156 189 229 276
#
# _framework density 15.774196
#
# number of rings (size 3 to 8) (size 9 to 14) (size 15 to 20)
#    0.000    2.400    2.000    1.700    0.000    3.200 
#    0.000    1.000    0.000    0.800    0.000    4.200 
#    0.000    4.000    0.000    5.000    0.000    0.000 
#
# Total GULP energy -1487603.197462 kJ/mol
# GULP energy per Si atom -12396.693312 kJ/mol
# Density = 1.573829 g / cm^3
# Si number density = 15.774196 Si / 1000 Ang^3
#
#
#
# Elastic Constant Matrix: (Units=GPa)
#
#
# Indices 1 2 3 4 5 6 
#
# 1 97.4911 55.6188 46.0145 0.0000 0.0000 0.0000
# 2 55.6188 97.4911 46.0145 0.0000 0.0000 0.0000
# 3 46.0145 46.0145 98.5810 0.0000 0.0000 0.0000
# 4 0.0000 0.0000 0.0000 35.2875 0.0000 0.0000
# 5 0.0000 0.0000 0.0000 0.0000 35.2875 0.0000
# 6 0.0000 0.0000 0.0000 0.0000 0.0000 20.9361
#
#
#
# Elastic Compliance Matrix: (Units=1/GPa)
#
#
# Indices 1 2 3 4 5 6 
#
# 1 0.016480 -0.007402 -0.004237 0.000000 0.000000 0.000000
# 2 -0.007402 0.016480 -0.004237 0.000000 0.000000 0.000000
# 3 -0.004237 -0.004237 0.014100 0.000000 0.000000 0.000000
# 4 0.000000 0.000000 0.000000 0.028339 0.000000 0.000000
# 5 0.000000 0.000000 0.000000 0.000000 0.028339 0.000000
# 6 0.000000 0.000000 0.000000 0.000000 0.000000 0.047764
#
#
# Mechanical properties :
#
#
# Convention : Reuss Voigt Hill
#
# Bulk Modulus (GPa) = 65.33183 65.42876 65.38029
# Shear Modulus (GPa) = 26.54527 28.02992 27.28759
#
# Velocity S-wave (km/s) = 4.10668 4.21996 4.16370
# Velocity P-wave (km/s) = 7.99958 8.08161 8.04070
#
# Compressibility (1/GPa) = 0.01530647
#
# Stress axis : x y z
#
# Youngs Moduli (GPa) = 60.67893 60.67893 70.92329
#
# Poissons Ratio (x) = 0.44914 0.30053
# Poissons Ratio (y) = 0.44914 0.30053
# Poissons Ratio (z) = 0.25712 0.25712
#
# Static dielectric constant tensor:
#      x y z
#    x 2.862170 0.000000 0.000000 
#    y 0.000000 2.862170 0.000000 
#    z 0.000000 0.000000 3.237080 
# 
# 
# High freq. dielectric constant tensor:
#      x y z
#    x 1.585590 0.000000 0.000000 
#    y 0.000000 1.585590 0.000000 
#    z 0.000000 0.000000 1.615420 
# 
# From -- ./inp_files/3225.got.cif
#   From: 2010.03.12/outbox.cif.g09.slc.cpg/sg191_2_cif.got.tgz:3225.got - 2010.04.01 12:09:02.
