data_PCOD8328060
_publ_section_title
;
Structure prediction by ZEFSAII (Michael W. Deem and Ramdas Pophale) SiO2 
 PCOD8328060
Probable space group: P -6 2 C
;
_chemical_formula_sum "Si O2"
_cell_formula_units_Z 72
_cell_length_a 23.910909
_cell_length_b 23.910909
_cell_length_c 8.787417
_cell_angle_alpha 90.000000
_cell_angle_beta 90.000000
_cell_angle_gamma 120.000000
_cell_volume 4350.949483
_symmetry_space_group_name_H-M "P -6 2 C"
_symmetry_group_IT_number 190
_symmetry_cell_setting 'hexagonal'
loop_
_space_group_symop_operation_xyz
x,y,z
-x+y,-x,1/2-z
-y,x-y,z
x,y,1/2-z
-x+y,-x,z
-y,x-y,1/2-z
x-y,-y,-z
-x,-x+y,-z
y,x,-z
y,x,1/2+z
x-y,-y,1/2+z
-x,-x+y,1/2+z
loop_
_atom_site_type_symbol
_atom_site_label
_atom_site_fract_x
_atom_site_fract_y
_atom_site_fract_z
Si Si1 0.513673 0.376116 0.930581
Si Si2 0.810547 0.174768 0.917197
Si Si3 0.068324 0.367381 0.430428
Si Si4 0.631217 0.492582 0.071214
Si Si5 0.254741 0.516542 0.082819
Si Si6 0.626428 0.931933 0.928777
O O1 0.508888 0.380730 0.750000
O O2 0.541163 0.327851 0.973760
O O3 0.561249 0.445589 0.000964
O O4 0.443356 0.351371 0.999355
O O5 0.809960 0.145713 0.750000
O O6 0.883815 0.223412 0.972820
O O7 0.778108 0.218526 0.902516
O O8 0.770282 0.116912 0.034836
O O9 0.064162 0.373471 0.250000
O O10 0.092764 0.437418 0.501720
O O11 0.000000 0.316599 0.500000
O O12 0.625150 0.495986 0.250000
O O13 0.679602 0.465218 0.032897
O O14 0.254449 0.545408 0.250000
O O15 0.621974 0.937990 0.750000
O O16 0.677095 0.000000 0.000000
#
# Coordination Sequence:
#
# PCOD8328060 Si02
#       6
#    12  12  12  12  12  12
#     4  10  20  35  51  66  89 120 156 198 247 298
#     4   8  16  32  51  70  94 123 152 187 228 273
#     4  10  20  34  52  73  98 127 160 194 234 285
#     4  11  21  32  48  69  93 119 153 199 248 295
#     4   8  16  32  50  64  82 114 150 187 236 292
#     4  11  21  33  51  74  98 125 159 195 235 285
#
# _framework density 16.548112
#
# number of rings (size 3 to 8) (size 9 to 14) (size 15 to 20)
#    0.000    2.333    0.000    6.000    0.000    8.000 
#    1.000    3.333    0.000    0.000    0.000    0.000 
#    0.000    0.000    0.000    0.500    0.000    8.000 
#
# Total GULP energy -892488.776831 kJ/mol
# GULP energy per Si atom -12395.677456 kJ/mol
# Density = 1.651045 g / cm^3
# Si number density = 16.548112 Si / 1000 Ang^3
#
#
#
# Elastic Constant Matrix: (Units=GPa)
#
#
# Indices 1 2 3 4 5 6 
#
# 1 79.6798 46.5056 47.0165 0.0000 0.0000 0.0000
# 2 46.5056 79.6798 47.0165 0.0000 0.0000 0.0000
# 3 47.0165 47.0165 119.6177 0.0000 0.0000 0.0000
# 4 0.0000 0.0000 0.0000 19.0703 0.0000 0.0000
# 5 0.0000 0.0000 0.0000 0.0000 19.0703 0.0000
# 6 0.0000 0.0000 0.0000 0.0000 0.0000 16.5871
#
#
#
# Elastic Compliance Matrix: (Units=1/GPa)
#
#
# Indices 1 2 3 4 5 6 
#
# 1 0.020676 -0.009468 -0.004405 0.000000 0.000000 0.000000
# 2 -0.009468 0.020676 -0.004405 0.000000 0.000000 0.000000
# 3 -0.004405 -0.004405 0.011823 0.000000 0.000000 0.000000
# 4 0.000000 0.000000 0.000000 0.052437 0.000000 0.000000
# 5 0.000000 0.000000 0.000000 0.000000 0.052437 0.000000
# 6 0.000000 0.000000 0.000000 0.000000 0.000000 0.060288
#
#
# Mechanical properties :
#
#
# Convention : Reuss Voigt Hill
#
# Bulk Modulus (GPa) = 60.17829 62.22830 61.20330
# Shear Modulus (GPa) = 19.19874 20.17478 19.68676
#
# Velocity S-wave (km/s) = 3.40983 3.49543 3.45290
# Velocity P-wave (km/s) = 7.20744 7.34689 7.27750
#
# Compressibility (1/GPa) = 0.01661729
#
# Stress axis : x y z
#
# Youngs Moduli (GPa) = 48.36576 48.36576 84.58107
#
# Poissons Ratio (x) = 0.45794 0.37260
# Poissons Ratio (y) = 0.45794 0.37260
# Poissons Ratio (z) = 0.21306 0.21306
#
# Static dielectric constant tensor:
#      x y z
#    x 3.183320 0.000000 0.000000 
#    y 0.000000 3.183320 0.000000 
#    z 0.000000 0.000000 3.173710 
# 
# 
# High freq. dielectric constant tensor:
#      x y z
#    x 1.612370 0.000000 0.000000 
#    y 0.000000 1.612370 0.000000 
#    z 0.000000 0.000000 1.647180 
# 
# From -- ./inp_files/1213.got.cif
#   From: 2010.06.25/outbox.cif.g09.slc.cpg/sg190_1_cif.got.tgz:1213.got - 2010.06.28 13:08:06.
