data_PCOD8328047
_publ_section_title
;
Structure prediction by ZEFSAII (Michael W. Deem and Ramdas Pophale) SiO2 
 PCOD8328047
Probable space group: P -6 2 C
;
_chemical_formula_sum "Si O2"
_cell_formula_units_Z 72
_cell_length_a 23.705077
_cell_length_b 23.705077
_cell_length_c 8.626468
_cell_angle_alpha 90.000000
_cell_angle_beta 90.000000
_cell_angle_gamma 120.000000
_cell_volume 4198.038219
_symmetry_space_group_name_H-M "P -6 2 C"
_symmetry_group_IT_number 190
_symmetry_cell_setting 'hexagonal'
loop_
_space_group_symop_operation_xyz
x,y,z
-x+y,-x,1/2-z
-y,x-y,z
x,y,1/2-z
-x+y,-x,z
-y,x-y,1/2-z
x-y,-y,-z
-x,-x+y,-z
y,x,-z
y,x,1/2+z
x-y,-y,1/2+z
-x,-x+y,1/2+z
loop_
_atom_site_type_symbol
_atom_site_label
_atom_site_fract_x
_atom_site_fract_y
_atom_site_fract_z
Si Si1 0.070291 0.597431 0.431693
Si Si2 0.814370 0.408435 0.068537
Si Si3 0.260043 0.190824 0.066883
Si Si4 0.860374 0.929720 0.065816
Si Si5 0.743286 0.260700 0.432127
Si Si6 0.144384 0.745782 0.432196
O O1 0.064847 0.594888 0.250000
O O2 0.117205 0.570193 0.483942
O O3 0.098914 0.671506 0.490144
O O4 0.000000 0.551330 0.500000
O O5 0.827779 0.413921 0.250000
O O6 0.785692 0.334792 0.010587
O O7 0.763161 0.431730 0.025486
O O8 0.249025 0.185821 0.250000
O O9 0.246194 0.246194 0.000000
O O10 0.211732 0.121583 0.989877
O O11 0.332926 0.209163 0.025605
O O12 0.863672 0.931564 0.250000
O O13 0.875875 0.875875 0.000000
O O14 0.912919 0.000000 0.000000
O O15 0.751425 0.253771 0.250000
O O16 0.768715 0.218839 0.524769
O O17 0.137676 0.753399 0.250000
#
# Coordination Sequence:
#
# PCOD8328047 Si02
#       6
#    12  12  12  12  12  12
#     4  10  20  32  48  70  97 128 163 200 243 289
#     4   9  17  30  49  72  99 128 161 197 238 286
#     4  11  21  34  52  75 101 131 165 203 246 293
#     4  11  21  35  53  76 104 134 167 203 244 290
#     4   9  17  30  49  73  99 130 163 199 241 290
#     4  10  20  33  49  72 100 131 164 202 245 292
#
# _framework density 17.150867999999999
#
# number of rings (size 3 to 8) (size 9 to 14) (size 15 to 20)
#    0.000    2.000    0.000    6.000    0.000    5.333 
#    0.000    0.000    0.000    3.000    0.000    2.333 
#    0.000    0.000    0.000    0.000    0.000    0.000 
#
# Total GULP energy -893063.342041 kJ/mol
# GULP energy per Si atom -12403.657528 kJ/mol
# Density = 1.711183 g / cm^3
# Si number density = 17.150868 Si / 1000 Ang^3
#
#
#
# Elastic Constant Matrix: (Units=GPa)
#
#
# Indices 1 2 3 4 5 6 
#
# 1 117.4184 60.8991 40.3013 0.0000 0.0000 0.0000
# 2 60.8991 117.4184 40.3013 0.0000 0.0000 0.0000
# 3 40.3013 40.3013 92.4425 0.0000 0.0000 0.0000
# 4 0.0000 0.0000 0.0000 28.2684 0.0000 0.0000
# 5 0.0000 0.0000 0.0000 0.0000 28.2684 0.0000
# 6 0.0000 0.0000 0.0000 0.0000 0.0000 28.2597
#
#
#
# Elastic Compliance Matrix: (Units=1/GPa)
#
#
# Indices 1 2 3 4 5 6 
#
# 1 0.012339 -0.005354 -0.003045 0.000000 0.000000 0.000000
# 2 -0.005354 0.012339 -0.003045 0.000000 0.000000 0.000000
# 3 -0.003045 -0.003045 0.013472 0.000000 0.000000 0.000000
# 4 0.000000 0.000000 0.000000 0.035375 0.000000 0.000000
# 5 0.000000 0.000000 0.000000 0.000000 0.035375 0.000000
# 6 0.000000 0.000000 0.000000 0.000000 0.000000 0.035386
#
#
# Mechanical properties :
#
#
# Convention : Reuss Voigt Hill
#
# Bulk Modulus (GPa) = 65.52428 67.80919 66.66673
# Shear Modulus (GPa) = 29.02558 29.34446 29.18502
#
# Velocity S-wave (km/s) = 4.11830 4.14086 4.12960
# Velocity P-wave (km/s) = 7.80394 7.90475 7.85451
#
# Compressibility (1/GPa) = 0.01526152
#
# Stress axis : x y z
#
# Youngs Moduli (GPa) = 81.04589 81.04589 74.22561
#
# Poissons Ratio (x) = 0.43395 0.22601
# Poissons Ratio (y) = 0.43395 0.22601
# Poissons Ratio (z) = 0.24678 0.24678
#
# Static dielectric constant tensor:
#      x y z
#    x 3.190740 0.000000 0.000000 
#    y 0.000000 3.190740 0.000000 
#    z 0.000000 0.000000 3.234440 
# 
# 
# High freq. dielectric constant tensor:
#      x y z
#    x 1.652530 0.000000 0.000000 
#    y 0.000000 1.652530 0.000000 
#    z 0.000000 0.000000 1.672820 
# 
# From -- ./inp_files/1180.got.cif
#   From: 2010.06.25/outbox.cif.g09.slc.cpg/sg190_1_cif.got.tgz:1180.got - 2010.06.28 13:08:06.
