data_PCOD8328010
_publ_section_title
;
Structure prediction by ZEFSAII (Michael W. Deem and Ramdas Pophale) SiO2 
 PCOD8328010
Probable space group: P -6 2 C
;
_chemical_formula_sum "Si O2"
_cell_formula_units_Z 36
_cell_length_a 15.628178
_cell_length_b 15.628178
_cell_length_c 10.376292
_cell_angle_alpha 90.000000
_cell_angle_beta 90.000000
_cell_angle_gamma 120.000000
_cell_volume 2194.772523
_symmetry_space_group_name_H-M "P -6 2 C"
_symmetry_group_IT_number 190
_symmetry_cell_setting 'hexagonal'
loop_
_space_group_symop_operation_xyz
x,y,z
-x+y,-x,1/2-z
-y,x-y,z
x,y,1/2-z
-x+y,-x,z
-y,x-y,1/2-z
x-y,-y,-z
-x,-x+y,-z
y,x,-z
y,x,1/2+z
x-y,-y,1/2+z
-x,-x+y,1/2+z
loop_
_atom_site_type_symbol
_atom_site_label
_atom_site_fract_x
_atom_site_fract_y
_atom_site_fract_z
Si Si1 0.774841 0.114516 0.000981
Si Si2 0.232966 0.117829 0.750000
Si Si3 0.545614 0.302096 0.396114
Si Si4 0.114371 0.884497 0.750000
O O1 0.719821 0.178358 0.004506
O O2 0.845674 0.142293 0.123564
O O3 0.841101 0.143543 0.874130
O O4 0.691291 0.000000 0.000000
O O5 0.149122 0.148339 0.750000
O O6 0.177788 0.001182 0.750000
O O7 0.586665 0.225383 0.417636
O O8 0.505988 0.292585 0.250000
#
# Coordination Sequence:
#
# PCOD8328010 Si02
#       4
#    12   6  12   6
#     4  10  19  33  53  79 107 137 177 222 261 308
#     4  10  21  32  50  78 106 144 175 222 270 306
#     4   8  16  33  60  75  97 143 178 208 256 322
#     4  10  19  34  52  70 108 144 181 214 258 330
#
# _framework density 16.402612000000001
#
# number of rings (size 3 to 8) (size 9 to 14) (size 15 to 20)
#    0.667    2.000    1.667    1.333    0.000    0.000 
#    0.000    8.333    0.000    0.000    0.000    0.000 
#    0.000    0.000    0.000    0.000    0.000    0.000 
#
# Total GULP energy -446219.234336 kJ/mol
# GULP energy per Si atom -12394.978732 kJ/mol
# Density = 1.636528 g / cm^3
# Si number density = 16.402612 Si / 1000 Ang^3
#
#
#
# Elastic Constant Matrix: (Units=GPa)
#
#
# Indices 1 2 3 4 5 6 
#
# 1 94.8170 56.5915 49.1677 0.0000 0.0000 0.0000
# 2 56.5915 94.8170 49.1677 0.0000 0.0000 0.0000
# 3 49.1677 49.1677 121.0232 0.0000 0.0000 0.0000
# 4 0.0000 0.0000 0.0000 64.2679 0.0001 0.0000
# 5 0.0000 0.0000 0.0000 0.0001 64.2678 0.0000
# 6 0.0000 0.0000 0.0000 0.0000 0.0000 19.1127
#
#
#
# Elastic Compliance Matrix: (Units=1/GPa)
#
#
# Indices 1 2 3 4 5 6 
#
# 1 0.017566 -0.008594 -0.003645 0.000000 0.000000 0.000000
# 2 -0.008594 0.017566 -0.003645 0.000000 0.000000 0.000000
# 3 -0.003645 -0.003645 0.011225 0.000000 0.000000 0.000000
# 4 0.000000 0.000000 0.000000 0.015560 0.000000 0.000000
# 5 0.000000 0.000000 0.000000 0.000000 0.015560 0.000000
# 6 0.000000 0.000000 0.000000 0.000000 0.000000 0.052321
#
#
# Mechanical properties :
#
#
# Convention : Reuss Voigt Hill
#
# Bulk Modulus (GPa) = 68.54727 68.94565 68.74646
# Shear Modulus (GPa) = 30.04275 39.91171 34.97723
#
# Velocity S-wave (km/s) = 4.28434 4.93815 4.62282
# Velocity P-wave (km/s) = 8.14588 8.63935 8.39624
#
# Compressibility (1/GPa) = 0.01458847
#
# Stress axis : x y z
#
# Youngs Moduli (GPa) = 56.92726 56.92726 89.09023
#
# Poissons Ratio (x) = 0.48925 0.32474
# Poissons Ratio (y) = 0.48925 0.32474
# Poissons Ratio (z) = 0.20750 0.20750
#
# Static dielectric constant tensor:
#      x y z
#    x 2.911840 0.000000 0.000000 
#    y 0.000000 2.911840 0.000000 
#    z 0.000000 0.000000 3.065580 
# 
# 
# High freq. dielectric constant tensor:
#      x y z
#    x 1.620700 0.000000 0.000000 
#    y 0.000000 1.620700 0.000000 
#    z 0.000000 0.000000 1.632050 
# 
# From -- ./inp_files/467.got.cif
#   From: 2010.06.25/outbox.cif.g09.slc.cpg/sg190_1_cif.got.tgz:467.got - 2010.06.28 13:08:06.
