data_PCOD8328883
_publ_section_title
;
Structure prediction by ZEFSAII (Michael W. Deem and Ramdas Pophale) SiO2 
 PCOD8328883
Probable space group: P 6/M M M
;
_chemical_formula_sum "Si O2"
_cell_formula_units_Z 96
_cell_length_a 22.618077
_cell_length_b 22.618077
_cell_length_c 11.277701
_cell_angle_alpha 90.000000
_cell_angle_beta 90.000000
_cell_angle_gamma 120.000000
_cell_volume 4996.461719
_symmetry_space_group_name_H-M "P 6/M M M"
_symmetry_group_IT_number 191
_symmetry_cell_setting 'hexagonal'
loop_
_space_group_symop_operation_xyz
x,y,z
x-y,x,z
-y,x-y,z
-x,-y,z
-x+y,-x,z
y,-x+y,z
x-y,-y,-z
-x,-x+y,-z
y,x,-z
-y,-x,-z
-x+y,y,-z
x,x-y,-z
-x,-y,-z
-x+y,-x,-z
y,-x+y,-z
x,y,-z
x-y,x,-z
-y,x-y,-z
-x+y,y,z
x,x-y,z
-y,-x,z
y,x,z
x-y,-y,z
-x,-x+y,z
loop_
_atom_site_type_symbol
_atom_site_label
_atom_site_fract_x
_atom_site_fract_y
_atom_site_fract_z
Si Si1 0.783029 0.566057 0.860897
Si Si2 0.159345 0.079673 0.638623
Si Si3 0.154392 0.845609 0.693003
Si Si4 0.656806 0.920188 0.500000
Si Si5 0.000000 0.569269 0.634574
Si Si6 0.494733 0.636853 0.257012
Si Si7 0.178721 0.686523 0.500000
O O1 0.821293 0.642586 0.808004
O O2 0.703286 0.523713 0.825107
O O3 0.787565 0.575129 0.000000
O O4 0.114256 0.114256 0.668715
O O5 0.181875 0.090938 0.500000
O O6 0.227432 0.113716 0.720647
O O7 0.104524 0.779134 0.619699
O O8 0.576662 0.894325 0.500000
O O9 0.700403 0.000000 0.500000
O O10 0.934447 0.555639 0.713017
O O11 0.000000 0.500000 0.617420
O O12 0.000000 0.596605 0.500000
O O13 0.428944 0.571057 0.197559
O O14 0.466542 0.650128 0.381311
O O15 0.234172 0.765829 0.500000
#
# Coordination Sequence:
#
# PCOD8328883 Si02
#       7
#    12  12  12  12  12  24  12
#     4  12  27  47  63  79 116 166 217 266 300 341
#     4  10  19  32  56  95 139 174 201 237 297 374
#     4  11  20  37  55  88 122 163 209 253 303 363
#     4  11  19  29  57  90 119 154 190 240 308 378
#     4   9  18  32  59  99 129 149 174 224 305 386
#     4  11  22  39  63  92 123 152 193 243 304 375
#     4  12  19  34  54  89 127 155 180 232 310 373
#
# _framework density 19.213595999999999
#
# number of rings (size 3 to 8) (size 9 to 14) (size 15 to 20)
#    0.000    1.125    7.500    1.250    1.750    1.000 
#    3.000    0.625    0.000    2.250    0.000    0.000 
#    0.000    1.000    0.000    0.000    0.000    0.000 
#
# Total GULP energy -1189567.909207 kJ/mol
# GULP energy per Si atom -12391.332388 kJ/mol
# Density = 1.916987 g / cm^3
# Si number density = 19.213596 Si / 1000 Ang^3
#
#
#
# Elastic Constant Matrix: (Units=GPa)
#
#
# Indices 1 2 3 4 5 6 
#
# 1 127.5751 63.7466 49.9901 0.0000 0.0000 0.0000
# 2 63.7466 127.5751 49.9901 0.0000 0.0000 0.0000
# 3 49.9901 49.9901 105.5714 0.0000 0.0000 0.0000
# 4 0.0000 0.0000 0.0000 7.1455 0.0000 0.0000
# 5 0.0000 0.0000 0.0000 0.0000 7.1455 0.0000
# 6 0.0000 0.0000 0.0000 0.0000 0.0000 31.9142
#
#
#
# Elastic Compliance Matrix: (Units=1/GPa)
#
#
# Indices 1 2 3 4 5 6 
#
# 1 0.011306 -0.004361 -0.003289 0.000000 0.000000 0.000000
# 2 -0.004361 0.011306 -0.003289 0.000000 0.000000 0.000000
# 3 -0.003289 -0.003289 0.012587 0.000000 0.000000 0.000000
# 4 0.000000 0.000000 0.000000 0.139949 0.000000 0.000000
# 5 0.000000 0.000000 0.000000 0.000000 0.139949 0.000000
# 6 0.000000 0.000000 0.000000 0.000000 0.000000 0.031334
#
#
# Mechanical properties :
#
#
# Convention : Reuss Voigt Hill
#
# Bulk Modulus (GPa) = 75.06057 76.46389 75.76223
# Shear Modulus (GPa) = 13.41384 22.37401 17.89393
#
# Velocity S-wave (km/s) = 2.64511 3.41616 3.05506
# Velocity P-wave (km/s) = 6.96276 7.44603 7.20844
#
# Compressibility (1/GPa) = 0.01332257
#
# Stress axis : x y z
#
# Youngs Moduli (GPa) = 88.44688 88.44688 79.44778
#
# Poissons Ratio (x) = 0.38570 0.26129
# Poissons Ratio (y) = 0.38570 0.26129
# Poissons Ratio (z) = 0.29088 0.29088
#
# Static dielectric constant tensor:
#      x y z
#    x 3.741230 0.000000 0.000000 
#    y 0.000000 3.741230 0.000000 
#    z 0.000000 0.000000 3.026970 
# 
# 
# High freq. dielectric constant tensor:
#      x y z
#    x 1.764320 0.000000 0.000000 
#    y 0.000000 1.764320 0.000000 
#    z 0.000000 0.000000 1.682600 
# 
# From -- ./inp_files/2891.got.cif
#   From: 2010.03.12/outbox.cif.g09.slc.cpg/sg191_2_cif.got.tgz:2891.got - 2010.04.01 12:09:02.
