data_PCOD8328315
_publ_section_title
;
Structure prediction by ZEFSAII (Michael W. Deem and Ramdas Pophale) SiO2 
 PCOD8328315
Probable space group: P 6/M M M
;
_chemical_formula_sum "Si O2"
_cell_formula_units_Z 132
_cell_length_a 17.964809
_cell_length_b 17.964809
_cell_length_c 28.072208
_cell_angle_alpha 90.000000
_cell_angle_beta 90.000000
_cell_angle_gamma 120.000000
_cell_volume 7846.074241
_symmetry_space_group_name_H-M "P 6/M M M"
_symmetry_group_IT_number 191
_symmetry_cell_setting 'hexagonal'
loop_
_space_group_symop_operation_xyz
x,y,z
x-y,x,z
-y,x-y,z
-x,-y,z
-x+y,-x,z
y,-x+y,z
x-y,-y,-z
-x,-x+y,-z
y,x,-z
-y,-x,-z
-x+y,y,-z
x,x-y,-z
-x,-y,-z
-x+y,-x,-z
y,-x+y,-z
x,y,-z
x-y,x,-z
-y,x-y,-z
-x+y,y,z
x,x-y,z
-y,-x,z
y,x,z
x-y,-y,z
-x,-x+y,z
loop_
_atom_site_type_symbol
_atom_site_label
_atom_site_fract_x
_atom_site_fract_y
_atom_site_fract_z
Si Si1 0.634777 0.731878 0.778809
Si Si2 0.360532 0.263828 0.054783
Si Si3 0.506689 0.838370 0.865242
Si Si4 0.503385 0.669260 0.697350
Si Si5 0.501884 0.669337 0.500000
Si Si6 0.904508 0.540465 0.402544
O O1 0.668639 0.834320 0.779587
O O2 0.715719 0.715719 0.781627
O O3 0.572137 0.684786 0.822738
O O4 0.582844 0.687847 0.730740
O O5 0.326512 0.163256 0.066803
O O6 0.284219 0.284219 0.066437
O O7 0.444997 0.324545 0.085306
O O8 0.389021 0.284214 0.000000
O O9 0.426297 0.852594 0.860325
O O10 0.474071 0.737036 0.863455
O O11 0.469136 0.734568 0.710279
O O12 0.427910 0.572091 0.705570
O O13 0.535942 0.687697 0.642833
O O14 0.428671 0.571330 0.500000
O O15 0.460149 0.730075 0.500000
O O16 0.558665 0.688633 0.452020
O O17 0.902288 0.451144 0.407495
O O18 0.000000 0.618168 0.393898
#
# Coordination Sequence:
#
# PCOD8328315 Si02
#       6
#    24  24  24  24  12  24
#     4  10  21  35  51  71  94 121 152 188 230 274
#     4   9  18  32  49  69  93 122 156 194 237 282
#     4  10  20  33  49  70  97 128 160 192 226 265
#     4  10  19  30  45  66  93 123 154 187 223 264
#     4  10  18  27  39  55  76 101 132 174 225 276
#     4   9  17  28  41  56  76 106 144 183 220 261
#
# _framework density 16.823701
#
# number of rings (size 3 to 8) (size 9 to 14) (size 15 to 20)
#    0.000    2.364    0.000    2.909    0.000    4.727 
#    0.000    4.545    0.000    1.455    0.000    1.273 
#    0.000    4.364    0.000    0.182    0.000    0.000 
#
# Total GULP energy -1636285.126426 kJ/mol
# GULP energy per Si atom -12396.099443 kJ/mol
# Density = 1.678541 g / cm^3
# Si number density = 16.823701 Si / 1000 Ang^3
#
#
#
# Elastic Constant Matrix: (Units=GPa)
#
#
# Indices 1 2 3 4 5 6 
#
# 1 85.2404 56.4741 35.8772 0.0000 0.0000 0.0000
# 2 56.4741 85.2404 35.8772 0.0000 0.0000 0.0000
# 3 35.8772 35.8772 97.6867 0.0000 0.0000 0.0000
# 4 0.0000 0.0000 0.0000 20.6841 0.0000 0.0000
# 5 0.0000 0.0000 0.0000 0.0000 20.6841 0.0000
# 6 0.0000 0.0000 0.0000 0.0000 0.0000 14.3832
#
#
#
# Elastic Compliance Matrix: (Units=1/GPa)
#
#
# Indices 1 2 3 4 5 6 
#
# 1 0.021716 -0.013047 -0.003184 0.000000 0.000000 0.000000
# 2 -0.013047 0.021716 -0.003184 0.000000 0.000000 0.000000
# 3 -0.003184 -0.003184 0.012575 0.000000 0.000000 0.000000
# 4 0.000000 0.000000 0.000000 0.048346 0.000000 0.000000
# 5 0.000000 0.000000 0.000000 0.000000 0.048346 0.000000
# 6 0.000000 0.000000 0.000000 0.000000 0.000000 0.069526
#
#
# Mechanical properties :
#
#
# Convention : Reuss Voigt Hill
#
# Bulk Modulus (GPa) = 58.21534 58.29160 58.25347
# Shear Modulus (GPa) = 18.74203 20.47951 19.61077
#
# Velocity S-wave (km/s) = 3.34132 3.49277 3.41788
# Velocity P-wave (km/s) = 7.04019 7.14070 7.09062
#
# Compressibility (1/GPa) = 0.01717760
#
# Stress axis : x y z
#
# Youngs Moduli (GPa) = 46.04973 46.04973 79.52090
#
# Poissons Ratio (x) = 0.60082 0.25317
# Poissons Ratio (y) = 0.60082 0.25317
# Poissons Ratio (z) = 0.14661 0.14661
#
# Static dielectric constant tensor:
#      x y z
#    x 2.990390 0.000000 0.000000 
#    y 0.000000 2.990390 0.000000 
#    z 0.000000 0.000000 3.520390 
# 
# 
# High freq. dielectric constant tensor:
#      x y z
#    x 1.621680 0.000000 0.000000 
#    y 0.000000 1.621680 0.000000 
#    z 0.000000 0.000000 1.674160 
# 
# From -- ./inp_files/9779.got.cif
#   From: 2010.03.12/outbox.cif.g09.slc.cpg/sg191_5_cif.got.tgz:9779.got - 2010.04.01 12:09:02.
