data_PCOD8328519
_publ_section_title
;
Structure prediction by ZEFSAII (Michael W. Deem and Ramdas Pophale) SiO2 
 PCOD8328519
Probable space group: P 6/M M M
;
_chemical_formula_sum "Si O2"
_cell_formula_units_Z 84
_cell_length_a 22.275663
_cell_length_b 22.275663
_cell_length_c 12.072291
_cell_angle_alpha 90.000000
_cell_angle_beta 90.000000
_cell_angle_gamma 120.000000
_cell_volume 5187.780653
_symmetry_space_group_name_H-M "P 6/M M M"
_symmetry_group_IT_number 191
_symmetry_cell_setting 'hexagonal'
loop_
_space_group_symop_operation_xyz
x,y,z
x-y,x,z
-y,x-y,z
-x,-y,z
-x+y,-x,z
y,-x+y,z
x-y,-y,-z
-x,-x+y,-z
y,x,-z
-y,-x,-z
-x+y,y,-z
x,x-y,-z
-x,-y,-z
-x+y,-x,-z
y,-x+y,-z
x,y,-z
x-y,x,-z
-y,x-y,-z
-x+y,y,z
x,x-y,z
-y,-x,z
y,x,z
x-y,-y,z
-x,-x+y,z
loop_
_atom_site_type_symbol
_atom_site_label
_atom_site_fract_x
_atom_site_fract_y
_atom_site_fract_z
Si Si1 0.804323 0.471088 0.368782
Si Si2 0.391533 0.473753 0.000000
Si Si3 0.585601 0.665920 0.223977
Si Si4 0.923585 0.713113 0.873669
O O1 0.809087 0.476470 0.500000
O O2 0.734972 0.469943 0.326369
O O3 0.801953 0.400977 0.327931
O O4 0.872780 0.538296 0.323581
O O5 0.346656 0.457300 0.889203
O O6 0.427472 0.427472 0.000000
O O7 0.445240 0.554761 0.000000
O O8 0.607359 0.607359 0.245658
O O9 0.653510 0.741113 0.212400
O O10 0.869128 0.738256 0.847284
O O11 0.000000 0.779157 0.857183
O O12 0.915540 0.684818 0.000000
#
# Coordination Sequence:
#
# PCOD8328519 Si02
#       4
#    24  12  24  24
#     4  10  21  36  51  65  85 118 159 198 234 275
#     4   9  16  26  41  64  93 118 138 168 218 275
#     4  10  18  30  48  71  95 117 145 185 233 281
#     4   9  16  27  44  67  94 122 152 184 221 267
#
# _framework density 16.191894999999999
#
# number of rings (size 3 to 8) (size 9 to 14) (size 15 to 20)
#    0.000    2.429    1.429    2.000    0.000    3.429 
#    0.000    1.429    0.000    0.286    0.000    4.000 
#    0.000    0.000    0.000    0.000    0.000    0.000 
#
# Total GULP energy -1041390.513771 kJ/mol
# GULP energy per Si atom -12397.506116 kJ/mol
# Density = 1.615504 g / cm^3
# Si number density = 16.191895 Si / 1000 Ang^3
#
#
#
# Elastic Constant Matrix: (Units=GPa)
#
#
# Indices 1 2 3 4 5 6 
#
# 1 104.7723 59.8701 27.8735 0.0000 0.0000 0.0000
# 2 59.8701 104.7723 27.8735 0.0000 0.0000 0.0000
# 3 27.8735 27.8735 30.7923 0.0000 0.0000 0.0000
# 4 0.0000 0.0000 0.0000 22.1994 0.0000 0.0000
# 5 0.0000 0.0000 0.0000 0.0000 22.1994 0.0000
# 6 0.0000 0.0000 0.0000 0.0000 0.0000 22.4511
#
#
#
# Elastic Compliance Matrix: (Units=1/GPa)
#
#
# Indices 1 2 3 4 5 6 
#
# 1 0.015514 -0.006756 -0.007928 0.000000 0.000000 0.000000
# 2 -0.006756 0.015514 -0.007928 0.000000 0.000000 0.000000
# 3 -0.007928 -0.007928 0.046829 0.000000 0.000000 0.000000
# 4 0.000000 0.000000 0.000000 0.045046 0.000000 0.000000
# 5 0.000000 0.000000 0.000000 0.000000 0.045046 0.000000
# 6 0.000000 0.000000 0.000000 0.000000 0.000000 0.044541
#
#
# Mechanical properties :
#
#
# Convention : Reuss Voigt Hill
#
# Bulk Modulus (GPa) = 30.64376 52.39679 41.52028
# Shear Modulus (GPa) = 18.61551 21.68463 20.15007
#
# Velocity S-wave (km/s) = 3.39437 3.66352 3.53151
# Velocity P-wave (km/s) = 5.85908 7.09403 6.50592
#
# Compressibility (1/GPa) = 0.03263307
#
# Stress axis : x y z
#
# Youngs Moduli (GPa) = 64.45637 64.45637 21.35444
#
# Poissons Ratio (x) = 0.43548 0.16930
# Poissons Ratio (y) = 0.43548 0.16930
# Poissons Ratio (z) = 0.51101 0.51101
#
# Static dielectric constant tensor:
#      x y z
#    x 3.025570 0.000000 0.000000 
#    y 0.000000 3.025570 0.000000 
#    z 0.000000 0.000000 2.862180 
# 
# 
# High freq. dielectric constant tensor:
#      x y z
#    x 1.616380 0.000000 0.000000 
#    y 0.000000 1.616380 0.000000 
#    z 0.000000 0.000000 1.598920 
# 
# From -- ./inp_files/2411.got.cif
#   From: 2010.03.12/outbox.cif.g09.slc.cpg/sg191_2_cif.got.tgz:2411.got - 2010.04.01 12:09:02.
