data_PCOD8328331
_publ_section_title
;
Structure prediction by ZEFSAII (Michael W. Deem and Ramdas Pophale) SiO2 
 PCOD8328331
Probable space group: P 6/M M M
;
_chemical_formula_sum "Si O2"
_cell_formula_units_Z 132
_cell_length_a 18.197179
_cell_length_b 18.197179
_cell_length_c 28.427006
_cell_angle_alpha 90.000000
_cell_angle_beta 90.000000
_cell_angle_gamma 120.000000
_cell_volume 8152.107296
_symmetry_space_group_name_H-M "P 6/M M M"
_symmetry_group_IT_number 191
_symmetry_cell_setting 'hexagonal'
loop_
_space_group_symop_operation_xyz
x,y,z
x-y,x,z
-y,x-y,z
-x,-y,z
-x+y,-x,z
y,-x+y,z
x-y,-y,-z
-x,-x+y,-z
y,x,-z
-y,-x,-z
-x+y,y,-z
x,x-y,-z
-x,-y,-z
-x+y,-x,-z
y,-x+y,-z
x,y,-z
x-y,x,-z
-y,x-y,-z
-x+y,y,z
x,x-y,z
-y,-x,z
y,x,z
x-y,-y,z
-x,-x+y,z
loop_
_atom_site_type_symbol
_atom_site_label
_atom_site_fract_x
_atom_site_fract_y
_atom_site_fract_z
Si Si1 0.257540 0.352900 0.946699
Si Si2 0.499435 0.331247 0.772437
Si Si3 0.900700 0.368099 0.675338
Si Si4 0.899228 0.267004 0.587930
Si Si5 0.631816 0.532598 0.500000
Si Si6 0.631678 0.531877 0.130912
O O1 0.156320 0.312640 0.941067
O O2 0.280423 0.280423 0.933103
O O3 0.304417 0.434425 0.912940
O O4 0.286474 0.384951 0.000000
O O5 0.537488 0.268744 0.772267
O O6 0.572119 0.427882 0.772839
O O7 0.445987 0.317200 0.724778
O O8 0.444872 0.315879 0.819987
O O9 0.860715 0.430358 0.667641
O O10 0.874266 0.299171 0.634542
O O11 0.000000 0.426744 0.675918
O O12 0.836174 0.163827 0.585384
O O13 0.874471 0.308845 0.545619
O O14 0.000000 0.293952 0.586499
O O15 0.570175 0.570175 0.500000
O O16 0.570706 0.429295 0.500000
O O17 0.569947 0.430054 0.125389
O O18 0.575856 0.575856 0.131029
#
# Coordination Sequence:
#
# PCOD8328331 Si02
#       6
#    24  24  24  24  12  24
#     4   9  17  29  45  64  85 109 138 173 213 256
#     4  10  18  27  39  56  81 111 141 171 205 248
#     4   9  17  29  45  63  83 110 143 179 220 264
#     4  10  19  31  48  69  92 119 153 190 226 265
#     4   9  17  30  49  70  90 114 144 177 213 256
#     4   9  17  28  42  60  81 107 140 176 211 247
#
# _framework density 16.192132999999998
#
# number of rings (size 3 to 8) (size 9 to 14) (size 15 to 20)
#    0.000    2.636    0.000    2.636    0.000    4.727 
#    0.000    1.818    0.000    6.909    0.000    1.273 
#    0.000    2.182    0.000    0.000    0.000   37.818 
#
# Total GULP energy -1635589.408888 kJ/mol
# GULP energy per Si atom -12390.828855 kJ/mol
# Density = 1.615528 g / cm^3
# Si number density = 16.192133 Si / 1000 Ang^3
#
#
#
# Elastic Constant Matrix: (Units=GPa)
#
#
# Indices 1 2 3 4 5 6 
#
# 1 53.4144 41.3289 38.9956 0.0000 0.0000 0.0000
# 2 41.3289 53.4144 38.9956 0.0000 0.0000 0.0000
# 3 38.9956 38.9956 131.1193 0.0000 0.0000 0.0000
# 4 0.0000 0.0000 0.0000 16.6565 0.0000 0.0000
# 5 0.0000 0.0000 0.0000 0.0000 16.6565 0.0000
# 6 0.0000 0.0000 0.0000 0.0000 0.0000 6.0427
#
#
#
# Elastic Compliance Matrix: (Units=1/GPa)
#
#
# Indices 1 2 3 4 5 6 
#
# 1 0.048360 -0.034384 -0.004157 0.000000 0.000000 0.000000
# 2 -0.034384 0.048360 -0.004157 0.000000 0.000000 0.000000
# 3 -0.004157 -0.004157 0.010099 0.000000 0.000000 0.000000
# 4 0.000000 0.000000 0.000000 0.060037 0.000000 0.000000
# 5 0.000000 0.000000 0.000000 0.000000 0.060037 0.000000
# 6 0.000000 0.000000 0.000000 0.000000 0.000000 0.165489
#
#
# Mechanical properties :
#
#
# Convention : Reuss Voigt Hill
#
# Bulk Modulus (GPa) = 46.67356 52.95426 49.81391
# Shear Modulus (GPa) = 10.31102 15.77967 13.04534
#
# Velocity S-wave (km/s) = 2.52621 3.12513 2.84149
# Velocity P-wave (km/s) = 6.11526 6.76732 6.44953
#
# Compressibility (1/GPa) = 0.02142541
#
# Stress axis : x y z
#
# Youngs Moduli (GPa) = 20.67806 20.67806 99.01877
#
# Poissons Ratio (x) = 0.71099 0.41159
# Poissons Ratio (y) = 0.71099 0.41159
# Poissons Ratio (z) = 0.08595 0.08595
#
# Static dielectric constant tensor:
#      x y z
#    x 2.958000 0.000000 0.000000 
#    y 0.000000 2.958000 0.000000 
#    z 0.000000 0.000000 3.467220 
# 
# 
# High freq. dielectric constant tensor:
#      x y z
#    x 1.596430 0.000000 0.000000 
#    y 0.000000 1.596430 0.000000 
#    z 0.000000 0.000000 1.645270 
# 
# From -- ./inp_files/10422.got.cif
#   From: 2010.03.12/outbox.cif.g09.slc.cpg/sg191_6_cif.got.tgz:10422.got - 2010.04.01 12:09:02.
