data_PCOD8328831
_publ_section_title
;
Structure prediction by ZEFSAII (Michael W. Deem and Ramdas Pophale) SiO2 
 PCOD8328831
Probable space group: P 6/M M M
;
_chemical_formula_sum "Si O2"
_cell_formula_units_Z 168
_cell_length_a 17.675442
_cell_length_b 17.675442
_cell_length_c 35.674223
_cell_angle_alpha 90.000000
_cell_angle_beta 90.000000
_cell_angle_gamma 120.000000
_cell_volume 9652.186838
_symmetry_space_group_name_H-M "P 6/M M M"
_symmetry_group_IT_number 191
_symmetry_cell_setting 'hexagonal'
loop_
_space_group_symop_operation_xyz
x,y,z
x-y,x,z
-y,x-y,z
-x,-y,z
-x+y,-x,z
y,-x+y,z
x-y,-y,-z
-x,-x+y,-z
y,x,-z
-y,-x,-z
-x+y,y,-z
x,x-y,-z
-x,-y,-z
-x+y,-x,-z
y,-x+y,-z
x,y,-z
x-y,x,-z
-y,x-y,-z
-x+y,y,z
x,x-y,z
-y,-x,z
y,x,z
x-y,-y,z
-x,-x+y,z
loop_
_atom_site_type_symbol
_atom_site_label
_atom_site_fract_x
_atom_site_fract_y
_atom_site_fract_z
Si Si1 0.267112 0.365677 0.607967
Si Si2 0.635180 0.532525 0.677212
Si Si3 0.666672 0.506844 0.957340
Si Si4 0.840171 0.333328 0.457340
Si Si5 0.897833 0.269755 0.750000
Si Si6 0.364821 0.897345 0.177211
Si Si7 0.634324 0.732889 0.107967
O O1 0.162402 0.324803 0.605816
O O2 0.287605 0.287605 0.615776
O O3 0.303583 0.438147 0.640723
O O4 0.312490 0.411827 0.569066
O O5 0.573010 0.426991 0.677990
O O6 0.574063 0.574063 0.675186
O O7 0.693438 0.565240 0.714278
O O8 0.738865 0.477730 0.952153
O O9 0.573843 0.426158 0.945689
O O10 0.687510 0.588174 0.930934
O O11 0.665131 0.535835 0.000000
O O12 0.870704 0.334871 0.500000
O O13 0.852315 0.426158 0.445688
O O14 0.738865 0.261135 0.452154
O O15 0.836122 0.163879 0.750001
O O16 0.871802 0.306564 0.785722
O O17 0.000000 0.296088 0.750000
O O18 0.426990 0.853980 0.177989
O O19 0.303582 0.865436 0.140723
O O20 0.425938 0.000000 0.175185
O O21 0.675199 0.837600 0.105816
O O22 0.712396 0.712396 0.115776
#
# Coordination Sequence:
#
# PCOD8328831 Si02
#       7
#    24  24  24  24  24  24  24
#     4  10  20  33  49  69  93 122 157 196 236 277
#     4   9  17  30  49  71  93 118 149 185 226 275
#     4   9  17  29  46  69  97 127 156 186 223 270
#     4   9  17  29  46  69  97 127 156 186 223 270
#     4  10  19  31  49  72  97 127 164 204 243 281
#     4   9  17  30  49  71  93 118 149 185 226 275
#     4  10  20  33  49  69  93 122 157 196 236 277
#
# _framework density 17.405383
#
# number of rings (size 3 to 8) (size 9 to 14) (size 15 to 20)
#    0.000    2.571    0.000    2.429    0.000    5.143 
#    0.000    1.429    0.000   10.143    0.000    0.000 
#    0.000    6.857    0.000    7.143    0.000    0.571 
#
# Total GULP energy -2082732.352697 kJ/mol
# GULP energy per Si atom -12397.216385 kJ/mol
# Density = 1.736577 g / cm^3
# Si number density = 17.405383 Si / 1000 Ang^3
#
#
#
# Elastic Constant Matrix: (Units=GPa)
#
#
# Indices 1 2 3 4 5 6 
#
# 1 86.4471 52.4410 33.5177 0.0000 0.0000 0.0000
# 2 52.4410 86.4471 33.5177 0.0000 0.0000 0.0000
# 3 33.5177 33.5177 104.8095 0.0000 0.0000 0.0000
# 4 0.0000 0.0000 0.0000 10.6426 0.0000 0.0000
# 5 0.0000 0.0000 0.0000 0.0000 10.6426 0.0000
# 6 0.0000 0.0000 0.0000 0.0000 0.0000 17.0030
#
#
#
# Elastic Compliance Matrix: (Units=1/GPa)
#
#
# Indices 1 2 3 4 5 6 
#
# 1 0.018960 -0.010446 -0.002723 0.000000 0.000000 0.000000
# 2 -0.010446 0.018960 -0.002723 0.000000 0.000000 0.000000
# 3 -0.002723 -0.002723 0.011283 0.000000 0.000000 0.000000
# 4 0.000000 0.000000 0.000000 0.093962 0.000000 0.000000
# 5 0.000000 0.000000 0.000000 0.000000 0.093962 0.000000
# 6 0.000000 0.000000 0.000000 0.000000 0.000000 0.058813
#
#
# Mechanical properties :
#
#
# Convention : Reuss Voigt Hill
#
# Bulk Modulus (GPa) = 57.40594 57.40626 57.40610
# Shear Modulus (GPa) = 14.99111 18.20612 16.59862
#
# Velocity S-wave (km/s) = 2.93796 3.23771 3.09147
# Velocity P-wave (km/s) = 6.67549 6.85788 6.76730
#
# Compressibility (1/GPa) = 0.01741980
#
# Stress axis : x y z
#
# Youngs Moduli (GPa) = 52.74158 52.74158 88.63191
#
# Poissons Ratio (x) = 0.55095 0.24133
# Poissons Ratio (y) = 0.55095 0.24133
# Poissons Ratio (z) = 0.14361 0.14361
#
# Static dielectric constant tensor:
#      x y z
#    x 3.050890 0.000000 0.000000 
#    y 0.000000 3.050890 0.000000 
#    z 0.000000 0.000000 3.478960 
# 
# 
# High freq. dielectric constant tensor:
#      x y z
#    x 1.647320 0.000000 0.000000 
#    y 0.000000 1.647320 0.000000 
#    z 0.000000 0.000000 1.692730 
# 
# From -- ./inp_files/10749.got.cif
#   From: 2010.03.12/outbox.cif.g09.slc.cpg/sg191_6_cif.got.tgz:10749.got - 2010.04.01 12:09:02.
