data_PCOD8328449
_publ_section_title
;
Structure prediction by ZEFSAII (Michael W. Deem and Ramdas Pophale) SiO2 
 PCOD8328449
Probable space group: P 6/M M M
;
_chemical_formula_sum "Si O2"
_cell_formula_units_Z 84
_cell_length_a 16.211507
_cell_length_b 16.211507
_cell_length_c 23.979449
_cell_angle_alpha 90.000000
_cell_angle_beta 90.000000
_cell_angle_gamma 120.000000
_cell_volume 5457.787316
_symmetry_space_group_name_H-M "P 6/M M M"
_symmetry_group_IT_number 191
_symmetry_cell_setting 'hexagonal'
loop_
_space_group_symop_operation_xyz
x,y,z
x-y,x,z
-y,x-y,z
-x,-y,z
-x+y,-x,z
y,-x+y,z
x-y,-y,-z
-x,-x+y,-z
y,x,-z
-y,-x,-z
-x+y,y,-z
x,x-y,-z
-x,-y,-z
-x+y,-x,-z
y,-x+y,-z
x,y,-z
x-y,x,-z
-y,x-y,-z
-x+y,y,z
x,x-y,z
-y,-x,z
y,x,z
x-y,-y,z
-x,-x+y,z
loop_
_atom_site_type_symbol
_atom_site_label
_atom_site_fract_x
_atom_site_fract_y
_atom_site_fract_z
Si Si1 0.893956 0.288211 0.381316
Si Si2 0.108769 0.554385 0.911937
Si Si3 0.888745 0.444373 0.682702
Si Si4 0.606367 0.212734 0.204190
Si Si5 0.888289 0.303918 0.000000
Si Si6 0.146856 0.477986 0.500000
O O1 0.824341 0.175660 0.371002
O O2 0.848837 0.342939 0.347581
O O3 0.900093 0.312847 0.446345
O O4 0.000000 0.317629 0.360153
O O5 0.169612 0.584806 0.856706
O O6 0.131105 0.482641 0.946462
O O7 0.000000 0.500000 0.893750
O O8 0.866301 0.433151 0.748140
O O9 0.000000 0.500000 0.673652
O O10 0.720947 0.279054 0.210673
O O11 0.810757 0.189244 0.000000
O O12 0.000000 0.328229 0.000000
O O13 0.260681 0.521362 0.500000
O O14 0.121860 0.560930 0.500000
#
# Coordination Sequence:
#
# PCOD8328449 Si02
#       6
#    24  12  12  12  12  12
#     4  10  20  32  48  65  88 115 147 185 226 270
#     4   9  17  30  45  65  90 121 155 195 225 265
#     4  10  19  32  46  62  86 121 150 185 223 264
#     4  10  20  28  41  61  90 121 154 182 214 260
#     4   9  17  29  47  68  94 120 155 195 237 271
#     4  10  18  29  44  67  90 114 146 179 218 264
#
# _framework density 15.390852000000001
#
# number of rings (size 3 to 8) (size 9 to 14) (size 15 to 20)
#    0.286    2.000    1.429    3.571    0.000    0.571 
#    4.286    0.000    0.000    0.429    0.000    0.000 
#    0.000    3.429    0.000    0.000    0.000   59.429 
#
# Total GULP energy -1041037.108123 kJ/mol
# GULP energy per Si atom -12393.298906 kJ/mol
# Density = 1.535582 g / cm^3
# Si number density = 15.390852 Si / 1000 Ang^3
#
#
#
# Elastic Constant Matrix: (Units=GPa)
#
#
# Indices 1 2 3 4 5 6 
#
# 1 77.6539 44.1504 16.1257 0.0000 0.0000 0.0000
# 2 44.1504 77.6539 16.1257 0.0000 0.0000 0.0000
# 3 16.1257 16.1257 87.1158 0.0000 0.0000 0.0000
# 4 0.0000 0.0000 0.0000 10.3881 0.0000 0.0000
# 5 0.0000 0.0000 0.0000 0.0000 10.3881 0.0000
# 6 0.0000 0.0000 0.0000 0.0000 0.0000 16.7517
#
#
#
# Elastic Compliance Matrix: (Units=1/GPa)
#
#
# Indices 1 2 3 4 5 6 
#
# 1 0.019240 -0.010607 -0.001598 0.000000 0.000000 0.000000
# 2 -0.010607 0.019240 -0.001598 0.000000 0.000000 0.000000
# 3 -0.001598 -0.001598 0.012071 0.000000 0.000000 0.000000
# 4 0.000000 0.000000 0.000000 0.096264 0.000000 0.000000
# 5 0.000000 0.000000 0.000000 0.000000 0.096264 0.000000
# 6 0.000000 0.000000 0.000000 0.000000 0.000000 0.059695
#
#
# Mechanical properties :
#
#
# Convention : Reuss Voigt Hill
#
# Bulk Modulus (GPa) = 43.58340 43.91413 43.74876
# Shear Modulus (GPa) = 14.79158 18.57369 16.68264
#
# Velocity S-wave (km/s) = 3.10346 3.47767 3.29588
# Velocity P-wave (km/s) = 6.42037 6.68731 6.55520
#
# Compressibility (1/GPa) = 0.02294451
#
# Stress axis : x y z
#
# Youngs Moduli (GPa) = 51.97411 51.97411 82.84608
#
# Poissons Ratio (x) = 0.55131 0.13239
# Poissons Ratio (y) = 0.55131 0.13239
# Poissons Ratio (z) = 0.08306 0.08306
#
# Static dielectric constant tensor:
#      x y z
#    x 2.861170 0.000000 0.000000 
#    y 0.000000 2.861170 0.000000 
#    z 0.000000 0.000000 2.849580 
# 
# 
# High freq. dielectric constant tensor:
#      x y z
#    x 1.574070 0.000000 0.000000 
#    y 0.000000 1.574070 0.000000 
#    z 0.000000 0.000000 1.591170 
# 
# From -- ./inp_files/8220.got.cif
#   From: 2010.03.12/outbox.cif.g09.slc.cpg/sg191_5_cif.got.tgz:8220.got - 2010.04.01 12:09:02.
