data_PCOD8328608
_publ_section_title
;
Structure prediction by ZEFSAII (Michael W. Deem and Ramdas Pophale) SiO2 
 PCOD8328608
Probable space group: P 6/M M M
;
_chemical_formula_sum "Si O2"
_cell_formula_units_Z 168
_cell_length_a 29.959780
_cell_length_b 29.959780
_cell_length_c 13.357227
_cell_angle_alpha 90.000000
_cell_angle_beta 90.000000
_cell_angle_gamma 120.000000
_cell_volume 10383.031659
_symmetry_space_group_name_H-M "P 6/M M M"
_symmetry_group_IT_number 191
_symmetry_cell_setting 'hexagonal'
loop_
_space_group_symop_operation_xyz
x,y,z
x-y,x,z
-y,x-y,z
-x,-y,z
-x+y,-x,z
y,-x+y,z
x-y,-y,-z
-x,-x+y,-z
y,x,-z
-y,-x,-z
-x+y,y,-z
x,x-y,-z
-x,-y,-z
-x+y,-x,-z
y,-x+y,-z
x,y,-z
x-y,x,-z
-y,x-y,-z
-x+y,y,z
x,x-y,z
-y,-x,z
y,x,z
x-y,-y,z
-x,-x+y,z
loop_
_atom_site_type_symbol
_atom_site_label
_atom_site_fract_x
_atom_site_fract_y
_atom_site_fract_z
Si Si1 0.691719 0.119248 0.613639
Si Si2 0.282101 0.817505 0.195939
Si Si3 0.060186 0.580661 0.302862
Si Si4 0.877374 0.489465 0.888029
Si Si5 0.746118 0.686186 0.302006
Si Si6 0.842279 0.784599 0.618367
Si Si7 0.352875 0.125211 0.886551
O O1 0.704415 0.139101 0.500000
O O2 0.713842 0.168228 0.686767
O O3 0.629922 0.086108 0.625339
O O4 0.719947 0.086921 0.637446
O O5 0.242776 0.757225 0.184277
O O6 0.335611 0.827878 0.149300
O O7 0.264738 0.851529 0.132249
O O8 0.076730 0.538365 0.333884
O O9 0.075162 0.597584 0.187086
O O10 0.000000 0.556812 0.313100
O O11 0.859092 0.429546 0.884701
O O12 0.895010 0.511899 0.000000
O O13 0.705751 0.705751 0.304395
O O14 0.799944 0.726549 0.352706
O O15 0.757323 0.679640 0.186853
O O16 0.844696 0.788106 0.500000
O O17 0.898672 0.797343 0.660175
O O18 0.825405 0.825405 0.660386
O O19 0.337671 0.168836 0.865899
O O20 0.339799 0.104765 0.000000
#
# Coordination Sequence:
#
# PCOD8328608 Si02
#       7
#    24  24  24  24  24  24  24
#     4  10  20  32  45  63  88 115 147 189 227 258
#     4   9  18  32  48  65  85 111 143 178 218 263
#     4   9  18  31  45  63  89 121 154 184 217 258
#     4   9  17  29  46  68  91 114 142 176 213 254
#     4  10  19  29  42  62  88 117 147 178 217 263
#     4   9  17  29  45  64  86 113 144 177 215 261
#     4   9  17  29  44  61  82 110 145 182 216 251
#
# _framework density 16.180244999999999
#
# number of rings (size 3 to 8) (size 9 to 14) (size 15 to 20)
#    0.000    2.714    0.000    1.714    0.000    4.286 
#    0.000    2.143    0.000    5.571    0.000    1.000 
#    0.000    0.000    0.000    0.429    0.000    0.571 
#
# Total GULP energy -2082616.568543 kJ/mol
# GULP energy per Si atom -12396.527194 kJ/mol
# Density = 1.614342 g / cm^3
# Si number density = 16.180245 Si / 1000 Ang^3
#
#
#
# Elastic Constant Matrix: (Units=GPa)
#
#
# Indices 1 2 3 4 5 6 
#
# 1 52.3280 18.5463 1.9825 0.0000 0.0000 0.0000
# 2 18.5463 52.3280 1.9825 0.0000 0.0000 0.0000
# 3 1.9825 1.9825 59.3919 0.0000 0.0000 0.0000
# 4 0.0000 0.0000 0.0000 17.3622 0.0000 0.0000
# 5 0.0000 0.0000 0.0000 0.0000 17.3622 0.0000
# 6 0.0000 0.0000 0.0000 0.0000 0.0000 16.8908
#
#
#
# Elastic Compliance Matrix: (Units=1/GPa)
#
#
# Indices 1 2 3 4 5 6 
#
# 1 0.021869 -0.007733 -0.000472 0.000000 0.000000 0.000000
# 2 -0.007733 0.021869 -0.000472 0.000000 0.000000 0.000000
# 3 -0.000472 -0.000472 0.016869 0.000000 0.000000 0.000000
# 4 0.000000 0.000000 0.000000 0.057596 0.000000 0.000000
# 5 0.000000 0.000000 0.000000 0.000000 0.057596 0.000000
# 6 0.000000 0.000000 0.000000 0.000000 0.000000 0.059204
#
#
# Mechanical properties :
#
#
# Convention : Reuss Voigt Hill
#
# Bulk Modulus (GPa) = 23.11970 23.23005 23.17488
# Shear Modulus (GPa) = 18.74246 19.75884 19.25065
#
# Velocity S-wave (km/s) = 3.40715 3.49832 3.45304
# Velocity P-wave (km/s) = 5.45877 5.54128 5.50018
#
# Compressibility (1/GPa) = 0.04325316
#
# Stress axis : x y z
#
# Youngs Moduli (GPa) = 45.72710 45.72710 59.28104
#
# Poissons Ratio (x) = 0.35361 0.02797
# Poissons Ratio (y) = 0.35361 0.02797
# Poissons Ratio (z) = 0.02158 0.02158
#
# Static dielectric constant tensor:
#      x y z
#    x 3.092190 0.000000 0.000000 
#    y 0.000000 3.092190 0.000000 
#    z 0.000000 0.000000 3.080710 
# 
# 
# High freq. dielectric constant tensor:
#      x y z
#    x 1.610580 0.000000 0.000000 
#    y 0.000000 1.610580 0.000000 
#    z 0.000000 0.000000 1.622090 
# 
# From -- ./inp_files/3601.got.cif
#   From: 2010.03.12/outbox.cif.g09.slc.cpg/sg191_2_cif.got.tgz:3601.got - 2010.04.01 12:09:02.
