data_PCOD8328505
_publ_section_title
;
Structure prediction by ZEFSAII (Michael W. Deem and Ramdas Pophale) SiO2 
 PCOD8328505
Probable space group: P 6/M M M
;
_chemical_formula_sum "Si O2"
_cell_formula_units_Z 192
_cell_length_a 23.022512
_cell_length_b 23.022512
_cell_length_c 23.594329
_cell_angle_alpha 90.000000
_cell_angle_beta 90.000000
_cell_angle_gamma 120.000000
_cell_volume 10830.379598
_symmetry_space_group_name_H-M "P 6/M M M"
_symmetry_group_IT_number 191
_symmetry_cell_setting 'hexagonal'
loop_
_space_group_symop_operation_xyz
x,y,z
x-y,x,z
-y,x-y,z
-x,-y,z
-x+y,-x,z
y,-x+y,z
x-y,-y,-z
-x,-x+y,-z
y,x,-z
-y,-x,-z
-x+y,y,-z
x,x-y,-z
-x,-y,-z
-x+y,-x,-z
y,-x+y,-z
x,y,-z
x-y,x,-z
-y,x-y,-z
-x+y,y,z
x,x-y,z
-y,-x,z
y,x,z
x-y,-y,z
-x,-x+y,z
loop_
_atom_site_type_symbol
_atom_site_label
_atom_site_fract_x
_atom_site_fract_y
_atom_site_fract_z
Si Si1 0.771328 0.671384 0.267096
Si Si2 0.277831 0.858400 0.437385
Si Si3 0.523992 0.921098 0.860696
Si Si4 0.926179 0.203923 0.386373
Si Si5 0.919978 0.294756 0.936446
Si Si6 0.728255 0.927304 0.854071
Si Si7 0.803527 0.335760 0.651455
Si Si8 0.370625 0.922883 0.267981
O O1 0.819331 0.638662 0.261890
O O2 0.798340 0.725197 0.317835
O O3 0.769112 0.703707 0.207811
O O4 0.697455 0.617380 0.285185
O O5 0.308958 0.885130 0.500000
O O6 0.208567 0.791434 0.443944
O O7 0.262870 0.911937 0.406398
O O8 0.328062 0.842558 0.402145
O O9 0.444576 0.889152 0.871296
O O10 0.552598 0.890058 0.906746
O O11 0.536707 0.904812 0.797708
O O12 0.560654 0.000000 0.869509
O O13 0.869201 0.130800 0.409749
O O14 0.000000 0.221886 0.408575
O O15 0.896235 0.228672 0.898872
O O16 0.000000 0.337138 0.936811
O O17 0.891025 0.275113 0.000000
O O18 0.761245 0.880623 0.851921
O O19 0.785760 0.000000 0.874370
O O20 0.779895 0.389948 0.637658
O O21 0.736721 0.263280 0.667318
O O22 0.861361 0.370521 0.699564
O O23 0.432549 0.000000 0.280568
#
# Coordination Sequence:
#
# PCOD8328505 Si02
#       8
#    24  24  24  24  24  24  24  24
#     4  10  18  29  49  77 103 129 164 207 256 306
#     4   9  19  35  53  74  99 128 166 210 253 296
#     4   9  17  28  43  66  96 128 160 195 238 290
#     4  10  19  32  52  78 107 138 173 214 260 310
#     4   9  17  29  44  63  90 124 161 200 242 290
#     4  10  19  31  48  70  97 127 161 204 253 305
#     4  11  23  38  55  76 104 138 175 214 257 306
#     4  11  19  31  52  76 103 132 166 207 255 307
#
# _framework density 17.727910000000001
#
# number of rings (size 3 to 8) (size 9 to 14) (size 15 to 20)
#    0.000    2.125    2.500    2.000    0.000    1.750 
#    0.000    1.250    0.000    1.000    0.000    1.750 
#    0.000    3.000    0.000    6.250    0.000    1.875 
#
# Total GULP energy -2378730.825348 kJ/mol
# GULP energy per Si atom -12389.223049 kJ/mol
# Density = 1.768756 g / cm^3
# Si number density = 17.727910 Si / 1000 Ang^3
#
#
#
# Elastic Constant Matrix: (Units=GPa)
#
#
# Indices 1 2 3 4 5 6 
#
# 1 76.5497 46.2713 21.6089 0.0000 0.0000 0.0000
# 2 46.2713 76.5497 21.6089 0.0000 0.0000 0.0000
# 3 21.6089 21.6089 95.5978 0.0000 0.0000 0.0000
# 4 0.0000 0.0000 0.0000 12.9349 0.0000 0.0000
# 5 0.0000 0.0000 0.0000 0.0000 12.9349 0.0000
# 6 0.0000 0.0000 0.0000 0.0000 0.0000 15.1392
#
#
#
# Elastic Compliance Matrix: (Units=1/GPa)
#
#
# Indices 1 2 3 4 5 6 
#
# 1 0.020936 -0.012091 -0.001999 0.000000 0.000000 0.000000
# 2 -0.012091 0.020936 -0.001999 0.000000 0.000000 0.000000
# 3 -0.001999 -0.001999 0.011364 0.000000 0.000000 0.000000
# 4 0.000000 0.000000 0.000000 0.077310 0.000000 0.000000
# 5 0.000000 0.000000 0.000000 0.000000 0.077310 0.000000
# 6 0.000000 0.000000 0.000000 0.000000 0.000000 0.066054
#
#
# Mechanical properties :
#
#
# Convention : Reuss Voigt Hill
#
# Bulk Modulus (GPa) = 47.48872 47.51949 47.50410
# Shear Modulus (GPa) = 15.96886 18.81566 17.39226
#
# Velocity S-wave (km/s) = 3.00455 3.26138 3.13560
# Velocity P-wave (km/s) = 6.23555 6.40666 6.32168
#
# Compressibility (1/GPa) = 0.02105763
#
# Stress axis : x y z
#
# Youngs Moduli (GPa) = 47.76416 47.76416 87.99406
#
# Poissons Ratio (x) = 0.57750 0.17594
# Poissons Ratio (y) = 0.57750 0.17594
# Poissons Ratio (z) = 0.09550 0.09550
#
# Static dielectric constant tensor:
#      x y z
#    x 3.219740 0.000000 0.000000 
#    y 0.000000 3.219740 0.000000 
#    z 0.000000 0.000000 3.496540 
# 
# 
# High freq. dielectric constant tensor:
#      x y z
#    x 1.662980 0.000000 0.000000 
#    y 0.000000 1.662980 0.000000 
#    z 0.000000 0.000000 1.686710 
# 
# From -- ./inp_files/9373.got.cif
#   From: 2010.03.12/outbox.cif.g09.slc.cpg/sg191_5_cif.got.tgz:9373.got - 2010.04.01 12:09:02.
