data_PCOD8328320
_publ_section_title
;
Structure prediction by ZEFSAII (Michael W. Deem and Ramdas Pophale) SiO2 
 PCOD8328320
Probable space group: P 6/M M M
;
_chemical_formula_sum "Si O2"
_cell_formula_units_Z 120
_cell_length_a 18.804554
_cell_length_b 18.804554
_cell_length_c 25.163696
_cell_angle_alpha 90.000000
_cell_angle_beta 90.000000
_cell_angle_gamma 120.000000
_cell_volume 7706.037825
_symmetry_space_group_name_H-M "P 6/M M M"
_symmetry_group_IT_number 191
_symmetry_cell_setting 'hexagonal'
loop_
_space_group_symop_operation_xyz
x,y,z
x-y,x,z
-y,x-y,z
-x,-y,z
-x+y,-x,z
y,-x+y,z
x-y,-y,-z
-x,-x+y,-z
y,x,-z
-y,-x,-z
-x+y,y,-z
x,x-y,-z
-x,-y,-z
-x+y,-x,-z
y,-x+y,-z
x,y,-z
x-y,x,-z
-y,x-y,-z
-x+y,y,z
x,x-y,z
-y,-x,z
y,x,z
x-y,-y,z
-x,-x+y,z
loop_
_atom_site_type_symbol
_atom_site_label
_atom_site_fract_x
_atom_site_fract_y
_atom_site_fract_z
Si Si1 0.092874 0.747266 0.688625
Si Si2 0.628116 0.531921 0.392535
Si Si3 0.503768 0.331433 0.500000
Si Si4 0.345609 0.252735 0.811374
Si Si5 0.668568 0.496233 0.000000
Si Si6 0.096195 0.468080 0.892535
O O1 0.156490 0.843511 0.676494
O O2 0.120040 0.690948 0.656235
O O3 0.097118 0.727098 0.749999
O O4 0.000000 0.725649 0.673464
O O5 0.565402 0.434599 0.381537
O O6 0.576306 0.576306 0.400392
O O7 0.681101 0.547990 0.446368
O O8 0.576224 0.423777 0.500000
O O9 0.538088 0.269044 0.500000
O O10 0.312980 0.156490 0.823505
O O11 0.274352 0.274352 0.826535
O O12 0.429093 0.309053 0.843764
O O13 0.681100 0.547990 0.946368
O O14 0.576224 0.423777 0.000000
O O15 0.730957 0.461914 0.000000
O O16 0.130804 0.565402 0.881537
O O17 0.000000 0.423696 0.900391
#
# Coordination Sequence:
#
# PCOD8328320 Si02
#       6
#    24  24  12  24  12  24
#     4   9  17  29  45  64  85 109 138 172 209 249
#     4   9  17  28  42  60  81 106 136 170 207 244
#     4  10  18  27  39  55  78 107 137 167 199 238
#     4   9  17  29  45  64  85 109 138 172 209 249
#     4  10  18  27  39  55  78 107 137 167 199 238
#     4   9  17  28  42  60  81 106 136 170 207 244
#
# _framework density 15.572203999999999
#
# number of rings (size 3 to 8) (size 9 to 14) (size 15 to 20)
#    0.000    2.800    0.000    2.000    0.000    3.200 
#    0.000    4.000    0.000    1.200    0.000    2.800 
#    0.000    0.000    0.000    0.000    0.000   41.600 
#
# Total GULP energy -1487305.003580 kJ/mol
# GULP energy per Si atom -12394.208363 kJ/mol
# Density = 1.553676 g / cm^3
# Si number density = 15.572204 Si / 1000 Ang^3
#
#
#
# Elastic Constant Matrix: (Units=GPa)
#
#
# Indices 1 2 3 4 5 6 
#
# 1 68.1447 40.3440 45.6172 0.0000 0.0000 0.0000
# 2 40.3440 68.1447 45.6172 0.0000 0.0000 0.0000
# 3 45.6172 45.6172 89.4877 0.0000 0.0000 0.0000
# 4 0.0000 0.0000 0.0000 17.9226 0.0000 0.0000
# 5 0.0000 0.0000 0.0000 0.0000 17.9226 0.0000
# 6 0.0000 0.0000 0.0000 0.0000 0.0000 13.9004
#
#
#
# Elastic Compliance Matrix: (Units=1/GPa)
#
#
# Indices 1 2 3 4 5 6 
#
# 1 0.026052 -0.009918 -0.008224 0.000000 0.000000 0.000000
# 2 -0.009918 0.026052 -0.008224 0.000000 0.000000 0.000000
# 3 -0.008224 -0.008224 0.019560 0.000000 0.000000 0.000000
# 4 0.000000 0.000000 0.000000 0.055795 0.000000 0.000000
# 5 0.000000 0.000000 0.000000 0.000000 0.055795 0.000000
# 6 0.000000 0.000000 0.000000 0.000000 0.000000 0.071940
#
#
# Mechanical properties :
#
#
# Convention : Reuss Voigt Hill
#
# Bulk Modulus (GPa) = 52.82662 54.32601 53.57632
# Shear Modulus (GPa) = 15.91144 16.22903 16.07024
#
# Velocity S-wave (km/s) = 3.20000 3.23178 3.21593
# Velocity P-wave (km/s) = 6.90295 6.99201 6.94762
#
# Compressibility (1/GPa) = 0.01892985
#
# Stress axis : x y z
#
# Youngs Moduli (GPa) = 38.38463 38.38463 51.12552
#
# Poissons Ratio (x) = 0.38070 0.42048
# Poissons Ratio (y) = 0.38070 0.42048
# Poissons Ratio (z) = 0.31569 0.31569
#
# Static dielectric constant tensor:
#      x y z
#    x 2.968290 0.000000 0.000000 
#    y 0.000000 2.968290 0.000000 
#    z 0.000000 0.000000 3.172060 
# 
# 
# High freq. dielectric constant tensor:
#      x y z
#    x 1.581030 0.000000 0.000000 
#    y 0.000000 1.581030 0.000000 
#    z 0.000000 0.000000 1.607500 
# 
# From -- ./inp_files/10314.got.cif
#   From: 2010.03.12/outbox.cif.g09.slc.cpg/sg191_6_cif.got.tgz:10314.got - 2010.04.01 12:09:02.
