data_PCOD8328244
_publ_section_title
;
Structure prediction by ZEFSAII (Michael W. Deem and Ramdas Pophale) SiO2 
 PCOD8328244
Probable space group: P 6/M M M
;
_chemical_formula_sum "Si O2"
_cell_formula_units_Z 108
_cell_length_a 31.019955
_cell_length_b 31.019955
_cell_length_c 7.949201
_cell_angle_alpha 90.000000
_cell_angle_beta 90.000000
_cell_angle_gamma 120.000000
_cell_volume 6624.245770
_symmetry_space_group_name_H-M "P 6/M M M"
_symmetry_group_IT_number 191
_symmetry_cell_setting 'hexagonal'
loop_
_space_group_symop_operation_xyz
x,y,z
x-y,x,z
-y,x-y,z
-x,-y,z
-x+y,-x,z
y,-x+y,z
x-y,-y,-z
-x,-x+y,-z
y,x,-z
-y,-x,-z
-x+y,y,-z
x,x-y,-z
-x,-y,-z
-x+y,-x,-z
y,-x+y,-z
x,y,-z
x-y,x,-z
-y,x-y,-z
-x+y,y,z
x,x-y,z
-y,-x,z
y,x,z
x-y,-y,z
-x,-x+y,z
loop_
_atom_site_type_symbol
_atom_site_label
_atom_site_fract_x
_atom_site_fract_y
_atom_site_fract_z
Si Si1 0.655217 0.655217 0.198421
Si Si2 0.305806 0.201671 0.305585
Si Si3 0.703368 0.596381 0.192365
Si Si4 0.751434 0.751434 0.801611
Si Si5 0.565003 0.333368 0.000000
Si Si6 0.298677 0.800581 0.312148
O O1 0.658273 0.606321 0.251840
O O2 0.703071 0.703071 0.273723
O O3 0.660695 0.660695 0.000000
O O4 0.319868 0.210356 0.500000
O O5 0.296063 0.148032 0.245363
O O6 0.352639 0.244126 0.203693
O O7 0.254625 0.202841 0.268543
O O8 0.700404 0.553061 0.307785
O O9 0.695871 0.578051 0.000000
O O10 0.755459 0.755459 0.000000
O O11 0.536173 0.333805 0.169052
O O12 0.617570 0.382431 0.000000
O O13 0.574012 0.287006 0.000000
O O14 0.316178 0.794952 0.500000
O O15 0.242250 0.757751 0.277531
#
# Coordination Sequence:
#
# PCOD8328244 Si02
#       6
#    12  24  24  12  12  24
#     4   7  14  25  39  61  89 123 161 195 228 267
#     4  10  19  28  40  60  87 121 157 193 236 282
#     4  10  17  28  45  67  97 129 160 195 232 270
#     4   9  17  29  41  55  79 113 155 199 234 274
#     4  10  21  38  58  79 101 127 155 185 226 278
#     4  10  20  33  50  75 103 127 155 193 236 279
#
# _framework density 16.303743000000001
#
# number of rings (size 3 to 8) (size 9 to 14) (size 15 to 20)
#    0.000    2.444    1.111    3.778    0.000    4.889 
#    0.000    1.667    0.000    1.333    0.000    1.556 
#    0.000    1.778    0.000    0.333    0.000    6.444 
#
# Total GULP energy -1338277.764218 kJ/mol
# GULP energy per Si atom -12391.460780 kJ/mol
# Density = 1.626664 g / cm^3
# Si number density = 16.303743 Si / 1000 Ang^3
#
#
#
# Elastic Constant Matrix: (Units=GPa)
#
#
# Indices 1 2 3 4 5 6 
#
# 1 78.9943 36.5444 26.2290 0.0000 0.0000 0.0000
# 2 36.5444 78.9943 26.2290 0.0000 0.0000 0.0000
# 3 26.2290 26.2290 80.9789 0.0000 0.0000 0.0000
# 4 0.0000 0.0000 0.0000 16.4594 0.0000 0.0000
# 5 0.0000 0.0000 0.0000 0.0000 16.4594 0.0000
# 6 0.0000 0.0000 0.0000 0.0000 0.0000 21.2249
#
#
#
# Elastic Compliance Matrix: (Units=1/GPa)
#
#
# Indices 1 2 3 4 5 6 
#
# 1 0.016852 -0.006705 -0.003287 0.000000 0.000000 0.000000
# 2 -0.006705 0.016852 -0.003287 0.000000 0.000000 0.000000
# 3 -0.003287 -0.003287 0.014478 0.000000 0.000000 0.000000
# 4 0.000000 0.000000 0.000000 0.060756 0.000000 0.000000
# 5 0.000000 0.000000 0.000000 0.000000 0.060756 0.000000
# 6 0.000000 0.000000 0.000000 0.000000 0.000000 0.047114
#
#
# Mechanical properties :
#
#
# Convention : Reuss Voigt Hill
#
# Bulk Modulus (GPa) = 46.24089 46.33026 46.28558
# Shear Modulus (GPa) = 19.95419 20.82639 20.39029
#
# Velocity S-wave (km/s) = 3.50223 3.57795 3.54029
# Velocity P-wave (km/s) = 6.69162 6.74890 6.72032
#
# Compressibility (1/GPa) = 0.02162588
#
# Stress axis : x y z
#
# Youngs Moduli (GPa) = 59.33905 59.33905 69.07018
#
# Poissons Ratio (x) = 0.39786 0.22701
# Poissons Ratio (y) = 0.39786 0.22701
# Poissons Ratio (z) = 0.19503 0.19503
#
# Static dielectric constant tensor:
#      x y z
#    x 3.010830 0.000000 0.000000 
#    y 0.000000 3.010830 0.000000 
#    z 0.000000 0.000000 3.133390 
# 
# 
# High freq. dielectric constant tensor:
#      x y z
#    x 1.598270 0.000000 0.000000 
#    y 0.000000 1.598270 0.000000 
#    z 0.000000 0.000000 1.640040 
# 
# From -- ./inp_files/1790.got.cif
#   From: 2010.03.12/outbox.cif.g09.slc.cpg/sg191_1_cif.got.tgz:1790.got - 2010.04.01 12:09:02.
