data_PCOD8328177
_publ_section_title
;
Structure prediction by ZEFSAII (Michael W. Deem and Ramdas Pophale) SiO2 
 PCOD8328177
Probable space group: P -6 2 C
;
_chemical_formula_sum "Si O2"
_cell_formula_units_Z 30
_cell_length_a 15.662243
_cell_length_b 15.662243
_cell_length_c 7.693943
_cell_angle_alpha 90.000000
_cell_angle_beta 90.000000
_cell_angle_gamma 120.000000
_cell_volume 1634.509736
_symmetry_space_group_name_H-M "P -6 2 C"
_symmetry_group_IT_number 190
_symmetry_cell_setting 'hexagonal'
loop_
_space_group_symop_operation_xyz
x,y,z
-x+y,-x,1/2-z
-y,x-y,z
x,y,1/2-z
-x+y,-x,z
-y,x-y,1/2-z
x-y,-y,-z
-x,-x+y,-z
y,x,-z
y,x,1/2+z
x-y,-y,1/2+z
-x,-x+y,1/2+z
loop_
_atom_site_type_symbol
_atom_site_label
_atom_site_fract_x
_atom_site_fract_y
_atom_site_fract_z
Si Si1 0.683691 0.449929 0.750000
Si Si2 0.888795 0.296326 0.054495
Si Si3 0.107588 0.217695 0.451124
O O1 0.770897 0.422287 0.750000
O O2 0.692934 0.508771 0.575427
O O3 0.869510 0.320119 0.250000
O O4 0.870200 0.185477 0.054588
O O5 0.000000 0.372948 0.000000
O O6 0.112313 0.243241 0.250000
O O7 0.189429 0.189429 0.500000
O O8 0.000000 0.127263 0.500000
#
# Coordination Sequence:
#
# PCOD8328177 Si02
#       3
#     6  12  12
#     4  10  24  44  66  90 128 154 198 262 304 358
#     4  11  20  39  68  92 120 166 205 246 306 369
#     4  11  20  33  53  85 125 166 206 251 301 364
#
# _framework density 18.354126000000001
#
# number of rings (size 3 to 8) (size 9 to 14) (size 15 to 20)
#    0.400    0.800    4.000    6.400    0.000    1.600 
#    0.000    2.000    0.000    0.000    0.000    0.000 
#    0.000    0.000    0.000    0.000    0.000    0.000 
#
# Total GULP energy -372038.569519 kJ/mol
# GULP energy per Si atom -12401.285651 kJ/mol
# Density = 1.831235 g / cm^3
# Si number density = 18.354126 Si / 1000 Ang^3
#
#
#
# Elastic Constant Matrix: (Units=GPa)
#
#
# Indices 1 2 3 4 5 6 
#
# 1 98.8104 54.5224 46.1733 0.0000 0.0000 0.0000
# 2 54.5224 98.8104 46.1733 0.0000 0.0000 0.0000
# 3 46.1733 46.1733 172.4811 0.0000 0.0000 0.0000
# 4 0.0000 0.0000 0.0000 23.1701 0.0000 0.0000
# 5 0.0000 0.0000 0.0000 0.0000 23.1701 0.0000
# 6 0.0000 0.0000 0.0000 0.0000 0.0000 22.1440
#
#
#
# Elastic Compliance Matrix: (Units=1/GPa)
#
#
# Indices 1 2 3 4 5 6 
#
# 1 0.015177 -0.007402 -0.002081 0.000000 0.000000 0.000000
# 2 -0.007402 0.015177 -0.002081 0.000000 0.000000 0.000000
# 3 -0.002081 -0.002081 0.006912 0.000000 0.000000 0.000000
# 4 0.000000 0.000000 0.000000 0.043159 0.000000 0.000000
# 5 0.000000 0.000000 0.000000 0.000000 0.043159 0.000000
# 6 0.000000 0.000000 0.000000 0.000000 0.000000 0.045159
#
#
# Mechanical properties :
#
#
# Convention : Reuss Voigt Hill
#
# Bulk Modulus (GPa) = 70.73639 73.75998 72.24819
# Shear Modulus (GPa) = 25.43413 28.57906 27.00659
#
# Velocity S-wave (km/s) = 3.72660 3.95028 3.84007
# Velocity P-wave (km/s) = 7.55911 7.81541 7.68833
#
# Compressibility (1/GPa) = 0.01413699
#
# Stress axis : x y z
#
# Youngs Moduli (GPa) = 65.88739 65.88739 144.67267
#
# Poissons Ratio (x) = 0.48770 0.30113
# Poissons Ratio (y) = 0.48770 0.30113
# Poissons Ratio (z) = 0.13714 0.13714
#
# Static dielectric constant tensor:
#      x y z
#    x 3.247360 0.000000 0.000000 
#    y 0.000000 3.247360 0.000000 
#    z 0.000000 0.000000 3.545500 
# 
# 
# High freq. dielectric constant tensor:
#      x y z
#    x 1.694660 0.000000 0.000000 
#    y 0.000000 1.694660 0.000000 
#    z 0.000000 0.000000 1.736500 
# 
# From -- ./inp_files/340.got.cif
#   From: 2010.06.25/outbox.cif.g09.slc.cpg/sg190_1_cif.got.tgz:340.got - 2010.06.28 13:08:06.
