data_PCOD8328748
_publ_section_title
;
Structure prediction by ZEFSAII (Michael W. Deem and Ramdas Pophale) SiO2 
 PCOD8328748
Probable space group: P 6/M M M
;
_chemical_formula_sum "Si O2"
_cell_formula_units_Z 108
_cell_length_a 22.361385
_cell_length_b 22.361385
_cell_length_c 14.998292
_cell_angle_alpha 90.000000
_cell_angle_beta 90.000000
_cell_angle_gamma 120.000000
_cell_volume 6494.860601
_symmetry_space_group_name_H-M "P 6/M M M"
_symmetry_group_IT_number 191
_symmetry_cell_setting 'hexagonal'
loop_
_space_group_symop_operation_xyz
x,y,z
x-y,x,z
-y,x-y,z
-x,-y,z
-x+y,-x,z
y,-x+y,z
x-y,-y,-z
-x,-x+y,-z
y,x,-z
-y,-x,-z
-x+y,y,-z
x,x-y,-z
-x,-y,-z
-x+y,-x,-z
y,-x+y,-z
x,y,-z
x-y,x,-z
-y,x-y,-z
-x+y,y,z
x,x-y,z
-y,-x,z
y,x,z
x-y,-y,z
-x,-x+y,z
loop_
_atom_site_type_symbol
_atom_site_label
_atom_site_fract_x
_atom_site_fract_y
_atom_site_fract_z
Si Si1 0.849988 0.150013 0.395175
Si Si2 0.305881 0.386931 0.400035
Si Si3 0.918263 0.081738 0.286124
Si Si4 0.080678 0.919323 0.906480
Si Si5 0.804974 0.471860 0.897222
Si Si6 0.921335 0.390873 0.240923
O O1 0.854630 0.145370 0.500000
O O2 0.886501 0.228724 0.362871
O O3 0.888172 0.111829 0.357221
O O4 0.307931 0.416208 0.500000
O O5 0.337019 0.337019 0.402377
O O6 0.347779 0.450060 0.332561
O O7 0.899170 0.100831 0.187977
O O8 0.000000 0.115861 0.299745
O O9 0.000000 0.888048 0.907157
O O10 0.103284 0.896717 0.000000
O O11 0.738606 0.477211 0.868271
O O12 0.786941 0.393471 0.881159
O O13 0.870926 0.525093 0.839126
O O14 0.824261 0.493100 0.000000
O O15 0.915428 0.457714 0.259739
O O16 0.000000 0.412491 0.214573
#
# Coordination Sequence:
#
# PCOD8328748 Si02
#       6
#    12  24  12  12  24  24
#     4  10  20  33  49  67  90 124 162 200 240 288
#     4   9  18  32  49  69  92 120 157 197 236 282
#     4  10  19  30  46  68  94 124 160 206 256 298
#     4   8  13  22  38  60  84 110 144 188 238 290
#     4   9  17  29  47  71  99 131 164 196 230 273
#     4   9  18  31  48  73 100 124 154 194 239 282
#
# _framework density 16.628532
#
# number of rings (size 3 to 8) (size 9 to 14) (size 15 to 20)
#    0.000    2.889    0.000    1.111    1.556    4.444 
#    0.000    4.444    0.000    2.000    0.000    3.111 
#    0.000    0.000    0.000    0.000    0.000    0.000 
#
# Total GULP energy -1338412.670631 kJ/mol
# GULP energy per Si atom -12392.709913 kJ/mol
# Density = 1.659069 g / cm^3
# Si number density = 16.628532 Si / 1000 Ang^3
#
#
#
# Elastic Constant Matrix: (Units=GPa)
#
#
# Indices 1 2 3 4 5 6 
#
# 1 73.3497 45.1279 55.7205 0.0000 0.0000 0.0000
# 2 45.1279 73.3497 55.7205 0.0000 0.0000 0.0000
# 3 55.7205 55.7205 90.7181 0.0000 0.0000 0.0000
# 4 0.0000 0.0000 0.0000 21.1456 0.0000 0.0000
# 5 0.0000 0.0000 0.0000 0.0000 21.1456 0.0000
# 6 0.0000 0.0000 0.0000 0.0000 0.0000 14.1109
#
#
#
# Elastic Compliance Matrix: (Units=1/GPa)
#
#
# Indices 1 2 3 4 5 6 
#
# 1 0.027711 -0.007723 -0.012277 0.000000 0.000000 0.000000
# 2 -0.007723 0.027711 -0.012277 0.000000 0.000000 0.000000
# 3 -0.012277 -0.012277 0.026105 0.000000 0.000000 0.000000
# 4 0.000000 0.000000 0.000000 0.047291 0.000000 0.000000
# 5 0.000000 0.000000 0.000000 0.000000 0.047291 0.000000
# 6 0.000000 0.000000 0.000000 0.000000 0.000000 0.070867
#
#
# Mechanical properties :
#
#
# Convention : Reuss Voigt Hill
#
# Bulk Modulus (GPa) = 58.91742 61.17281 60.04511
# Shear Modulus (GPa) = 15.76352 16.67034 16.21693
#
# Velocity S-wave (km/s) = 3.08227 3.16969 3.12628
# Velocity P-wave (km/s) = 6.94087 7.08968 7.01567
#
# Compressibility (1/GPa) = 0.01697291
#
# Stress axis : x y z
#
# Youngs Moduli (GPa) = 36.08673 36.08673 38.30696
#
# Poissons Ratio (x) = 0.27868 0.47030
# Poissons Ratio (y) = 0.27868 0.47030
# Poissons Ratio (z) = 0.44305 0.44305
#
# Static dielectric constant tensor:
#      x y z
#    x 3.064210 0.000000 0.000000 
#    y 0.000000 3.064210 0.000000 
#    z 0.000000 0.000000 3.516750 
# 
# 
# High freq. dielectric constant tensor:
#      x y z
#    x 1.627920 0.000000 0.000000 
#    y 0.000000 1.627920 0.000000 
#    z 0.000000 0.000000 1.648390 
# 
# From -- ./inp_files/3001.got.cif
#   From: 2010.03.12/outbox.cif.g09.slc.cpg/sg191_2_cif.got.tgz:3001.got - 2010.04.01 12:09:02.
