data_PCOD8328823
_publ_section_title
;
Structure prediction by ZEFSAII (Michael W. Deem and Ramdas Pophale) SiO2 
 PCOD8328823
Probable space group: P 6/M M M
;
_chemical_formula_sum "Si O2"
_cell_formula_units_Z 84
_cell_length_a 22.446439
_cell_length_b 22.446439
_cell_length_c 11.094088
_cell_angle_alpha 90.000000
_cell_angle_beta 90.000000
_cell_angle_gamma 120.000000
_cell_volume 4840.800035
_symmetry_space_group_name_H-M "P 6/M M M"
_symmetry_group_IT_number 191
_symmetry_cell_setting 'hexagonal'
loop_
_space_group_symop_operation_xyz
x,y,z
x-y,x,z
-y,x-y,z
-x,-y,z
-x+y,-x,z
y,-x+y,z
x-y,-y,-z
-x,-x+y,-z
y,x,-z
-y,-x,-z
-x+y,y,-z
x,x-y,-z
-x,-y,-z
-x+y,-x,-z
y,-x+y,-z
x,y,-z
x-y,x,-z
-y,x-y,-z
-x+y,y,z
x,x-y,z
-y,-x,z
y,x,z
x-y,-y,z
-x,-x+y,z
loop_
_atom_site_type_symbol
_atom_site_label
_atom_site_fract_x
_atom_site_fract_y
_atom_site_fract_z
Si Si1 0.797763 0.464279 0.140328
Si Si2 0.788797 0.076806 0.138155
Si Si3 0.920910 0.586189 0.748017
Si Si4 0.472904 0.081078 0.500000
O O1 0.738974 0.477947 0.197306
O O2 0.791919 0.395960 0.200392
O O3 0.873796 0.527932 0.158061
O O4 0.784774 0.452125 0.000000
O O5 0.868151 0.131850 0.167220
O O6 0.740656 0.088999 0.230531
O O7 0.776805 0.000000 0.156773
O O8 0.770391 0.085577 0.000000
O O9 0.895273 0.553731 0.615421
O O10 0.000000 0.607215 0.770859
O O11 0.556161 0.112322 0.500000
O O12 0.438161 0.000000 0.500000
#
# Coordination Sequence:
#
# PCOD8328823 Si02
#       4
#    24  24  24  12
#     4  10  20  33  48  65  88 118 150 184 223 270
#     4   9  17  30  49  73 101 130 159 194 238 287
#     4  10  19  31  49  71  92 117 150 190 237 282
#     4   9  18  32  47  64  91 124 154 186 228 281
#
# _framework density 17.352504
#
# number of rings (size 3 to 8) (size 9 to 14) (size 15 to 20)
#    0.000    2.429    0.000    2.857    0.000    6.857 
#    0.000    4.286    0.000    0.286    0.000    4.000 
#    0.000    0.000    0.000    0.000    0.000   16.857 
#
# Total GULP energy -1041120.732959 kJ/mol
# GULP energy per Si atom -12394.294440 kJ/mol
# Density = 1.731301 g / cm^3
# Si number density = 17.352504 Si / 1000 Ang^3
#
#
#
# Elastic Constant Matrix: (Units=GPa)
#
#
# Indices 1 2 3 4 5 6 
#
# 1 117.6104 69.3737 35.7024 0.0000 0.0000 0.0000
# 2 69.3737 117.6104 35.7024 0.0000 0.0000 0.0000
# 3 35.7024 35.7024 47.5419 0.0000 0.0000 0.0000
# 4 0.0000 0.0000 0.0000 12.9484 0.0000 0.0000
# 5 0.0000 0.0000 0.0000 0.0000 12.9484 0.0000
# 6 0.0000 0.0000 0.0000 0.0000 0.0000 24.1183
#
#
#
# Elastic Compliance Matrix: (Units=1/GPa)
#
#
# Indices 1 2 3 4 5 6 
#
# 1 0.014115 -0.006616 -0.005631 0.000000 0.000000 0.000000
# 2 -0.006616 0.014115 -0.005631 0.000000 0.000000 0.000000
# 3 -0.005631 -0.005631 0.029492 0.000000 0.000000 0.000000
# 4 0.000000 0.000000 0.000000 0.077230 0.000000 0.000000
# 5 0.000000 0.000000 0.000000 0.000000 0.077230 0.000000
# 6 0.000000 0.000000 0.000000 0.000000 0.000000 0.041462
#
#
# Mechanical properties :
#
#
# Convention : Reuss Voigt Hill
#
# Bulk Modulus (GPa) = 45.52878 62.70220 54.11549
# Shear Modulus (GPa) = 16.85084 19.46863 18.15974
#
# Velocity S-wave (km/s) = 3.11961 3.35319 3.23851
# Velocity P-wave (km/s) = 6.26662 7.15574 6.72589
#
# Compressibility (1/GPa) = 0.02196413
#
# Stress axis : x y z
#
# Youngs Moduli (GPa) = 70.84779 70.84779 33.90803
#
# Poissons Ratio (x) = 0.46875 0.19094
# Poissons Ratio (y) = 0.46875 0.19094
# Poissons Ratio (z) = 0.39895 0.39895
#
# Static dielectric constant tensor:
#      x y z
#    x 3.269180 0.000000 0.000000 
#    y 0.000000 3.269180 0.000000 
#    z 0.000000 0.000000 3.162170 
# 
# 
# High freq. dielectric constant tensor:
#      x y z
#    x 1.664580 0.000000 0.000000 
#    y 0.000000 1.664580 0.000000 
#    z 0.000000 0.000000 1.644500 
# 
# From -- ./inp_files/2400.got.cif
#   From: 2010.03.12/outbox.cif.g09.slc.cpg/sg191_2_cif.got.tgz:2400.got - 2010.04.01 12:09:02.
