data_PCOD8328128
_publ_section_title
;
Structure prediction by ZEFSAII (Michael W. Deem and Ramdas Pophale) SiO2 
 PCOD8328128
Probable space group: P -6 2 C
;
_chemical_formula_sum "Si O2"
_cell_formula_units_Z 72
_cell_length_a 14.809771
_cell_length_b 14.809771
_cell_length_c 17.719869
_cell_angle_alpha 90.000000
_cell_angle_beta 90.000000
_cell_angle_gamma 120.000000
_cell_volume 3365.796271
_symmetry_space_group_name_H-M "P -6 2 C"
_symmetry_group_IT_number 190
_symmetry_cell_setting 'hexagonal'
loop_
_space_group_symop_operation_xyz
x,y,z
-x+y,-x,1/2-z
-y,x-y,z
x,y,1/2-z
-x+y,-x,z
-y,x-y,1/2-z
x-y,-y,-z
-x,-x+y,-z
y,x,-z
y,x,1/2+z
x-y,-y,1/2+z
-x,-x+y,1/2+z
loop_
_atom_site_type_symbol
_atom_site_label
_atom_site_fract_x
_atom_site_fract_y
_atom_site_fract_z
Si Si1 0.477033 0.917021 0.568593
Si Si2 0.800733 0.234675 0.441490
Si Si3 0.078617 0.860232 0.335401
Si Si4 0.776346 0.212486 0.611029
Si Si5 0.152300 0.912700 0.659515
Si Si6 0.109759 0.552955 0.163151
O O1 0.527953 0.845250 0.582652
O O2 0.355679 0.833645 0.557650
O O3 0.527417 0.000000 0.500000
O O4 0.498359 0.987611 0.642884
O O5 0.814368 0.207765 0.527075
O O6 0.877408 0.224540 0.383140
O O7 0.061183 0.881239 0.250000
O O8 0.123790 0.782342 0.341087
O O9 0.964695 0.806171 0.372435
O O10 0.159943 0.971605 0.370527
O O11 0.655397 0.182182 0.612512
O O12 0.851344 0.322867 0.648794
O O13 0.164708 0.905892 0.750000
O O14 0.124795 0.586471 0.250000
#
# Coordination Sequence:
#
# PCOD8328128 Si02
#       6
#    12  12  12  12  12  12
#     4  12  25  46  66  96 134 179 217 271 339 402
#     4  12  25  42  69  94 131 173 221 269 333 409
#     4  10  21  39  61  89 127 167 212 268 326 382
#     4  12  23  40  64  95 133 169 215 276 337 391
#     4  10  23  41  66  96 131 177 224 270 328 398
#     4  12  25  42  68 100 135 176 228 282 336 399
#
# _framework density 21.391669
#
# number of rings (size 3 to 8) (size 9 to 14) (size 15 to 20)
#    0.000    0.667    3.333    4.500    0.000    5.333 
#    0.000    0.000    0.000    4.000    0.000    0.000 
#    0.000    0.000    0.000    0.000    0.000    0.000 
#
# Total GULP energy -892936.460578 kJ/mol
# GULP energy per Si atom -12401.895286 kJ/mol
# Density = 2.134298 g / cm^3
# Si number density = 21.391669 Si / 1000 Ang^3
#
#
#
# Elastic Constant Matrix: (Units=GPa)
#
#
# Indices 1 2 3 4 5 6 
#
# 1 94.9237 3.1782 13.4094 0.0000 0.0000 0.0000
# 2 3.1782 94.9237 13.4094 0.0000 0.0000 0.0000
# 3 13.4094 13.4094 82.4236 0.0000 0.0000 0.0000
# 4 0.0000 0.0000 0.0000 27.1631 0.0000 0.0000
# 5 0.0000 0.0000 0.0000 0.0000 27.1631 0.0000
# 6 0.0000 0.0000 0.0000 0.0000 0.0000 45.8728
#
#
#
# Elastic Compliance Matrix: (Units=1/GPa)
#
#
# Indices 1 2 3 4 5 6 
#
# 1 0.010784 -0.000116 -0.001736 0.000000 0.000000 0.000000
# 2 -0.000116 0.010784 -0.001736 0.000000 0.000000 0.000000
# 3 -0.001736 -0.001736 0.012697 0.000000 0.000000 0.000000
# 4 0.000000 0.000000 0.000000 0.036815 0.000000 0.000000
# 5 0.000000 0.000000 0.000000 0.000000 0.036815 0.000000
# 6 0.000000 0.000000 0.000000 0.000000 0.000000 0.021799
#
#
# Mechanical properties :
#
#
# Convention : Reuss Voigt Hill
#
# Bulk Modulus (GPa) = 36.91287 36.91834 36.91560
# Shear Modulus (GPa) = 34.27060 36.19142 35.23101
#
# Velocity S-wave (km/s) = 4.00691 4.11767 4.06267
# Velocity P-wave (km/s) = 6.22095 6.31686 6.26909
#
# Compressibility (1/GPa) = 0.02709082
#
# Stress axis : x y z
#
# Youngs Moduli (GPa) = 92.73145 92.73145 78.75782
#
# Poissons Ratio (x) = 0.01075 0.13669
# Poissons Ratio (y) = 0.01075 0.13669
# Poissons Ratio (z) = 0.16094 0.16094
#
# Static dielectric constant tensor:
#      x y z
#    x 3.934400 0.000000 0.000000 
#    y 0.000000 3.934400 0.000000 
#    z 0.000000 0.000000 3.738430 
# 
# 
# High freq. dielectric constant tensor:
#      x y z
#    x 1.850700 0.000000 0.000000 
#    y 0.000000 1.850700 0.000000 
#    z 0.000000 0.000000 1.826500 
# 
# From -- ./inp_files/3745.got.cif
#   From: 2010.06.25/outbox.cif.g09.slc.cpg/sg190_2_cif.got.tgz:3745.got - 2010.06.28 13:08:06.
