data_PCOD8328957
_publ_section_title
;
Structure prediction by ZEFSAII (Michael W. Deem and Ramdas Pophale) SiO2 
 PCOD8328957
Probable space group: P 6/M M M
;
_chemical_formula_sum "Si O2"
_cell_formula_units_Z 132
_cell_length_a 17.841990
_cell_length_b 17.841990
_cell_length_c 27.841029
_cell_angle_alpha 90.000000
_cell_angle_beta 90.000000
_cell_angle_gamma 120.000000
_cell_volume 7675.426153
_symmetry_space_group_name_H-M "P 6/M M M"
_symmetry_group_IT_number 191
_symmetry_cell_setting 'hexagonal'
loop_
_space_group_symop_operation_xyz
x,y,z
x-y,x,z
-y,x-y,z
-x,-y,z
-x+y,-x,z
y,-x+y,z
x-y,-y,-z
-x,-x+y,-z
y,x,-z
-y,-x,-z
-x+y,y,-z
x,x-y,-z
-x,-y,-z
-x+y,-x,-z
y,-x+y,-z
x,y,-z
x-y,x,-z
-y,x-y,-z
-x+y,y,z
x,x-y,z
-y,-x,z
y,x,z
x-y,-y,z
-x,-x+y,z
loop_
_atom_site_type_symbol
_atom_site_label
_atom_site_fract_x
_atom_site_fract_y
_atom_site_fract_z
Si Si1 0.491820 0.159775 0.225551
Si Si2 0.265526 0.902459 0.691519
Si Si3 0.160429 0.667759 0.500000
Si Si4 0.736624 0.096155 0.418080
Si Si5 0.468094 0.102501 0.946781
Si Si6 0.364579 0.265633 0.139882
O O1 0.573753 0.147505 0.220179
O O2 0.521426 0.260713 0.220746
O O3 0.447385 0.122192 0.276845
O O4 0.423272 0.103988 0.184626
O O5 0.163841 0.836160 0.702945
O O6 0.287061 0.893474 0.636403
O O7 0.286342 0.000000 0.702843
O O8 0.261567 0.738433 0.500000
O O9 0.147750 0.573875 0.500000
O O10 0.114444 0.675983 0.547541
O O11 0.837411 0.162590 0.429456
O O12 0.720286 0.000000 0.427272
O O13 0.570117 0.140233 0.935713
O O14 0.425309 0.134340 0.907191
O O15 0.421266 0.000000 0.944816
O O16 0.457388 0.133033 0.000000
O O17 0.324873 0.162437 0.147719
O O18 0.286677 0.286677 0.134346
#
# Coordination Sequence:
#
# PCOD8328957 Si02
#       6
#    24  24  12  24  24  24
#     4  10  20  33  49  70  96 124 152 183 222 269
#     4   9  18  32  49  69  93 122 155 190 228 269
#     4  10  20  33  48  67  92 122 155 190 228 269
#     4   9  18  32  49  69  93 121 153 189 230 273
#     4   8  14  26  45  68  92 117 146 181 221 266
#     4  10  20  32  47  68  93 121 154 193 235 276
#
# _framework density 17.197742000000002
#
# number of rings (size 3 to 8) (size 9 to 14) (size 15 to 20)
#    0.000    2.727    0.000    2.182    0.000    4.000 
#    0.000    1.818    0.000    3.091    0.000    2.545 
#    0.000    6.545    0.000    4.909    0.000    0.000 
#
# Total GULP energy -1636279.873285 kJ/mol
# GULP energy per Si atom -12396.059646 kJ/mol
# Density = 1.715860 g / cm^3
# Si number density = 17.197742 Si / 1000 Ang^3
#
#
#
# Elastic Constant Matrix: (Units=GPa)
#
#
# Indices 1 2 3 4 5 6 
#
# 1 91.6508 63.7117 41.1551 0.0000 0.0000 0.0000
# 2 63.7117 91.6508 41.1551 0.0000 0.0000 0.0000
# 3 41.1551 41.1551 95.5054 0.0000 0.0000 0.0000
# 4 0.0000 0.0000 0.0000 21.7197 0.0000 0.0000
# 5 0.0000 0.0000 0.0000 0.0000 21.7197 0.0000
# 6 0.0000 0.0000 0.0000 0.0000 0.0000 13.9695
#
#
#
# Elastic Compliance Matrix: (Units=1/GPa)
#
#
# Indices 1 2 3 4 5 6 
#
# 1 0.022066 -0.013726 -0.003594 0.000000 0.000000 0.000000
# 2 -0.013726 0.022066 -0.003594 0.000000 0.000000 0.000000
# 3 -0.003594 -0.003594 0.013568 0.000000 0.000000 0.000000
# 4 0.000000 0.000000 0.000000 0.046041 0.000000 0.000000
# 5 0.000000 0.000000 0.000000 0.000000 0.046041 0.000000
# 6 0.000000 0.000000 0.000000 0.000000 0.000000 0.071584
#
#
# Mechanical properties :
#
#
# Convention : Reuss Voigt Hill
#
# Bulk Modulus (GPa) = 63.00021 63.42786 63.21403
# Shear Modulus (GPa) = 18.62288 20.33413 19.47850
#
# Velocity S-wave (km/s) = 3.29427 3.44229 3.36909
# Velocity P-wave (km/s) = 7.15416 7.26366 7.20912
#
# Compressibility (1/GPa) = 0.01587296
#
# Stress axis : x y z
#
# Youngs Moduli (GPa) = 45.31761 45.31761 73.70167
#
# Poissons Ratio (x) = 0.62202 0.26490
# Poissons Ratio (y) = 0.62202 0.26490
# Poissons Ratio (z) = 0.16288 0.16288
#
# Static dielectric constant tensor:
#      x y z
#    x 3.083340 0.000000 0.000000 
#    y 0.000000 3.083340 0.000000 
#    z 0.000000 0.000000 3.540470 
# 
# 
# High freq. dielectric constant tensor:
#      x y z
#    x 1.644140 0.000000 0.000000 
#    y 0.000000 1.644140 0.000000 
#    z 0.000000 0.000000 1.684760 
# 
# From -- ./inp_files/9844.got.cif
#   From: 2010.03.12/outbox.cif.g09.slc.cpg/sg191_5_cif.got.tgz:9844.got - 2010.04.01 12:09:02.
