data_PCOD8328259
_publ_section_title
;
Structure prediction by ZEFSAII (Michael W. Deem and Ramdas Pophale) SiO2 
 PCOD8328259
Probable space group: P 6/M M M
;
_chemical_formula_sum "Si O2"
_cell_formula_units_Z 108
_cell_length_a 18.659609
_cell_length_b 18.659609
_cell_length_c 25.137630
_cell_angle_alpha 90.000000
_cell_angle_beta 90.000000
_cell_angle_gamma 120.000000
_cell_volume 7579.840021
_symmetry_space_group_name_H-M "P 6/M M M"
_symmetry_group_IT_number 191
_symmetry_cell_setting 'hexagonal'
loop_
_space_group_symop_operation_xyz
x,y,z
x-y,x,z
-y,x-y,z
-x,-y,z
-x+y,-x,z
y,-x+y,z
x-y,-y,-z
-x,-x+y,-z
y,x,-z
-y,-x,-z
-x+y,y,-z
x,x-y,-z
-x,-y,-z
-x+y,-x,-z
y,-x+y,-z
x,y,-z
x-y,x,-z
-y,x-y,-z
-x+y,y,z
x,x-y,z
-y,-x,z
y,x,z
x-y,-y,z
-x,-x+y,z
loop_
_atom_site_type_symbol
_atom_site_label
_atom_site_fract_x
_atom_site_fract_y
_atom_site_fract_z
Si Si1 0.091750 0.630744 0.230225
Si Si2 0.668194 0.501812 0.119943
Si Si3 0.497262 0.827947 0.336338
Si Si4 0.000000 0.415069 0.939714
Si Si5 0.093946 0.632151 0.442380
O O1 0.087245 0.543623 0.235090
O O2 0.152128 0.680704 0.181723
O O3 0.125359 0.680678 0.285633
O O4 0.000000 0.615783 0.219385
O O5 0.751895 0.503791 0.100155
O O6 0.590627 0.409374 0.111546
O O7 0.654228 0.569568 0.088229
O O8 0.423391 0.846782 0.337347
O O9 0.461359 0.730680 0.330040
O O10 0.547499 0.857648 0.392059
O O11 0.000000 0.500000 0.936517
O O12 0.000000 0.386701 0.000000
O O13 0.129770 0.676204 0.500000
O O14 0.099806 0.549903 0.440388
O O15 0.000000 0.610771 0.437216
#
# Coordination Sequence:
#
# PCOD8328259 Si02
#       5
#    24  24  24  12  24
#     4   9  16  27  41  55  73 100 133 166 202 244
#     4  10  18  29  45  65  87 112 144 181 216 249
#     4  10  18  25  34  50  72  95 120 155 199 242
#     4   9  18  32  46  60  84 116 144 172 208 248
#     4   8  14  25  38  48  59  82 119 157 190 229
#
# _framework density 14.248322
#
# number of rings (size 3 to 8) (size 9 to 14) (size 15 to 20)
#    0.000    2.778    1.111    2.444    0.000    3.556 
#    0.000    2.222    0.000    2.667    0.000    0.000 
#    0.000    0.000    0.000    0.333    0.000    1.444 
#
# Total GULP energy -1337999.089506 kJ/mol
# GULP energy per Si atom -12388.880458 kJ/mol
# Density = 1.421589 g / cm^3
# Si number density = 14.248322 Si / 1000 Ang^3
#
#
#
# Elastic Constant Matrix: (Units=GPa)
#
#
# Indices 1 2 3 4 5 6 
#
# 1 49.3228 23.7227 30.5743 0.0000 0.0000 0.0000
# 2 23.7227 49.3228 30.5743 0.0000 0.0000 0.0000
# 3 30.5743 30.5743 111.9500 0.0000 0.0000 0.0000
# 4 0.0000 0.0000 0.0000 12.3307 0.0000 0.0000
# 5 0.0000 0.0000 0.0000 0.0000 12.3307 0.0000
# 6 0.0000 0.0000 0.0000 0.0000 0.0000 12.8000
#
#
#
# Elastic Compliance Matrix: (Units=1/GPa)
#
#
# Indices 1 2 3 4 5 6 
#
# 1 0.028405 -0.010657 -0.004847 0.000000 0.000000 0.000000
# 2 -0.010657 0.028405 -0.004847 0.000000 0.000000 0.000000
# 3 -0.004847 -0.004847 0.011580 0.000000 0.000000 0.000000
# 4 0.000000 0.000000 0.000000 0.081099 0.000000 0.000000
# 5 0.000000 0.000000 0.000000 0.000000 0.081099 0.000000
# 6 0.000000 0.000000 0.000000 0.000000 0.000000 0.078125
#
#
# Mechanical properties :
#
#
# Convention : Reuss Voigt Hill
#
# Bulk Modulus (GPa) = 36.11753 42.25979 39.18866
# Shear Modulus (GPa) = 13.94138 15.87388 14.90763
#
# Velocity S-wave (km/s) = 3.13142 3.34142 3.23812
# Velocity P-wave (km/s) = 6.20307 6.67912 6.44549
#
# Compressibility (1/GPa) = 0.02768739
#
# Stress axis : x y z
#
# Youngs Moduli (GPa) = 35.20499 35.20499 86.35531
#
# Poissons Ratio (x) = 0.37519 0.41857
# Poissons Ratio (y) = 0.37519 0.41857
# Poissons Ratio (z) = 0.17064 0.17064
#
# Static dielectric constant tensor:
#      x y z
#    x 2.483970 0.000000 0.000000 
#    y 0.000000 2.483970 0.000000 
#    z 0.000000 0.000000 3.291280 
# 
# 
# High freq. dielectric constant tensor:
#      x y z
#    x 1.498800 0.000000 0.000000 
#    y 0.000000 1.498800 0.000000 
#    z 0.000000 0.000000 1.569860 
# 
# From -- ./inp_files/9451.got.cif
#   From: 2010.03.12/outbox.cif.g09.slc.cpg/sg191_5_cif.got.tgz:9451.got - 2010.04.01 12:09:02.
