data_PCOD8328503
_publ_section_title
;
Structure prediction by ZEFSAII (Michael W. Deem and Ramdas Pophale) SiO2 
 PCOD8328503
Probable space group: P 6/M M M
;
_chemical_formula_sum "Si O2"
_cell_formula_units_Z 144
_cell_length_a 21.650808
_cell_length_b 21.650808
_cell_length_c 21.874325
_cell_angle_alpha 90.000000
_cell_angle_beta 90.000000
_cell_angle_gamma 120.000000
_cell_volume 8880.011117
_symmetry_space_group_name_H-M "P 6/M M M"
_symmetry_group_IT_number 191
_symmetry_cell_setting 'hexagonal'
loop_
_space_group_symop_operation_xyz
x,y,z
x-y,x,z
-y,x-y,z
-x,-y,z
-x+y,-x,z
y,-x+y,z
x-y,-y,-z
-x,-x+y,-z
y,x,-z
-y,-x,-z
-x+y,y,-z
x,x-y,-z
-x,-y,-z
-x+y,-x,-z
y,-x+y,-z
x,y,-z
x-y,x,-z
-y,x-y,-z
-x+y,y,z
x,x-y,z
-y,-x,z
y,x,z
x-y,-y,z
-x,-x+y,z
loop_
_atom_site_type_symbol
_atom_site_label
_atom_site_fract_x
_atom_site_fract_y
_atom_site_fract_z
Si Si1 0.915686 0.457843 0.067750
Si Si2 0.440971 0.149825 0.382948
Si Si3 0.784139 0.078929 0.682637
Si Si4 0.915779 0.528310 0.500000
Si Si5 0.808636 0.474872 0.263242
Si Si6 0.920237 0.218854 0.825609
Si Si7 0.917252 0.562387 0.159746
O O1 0.890546 0.506909 0.103356
O O2 0.000000 0.500000 0.061729
O O3 0.880942 0.440471 0.000000
O O4 0.443397 0.221699 0.404767
O O5 0.364280 0.095204 0.354959
O O6 0.454175 0.113834 0.440252
O O7 0.501359 0.167269 0.332637
O O8 0.866263 0.133738 0.665516
O O9 0.770646 0.085769 0.753734
O O10 0.768592 0.000000 0.666243
O O11 0.889944 0.444972 0.500000
O O12 0.000000 0.575896 0.500000
O O13 0.743010 0.486019 0.244682
O O14 0.784330 0.392165 0.257023
O O15 0.874350 0.522339 0.219610
O O16 0.861051 0.138950 0.846842
O O17 0.905573 0.277181 0.858412
O O18 0.000000 0.233901 0.842025
O O19 0.000000 0.590950 0.174745
#
# Coordination Sequence:
#
# PCOD8328503 Si02
#       7
#    12  24  24  12  24  24  24
#     4   9  18  32  48  72 104 133 163 199 245 298
#     4  10  20  34  51  67  89 120 158 200 240 284
#     4   9  16  27  45  69  95 123 153 194 241 284
#     4  11  23  36  48  66  92 123 151 183 238 298
#     4  11  21  33  49  71  95 122 156 200 245 287
#     4   9  16  27  45  71 100 127 161 204 251 295
#     4  10  18  29  49  74  96 124 161 203 248 290
#
# _framework density 16.216194999999999
#
# number of rings (size 3 to 8) (size 9 to 14) (size 15 to 20)
#    0.000    2.167    2.500    1.917    0.000    0.667 
#    0.000    0.000    0.000    4.667    0.000    2.333 
#    0.000    0.000    0.000    0.000    0.000   17.333 
#
# Total GULP energy -1785401.924965 kJ/mol
# GULP energy per Si atom -12398.624479 kJ/mol
# Density = 1.617929 g / cm^3
# Si number density = 16.216195 Si / 1000 Ang^3
#
#
#
# Elastic Constant Matrix: (Units=GPa)
#
#
# Indices 1 2 3 4 5 6 
#
# 1 101.2513 55.4832 35.8712 0.0000 0.0000 0.0000
# 2 55.4832 101.2513 35.8712 0.0000 0.0000 0.0000
# 3 35.8712 35.8712 52.7120 0.0000 0.0000 0.0000
# 4 0.0000 0.0000 0.0000 8.8844 0.0000 0.0000
# 5 0.0000 0.0000 0.0000 0.0000 8.8844 0.0000
# 6 0.0000 0.0000 0.0000 0.0000 0.0000 22.8840
#
#
#
# Elastic Compliance Matrix: (Units=1/GPa)
#
#
# Indices 1 2 3 4 5 6 
#
# 1 0.015558 -0.006291 -0.006306 0.000000 0.000000 0.000000
# 2 -0.006291 0.015558 -0.006306 0.000000 0.000000 0.000000
# 3 -0.006306 -0.006306 0.027554 0.000000 0.000000 0.000000
# 4 0.000000 0.000000 0.000000 0.112557 0.000000 0.000000
# 5 0.000000 0.000000 0.000000 0.000000 0.112557 0.000000
# 6 0.000000 0.000000 0.000000 0.000000 0.000000 0.043699
#
#
# Mechanical properties :
#
#
# Convention : Reuss Voigt Hill
#
# Bulk Modulus (GPa) = 47.93230 56.62953 52.28092
# Shear Modulus (GPa) = 13.43205 16.66316 15.04761
#
# Velocity S-wave (km/s) = 2.88116 3.20904 3.04951
# Velocity P-wave (km/s) = 6.37892 6.98054 6.68650
#
# Compressibility (1/GPa) = 0.02086276
#
# Stress axis : x y z
#
# Youngs Moduli (GPa) = 64.27560 64.27560 36.29265
#
# Poissons Ratio (x) = 0.40438 0.22887
# Poissons Ratio (y) = 0.40438 0.22887
# Poissons Ratio (z) = 0.40533 0.40533
#
# Static dielectric constant tensor:
#      x y z
#    x 3.147110 0.000000 0.000000 
#    y 0.000000 3.147110 0.000000 
#    z 0.000000 0.000000 2.920290 
# 
# 
# High freq. dielectric constant tensor:
#      x y z
#    x 1.622540 0.000000 0.000000 
#    y 0.000000 1.622540 0.000000 
#    z 0.000000 0.000000 1.597230 
# 
# From -- ./inp_files/7680.got.cif
#   From: 2010.03.12/outbox.cif.g09.slc.cpg/sg191_4_cif.got.tgz:7680.got - 2010.04.01 12:09:02.
