data_PCOD8328553
_publ_section_title
;
Structure prediction by ZEFSAII (Michael W. Deem and Ramdas Pophale) SiO2 
 PCOD8328553
Probable space group: P 6/M M M
;
_chemical_formula_sum "Si O2"
_cell_formula_units_Z 156
_cell_length_a 21.705215
_cell_length_b 21.705215
_cell_length_c 22.112985
_cell_angle_alpha 90.000000
_cell_angle_beta 90.000000
_cell_angle_gamma 120.000000
_cell_volume 9022.069892
_symmetry_space_group_name_H-M "P 6/M M M"
_symmetry_group_IT_number 191
_symmetry_cell_setting 'hexagonal'
loop_
_space_group_symop_operation_xyz
x,y,z
x-y,x,z
-y,x-y,z
-x,-y,z
-x+y,-x,z
y,-x+y,z
x-y,-y,-z
-x,-x+y,-z
y,x,-z
-y,-x,-z
-x+y,y,-z
x,x-y,-z
-x,-y,-z
-x+y,-x,-z
y,-x+y,-z
x,y,-z
x-y,x,-z
-y,x-y,-z
-x+y,y,z
x,x-y,z
-y,-x,z
y,x,z
x-y,-y,z
-x,-x+y,z
loop_
_atom_site_type_symbol
_atom_site_label
_atom_site_fract_x
_atom_site_fract_y
_atom_site_fract_z
Si Si1 0.920500 0.704921 0.265321
Si Si2 0.379726 0.297744 0.148428
Si Si3 0.080201 0.919800 0.072010
Si Si4 0.161058 0.322115 0.928397
Si Si5 0.334060 0.809058 0.663434
Si Si6 0.918934 0.699183 0.500000
Si Si7 0.377305 0.081268 0.380072
Si Si8 0.665843 0.475537 0.195458
O O1 0.868438 0.736875 0.257179
O O2 0.910560 0.653829 0.210165
O O3 0.899278 0.658869 0.325963
O O4 0.000000 0.771378 0.268661
O O5 0.352890 0.352890 0.132264
O O6 0.359833 0.241787 0.094415
O O7 0.464723 0.340437 0.157060
O O8 0.120506 0.879494 0.095676
O O9 0.000000 0.879108 0.097610
O O10 0.079212 0.920789 0.000000
O O11 0.162808 0.325616 0.000000
O O12 0.403433 0.806866 0.642763
O O13 0.266914 0.733087 0.648874
O O14 0.331175 0.869368 0.623830
O O15 0.337297 0.827775 0.733964
O O16 0.865316 0.730631 0.500000
O O17 0.903642 0.649558 0.557693
O O18 0.000000 0.765164 0.500000
O O19 0.359037 0.000000 0.375216
O O20 0.738675 0.477350 0.178884
O O21 0.600823 0.399178 0.176614
#
# Coordination Sequence:
#
# PCOD8328553 Si02
#       8
#    24  24  12  12  24  12  24  24
#     4  10  18  31  51  74 101 133 170 214 261 308
#     4  11  21  34  54  81 110 138 174 218 264 314
#     4   9  17  30  49  74 104 140 181 221 257 295
#     4  11  22  37  56  77 108 145 181 217 262 323
#     4  10  19  31  50  75 108 142 176 218 264 313
#     4  10  20  34  53  78 107 141 181 223 268 320
#     4  10  20  33  52  77 104 137 176 221 269 315
#     4  10  19  33  54  82 112 140 175 221 274 324
#
# _framework density 17.290932999999999
#
# number of rings (size 3 to 8) (size 9 to 14) (size 15 to 20)
#    0.000    1.846    3.077    2.231    0.000    3.077 
#    0.000    1.923    0.000    2.077    0.000    2.154 
#    0.000    3.692    0.000    0.000    0.000    0.308 
#
# Total GULP energy -1934786.561311 kJ/mol
# GULP energy per Si atom -12402.477957 kJ/mol
# Density = 1.725158 g / cm^3
# Si number density = 17.290933 Si / 1000 Ang^3
#
#
#
# Elastic Constant Matrix: (Units=GPa)
#
#
# Indices 1 2 3 4 5 6 
#
# 1 120.0495 70.2863 25.3467 0.0000 0.0000 0.0000
# 2 70.2863 120.0495 25.3467 0.0000 0.0000 0.0000
# 3 25.3467 25.3467 63.0768 0.0000 0.0000 0.0000
# 4 0.0000 0.0000 0.0000 20.6767 0.0000 0.0000
# 5 0.0000 0.0000 0.0000 0.0000 20.6767 0.0000
# 6 0.0000 0.0000 0.0000 0.0000 0.0000 24.8816
#
#
#
# Elastic Compliance Matrix: (Units=1/GPa)
#
#
# Indices 1 2 3 4 5 6 
#
# 1 0.012989 -0.007106 -0.002364 0.000000 0.000000 0.000000
# 2 -0.007106 0.012989 -0.002364 0.000000 0.000000 0.000000
# 3 -0.002364 -0.002364 0.017754 0.000000 0.000000 0.000000
# 4 0.000000 0.000000 0.000000 0.048364 0.000000 0.000000
# 5 0.000000 0.000000 0.000000 0.000000 0.048364 0.000000
# 6 0.000000 0.000000 0.000000 0.000000 0.000000 0.040190
#
#
# Mechanical properties :
#
#
# Convention : Reuss Voigt Hill
#
# Bulk Modulus (GPa) = 49.84072 60.57060 55.20566
# Shear Modulus (GPa) = 23.69594 25.39341 24.54468
#
# Velocity S-wave (km/s) = 3.70594 3.83639 3.77173
# Velocity P-wave (km/s) = 6.87018 7.39798 7.13896
#
# Compressibility (1/GPa) = 0.02006392
#
# Stress axis : x y z
#
# Youngs Moduli (GPa) = 76.98608 76.98608 56.32607
#
# Poissons Ratio (x) = 0.54705 0.13317
# Poissons Ratio (y) = 0.54705 0.13317
# Poissons Ratio (z) = 0.18201 0.18201
#
# Static dielectric constant tensor:
#      x y z
#    x 3.279670 0.000000 0.000000 
#    y 0.000000 3.279670 0.000000 
#    z 0.000000 0.000000 3.056630 
# 
# 
# High freq. dielectric constant tensor:
#      x y z
#    x 1.668460 0.000000 0.000000 
#    y 0.000000 1.668460 0.000000 
#    z 0.000000 0.000000 1.645660 
# 
# From -- ./inp_files/7768.got.cif
#   From: 2010.03.12/outbox.cif.g09.slc.cpg/sg191_4_cif.got.tgz:7768.got - 2010.04.01 12:09:02.
