data_PCOD8328959
_publ_section_title
;
Structure prediction by ZEFSAII (Michael W. Deem and Ramdas Pophale) SiO2 
 PCOD8328959
Probable space group: P 6/M M M
;
_chemical_formula_sum "Si O2"
_cell_formula_units_Z 132
_cell_length_a 17.794375
_cell_length_b 17.794375
_cell_length_c 28.336521
_cell_angle_alpha 90.000000
_cell_angle_beta 90.000000
_cell_angle_gamma 120.000000
_cell_volume 7770.386800
_symmetry_space_group_name_H-M "P 6/M M M"
_symmetry_group_IT_number 191
_symmetry_cell_setting 'hexagonal'
loop_
_space_group_symop_operation_xyz
x,y,z
x-y,x,z
-y,x-y,z
-x,-y,z
-x+y,-x,z
y,-x+y,z
x-y,-y,-z
-x,-x+y,-z
y,x,-z
-y,-x,-z
-x+y,y,-z
x,x-y,-z
-x,-y,-z
-x+y,-x,-z
y,-x+y,-z
x,y,-z
x-y,x,-z
-y,x-y,-z
-x+y,y,z
x,x-y,z
-y,-x,z
y,x,z
x-y,-y,z
-x,-x+y,z
loop_
_atom_site_type_symbol
_atom_site_label
_atom_site_fract_x
_atom_site_fract_y
_atom_site_fract_z
Si Si1 0.727951 0.099198 0.000000
Si Si2 0.897088 0.365605 0.367841
Si Si3 0.731773 0.631676 0.176614
Si Si4 0.490131 0.158502 0.089967
Si Si5 0.259148 0.903324 0.447350
Si Si6 0.365146 0.467703 0.736250
O O1 0.682604 0.113183 0.954981
O O2 0.832135 0.167866 0.000000
O O3 0.709838 0.000000 0.000000
O O4 0.858090 0.429045 0.375512
O O5 0.862097 0.296352 0.409923
O O6 0.868478 0.321827 0.315862
O O7 0.000000 0.420448 0.371068
O O8 0.835149 0.670298 0.167410
O O9 0.709993 0.709993 0.179470
O O10 0.674760 0.566055 0.135539
O O11 0.709212 0.575836 0.224638
O O12 0.573822 0.147644 0.087724
O O13 0.520508 0.260254 0.091638
O O14 0.294288 0.901294 0.500000
O O15 0.155059 0.844942 0.445997
O O16 0.282838 0.000000 0.433109
O O17 0.429149 0.570852 0.745771
O O18 0.423058 0.423058 0.738521
#
# Coordination Sequence:
#
# PCOD8328959 Si02
#       6
#    12  24  24  24  24  24
#     4  10  21  35  51  72  97 127 162 200 239 275
#     4   8  14  25  42  64  87 109 135 170 212 259
#     4  10  20  32  47  68  93 122 156 195 236 274
#     4  10  20  33  50  73 101 130 157 186 224 273
#     4   9  17  28  42  61  85 113 146 185 227 268
#     4   8  14  26  44  65  88 112 138 170 211 261
#
# _framework density 16.987570999999999
#
# number of rings (size 3 to 8) (size 9 to 14) (size 15 to 20)
#    0.000    2.909    0.000    2.636    0.000    3.636 
#    0.000    2.727    0.000    1.182    0.000    1.273 
#    0.000    4.364    0.000    9.091    0.000    5.091 
#
# Total GULP energy -1635597.523951 kJ/mol
# GULP energy per Si atom -12390.890333 kJ/mol
# Density = 1.694891 g / cm^3
# Si number density = 16.987571 Si / 1000 Ang^3
#
#
#
# Elastic Constant Matrix: (Units=GPa)
#
#
# Indices 1 2 3 4 5 6 
#
# 1 80.2971 48.3546 40.8117 0.0000 0.0000 0.0000
# 2 48.3546 80.2971 40.8117 0.0000 0.0000 0.0000
# 3 40.8117 40.8117 122.6345 0.0000 0.0000 0.0000
# 4 0.0000 0.0000 0.0000 13.3631 0.0000 0.0000
# 5 0.0000 0.0000 0.0000 0.0000 13.3631 0.0000
# 6 0.0000 0.0000 0.0000 0.0000 0.0000 15.9712
#
#
#
# Elastic Compliance Matrix: (Units=1/GPa)
#
#
# Indices 1 2 3 4 5 6 
#
# 1 0.020580 -0.010726 -0.003279 0.000000 0.000000 0.000000
# 2 -0.010726 0.020580 -0.003279 0.000000 0.000000 0.000000
# 3 -0.003279 -0.003279 0.010337 0.000000 0.000000 0.000000
# 4 0.000000 0.000000 0.000000 0.074833 0.000000 0.000000
# 5 0.000000 0.000000 0.000000 0.000000 0.074833 0.000000
# 6 0.000000 0.000000 0.000000 0.000000 0.000000 0.062613
#
#
# Mechanical properties :
#
#
# Convention : Reuss Voigt Hill
#
# Bulk Modulus (GPa) = 59.07681 60.35383 59.71532
# Shear Modulus (GPa) = 16.44807 18.75618 17.60213
#
# Velocity S-wave (km/s) = 3.11503 3.32642 3.22246
# Velocity P-wave (km/s) = 6.91302 7.09639 7.00531
#
# Compressibility (1/GPa) = 0.01692712
#
# Stress axis : x y z
#
# Youngs Moduli (GPa) = 48.59126 48.59126 96.74141
#
# Poissons Ratio (x) = 0.52121 0.31723
# Poissons Ratio (y) = 0.52121 0.31723
# Poissons Ratio (z) = 0.15934 0.15934
#
# Static dielectric constant tensor:
#      x y z
#    x 3.006120 0.000000 0.000000 
#    y 0.000000 3.006120 0.000000 
#    z 0.000000 0.000000 3.637880 
# 
# 
# High freq. dielectric constant tensor:
#      x y z
#    x 1.628150 0.000000 0.000000 
#    y 0.000000 1.628150 0.000000 
#    z 0.000000 0.000000 1.678490 
# 
# From -- ./inp_files/9777.got.cif
#   From: 2010.03.12/outbox.cif.g09.slc.cpg/sg191_5_cif.got.tgz:9777.got - 2010.04.01 12:09:02.
