data_PCOD8328022
_publ_section_title
;
Structure prediction by ZEFSAII (Michael W. Deem and Ramdas Pophale) SiO2 
 PCOD8328022
Probable space group: P -6 2 C
;
_chemical_formula_sum "Si O2"
_cell_formula_units_Z 84
_cell_length_a 13.757185
_cell_length_b 13.757185
_cell_length_c 27.987510
_cell_angle_alpha 90.000000
_cell_angle_beta 90.000000
_cell_angle_gamma 120.000000
_cell_volume 4587.267313
_symmetry_space_group_name_H-M "P -6 2 C"
_symmetry_group_IT_number 190
_symmetry_cell_setting 'hexagonal'
loop_
_space_group_symop_operation_xyz
x,y,z
-x+y,-x,1/2-z
-y,x-y,z
x,y,1/2-z
-x+y,-x,z
-y,x-y,1/2-z
x-y,-y,-z
-x,-x+y,-z
y,x,-z
y,x,1/2+z
x-y,-y,1/2+z
-x,-x+y,1/2+z
loop_
_atom_site_type_symbol
_atom_site_label
_atom_site_fract_x
_atom_site_fract_y
_atom_site_fract_z
Si Si1 0.798714 0.792194 0.400135
Si Si2 0.455657 0.115532 0.895526
Si Si3 0.820525 0.712493 0.303646
Si Si4 0.571858 0.574936 0.198152
Si Si5 0.884868 0.559201 0.901026
Si Si6 0.356648 0.360257 0.303962
Si Si7 0.204374 0.206236 0.444257
O O1 0.670464 0.698470 0.413580
O O2 0.823672 0.800588 0.342866
O O3 0.825552 0.914026 0.417531
O O4 0.876425 0.752113 0.425920
O O5 0.486830 0.240390 0.910586
O O6 0.549604 0.088213 0.915927
O O7 0.458575 0.104343 0.838325
O O8 0.840312 0.765043 0.250000
O O9 0.698959 0.600292 0.307608
O O10 0.910110 0.675382 0.316539
O O11 0.554338 0.614567 0.250000
O O12 0.491436 0.440777 0.192286
O O13 0.963793 0.665327 0.934159
O O14 0.902158 0.597590 0.845191
O O15 0.314745 0.366943 0.250000
O O16 0.183647 0.183647 0.500000
#
# Coordination Sequence:
#
# PCOD8328022 Si02
#       7
#    12  12  12  12  12  12  12
#     4  10  20  37  57  82 109 142 177 223 271 325
#     4   9  19  32  55  76 106 140 171 213 262 316
#     4   9  16  30  50  76 112 147 177 217 263 318
#     4   8  15  27  43  69 104 140 177 210 249 298
#     4  10  19  35  53  80 107 140 177 219 267 322
#     4   9  16  28  48  73 105 144 178 215 261 313
#     4  11  22  37  58  81 104 135 182 232 276 324
#
# _framework density 18.311554999999998
#
# number of rings (size 3 to 8) (size 9 to 14) (size 15 to 20)
#    0.000    2.571    1.429    1.000    0.000    0.571 
#    0.857    5.714    0.000    2.286    0.000    0.000 
#    0.000    0.000    0.000    0.000    0.000    0.000 
#
# Total GULP energy -1040797.686073 kJ/mol
# GULP energy per Si atom -12390.448644 kJ/mol
# Density = 1.826988 g / cm^3
# Si number density = 18.311555 Si / 1000 Ang^3
#
#
#
# Elastic Constant Matrix: (Units=GPa)
#
#
# Indices 1 2 3 4 5 6 
#
# 1 97.8488 52.7986 37.4792 0.0000 0.0000 0.0000
# 2 52.7986 97.8488 37.4792 0.0000 0.0000 0.0000
# 3 37.4792 37.4792 89.5251 0.0000 0.0000 0.0000
# 4 0.0000 0.0000 0.0000 17.7840 0.0000 0.0000
# 5 0.0000 0.0000 0.0000 0.0000 17.7840 0.0000
# 6 0.0000 0.0000 0.0000 0.0000 0.0000 22.5251
#
#
#
# Elastic Compliance Matrix: (Units=1/GPa)
#
#
# Indices 1 2 3 4 5 6 
#
# 1 0.015291 -0.006906 -0.003510 0.000000 0.000000 0.000000
# 2 -0.006906 0.015291 -0.003510 0.000000 0.000000 0.000000
# 3 -0.003510 -0.003510 0.014109 0.000000 0.000000 0.000000
# 4 0.000000 0.000000 0.000000 0.056230 0.000000 0.000000
# 5 0.000000 0.000000 0.000000 0.000000 0.056230 0.000000
# 6 0.000000 0.000000 0.000000 0.000000 0.000000 0.044395
#
#
# Mechanical properties :
#
#
# Convention : Reuss Voigt Hill
#
# Bulk Modulus (GPa) = 59.39091 60.08187 59.73639
# Shear Modulus (GPa) = 21.27544 22.11632 21.69588
#
# Velocity S-wave (km/s) = 3.41230 3.47908 3.44585
# Velocity P-wave (km/s) = 6.93030 7.00149 6.96598
#
# Compressibility (1/GPa) = 0.01683759
#
# Stress axis : x y z
#
# Youngs Moduli (GPa) = 65.39775 65.39775 70.87636
#
# Poissons Ratio (x) = 0.45167 0.24879
# Poissons Ratio (y) = 0.45167 0.24879
# Poissons Ratio (z) = 0.22956 0.22956
#
# Static dielectric constant tensor:
#      x y z
#    x 3.335940 0.000000 0.000000 
#    y 0.000000 3.335940 0.000000 
#    z 0.000000 0.000000 3.379820 
# 
# 
# High freq. dielectric constant tensor:
#      x y z
#    x 1.699780 0.000000 0.000000 
#    y 0.000000 1.699780 0.000000 
#    z 0.000000 0.000000 1.699970 
# 
# From -- ./inp_files/4702.got.cif
#   From: 2010.06.25/outbox.cif.g09.slc.cpg/sg190_3_cif.got.tgz:4702.got - 2010.06.28 13:08:06.
