data_PCOD8328538
_publ_section_title
;
Structure prediction by ZEFSAII (Michael W. Deem and Ramdas Pophale) SiO2 
 PCOD8328538
Probable space group: P 6/M M M
;
_chemical_formula_sum "Si O2"
_cell_formula_units_Z 156
_cell_length_a 21.394477
_cell_length_b 21.394477
_cell_length_c 23.477729
_cell_angle_alpha 90.000000
_cell_angle_beta 90.000000
_cell_angle_gamma 120.000000
_cell_volume 9306.578947
_symmetry_space_group_name_H-M "P 6/M M M"
_symmetry_group_IT_number 191
_symmetry_cell_setting 'hexagonal'
loop_
_space_group_symop_operation_xyz
x,y,z
x-y,x,z
-y,x-y,z
-x,-y,z
-x+y,-x,z
y,-x+y,z
x-y,-y,-z
-x,-x+y,-z
y,x,-z
-y,-x,-z
-x+y,y,-z
x,x-y,-z
-x,-y,-z
-x+y,-x,-z
y,-x+y,-z
x,y,-z
x-y,x,-z
-y,x-y,-z
-x+y,y,z
x,x-y,z
-y,-x,z
y,x,z
x-y,-y,z
-x,-x+y,z
loop_
_atom_site_type_symbol
_atom_site_label
_atom_site_fract_x
_atom_site_fract_y
_atom_site_fract_z
Si Si1 0.081239 0.780250 0.354412
Si Si2 0.189445 0.666787 0.065750
Si Si3 0.580504 0.662718 0.155903
Si Si4 0.921374 0.215348 0.223504
Si Si5 0.611473 0.530447 0.273612
Si Si6 0.540825 0.842606 0.623187
Si Si7 0.458021 0.916042 0.432756
O O1 0.133790 0.866211 0.364914
O O2 0.084837 0.762037 0.287960
O O3 0.110268 0.736339 0.391711
O O4 0.000000 0.757504 0.373255
O O5 0.185342 0.592671 0.083116
O O6 0.269646 0.730355 0.079076
O O7 0.132425 0.677258 0.101992
O O8 0.169363 0.666929 0.000000
O O9 0.612555 0.612555 0.135598
O O10 0.642006 0.738497 0.180122
O O11 0.523140 0.624349 0.206957
O O12 0.868133 0.131868 0.211598
O O13 0.000000 0.226641 0.212087
O O14 0.539758 0.460243 0.294633
O O15 0.600513 0.600513 0.282614
O O16 0.676243 0.533841 0.310419
O O17 0.513577 0.756789 0.614152
O O18 0.497369 0.871448 0.585956
O O19 0.458900 0.917800 0.500000
O O20 0.500000 0.000000 0.409824
#
# Coordination Sequence:
#
# PCOD8328538 Si02
#       7
#    24  24  24  24  24  24  12
#     4   9  16  27  46  72 100 128 159 199 245 289
#     4  10  21  36  51  64  85 123 169 210 246 294
#     4  10  19  30  48  74  98 122 154 197 255 306
#     4   9  16  26  42  66  95 124 153 188 234 287
#     4  10  18  30  50  72  97 127 160 202 249 306
#     4  11  21  33  53  78 102 130 167 213 261 300
#     4  11  24  42  62  78  98 138 185 219 255 313
#
# _framework density 16.762335
#
# number of rings (size 3 to 8) (size 9 to 14) (size 15 to 20)
#    0.000    2.077    2.308    2.462    0.000    2.769 
#    0.462    0.769    0.000    0.308    0.000    2.154 
#    0.000    0.000    0.000    0.000    0.000    0.000 
#
# Total GULP energy -1933448.956844 kJ/mol
# GULP energy per Si atom -12393.903570 kJ/mol
# Density = 1.672418 g / cm^3
# Si number density = 16.762335 Si / 1000 Ang^3
#
#
#
# Elastic Constant Matrix: (Units=GPa)
#
#
# Indices 1 2 3 4 5 6 
#
# 1 111.2519 64.0231 32.3167 0.0000 0.0000 0.0000
# 2 64.0231 111.2519 32.3167 0.0000 0.0000 0.0000
# 3 32.3167 32.3167 43.9608 0.0000 0.0000 0.0000
# 4 0.0000 0.0000 0.0000 18.7458 0.0000 0.0000
# 5 0.0000 0.0000 0.0000 0.0000 18.7458 0.0000
# 6 0.0000 0.0000 0.0000 0.0000 0.0000 23.6144
#
#
#
# Elastic Compliance Matrix: (Units=1/GPa)
#
#
# Indices 1 2 3 4 5 6 
#
# 1 0.014500 -0.006673 -0.005754 0.000000 0.000000 0.000000
# 2 -0.006673 0.014500 -0.005754 0.000000 0.000000 0.000000
# 3 -0.005754 -0.005754 0.031207 0.000000 0.000000 0.000000
# 4 0.000000 0.000000 0.000000 0.053345 0.000000 0.000000
# 5 0.000000 0.000000 0.000000 0.000000 0.053345 0.000000
# 6 0.000000 0.000000 0.000000 0.000000 0.000000 0.042347
#
#
# Mechanical properties :
#
#
# Convention : Reuss Voigt Hill
#
# Bulk Modulus (GPa) = 41.93612 58.19753 50.06682
# Shear Modulus (GPa) = 19.71951 21.40841 20.56396
#
# Velocity S-wave (km/s) = 3.43362 3.57763 3.50636
# Velocity P-wave (km/s) = 6.38686 7.20143 6.80634
#
# Compressibility (1/GPa) = 0.02384579
#
# Stress axis : x y z
#
# Youngs Moduli (GPa) = 68.96401 68.96401 32.04387
#
# Poissons Ratio (x) = 0.46021 0.18438
# Poissons Ratio (y) = 0.46021 0.18438
# Poissons Ratio (z) = 0.39681 0.39681
#
# Static dielectric constant tensor:
#      x y z
#    x 3.158960 0.000000 0.000000 
#    y 0.000000 3.158960 0.000000 
#    z 0.000000 0.000000 2.911200 
# 
# 
# High freq. dielectric constant tensor:
#      x y z
#    x 1.641650 0.000000 0.000000 
#    y 0.000000 1.641650 0.000000 
#    z 0.000000 0.000000 1.619830 
# 
# From -- ./inp_files/7718.got.cif
#   From: 2010.03.12/outbox.cif.g09.slc.cpg/sg191_4_cif.got.tgz:7718.got - 2010.04.01 12:09:02.
