data_PCOD8328705
_publ_section_title
;
Structure prediction by ZEFSAII (Michael W. Deem and Ramdas Pophale) SiO2 
 PCOD8328705
Probable space group: P 6/M M M
;
_chemical_formula_sum "Si O2"
_cell_formula_units_Z 132
_cell_length_a 18.219621
_cell_length_b 18.219621
_cell_length_c 28.018506
_cell_angle_alpha 90.000000
_cell_angle_beta 90.000000
_cell_angle_gamma 120.000000
_cell_volume 8054.791130
_symmetry_space_group_name_H-M "P 6/M M M"
_symmetry_group_IT_number 191
_symmetry_cell_setting 'hexagonal'
loop_
_space_group_symop_operation_xyz
x,y,z
x-y,x,z
-y,x-y,z
-x,-y,z
-x+y,-x,z
y,-x+y,z
x-y,-y,-z
-x,-x+y,-z
y,x,-z
-y,-x,-z
-x+y,y,-z
x,x-y,-z
-x,-y,-z
-x+y,-x,-z
y,-x+y,-z
x,y,-z
x-y,x,-z
-y,x-y,-z
-x+y,y,z
x,x-y,z
-y,-x,z
y,x,z
x-y,-y,z
-x,-x+y,z
loop_
_atom_site_type_symbol
_atom_site_label
_atom_site_fract_x
_atom_site_fract_y
_atom_site_fract_z
Si Si1 0.632100 0.098744 0.313720
Si Si2 0.331165 0.833264 0.212423
Si Si3 0.907821 0.655219 0.500000
Si Si4 0.333466 0.834504 0.945199
Si Si5 0.638265 0.734331 0.867069
Si Si6 0.642808 0.903368 0.396393
O O1 0.562039 0.124078 0.326608
O O2 0.682883 0.147772 0.266677
O O3 0.693376 0.126534 0.359121
O O4 0.590273 0.000000 0.302723
O O5 0.426250 0.852499 0.203524
O O6 0.265055 0.734946 0.201199
O O7 0.312512 0.892429 0.178390
O O8 0.847412 0.694823 0.500000
O O9 0.895027 0.603540 0.549681
O O10 0.000000 0.737194 0.500000
O O11 0.423445 0.846890 0.928246
O O12 0.263931 0.736070 0.937857
O O13 0.309206 0.893132 0.914403
O O14 0.337594 0.862080 0.000000
O O15 0.670832 0.835416 0.866228
O O16 0.718325 0.718325 0.866432
O O17 0.681480 0.840740 0.391228
O O18 0.716772 0.000000 0.386362
#
# Coordination Sequence:
#
# PCOD8328705 Si02
#       6
#    24  24  12  24  24  24
#     4   9  17  28  42  61  85 113 146 184 220 251
#     4  10  19  30  45  66  93 123 152 179 208 246
#     4   8  14  24  39  58  79 105 137 175 216 258
#     4   9  17  29  46  69  98 131 163 191 218 252
#     4  10  21  35  50  68  90 117 149 186 228 271
#     4   9  16  27  43  62  84 110 142 178 217 261
#
# _framework density 16.387761999999999
#
# number of rings (size 3 to 8) (size 9 to 14) (size 15 to 20)
#    0.000    2.727    0.000    2.000    0.000    3.273 
#    0.000    3.182    0.000    3.545    0.000    2.545 
#    0.000    0.000    0.000   10.364    0.000    4.000 
#
# Total GULP energy -1635751.582666 kJ/mol
# GULP energy per Si atom -12392.057444 kJ/mol
# Density = 1.635046 g / cm^3
# Si number density = 16.387762 Si / 1000 Ang^3
#
#
#
# Elastic Constant Matrix: (Units=GPa)
#
#
# Indices 1 2 3 4 5 6 
#
# 1 77.5945 44.8339 44.0813 0.0000 0.0000 0.0000
# 2 44.8339 77.5945 44.0813 0.0000 0.0000 0.0000
# 3 44.0813 44.0813 99.4150 0.0000 0.0000 0.0000
# 4 0.0000 0.0000 0.0000 21.5203 0.0000 0.0000
# 5 0.0000 0.0000 0.0000 0.0000 21.5203 0.0000
# 6 0.0000 0.0000 0.0000 0.0000 0.0000 16.3803
#
#
#
# Elastic Compliance Matrix: (Units=1/GPa)
#
#
# Indices 1 2 3 4 5 6 
#
# 1 0.021262 -0.009262 -0.005321 0.000000 0.000000 0.000000
# 2 -0.009262 0.021262 -0.005321 0.000000 0.000000 0.000000
# 3 -0.005321 -0.005321 0.014777 0.000000 0.000000 0.000000
# 4 0.000000 0.000000 0.000000 0.046468 0.000000 0.000000
# 5 0.000000 0.000000 0.000000 0.000000 0.046468 0.000000
# 6 0.000000 0.000000 0.000000 0.000000 0.000000 0.061049
#
#
# Mechanical properties :
#
#
# Convention : Reuss Voigt Hill
#
# Bulk Modulus (GPa) = 57.16353 57.84409 57.50381
# Shear Modulus (GPa) = 19.46095 19.99134 19.72615
#
# Velocity S-wave (km/s) = 3.44979 3.49649 3.47322
# Velocity P-wave (km/s) = 7.12921 7.18849 7.15891
#
# Compressibility (1/GPa) = 0.01749367
#
# Stress axis : x y z
#
# Youngs Moduli (GPa) = 47.03223 47.03223 67.67133
#
# Poissons Ratio (x) = 0.43563 0.36006
# Poissons Ratio (y) = 0.43563 0.36006
# Poissons Ratio (z) = 0.25024 0.25024
#
# Static dielectric constant tensor:
#      x y z
#    x 2.938170 0.000000 0.000000 
#    y 0.000000 2.938170 0.000000 
#    z 0.000000 0.000000 3.437920 
# 
# 
# High freq. dielectric constant tensor:
#      x y z
#    x 1.606690 0.000000 0.000000 
#    y 0.000000 1.606690 0.000000 
#    z 0.000000 0.000000 1.652830 
# 
# From -- ./inp_files/9793.got.cif
#   From: 2010.03.12/outbox.cif.g09.slc.cpg/sg191_5_cif.got.tgz:9793.got - 2010.04.01 12:09:02.
