data_PCOD8328974
_publ_section_title
;
Structure prediction by ZEFSAII (Michael W. Deem and Ramdas Pophale) SiO2 
 PCOD8328974
Probable space group: P 6/M M M
;
_chemical_formula_sum "Si O2"
_cell_formula_units_Z 108
_cell_length_a 31.708817
_cell_length_b 31.708817
_cell_length_c 8.032241
_cell_angle_alpha 90.000000
_cell_angle_beta 90.000000
_cell_angle_gamma 120.000000
_cell_volume 6994.029205
_symmetry_space_group_name_H-M "P 6/M M M"
_symmetry_group_IT_number 191
_symmetry_cell_setting 'hexagonal'
loop_
_space_group_symop_operation_xyz
x,y,z
x-y,x,z
-y,x-y,z
-x,-y,z
-x+y,-x,z
y,-x+y,z
x-y,-y,-z
-x,-x+y,-z
y,x,-z
-y,-x,-z
-x+y,y,-z
x,x-y,-z
-x,-y,-z
-x+y,-x,-z
y,-x+y,-z
x,y,-z
x-y,x,-z
-y,x-y,-z
-x+y,y,z
x,x-y,z
-y,-x,z
y,x,z
x-y,-y,z
-x,-x+y,z
loop_
_atom_site_type_symbol
_atom_site_label
_atom_site_fract_x
_atom_site_fract_y
_atom_site_fract_z
Si Si1 0.573196 0.333831 0.306572
Si Si2 0.472181 0.283893 0.192315
Si Si3 0.371419 0.232821 0.694321
Si Si4 0.150553 0.944314 0.000000
Si Si5 0.211937 0.944388 0.691478
O O1 0.582901 0.335146 0.500000
O O2 0.574773 0.287387 0.226840
O O3 0.615948 0.384053 0.225958
O O4 0.520015 0.328536 0.276534
O O5 0.467381 0.233691 0.259816
O O6 0.420369 0.280011 0.234924
O O7 0.482390 0.291153 0.000000
O O8 0.377908 0.232931 0.500000
O O9 0.364480 0.182240 0.770671
O O10 0.324162 0.236559 0.740997
O O11 0.171108 0.934054 0.170553
O O12 0.092421 0.907580 0.000000
O O13 0.161857 0.000000 0.000000
O O14 0.190421 0.932254 0.500000
O O15 0.254546 0.000000 0.702330
#
# Coordination Sequence:
#
# PCOD8328974 Si02
#       5
#    24  24  24  12  24
#     4   9  16  26  39  53  71  98 133 171 210 252
#     4   9  17  26  36  53  76 101 131 168 206 246
#     4   9  16  26  41  59  80 109 140 168 202 246
#     4  10  20  32  48  69  94 124 155 189 225 261
#     4   9  18  31  46  67  94 121 150 184 220 260
#
# _framework density 15.441743000000001
#
# number of rings (size 3 to 8) (size 9 to 14) (size 15 to 20)
#    0.000    2.889    0.000    1.556    1.556    5.333 
#    0.000    0.000    0.000    1.444    0.000    0.000 
#    0.000    0.889    0.000   15.778    0.000    2.889 
#
# Total GULP energy -1337943.374061 kJ/mol
# GULP energy per Si atom -12388.364575 kJ/mol
# Density = 1.540660 g / cm^3
# Si number density = 15.441743 Si / 1000 Ang^3
#
#
#
# Elastic Constant Matrix: (Units=GPa)
#
#
# Indices 1 2 3 4 5 6 
#
# 1 93.9606 53.2632 28.8496 0.0000 0.0000 0.0000
# 2 53.2632 93.9606 28.8496 0.0000 0.0000 0.0000
# 3 28.8496 28.8496 47.9478 0.0000 0.0000 0.0000
# 4 0.0000 0.0000 0.0000 14.7889 0.0000 0.0000
# 5 0.0000 0.0000 0.0000 0.0000 14.7889 0.0000
# 6 0.0000 0.0000 0.0000 0.0000 0.0000 20.3487
#
#
#
# Elastic Compliance Matrix: (Units=1/GPa)
#
#
# Indices 1 2 3 4 5 6 
#
# 1 0.016730 -0.007842 -0.005348 0.000000 0.000000 0.000000
# 2 -0.007842 0.016730 -0.005348 0.000000 0.000000 0.000000
# 3 -0.005348 -0.005348 0.027292 0.000000 0.000000 0.000000
# 4 0.000000 0.000000 0.000000 0.067618 0.000000 0.000000
# 5 0.000000 0.000000 0.000000 0.000000 0.067618 0.000000
# 6 0.000000 0.000000 0.000000 0.000000 0.000000 0.049143
#
#
# Mechanical properties :
#
#
# Convention : Reuss Voigt Hill
#
# Bulk Modulus (GPa) = 42.23624 50.86595 46.55110
# Shear Modulus (GPa) = 17.23549 18.31238 17.77393
#
# Velocity S-wave (km/s) = 3.34453 3.44743 3.39637
# Velocity P-wave (km/s) = 6.50583 6.98988 6.75219
#
# Compressibility (1/GPa) = 0.02367635
#
# Stress axis : x y z
#
# Youngs Moduli (GPa) = 59.77290 59.77290 36.64123
#
# Poissons Ratio (x) = 0.46872 0.19596
# Poissons Ratio (y) = 0.46872 0.19596
# Poissons Ratio (z) = 0.31967 0.31967
#
# Static dielectric constant tensor:
#      x y z
#    x 2.933550 0.000000 0.000000 
#    y 0.000000 2.933550 0.000000 
#    z 0.000000 0.000000 2.987170 
# 
# 
# High freq. dielectric constant tensor:
#      x y z
#    x 1.564060 0.000000 0.000000 
#    y 0.000000 1.564060 0.000000 
#    z 0.000000 0.000000 1.600360 
# 
# From -- ./inp_files/1705.got.cif
#   From: 2010.03.12/outbox.cif.g09.slc.cpg/sg191_1_cif.got.tgz:1705.got - 2010.04.01 12:09:02.
