data_PCOD8328670
_publ_section_title
;
Structure prediction by ZEFSAII (Michael W. Deem and Ramdas Pophale) SiO2 
 PCOD8328670
Probable space group: P 6/M M M
;
_chemical_formula_sum "Si O2"
_cell_formula_units_Z 168
_cell_length_a 18.018599
_cell_length_b 18.018599
_cell_length_c 35.482064
_cell_angle_alpha 90.000000
_cell_angle_beta 90.000000
_cell_angle_gamma 120.000000
_cell_volume 9976.576731
_symmetry_space_group_name_H-M "P 6/M M M"
_symmetry_group_IT_number 191
_symmetry_cell_setting 'hexagonal'
loop_
_space_group_symop_operation_xyz
x,y,z
x-y,x,z
-y,x-y,z
-x,-y,z
-x+y,-x,z
y,-x+y,z
x-y,-y,-z
-x,-x+y,-z
y,x,-z
-y,-x,-z
-x+y,y,-z
x,x-y,-z
-x,-y,-z
-x+y,-x,-z
y,-x+y,-z
x,y,-z
x-y,x,-z
-y,x-y,-z
-x+y,y,z
x,x-y,z
-y,-x,z
y,x,z
x-y,-y,z
-x,-x+y,z
loop_
_atom_site_type_symbol
_atom_site_label
_atom_site_fract_x
_atom_site_fract_y
_atom_site_fract_z
Si Si1 0.645216 0.739823 0.957284
Si Si2 0.904746 0.540280 0.818938
Si Si3 0.330939 0.496378 0.260685
Si Si4 0.504106 0.668746 0.102141
Si Si5 0.902741 0.634429 0.325503
Si Si6 0.838044 0.331603 0.393821
Si Si7 0.096554 0.736681 0.543423
O O1 0.676653 0.838327 0.947137
O O2 0.726327 0.726327 0.951943
O O3 0.570227 0.676171 0.929663
O O4 0.609755 0.718012 0.000000
O O5 0.908361 0.454181 0.821120
O O6 0.852362 0.538070 0.782060
O O7 0.860072 0.548442 0.856714
O O8 0.000000 0.621454 0.816277
O O9 0.265091 0.530181 0.269782
O O10 0.427228 0.572773 0.267470
O O11 0.312301 0.417870 0.287617
O O12 0.472022 0.736011 0.094541
O O13 0.426048 0.573953 0.099267
O O14 0.834015 0.668031 0.326105
O O15 0.887111 0.571884 0.360253
O O16 0.000000 0.714891 0.327624
O O17 0.852087 0.426044 0.390167
O O18 0.736978 0.263023 0.392263
O O19 0.879053 0.323936 0.432871
O O20 0.104156 0.716824 0.500000
O O21 0.163012 0.836989 0.553023
O O22 0.000000 0.715756 0.552965
#
# Coordination Sequence:
#
# PCOD8328670 Si02
#       7
#    24  24  24  24  24  24  24
#     4   9  18  32  49  68  89 114 144 179 221 268
#     4   9  17  28  42  60  83 115 156 198 233 264
#     4  10  19  30  45  66  94 127 160 191 224 265
#     4  10  19  30  44  63  89 121 156 192 228 265
#     4  10  21  35  51  71  94 121 152 189 233 277
#     4  10  20  33  49  70  97 128 160 192 226 265
#     4   9  18  32  49  69  93 122 156 194 237 282
#
# _framework density 16.839442999999999
#
# number of rings (size 3 to 8) (size 9 to 14) (size 15 to 20)
#    0.000    2.429    0.000    2.571    0.000    4.000 
#    0.000    4.286    0.000    2.143    0.000    2.000 
#    0.000    3.429    0.000    0.143    0.000   29.714 
#
# Total GULP energy -2082801.593566 kJ/mol
# GULP energy per Si atom -12397.628533 kJ/mol
# Density = 1.680112 g / cm^3
# Si number density = 16.839443 Si / 1000 Ang^3
#
#
#
# Elastic Constant Matrix: (Units=GPa)
#
#
# Indices 1 2 3 4 5 6 
#
# 1 89.9064 60.6372 39.4256 0.0000 0.0000 0.0000
# 2 60.6372 89.9064 39.4256 0.0000 0.0000 0.0000
# 3 39.4256 39.4256 95.5667 0.0000 0.0000 0.0000
# 4 0.0000 0.0000 0.0000 22.0757 0.0000 0.0000
# 5 0.0000 0.0000 0.0000 0.0000 22.0757 0.0000
# 6 0.0000 0.0000 0.0000 0.0000 0.0000 14.6346
#
#
#
# Elastic Compliance Matrix: (Units=1/GPa)
#
#
# Indices 1 2 3 4 5 6 
#
# 1 0.021320 -0.012846 -0.003496 0.000000 0.000000 0.000000
# 2 -0.012846 0.021320 -0.003496 0.000000 0.000000 0.000000
# 3 -0.003496 -0.003496 0.013348 0.000000 0.000000 0.000000
# 4 0.000000 0.000000 0.000000 0.045299 0.000000 0.000000
# 5 0.000000 0.000000 0.000000 0.000000 0.045299 0.000000
# 6 0.000000 0.000000 0.000000 0.000000 0.000000 0.068331
#
#
# Mechanical properties :
#
#
# Convention : Reuss Voigt Hill
#
# Bulk Modulus (GPa) = 61.30301 61.59513 61.44907
# Shear Modulus (GPa) = 19.22868 20.81662 20.02265
#
# Velocity S-wave (km/s) = 3.38284 3.51975 3.45198
# Velocity P-wave (km/s) = 7.19316 7.29215 7.24283
#
# Compressibility (1/GPa) = 0.01631241
#
# Stress axis : x y z
#
# Youngs Moduli (GPa) = 46.90527 46.90527 74.91652
#
# Poissons Ratio (x) = 0.60254 0.26189
# Poissons Ratio (y) = 0.60254 0.26189
# Poissons Ratio (z) = 0.16397 0.16397
#
# Static dielectric constant tensor:
#      x y z
#    x 3.050780 0.000000 0.000000 
#    y 0.000000 3.050780 0.000000 
#    z 0.000000 0.000000 3.446430 
# 
# 
# High freq. dielectric constant tensor:
#      x y z
#    x 1.630110 0.000000 0.000000 
#    y 0.000000 1.630110 0.000000 
#    z 0.000000 0.000000 1.669090 
# 
# From -- ./inp_files/10742.got.cif
#   From: 2010.03.12/outbox.cif.g09.slc.cpg/sg191_6_cif.got.tgz:10742.got - 2010.04.01 12:09:02.
