data_PCOD8328784
_publ_section_title
;
Structure prediction by ZEFSAII (Michael W. Deem and Ramdas Pophale) SiO2 
 PCOD8328784
Probable space group: P 6/M M M
;
_chemical_formula_sum "Si O2"
_cell_formula_units_Z 156
_cell_length_a 21.149061
_cell_length_b 21.149061
_cell_length_c 23.195769
_cell_angle_alpha 90.000000
_cell_angle_beta 90.000000
_cell_angle_gamma 120.000000
_cell_volume 8985.072515
_symmetry_space_group_name_H-M "P 6/M M M"
_symmetry_group_IT_number 191
_symmetry_cell_setting 'hexagonal'
loop_
_space_group_symop_operation_xyz
x,y,z
x-y,x,z
-y,x-y,z
-x,-y,z
-x+y,-x,z
y,-x+y,z
x-y,-y,-z
-x,-x+y,-z
y,x,-z
-y,-x,-z
-x+y,y,-z
x,x-y,-z
-x,-y,-z
-x+y,-x,-z
y,-x+y,-z
x,y,-z
x-y,x,-z
-y,x-y,-z
-x+y,y,z
x,x-y,z
-y,-x,z
y,x,z
x-y,-y,z
-x,-x+y,z
loop_
_atom_site_type_symbol
_atom_site_label
_atom_site_fract_x
_atom_site_fract_y
_atom_site_fract_z
Si Si1 0.919485 0.698844 0.883184
Si Si2 0.521611 0.335342 0.821616
Si Si3 0.308416 0.083450 0.647279
Si Si4 0.449873 0.149971 0.063038
Si Si5 0.708882 0.082688 0.767453
Si Si6 0.706656 0.556869 0.567610
Si Si7 0.458224 0.916448 0.568396
O O1 0.862566 0.725131 0.900144
O O2 0.911118 0.633452 0.923951
O O3 0.904676 0.671046 0.817495
O O4 0.000000 0.767470 0.891499
O O5 0.533338 0.266669 0.822372
O O6 0.595165 0.404836 0.800485
O O7 0.501840 0.351202 0.885963
O O8 0.459634 0.323111 0.775984
O O9 0.275901 0.137951 0.639456
O O10 0.350417 0.101567 0.707645
O O11 0.366057 0.096798 0.597317
O O12 0.242244 0.000000 0.644362
O O13 0.454791 0.227396 0.062889
O O14 0.473003 0.134396 0.000000
O O15 0.641778 0.000000 0.768436
O O16 0.704739 0.569930 0.500000
O O17 0.764980 0.529959 0.581925
O O18 0.625795 0.497817 0.590259
O O19 0.459464 0.918928 0.500000
O O20 0.500000 0.000000 0.592479
#
# Coordination Sequence:
#
# PCOD8328784 Si02
#       7
#    24  24  24  24  24  24  12
#     4   9  16  27  45  66  88 114 146 185 228 274
#     4  10  19  31  47  67  95 127 156 187 227 279
#     4  10  19  32  52  75  99 126 158 198 240 285
#     4   8  15  28  44  62  85 114 149 188 224 258
#     4   9  18  33  51  69  88 116 155 199 239 270
#     4   9  18  32  49  72 100 129 163 203 247 292
#     4   9  16  28  46  66  92 126 162 198 239 287
#
# _framework density 17.362128999999999
#
# number of rings (size 3 to 8) (size 9 to 14) (size 15 to 20)
#    0.000    2.846    0.000    2.923    0.000    1.846 
#    1.846    0.000    0.000    1.231    0.000    4.308 
#    0.000    3.692    0.000    7.692    0.000    0.000 
#
# Total GULP energy -1933700.839748 kJ/mol
# GULP energy per Si atom -12395.518204 kJ/mol
# Density = 1.732261 g / cm^3
# Si number density = 17.362129 Si / 1000 Ang^3
#
#
#
# Elastic Constant Matrix: (Units=GPa)
#
#
# Indices 1 2 3 4 5 6 
#
# 1 98.6093 73.7512 15.4734 0.0000 0.0000 0.0000
# 2 73.7512 98.6093 15.4734 0.0000 0.0000 0.0000
# 3 15.4734 15.4734 40.4887 0.0000 0.0000 0.0000
# 4 0.0000 0.0000 0.0000 15.5152 0.0000 0.0000
# 5 0.0000 0.0000 0.0000 0.0000 15.5152 0.0000
# 6 0.0000 0.0000 0.0000 0.0000 0.0000 12.4290
#
#
#
# Elastic Compliance Matrix: (Units=1/GPa)
#
#
# Indices 1 2 3 4 5 6 
#
# 1 0.023229 -0.017000 -0.002381 0.000000 0.000000 0.000000
# 2 -0.017000 0.023229 -0.002381 0.000000 0.000000 0.000000
# 3 -0.002381 -0.002381 0.026518 0.000000 0.000000 0.000000
# 4 0.000000 0.000000 0.000000 0.064453 0.000000 0.000000
# 5 0.000000 0.000000 0.000000 0.000000 0.064453 0.000000
# 6 0.000000 0.000000 0.000000 0.000000 0.000000 0.080457
#
#
# Mechanical properties :
#
#
# Convention : Reuss Voigt Hill
#
# Bulk Modulus (GPa) = 33.95141 49.67814 41.81478
# Shear Modulus (GPa) = 14.89524 17.55917 16.22720
#
# Velocity S-wave (km/s) = 2.93220 3.18362 3.06049
# Velocity P-wave (km/s) = 5.57324 6.49530 6.05186
#
# Compressibility (1/GPa) = 0.02945386
#
# Stress axis : x y z
#
# Youngs Moduli (GPa) = 43.04994 43.04994 37.71054
#
# Poissons Ratio (x) = 0.73183 0.08977
# Poissons Ratio (y) = 0.73183 0.08977
# Poissons Ratio (z) = 0.10248 0.10248
#
# Static dielectric constant tensor:
#      x y z
#    x 3.160190 0.000000 0.000000 
#    y 0.000000 3.160190 0.000000 
#    z 0.000000 0.000000 3.340200 
# 
# 
# High freq. dielectric constant tensor:
#      x y z
#    x 1.654160 0.000000 0.000000 
#    y 0.000000 1.654160 0.000000 
#    z 0.000000 0.000000 1.668200 
# 
# From -- ./inp_files/7719.got.cif
#   From: 2010.03.12/outbox.cif.g09.slc.cpg/sg191_4_cif.got.tgz:7719.got - 2010.04.01 12:09:02.
