data_PCOD8328647
_publ_section_title
;
Structure prediction by ZEFSAII (Michael W. Deem and Ramdas Pophale) SiO2 
 PCOD8328647
Probable space group: P 6/M M M
;
_chemical_formula_sum "Si O2"
_cell_formula_units_Z 120
_cell_length_a 28.565497
_cell_length_b 28.565497
_cell_length_c 11.822466
_cell_angle_alpha 90.000000
_cell_angle_beta 90.000000
_cell_angle_gamma 120.000000
_cell_volume 8354.534842
_symmetry_space_group_name_H-M "P 6/M M M"
_symmetry_group_IT_number 191
_symmetry_cell_setting 'hexagonal'
loop_
_space_group_symop_operation_xyz
x,y,z
x-y,x,z
-y,x-y,z
-x,-y,z
-x+y,-x,z
y,-x+y,z
x-y,-y,-z
-x,-x+y,-z
y,x,-z
-y,-x,-z
-x+y,y,-z
x,x-y,-z
-x,-y,-z
-x+y,-x,-z
y,-x+y,-z
x,y,-z
x-y,x,-z
-y,x-y,-z
-x+y,y,z
x,x-y,z
-y,-x,z
y,x,z
x-y,-y,z
-x,-x+y,z
loop_
_atom_site_type_symbol
_atom_site_label
_atom_site_fract_x
_atom_site_fract_y
_atom_site_fract_z
Si Si1 0.837158 0.059643 0.870021
Si Si2 0.889256 0.219557 0.736019
Si Si3 0.390563 0.063139 0.867935
Si Si4 0.332157 0.064468 0.500000
Si Si5 0.375635 0.439703 0.500000
Si Si6 0.480374 0.063904 0.266983
O O1 0.899918 0.100082 0.842153
O O2 0.798757 0.073093 0.797794
O O3 0.825594 0.000000 0.840026
O O4 0.823696 0.064204 0.000000
O O5 0.826078 0.173923 0.743849
O O6 0.898756 0.273818 0.797080
O O7 0.908836 0.229856 0.607569
O O8 0.451313 0.079471 0.830837
O O9 0.349012 0.000000 0.839430
O O10 0.390633 0.074948 0.000000
O O11 0.394717 0.081656 0.500000
O O12 0.293220 0.000000 0.500000
O O13 0.411296 0.411296 0.500000
O O14 0.388298 0.476430 0.388136
O O15 0.543508 0.087016 0.235778
O O16 0.451012 0.000000 0.278352
#
# Coordination Sequence:
#
# PCOD8328647 Si02
#       6
#    24  24  24  12  12  24
#     4   9  17  29  45  63  82 105 135 173 215 260
#     4  11  21  31  43  61  84 111 146 183 218 259
#     4  10  19  30  44  61  83 114 149 181 216 257
#     4  11  19  30  47  61  81 111 143 179 219 259
#     4   9  15  25  42  60  79 107 142 173 205 244
#     4   9  16  26  41  62  85 109 141 178 210 241
#
# _framework density 14.363457
#
# number of rings (size 3 to 8) (size 9 to 14) (size 15 to 20)
#    0.000    2.200    2.000    3.000    0.000    4.400 
#    0.000    2.000    0.000    0.200    0.000    1.400 
#    0.000    0.000    0.000    0.600    0.000   26.000 
#
# Total GULP energy -1487688.334399 kJ/mol
# GULP energy per Si atom -12397.402787 kJ/mol
# Density = 1.433076 g / cm^3
# Si number density = 14.363457 Si / 1000 Ang^3
#
#
#
# Elastic Constant Matrix: (Units=GPa)
#
#
# Indices 1 2 3 4 5 6 
#
# 1 77.7565 45.4563 35.2307 0.0000 0.0000 0.0000
# 2 45.4563 77.7565 35.2307 0.0000 0.0000 0.0000
# 3 35.2307 35.2307 82.2035 0.0000 0.0000 0.0000
# 4 0.0000 0.0000 0.0000 15.1876 0.0000 0.0000
# 5 0.0000 0.0000 0.0000 0.0000 15.1876 0.0000
# 6 0.0000 0.0000 0.0000 0.0000 0.0000 16.1501
#
#
#
# Elastic Compliance Matrix: (Units=1/GPa)
#
#
# Indices 1 2 3 4 5 6 
#
# 1 0.020855 -0.010104 -0.004608 0.000000 0.000000 0.000000
# 2 -0.010104 0.020855 -0.004608 0.000000 0.000000 0.000000
# 3 -0.004608 -0.004608 0.016114 0.000000 0.000000 0.000000
# 4 0.000000 0.000000 0.000000 0.065843 0.000000 0.000000
# 5 0.000000 0.000000 0.000000 0.000000 0.065843 0.000000
# 6 0.000000 0.000000 0.000000 0.000000 0.000000 0.061919
#
#
# Mechanical properties :
#
#
# Convention : Reuss Voigt Hill
#
# Bulk Modulus (GPa) = 52.12186 52.17245 52.14715
# Shear Modulus (GPa) = 16.86540 17.42498 17.14519
#
# Velocity S-wave (km/s) = 3.43036 3.48680 3.45870
# Velocity P-wave (km/s) = 7.21501 7.25343 7.23425
#
# Compressibility (1/GPa) = 0.01918581
#
# Stress axis : x y z
#
# Youngs Moduli (GPa) = 47.94947 47.94947 62.05618
#
# Poissons Ratio (x) = 0.48450 0.28593
# Poissons Ratio (y) = 0.48450 0.28593
# Poissons Ratio (z) = 0.22093 0.22093
#
# Static dielectric constant tensor:
#      x y z
#    x 2.755570 0.000000 0.000000 
#    y 0.000000 2.755570 0.000000 
#    z 0.000000 0.000000 2.961380 
# 
# 
# High freq. dielectric constant tensor:
#      x y z
#    x 1.522440 0.000000 0.000000 
#    y 0.000000 1.522440 0.000000 
#    z 0.000000 0.000000 1.563590 
# 
# From -- ./inp_files/3216.got.cif
#   From: 2010.03.12/outbox.cif.g09.slc.cpg/sg191_2_cif.got.tgz:3216.got - 2010.04.01 12:09:02.
