data_PCOD8328352
_publ_section_title
;
Structure prediction by ZEFSAII (Michael W. Deem and Ramdas Pophale) SiO2 
 PCOD8328352
Probable space group: P 6/M M M
;
_chemical_formula_sum "Si O2"
_cell_formula_units_Z 168
_cell_length_a 21.840370
_cell_length_b 21.840370
_cell_length_c 28.545727
_cell_angle_alpha 90.000000
_cell_angle_beta 90.000000
_cell_angle_gamma 120.000000
_cell_volume 11792.115459
_symmetry_space_group_name_H-M "P 6/M M M"
_symmetry_group_IT_number 191
_symmetry_cell_setting 'hexagonal'
loop_
_space_group_symop_operation_xyz
x,y,z
x-y,x,z
-y,x-y,z
-x,-y,z
-x+y,-x,z
y,-x+y,z
x-y,-y,-z
-x,-x+y,-z
y,x,-z
-y,-x,-z
-x+y,y,-z
x,x-y,-z
-x,-y,-z
-x+y,-x,-z
y,-x+y,-z
x,y,-z
x-y,x,-z
-y,x-y,-z
-x+y,y,z
x,x-y,z
-y,-x,z
y,x,z
x-y,-y,z
-x,-x+y,z
loop_
_atom_site_type_symbol
_atom_site_label
_atom_site_fract_x
_atom_site_fract_y
_atom_site_fract_z
Si Si1 0.784607 0.705965 0.552777
Si Si2 0.261956 0.876805 0.639795
Si Si3 0.146243 0.434065 0.218824
Si Si4 0.806750 0.473544 0.946237
Si Si5 0.611150 0.529444 0.301644
Si Si6 0.529904 0.612040 0.131717
Si Si7 0.291411 0.212790 0.270859
O O1 0.764130 0.675555 0.500000
O O2 0.867229 0.734457 0.563195
O O3 0.771666 0.771666 0.560073
O O4 0.736275 0.642847 0.588084
O O5 0.207171 0.792830 0.642501
O O6 0.340465 0.893237 0.651834
O O7 0.240143 0.916927 0.677686
O O8 0.229841 0.459681 0.216533
O O9 0.132103 0.477954 0.258433
O O10 0.119281 0.446171 0.169850
O O11 0.101630 0.351672 0.231694
O O12 0.741828 0.483655 0.929422
O O13 0.782682 0.391341 0.939495
O O14 0.877311 0.522819 0.916750
O O15 0.826091 0.496771 0.000000
O O16 0.546019 0.453982 0.313736
O O17 0.585490 0.585490 0.288797
O O18 0.455437 0.544564 0.146812
O O19 0.588903 0.588903 0.125489
O O20 0.256993 0.128497 0.267941
O O21 0.229365 0.229365 0.260558
#
# Coordination Sequence:
#
# PCOD8328352 Si02
#       7
#    24  24  24  24  24  24  24
#     4   9  16  25  39  59  81 104 130 162 197 230
#     4   9  16  27  42  58  77 101 130 161 191 226
#     4  10  18  28  42  58  78 103 130 159 190 226
#     4   9  17  29  44  60  78 102 133 166 197 229
#     4  10  18  27  42  61  81 104 127 155 193 238
#     4  10  19  29  42  59  80 104 128 159 197 235
#     4   9  16  25  39  57  76  99 126 157 188 221
#
# _framework density 14.246808
#
# number of rings (size 3 to 8) (size 9 to 14) (size 15 to 20)
#    0.000    2.571    0.000    5.714    0.000    2.000 
#    0.000    1.429    0.000    6.714    0.000    3.000 
#    0.000    3.429    0.000    0.143    0.000    0.000 
#
# Total GULP energy -2082686.299505 kJ/mol
# GULP energy per Si atom -12396.942259 kJ/mol
# Density = 1.421438 g / cm^3
# Si number density = 14.246808 Si / 1000 Ang^3
#
#
#
# Elastic Constant Matrix: (Units=GPa)
#
#
# Indices 1 2 3 4 5 6 
#
# 1 95.1413 52.8654 46.1383 0.0000 0.0000 0.0000
# 2 52.8654 95.1413 46.1383 0.0000 0.0000 0.0000
# 3 46.1383 46.1383 88.2447 0.0000 0.0000 0.0000
# 4 0.0000 0.0000 0.0000 18.8886 0.0000 0.0000
# 5 0.0000 0.0000 0.0000 0.0000 18.8886 0.0000
# 6 0.0000 0.0000 0.0000 0.0000 0.0000 21.1380
#
#
#
# Elastic Compliance Matrix: (Units=1/GPa)
#
#
# Indices 1 2 3 4 5 6 
#
# 1 0.016839 -0.006815 -0.005241 0.000000 0.000000 0.000000
# 2 -0.006815 0.016839 -0.005241 0.000000 0.000000 0.000000
# 3 -0.005241 -0.005241 0.016813 0.000000 0.000000 0.000000
# 4 0.000000 0.000000 0.000000 0.052942 0.000000 0.000000
# 5 0.000000 0.000000 0.000000 0.000000 0.052942 0.000000
# 6 0.000000 0.000000 0.000000 0.000000 0.000000 0.047308
#
#
# Mechanical properties :
#
#
# Convention : Reuss Voigt Hill
#
# Bulk Modulus (GPa) = 62.90652 63.20125 63.05388
# Shear Modulus (GPa) = 20.52750 20.67541 20.60146
#
# Velocity S-wave (km/s) = 3.79997 3.81364 3.80681
# Velocity P-wave (km/s) = 7.96892 7.99060 7.97977
#
# Compressibility (1/GPa) = 0.01589660
#
# Stress axis : x y z
#
# Youngs Moduli (GPa) = 59.38574 59.38574 59.47918
#
# Poissons Ratio (x) = 0.40472 0.31173
# Poissons Ratio (y) = 0.40472 0.31173
# Poissons Ratio (z) = 0.31124 0.31124
#
# Static dielectric constant tensor:
#      x y z
#    x 2.775730 0.000000 0.000000 
#    y 0.000000 2.775730 0.000000 
#    z 0.000000 0.000000 2.824230 
# 
# 
# High freq. dielectric constant tensor:
#      x y z
#    x 1.532480 0.000000 0.000000 
#    y 0.000000 1.532480 0.000000 
#    z 0.000000 0.000000 1.541440 
# 
# From -- ./inp_files/10044.got.cif
#   From: 2010.03.12/outbox.cif.g09.slc.cpg/sg191_6_cif.got.tgz:10044.got - 2010.04.01 12:09:02.
