data_PCOD8328369
_publ_section_title
;
Structure prediction by ZEFSAII (Michael W. Deem and Ramdas Pophale) SiO2 
 PCOD8328369
Probable space group: P 6/M M M
;
_chemical_formula_sum "Si O2"
_cell_formula_units_Z 168
_cell_length_a 22.666540
_cell_length_b 22.666540
_cell_length_c 23.468343
_cell_angle_alpha 90.000000
_cell_angle_beta 90.000000
_cell_angle_gamma 120.000000
_cell_volume 10441.995958
_symmetry_space_group_name_H-M "P 6/M M M"
_symmetry_group_IT_number 191
_symmetry_cell_setting 'hexagonal'
loop_
_space_group_symop_operation_xyz
x,y,z
x-y,x,z
-y,x-y,z
-x,-y,z
-x+y,-x,z
y,-x+y,z
x-y,-y,-z
-x,-x+y,-z
y,x,-z
-y,-x,-z
-x+y,y,-z
x,x-y,-z
-x,-y,-z
-x+y,-x,-z
y,-x+y,-z
x,y,-z
x-y,x,-z
-y,x-y,-z
-x+y,y,z
x,x-y,z
-y,-x,z
y,x,z
x-y,-y,z
-x,-x+y,z
loop_
_atom_site_type_symbol
_atom_site_label
_atom_site_fract_x
_atom_site_fract_y
_atom_site_fract_z
Si Si1 0.919425 0.393804 0.437656
Si Si2 0.793924 0.074139 0.147796
Si Si3 0.396188 0.127964 0.063791
Si Si4 0.076495 0.285288 0.721945
Si Si5 0.334056 0.920430 0.323994
Si Si6 0.333260 0.530605 0.746109
Si Si7 0.467698 0.666456 0.120236
O O1 0.891633 0.359241 0.500000
O O2 0.891777 0.445889 0.423864
O O3 0.896506 0.337329 0.388341
O O4 0.000000 0.436228 0.440045
O O5 0.870935 0.129065 0.130775
O O6 0.739062 0.076385 0.105966
O O7 0.777011 0.085886 0.212143
O O8 0.786690 0.000000 0.141904
O O9 0.397751 0.198876 0.065588
O O10 0.468196 0.139945 0.086323
O O11 0.382412 0.097413 0.000000
O O12 0.130643 0.261285 0.705517
O O13 0.091168 0.349923 0.684036
O O14 0.000000 0.222745 0.710702
O O15 0.347178 0.872899 0.281836
O O16 0.390669 0.000000 0.312896
O O17 0.261967 0.523934 0.725204
O O18 0.394167 0.605834 0.730261
O O19 0.330957 0.517777 0.813046
O O20 0.453366 0.726683 0.102921
O O21 0.403549 0.596452 0.100831
#
# Coordination Sequence:
#
# PCOD8328369 Si02
#       7
#    24  24  24  24  24  24  24
#     4   8  14  25  40  59  86 118 149 182 221 264
#     4   9  17  30  48  68  89 114 144 176 211 254
#     4   9  17  28  42  61  84 109 137 170 210 255
#     4   9  17  29  46  68  93 119 146 179 221 267
#     4  10  18  27  44  69  91 112 142 181 225 269
#     4  10  19  30  44  61  84 114 147 183 222 266
#     4   9  17  29  44  61  81 108 143 182 222 259
#
# _framework density 16.088878000000001
#
# number of rings (size 3 to 8) (size 9 to 14) (size 15 to 20)
#    0.000    2.857    0.000    2.429    0.000    4.857 
#    0.000    0.000    0.000    4.143    0.000    3.000 
#    0.000    1.143    0.000    3.571    0.000    3.714 
#
# Total GULP energy -2082324.922178 kJ/mol
# GULP energy per Si atom -12394.791203 kJ/mol
# Density = 1.605226 g / cm^3
# Si number density = 16.088878 Si / 1000 Ang^3
#
#
#
# Elastic Constant Matrix: (Units=GPa)
#
#
# Indices 1 2 3 4 5 6 
#
# 1 85.5813 45.1988 42.2497 0.0000 0.0000 0.0000
# 2 45.1988 85.5813 42.2497 0.0000 0.0000 0.0000
# 3 42.2497 42.2497 66.8646 0.0000 0.0000 0.0000
# 4 0.0000 0.0000 0.0000 15.0806 0.0000 0.0000
# 5 0.0000 0.0000 0.0000 0.0000 15.0806 0.0000
# 6 0.0000 0.0000 0.0000 0.0000 0.0000 20.1913
#
#
#
# Elastic Compliance Matrix: (Units=1/GPa)
#
#
# Indices 1 2 3 4 5 6 
#
# 1 0.018843 -0.005921 -0.008165 0.000000 0.000000 0.000000
# 2 -0.005921 0.018843 -0.008165 0.000000 0.000000 0.000000
# 3 -0.008165 -0.008165 0.025274 0.000000 0.000000 0.000000
# 4 0.000000 0.000000 0.000000 0.066310 0.000000 0.000000
# 5 0.000000 0.000000 0.000000 0.000000 0.066310 0.000000
# 6 0.000000 0.000000 0.000000 0.000000 0.000000 0.049526
#
#
# Mechanical properties :
#
#
# Convention : Reuss Voigt Hill
#
# Bulk Modulus (GPa) = 54.17714 55.26930 54.72322
# Shear Modulus (GPa) = 16.90559 17.29244 17.09902
#
# Velocity S-wave (km/s) = 3.24506 3.28198 3.26357
# Velocity P-wave (km/s) = 6.91284 6.98491 6.94897
#
# Compressibility (1/GPa) = 0.01845797
#
# Stress axis : x y z
#
# Youngs Moduli (GPa) = 53.07130 53.07130 39.56622
#
# Poissons Ratio (x) = 0.31421 0.32306
# Poissons Ratio (y) = 0.31421 0.32306
# Poissons Ratio (z) = 0.43333 0.43333
#
# Static dielectric constant tensor:
#      x y z
#    x 2.970690 0.000000 0.000000 
#    y 0.000000 2.970690 0.000000 
#    z 0.000000 0.000000 3.237430 
# 
# 
# High freq. dielectric constant tensor:
#      x y z
#    x 1.601170 0.000000 0.000000 
#    y 0.000000 1.601170 0.000000 
#    z 0.000000 0.000000 1.611690 
# 
# From -- ./inp_files/7936.got.cif
#   From: 2010.03.12/outbox.cif.g09.slc.cpg/sg191_4_cif.got.tgz:7936.got - 2010.04.01 12:09:02.
