data_PCOD8328880
_publ_section_title
;
Structure prediction by ZEFSAII (Michael W. Deem and Ramdas Pophale) SiO2 
 PCOD8328880
Probable space group: P 6/M M M
;
_chemical_formula_sum "Si O2"
_cell_formula_units_Z 156
_cell_length_a 21.707391
_cell_length_b 21.707391
_cell_length_c 21.585589
_cell_angle_alpha 90.000000
_cell_angle_beta 90.000000
_cell_angle_gamma 120.000000
_cell_volume 8808.658905
_symmetry_space_group_name_H-M "P 6/M M M"
_symmetry_group_IT_number 191
_symmetry_cell_setting 'hexagonal'
loop_
_space_group_symop_operation_xyz
x,y,z
x-y,x,z
-y,x-y,z
-x,-y,z
-x+y,-x,z
y,-x+y,z
x-y,-y,-z
-x,-x+y,-z
y,x,-z
-y,-x,-z
-x+y,y,-z
x,x-y,-z
-x,-y,-z
-x+y,-x,-z
y,-x+y,-z
x,y,-z
x-y,x,-z
-y,x-y,-z
-x+y,y,z
x,x-y,z
-y,-x,z
y,x,z
x-y,-y,z
-x,-x+y,z
loop_
_atom_site_type_symbol
_atom_site_label
_atom_site_fract_x
_atom_site_fract_y
_atom_site_fract_z
Si Si1 0.787955 0.710147 0.334322
Si Si2 0.656650 0.082735 0.867984
Si Si3 0.703826 0.920969 0.194157
Si Si4 0.390085 0.916777 0.000000
Si Si5 0.722272 0.584210 0.570546
Si Si6 0.187160 0.664593 0.769167
Si Si7 0.080158 0.611932 0.663739
O O1 0.871590 0.743179 0.343557
O O2 0.775670 0.775670 0.345494
O O3 0.763908 0.677259 0.265419
O O4 0.745009 0.650831 0.384988
O O5 0.733356 0.094449 0.850356
O O6 0.642677 0.138311 0.830305
O O7 0.595334 0.000000 0.855502
O O8 0.659445 0.105167 0.939404
O O9 0.729595 0.864798 0.178836
O O10 0.770055 0.000000 0.182171
O O11 0.440516 0.881031 0.000000
O O12 0.441415 0.000000 0.000000
O O13 0.716713 0.604496 0.500000
O O14 0.777339 0.554677 0.575574
O O15 0.644297 0.528486 0.596554
O O16 0.210492 0.605246 0.758286
O O17 0.257540 0.742461 0.773520
O O18 0.136025 0.664720 0.714632
O O19 0.071971 0.535986 0.670298
O O20 0.000000 0.601038 0.671619
#
# Coordination Sequence:
#
# PCOD8328880 Si02
#       7
#    24  24  24  12  24  24  24
#     4   9  17  29  46  68  94 124 157 193 232 276
#     4  10  19  32  53  77 100 127 159 201 248 291
#     4   9  17  30  49  73 100 130 165 204 247 292
#     4   9  18  32  49  72 101 130 160 192 234 289
#     4  10  20  33  49  69  95 126 156 187 229 284
#     4  11  22  36  53  72  97 128 164 202 240 287
#     4  10  21  35  52  74  96 120 154 199 247 289
#
# _framework density 17.709847
#
# number of rings (size 3 to 8) (size 9 to 14) (size 15 to 20)
#    0.000    2.231    0.000    3.385    0.000    5.538 
#    0.000    2.308    0.000    0.615    0.000    3.231 
#    0.000    0.000    0.000    3.846    0.000   13.077 
#
# Total GULP energy -1933277.852124 kJ/mol
# GULP energy per Si atom -12392.806744 kJ/mol
# Density = 1.766954 g / cm^3
# Si number density = 17.709847 Si / 1000 Ang^3
#
#
#
# Elastic Constant Matrix: (Units=GPa)
#
#
# Indices 1 2 3 4 5 6 
#
# 1 80.8932 36.8072 44.8614 0.0000 0.0000 0.0000
# 2 36.8072 80.8932 44.8614 0.0000 0.0000 0.0000
# 3 44.8614 44.8614 129.0185 0.0000 0.0000 0.0000
# 4 0.0000 0.0000 0.0000 16.9827 0.0000 0.0000
# 5 0.0000 0.0000 0.0000 0.0000 16.9827 0.0000
# 6 0.0000 0.0000 0.0000 0.0000 0.0000 22.0430
#
#
#
# Elastic Compliance Matrix: (Units=1/GPa)
#
#
# Indices 1 2 3 4 5 6 
#
# 1 0.017122 -0.005561 -0.004020 0.000000 0.000000 0.000000
# 2 -0.005561 0.017122 -0.004020 0.000000 0.000000 0.000000
# 3 -0.004020 -0.004020 0.010546 0.000000 0.000000 0.000000
# 4 0.000000 0.000000 0.000000 0.058883 0.000000 0.000000
# 5 0.000000 0.000000 0.000000 0.000000 0.058883 0.000000
# 6 0.000000 0.000000 0.000000 0.000000 0.000000 0.045366
#
#
# Mechanical properties :
#
#
# Convention : Reuss Voigt Hill
#
# Bulk Modulus (GPa) = 56.85638 60.42944 58.64291
# Shear Modulus (GPa) = 20.74809 22.15336 21.45073
#
# Velocity S-wave (km/s) = 3.42651 3.54065 3.48405
# Velocity P-wave (km/s) = 6.91583 7.13519 7.02637
#
# Compressibility (1/GPa) = 0.01758818
#
# Stress axis : x y z
#
# Youngs Moduli (GPa) = 58.40566 58.40566 94.82076
#
# Poissons Ratio (x) = 0.32481 0.38115
# Poissons Ratio (y) = 0.32481 0.38115
# Poissons Ratio (z) = 0.23477 0.23477
#
# Static dielectric constant tensor:
#      x y z
#    x 3.325280 0.000000 0.000000 
#    y 0.000000 3.325280 0.000000 
#    z 0.000000 0.000000 3.475750 
# 
# 
# High freq. dielectric constant tensor:
#      x y z
#    x 1.675020 0.000000 0.000000 
#    y 0.000000 1.675020 0.000000 
#    z 0.000000 0.000000 1.680990 
# 
# From -- ./inp_files/7758.got.cif
#   From: 2010.03.12/outbox.cif.g09.slc.cpg/sg191_4_cif.got.tgz:7758.got - 2010.04.01 12:09:02.
