data_PCOD8328726
_publ_section_title
;
Structure prediction by ZEFSAII (Michael W. Deem and Ramdas Pophale) SiO2 
 PCOD8328726
Probable space group: P 6/M M M
;
_chemical_formula_sum "Si O2"
_cell_formula_units_Z 120
_cell_length_a 18.030681
_cell_length_b 18.030681
_cell_length_c 25.578001
_cell_angle_alpha 90.000000
_cell_angle_beta 90.000000
_cell_angle_gamma 120.000000
_cell_volume 7201.475565
_symmetry_space_group_name_H-M "P 6/M M M"
_symmetry_group_IT_number 191
_symmetry_cell_setting 'hexagonal'
loop_
_space_group_symop_operation_xyz
x,y,z
x-y,x,z
-y,x-y,z
-x,-y,z
-x+y,-x,z
y,-x+y,z
x-y,-y,-z
-x,-x+y,-z
y,x,-z
-y,-x,-z
-x+y,y,-z
x,x-y,-z
-x,-y,-z
-x+y,-x,-z
y,-x+y,-z
x,y,-z
x-y,x,-z
-y,x-y,-z
-x+y,y,z
x,x-y,z
-y,-x,z
y,x,z
x-y,-y,z
-x,-x+y,z
loop_
_atom_site_type_symbol
_atom_site_label
_atom_site_fract_x
_atom_site_fract_y
_atom_site_fract_z
Si Si1 0.367159 0.466103 0.403308
Si Si2 0.102129 0.633797 0.888027
Si Si3 0.736817 0.098990 0.500000
Si Si4 0.668392 0.502948 0.708652
Si Si5 0.365416 0.906536 0.000000
Si Si6 0.902297 0.263882 0.794325
O O1 0.438918 0.561083 0.421699
O O2 0.411255 0.411255 0.388342
O O3 0.300079 0.422287 0.449629
O O4 0.318836 0.470323 0.351962
O O5 0.136539 0.568270 0.874108
O O6 0.139872 0.679511 0.944986
O O7 0.130895 0.705293 0.843726
O O8 0.000000 0.580001 0.891885
O O9 0.839906 0.160095 0.500000
O O10 0.713164 0.000000 0.500000
O O11 0.736508 0.473016 0.722966
O O12 0.572945 0.427056 0.720372
O O13 0.686115 0.584286 0.743373
O O14 0.458758 0.917515 0.000000
O O15 0.373896 0.000000 0.000000
O O16 0.838610 0.161391 0.788663
O O17 0.000000 0.284285 0.800905
#
# Coordination Sequence:
#
# PCOD8328726 Si02
#       6
#    24  24  12  24  12  24
#     4   9  17  29  46  67  90 118 151 184 216 252
#     4   8  13  23  41  64  88 113 140 169 204 249
#     4  10  19  31  47  66  89 117 152 192 231 269
#     4  10  19  30  45  67  96 126 152 176 205 246
#     4   7  10  18  35  60  87 112 138 168 200 239
#     4  10  20  32  46  64  86 113 146 186 229 270
#
# _framework density 16.663252
#
# number of rings (size 3 to 8) (size 9 to 14) (size 15 to 20)
#    0.000    2.900    0.000    3.500    0.000    3.200 
#    0.000    0.500    0.000    3.500    0.000    0.000 
#    0.000    0.000    0.000    6.400    0.000   11.800 
#
# Total GULP energy -1486984.858899 kJ/mol
# GULP energy per Si atom -12391.540491 kJ/mol
# Density = 1.662533 g / cm^3
# Si number density = 16.663252 Si / 1000 Ang^3
#
#
#
# Elastic Constant Matrix: (Units=GPa)
#
#
# Indices 1 2 3 4 5 6 
#
# 1 70.2721 37.7462 32.5402 0.0000 0.0000 0.0000
# 2 37.7462 70.2721 32.5402 0.0000 0.0000 0.0000
# 3 32.5402 32.5402 86.6702 0.0000 0.0000 0.0000
# 4 0.0000 0.0000 0.0000 9.8139 0.0000 0.0000
# 5 0.0000 0.0000 0.0000 0.0000 9.8139 0.0000
# 6 0.0000 0.0000 0.0000 0.0000 0.0000 16.2630
#
#
#
# Elastic Compliance Matrix: (Units=1/GPa)
#
#
# Indices 1 2 3 4 5 6 
#
# 1 0.021354 -0.009390 -0.004492 0.000000 0.000000 0.000000
# 2 -0.009390 0.021354 -0.004492 0.000000 0.000000 0.000000
# 3 -0.004492 -0.004492 0.014911 0.000000 0.000000 0.000000
# 4 0.000000 0.000000 0.000000 0.101896 0.000000 0.000000
# 5 0.000000 0.000000 0.000000 0.000000 0.101896 0.000000
# 6 0.000000 0.000000 0.000000 0.000000 0.000000 0.061489
#
#
# Mechanical properties :
#
#
# Convention : Reuss Voigt Hill
#
# Bulk Modulus (GPa) = 47.91231 48.09642 48.00437
# Shear Modulus (GPa) = 13.63858 15.47067 14.55463
#
# Velocity S-wave (km/s) = 2.86402 3.05032 2.95864
# Velocity P-wave (km/s) = 6.30496 6.42903 6.36729
#
# Compressibility (1/GPa) = 0.02087146
#
# Stress axis : x y z
#
# Youngs Moduli (GPa) = 46.82883 46.82883 67.06490
#
# Poissons Ratio (x) = 0.43974 0.30125
# Poissons Ratio (y) = 0.43974 0.30125
# Poissons Ratio (z) = 0.21035 0.21035
#
# Static dielectric constant tensor:
#      x y z
#    x 2.814700 0.000000 0.000000 
#    y 0.000000 2.814700 0.000000 
#    z 0.000000 0.000000 3.502910 
# 
# 
# High freq. dielectric constant tensor:
#      x y z
#    x 1.607660 0.000000 0.000000 
#    y 0.000000 1.607660 0.000000 
#    z 0.000000 0.000000 1.664690 
# 
# From -- ./inp_files/9545.got.cif
#   From: 2010.03.12/outbox.cif.g09.slc.cpg/sg191_5_cif.got.tgz:9545.got - 2010.04.01 12:09:02.
