data_PCOD8328077
_publ_section_title
;
Structure prediction by ZEFSAII (Michael W. Deem and Ramdas Pophale) SiO2 
 PCOD8328077
Probable space group: P -6 2 C
;
_chemical_formula_sum "Si O2"
_cell_formula_units_Z 84
_cell_length_a 14.925813
_cell_length_b 14.925813
_cell_length_c 21.233438
_cell_angle_alpha 90.000000
_cell_angle_beta 90.000000
_cell_angle_gamma 120.000000
_cell_volume 4096.631900
_symmetry_space_group_name_H-M "P -6 2 C"
_symmetry_group_IT_number 190
_symmetry_cell_setting 'hexagonal'
loop_
_space_group_symop_operation_xyz
x,y,z
-x+y,-x,1/2-z
-y,x-y,z
x,y,1/2-z
-x+y,-x,z
-y,x-y,1/2-z
x-y,-y,-z
-x,-x+y,-z
y,x,-z
y,x,1/2+z
x-y,-y,1/2+z
-x,-x+y,1/2+z
loop_
_atom_site_type_symbol
_atom_site_label
_atom_site_fract_x
_atom_site_fract_y
_atom_site_fract_z
Si Si1 0.516069 0.097943 0.825115
Si Si2 0.566077 0.680400 0.678180
Si Si3 0.119721 0.327716 0.999415
Si Si4 0.902748 0.136138 0.130756
Si Si5 0.098443 0.861150 0.372264
Si Si6 0.546876 0.802909 0.178701
Si Si7 0.759183 0.299307 0.440182
O O1 0.506888 0.093746 0.750000
O O2 0.629113 0.122825 0.850713
O O3 0.501302 0.190974 0.853272
O O4 0.422759 0.987140 0.848800
O O5 0.524257 0.665222 0.750000
O O6 0.681686 0.778854 0.677138
O O7 0.498715 0.707578 0.631656
O O8 0.137277 0.276070 0.938743
O O9 0.182226 0.452081 0.992627
O O10 0.160282 0.290466 0.058544
O O11 0.000000 0.295488 0.000000
O O12 0.018185 0.155452 0.132503
O O13 0.823386 0.019768 0.149703
O O14 0.146695 0.816566 0.322760
O O15 0.508142 0.785533 0.250000
O O16 0.780735 0.416647 0.448882
#
# Coordination Sequence:
#
# PCOD8328077 Si02
#       7
#    12  12  12  12  12  12  12
#     4   9  18  34  55  81 119 159 196 246 302 352
#     4  10  20  37  60  83 118 165 198 242 310 371
#     4   9  20  40  61  84 114 158 198 241 307 364
#     4  10  21  37  58  84 124 158 203 252 302 359
#     4  11  21  37  60  89 119 161 206 247 306 369
#     4  10  20  36  58  88 121 155 203 256 304 360
#     4   9  21  41  61  84 120 147 193 255 304 358
#
# _framework density 20.504650000000002
#
# number of rings (size 3 to 8) (size 9 to 14) (size 15 to 20)
#    0.286    2.000    1.429    1.000    0.000    4.571 
#    2.571    5.714    0.000    1.714    0.000    0.000 
#    0.000    0.000    0.000    0.000    0.000    0.000 
#
# Total GULP energy -1040807.729437 kJ/mol
# GULP energy per Si atom -12390.568208 kJ/mol
# Density = 2.045798 g / cm^3
# Si number density = 20.504650 Si / 1000 Ang^3
#
#
#
# Elastic Constant Matrix: (Units=GPa)
#
#
# Indices 1 2 3 4 5 6 
#
# 1 106.9914 33.4167 4.1214 0.0000 0.0000 0.0000
# 2 33.4167 106.9914 4.1214 0.0000 0.0000 0.0000
# 3 4.1214 4.1214 25.1597 0.0000 0.0000 0.0000
# 4 0.0000 0.0000 0.0000 23.0351 0.0000 0.0000
# 5 0.0000 0.0000 0.0000 0.0000 23.0351 0.0000
# 6 0.0000 0.0000 0.0000 0.0000 0.0000 36.7874
#
#
#
# Elastic Compliance Matrix: (Units=1/GPa)
#
#
# Indices 1 2 3 4 5 6 
#
# 1 0.010391 -0.003200 -0.001178 0.000000 0.000000 0.000000
# 2 -0.003200 0.010391 -0.001178 0.000000 0.000000 0.000000
# 3 -0.001178 -0.001178 0.040132 0.000000 0.000000 0.000000
# 4 0.000000 0.000000 0.000000 0.043412 0.000000 0.000000
# 5 0.000000 0.000000 0.000000 0.000000 0.043412 0.000000
# 6 0.000000 0.000000 0.000000 0.000000 0.000000 0.027183
#
#
# Mechanical properties :
#
#
# Convention : Reuss Voigt Hill
#
# Bulk Modulus (GPa) = 20.07927 35.82906 27.95417
# Shear Modulus (GPa) = 24.67487 29.73706 27.20597
#
# Velocity S-wave (km/s) = 3.47274 3.81236 3.64650
# Velocity P-wave (km/s) = 5.08858 6.07374 5.60286
#
# Compressibility (1/GPa) = 0.04980260
#
# Stress axis : x y z
#
# Youngs Moduli (GPa) = 96.23306 96.23306 24.91771
#
# Poissons Ratio (x) = 0.30796 0.02935
# Poissons Ratio (y) = 0.30796 0.02935
# Poissons Ratio (z) = 0.11336 0.11336
#
# Static dielectric constant tensor:
#      x y z
#    x 3.713690 0.000000 0.000000 
#    y 0.000000 3.713690 0.000000 
#    z 0.000000 0.000000 3.480240 
# 
# 
# High freq. dielectric constant tensor:
#      x y z
#    x 1.801650 0.000000 0.000000 
#    y 0.000000 1.801650 0.000000 
#    z 0.000000 0.000000 1.777270 
# 
# From -- ./inp_files/4709.got.cif
#   From: 2010.06.25/outbox.cif.g09.slc.cpg/sg190_3_cif.got.tgz:4709.got - 2010.06.28 13:08:06.
