data_PCOD8328257
_publ_section_title
;
Structure prediction by ZEFSAII (Michael W. Deem and Ramdas Pophale) SiO2 
 PCOD8328257
Probable space group: P 6/M M M
;
_chemical_formula_sum "Si O2"
_cell_formula_units_Z 108
_cell_length_a 18.839501
_cell_length_b 18.839501
_cell_length_c 23.017059
_cell_angle_alpha 90.000000
_cell_angle_beta 90.000000
_cell_angle_gamma 120.000000
_cell_volume 7074.882861
_symmetry_space_group_name_H-M "P 6/M M M"
_symmetry_group_IT_number 191
_symmetry_cell_setting 'hexagonal'
loop_
_space_group_symop_operation_xyz
x,y,z
x-y,x,z
-y,x-y,z
-x,-y,z
-x+y,-x,z
y,-x+y,z
x-y,-y,-z
-x,-x+y,-z
y,x,-z
-y,-x,-z
-x+y,y,-z
x,x-y,-z
-x,-y,-z
-x+y,-x,-z
y,-x+y,-z
x,y,-z
x-y,x,-z
-y,x-y,-z
-x+y,y,z
x,x-y,z
-y,-x,z
y,x,z
x-y,-y,z
-x,-x+y,z
loop_
_atom_site_type_symbol
_atom_site_label
_atom_site_fract_x
_atom_site_fract_y
_atom_site_fract_z
Si Si1 0.908991 0.538649 0.260271
Si Si2 0.371022 0.467428 0.385967
Si Si3 0.092473 0.345455 0.932196
Si Si4 0.174622 0.505232 0.500000
Si Si5 0.668609 0.171183 0.857670
O O1 0.914098 0.457049 0.266494
O O2 0.878788 0.554304 0.323086
O O3 0.848062 0.529785 0.208665
O O4 0.000000 0.613494 0.245703
O O5 0.436266 0.563735 0.385958
O O6 0.414330 0.414330 0.394086
O O7 0.311807 0.449942 0.441529
O O8 0.158724 0.317448 0.914437
O O9 0.112179 0.428856 0.899875
O O10 0.000000 0.273712 0.916136
O O11 0.099194 0.365543 0.000000
O O12 0.272072 0.544144 0.500000
O O13 0.150074 0.575037 0.500000
O O14 0.577574 0.155147 0.868957
O O15 0.734097 0.265903 0.870167
#
# Coordination Sequence:
#
# PCOD8328257 Si02
#       5
#    24  24  24  12  24
#     4   8  14  25  40  55  69  89 123 166 206 241
#     4   8  14  25  39  51  63  85 120 158 193 230
#     4   9  18  32  49  68  88 110 137 170 209 251
#     4  10  18  25  33  47  68  91 114 144 187 238
#     4  10  19  29  41  59  85 116 147 177 208 241
#
# _framework density 15.265271
#
# number of rings (size 3 to 8) (size 9 to 14) (size 15 to 20)
#    0.000    3.111    0.000    2.667    0.000    4.000 
#    0.000    1.111    0.000    4.222    0.000    1.556 
#    0.000    0.000    0.000    0.000    0.000    0.000 
#
# Total GULP energy -1337924.451409 kJ/mol
# GULP energy per Si atom -12388.189365 kJ/mol
# Density = 1.523053 g / cm^3
# Si number density = 15.265271 Si / 1000 Ang^3
#
#
#
# Elastic Constant Matrix: (Units=GPa)
#
#
# Indices 1 2 3 4 5 6 
#
# 1 57.4829 36.3106 36.1657 0.0000 0.0000 0.0000
# 2 36.3106 57.4829 36.1657 0.0000 0.0000 0.0000
# 3 36.1657 36.1657 80.2879 0.0000 0.0000 0.0000
# 4 0.0000 0.0000 0.0000 16.0030 0.0000 0.0000
# 5 0.0000 0.0000 0.0000 0.0000 16.0030 0.0000
# 6 0.0000 0.0000 0.0000 0.0000 0.0000 10.5862
#
#
#
# Elastic Compliance Matrix: (Units=1/GPa)
#
#
# Indices 1 2 3 4 5 6 
#
# 1 0.031784 -0.015447 -0.007359 0.000000 0.000000 0.000000
# 2 -0.015447 0.031784 -0.007359 0.000000 0.000000 0.000000
# 3 -0.007359 -0.007359 0.019085 0.000000 0.000000 0.000000
# 4 0.000000 0.000000 0.000000 0.062488 0.000000 0.000000
# 5 0.000000 0.000000 0.000000 0.000000 0.062488 0.000000
# 6 0.000000 0.000000 0.000000 0.000000 0.000000 0.094463
#
#
# Mechanical properties :
#
#
# Convention : Reuss Voigt Hill
#
# Bulk Modulus (GPa) = 44.79743 45.83754 45.31749
# Shear Modulus (GPa) = 13.51850 14.29255 13.90553
#
# Velocity S-wave (km/s) = 2.97908 3.06319 3.02143
# Velocity P-wave (km/s) = 6.42207 6.52712 6.47481
#
# Compressibility (1/GPa) = 0.02232271
#
# Stress axis : x y z
#
# Youngs Moduli (GPa) = 31.46226 31.46226 52.39767
#
# Poissons Ratio (x) = 0.48601 0.38559
# Poissons Ratio (y) = 0.48601 0.38559
# Poissons Ratio (z) = 0.23153 0.23153
#
# Static dielectric constant tensor:
#      x y z
#    x 2.677120 0.000000 0.000000 
#    y 0.000000 2.677120 0.000000 
#    z 0.000000 0.000000 3.401460 
# 
# 
# High freq. dielectric constant tensor:
#      x y z
#    x 1.547410 0.000000 0.000000 
#    y 0.000000 1.547410 0.000000 
#    z 0.000000 0.000000 1.608610 
# 
# From -- ./inp_files/8394.got.cif
#   From: 2010.03.12/outbox.cif.g09.slc.cpg/sg191_5_cif.got.tgz:8394.got - 2010.04.01 12:09:02.
