data_PCOD8328840
_publ_section_title
;
Structure prediction by ZEFSAII (Michael W. Deem and Ramdas Pophale) SiO2 
 PCOD8328840
Probable space group: P 6/M M M
;
_chemical_formula_sum "Si O2"
_cell_formula_units_Z 132
_cell_length_a 25.389693
_cell_length_b 25.389693
_cell_length_c 13.000914
_cell_angle_alpha 90.000000
_cell_angle_beta 90.000000
_cell_angle_gamma 120.000000
_cell_volume 7258.040988
_symmetry_space_group_name_H-M "P 6/M M M"
_symmetry_group_IT_number 191
_symmetry_cell_setting 'hexagonal'
loop_
_space_group_symop_operation_xyz
x,y,z
x-y,x,z
-y,x-y,z
-x,-y,z
-x+y,-x,z
y,-x+y,z
x-y,-y,-z
-x,-x+y,-z
y,x,-z
-y,-x,-z
-x+y,y,-z
x,x-y,-z
-x,-y,-z
-x+y,-x,-z
y,-x+y,-z
x,y,-z
x-y,x,-z
-y,x-y,-z
-x+y,y,z
x,x-y,z
-y,-x,z
y,x,z
x-y,-y,z
-x,-x+y,z
loop_
_atom_site_type_symbol
_atom_site_label
_atom_site_fract_x
_atom_site_fract_y
_atom_site_fract_z
Si Si1 0.547716 0.334359 0.383312
Si Si2 0.766418 0.650597 0.769411
Si Si3 0.666193 0.458439 0.000000
Si Si4 0.932888 0.750840 0.620196
Si Si5 0.000000 0.291984 0.112104
Si Si6 0.349367 0.871599 0.200800
Si Si7 0.582482 0.000000 0.117180
O O1 0.523262 0.332707 0.500000
O O2 0.534399 0.267200 0.351038
O O3 0.620108 0.379893 0.380916
O O4 0.518577 0.360573 0.301825
O O5 0.821893 0.643785 0.812031
O O6 0.778885 0.680543 0.656429
O O7 0.760616 0.699427 0.838733
O O8 0.707561 0.585781 0.769340
O O9 0.664251 0.493728 0.898931
O O10 0.609704 0.390297 0.000000
O O11 0.727782 0.455564 0.000000
O O12 0.938194 0.747867 0.500000
O O13 0.888833 0.777665 0.651665
O O14 0.000000 0.793700 0.668048
O O15 0.000000 0.354970 0.114592
O O16 0.000000 0.268506 0.000000
O O17 0.406968 0.938796 0.176004
O O18 0.560430 0.000000 0.000000
#
# Coordination Sequence:
#
# PCOD8328840 Si02
#       7
#    24  24  12  24  12  24  12
#     4  10  21  39  62  86 112 143 181 228 283 339
#     4  10  19  31  49  74 103 135 171 212 260 312
#     4  12  25  41  61  87 117 145 180 230 287 337
#     4   9  17  30  49  74 105 140 177 218 267 321
#     4   9  18  30  45  67  98 132 170 212 252 300
#     4  11  22  38  59  84 112 145 187 226 271 331
#     4   9  18  38  57  78 110 150 185 220 263 322
#
# _framework density 18.186726
#
# number of rings (size 3 to 8) (size 9 to 14) (size 15 to 20)
#    0.000    2.000    1.818    2.455    1.273    1.818 
#    0.000    6.364    0.000    1.273    0.000    1.273 
#    0.000    0.000    0.000    0.000    0.000    8.273 
#
# Total GULP energy -1635604.057144 kJ/mol
# GULP energy per Si atom -12390.939827 kJ/mol
# Density = 1.814533 g / cm^3
# Si number density = 18.186726 Si / 1000 Ang^3
#
#
#
# Elastic Constant Matrix: (Units=GPa)
#
#
# Indices 1 2 3 4 5 6 
#
# 1 93.7439 51.4119 36.8551 0.0000 0.0000 0.0000
# 2 51.4119 93.7439 36.8551 0.0000 0.0000 0.0000
# 3 36.8551 36.8551 86.5187 0.0000 0.0000 0.0000
# 4 0.0000 0.0000 0.0000 6.3648 0.0000 0.0000
# 5 0.0000 0.0000 0.0000 0.0000 6.3648 0.0000
# 6 0.0000 0.0000 0.0000 0.0000 0.0000 21.1660
#
#
#
# Elastic Compliance Matrix: (Units=1/GPa)
#
#
# Indices 1 2 3 4 5 6 
#
# 1 0.016207 -0.007416 -0.003745 0.000000 0.000000 0.000000
# 2 -0.007416 0.016207 -0.003745 0.000000 0.000000 0.000000
# 3 -0.003745 -0.003745 0.014748 0.000000 0.000000 0.000000
# 4 0.000000 0.000000 0.000000 0.157113 0.000000 0.000000
# 5 0.000000 0.000000 0.000000 0.000000 0.157113 0.000000
# 6 0.000000 0.000000 0.000000 0.000000 0.000000 0.047246
#
#
# Mechanical properties :
#
#
# Convention : Reuss Voigt Hill
#
# Bulk Modulus (GPa) = 57.63269 58.25009 57.94139
# Shear Modulus (GPa) = 11.25548 16.70478 13.98013
#
# Velocity S-wave (km/s) = 2.49044 3.03399 2.77555
# Velocity P-wave (km/s) = 6.32676 6.66122 6.49615
#
# Compressibility (1/GPa) = 0.01735126
#
# Stress axis : x y z
#
# Youngs Moduli (GPa) = 61.70279 61.70279 67.80369
#
# Poissons Ratio (x) = 0.45759 0.25390
# Poissons Ratio (y) = 0.45759 0.25390
# Poissons Ratio (z) = 0.23105 0.23105
#
# Static dielectric constant tensor:
#      x y z
#    x 7.999480 0.000000 0.000000 
#    y 0.000000 7.999480 0.000000 
#    z 0.000000 0.000000 3.476280 
# 
# 
# High freq. dielectric constant tensor:
#      x y z
#    x 1.702270 0.000000 0.000000 
#    y 0.000000 1.702270 0.000000 
#    z 0.000000 0.000000 1.704420 
# 
# From -- ./inp_files/3416.got.cif
#   From: 2010.03.12/outbox.cif.g09.slc.cpg/sg191_2_cif.got.tgz:3416.got - 2010.04.01 12:09:02.
