data_PCOD8328811
_publ_section_title
;
Structure prediction by ZEFSAII (Michael W. Deem and Ramdas Pophale) SiO2 
 PCOD8328811
Probable space group: P 6/M M M
;
_chemical_formula_sum "Si O2"
_cell_formula_units_Z 120
_cell_length_a 17.693242
_cell_length_b 17.693242
_cell_length_c 27.121429
_cell_angle_alpha 90.000000
_cell_angle_beta 90.000000
_cell_angle_gamma 120.000000
_cell_volume 7352.889430
_symmetry_space_group_name_H-M "P 6/M M M"
_symmetry_group_IT_number 191
_symmetry_cell_setting 'hexagonal'
loop_
_space_group_symop_operation_xyz
x,y,z
x-y,x,z
-y,x-y,z
-x,-y,z
-x+y,-x,z
y,-x+y,z
x-y,-y,-z
-x,-x+y,-z
y,x,-z
-y,-x,-z
-x+y,y,-z
x,x-y,-z
-x,-y,-z
-x+y,-x,-z
y,-x+y,-z
x,y,-z
x-y,x,-z
-y,x-y,-z
-x+y,y,z
x,x-y,z
-y,-x,z
y,x,z
x-y,-y,z
-x,-x+y,z
loop_
_atom_site_type_symbol
_atom_site_label
_atom_site_fract_x
_atom_site_fract_y
_atom_site_fract_z
Si Si1 0.730374 0.098503 0.283760
Si Si2 0.265433 0.360267 0.000000
Si Si3 0.333218 0.839129 0.915430
Si Si4 0.157231 0.488761 0.623511
Si Si5 0.000000 0.410415 0.444905
Si Si6 0.839515 0.506490 0.196733
O O1 0.834883 0.165118 0.286215
O O2 0.681348 0.125652 0.323538
O O3 0.691430 0.101992 0.230832
O O4 0.710844 0.000000 0.292728
O O5 0.312119 0.414806 0.048739
O O6 0.274837 0.274837 0.000000
O O7 0.163297 0.326593 0.000000
O O8 0.426064 0.852127 0.930601
O O9 0.262482 0.737518 0.922120
O O10 0.333892 0.869691 0.859396
O O11 0.249906 0.499812 0.608364
O O12 0.166225 0.583113 0.625775
O O13 0.086821 0.426229 0.583138
O O14 0.000000 0.500000 0.446955
O O15 0.000000 0.375910 0.500000
O O16 0.737537 0.475073 0.203662
O O17 0.853360 0.426680 0.211974
#
# Coordination Sequence:
#
# PCOD8328811 Si02
#       6
#    24  12  24  24  12  24
#     4  10  20  33  49  69  93 122 154 192 237 285
#     4  10  21  35  49  64  85 113 148 190 237 283
#     4   9  17  29  45  67  95 128 160 188 217 256
#     4  10  19  31  48  70  97 128 162 197 235 278
#     4   9  18  32  48  66  92 126 161 198 236 270
#     4   9  17  28  44  67  97 130 162 191 220 257
#
# _framework density 16.320115000000001
#
# number of rings (size 3 to 8) (size 9 to 14) (size 15 to 20)
#    0.000    2.500    1.000    1.500    0.000    4.800 
#    0.000    5.000    0.000    1.500    0.000    0.000 
#    0.000    0.000    0.000   10.000    0.000    9.100 
#
# Total GULP energy -1487918.443825 kJ/mol
# GULP energy per Si atom -12399.320365 kJ/mol
# Density = 1.628297 g / cm^3
# Si number density = 16.320115 Si / 1000 Ang^3
#
#
#
# Elastic Constant Matrix: (Units=GPa)
#
#
# Indices 1 2 3 4 5 6 
#
# 1 95.1896 63.9618 40.1265 0.0000 0.0000 0.0000
# 2 63.9618 95.1896 40.1265 0.0000 0.0000 0.0000
# 3 40.1265 40.1265 90.5997 0.0000 0.0000 0.0000
# 4 0.0000 0.0000 0.0000 18.1874 0.0000 0.0000
# 5 0.0000 0.0000 0.0000 0.0000 18.1874 0.0000
# 6 0.0000 0.0000 0.0000 0.0000 0.0000 15.6139
#
#
#
# Elastic Compliance Matrix: (Units=1/GPa)
#
#
# Indices 1 2 3 4 5 6 
#
# 1 0.020056 -0.011966 -0.003583 0.000000 0.000000 0.000000
# 2 -0.011966 0.020056 -0.003583 0.000000 0.000000 0.000000
# 3 -0.003583 -0.003583 0.014211 0.000000 0.000000 0.000000
# 4 0.000000 0.000000 0.000000 0.054983 0.000000 0.000000
# 5 0.000000 0.000000 0.000000 0.000000 0.054983 0.000000
# 6 0.000000 0.000000 0.000000 0.000000 0.000000 0.064045
#
#
# Mechanical properties :
#
#
# Convention : Reuss Voigt Hill
#
# Bulk Modulus (GPa) = 62.26925 63.26762 62.76844
# Shear Modulus (GPa) = 18.38547 19.51537 18.95042
#
# Velocity S-wave (km/s) = 3.36006 3.46177 3.41129
# Velocity P-wave (km/s) = 7.30007 7.40468 7.35256
#
# Compressibility (1/GPa) = 0.01605929
#
# Stress axis : x y z
#
# Youngs Moduli (GPa) = 49.85933 49.85933 70.36568
#
# Poissons Ratio (x) = 0.59663 0.25213
# Poissons Ratio (y) = 0.59663 0.25213
# Poissons Ratio (z) = 0.17865 0.17865
#
# Static dielectric constant tensor:
#      x y z
#    x 2.946580 0.000000 0.000000 
#    y 0.000000 2.946580 0.000000 
#    z 0.000000 0.000000 3.335940 
# 
# 
# High freq. dielectric constant tensor:
#      x y z
#    x 1.605490 0.000000 0.000000 
#    y 0.000000 1.605490 0.000000 
#    z 0.000000 0.000000 1.640370 
# 
# From -- ./inp_files/8625.got.cif
#   From: 2010.03.12/outbox.cif.g09.slc.cpg/sg191_5_cif.got.tgz:8625.got - 2010.04.01 12:09:02.
