data_PCOD8328517
_publ_section_title
;
Structure prediction by ZEFSAII (Michael W. Deem and Ramdas Pophale) SiO2 
 PCOD8328517
Probable space group: P 6/M M M
;
_chemical_formula_sum "Si O2"
_cell_formula_units_Z 192
_cell_length_a 28.419942
_cell_length_b 28.419942
_cell_length_c 15.607981
_cell_angle_alpha 90.000000
_cell_angle_beta 90.000000
_cell_angle_gamma 120.000000
_cell_volume 10917.513408
_symmetry_space_group_name_H-M "P 6/M M M"
_symmetry_group_IT_number 191
_symmetry_cell_setting 'hexagonal'
loop_
_space_group_symop_operation_xyz
x,y,z
x-y,x,z
-y,x-y,z
-x,-y,z
-x+y,-x,z
y,-x+y,z
x-y,-y,-z
-x,-x+y,-z
y,x,-z
-y,-x,-z
-x+y,y,-z
x,x-y,-z
-x,-y,-z
-x+y,-x,-z
y,-x+y,-z
x,y,-z
x-y,x,-z
-y,x-y,-z
-x+y,y,z
x,x-y,z
-y,-x,z
y,x,z
x-y,-y,z
-x,-x+y,z
loop_
_atom_site_type_symbol
_atom_site_label
_atom_site_fract_x
_atom_site_fract_y
_atom_site_fract_z
Si Si1 0.360807 0.827484 0.591498
Si Si2 0.316539 0.379775 0.902496
Si Si3 0.060821 0.719107 0.402570
Si Si4 0.479218 0.064143 0.834986
Si Si5 0.776976 0.333928 0.095055
Si Si6 0.127301 0.365255 0.243377
Si Si7 0.296829 0.487148 0.753912
Si Si8 0.939517 0.549433 0.356938
O O1 0.331095 0.805762 0.500000
O O2 0.404518 0.809036 0.605140
O O3 0.317623 0.798605 0.665761
O O4 0.390939 0.893317 0.586373
O O5 0.346274 0.346274 0.878057
O O6 0.360592 0.444582 0.892423
O O7 0.262409 0.354027 0.842741
O O8 0.295517 0.369918 0.000000
O O9 0.084811 0.737058 0.500000
O O10 0.095515 0.763914 0.329125
O O11 0.058517 0.663864 0.376013
O O12 0.000000 0.709630 0.401010
O O13 0.544131 0.088261 0.858869
O O14 0.472606 0.080709 0.739035
O O15 0.451553 0.000000 0.843290
O O16 0.768119 0.384060 0.110030
O O17 0.718728 0.281273 0.108522
O O18 0.821214 0.337592 0.165441
O O19 0.799933 0.334496 0.000000
O O20 0.177612 0.355224 0.225474
O O21 0.143554 0.426731 0.265196
O O22 0.242758 0.485516 0.783887
O O23 0.000000 0.558466 0.374101
#
# Coordination Sequence:
#
# PCOD8328517 Si02
#       8
#    24  24  24  24  24  24  24  24
#     4  11  22  33  46  65  89 116 147 181 216 261
#     4  10  20  35  54  73  97 132 169 204 248 301
#     4  10  19  33  55  77  98 126 159 195 236 285
#     4   9  16  27  46  70  95 124 160 204 246 289
#     4   9  17  31  52  73  87 100 126 170 225 284
#     4  11  22  35  52  74  99 127 161 199 238 283
#     4  10  21  35  49  65  87 116 145 175 221 279
#     4  10  18  30  48  68  93 122 147 177 222 274
#
# _framework density 17.586421999999999
#
# number of rings (size 3 to 8) (size 9 to 14) (size 15 to 20)
#    0.000    2.000    2.500    1.625    0.000    3.500 
#    0.000    5.000    0.000    0.250    0.000    0.000 
#    0.000    0.000    0.000    0.375    0.000    1.625 
#
# Total GULP energy -2378537.347497 kJ/mol
# GULP energy per Si atom -12388.215352 kJ/mol
# Density = 1.754639 g / cm^3
# Si number density = 17.586422 Si / 1000 Ang^3
#
#
#
# Elastic Constant Matrix: (Units=GPa)
#
#
# Indices 1 2 3 4 5 6 
#
# 1 44.6169 16.0253 33.0642 0.0000 0.0000 0.0000
# 2 16.0253 44.6169 33.0642 0.0000 0.0000 0.0000
# 3 33.0642 33.0642 112.0937 0.0000 0.0000 0.0000
# 4 0.0000 0.0000 0.0000 17.5224 0.0000 0.0000
# 5 0.0000 0.0000 0.0000 0.0000 17.5224 0.0000
# 6 0.0000 0.0000 0.0000 0.0000 0.0000 14.2958
#
#
#
# Elastic Compliance Matrix: (Units=1/GPa)
#
#
# Indices 1 2 3 4 5 6 
#
# 1 0.029642 -0.005333 -0.007171 0.000000 0.000000 0.000000
# 2 -0.005333 0.029642 -0.007171 0.000000 0.000000 0.000000
# 3 -0.007171 -0.007171 0.013151 0.000000 0.000000 0.000000
# 4 0.000000 0.000000 0.000000 0.057070 0.000000 0.000000
# 5 0.000000 0.000000 0.000000 0.000000 0.057070 0.000000
# 6 0.000000 0.000000 0.000000 0.000000 0.000000 0.069951
#
#
# Mechanical properties :
#
#
# Convention : Reuss Voigt Hill
#
# Bulk Modulus (GPa) = 30.22243 40.62608 35.42425
# Shear Modulus (GPa) = 16.29175 17.81303 17.05239
#
# Velocity S-wave (km/s) = 3.04695 3.18604 3.11727
# Velocity P-wave (km/s) = 5.44068 6.05685 5.75701
#
# Compressibility (1/GPa) = 0.03308801
#
# Stress axis : x y z
#
# Youngs Moduli (GPa) = 33.73548 33.73548 76.03822
#
# Poissons Ratio (x) = 0.17991 0.54523
# Poissons Ratio (y) = 0.17991 0.54523
# Poissons Ratio (z) = 0.24190 0.24190
#
# Static dielectric constant tensor:
#      x y z
#    x 3.083020 0.000000 0.000000 
#    y 0.000000 3.083020 0.000000 
#    z 0.000000 0.000000 3.489870 
# 
# 
# High freq. dielectric constant tensor:
#      x y z
#    x 1.645590 0.000000 0.000000 
#    y 0.000000 1.645590 0.000000 
#    z 0.000000 0.000000 1.697060 
# 
# From -- ./inp_files/5546.got.cif
#   From: 2010.03.12/outbox.cif.g09.slc.cpg/sg191_3_cif.got.tgz:5546.got - 2010.04.01 12:09:02.
