data_PCOD8328477
_publ_section_title
;
Structure prediction by ZEFSAII (Michael W. Deem and Ramdas Pophale) SiO2 
 PCOD8328477
Probable space group: P 6/M M M
;
_chemical_formula_sum "Si O2"
_cell_formula_units_Z 156
_cell_length_a 22.228407
_cell_length_b 22.228407
_cell_length_c 22.671543
_cell_angle_alpha 90.000000
_cell_angle_beta 90.000000
_cell_angle_gamma 120.000000
_cell_volume 9701.265506
_symmetry_space_group_name_H-M "P 6/M M M"
_symmetry_group_IT_number 191
_symmetry_cell_setting 'hexagonal'
loop_
_space_group_symop_operation_xyz
x,y,z
x-y,x,z
-y,x-y,z
-x,-y,z
-x+y,-x,z
y,-x+y,z
x-y,-y,-z
-x,-x+y,-z
y,x,-z
-y,-x,-z
-x+y,y,-z
x,x-y,-z
-x,-y,-z
-x+y,-x,-z
y,-x+y,-z
x,y,-z
x-y,x,-z
-y,x-y,-z
-x+y,y,z
x,x-y,z
-y,-x,z
y,x,z
x-y,-y,z
-x,-x+y,z
loop_
_atom_site_type_symbol
_atom_site_label
_atom_site_fract_x
_atom_site_fract_y
_atom_site_fract_z
Si Si1 0.710428 0.151899 0.882968
Si Si2 0.666666 0.195004 0.433364
Si Si3 0.790376 0.077043 0.284620
Si Si4 0.332160 0.524851 0.000000
Si Si5 0.850988 0.286439 0.674518
Si Si6 0.788429 0.078003 0.148566
Si Si7 0.531508 0.921346 0.222507
O O1 0.771027 0.228974 0.864372
O O2 0.675105 0.153172 0.943870
O O3 0.743701 0.102125 0.890264
O O4 0.650965 0.121329 0.834538
O O5 0.664023 0.168265 0.500000
O O6 0.593694 0.187387 0.414698
O O7 0.724267 0.275734 0.427731
O O8 0.684026 0.148128 0.390452
O O9 0.872404 0.127597 0.294992
O O10 0.746001 0.098507 0.326510
O O11 0.770091 0.082389 0.217013
O O12 0.773839 0.000000 0.300574
O O13 0.406523 0.593478 0.000000
O O14 0.273484 0.546968 0.000000
O O15 0.773308 0.226693 0.692914
O O16 0.879224 0.349115 0.720048
O O17 0.870752 0.129249 0.137151
O O18 0.769060 0.000000 0.131093
O O19 0.462838 0.925676 0.222876
O O20 0.597959 0.000000 0.222084
#
# Coordination Sequence:
#
# PCOD8328477 Si02
#       7
#    24  24  24  12  24  24  24
#     4  10  19  33  51  69  89 117 154 196 237 277
#     4   9  17  29  45  64  88 120 159 202 246 289
#     4   9  16  27  46  70  93 117 147 184 223 266
#     4  10  21  36  53  69  90 121 158 198 243 293
#     4  10  18  29  46  67  90 118 154 195 234 275
#     4   9  16  28  48  71  94 119 149 185 224 267
#     4  11  21  31  45  65  91 121 151 187 233 281
#
# _framework density 16.080376999999999
#
# number of rings (size 3 to 8) (size 9 to 14) (size 15 to 20)
#    0.000    2.308    1.538    2.538    0.000    0.615 
#    0.000    1.538    0.000    9.231    0.000    7.538 
#    0.000    0.000    0.000    0.000    0.000    9.077 
#
# Total GULP energy -1934168.486046 kJ/mol
# GULP energy per Si atom -12398.515936 kJ/mol
# Density = 1.604378 g / cm^3
# Si number density = 16.080377 Si / 1000 Ang^3
#
#
#
# Elastic Constant Matrix: (Units=GPa)
#
#
# Indices 1 2 3 4 5 6 
#
# 1 105.7354 60.5567 54.6267 0.0000 0.0000 0.0000
# 2 60.5567 105.7354 54.6267 0.0000 0.0000 0.0000
# 3 54.6267 54.6267 92.2843 0.0000 0.0000 0.0000
# 4 0.0000 0.0000 0.0000 15.5087 0.0000 0.0000
# 5 0.0000 0.0000 0.0000 0.0000 15.5087 0.0000
# 6 0.0000 0.0000 0.0000 0.0000 0.0000 22.5893
#
#
#
# Elastic Compliance Matrix: (Units=1/GPa)
#
#
# Indices 1 2 3 4 5 6 
#
# 1 0.015987 -0.006147 -0.005825 0.000000 0.000000 0.000000
# 2 -0.006147 0.015987 -0.005825 0.000000 0.000000 0.000000
# 3 -0.005825 -0.005825 0.017732 0.000000 0.000000 0.000000
# 4 0.000000 0.000000 0.000000 0.064480 0.000000 0.000000
# 5 0.000000 0.000000 0.000000 0.000000 0.064480 0.000000
# 6 0.000000 0.000000 0.000000 0.000000 0.000000 0.044269
#
#
# Mechanical properties :
#
#
# Convention : Reuss Voigt Hill
#
# Bulk Modulus (GPa) = 70.85549 71.48617 71.17083
# Shear Modulus (GPa) = 18.99453 19.65102 19.32278
#
# Velocity S-wave (km/s) = 3.44062 3.49958 3.47022
# Velocity P-wave (km/s) = 7.74228 7.80265 7.77252
#
# Compressibility (1/GPa) = 0.01411323
#
# Stress axis : x y z
#
# Youngs Moduli (GPa) = 62.54919 62.54919 56.39472
#
# Poissons Ratio (x) = 0.38448 0.32850
# Poissons Ratio (y) = 0.38448 0.32850
# Poissons Ratio (z) = 0.36435 0.36435
#
# Static dielectric constant tensor:
#      x y z
#    x 3.072860 0.000000 0.000000 
#    y 0.000000 3.072860 0.000000 
#    z 0.000000 0.000000 2.982200 
# 
# 
# High freq. dielectric constant tensor:
#      x y z
#    x 1.614310 0.000000 0.000000 
#    y 0.000000 1.614310 0.000000 
#    z 0.000000 0.000000 1.598710 
# 
# From -- ./inp_files/7742.got.cif
#   From: 2010.03.12/outbox.cif.g09.slc.cpg/sg191_4_cif.got.tgz:7742.got - 2010.04.01 12:09:02.
