data_PCOD8328512
_publ_section_title
;
Structure prediction by ZEFSAII (Michael W. Deem and Ramdas Pophale) SiO2 
 PCOD8328512
Probable space group: P 6/M M M
;
_chemical_formula_sum "Si O2"
_cell_formula_units_Z 108
_cell_length_a 30.502906
_cell_length_b 30.502906
_cell_length_c 8.711371
_cell_angle_alpha 90.000000
_cell_angle_beta 90.000000
_cell_angle_gamma 120.000000
_cell_volume 7019.393260
_symmetry_space_group_name_H-M "P 6/M M M"
_symmetry_group_IT_number 191
_symmetry_cell_setting 'hexagonal'
loop_
_space_group_symop_operation_xyz
x,y,z
x-y,x,z
-y,x-y,z
-x,-y,z
-x+y,-x,z
y,-x+y,z
x-y,-y,-z
-x,-x+y,-z
y,x,-z
-y,-x,-z
-x+y,y,-z
x,x-y,-z
-x,-y,-z
-x+y,-x,-z
y,-x+y,-z
x,y,-z
x-y,x,-z
-y,x-y,-z
-x+y,y,z
x,x-y,z
-y,-x,z
y,x,z
x-y,-y,z
-x,-x+y,z
loop_
_atom_site_type_symbol
_atom_site_label
_atom_site_fract_x
_atom_site_fract_y
_atom_site_fract_z
Si Si1 0.469974 0.939948 0.172079
Si Si2 0.000000 0.276869 0.181898
Si Si3 0.835369 0.164632 0.180809
Si Si4 0.000000 0.821699 0.183855
Si Si5 0.892219 0.107782 0.683026
Si Si6 0.721908 0.625086 0.180781
Si Si7 0.057803 0.618382 0.680720
O O1 0.416745 0.920508 0.257240
O O2 0.500000 0.000000 0.174368
O O3 0.459182 0.918364 0.000000
O O4 0.000000 0.227961 0.243450
O O5 0.048196 0.325794 0.246744
O O6 0.000000 0.276173 0.000000
O O7 0.862864 0.137137 0.261017
O O8 0.857502 0.223124 0.227006
O O9 0.841713 0.158288 0.000000
O O10 0.949221 0.816935 0.253448
O O11 0.000000 0.826401 0.000000
O O12 0.892168 0.107833 0.500000
O O13 0.675068 0.577651 0.262367
O O14 0.712643 0.617995 0.000000
O O15 0.058060 0.616522 0.500000
O O16 0.000000 0.598242 0.740987
#
# Coordination Sequence:
#
# PCOD8328512 Si02
#       7
#    12  12  12  12  12  24  24
#     4   9  17  29  45  63  83 113 152 191 224 261
#     4   9  16  27  49  70  87 116 161 201 228 269
#     4  10  20  34  50  68  93 131 169 199 234 288
#     4  11  21  39  59  74  93 128 163 191 233 297
#     4  12  24  36  52  79 105 122 148 199 251 290
#     4  10  18  30  46  66  90 122 164 201 231 273
#     4  10  19  29  42  63  90 119 150 190 237 276
#
# _framework density 15.385945
#
# number of rings (size 3 to 8) (size 9 to 14) (size 15 to 20)
#    0.000    1.889    3.333    2.333    0.000    3.111 
#    0.000    0.000    0.000    0.222    0.000    1.556 
#    0.000    0.000    0.000    0.667    0.000   10.889 
#
# Total GULP energy -1338646.763706 kJ/mol
# GULP energy per Si atom -12394.877442 kJ/mol
# Density = 1.535093 g / cm^3
# Si number density = 15.385945 Si / 1000 Ang^3
#
#
#
# Elastic Constant Matrix: (Units=GPa)
#
#
# Indices 1 2 3 4 5 6 
#
# 1 103.7628 65.9799 39.6601 0.0000 0.0000 0.0000
# 2 65.9799 103.7628 39.6601 0.0000 0.0000 0.0000
# 3 39.6601 39.6601 73.5869 0.0000 0.0000 0.0000
# 4 0.0000 0.0000 0.0000 17.8442 0.0000 0.0000
# 5 0.0000 0.0000 0.0000 0.0000 17.8442 0.0000
# 6 0.0000 0.0000 0.0000 0.0000 0.0000 18.8914
#
#
#
# Elastic Compliance Matrix: (Units=1/GPa)
#
#
# Indices 1 2 3 4 5 6 
#
# 1 0.017171 -0.009296 -0.004244 0.000000 0.000000 0.000000
# 2 -0.009296 0.017171 -0.004244 0.000000 0.000000 0.000000
# 3 -0.004244 -0.004244 0.018164 0.000000 0.000000 0.000000
# 4 0.000000 0.000000 0.000000 0.056041 0.000000 0.000000
# 5 0.000000 0.000000 0.000000 0.000000 0.056041 0.000000
# 6 0.000000 0.000000 0.000000 0.000000 0.000000 0.052934
#
#
# Mechanical properties :
#
#
# Convention : Reuss Voigt Hill
#
# Bulk Modulus (GPa) = 59.04235 63.52364 61.28300
# Shear Modulus (GPa) = 19.32479 19.97012 19.64746
#
# Velocity S-wave (km/s) = 3.54786 3.60661 3.57735
# Velocity P-wave (km/s) = 7.43240 7.66289 7.54853
#
# Compressibility (1/GPa) = 0.01693699
#
# Stress axis : x y z
#
# Youngs Moduli (GPa) = 58.23859 58.23859 55.05389
#
# Poissons Ratio (x) = 0.54140 0.23365
# Poissons Ratio (y) = 0.54140 0.23365
# Poissons Ratio (z) = 0.24716 0.24716
#
# Static dielectric constant tensor:
#      x y z
#    x 2.942310 0.000000 0.000000 
#    y 0.000000 2.942310 0.000000 
#    z 0.000000 0.000000 2.868450 
# 
# 
# High freq. dielectric constant tensor:
#      x y z
#    x 1.569620 0.000000 0.000000 
#    y 0.000000 1.569620 0.000000 
#    z 0.000000 0.000000 1.589980 
# 
# From -- ./inp_files/1801.got.cif
#   From: 2010.03.12/outbox.cif.g09.slc.cpg/sg191_1_cif.got.tgz:1801.got - 2010.04.01 12:09:02.
