data_PCOD8328494
_publ_section_title
;
Structure prediction by ZEFSAII (Michael W. Deem and Ramdas Pophale) SiO2 
 PCOD8328494
Probable space group: P 6/M M M
;
_chemical_formula_sum "Si O2"
_cell_formula_units_Z 192
_cell_length_a 22.915446
_cell_length_b 22.915446
_cell_length_c 23.512847
_cell_angle_alpha 90.000000
_cell_angle_beta 90.000000
_cell_angle_gamma 120.000000
_cell_volume 10692.825467
_symmetry_space_group_name_H-M "P 6/M M M"
_symmetry_group_IT_number 191
_symmetry_cell_setting 'hexagonal'
loop_
_space_group_symop_operation_xyz
x,y,z
x-y,x,z
-y,x-y,z
-x,-y,z
-x+y,-x,z
y,-x+y,z
x-y,-y,-z
-x,-x+y,-z
y,x,-z
-y,-x,-z
-x+y,y,-z
x,x-y,-z
-x,-y,-z
-x+y,-x,-z
y,-x+y,-z
x,y,-z
x-y,x,-z
-y,x-y,-z
-x+y,y,z
x,x-y,z
-y,-x,z
y,x,z
x-y,-y,z
-x,-x+y,z
loop_
_atom_site_type_symbol
_atom_site_label
_atom_site_fract_x
_atom_site_fract_y
_atom_site_fract_z
Si Si1 0.279402 0.206266 0.640092
Si Si2 0.336070 0.533625 0.631033
Si Si3 0.922374 0.327675 0.066387
Si Si4 0.718534 0.926683 0.119235
Si Si5 0.689598 0.175420 0.248866
Si Si6 0.801875 0.334673 0.874917
Si Si7 0.595932 0.728833 0.436497
Si Si8 0.763393 0.103020 0.237273
O O1 0.258874 0.129437 0.627202
O O2 0.215309 0.215309 0.626374
O O3 0.340792 0.258836 0.601268
O O4 0.298036 0.225199 0.705599
O O5 0.270976 0.541951 0.627582
O O6 0.398796 0.601205 0.606703
O O7 0.353830 0.522863 0.695547
O O8 0.328289 0.472101 0.592550
O O9 0.904442 0.251718 0.080692
O O10 0.870248 0.343712 0.098309
O O11 0.000000 0.380667 0.084278
O O12 0.912231 0.332911 0.000000
O O13 0.741473 0.870737 0.114099
O O14 0.702150 0.939698 0.183316
O O15 0.779715 0.000000 0.098989
O O16 0.763656 0.236345 0.262411
O O17 0.658488 0.189426 0.193097
O O18 0.695232 0.107815 0.241026
O O19 0.790387 0.395194 0.896326
O O20 0.737218 0.262783 0.892185
O O21 0.602596 0.705951 0.500000
O O22 0.593564 0.796782 0.438640
O O23 0.822418 0.177583 0.224915
#
# Coordination Sequence:
#
# PCOD8328494 Si02
#       8
#    24  24  24  24  24  24  24  24
#     4  10  19  32  53  79 105 131 163 205 251 300
#     4  10  18  29  47  72 102 134 170 212 258 305
#     4  10  22  39  58  78 100 132 175 223 270 309
#     4  10  19  32  53  80 108 135 167 208 254 303
#     4   9  16  29  49  73 102 133 167 208 255 302
#     4  11  22  36  55  79 108 140 174 213 259 315
#     4   9  18  32  48  68  96 130 169 211 252 293
#     4   9  15  28  50  76 101 129 165 207 252 294
#
# _framework density 17.955964999999999
#
# number of rings (size 3 to 8) (size 9 to 14) (size 15 to 20)
#    0.000    2.250    2.500    1.375    0.000    2.000 
#    0.000    1.875    0.000    2.125    0.000    0.875 
#    0.000    3.000    0.000    6.250    0.000    0.000 
#
# Total GULP energy -2379613.371807 kJ/mol
# GULP energy per Si atom -12393.819645 kJ/mol
# Density = 1.791510 g / cm^3
# Si number density = 17.955965 Si / 1000 Ang^3
#
#
#
# Elastic Constant Matrix: (Units=GPa)
#
#
# Indices 1 2 3 4 5 6 
#
# 1 91.7281 50.2933 14.8531 0.0000 0.0000 0.0000
# 2 50.2933 91.7281 14.8531 0.0000 0.0000 0.0000
# 3 14.8531 14.8531 62.2990 0.0000 0.0000 0.0000
# 4 0.0000 0.0000 0.0000 11.7036 0.0000 0.0000
# 5 0.0000 0.0000 0.0000 0.0000 11.7036 0.0000
# 6 0.0000 0.0000 0.0000 0.0000 0.0000 20.7174
#
#
#
# Elastic Compliance Matrix: (Units=1/GPa)
#
#
# Indices 1 2 3 4 5 6 
#
# 1 0.015773 -0.008362 -0.001767 0.000000 0.000000 0.000000
# 2 -0.008362 0.015773 -0.001767 0.000000 0.000000 0.000000
# 3 -0.001767 -0.001767 0.016894 0.000000 0.000000 0.000000
# 4 0.000000 0.000000 0.000000 0.085444 0.000000 0.000000
# 5 0.000000 0.000000 0.000000 0.000000 0.085444 0.000000
# 6 0.000000 0.000000 0.000000 0.000000 0.000000 0.048269
#
#
# Mechanical properties :
#
#
# Convention : Reuss Voigt Hill
#
# Bulk Modulus (GPa) = 40.57083 45.08379 42.82731
# Shear Modulus (GPa) = 16.68877 19.87530 18.28203
#
# Velocity S-wave (km/s) = 3.05196 3.33061 3.19432
# Velocity P-wave (km/s) = 5.92140 6.32084 6.12438
#
# Compressibility (1/GPa) = 0.02464825
#
# Stress axis : x y z
#
# Youngs Moduli (GPa) = 63.40141 63.40141 59.19220
#
# Poissons Ratio (x) = 0.53015 0.10458
# Poissons Ratio (y) = 0.53015 0.10458
# Poissons Ratio (z) = 0.11202 0.11202
#
# Static dielectric constant tensor:
#      x y z
#    x 3.133460 0.000000 0.000000 
#    y 0.000000 3.133460 0.000000 
#    z 0.000000 0.000000 3.471050 
# 
# 
# High freq. dielectric constant tensor:
#      x y z
#    x 1.673890 0.000000 0.000000 
#    y 0.000000 1.673890 0.000000 
#    z 0.000000 0.000000 1.699260 
# 
# From -- ./inp_files/8091.got.cif
#   From: 2010.03.12/outbox.cif.g09.slc.cpg/sg191_5_cif.got.tgz:8091.got - 2010.04.01 12:09:02.
