data_PCOD8328146
_publ_section_title
;
Structure prediction by ZEFSAII (Michael W. Deem and Ramdas Pophale) SiO2 
 PCOD8328146
Probable space group: P -6 2 C
;
_chemical_formula_sum "Si O2"
_cell_formula_units_Z 66
_cell_length_a 20.086692
_cell_length_b 20.086692
_cell_length_c 9.783194
_cell_angle_alpha 90.000000
_cell_angle_beta 90.000000
_cell_angle_gamma 120.000000
_cell_volume 3418.441389
_symmetry_space_group_name_H-M "P -6 2 C"
_symmetry_group_IT_number 190
_symmetry_cell_setting 'hexagonal'
loop_
_space_group_symop_operation_xyz
x,y,z
-x+y,-x,1/2-z
-y,x-y,z
x,y,1/2-z
-x+y,-x,z
-y,x-y,1/2-z
x-y,-y,-z
-x,-x+y,-z
y,x,-z
y,x,1/2+z
x-y,-y,1/2+z
-x,-x+y,1/2+z
loop_
_atom_site_type_symbol
_atom_site_label
_atom_site_fract_x
_atom_site_fract_y
_atom_site_fract_z
Si Si1 0.231544 0.925341 0.909740
Si Si2 0.726970 0.932421 0.905583
Si Si3 0.133696 0.690461 0.907225
Si Si4 0.067642 0.522209 0.903642
Si Si5 0.321583 0.746820 0.250000
Si Si6 0.183796 0.476684 0.515933
O O1 0.260465 0.941060 0.750000
O O2 0.139180 0.880599 0.910134
O O3 0.261550 0.875728 0.990744
O O4 0.257869 0.000000 0.000000
O O5 0.734618 0.962034 0.750000
O O6 0.642339 0.905380 0.969464
O O7 0.789713 0.000000 0.000000
O O8 0.113468 0.678917 0.750000
O O9 0.095815 0.605721 0.972323
O O10 0.226297 0.736752 0.920519
O O11 0.035385 0.514369 0.750000
O O12 0.141779 0.511587 0.894205
O O13 0.000000 0.458906 0.000000
O O14 0.403116 0.746725 0.250000
O O15 0.315673 0.794820 0.126294
#
# Coordination Sequence:
#
# PCOD8328146 Si02
#       6
#    12  12  12  12   6  12
#     4  10  22  38  61  91 129 161 206 259 313 378
#     4   9  18  35  57  84 116 154 192 244 296 359
#     4   9  19  37  56  80 111 148 198 249 297 359
#     4  11  23  37  59  84 114 153 194 246 307 368
#     4  10  24  40  56  84 120 154 206 270 316 364
#     4  11  21  38  59  79 114 158 200 248 313 364
#
# _framework density 19.307044000000001
#
# number of rings (size 3 to 8) (size 9 to 14) (size 15 to 20)
#    0.182    1.818    0.000    4.909    2.545    0.727 
#    7.636    0.000    0.000    0.364    0.000    0.000 
#    0.000    0.000    0.000    0.000    0.000    0.000 
#
# Total GULP energy -817818.182602 kJ/mol
# GULP energy per Si atom -12391.184585 kJ/mol
# Density = 1.926310 g / cm^3
# Si number density = 19.307044 Si / 1000 Ang^3
#
#
#
# Elastic Constant Matrix: (Units=GPa)
#
#
# Indices 1 2 3 4 5 6 
#
# 1 85.8183 32.7650 47.9401 0.0000 0.0000 0.0000
# 2 32.7650 85.8183 47.9401 0.0000 0.0000 0.0000
# 3 47.9401 47.9401 100.5678 0.0000 0.0000 0.0000
# 4 0.0000 0.0000 0.0000 27.0223 0.0000 0.0000
# 5 0.0000 0.0000 0.0000 0.0000 27.0223 0.0000
# 6 0.0000 0.0000 0.0000 0.0000 0.0000 26.5266
#
#
#
# Elastic Compliance Matrix: (Units=1/GPa)
#
#
# Indices 1 2 3 4 5 6 
#
# 1 0.016285 -0.002564 -0.006541 0.000000 0.000000 0.000000
# 2 -0.002564 0.016285 -0.006541 0.000000 0.000000 0.000000
# 3 -0.006541 -0.006541 0.016180 0.000000 0.000000 0.000000
# 4 0.000000 0.000000 0.000000 0.037006 0.000000 0.000000
# 5 0.000000 0.000000 0.000000 0.000000 0.037006 0.000000
# 6 0.000000 0.000000 0.000000 0.000000 0.000000 0.037698
#
#
# Mechanical properties :
#
#
# Convention : Reuss Voigt Hill
#
# Bulk Modulus (GPa) = 57.27760 58.83275 58.05518
# Shear Modulus (GPa) = 25.30722 25.68487 25.49604
#
# Velocity S-wave (km/s) = 3.62439 3.65133 3.63789
# Velocity P-wave (km/s) = 6.87358 6.95087 6.91233
#
# Compressibility (1/GPa) = 0.01745883
#
# Stress axis : x y z
#
# Youngs Moduli (GPa) = 61.40512 61.40512 61.80602
#
# Poissons Ratio (x) = 0.15742 0.40427
# Poissons Ratio (y) = 0.15742 0.40427
# Poissons Ratio (z) = 0.40165 0.40165
#
# Static dielectric constant tensor:
#      x y z
#    x 3.558000 0.000000 0.000000 
#    y 0.000000 3.558000 0.000000 
#    z 0.000000 0.000000 3.383060 
# 
# 
# High freq. dielectric constant tensor:
#      x y z
#    x 1.743950 0.000000 0.000000 
#    y 0.000000 1.743950 0.000000 
#    z 0.000000 0.000000 1.740330 
# 
# From -- ./inp_files/1071.got.cif
#   From: 2010.06.25/outbox.cif.g09.slc.cpg/sg190_1_cif.got.tgz:1071.got - 2010.06.28 13:08:06.
