data_PCOD8328694
_publ_section_title
;
Structure prediction by ZEFSAII (Michael W. Deem and Ramdas Pophale) SiO2 
 PCOD8328694
Probable space group: P 6/M M M
;
_chemical_formula_sum "Si O2"
_cell_formula_units_Z 120
_cell_length_a 18.295851
_cell_length_b 18.295851
_cell_length_c 25.786340
_cell_angle_alpha 90.000000
_cell_angle_beta 90.000000
_cell_angle_gamma 120.000000
_cell_volume 7475.247318
_symmetry_space_group_name_H-M "P 6/M M M"
_symmetry_group_IT_number 191
_symmetry_cell_setting 'hexagonal'
loop_
_space_group_symop_operation_xyz
x,y,z
x-y,x,z
-y,x-y,z
-x,-y,z
-x+y,-x,z
y,-x+y,z
x-y,-y,-z
-x,-x+y,-z
y,x,-z
-y,-x,-z
-x+y,y,-z
x,x-y,-z
-x,-y,-z
-x+y,-x,-z
y,-x+y,-z
x,y,-z
x-y,x,-z
-y,x-y,-z
-x+y,y,z
x,x-y,z
-y,-x,z
y,x,z
x-y,-y,z
-x,-x+y,z
loop_
_atom_site_type_symbol
_atom_site_label
_atom_site_fract_x
_atom_site_fract_y
_atom_site_fract_z
Si Si1 0.166892 0.668960 0.056013
Si Si2 0.902072 0.638363 0.351797
Si Si3 0.540034 0.632860 0.160624
Si Si4 0.468921 0.099949 0.557730
Si Si5 0.832472 0.331039 0.267911
O O1 0.152591 0.576296 0.057529
O O2 0.265979 0.734022 0.060713
O O3 0.121121 0.682739 0.105667
O O4 0.132337 0.681753 0.000000
O O5 0.837808 0.675616 0.346076
O O6 0.869978 0.577065 0.401839
O O7 0.895340 0.580906 0.302811
O O8 0.000000 0.714123 0.356403
O O9 0.453527 0.546474 0.154171
O O10 0.616067 0.616067 0.173695
O O11 0.531458 0.684627 0.208103
O O12 0.463491 0.131870 0.500000
O O13 0.567526 0.135051 0.572648
O O14 0.422336 0.000000 0.558588
O O15 0.851490 0.425745 0.277914
O O16 0.735512 0.264489 0.281834
#
# Coordination Sequence:
#
# PCOD8328694 Si02
#       5
#    24  24  24  24  24
#     4   9  16  25  37  52  70  93 123 162 208 254
#     4  10  20  32  47  67  90 117 149 186 226 266
#     4   9  17  27  38  53  74 102 135 168 201 240
#     4   8  14  26  45  68  92 117 145 176 211 254
#     4  10  19  30  45  65  89 115 142 173 211 257
#
# _framework density 16.052980999999999
#
# number of rings (size 3 to 8) (size 9 to 14) (size 15 to 20)
#    0.000    2.800    0.000    2.800    0.000    3.600 
#    0.000    4.000    0.000    0.600    0.000    0.000 
#    0.000    0.000    0.000    5.000    0.000    0.000 
#
# Total GULP energy -1486650.815752 kJ/mol
# GULP energy per Si atom -12388.756798 kJ/mol
# Density = 1.601644 g / cm^3
# Si number density = 16.052981 Si / 1000 Ang^3
#
#
#
# Elastic Constant Matrix: (Units=GPa)
#
#
# Indices 1 2 3 4 5 6 
#
# 1 54.8827 28.9434 26.6365 0.0000 0.0000 0.0000
# 2 28.9434 54.8827 26.6365 0.0000 0.0000 0.0000
# 3 26.6365 26.6365 103.7841 0.0000 0.0000 0.0000
# 4 0.0000 0.0000 0.0000 18.5468 0.0000 0.0000
# 5 0.0000 0.0000 0.0000 0.0000 18.5468 0.0000
# 6 0.0000 0.0000 0.0000 0.0000 0.0000 12.9697
#
#
#
# Elastic Compliance Matrix: (Units=1/GPa)
#
#
# Indices 1 2 3 4 5 6 
#
# 1 0.026403 -0.012148 -0.003658 0.000000 0.000000 0.000000
# 2 -0.012148 0.026403 -0.003658 0.000000 0.000000 0.000000
# 3 -0.003658 -0.003658 0.011513 0.000000 0.000000 0.000000
# 4 0.000000 0.000000 0.000000 0.053918 0.000000 0.000000
# 5 0.000000 0.000000 0.000000 0.000000 0.053918 0.000000
# 6 0.000000 0.000000 0.000000 0.000000 0.000000 0.077103
#
#
# Mechanical properties :
#
#
# Convention : Reuss Voigt Hill
#
# Bulk Modulus (GPa) = 39.38802 41.99803 40.69303
# Shear Modulus (GPa) = 16.85481 18.76819 17.81150
#
# Velocity S-wave (km/s) = 3.24381 3.42298 3.33460
# Velocity P-wave (km/s) = 6.21444 6.46849 6.34273
#
# Compressibility (1/GPa) = 0.02538843
#
# Stress axis : x y z
#
# Youngs Moduli (GPa) = 37.87453 37.87453 86.85614
#
# Poissons Ratio (x) = 0.46012 0.31776
# Poissons Ratio (y) = 0.46012 0.31776
# Poissons Ratio (z) = 0.13856 0.13856
#
# Static dielectric constant tensor:
#      x y z
#    x 2.758130 0.000000 0.000000 
#    y 0.000000 2.758130 0.000000 
#    z 0.000000 0.000000 3.590720 
# 
# 
# High freq. dielectric constant tensor:
#      x y z
#    x 1.576110 0.000000 0.000000 
#    y 0.000000 1.576110 0.000000 
#    z 0.000000 0.000000 1.644100 
# 
# From -- ./inp_files/10235.got.cif
#   From: 2010.03.12/outbox.cif.g09.slc.cpg/sg191_6_cif.got.tgz:10235.got - 2010.04.01 12:09:02.
