data_PCOD8328253
_publ_section_title
;
Structure prediction by ZEFSAII (Michael W. Deem and Ramdas Pophale) SiO2 
 PCOD8328253
Probable space group: P 6/M M M
;
_chemical_formula_sum "Si O2"
_cell_formula_units_Z 192
_cell_length_a 22.853102
_cell_length_b 22.853102
_cell_length_c 23.982216
_cell_angle_alpha 90.000000
_cell_angle_beta 90.000000
_cell_angle_gamma 120.000000
_cell_volume 10847.015430
_symmetry_space_group_name_H-M "P 6/M M M"
_symmetry_group_IT_number 191
_symmetry_cell_setting 'hexagonal'
loop_
_space_group_symop_operation_xyz
x,y,z
x-y,x,z
-y,x-y,z
-x,-y,z
-x+y,-x,z
y,-x+y,z
x-y,-y,-z
-x,-x+y,-z
y,x,-z
-y,-x,-z
-x+y,y,-z
x,x-y,-z
-x,-y,-z
-x+y,-x,-z
y,-x+y,-z
x,y,-z
x-y,x,-z
-y,x-y,-z
-x+y,y,z
x,x-y,z
-y,-x,z
y,x,z
x-y,-y,z
-x,-x+y,z
loop_
_atom_site_type_symbol
_atom_site_label
_atom_site_fract_x
_atom_site_fract_y
_atom_site_fract_z
Si Si1 0.405958 0.272223 0.062272
Si Si2 0.666124 0.465399 0.371381
Si Si3 0.716085 0.790997 0.638519
Si Si4 0.883351 0.633100 0.750000
Si Si5 0.133737 0.727777 0.562272
Si Si6 0.639547 0.489607 0.750002
Si Si7 0.716086 0.790998 0.861481
Si Si8 0.465399 0.666124 0.128616
O O1 0.411921 0.205961 0.060703
O O2 0.334728 0.253627 0.089566
O O3 0.467519 0.327221 0.099854
O O4 0.409610 0.300696 0.000000
O O5 0.726773 0.453545 0.389913
O O6 0.596905 0.403096 0.393653
O O7 0.672779 0.532481 0.400145
O O8 0.667099 0.470918 0.304641
O O9 0.740769 0.870384 0.632269
O O10 0.781434 0.781434 0.635307
O O11 0.678718 0.761969 0.696573
O O12 0.665272 0.746375 0.589564
O O13 0.802145 0.604290 0.750000
O O14 0.898980 0.571012 0.750002
O O15 0.916748 0.678721 0.803426
O O16 0.108915 0.699302 0.500000
O O17 0.205963 0.794038 0.560702
O O18 0.556302 0.443699 0.750002
O O19 0.667100 0.470917 0.804644
O O20 0.740769 0.870385 0.867734
O O21 0.781435 0.781435 0.864693
O O22 0.453544 0.726772 0.110083
O O23 0.403096 0.596905 0.106344
#
# Coordination Sequence:
#
# PCOD8328253 Si02
#       8
#    24  24  24  24  24  24  24  24
#     4   9  18  32  49  69  95 131 174 215 252 291
#     4  10  18  28  44  68  99 134 173 218 267 313
#     4  10  20  34  56  82 106 130 160 200 243 292
#     4  10  17  31  53  76 103 137 174 211 250 291
#     4   9  18  32  49  69  95 131 174 215 252 291
#     4  10  18  27  46  72 101 135 171 216 265 308
#     4  10  20  34  56  82 106 130 160 200 243 292
#     4  10  18  28  44  68  99 134 173 218 267 313
#
# _framework density 17.700721000000001
#
# number of rings (size 3 to 8) (size 9 to 14) (size 15 to 20)
#    0.000    2.250    2.500    1.750    0.000    1.000 
#    0.000    1.250    0.000    5.750    0.000    1.750 
#    0.000    3.000    0.000    6.250    0.000    0.000 
#
# Total GULP energy -2379745.544435 kJ/mol
# GULP energy per Si atom -12394.508044 kJ/mol
# Density = 1.766043 g / cm^3
# Si number density = 17.700721 Si / 1000 Ang^3
#
#
#
# Elastic Constant Matrix: (Units=GPa)
#
#
# Indices 1 2 3 4 5 6 
#
# 1 96.7345 60.1186 30.6191 0.0000 0.0000 0.0000
# 2 60.1186 96.7345 30.6191 0.0000 0.0000 0.0000
# 3 30.6191 30.6191 110.4549 0.0000 0.0000 0.0000
# 4 0.0000 0.0000 0.0000 0.0013 0.0000 0.0000
# 5 0.0000 0.0000 0.0000 0.0000 0.0013 0.0000
# 6 0.0000 0.0000 0.0000 0.0000 0.0000 18.3079
#
#
#
# Elastic Compliance Matrix: (Units=1/GPa)
#
#
# Indices 1 2 3 4 5 6 
#
# 1 0.017230 -0.010081 -0.001982 0.000000 0.000000 0.000000
# 2 -0.010081 0.017230 -0.001982 0.000000 0.000000 0.000000
# 3 -0.001982 -0.001982 0.010152 0.000000 0.000000 0.000000
# 4 0.000000 0.000000 0.000000750.632393 -0.004673 0.000000
# 5 0.000000 0.000000 0.000000 -0.004673750.637621 0.000000
# 6 0.000000 0.000000 0.000000 0.000000 0.000000 0.054621
#
#
# Mechanical properties :
#
#
# Convention : Reuss Voigt Hill
#
# Bulk Modulus (GPa) = 60.52076 60.73749 60.62913
# Shear Modulus (GPa) = 0.00333 15.83326 7.91829
#
# Velocity S-wave (km/s) = 0.04342 2.99406 2.11734
# Velocity P-wave (km/s) = 5.85388 6.80739 6.34856
#
# Compressibility (1/GPa) = 0.01652326
#
# Stress axis : x y z
#
# Youngs Moduli (GPa) = 58.03883 58.03883 98.50068
#
# Poissons Ratio (x) = 0.58507 0.19521
# Poissons Ratio (y) = 0.58507 0.19521
# Poissons Ratio (z) = 0.11502 0.11502
#
# Static dielectric constant tensor:
#      x y z
#    x 3.086760 0.000000 0.000000 
#    y 0.000000 3.086760 0.000000 
#    z 0.000000 0.000000 3.538750 
# 
# 
# High freq. dielectric constant tensor:
#      x y z
#    x 1.655020 0.000000 0.000000 
#    y 0.000000 1.655020 0.000000 
#    z 0.000000 0.000000 1.694500 
# 
# From -- ./inp_files/9306.got.cif
#   From: 2010.03.12/outbox.cif.g09.slc.cpg/sg191_5_cif.got.tgz:9306.got - 2010.04.01 12:09:02.
