data_PCOD8328523
_publ_section_title
;
Structure prediction by ZEFSAII (Michael W. Deem and Ramdas Pophale) SiO2 
 PCOD8328523
Probable space group: P 6/M M M
;
_chemical_formula_sum "Si O2"
_cell_formula_units_Z 84
_cell_length_a 18.490451
_cell_length_b 18.490451
_cell_length_c 16.748449
_cell_angle_alpha 90.000000
_cell_angle_beta 90.000000
_cell_angle_gamma 120.000000
_cell_volume 4959.069960
_symmetry_space_group_name_H-M "P 6/M M M"
_symmetry_group_IT_number 191
_symmetry_cell_setting 'hexagonal'
loop_
_space_group_symop_operation_xyz
x,y,z
x-y,x,z
-y,x-y,z
-x,-y,z
-x+y,-x,z
y,-x+y,z
x-y,-y,-z
-x,-x+y,-z
y,x,-z
-y,-x,-z
-x+y,y,-z
x,x-y,-z
-x,-y,-z
-x+y,-x,-z
y,-x+y,-z
x,y,-z
x-y,x,-z
-y,x-y,-z
-x+y,y,z
x,x-y,z
-y,-x,z
y,x,z
x-y,-y,z
-x,-x+y,z
loop_
_atom_site_type_symbol
_atom_site_label
_atom_site_fract_x
_atom_site_fract_y
_atom_site_fract_z
Si Si1 0.466007 0.095113 0.328684
Si Si2 0.667444 0.498330 0.163437
Si Si3 0.095906 0.904095 0.594991
Si Si4 0.808267 0.616533 0.594445
Si Si5 0.092520 0.632558 0.000000
O O1 0.562917 0.125833 0.350433
O O2 0.457919 0.100936 0.233005
O O3 0.434540 0.148108 0.376644
O O4 0.407924 0.000000 0.354516
O O5 0.750233 0.500465 0.192813
O O6 0.596903 0.403098 0.150245
O O7 0.684099 0.546903 0.079672
O O8 0.095749 0.904252 0.500000
O O9 0.143838 0.856163 0.626961
O O10 0.000000 0.856097 0.626655
O O11 0.809127 0.618253 0.500000
O O12 0.089413 0.544707 0.000000
O O13 0.000000 0.618641 0.000000
#
# Coordination Sequence:
#
# PCOD8328523 Si02
#       5
#    24  24  12  12  12
#     4  10  21  37  55  74 101 138 176 213 258 310
#     4  10  18  30  48  72 100 130 165 206 251 297
#     4   9  17  30  51  78 105 129 155 197 259 327
#     4  11  22  37  54  76 101 131 174 225 267 308
#     4   9  17  28  44  68  98 131 166 201 240 293
#
# _framework density 16.938659999999999
#
# number of rings (size 3 to 8) (size 9 to 14) (size 15 to 20)
#    0.000    2.143    1.429    2.571    0.000    6.286 
#    0.857    2.857    0.000    0.000    0.000    0.000 
#    0.000    0.000    0.000    0.000    0.000    0.000 
#
# Total GULP energy -1041392.708468 kJ/mol
# GULP energy per Si atom -12397.532244 kJ/mol
# Density = 1.690011 g / cm^3
# Si number density = 16.938660 Si / 1000 Ang^3
#
#
#
# Elastic Constant Matrix: (Units=GPa)
#
#
# Indices 1 2 3 4 5 6 
#
# 1 109.6012 60.2573 33.4953 0.0000 0.0000 0.0000
# 2 60.2573 109.6012 33.4953 0.0000 0.0000 0.0000
# 3 33.4953 33.4953 66.1381 0.0000 0.0000 0.0000
# 4 0.0000 0.0000 0.0000 19.7057 0.0000 0.0000
# 5 0.0000 0.0000 0.0000 0.0000 19.7057 0.0000
# 6 0.0000 0.0000 0.0000 0.0000 0.0000 24.6720
#
#
#
# Elastic Compliance Matrix: (Units=1/GPa)
#
#
# Indices 1 2 3 4 5 6 
#
# 1 0.013811 -0.006455 -0.003726 0.000000 0.000000 0.000000
# 2 -0.006455 0.013811 -0.003726 0.000000 0.000000 0.000000
# 3 -0.003726 -0.003726 0.018894 0.000000 0.000000 0.000000
# 4 0.000000 0.000000 0.000000 0.050747 0.000000 0.000000
# 5 0.000000 0.000000 0.000000 0.000000 0.050747 0.000000
# 6 0.000000 0.000000 0.000000 0.000000 0.000000 0.040532
#
#
# Mechanical properties :
#
#
# Convention : Reuss Voigt Hill
#
# Bulk Modulus (GPa) = 53.46453 59.98182 56.72318
# Shear Modulus (GPa) = 22.46297 23.35617 22.90957
#
# Velocity S-wave (km/s) = 3.64557 3.71734 3.68163
# Velocity P-wave (km/s) = 7.02512 7.34254 7.18558
#
# Compressibility (1/GPa) = 0.01870399
#
# Stress axis : x y z
#
# Youngs Moduli (GPa) = 72.40457 72.40457 52.92786
#
# Poissons Ratio (x) = 0.46735 0.19720
# Poissons Ratio (y) = 0.46735 0.19720
# Poissons Ratio (z) = 0.26976 0.26976
#
# Static dielectric constant tensor:
#      x y z
#    x 3.188840 0.000000 0.000000 
#    y 0.000000 3.188840 0.000000 
#    z 0.000000 0.000000 3.085010 
# 
# 
# High freq. dielectric constant tensor:
#      x y z
#    x 1.647160 0.000000 0.000000 
#    y 0.000000 1.647160 0.000000 
#    z 0.000000 0.000000 1.640330 
# 
# From -- ./inp_files/4023.got.cif
#   From: 2010.03.12/outbox.cif.g09.slc.cpg/sg191_3_cif.got.tgz:4023.got - 2010.04.01 12:09:02.
