data_PCOD8328707
_publ_section_title
;
Structure prediction by ZEFSAII (Michael W. Deem and Ramdas Pophale) SiO2 
 PCOD8328707
Probable space group: P 6/M M M
;
_chemical_formula_sum "Si O2"
_cell_formula_units_Z 84
_cell_length_a 17.994849
_cell_length_b 17.994849
_cell_length_c 17.873712
_cell_angle_alpha 90.000000
_cell_angle_beta 90.000000
_cell_angle_gamma 120.000000
_cell_volume 5012.354754
_symmetry_space_group_name_H-M "P 6/M M M"
_symmetry_group_IT_number 191
_symmetry_cell_setting 'hexagonal'
loop_
_space_group_symop_operation_xyz
x,y,z
x-y,x,z
-y,x-y,z
-x,-y,z
-x+y,-x,z
y,-x+y,z
x-y,-y,-z
-x,-x+y,-z
y,x,-z
-y,-x,-z
-x+y,y,-z
x,x-y,-z
-x,-y,-z
-x+y,-x,-z
y,-x+y,-z
x,y,-z
x-y,x,-z
-y,x-y,-z
-x+y,y,z
x,x-y,z
-y,-x,z
y,x,z
x-y,-y,z
-x,-x+y,z
loop_
_atom_site_type_symbol
_atom_site_label
_atom_site_fract_x
_atom_site_fract_y
_atom_site_fract_z
Si Si1 0.898340 0.531626 0.416944
Si Si2 0.835790 0.331070 0.158212
Si Si3 0.735665 0.098117 0.284161
Si Si4 0.635426 0.540319 0.000000
O O1 0.867318 0.540467 0.500000
O O2 0.861633 0.430817 0.398175
O O3 0.866937 0.575332 0.356323
O O4 0.000000 0.578606 0.414465
O O5 0.853527 0.426764 0.169863
O O6 0.736723 0.263278 0.176173
O O7 0.898090 0.317119 0.213195
O O8 0.855137 0.313650 0.073983
O O9 0.838167 0.161834 0.273504
O O10 0.714933 0.000000 0.293467
O O11 0.623013 0.623013 0.000000
O O12 0.544319 0.455682 0.000000
#
# Coordination Sequence:
#
# PCOD8328707 Si02
#       4
#    24  24  24  12
#     4   8  14  26  45  68  92 117 145 176 211 255
#     4  10  19  30  45  66  93 123 153 185 222 265
#     4  10  20  32  47  67  90 117 150 190 233 275
#     4   9  17  28  42  60  84 119 161 195 217 244
#
# _framework density 16.758590000000002
#
# number of rings (size 3 to 8) (size 9 to 14) (size 15 to 20)
#    0.000    2.714    0.000    3.286    0.000    3.429 
#    0.000    1.429    0.000    0.857    0.000    0.000 
#    0.000    0.000    0.000    7.143    0.000   29.714 
#
# Total GULP energy -1041162.663996 kJ/mol
# GULP energy per Si atom -12394.793619 kJ/mol
# Density = 1.672045 g / cm^3
# Si number density = 16.758590 Si / 1000 Ang^3
#
#
#
# Elastic Constant Matrix: (Units=GPa)
#
#
# Indices 1 2 3 4 5 6 
#
# 1 68.8863 37.7324 27.4318 0.0000 0.0000 0.0000
# 2 37.7324 68.8863 27.4318 0.0000 0.0000 0.0000
# 3 27.4318 27.4318 103.7052 0.0000 0.0000 0.0000
# 4 0.0000 0.0000 0.0000 17.7412 0.0000 0.0000
# 5 0.0000 0.0000 0.0000 0.0000 17.7412 0.0000
# 6 0.0000 0.0000 0.0000 0.0000 0.0000 15.5770
#
#
#
# Elastic Compliance Matrix: (Units=1/GPa)
#
#
# Indices 1 2 3 4 5 6 
#
# 1 0.021478 -0.010621 -0.002872 0.000000 0.000000 0.000000
# 2 -0.010621 0.021478 -0.002872 0.000000 0.000000 0.000000
# 3 -0.002872 -0.002872 0.011162 0.000000 0.000000 0.000000
# 4 0.000000 0.000000 0.000000 0.056366 0.000000 0.000000
# 5 0.000000 0.000000 0.000000 0.000000 0.056366 0.000000
# 6 0.000000 0.000000 0.000000 0.000000 0.000000 0.064197
#
#
# Mechanical properties :
#
#
# Convention : Reuss Voigt Hill
#
# Bulk Modulus (GPa) = 46.75387 47.40774 47.08080
# Shear Modulus (GPa) = 18.45659 20.13731 19.29695
#
# Velocity S-wave (km/s) = 3.32222 3.47019 3.39701
# Velocity P-wave (km/s) = 6.53262 6.66381 6.59854
#
# Compressibility (1/GPa) = 0.02138861
#
# Stress axis : x y z
#
# Youngs Moduli (GPa) = 46.55958 46.55958 89.58942
#
# Poissons Ratio (x) = 0.49450 0.25729
# Poissons Ratio (y) = 0.49450 0.25729
# Poissons Ratio (z) = 0.13371 0.13371
#
# Static dielectric constant tensor:
#      x y z
#    x 2.859570 0.000000 0.000000 
#    y 0.000000 2.859570 0.000000 
#    z 0.000000 0.000000 3.535420 
# 
# 
# High freq. dielectric constant tensor:
#      x y z
#    x 1.614560 0.000000 0.000000 
#    y 0.000000 1.614560 0.000000 
#    z 0.000000 0.000000 1.666250 
# 
# From -- ./inp_files/3978.got.cif
#   From: 2010.03.12/outbox.cif.g09.slc.cpg/sg191_2_cif.got.tgz:3978.got - 2010.04.01 12:09:02.
