data_PCOD8328263
_publ_section_title
;
Structure prediction by ZEFSAII (Michael W. Deem and Ramdas Pophale) SiO2 
 PCOD8328263
Probable space group: P 6/M M M
;
_chemical_formula_sum "Si O2"
_cell_formula_units_Z 168
_cell_length_a 26.177974
_cell_length_b 26.177974
_cell_length_c 19.099271
_cell_angle_alpha 90.000000
_cell_angle_beta 90.000000
_cell_angle_gamma 120.000000
_cell_volume 11334.946816
_symmetry_space_group_name_H-M "P 6/M M M"
_symmetry_group_IT_number 191
_symmetry_cell_setting 'hexagonal'
loop_
_space_group_symop_operation_xyz
x,y,z
x-y,x,z
-y,x-y,z
-x,-y,z
-x+y,-x,z
y,-x+y,z
x-y,-y,-z
-x,-x+y,-z
y,x,-z
-y,-x,-z
-x+y,y,-z
x,x-y,-z
-x,-y,-z
-x+y,-x,-z
y,-x+y,-z
x,y,-z
x-y,x,-z
-y,x-y,-z
-x+y,y,z
x,x-y,z
-y,-x,z
y,x,z
x-y,-y,z
-x,-x+y,z
loop_
_atom_site_type_symbol
_atom_site_label
_atom_site_fract_x
_atom_site_fract_y
_atom_site_fract_z
Si Si1 0.155847 0.722638 0.793634
Si Si2 0.548191 0.333546 0.285363
Si Si3 0.180708 0.478008 0.421165
Si Si4 0.896534 0.676143 0.294520
Si Si5 0.065060 0.358561 0.578135
Si Si6 0.182249 0.934347 0.161944
Si Si7 0.363917 0.242358 0.077321
O O1 0.214784 0.785217 0.792573
O O2 0.169619 0.672289 0.767958
O O3 0.110464 0.727197 0.740762
O O4 0.127758 0.710937 0.872038
O O5 0.561860 0.280930 0.273121
O O6 0.605675 0.394326 0.267045
O O7 0.529767 0.334326 0.365904
O O8 0.185346 0.502790 0.500000
O O9 0.227477 0.454954 0.410861
O O10 0.115186 0.425263 0.405356
O O11 0.833518 0.667036 0.314679
O O12 0.932252 0.686645 0.366575
O O13 0.930379 0.730783 0.241914
O O14 0.075234 0.341332 0.500000
O O15 0.000000 0.351677 0.583350
O O16 0.113614 0.886387 0.148049
O O17 0.224580 0.923984 0.109927
O O18 0.193096 0.000000 0.148651
O O19 0.368680 0.184340 0.071764
O O20 0.370399 0.270455 0.000000
#
# Coordination Sequence:
#
# PCOD8328263 Si02
#       7
#    24  24  24  24  24  24  24
#     4   8  14  25  41  60  81 105 132 163 202 249
#     4  10  18  28  43  63  85 108 137 174 212 250
#     4   9  17  29  43  57  76 106 142 177 216 260
#     4   9  15  26  42  59  80 108 142 174 209 253
#     4  10  18  25  37  59  83 106 136 174 212 252
#     4   9  17  27  41  62  89 118 144 175 215 255
#     4   8  14  25  42  63  84 105 132 167 203 240
#
# _framework density 14.821419000000001
#
# number of rings (size 3 to 8) (size 9 to 14) (size 15 to 20)
#    0.000    3.000    1.429    2.714    0.000    1.429 
#    0.000    0.000    0.000    1.857    0.000    2.000 
#    0.000    1.143    0.000    7.286    0.000    0.571 
#
# Total GULP energy -2081637.725866 kJ/mol
# GULP energy per Si atom -12390.700749 kJ/mol
# Density = 1.478769 g / cm^3
# Si number density = 14.821419 Si / 1000 Ang^3
#
#
#
# Elastic Constant Matrix: (Units=GPa)
#
#
# Indices 1 2 3 4 5 6 
#
# 1 67.2153 35.5737 30.0915 0.0000 0.0000 0.0000
# 2 35.5737 67.2153 30.0915 0.0000 0.0000 0.0000
# 3 30.0915 30.0915 94.4419 0.0000 0.0000 0.0000
# 4 0.0000 0.0000 0.0000 12.4102 0.0000 0.0000
# 5 0.0000 0.0000 0.0000 0.0000 12.4102 0.0000
# 6 0.0000 0.0000 0.0000 0.0000 0.0000 15.8208
#
#
#
# Elastic Compliance Matrix: (Units=1/GPa)
#
#
# Indices 1 2 3 4 5 6 
#
# 1 0.021782 -0.009822 -0.003811 0.000000 0.000000 0.000000
# 2 -0.009822 0.021782 -0.003811 0.000000 0.000000 0.000000
# 3 -0.003811 -0.003811 0.013017 0.000000 0.000000 0.000000
# 4 0.000000 0.000000 0.000000 0.080579 0.000000 0.000000
# 5 0.000000 0.000000 0.000000 0.000000 0.080579 0.000000
# 6 0.000000 0.000000 0.000000 0.000000 0.000000 0.063208
#
#
# Mechanical properties :
#
#
# Convention : Reuss Voigt Hill
#
# Bulk Modulus (GPa) = 46.09621 46.70956 46.40289
# Shear Modulus (GPa) = 15.47676 17.00261 16.23969
#
# Velocity S-wave (km/s) = 3.23494 3.39066 3.31371
# Velocity P-wave (km/s) = 6.71727 6.84924 6.78357
#
# Compressibility (1/GPa) = 0.02169376
#
# Stress axis : x y z
#
# Youngs Moduli (GPa) = 45.90966 45.90966 76.82323
#
# Poissons Ratio (x) = 0.45093 0.29275
# Poissons Ratio (y) = 0.45093 0.29275
# Poissons Ratio (z) = 0.17495 0.17495
#
# Static dielectric constant tensor:
#      x y z
#    x 2.625420 0.000000 0.000000 
#    y 0.000000 2.625420 0.000000 
#    z 0.000000 0.000000 3.299470 
# 
# 
# High freq. dielectric constant tensor:
#      x y z
#    x 1.532990 0.000000 0.000000 
#    y 0.000000 1.532990 0.000000 
#    z 0.000000 0.000000 1.578530 
# 
# From -- ./inp_files/7998.got.cif
#   From: 2010.03.12/outbox.cif.g09.slc.cpg/sg191_4_cif.got.tgz:7998.got - 2010.04.01 12:09:02.
