data_PCOD8328446
_publ_section_title
;
Structure prediction by ZEFSAII (Michael W. Deem and Ramdas Pophale) SiO2 
 PCOD8328446
Probable space group: P 6/M M M
;
_chemical_formula_sum "Si O2"
_cell_formula_units_Z 120
_cell_length_a 17.672032
_cell_length_b 17.672032
_cell_length_c 29.220071
_cell_angle_alpha 90.000000
_cell_angle_beta 90.000000
_cell_angle_gamma 120.000000
_cell_volume 7902.870712
_symmetry_space_group_name_H-M "P 6/M M M"
_symmetry_group_IT_number 191
_symmetry_cell_setting 'hexagonal'
loop_
_space_group_symop_operation_xyz
x,y,z
x-y,x,z
-y,x-y,z
-x,-y,z
-x+y,-x,z
y,-x+y,z
x-y,-y,-z
-x,-x+y,-z
y,x,-z
-y,-x,-z
-x+y,y,-z
x,x-y,-z
-x,-y,-z
-x+y,-x,-z
y,-x+y,-z
x,y,-z
x-y,x,-z
-y,x-y,-z
-x+y,y,z
x,x-y,z
-y,-x,z
y,x,z
x-y,-y,z
-x,-x+y,z
loop_
_atom_site_type_symbol
_atom_site_label
_atom_site_fract_x
_atom_site_fract_y
_atom_site_fract_z
Si Si1 0.512119 0.667793 0.615687
Si Si2 0.330092 0.491160 0.889760
Si Si3 0.410336 0.410336 0.448883
Si Si4 0.898011 0.364526 0.209015
Si Si5 0.000000 0.590197 0.051579
Si Si6 0.100636 0.730198 0.297578
O O1 0.502804 0.751402 0.604074
O O2 0.416724 0.583277 0.617176
O O3 0.573285 0.660630 0.576988
O O4 0.558072 0.675824 0.664052
O O5 0.249839 0.499677 0.908369
O O6 0.416473 0.583528 0.893957
O O7 0.312661 0.460200 0.837087
O O8 0.336428 0.420775 0.921782
O O9 0.500000 0.500000 0.450745
O O10 0.375677 0.375677 0.500000
O O11 0.864891 0.432446 0.222033
O O12 0.875278 0.296246 0.249640
O O13 0.000000 0.418160 0.198924
O O14 0.000000 0.500000 0.051749
O O15 0.000000 0.622069 0.000000
O O16 0.165465 0.834536 0.304544
O O17 0.000000 0.707793 0.299283
#
# Coordination Sequence:
#
# PCOD8328446 Si02
#       6
#    24  24  12  24  12  24
#     4  10  19  31  47  68  93 122 155 190 227 269
#     4  10  18  29  44  64  87 114 148 184 219 258
#     4   9  18  32  47  63  87 119 153 190 232 272
#     4   9  16  27  44  65  90 120 149 175 210 260
#     4   9  18  32  45  57  79 111 145 182 226 268
#     4  10  19  30  46  68  93 121 151 184 222 267
#
# _framework density 15.184355999999999
#
# number of rings (size 3 to 8) (size 9 to 14) (size 15 to 20)
#    0.000    2.400    2.000    1.600    0.000    1.600 
#    0.000    0.000    0.000    9.000    0.000    0.000 
#    0.000    0.000    0.000    0.300    0.000   10.400 
#
# Total GULP energy -1487745.152170 kJ/mol
# GULP energy per Si atom -12397.876268 kJ/mol
# Density = 1.514980 g / cm^3
# Si number density = 15.184356 Si / 1000 Ang^3
#
#
#
# Elastic Constant Matrix: (Units=GPa)
#
#
# Indices 1 2 3 4 5 6 
#
# 1 81.2325 39.3050 49.8308 0.0000 0.0000 0.0000
# 2 39.3050 81.2325 49.8308 0.0000 0.0000 0.0000
# 3 49.8308 49.8308 103.4127 0.0000 0.0000 0.0000
# 4 0.0000 0.0000 0.0000 10.8854 0.0000 0.0000
# 5 0.0000 0.0000 0.0000 0.0000 10.8854 0.0000
# 6 0.0000 0.0000 0.0000 0.0000 0.0000 20.9637
#
#
#
# Elastic Compliance Matrix: (Units=1/GPa)
#
#
# Indices 1 2 3 4 5 6 
#
# 1 0.018821 -0.005030 -0.006645 0.000000 0.000000 0.000000
# 2 -0.005030 0.018821 -0.006645 0.000000 0.000000 0.000000
# 3 -0.006645 -0.006645 0.016074 0.000000 0.000000 0.000000
# 4 0.000000 0.000000 0.000000 0.091866 0.000000 0.000000
# 5 0.000000 0.000000 0.000000 0.000000 0.091866 0.000000
# 6 0.000000 0.000000 0.000000 0.000000 0.000000 0.047701
#
#
# Mechanical properties :
#
#
# Convention : Reuss Voigt Hill
#
# Bulk Modulus (GPa) = 58.56691 60.42342 59.49516
# Shear Modulus (GPa) = 15.26806 17.00764 16.13785
#
# Velocity S-wave (km/s) = 3.17442 3.35038 3.26359
# Velocity P-wave (km/s) = 7.21736 7.40583 7.31220
#
# Compressibility (1/GPa) = 0.01707449
#
# Stress axis : x y z
#
# Youngs Moduli (GPa) = 53.13336 53.13336 62.21214
#
# Poissons Ratio (x) = 0.26727 0.41340
# Poissons Ratio (y) = 0.26727 0.41340
# Poissons Ratio (z) = 0.35308 0.35308
#
# Static dielectric constant tensor:
#      x y z
#    x 2.780800 0.000000 0.000000 
#    y 0.000000 2.780800 0.000000 
#    z 0.000000 0.000000 3.097960 
# 
# 
# High freq. dielectric constant tensor:
#      x y z
#    x 1.561450 0.000000 0.000000 
#    y 0.000000 1.561450 0.000000 
#    z 0.000000 0.000000 1.592080 
# 
# From -- ./inp_files/9627.got.cif
#   From: 2010.03.12/outbox.cif.g09.slc.cpg/sg191_5_cif.got.tgz:9627.got - 2010.04.01 12:09:02.
