data_PCOD8328818
_publ_section_title
;
Structure prediction by ZEFSAII (Michael W. Deem and Ramdas Pophale) SiO2 
 PCOD8328818
Probable space group: P 6/M M M
;
_chemical_formula_sum "Si O2"
_cell_formula_units_Z 108
_cell_length_a 24.073764
_cell_length_b 24.073764
_cell_length_c 12.711518
_cell_angle_alpha 90.000000
_cell_angle_beta 90.000000
_cell_angle_gamma 120.000000
_cell_volume 6379.931943
_symmetry_space_group_name_H-M "P 6/M M M"
_symmetry_group_IT_number 191
_symmetry_cell_setting 'hexagonal'
loop_
_space_group_symop_operation_xyz
x,y,z
x-y,x,z
-y,x-y,z
-x,-y,z
-x+y,-x,z
y,-x+y,z
x-y,-y,-z
-x,-x+y,-z
y,x,-z
-y,-x,-z
-x+y,y,-z
x,x-y,-z
-x,-y,-z
-x+y,-x,-z
y,-x+y,-z
x,y,-z
x-y,x,-z
-y,x-y,-z
-x+y,y,z
x,x-y,z
-y,-x,z
y,x,z
x-y,-y,z
-x,-x+y,z
loop_
_atom_site_type_symbol
_atom_site_label
_atom_site_fract_x
_atom_site_fract_y
_atom_site_fract_z
Si Si1 0.924011 0.203881 0.500000
Si Si2 0.369633 0.296404 0.330065
Si Si3 0.209794 0.542872 0.166716
Si Si4 0.597464 0.863934 0.883958
Si Si5 0.359987 0.516696 0.615870
O O1 0.873873 0.126128 0.500000
O O2 0.907596 0.232852 0.602184
O O3 0.000000 0.222641 0.500000
O O4 0.346284 0.346284 0.347507
O O5 0.362391 0.276364 0.207235
O O6 0.442180 0.335320 0.369114
O O7 0.278732 0.557464 0.125160
O O8 0.197041 0.598521 0.126038
O O9 0.153519 0.476569 0.119504
O O10 0.210474 0.538886 0.294025
O O11 0.600242 0.800121 0.861151
O O12 0.625477 0.892484 0.000000
O O13 0.337877 0.526238 0.500000
O O14 0.438105 0.561895 0.625262
#
# Coordination Sequence:
#
# PCOD8328818 Si02
#       5
#    12  24  24  24  24
#     4  10  20  34  53  78 105 129 155 189 229 275
#     4  10  19  31  48  72  95 120 157 192 229 271
#     4   9  17  28  42  60  81 109 148 195 244 290
#     4   9  18  32  47  63  86 118 152 185 228 278
#     4   9  17  29  42  60  89 122 155 191 237 288
#
# _framework density 16.928080000000001
#
# number of rings (size 3 to 8) (size 9 to 14) (size 15 to 20)
#    0.000    2.667    1.111    0.889    0.000    2.667 
#    0.000    1.111    0.000    2.778    0.000    6.222 
#    0.000    0.000    0.000    0.000    0.000    0.000 
#
# Total GULP energy -1338048.703316 kJ/mol
# GULP energy per Si atom -12389.339846 kJ/mol
# Density = 1.688955 g / cm^3
# Si number density = 16.928080 Si / 1000 Ang^3
#
#
#
# Elastic Constant Matrix: (Units=GPa)
#
#
# Indices 1 2 3 4 5 6 
#
# 1 57.7609 27.4254 10.4747 0.0000 0.0000 0.0000
# 2 27.4254 57.7609 10.4747 0.0000 0.0000 0.0000
# 3 10.4747 10.4747 97.2779 0.0000 0.0000 0.0000
# 4 0.0000 0.0000 0.0000 15.9283 0.0000 0.0000
# 5 0.0000 0.0000 0.0000 0.0000 15.9283 0.0000
# 6 0.0000 0.0000 0.0000 0.0000 0.0000 15.1678
#
#
#
# Elastic Compliance Matrix: (Units=1/GPa)
#
#
# Indices 1 2 3 4 5 6 
#
# 1 0.022511 -0.010453 -0.001298 0.000000 0.000000 0.000000
# 2 -0.010453 0.022511 -0.001298 0.000000 0.000000 0.000000
# 3 -0.001298 -0.001298 0.010559 0.000000 0.000000 0.000000
# 4 0.000000 0.000000 0.000000 0.062782 0.000000 0.000000
# 5 0.000000 0.000000 0.000000 0.000000 0.062782 0.000000
# 6 0.000000 0.000000 0.000000 0.000000 0.000000 0.065929
#
#
# Mechanical properties :
#
#
# Convention : Reuss Voigt Hill
#
# Bulk Modulus (GPa) = 33.91859 34.39439 34.15649
# Shear Modulus (GPa) = 17.66770 20.36650 19.01710
#
# Velocity S-wave (km/s) = 3.23413 3.47236 3.35536
# Velocity P-wave (km/s) = 5.83322 6.03643 5.93570
#
# Compressibility (1/GPa) = 0.02948236
#
# Stress axis : x y z
#
# Youngs Moduli (GPa) = 44.42177 44.42177 94.70188
#
# Poissons Ratio (x) = 0.46435 0.12296
# Poissons Ratio (y) = 0.46435 0.12296
# Poissons Ratio (z) = 0.05768 0.05768
#
# Static dielectric constant tensor:
#      x y z
#    x 2.917680 0.000000 0.000000 
#    y 0.000000 2.917680 0.000000 
#    z 0.000000 0.000000 3.456880 
# 
# 
# High freq. dielectric constant tensor:
#      x y z
#    x 1.619820 0.000000 0.000000 
#    y 0.000000 1.619820 0.000000 
#    z 0.000000 0.000000 1.673070 
# 
# From -- ./inp_files/2931.got.cif
#   From: 2010.03.12/outbox.cif.g09.slc.cpg/sg191_2_cif.got.tgz:2931.got - 2010.04.01 12:09:02.
