data_PCOD8328575
_publ_section_title
;
Structure prediction by ZEFSAII (Michael W. Deem and Ramdas Pophale) SiO2 
 PCOD8328575
Probable space group: P 6/M M M
;
_chemical_formula_sum "Si O2"
_cell_formula_units_Z 144
_cell_length_a 21.674206
_cell_length_b 21.674206
_cell_length_c 23.780649
_cell_angle_alpha 90.000000
_cell_angle_beta 90.000000
_cell_angle_gamma 120.000000
_cell_volume 9674.771755
_symmetry_space_group_name_H-M "P 6/M M M"
_symmetry_group_IT_number 191
_symmetry_cell_setting 'hexagonal'
loop_
_space_group_symop_operation_xyz
x,y,z
x-y,x,z
-y,x-y,z
-x,-y,z
-x+y,-x,z
y,-x+y,z
x-y,-y,-z
-x,-x+y,-z
y,x,-z
-y,-x,-z
-x+y,y,-z
x,x-y,-z
-x,-y,-z
-x+y,-x,-z
y,-x+y,-z
x,y,-z
x-y,x,-z
-y,x-y,-z
-x+y,y,z
x,x-y,z
-y,-x,z
y,x,z
x-y,-y,z
-x,-x+y,z
loop_
_atom_site_type_symbol
_atom_site_label
_atom_site_fract_x
_atom_site_fract_y
_atom_site_fract_z
Si Si1 0.524522 0.191492 0.935966
Si Si2 0.714403 0.569506 0.262220
Si Si3 0.700050 0.919271 0.658618
Si Si4 0.333683 0.523355 0.368291
Si Si5 0.081922 0.611842 0.158767
Si Si6 0.397276 0.316033 0.435762
O O1 0.606336 0.212671 0.928661
O O2 0.518531 0.259266 0.917513
O O3 0.473208 0.125745 0.896566
O O4 0.499073 0.168891 0.000000
O O5 0.780853 0.561705 0.241584
O O6 0.741707 0.646459 0.289918
O O7 0.667668 0.507850 0.306769
O O8 0.665943 0.562285 0.209939
O O9 0.731511 0.865755 0.661379
O O10 0.656927 0.904492 0.600485
O O11 0.765284 0.000000 0.662334
O O12 0.259650 0.519300 0.382144
O O13 0.395725 0.604276 0.370978
O O14 0.347041 0.477944 0.415196
O O15 0.096380 0.548190 0.175661
O O16 0.000000 0.582178 0.143817
O O17 0.389725 0.290786 0.500000
O O18 0.378934 0.378934 0.428291
#
# Coordination Sequence:
#
# PCOD8328575 Si02
#       6
#    24  24  24  24  24  24
#     4   9  17  29  44  60  78 103 137 173 204 234
#     4   9  17  30  46  61  79 105 139 174 202 231
#     4   9  17  29  46  66  86 108 133 164 201 239
#     4  10  20  32  45  61  83 110 137 167 205 249
#     4  10  19  28  40  60  85 109 131 161 204 251
#     4   9  18  32  48  64  81 103 135 174 209 239
#
# _framework density 14.884071
#
# number of rings (size 3 to 8) (size 9 to 14) (size 15 to 20)
#    0.000    2.667    0.000    3.333    0.000    3.667 
#    0.000    2.500    0.000    6.500    0.000    0.000 
#    0.000    0.000    0.000    4.167    0.000    0.000 
#
# Total GULP energy -1785695.729044 kJ/mol
# GULP energy per Si atom -12400.664785 kJ/mol
# Density = 1.485019 g / cm^3
# Si number density = 14.884071 Si / 1000 Ang^3
#
#
#
# Elastic Constant Matrix: (Units=GPa)
#
#
# Indices 1 2 3 4 5 6 
#
# 1 86.7912 45.5870 49.6498 0.0000 0.0000 0.0000
# 2 45.5870 86.7912 49.6498 0.0000 0.0000 0.0000
# 3 49.6498 49.6498 96.2745 0.0000 0.0000 0.0000
# 4 0.0000 0.0000 0.0000 20.0284 0.0000 0.0000
# 5 0.0000 0.0000 0.0000 0.0000 20.0284 0.0000
# 6 0.0000 0.0000 0.0000 0.0000 0.0000 20.6021
#
#
#
# Elastic Compliance Matrix: (Units=1/GPa)
#
#
# Indices 1 2 3 4 5 6 
#
# 1 0.018295 -0.005975 -0.006354 0.000000 0.000000 0.000000
# 2 -0.005975 0.018295 -0.006354 0.000000 0.000000 0.000000
# 3 -0.006354 -0.006354 0.016940 0.000000 0.000000 0.000000
# 4 0.000000 0.000000 0.000000 0.049929 0.000000 0.000000
# 5 0.000000 0.000000 0.000000 0.000000 0.049929 0.000000
# 6 0.000000 0.000000 0.000000 0.000000 0.000000 0.048539
#
#
# Mechanical properties :
#
#
# Convention : Reuss Voigt Hill
#
# Bulk Modulus (GPa) = 61.85830 62.18109 62.01970
# Shear Modulus (GPa) = 20.43492 20.46311 20.44902
#
# Velocity S-wave (km/s) = 3.70934 3.71190 3.71062
# Velocity P-wave (km/s) = 7.74570 7.76135 7.75353
#
# Compressibility (1/GPa) = 0.01616598
#
# Stress axis : x y z
#
# Youngs Moduli (GPa) = 54.66055 54.66055 59.03117
#
# Poissons Ratio (x) = 0.32658 0.37506
# Poissons Ratio (y) = 0.32658 0.37506
# Poissons Ratio (z) = 0.34729 0.34729
#
# Static dielectric constant tensor:
#      x y z
#    x 2.799230 0.000000 0.000000 
#    y 0.000000 2.799230 0.000000 
#    z 0.000000 0.000000 2.886370 
# 
# 
# High freq. dielectric constant tensor:
#      x y z
#    x 1.558500 0.000000 0.000000 
#    y 0.000000 1.558500 0.000000 
#    z 0.000000 0.000000 1.569090 
# 
# From -- ./inp_files/7610.got.cif
#   From: 2010.03.12/outbox.cif.g09.slc.cpg/sg191_4_cif.got.tgz:7610.got - 2010.04.01 12:09:02.
