data_PCOD8328885
_publ_section_title
;
Structure prediction by ZEFSAII (Michael W. Deem and Ramdas Pophale) SiO2 
 PCOD8328885
Probable space group: P 6/M M M
;
_chemical_formula_sum "Si O2"
_cell_formula_units_Z 168
_cell_length_a 30.870639
_cell_length_b 30.870639
_cell_length_c 11.576453
_cell_angle_alpha 90.000000
_cell_angle_beta 90.000000
_cell_angle_gamma 120.000000
_cell_volume 9554.267201
_symmetry_space_group_name_H-M "P 6/M M M"
_symmetry_group_IT_number 191
_symmetry_cell_setting 'hexagonal'
loop_
_space_group_symop_operation_xyz
x,y,z
x-y,x,z
-y,x-y,z
-x,-y,z
-x+y,-x,z
y,-x+y,z
x-y,-y,-z
-x,-x+y,-z
y,x,-z
-y,-x,-z
-x+y,y,-z
x,x-y,-z
-x,-y,-z
-x+y,-x,-z
y,-x+y,-z
x,y,-z
x-y,x,-z
-y,x-y,-z
-x+y,y,z
x,x-y,z
-y,-x,z
y,x,z
x-y,-y,z
-x,-x+y,z
loop_
_atom_site_type_symbol
_atom_site_label
_atom_site_fract_x
_atom_site_fract_y
_atom_site_fract_z
Si Si1 0.797558 0.101036 0.736234
Si Si2 0.251592 0.401062 0.131978
Si Si3 0.869476 0.342595 0.710522
Si Si4 0.415138 0.357284 0.500000
Si Si5 0.054109 0.476335 0.127305
Si Si6 0.687787 0.743358 0.500000
Si Si7 0.794001 0.945121 0.132272
Si Si8 0.431968 0.765352 0.363430
O O1 0.847660 0.152341 0.715915
O O2 0.762769 0.108330 0.828287
O O3 0.772584 0.084329 0.612853
O O4 0.808962 0.059946 0.789405
O O5 0.204878 0.409755 0.140341
O O6 0.291857 0.437845 0.222697
O O7 0.271649 0.409315 0.000000
O O8 0.909366 0.355161 0.609185
O O9 0.898161 0.388028 0.796877
O O10 0.818406 0.339325 0.669995
O O11 0.405421 0.405421 0.500000
O O12 0.361771 0.309063 0.500000
O O13 0.050595 0.525298 0.117683
O O14 0.000000 0.431865 0.175837
O O15 0.062390 0.460299 0.000000
O O16 0.735614 0.735614 0.500000
O O17 0.810949 0.905475 0.168725
O O18 0.841480 0.000000 0.151380
O O19 0.775518 0.936593 0.000000
O O20 0.429444 0.761836 0.500000
O O21 0.380854 0.761708 0.315156
O O22 0.436873 0.718437 0.314190
#
# Coordination Sequence:
#
# PCOD8328885 Si02
#       8
#    24  24  24  12  24  12  24  24
#     4  10  19  33  51  72  99 136 176 217 263 312
#     4  10  21  35  52  76 105 135 173 224 270 309
#     4  12  20  37  56  82 107 145 183 218 262 324
#     4  11  24  37  50  73 113 148 180 221 263 311
#     4   9  19  36  57  80 106 138 178 224 269 312
#     4  11  21  35  49  70 103 143 177 212 258 310
#     4   9  17  30  49  72  98 130 170 217 267 319
#     4  10  21  37  58  84 113 143 177 220 269 322
#
# _framework density 17.583766000000001
#
# number of rings (size 3 to 8) (size 9 to 14) (size 15 to 20)
#    0.000    1.857    2.143    3.357    0.000    2.286 
#    0.000    0.000    0.000    5.286    0.000    1.000 
#    0.000    6.857    0.000    0.000    0.000   14.857 
#
# Total GULP energy -2082033.027329 kJ/mol
# GULP energy per Si atom -12393.053734 kJ/mol
# Density = 1.754374 g / cm^3
# Si number density = 17.583766 Si / 1000 Ang^3
#
#
#
# Elastic Constant Matrix: (Units=GPa)
#
#
# Indices 1 2 3 4 5 6 
#
# 1 82.0092 63.7280 41.4198 0.0000 0.0000 0.0000
# 2 63.7280 82.0092 41.4198 0.0000 0.0000 0.0000
# 3 41.4198 41.4198 82.2178 0.0000 0.0000 0.0000
# 4 0.0000 0.0000 0.0000 25.7578 0.0000 0.0000
# 5 0.0000 0.0000 0.0000 0.0000 25.7578 0.0000
# 6 0.0000 0.0000 0.0000 0.0000 0.0000 9.1406
#
#
#
# Elastic Compliance Matrix: (Units=1/GPa)
#
#
# Indices 1 2 3 4 5 6 
#
# 1 0.032158 -0.022543 -0.004844 0.000000 0.000000 0.000000
# 2 -0.022543 0.032158 -0.004844 0.000000 0.000000 0.000000
# 3 -0.004844 -0.004844 0.017043 0.000000 0.000000 0.000000
# 4 0.000000 0.000000 0.000000 0.038823 0.000000 0.000000
# 5 0.000000 0.000000 0.000000 0.000000 0.038823 0.000000
# 6 0.000000 0.000000 0.000000 0.000000 0.000000 0.109402
#
#
# Mechanical properties :
#
#
# Convention : Reuss Voigt Hill
#
# Bulk Modulus (GPa) = 59.17901 59.93013 59.55457
# Shear Modulus (GPa) = 14.77101 18.77583 16.77342
#
# Velocity S-wave (km/s) = 2.90148 3.27126 3.09190
# Velocity P-wave (km/s) = 6.70473 6.95879 6.83294
#
# Compressibility (1/GPa) = 0.01689788
#
# Stress axis : x y z
#
# Youngs Moduli (GPa) = 31.09657 31.09657 58.67406
#
# Poissons Ratio (x) = 0.70101 0.28421
# Poissons Ratio (y) = 0.70101 0.28421
# Poissons Ratio (z) = 0.15063 0.15063
#
# Static dielectric constant tensor:
#      x y z
#    x 3.419590 0.000000 0.000000 
#    y 0.000000 3.419590 0.000000 
#    z 0.000000 0.000000 3.277600 
# 
# 
# High freq. dielectric constant tensor:
#      x y z
#    x 1.681860 0.000000 0.000000 
#    y 0.000000 1.681860 0.000000 
#    z 0.000000 0.000000 1.678150 
# 
# From -- ./inp_files/3658.got.cif
#   From: 2010.03.12/outbox.cif.g09.slc.cpg/sg191_2_cif.got.tgz:3658.got - 2010.04.01 12:09:02.
