data_PCOD8328621
_publ_section_title
;
Structure prediction by ZEFSAII (Michael W. Deem and Ramdas Pophale) SiO2 
 PCOD8328621
Probable space group: P 6/M M M
;
_chemical_formula_sum "Si O2"
_cell_formula_units_Z 120
_cell_length_a 18.021602
_cell_length_b 18.021602
_cell_length_c 25.588482
_cell_angle_alpha 90.000000
_cell_angle_beta 90.000000
_cell_angle_gamma 120.000000
_cell_volume 7197.173015
_symmetry_space_group_name_H-M "P 6/M M M"
_symmetry_group_IT_number 191
_symmetry_cell_setting 'hexagonal'
loop_
_space_group_symop_operation_xyz
x,y,z
x-y,x,z
-y,x-y,z
-x,-y,z
-x+y,-x,z
y,-x+y,z
x-y,-y,-z
-x,-x+y,-z
y,x,-z
-y,-x,-z
-x+y,y,-z
x,x-y,-z
-x,-y,-z
-x+y,-x,-z
y,-x+y,-z
x,y,-z
x-y,x,-z
-y,x-y,-z
-x+y,y,z
x,x-y,z
-y,-x,z
y,x,z
x-y,-y,z
-x,-x+y,z
loop_
_atom_site_type_symbol
_atom_site_label
_atom_site_fract_x
_atom_site_fract_y
_atom_site_fract_z
Si Si1 0.531668 0.898490 0.209000
Si Si2 0.531429 0.898668 0.906902
Si Si3 0.094964 0.459763 0.500000
Si Si4 0.637540 0.901869 0.698331
Si Si5 0.362335 0.100605 0.000000
Si Si6 0.331088 0.495448 0.389528
O O1 0.431019 0.862038 0.222088
O O2 0.540405 0.867316 0.150978
O O3 0.575358 0.867069 0.251276
O O4 0.578853 0.000000 0.210813
O O5 0.430819 0.861638 0.920245
O O6 0.576259 0.869677 0.949570
O O7 0.576835 0.000000 0.907851
O O8 0.088259 0.544130 0.500000
O O9 0.144794 0.458761 0.551642
O O10 0.000000 0.377106 0.500000
O O11 0.676197 0.838099 0.691022
O O12 0.580857 0.897817 0.648800
O O13 0.714765 0.000000 0.704671
O O14 0.315571 0.157786 0.000000
O O15 0.291057 0.000000 0.000000
O O16 0.263308 0.526616 0.377115
O O17 0.426600 0.573401 0.381248
#
# Coordination Sequence:
#
# PCOD8328621 Si02
#       6
#    24  24  12  24  12  24
#     4   8  14  26  45  68  91 113 138 169 208 258
#     4   8  14  26  45  67  88 110 138 173 214 262
#     4   9  17  28  42  60  84 119 161 195 217 244
#     4  10  20  32  47  67  90 117 150 190 232 271
#     4  10  19  29  43  64  89 117 152 194 235 273
#     4  10  19  30  45  66  93 123 153 185 222 265
#
# _framework density 16.673213000000001
#
# number of rings (size 3 to 8) (size 9 to 14) (size 15 to 20)
#    0.000    2.900    0.000    3.200    0.000    4.000 
#    0.000    1.000    0.000    2.300    0.000    0.000 
#    0.000    0.000    0.000   10.000    0.000   20.800 
#
# Total GULP energy -1487076.175734 kJ/mol
# GULP energy per Si atom -12392.301464 kJ/mol
# Density = 1.663526 g / cm^3
# Si number density = 16.673213 Si / 1000 Ang^3
#
#
#
# Elastic Constant Matrix: (Units=GPa)
#
#
# Indices 1 2 3 4 5 6 
#
# 1 69.3871 37.7209 31.1374 0.0000 0.0000 0.0000
# 2 37.7209 69.3871 31.1374 0.0000 0.0000 0.0000
# 3 31.1374 31.1374 106.7822 0.0000 0.0000 0.0000
# 4 0.0000 0.0000 0.0000 13.5897 0.0000 0.0000
# 5 0.0000 0.0000 0.0000 0.0000 13.5897 0.0000
# 6 0.0000 0.0000 0.0000 0.0000 0.0000 15.8331
#
#
#
# Elastic Compliance Matrix: (Units=1/GPa)
#
#
# Indices 1 2 3 4 5 6 
#
# 1 0.021411 -0.010169 -0.003278 0.000000 0.000000 0.000000
# 2 -0.010169 0.021411 -0.003278 0.000000 0.000000 0.000000
# 3 -0.003278 -0.003278 0.011277 0.000000 0.000000 0.000000
# 4 0.000000 0.000000 0.000000 0.073585 0.000000 0.000000
# 5 0.000000 0.000000 0.000000 0.000000 0.073585 0.000000
# 6 0.000000 0.000000 0.000000 0.000000 0.000000 0.063159
#
#
# Mechanical properties :
#
#
# Convention : Reuss Voigt Hill
#
# Bulk Modulus (GPa) = 48.42961 49.50531 48.96746
# Shear Modulus (GPa) = 16.40633 18.30655 17.35644
#
# Velocity S-wave (km/s) = 3.14027 3.31714 3.22992
# Velocity P-wave (km/s) = 6.50060 6.66538 6.58350
#
# Compressibility (1/GPa) = 0.02064852
#
# Stress axis : x y z
#
# Youngs Moduli (GPa) = 46.70512 46.70512 88.67826
#
# Poissons Ratio (x) = 0.47492 0.29071
# Poissons Ratio (y) = 0.47492 0.29071
# Poissons Ratio (z) = 0.15311 0.15311
#
# Static dielectric constant tensor:
#      x y z
#    x 2.836990 0.000000 0.000000 
#    y 0.000000 2.836990 0.000000 
#    z 0.000000 0.000000 3.591360 
# 
# 
# High freq. dielectric constant tensor:
#      x y z
#    x 1.608720 0.000000 0.000000 
#    y 0.000000 1.608720 0.000000 
#    z 0.000000 0.000000 1.663330 
# 
# From -- ./inp_files/9593.got.cif
#   From: 2010.03.12/outbox.cif.g09.slc.cpg/sg191_5_cif.got.tgz:9593.got - 2010.04.01 12:09:02.
