data_PCOD8328202
_publ_section_title
;
Structure prediction by ZEFSAII (Michael W. Deem and Ramdas Pophale) SiO2 
 PCOD8328202
Probable space group: P -6 2 C
;
_chemical_formula_sum "Si O2"
_cell_formula_units_Z 60
_cell_length_a 14.317615
_cell_length_b 14.317615
_cell_length_c 13.522620
_cell_angle_alpha 90.000000
_cell_angle_beta 90.000000
_cell_angle_gamma 120.000000
_cell_volume 2400.672049
_symmetry_space_group_name_H-M "P -6 2 C"
_symmetry_group_IT_number 190
_symmetry_cell_setting 'hexagonal'
loop_
_space_group_symop_operation_xyz
x,y,z
-x+y,-x,1/2-z
-y,x-y,z
x,y,1/2-z
-x+y,-x,z
-y,x-y,1/2-z
x-y,-y,-z
-x,-x+y,-z
y,x,-z
y,x,1/2+z
x-y,-y,1/2+z
-x,-x+y,1/2+z
loop_
_atom_site_type_symbol
_atom_site_label
_atom_site_fract_x
_atom_site_fract_y
_atom_site_fract_z
Si Si1 0.181740 0.950724 0.859415
Si Si2 0.756085 0.548479 0.449835
Si Si3 0.876263 0.549209 0.857434
Si Si4 0.097785 0.572305 0.863006
Si Si5 0.178720 0.220172 0.394516
O O1 0.235696 0.967786 0.750000
O O2 0.221176 0.890473 0.934832
O O3 0.052838 0.885469 0.843035
O O4 0.212169 0.063895 0.908137
O O5 0.784758 0.521990 0.559523
O O6 0.629010 0.471673 0.434038
O O7 0.831147 0.532957 0.370828
O O8 0.828084 0.491645 0.750000
O O9 0.933603 0.675611 0.832205
O O10 0.971881 0.526303 0.893835
O O11 0.101410 0.539157 0.750000
O O12 0.235745 0.235745 0.500000
#
# Coordination Sequence:
#
# PCOD8328202 Si02
#       5
#    12  12  12  12  12
#     4  12  24  41  69 109 151 195 249 306 379 467
#     4  12  25  47  77 113 150 203 264 327 394 463
#     4  11  24  48  75 107 157 203 248 319 404 473
#     4  11  23  45  79 115 152 200 263 333 396 463
#     4  12  23  43  66 103 153 203 240 299 370 464
#
# _framework density 24.992999999999999
#
# number of rings (size 3 to 8) (size 9 to 14) (size 15 to 20)
#    0.000    0.400    4.000    5.600    0.000    0.000 
#    7.200    1.000    0.000    2.400    0.000    0.000 
#    0.000    0.000    0.000    0.000    0.000    0.000 
#
# Total GULP energy -743574.222318 kJ/mol
# GULP energy per Si atom -12392.903705 kJ/mol
# Density = 2.493611 g / cm^3
# Si number density = 24.993000 Si / 1000 Ang^3
#
#
#
# Elastic Constant Matrix: (Units=GPa)
#
#
# Indices 1 2 3 4 5 6 
#
# 1 93.3812 15.4528 28.3578 0.0000 0.0000 0.0000
# 2 15.4528 93.3812 28.3578 0.0000 0.0000 0.0000
# 3 28.3578 28.3578 146.9579 0.0000 0.0000 0.0000
# 4 0.0000 0.0000 0.0000 15.2703 0.0000 0.0000
# 5 0.0000 0.0000 0.0000 0.0000 15.2703 0.0000
# 6 0.0000 0.0000 0.0000 0.0000 0.0000 38.9642
#
#
#
# Elastic Compliance Matrix: (Units=1/GPa)
#
#
# Indices 1 2 3 4 5 6 
#
# 1 0.011524 -0.001308 -0.001971 0.000000 0.000000 0.000000
# 2 -0.001308 0.011524 -0.001971 0.000000 0.000000 0.000000
# 3 -0.001971 -0.001971 0.007565 0.000000 0.000000 0.000000
# 4 0.000000 0.000000 0.000000 0.065487 0.000000 0.000000
# 5 0.000000 0.000000 0.000000 0.000000 0.065487 0.000000
# 6 0.000000 0.000000 0.000000 0.000000 0.000000 0.025665
#
#
# Mechanical properties :
#
#
# Convention : Reuss Voigt Hill
#
# Bulk Modulus (GPa) = 49.72266 53.11746 51.42006
# Shear Modulus (GPa) = 24.45506 31.33776 27.89641
#
# Velocity S-wave (km/s) = 3.13145 3.54483 3.34454
# Velocity P-wave (km/s) = 5.74565 6.16875 5.96096
#
# Compressibility (1/GPa) = 0.02011156
#
# Stress axis : x y z
#
# Youngs Moduli (GPa) = 86.77601 86.77601 132.18002
#
# Poissons Ratio (x) = 0.11353 0.26056
# Poissons Ratio (y) = 0.11353 0.26056
# Poissons Ratio (z) = 0.17106 0.17106
#
# Static dielectric constant tensor:
#      x y z
#    x 4.426450 0.000000 0.000000 
#    y 0.000000 4.426450 0.000000 
#    z 0.000000 0.000000 4.689720 
# 
# 
# High freq. dielectric constant tensor:
#      x y z
#    x 1.981680 0.000000 0.000000 
#    y 0.000000 1.981680 0.000000 
#    z 0.000000 0.000000 2.017210 
# 
# From -- ./inp_files/2814.got.cif
#   From: 2010.06.25/outbox.cif.g09.slc.cpg/sg190_2_cif.got.tgz:2814.got - 2010.06.28 13:08:06.
