data_PCOD8328827
_publ_section_title
;
Structure prediction by ZEFSAII (Michael W. Deem and Ramdas Pophale) SiO2 
 PCOD8328827
Probable space group: P 6/M M M
;
_chemical_formula_sum "Si O2"
_cell_formula_units_Z 132
_cell_length_a 17.960496
_cell_length_b 17.960496
_cell_length_c 27.812162
_cell_angle_alpha 90.000000
_cell_angle_beta 90.000000
_cell_angle_gamma 120.000000
_cell_volume 7769.660352
_symmetry_space_group_name_H-M "P 6/M M M"
_symmetry_group_IT_number 191
_symmetry_cell_setting 'hexagonal'
loop_
_space_group_symop_operation_xyz
x,y,z
x-y,x,z
-y,x-y,z
-x,-y,z
-x+y,-x,z
y,-x+y,z
x-y,-y,-z
-x,-x+y,-z
y,x,-z
-y,-x,-z
-x+y,y,-z
x,x-y,-z
-x,-y,-z
-x+y,-x,-z
y,-x+y,-z
x,y,-z
x-y,x,-z
-y,x-y,-z
-x+y,y,z
x,x-y,z
-y,-x,z
y,x,z
x-y,-y,z
-x,-x+y,z
loop_
_atom_site_type_symbol
_atom_site_label
_atom_site_fract_x
_atom_site_fract_y
_atom_site_fract_z
Si Si1 0.263071 0.904106 0.283340
Si Si2 0.899169 0.367352 0.090260
Si Si3 0.902874 0.262293 0.173843
Si Si4 0.838551 0.506461 0.364395
Si Si5 0.368714 0.267189 0.000000
Si Si6 0.641312 0.903912 0.554857
O O1 0.162591 0.837410 0.294091
O O2 0.287666 0.896353 0.228563
O O3 0.322972 0.884064 0.316950
O O4 0.280439 0.000000 0.293712
O O5 0.855636 0.427818 0.087391
O O6 0.872235 0.314717 0.140138
O O7 0.000000 0.428733 0.088310
O O8 0.871383 0.302370 0.045880
O O9 0.839856 0.160145 0.165808
O O10 0.000000 0.284913 0.160942
O O11 0.737877 0.475753 0.364520
O O12 0.851582 0.425791 0.364384
O O13 0.884296 0.561115 0.411813
O O14 0.295098 0.295098 0.000000
O O15 0.325369 0.162685 0.000000
O O16 0.608982 0.893687 0.500000
O O17 0.675323 0.837662 0.566623
O O18 0.719553 0.000000 0.564771
#
# Coordination Sequence:
#
# PCOD8328827 Si02
#       6
#    24  24  24  24  12  24
#     4   9  18  31  47  68  93 121 153 190 231 272
#     4   9  17  29  46  67  89 115 149 189 230 270
#     4   9  17  30  48  69  93 122 156 191 227 270
#     4  10  20  33  48  67  92 121 152 186 226 271
#     4  10  19  31  49  72  97 125 158 194 231 273
#     4   9  18  32  49  69  93 121 152 186 225 267
#
# _framework density 16.989159000000001
#
# number of rings (size 3 to 8) (size 9 to 14) (size 15 to 20)
#    0.000    2.727    0.000    1.545    0.000    3.636 
#    0.000    2.727    0.000    6.818    0.000    3.818 
#    0.000    8.727    0.000    0.545    0.000    0.364 
#
# Total GULP energy -1636150.218121 kJ/mol
# GULP energy per Si atom -12395.077410 kJ/mol
# Density = 1.695049 g / cm^3
# Si number density = 16.989159 Si / 1000 Ang^3
#
#
#
# Elastic Constant Matrix: (Units=GPa)
#
#
# Indices 1 2 3 4 5 6 
#
# 1 108.8188 76.1600 54.2683 0.0000 0.0000 0.0000
# 2 76.1600 108.8188 54.2683 0.0000 0.0000 0.0000
# 3 54.2683 54.2683 104.5477 0.0000 0.0000 0.0000
# 4 0.0000 0.0000 0.0000 -3.9330 0.0000 0.0000
# 5 0.0000 0.0000 0.0000 0.0000 -3.9330 0.0000
# 6 0.0000 0.0000 0.0000 0.0000 0.0000 16.3294
#
#
#
# Elastic Compliance Matrix: (Units=1/GPa)
#
#
# Indices 1 2 3 4 5 6 
#
# 1 0.019197 -0.011423 -0.004035 0.000000 0.000000 0.000000
# 2 -0.011423 0.019197 -0.004035 0.000000 0.000000 0.000000
# 3 -0.004035 -0.004035 0.013754 0.000000 0.000000 0.000000
# 4 0.000000 0.000000 0.000000 -0.254258 0.000000 0.000000
# 5 0.000000 0.000000 0.000000 0.000000 -0.254258 0.000000
# 6 0.000000 0.000000 0.000000 0.000000 0.000000 0.061239
#
#
# Mechanical properties :
#
#
# Convention : Reuss Voigt Hill
#
# Bulk Modulus (GPa) = 75.98268 76.84204 76.41236
# Shear Modulus (GPa) = -14.21438 10.85859 -1.67790
#
# Velocity S-wave (km/s) = -2.89567 2.53088 -0.99487
# Velocity P-wave (km/s) = 5.80012 7.33953 6.61476
#
# Compressibility (1/GPa) = 0.01316089
#
# Stress axis : x y z
#
# Youngs Moduli (GPa) = 52.09249 52.09249 72.70567
#
# Poissons Ratio (x) = 0.59505 0.29338
# Poissons Ratio (y) = 0.59505 0.29338
# Poissons Ratio (z) = 0.21020 0.21020
#
# Static dielectric constant tensor:
#      x y z
#    x 3.143600 0.000000 0.000000 
#    y 0.000000 3.143600 0.000000 
#    z 0.000000 0.000000 3.444840 
# 
# 
# High freq. dielectric constant tensor:
#      x y z
#    x 1.637350 0.000000 0.000000 
#    y 0.000000 1.637350 0.000000 
#    z 0.000000 0.000000 1.676320 
# 
# From -- ./inp_files/10491.got.cif
#   From: 2010.03.12/outbox.cif.g09.slc.cpg/sg191_6_cif.got.tgz:10491.got - 2010.04.01 12:09:02.
