data_PCOD8328479
_publ_section_title
;
Structure prediction by ZEFSAII (Michael W. Deem and Ramdas Pophale) SiO2 
 PCOD8328479
Probable space group: P 6/M M M
;
_chemical_formula_sum "Si O2"
_cell_formula_units_Z 144
_cell_length_a 22.887956
_cell_length_b 22.887956
_cell_length_c 19.071167
_cell_angle_alpha 90.000000
_cell_angle_beta 90.000000
_cell_angle_gamma 120.000000
_cell_volume 8652.107776
_symmetry_space_group_name_H-M "P 6/M M M"
_symmetry_group_IT_number 191
_symmetry_cell_setting 'hexagonal'
loop_
_space_group_symop_operation_xyz
x,y,z
x-y,x,z
-y,x-y,z
-x,-y,z
-x+y,-x,z
y,-x+y,z
x-y,-y,-z
-x,-x+y,-z
y,x,-z
-y,-x,-z
-x+y,y,-z
x,x-y,-z
-x,-y,-z
-x+y,-x,-z
y,-x+y,-z
x,y,-z
x-y,x,-z
-y,x-y,-z
-x+y,y,z
x,x-y,z
-y,-x,z
y,x,z
x-y,-y,z
-x,-x+y,z
loop_
_atom_site_type_symbol
_atom_site_label
_atom_site_fract_x
_atom_site_fract_y
_atom_site_fract_z
Si Si1 0.667013 0.466816 0.159509
Si Si2 0.211367 0.288189 0.817663
Si Si3 0.485373 0.841752 0.316229
Si Si4 0.077829 0.358277 0.677969
Si Si5 0.270646 0.867490 0.078386
Si Si6 0.482063 0.741032 0.578728
Si Si7 0.179094 0.358187 0.577391
O O1 0.726809 0.453617 0.135279
O O2 0.596350 0.403651 0.136113
O O3 0.672650 0.477241 0.242792
O O4 0.672588 0.532661 0.121378
O O5 0.130816 0.261632 0.822401
O O6 0.224819 0.224819 0.812496
O O7 0.242393 0.338404 0.752057
O O8 0.251778 0.332542 0.884915
O O9 0.437872 0.875744 0.317904
O O10 0.562815 0.897873 0.325774
O O11 0.459255 0.786758 0.378525
O O12 0.109635 0.333896 0.617928
O O13 0.000000 0.320037 0.662206
O O14 0.204945 0.795056 0.076575
O O15 0.297059 0.894141 0.000000
O O16 0.450634 0.725317 0.500000
O O17 0.561957 0.780979 0.574003
O O18 0.162948 0.325896 0.500000
#
# Coordination Sequence:
#
# PCOD8328479 Si02
#       7
#    24  24  24  24  24  12  12
#     4  10  18  29  46  67  94 130 174 222 267 310
#     4  10  19  33  55  80 105 133 164 199 237 284
#     4  10  19  31  48  68  94 131 170 213 259 306
#     4  10  19  32  52  75 100 132 167 205 248 295
#     4   9  18  31  49  72  98 132 167 204 251 297
#     4   9  18  32  48  66  90 126 164 207 263 314
#     4   9  18  32  52  74  98 126 157 200 249 297
#
# _framework density 16.643343999999999
#
# number of rings (size 3 to 8) (size 9 to 14) (size 15 to 20)
#    0.000    2.333    3.333    0.167    0.000    1.667 
#    0.500    0.000    0.000    1.667    0.000    5.833 
#    0.000    0.000    0.000    4.167    0.000    7.583 
#
# Total GULP energy -1785056.195921 kJ/mol
# GULP energy per Si atom -12396.223583 kJ/mol
# Density = 1.660546 g / cm^3
# Si number density = 16.643344 Si / 1000 Ang^3
#
#
#
# Elastic Constant Matrix: (Units=GPa)
#
#
# Indices 1 2 3 4 5 6 
#
# 1 84.9757 48.7390 33.0400 0.0000 0.0000 0.0000
# 2 48.7390 84.9757 33.0400 0.0000 0.0000 0.0000
# 3 33.0400 33.0400 121.0831 0.0000 0.0000 0.0000
# 4 0.0000 0.0000 0.0000 10.2475 0.0000 0.0000
# 5 0.0000 0.0000 0.0000 0.0000 10.2475 0.0000
# 6 0.0000 0.0000 0.0000 0.0000 0.0000 18.1183
#
#
#
# Elastic Compliance Matrix: (Units=1/GPa)
#
#
# Indices 1 2 3 4 5 6 
#
# 1 0.018120 -0.009476 -0.002359 0.000000 0.000000 0.000000
# 2 -0.009476 0.018120 -0.002359 0.000000 0.000000 0.000000
# 3 -0.002359 -0.002359 0.009546 0.000000 0.000000 0.000000
# 4 0.000000 0.000000 0.000000 0.097585 0.000000 0.000000
# 5 0.000000 0.000000 0.000000 0.000000 0.097585 0.000000
# 6 0.000000 0.000000 0.000000 0.000000 0.000000 0.055193
#
#
# Mechanical properties :
#
#
# Convention : Reuss Voigt Hill
#
# Bulk Modulus (GPa) = 57.47275 57.85250 57.66263
# Shear Modulus (GPa) = 15.13611 19.47037 17.30324
#
# Velocity S-wave (km/s) = 3.01896 3.42403 3.22786
# Velocity P-wave (km/s) = 6.83806 7.10405 6.97233
#
# Compressibility (1/GPa) = 0.01739955
#
# Stress axis : x y z
#
# Youngs Moduli (GPa) = 55.18669 55.18669 104.75519
#
# Poissons Ratio (x) = 0.52295 0.24709
# Poissons Ratio (y) = 0.52295 0.24709
# Poissons Ratio (z) = 0.13017 0.13017
#
# Static dielectric constant tensor:
#      x y z
#    x 2.908100 0.000000 0.000000 
#    y 0.000000 2.908100 0.000000 
#    z 0.000000 0.000000 3.447800 
# 
# 
# High freq. dielectric constant tensor:
#      x y z
#    x 1.618490 0.000000 0.000000 
#    y 0.000000 1.618490 0.000000 
#    z 0.000000 0.000000 1.648930 
# 
# From -- ./inp_files/7668.got.cif
#   From: 2010.03.12/outbox.cif.g09.slc.cpg/sg191_4_cif.got.tgz:7668.got - 2010.04.01 12:09:02.
