data_PCOD8328181
_publ_section_title
;
Structure prediction by ZEFSAII (Michael W. Deem and Ramdas Pophale) SiO2 
 PCOD8328181
Probable space group: P -6 2 C
;
_chemical_formula_sum "Si O2"
_cell_formula_units_Z 74
_cell_length_a 12.955631
_cell_length_b 12.955631
_cell_length_c 26.264659
_cell_angle_alpha 90.000000
_cell_angle_beta 90.000000
_cell_angle_gamma 120.000000
_cell_volume 3817.855952
_symmetry_space_group_name_H-M "P -6 2 C"
_symmetry_group_IT_number 190
_symmetry_cell_setting 'hexagonal'
loop_
_space_group_symop_operation_xyz
x,y,z
-x+y,-x,1/2-z
-y,x-y,z
x,y,1/2-z
-x+y,-x,z
-y,x-y,1/2-z
x-y,-y,-z
-x,-x+y,-z
y,x,-z
y,x,1/2+z
x-y,-y,1/2+z
-x,-x+y,1/2+z
loop_
_atom_site_type_symbol
_atom_site_label
_atom_site_fract_x
_atom_site_fract_y
_atom_site_fract_z
Si Si1 0.681358 0.956043 0.084157
Si Si2 0.333334 0.666667 0.970003
Si Si3 0.025582 0.243905 0.305764
Si Si4 0.132972 0.132972 0.500000
Si Si5 0.666668 0.333334 0.591619
Si Si6 0.759499 0.975734 0.691820
Si Si7 0.307346 0.878804 0.389743
Si Si8 0.458003 0.941899 0.948632
O O1 0.692898 0.990994 0.144430
O O2 0.605348 0.008423 0.059915
O O3 0.617565 0.812681 0.076464
O O4 0.803486 0.008301 0.051764
O O5 0.333334 0.666667 0.030648
O O6 0.384494 0.799327 0.948481
O O7 0.015739 0.285856 0.250000
O O8 0.101403 0.176221 0.306922
O O9 0.093841 0.366945 0.335459
O O10 0.894298 0.150402 0.325072
O O11 0.117463 0.000000 0.500000
O O12 0.571519 0.203951 0.613611
O O13 0.706795 0.970063 0.750000
O O14 0.407231 0.008756 0.409009
O O15 0.445871 0.000000 0.000000
#
# Coordination Sequence:
#
# PCOD8328181 Si02
#       8
#    12   4  12   6   4  12  12  12
#     4  11  23  40  63  90 125 164 213 256 314 383
#     4  12  27  42  63  91 125 166 228 258 312 394
#     4   9  19  36  60  94 123 161 203 249 315 381
#     4  10  26  38  54  94 136 162 188 246 332 380
#     4  12  21  45  58  88 117 163 211 261 312 373
#     4   9  19  35  60  89 124 157 200 252 308 377
#     4  11  23  40  64  87 123 163 205 263 315 365
#     4  12  25  42  63  90 122 168 218 261 308 381
#
# _framework density 19.382605000000002
#
# number of rings (size 3 to 8) (size 9 to 14) (size 15 to 20)
#    0.162    1.297    4.054    0.324    6.811    1.946 
#    0.000    1.622    0.000    0.000    0.000    0.000 
#    0.000    0.000    0.000    0.000    0.000    0.000 
#
# Total GULP energy -916841.511652 kJ/mol
# GULP energy per Si atom -12389.750157 kJ/mol
# Density = 1.933849 g / cm^3
# Si number density = 19.382605 Si / 1000 Ang^3
#
#
#
# Elastic Constant Matrix: (Units=GPa)
#
#
# Indices 1 2 3 4 5 6 
#
# 1 98.3964 41.8831 32.7095 0.0001 0.0000 -0.0002
# 2 41.8831 98.3951 32.7096 0.0000 0.0000 -0.0002
# 3 32.7095 32.7096 87.1963 0.0000 0.0000 0.0001
# 4 0.0001 0.0000 0.0000 21.8620 0.0000 0.0000
# 5 0.0000 0.0000 0.0000 0.0000 21.8619 0.0000
# 6 -0.0002 -0.0002 0.0001 0.0000 0.0000 28.2561
#
#
#
# Elastic Compliance Matrix: (Units=1/GPa)
#
#
# Indices 1 2 3 4 5 6 
#
# 1 0.013168 -0.004527 -0.003241 0.000000 0.000000 0.000000
# 2 -0.004527 0.013168 -0.003241 0.000000 0.000000 0.000000
# 3 -0.003241 -0.003241 0.013900 0.000000 0.000000 0.000000
# 4 0.000000 0.000000 0.000000 0.045742 0.000000 0.000000
# 5 0.000000 0.000000 0.000000 0.000000 0.045742 0.000000
# 6 0.000000 0.000000 0.000000 0.000000 0.000000 0.035391
#
#
# Mechanical properties :
#
#
# Convention : Reuss Voigt Hill
#
# Bulk Modulus (GPa) = 54.89738 55.39911 55.14825
# Shear Modulus (GPa) = 25.61466 26.17503 25.89485
#
# Velocity S-wave (km/s) = 3.63923 3.67882 3.65908
# Velocity P-wave (km/s) = 6.78551 6.83293 6.80926
#
# Compressibility (1/GPa) = 0.01821581
#
# Stress axis : x y z
#
# Youngs Moduli (GPa) = 75.94424 75.94303 71.94219
#
# Poissons Ratio (x) = 0.34383 0.23317
# Poissons Ratio (y) = 0.34384 0.23318
# Poissons Ratio (z) = 0.24614 0.24615
#
# Static dielectric constant tensor:
#      x y z
#    x 3.519670 0.000000 0.000000 
#    y 0.000000 3.519680 0.000000 
#    z 0.000000 0.000000 3.645640 
# 
# 
# High freq. dielectric constant tensor:
#      x y z
#    x 1.748960 0.000000 0.000000 
#    y 0.000000 1.748960 0.000000 
#    z 0.000000 0.000000 1.751020 
# 
# From -- ./inp_files/5182.got.cif
#   From: 2010.06.25/outbox.cif.g09.slc.cpg/sg190_3_cif.got.tgz:5182.got - 2010.06.28 13:08:06.
