data_PCOD8328833
_publ_section_title
;
Structure prediction by ZEFSAII (Michael W. Deem and Ramdas Pophale) SiO2 
 PCOD8328833
Probable space group: P 6/M M M
;
_chemical_formula_sum "Si O2"
_cell_formula_units_Z 120
_cell_length_a 17.437129
_cell_length_b 17.437129
_cell_length_c 25.792352
_cell_angle_alpha 90.000000
_cell_angle_beta 90.000000
_cell_angle_gamma 120.000000
_cell_volume 6791.591245
_symmetry_space_group_name_H-M "P 6/M M M"
_symmetry_group_IT_number 191
_symmetry_cell_setting 'hexagonal'
loop_
_space_group_symop_operation_xyz
x,y,z
x-y,x,z
-y,x-y,z
-x,-y,z
-x+y,-x,z
y,-x+y,z
x-y,-y,-z
-x,-x+y,-z
y,x,-z
-y,-x,-z
-x+y,y,-z
x,x-y,-z
-x,-y,-z
-x+y,-x,-z
y,-x+y,-z
x,y,-z
x-y,x,-z
-y,x-y,-z
-x+y,y,z
x,x-y,z
-y,-x,z
y,x,z
x-y,-y,z
-x,-x+y,z
loop_
_atom_site_type_symbol
_atom_site_label
_atom_site_fract_x
_atom_site_fract_y
_atom_site_fract_z
Si Si1 0.532716 0.895988 0.397940
Si Si2 0.626181 0.897103 0.500000
Si Si3 0.486790 0.154607 0.199565
Si Si4 0.362835 0.895602 0.000000
Si Si5 0.271499 0.372040 0.100145
Si Si6 0.628172 0.728835 0.701336
O O1 0.425832 0.851663 0.397609
O O2 0.562821 0.870333 0.450456
O O3 0.564437 0.863457 0.348573
O O4 0.574858 0.000000 0.394456
O O5 0.672397 0.836199 0.500000
O O6 0.702828 0.000000 0.500000
O O7 0.573049 0.146098 0.198984
O O8 0.514746 0.257373 0.199683
O O9 0.428854 0.104634 0.149694
O O10 0.430222 0.104725 0.249900
O O11 0.302261 0.865081 0.949079
O O12 0.425989 0.851978 0.000000
O O13 0.423751 0.000000 0.000000
O O14 0.165719 0.331437 0.107111
O O15 0.291559 0.291559 0.092802
O O16 0.668937 0.834469 0.709573
O O17 0.708497 0.708497 0.694041
#
# Coordination Sequence:
#
# PCOD8328833 Si02
#       6
#    24  12  24  12  24  24
#     4   9  17  30  49  71  93 119 153 192 234 283
#     4  10  19  31  49  72  97 127 164 204 243 283
#     4  10  20  33  50  73 100 128 157 192 236 285
#     4   9  17  30  49  72  96 122 154 191 231 280
#     4  10  20  33  50  72  97 127 163 202 242 283
#     4  10  20  33  50  72  97 127 163 201 239 280
#
# _framework density 17.668907999999998
#
# number of rings (size 3 to 8) (size 9 to 14) (size 15 to 20)
#    0.000    2.300    0.000    3.200    0.000    4.400 
#    0.000    0.000    0.000   10.100    0.000    0.000 
#    0.000   12.000    0.000    0.000    0.000    2.000 
#
# Total GULP energy -1487809.332099 kJ/mol
# GULP energy per Si atom -12398.411101 kJ/mol
# Density = 1.762869 g / cm^3
# Si number density = 17.668908 Si / 1000 Ang^3
#
#
#
# Elastic Constant Matrix: (Units=GPa)
#
#
# Indices 1 2 3 4 5 6 
#
# 1 94.5349 60.3424 29.9607 0.0000 0.0000 0.0000
# 2 60.3424 94.5349 29.9607 0.0000 0.0000 0.0000
# 3 29.9607 29.9607 145.1321 0.0000 0.0000 0.0000
# 4 0.0000 0.0000 0.0000 23.4363 0.0000 0.0000
# 5 0.0000 0.0000 0.0000 0.0000 23.4363 0.0000
# 6 0.0000 0.0000 0.0000 0.0000 0.0000 17.0962
#
#
#
# Elastic Compliance Matrix: (Units=1/GPa)
#
#
# Indices 1 2 3 4 5 6 
#
# 1 0.018132 -0.011115 -0.001449 0.000000 0.000000 0.000000
# 2 -0.011115 0.018132 -0.001449 0.000000 0.000000 0.000000
# 3 -0.001449 -0.001449 0.007488 0.000000 0.000000 0.000000
# 4 0.000000 0.000000 0.000000 0.042669 0.000000 0.000000
# 5 0.000000 0.000000 0.000000 0.000000 0.042669 0.000000
# 6 0.000000 0.000000 0.000000 0.000000 0.000000 0.058492
#
#
# Mechanical properties :
#
#
# Convention : Reuss Voigt Hill
#
# Bulk Modulus (GPa) = 63.57967 63.85885 63.71926
# Shear Modulus (GPa) = 22.64000 27.05630 24.84815
#
# Velocity S-wave (km/s) = 3.58347 3.91742 3.75416
# Velocity P-wave (km/s) = 7.29272 7.52874 7.41167
#
# Compressibility (1/GPa) = 0.01572830
#
# Stress axis : x y z
#
# Youngs Moduli (GPa) = 55.15201 55.15201 133.54036
#
# Poissons Ratio (x) = 0.61299 0.19345
# Poissons Ratio (y) = 0.61299 0.19345
# Poissons Ratio (z) = 0.07989 0.07989
#
# Static dielectric constant tensor:
#      x y z
#    x 3.130230 0.000000 0.000000 
#    y 0.000000 3.130230 0.000000 
#    z 0.000000 0.000000 3.541000 
# 
# 
# High freq. dielectric constant tensor:
#      x y z
#    x 1.663910 0.000000 0.000000 
#    y 0.000000 1.663910 0.000000 
#    z 0.000000 0.000000 1.708090 
# 
# From -- ./inp_files/8584.got.cif
#   From: 2010.03.12/outbox.cif.g09.slc.cpg/sg191_5_cif.got.tgz:8584.got - 2010.04.01 12:09:02.
