data_PCOD8328786
_publ_section_title
;
Structure prediction by ZEFSAII (Michael W. Deem and Ramdas Pophale) SiO2 
 PCOD8328786
Probable space group: P 6/M M M
;
_chemical_formula_sum "Si O2"
_cell_formula_units_Z 96
_cell_length_a 16.409891
_cell_length_b 16.409891
_cell_length_c 23.856855
_cell_angle_alpha 90.000000
_cell_angle_beta 90.000000
_cell_angle_gamma 120.000000
_cell_volume 5563.591249
_symmetry_space_group_name_H-M "P 6/M M M"
_symmetry_group_IT_number 191
_symmetry_cell_setting 'hexagonal'
loop_
_space_group_symop_operation_xyz
x,y,z
x-y,x,z
-y,x-y,z
-x,-y,z
-x+y,-x,z
y,-x+y,z
x-y,-y,-z
-x,-x+y,-z
y,x,-z
-y,-x,-z
-x+y,y,-z
x,x-y,-z
-x,-y,-z
-x+y,-x,-z
y,-x+y,-z
x,y,-z
x-y,x,-z
-y,x-y,-z
-x+y,y,z
x,x-y,z
-y,-x,z
y,x,z
x-y,-y,z
-x,-x+y,z
loop_
_atom_site_type_symbol
_atom_site_label
_atom_site_fract_x
_atom_site_fract_y
_atom_site_fract_z
Si Si1 0.898914 0.614454 0.500000
Si Si2 0.886540 0.583216 0.000000
Si Si3 0.555829 0.111657 0.790178
Si Si4 0.516535 0.849438 0.384553
Si Si5 0.555197 0.110393 0.914794
Si Si6 0.895093 0.285217 0.728720
O O1 0.825384 0.650767 0.500000
O O2 0.890269 0.553662 0.554268
O O3 0.000000 0.708009 0.500000
O O4 0.861642 0.514186 0.053420
O O5 0.811514 0.623027 0.000000
O O6 0.000000 0.666237 0.000000
O O7 0.577927 0.155854 0.852804
O O8 0.491893 0.145440 0.757919
O O9 0.500000 0.000000 0.791940
O O10 0.436103 0.872206 0.367814
O O11 0.475087 0.737544 0.385079
O O12 0.598183 0.898367 0.338268
O O13 0.500000 0.000000 0.909287
O O14 0.824141 0.175860 0.743803
O O15 0.000000 0.314450 0.749808
#
# Coordination Sequence:
#
# PCOD8328786 Si02
#       6
#    12  12  12  24  12  24
#     4  10  21  33  47  66  87 115 150 190 235 283
#     4   9  17  31  51  74 102 136 171 207 247 287
#     4   9  17  32  51  71  96 127 161 199 243 291
#     4  10  19  31  47  68  94 123 154 189 231 283
#     4   8  16  31  50  70  97 130 164 203 243 286
#     4  10  20  33  50  70  96 129 164 202 245 293
#
# _framework density 17.255042
#
# number of rings (size 3 to 8) (size 9 to 14) (size 15 to 20)
#    0.000    2.500    1.250    2.125    0.000    3.000 
#    3.750    1.250    0.000    0.500    0.000    0.000 
#    0.000    6.000    0.000   12.500    0.000    0.500 
#
# Total GULP energy -1189610.306832 kJ/mol
# GULP energy per Si atom -12391.774030 kJ/mol
# Density = 1.721577 g / cm^3
# Si number density = 17.255042 Si / 1000 Ang^3
#
#
#
# Elastic Constant Matrix: (Units=GPa)
#
#
# Indices 1 2 3 4 5 6 
#
# 1 89.0103 54.8547 14.5298 0.0000 0.0000 0.0000
# 2 54.8547 89.0103 14.5298 0.0000 0.0000 0.0000
# 3 14.5298 14.5298 100.5718 0.0000 0.0000 0.0000
# 4 0.0000 0.0000 0.0000 13.1011 0.0000 0.0000
# 5 0.0000 0.0000 0.0000 0.0000 13.1011 0.0000
# 6 0.0000 0.0000 0.0000 0.0000 0.0000 17.0778
#
#
#
# Elastic Compliance Matrix: (Units=1/GPa)
#
#
# Indices 1 2 3 4 5 6 
#
# 1 0.018219 -0.011059 -0.001034 0.000000 0.000000 0.000000
# 2 -0.011059 0.018219 -0.001034 0.000000 0.000000 0.000000
# 3 -0.001034 -0.001034 0.010242 0.000000 0.000000 0.000000
# 4 0.000000 0.000000 0.000000 0.076329 0.000000 0.000000
# 5 0.000000 0.000000 0.000000 0.000000 0.076329 0.000000
# 6 0.000000 0.000000 0.000000 0.000000 0.000000 0.058556
#
#
# Mechanical properties :
#
#
# Convention : Reuss Voigt Hill
#
# Bulk Modulus (GPa) = 48.96146 49.60231 49.28188
# Shear Modulus (GPa) = 17.18464 21.63456 19.40960
#
# Velocity S-wave (km/s) = 3.15924 3.54476 3.35754
# Velocity P-wave (km/s) = 6.46100 6.75002 6.60709
#
# Compressibility (1/GPa) = 0.02042423
#
# Stress axis : x y z
#
# Youngs Moduli (GPa) = 54.88826 54.88826 97.63694
#
# Poissons Ratio (x) = 0.60701 0.10100
# Poissons Ratio (y) = 0.60701 0.10100
# Poissons Ratio (z) = 0.05678 0.05678
#
# Static dielectric constant tensor:
#      x y z
#    x 3.078010 0.000000 0.000000 
#    y 0.000000 3.078010 0.000000 
#    z 0.000000 0.000000 3.650940 
# 
# 
# High freq. dielectric constant tensor:
#      x y z
#    x 1.640430 0.000000 0.000000 
#    y 0.000000 1.640430 0.000000 
#    z 0.000000 0.000000 1.675890 
# 
# From -- ./inp_files/8290.got.cif
#   From: 2010.03.12/outbox.cif.g09.slc.cpg/sg191_5_cif.got.tgz:8290.got - 2010.04.01 12:09:02.
