data_PCOD8328056
_publ_section_title
;
Structure prediction by ZEFSAII (Michael W. Deem and Ramdas Pophale) SiO2 
 PCOD8328056
Probable space group: P -6 2 C
;
_chemical_formula_sum "Si O2"
_cell_formula_units_Z 76
_cell_length_a 17.898608
_cell_length_b 17.898608
_cell_length_c 12.949893
_cell_angle_alpha 90.000000
_cell_angle_beta 90.000000
_cell_angle_gamma 120.000000
_cell_volume 3592.818886
_symmetry_space_group_name_H-M "P -6 2 C"
_symmetry_group_IT_number 190
_symmetry_cell_setting 'hexagonal'
loop_
_space_group_symop_operation_xyz
x,y,z
-x+y,-x,1/2-z
-y,x-y,z
x,y,1/2-z
-x+y,-x,z
-y,x-y,1/2-z
x-y,-y,-z
-x,-x+y,-z
y,x,-z
y,x,1/2+z
x-y,-y,1/2+z
-x,-x+y,1/2+z
loop_
_atom_site_type_symbol
_atom_site_label
_atom_site_fract_x
_atom_site_fract_y
_atom_site_fract_z
Si Si1 0.371330 0.240587 0.627124
Si Si2 0.524695 0.347359 0.008527
Si Si3 0.869811 0.226396 0.372236
Si Si4 0.302767 0.057020 0.866872
Si Si5 0.094907 0.463506 0.024848
Si Si6 0.333334 0.666668 0.625417
Si Si7 0.368433 0.307122 0.370889
O O1 0.381143 0.241834 0.750000
O O2 0.466102 0.275213 0.576776
O O3 0.303941 0.142275 0.587273
O O4 0.333369 0.299977 0.585469
O O5 0.591130 0.435538 0.949855
O O6 0.574263 0.313718 0.081706
O O7 0.462957 0.367006 0.081795
O O8 0.874023 0.243679 0.250000
O O9 0.859928 0.300815 0.429454
O O10 0.792167 0.131142 0.400120
O O11 0.961914 0.239058 0.416814
O O12 0.273112 0.046755 0.750000
O O13 0.403188 0.082501 0.876347
O O14 0.000000 0.447012 0.000000
O O15 0.333334 0.666668 0.750000
O O16 0.374400 0.321974 0.250000
#
# Coordination Sequence:
#
# PCOD8328056 Si02
#       7
#    12  12  12  12  12   4  12
#     4  10  21  36  55  80 110 145 184 225 274 333
#     4  12  23  38  55  76 109 144 180 227 282 334
#     4   9  18  33  54  78 104 136 175 219 267 317
#     4   9  18  34  54  75 102 137 177 220 263 314
#     4  10  20  33  52  77 102 133 175 218 262 317
#     4  12  27  42  58  80 106 141 183 231 286 341
#     4  10  20  34  54  80 109 142 181 226 276 332
#
# _framework density 21.153307000000002
#
# number of rings (size 3 to 8) (size 9 to 14) (size 15 to 20)
#    0.000    1.895    0.000    4.737    0.000    3.158 
#    0.000    3.947    0.000    0.632    0.000    4.421 
#    0.000    5.053    0.000    0.632    0.000    0.000 
#
# Total GULP energy -941513.883846 kJ/mol
# GULP energy per Si atom -12388.340577 kJ/mol
# Density = 2.110516 g / cm^3
# Si number density = 21.153307 Si / 1000 Ang^3
#
#
#
# Elastic Constant Matrix: (Units=GPa)
#
#
# Indices 1 2 3 4 5 6 
#
# 1 116.5288 46.8237 23.1046 -0.0001 0.0000 0.0000
# 2 46.8237 116.5288 23.1048 -0.0001 0.0000 0.0001
# 3 23.1046 23.1048 28.4367 0.0000 0.0000 0.0000
# 4 -0.0001 -0.0001 0.0000 28.0911 0.0000 0.0000
# 5 0.0000 0.0000 0.0000 0.0000 28.0911 0.0000
# 6 0.0000 0.0001 0.0000 0.0000 0.0000 34.8526
#
#
#
# Elastic Compliance Matrix: (Units=1/GPa)
#
#
# Indices 1 2 3 4 5 6 
#
# 1 0.011147 -0.003199 -0.006458 0.000000 0.000000 0.000000
# 2 -0.003199 0.011147 -0.006458 0.000000 0.000000 0.000000
# 3 -0.006458 -0.006458 0.045660 0.000000 0.000000 0.000000
# 4 0.000000 0.000000 0.000000 0.035598 0.000000 0.000000
# 5 0.000000 0.000000 0.000000 0.000000 0.035598 0.000000
# 6 0.000000 0.000000 0.000000 0.000000 0.000000 0.028692
#
#
# Mechanical properties :
#
#
# Convention : Reuss Voigt Hill
#
# Bulk Modulus (GPa) = 27.99182 49.72896 38.86039
# Shear Modulus (GPa) = 23.58679 29.43772 26.51225
#
# Velocity S-wave (km/s) = 3.34284 3.73451 3.54409
# Velocity P-wave (km/s) = 5.30670 6.49271 5.92943
#
# Compressibility (1/GPa) = 0.03572472
#
# Stress axis : x y z
#
# Youngs Moduli (GPa) = 89.70714 89.70689 21.90081
#
# Poissons Ratio (x) = 0.28695 0.14144
# Poissons Ratio (y) = 0.28695 0.14144
# Poissons Ratio (z) = 0.57935 0.57935
#
# Static dielectric constant tensor:
#      x y z
#    x 4.007810 0.000000 0.000000 
#    y 0.000000 4.007810 0.000000 
#    z 0.000000 0.000000 3.986620 
# 
# 
# High freq. dielectric constant tensor:
#      x y z
#    x 1.821130 0.000000 0.000000 
#    y 0.000000 1.821130 0.000000 
#    z 0.000000 0.000000 1.846010 
# 
# From -- ./inp_files/3056.got.cif
#   From: 2010.06.25/outbox.cif.g09.slc.cpg/sg190_2_cif.got.tgz:3056.got - 2010.06.28 13:08:06.
