data_PCOD8328188
_publ_section_title
;
Structure prediction by ZEFSAII (Michael W. Deem and Ramdas Pophale) SiO2 
 PCOD8328188
Probable space group: P -6 2 C
;
_chemical_formula_sum "Si O2"
_cell_formula_units_Z 40
_cell_length_a 13.761591
_cell_length_b 13.761591
_cell_length_c 13.931575
_cell_angle_alpha 90.000000
_cell_angle_beta 90.000000
_cell_angle_gamma 120.000000
_cell_volume 2284.904966
_symmetry_space_group_name_H-M "P -6 2 C"
_symmetry_group_IT_number 190
_symmetry_cell_setting 'hexagonal'
loop_
_space_group_symop_operation_xyz
x,y,z
-x+y,-x,1/2-z
-y,x-y,z
x,y,1/2-z
-x+y,-x,z
-y,x-y,1/2-z
x-y,-y,-z
-x,-x+y,-z
y,x,-z
y,x,1/2+z
x-y,-y,1/2+z
-x,-x+y,1/2+z
loop_
_atom_site_type_symbol
_atom_site_label
_atom_site_fract_x
_atom_site_fract_y
_atom_site_fract_z
Si Si1 0.804002 0.772207 0.644414
Si Si2 0.812895 0.131367 0.478988
Si Si3 0.470975 0.770227 0.642533
Si Si4 0.000000 0.000000 0.114004
O O1 0.758948 0.720693 0.750000
O O2 0.801151 0.675243 0.576580
O O3 0.733967 0.827252 0.603108
O O4 0.932064 0.873118 0.651953
O O5 0.720255 0.160814 0.441011
O O6 0.755247 0.000000 0.500000
O O7 0.363880 0.789128 0.631028
O O8 0.522442 0.809197 0.750000
O O9 0.000000 0.000000 0.000000
#
# Coordination Sequence:
#
# PCOD8328188 Si02
#       4
#    12  12  12   4
#     4  11  20  30  48  74 112 153 180 213 271 338
#     4  11  20  32  51  82 112 138 181 227 269 322
#     4   8  18  39  61  76  98 138 186 233 276 316
#     4  12  16  32  43  67 110 157 184 209 268 331
#
# _framework density 17.506198000000001
#
# number of rings (size 3 to 8) (size 9 to 14) (size 15 to 20)
#    0.600    1.200    6.000    1.800    0.000    1.200 
#    5.400    0.000    0.000    1.800    0.000    0.000 
#    0.000    0.000    0.000    0.000    0.000    0.000 
#
# Total GULP energy -495536.474815 kJ/mol
# GULP energy per Si atom -12388.411870 kJ/mol
# Density = 1.746635 g / cm^3
# Si number density = 17.506198 Si / 1000 Ang^3
#
#
#
# Elastic Constant Matrix: (Units=GPa)
#
#
# Indices 1 2 3 4 5 6 
#
# 1 41.2266 8.7736 29.3742 0.0000 0.0000 0.0000
# 2 8.7736 41.2266 29.3742 0.0000 0.0000 0.0000
# 3 29.3742 29.3742 145.5173 0.0000 0.0000 0.0000
# 4 0.0000 0.0000 0.0000 20.9266 0.0000 0.0000
# 5 0.0000 0.0000 0.0000 0.0000 20.9266 0.0000
# 6 0.0000 0.0000 0.0000 0.0000 0.0000 16.2265
#
#
#
# Elastic Compliance Matrix: (Units=1/GPa)
#
#
# Indices 1 2 3 4 5 6 
#
# 1 0.028516 -0.002298 -0.005292 0.000000 0.000000 0.000000
# 2 -0.002298 0.028516 -0.005292 0.000000 0.000000 0.000000
# 3 -0.005292 -0.005292 0.009009 0.000000 0.000000 0.000000
# 4 0.000000 0.000000 0.000000 0.047786 0.000000 0.000000
# 5 0.000000 0.000000 0.000000 0.000000 0.047786 0.000000
# 6 0.000000 0.000000 0.000000 0.000000 0.000000 0.061627
#
#
# Mechanical properties :
#
#
# Convention : Reuss Voigt Hill
#
# Bulk Modulus (GPa) = 24.82891 40.33496 32.58194
# Shear Modulus (GPa) = 19.05264 22.31251 20.68258
#
# Velocity S-wave (km/s) = 3.30257 3.57396 3.44094
# Velocity P-wave (km/s) = 5.36250 6.33414 5.86846
#
# Compressibility (1/GPa) = 0.04027562
#
# Stress axis : x y z
#
# Youngs Moduli (GPa) = 35.06798 35.06798 111.00356
#
# Poissons Ratio (x) = 0.08057 0.58748
# Poissons Ratio (y) = 0.08057 0.58748
# Poissons Ratio (z) = 0.18560 0.18560
#
# Static dielectric constant tensor:
#      x y z
#    x 3.016580 0.000000 0.000000 
#    y 0.000000 3.016580 0.000000 
#    z 0.000000 0.000000 3.484270 
# 
# 
# High freq. dielectric constant tensor:
#      x y z
#    x 1.643470 0.000000 0.000000 
#    y 0.000000 1.643470 0.000000 
#    z 0.000000 0.000000 1.685560 
# 
# From -- ./inp_files/2503.got.cif
#   From: 2010.06.25/outbox.cif.g09.slc.cpg/sg190_2_cif.got.tgz:2503.got - 2010.06.28 13:08:06.
