data_PCOD8328208
_publ_section_title
;
Structure prediction by ZEFSAII (Michael W. Deem and Ramdas Pophale) SiO2 
 PCOD8328208
Probable space group: P -6 2 C
;
_chemical_formula_sum "Si O2"
_cell_formula_units_Z 52
_cell_length_a 11.869618
_cell_length_b 11.869618
_cell_length_c 19.178525
_cell_angle_alpha 90.000000
_cell_angle_beta 90.000000
_cell_angle_gamma 120.000000
_cell_volume 2340.018653
_symmetry_space_group_name_H-M "P -6 2 C"
_symmetry_group_IT_number 190
_symmetry_cell_setting 'hexagonal'
loop_
_space_group_symop_operation_xyz
x,y,z
-x+y,-x,1/2-z
-y,x-y,z
x,y,1/2-z
-x+y,-x,z
-y,x-y,1/2-z
x-y,-y,-z
-x,-x+y,-z
y,x,-z
y,x,1/2+z
x-y,-y,1/2+z
-x,-x+y,1/2+z
loop_
_atom_site_type_symbol
_atom_site_label
_atom_site_fract_x
_atom_site_fract_y
_atom_site_fract_z
Si Si1 0.666668 0.333335 0.331180
Si Si2 0.137648 0.318381 0.517296
Si Si3 0.030488 0.284569 0.750000
Si Si4 0.536014 0.598727 0.879117
Si Si5 0.772578 0.034617 0.750000
Si Si6 0.635649 0.947839 0.101397
O O1 0.666667 0.333334 0.250000
O O2 0.585851 0.400277 0.355738
O O3 0.098728 0.415645 0.551941
O O4 0.211586 0.386853 0.444984
O O5 0.229338 0.294516 0.569714
O O6 0.000000 0.185206 0.500000
O O7 0.015471 0.356445 0.682169
O O8 0.165916 0.285771 0.750000
O O9 0.927754 0.130301 0.750000
O O10 0.493477 0.453003 0.903417
O O11 0.721422 0.072894 0.817703
#
# Coordination Sequence:
#
# PCOD8328208 Si02
#       6
#     4  12   6  12   6  12
#     4  12  21  36  69 108 144 181 263 310 372 420
#     4  11  25  45  68 103 148 191 235 304 371 445
#     4  12  24  42  74 106 150 196 248 315 367 453
#     4  12  23  43  73 106 142 200 244 308 377 439
#     4  12  24  48  66 108 140 188 252 309 367 437
#     4  11  26  46  71 108 144 188 256 305 363 463
#
# _framework density 22.222047
#
# number of rings (size 3 to 8) (size 9 to 14) (size 15 to 20)
#    0.000    0.462    5.769    2.308    3.231    0.000 
#    5.538    0.000    0.000    6.462    0.000    0.000 
#    0.000    0.000    0.000    0.000    0.000    0.000 
#
# Total GULP energy -644561.820156 kJ/mol
# GULP energy per Si atom -12395.419618 kJ/mol
# Density = 2.217147 g / cm^3
# Si number density = 22.222047 Si / 1000 Ang^3
#
#
#
# Elastic Constant Matrix: (Units=GPa)
#
#
# Indices 1 2 3 4 5 6 
#
# 1 110.2626 30.4933 56.7285 0.0000 0.0000 0.0000
# 2 30.4933 110.2622 56.7286 0.0000 0.0000 0.0000
# 3 56.7285 56.7286 193.0571 0.0000 0.0001 0.0001
# 4 0.0000 0.0000 0.0000 40.8658 0.0000 0.0000
# 5 0.0000 0.0000 0.0001 0.0000 40.8660 0.0000
# 6 0.0000 0.0000 0.0001 0.0000 0.0000 39.8846
#
#
#
# Elastic Compliance Matrix: (Units=1/GPa)
#
#
# Indices 1 2 3 4 5 6 
#
# 1 0.010923 -0.001613 -0.002736 0.000000 0.000000 0.000000
# 2 -0.001613 0.010923 -0.002736 0.000000 0.000000 0.000000
# 3 -0.002736 -0.002736 0.006787 0.000000 0.000000 0.000000
# 4 0.000000 0.000000 0.000000 0.024470 0.000000 0.000000
# 5 0.000000 0.000000 0.000000 0.000000 0.024470 0.000000
# 6 0.000000 0.000000 0.000000 0.000000 0.000000 0.025072
#
#
# Mechanical properties :
#
#
# Convention : Reuss Voigt Hill
#
# Bulk Modulus (GPa) = 69.13566 77.94253 73.53910
# Shear Modulus (GPa) = 41.10616 42.29872 41.70244
#
# Velocity S-wave (km/s) = 4.30559 4.36760 4.33670
# Velocity P-wave (km/s) = 7.47638 7.78364 7.63156
#
# Compressibility (1/GPa) = 0.01446431
#
# Stress axis : x y z
#
# Youngs Moduli (GPa) = 91.55148 91.55105 147.33065
#
# Poissons Ratio (x) = 0.14770 0.40303
# Poissons Ratio (y) = 0.14770 0.40303
# Poissons Ratio (z) = 0.25044 0.25044
#
# Static dielectric constant tensor:
#      x y z
#    x 3.930940 0.000000 0.000000 
#    y 0.000000 3.930930 -0.000010 
#    z 0.000000 -0.000010 4.389200 
# 
# 
# High freq. dielectric constant tensor:
#      x y z
#    x 1.865420 0.000000 0.000000 
#    y 0.000000 1.865420 0.000000 
#    z 0.000000 0.000000 1.901230 
# 
# From -- ./inp_files/4232.got.cif
#   From: 2010.06.25/outbox.cif.g09.slc.cpg/sg190_3_cif.got.tgz:4232.got - 2010.06.28 13:08:06.
