data_PCOD8328489
_publ_section_title
;
Structure prediction by ZEFSAII (Michael W. Deem and Ramdas Pophale) SiO2 
 PCOD8328489
Probable space group: P 6/M M M
;
_chemical_formula_sum "Si O2"
_cell_formula_units_Z 120
_cell_length_a 28.437495
_cell_length_b 28.437495
_cell_length_c 10.691215
_cell_angle_alpha 90.000000
_cell_angle_beta 90.000000
_cell_angle_gamma 120.000000
_cell_volume 7487.560943
_symmetry_space_group_name_H-M "P 6/M M M"
_symmetry_group_IT_number 191
_symmetry_cell_setting 'hexagonal'
loop_
_space_group_symop_operation_xyz
x,y,z
x-y,x,z
-y,x-y,z
-x,-y,z
-x+y,-x,z
y,-x+y,z
x-y,-y,-z
-x,-x+y,-z
y,x,-z
-y,-x,-z
-x+y,y,-z
x,x-y,-z
-x,-y,-z
-x+y,-x,-z
y,-x+y,-z
x,y,-z
x-y,x,-z
-y,x-y,-z
-x+y,y,z
x,x-y,z
-y,-x,z
y,x,z
x-y,-y,z
-x,-x+y,z
loop_
_atom_site_type_symbol
_atom_site_label
_atom_site_fract_x
_atom_site_fract_y
_atom_site_fract_z
Si Si1 0.234715 0.063179 0.000000
Si Si2 0.628347 0.148398 0.000000
Si Si3 0.253384 0.856464 0.636682
Si Si4 0.747465 0.061307 0.195751
Si Si5 0.438994 0.773618 0.500000
Si Si6 0.690949 0.197788 0.247380
Si Si7 0.061300 0.666764 0.000000
O O1 0.272924 0.074427 0.120043
O O2 0.212779 0.106390 0.000000
O O3 0.184978 0.000000 0.000000
O O4 0.654714 0.184594 0.123570
O O5 0.564029 0.128057 0.000000
O O6 0.639034 0.098214 0.000000
O O7 0.281604 0.875197 0.500000
O O8 0.199784 0.800217 0.618973
O O9 0.236943 0.899747 0.685402
O O10 0.291409 0.847681 0.734651
O O11 0.718889 0.000000 0.244029
O O12 0.705375 0.071705 0.117910
O O13 0.374711 0.749421 0.500000
O O14 0.454266 0.727133 0.500000
O O15 0.463432 0.807284 0.627947
O O16 0.742044 0.257957 0.230345
O O17 0.000000 0.617032 0.000000
#
# Coordination Sequence:
#
# PCOD8328489 Si02
#       7
#    12  12  24  24  12  24  12
#     4   9  17  29  47  73 102 135 171 207 246 286
#     4  12  22  33  50  71  91 118 153 192 241 289
#     4  10  18  29  47  70  93 120 156 191 227 276
#     4   9  17  30  47  68  97 125 155 194 236 283
#     4  10  19  34  52  68  89 117 149 185 234 293
#     4  10  20  34  49  70  94 115 147 193 238 287
#     4   9  18  32  47  65  89 116 150 192 228 273
#
# _framework density 16.026581
#
# number of rings (size 3 to 8) (size 9 to 14) (size 15 to 20)
#    0.000    2.200    3.000    2.800    0.000    0.600 
#    0.000    0.000    0.000    2.900    0.000    0.000 
#    0.000    6.400    0.000    0.000    0.000    0.000 
#
# Total GULP energy -1486976.021379 kJ/mol
# GULP energy per Si atom -12391.466845 kJ/mol
# Density = 1.599010 g / cm^3
# Si number density = 16.026581 Si / 1000 Ang^3
#
#
#
# Elastic Constant Matrix: (Units=GPa)
#
#
# Indices 1 2 3 4 5 6 
#
# 1 75.7132 30.4836 27.2380 0.0000 0.0000 0.0000
# 2 30.4836 75.7132 27.2380 0.0000 0.0000 0.0000
# 3 27.2380 27.2380 95.4983 0.0000 0.0000 0.0000
# 4 0.0000 0.0000 0.0000 17.0765 0.0000 0.0000
# 5 0.0000 0.0000 0.0000 0.0000 17.0765 0.0000
# 6 0.0000 0.0000 0.0000 0.0000 0.0000 22.6148
#
#
#
# Elastic Compliance Matrix: (Units=1/GPa)
#
#
# Indices 1 2 3 4 5 6 
#
# 1 0.016570 -0.005540 -0.003146 0.000000 0.000000 0.000000
# 2 -0.005540 0.016570 -0.003146 0.000000 0.000000 0.000000
# 3 -0.003146 -0.003146 0.012266 0.000000 0.000000 0.000000
# 4 0.000000 0.000000 0.000000 0.058560 0.000000 0.000000
# 5 0.000000 0.000000 0.000000 0.000000 0.058560 0.000000
# 6 0.000000 0.000000 0.000000 0.000000 0.000000 0.044219
#
#
# Mechanical properties :
#
#
# Convention : Reuss Voigt Hill
#
# Bulk Modulus (GPa) = 45.99304 46.31597 46.15451
# Shear Modulus (GPa) = 21.03888 22.15125 21.59507
#
# Velocity S-wave (km/s) = 3.62712 3.72177 3.67475
# Velocity P-wave (km/s) = 6.80453 6.88702 6.84590
#
# Compressibility (1/GPa) = 0.02174242
#
# Stress axis : x y z
#
# Youngs Moduli (GPa) = 60.35054 60.35054 81.52602
#
# Poissons Ratio (x) = 0.33431 0.25649
# Poissons Ratio (y) = 0.33431 0.25649
# Poissons Ratio (z) = 0.18987 0.18987
#
# Static dielectric constant tensor:
#      x y z
#    x 2.862960 0.000000 0.000000 
#    y 0.000000 2.862960 0.000000 
#    z 0.000000 0.000000 3.167290 
# 
# 
# High freq. dielectric constant tensor:
#      x y z
#    x 1.596740 0.000000 0.000000 
#    y 0.000000 1.596740 0.000000 
#    z 0.000000 0.000000 1.621780 
# 
# From -- ./inp_files/3304.got.cif
#   From: 2010.03.12/outbox.cif.g09.slc.cpg/sg191_2_cif.got.tgz:3304.got - 2010.04.01 12:09:02.
