data_PCOD8328948
_publ_section_title
;
Structure prediction by ZEFSAII (Michael W. Deem and Ramdas Pophale) SiO2 
 PCOD8328948
Probable space group: P 6/M M M
;
_chemical_formula_sum "Si O2"
_cell_formula_units_Z 144
_cell_length_a 22.139373
_cell_length_b 22.139373
_cell_length_c 20.324055
_cell_angle_alpha 90.000000
_cell_angle_beta 90.000000
_cell_angle_gamma 120.000000
_cell_volume 8627.234992
_symmetry_space_group_name_H-M "P 6/M M M"
_symmetry_group_IT_number 191
_symmetry_cell_setting 'hexagonal'
loop_
_space_group_symop_operation_xyz
x,y,z
x-y,x,z
-y,x-y,z
-x,-y,z
-x+y,-x,z
y,-x+y,z
x-y,-y,-z
-x,-x+y,-z
y,x,-z
-y,-x,-z
-x+y,y,-z
x,x-y,-z
-x,-y,-z
-x+y,-x,-z
y,-x+y,-z
x,y,-z
x-y,x,-z
-y,x-y,-z
-x+y,y,z
x,x-y,z
-y,-x,z
y,x,z
x-y,-y,z
-x,-x+y,z
loop_
_atom_site_type_symbol
_atom_site_label
_atom_site_fract_x
_atom_site_fract_y
_atom_site_fract_z
Si Si1 0.535549 0.333420 0.923516
Si Si2 0.418868 0.277308 0.391532
Si Si3 0.708853 0.922313 0.924886
Si Si4 0.223332 0.304232 0.500000
Si Si5 0.337026 0.920397 0.140538
Si Si6 0.331668 0.532503 0.500000
Si Si7 0.610006 0.527989 0.278558
O O1 0.518199 0.259100 0.892166
O O2 0.605900 0.394101 0.890123
O O3 0.473496 0.349238 0.913469
O O4 0.547966 0.332434 0.000000
O O5 0.410357 0.205179 0.362795
O O6 0.350345 0.259137 0.434677
O O7 0.486463 0.314879 0.435983
O O8 0.434392 0.332522 0.334679
O O9 0.734342 0.867171 0.909851
O O10 0.649838 0.910519 0.871905
O O11 0.774876 0.000000 0.916158
O O12 0.679609 0.912697 0.000000
O O13 0.239472 0.239472 0.500000
O O14 0.139615 0.279230 0.500000
O O15 0.344833 0.892738 0.211615
O O16 0.396101 0.000000 0.129772
O O17 0.412559 0.587442 0.500000
O O18 0.284873 0.569746 0.500000
O O19 0.556628 0.443373 0.285696
O O20 0.562637 0.562637 0.278915
#
# Coordination Sequence:
#
# PCOD8328948 Si02
#       7
#    24  24  24  12  24  12  24
#     4  10  20  33  48  64  83 109 143 183 226 272
#     4   9  18  30  46  69  92 117 151 190 227 266
#     4   9  17  30  49  72  96 121 151 188 231 280
#     4   9  17  31  51  74  99 124 153 189 229 273
#     4  10  20  32  46  66  90 116 149 188 229 274
#     4   9  16  27  43  63  88 116 148 184 221 259
#     4  10  20  33  47  63  88 121 153 186 228 275
#
# _framework density 16.691326
#
# number of rings (size 3 to 8) (size 9 to 14) (size 15 to 20)
#    0.000    2.500    0.000    3.750    0.000    5.333 
#    0.000    0.833    0.000    4.583    0.000    1.167 
#    0.000    0.000    0.000    0.000    0.000   21.667 
#
# Total GULP energy -1784152.746971 kJ/mol
# GULP energy per Si atom -12389.949632 kJ/mol
# Density = 1.665334 g / cm^3
# Si number density = 16.691326 Si / 1000 Ang^3
#
#
#
# Elastic Constant Matrix: (Units=GPa)
#
#
# Indices 1 2 3 4 5 6 
#
# 1 96.1202 49.7499 34.4986 0.0000 0.0000 0.0000
# 2 49.7499 96.1202 34.4986 0.0000 0.0000 0.0000
# 3 34.4986 34.4986 48.5770 0.0000 0.0000 0.0000
# 4 0.0000 0.0000 0.0000 7.2186 0.0000 0.0000
# 5 0.0000 0.0000 0.0000 0.0000 7.2186 0.0000
# 6 0.0000 0.0000 0.0000 0.0000 0.0000 23.1852
#
#
#
# Elastic Compliance Matrix: (Units=1/GPa)
#
#
# Indices 1 2 3 4 5 6 
#
# 1 0.015944 -0.005621 -0.007331 0.000000 0.000000 0.000000
# 2 -0.005621 0.015944 -0.007331 0.000000 0.000000 0.000000
# 3 -0.007331 -0.007331 0.030999 0.000000 0.000000 0.000000
# 4 0.000000 0.000000 0.000000 0.138531 0.000000 0.000000
# 5 0.000000 0.000000 0.000000 0.000000 0.138531 0.000000
# 6 0.000000 0.000000 0.000000 0.000000 0.000000 0.043131
#
#
# Mechanical properties :
#
#
# Convention : Reuss Voigt Hill
#
# Bulk Modulus (GPa) = 44.80280 53.14573 48.97427
# Shear Modulus (GPa) = 11.59856 15.66250 13.63053
#
# Velocity S-wave (km/s) = 2.63893 3.06659 2.86076
# Velocity P-wave (km/s) = 6.01544 6.66694 6.34955
#
# Compressibility (1/GPa) = 0.02232003
#
# Stress axis : x y z
#
# Youngs Moduli (GPa) = 62.71812 62.71812 32.25897
#
# Poissons Ratio (x) = 0.35255 0.23650
# Poissons Ratio (y) = 0.35255 0.23650
# Poissons Ratio (z) = 0.45981 0.45981
#
# Static dielectric constant tensor:
#      x y z
#    x 3.177380 0.000000 0.000000 
#    y 0.000000 3.177380 0.000000 
#    z 0.000000 0.000000 3.044770 
# 
# 
# High freq. dielectric constant tensor:
#      x y z
#    x 1.637260 0.000000 0.000000 
#    y 0.000000 1.637260 0.000000 
#    z 0.000000 0.000000 1.627510 
# 
# From -- ./inp_files/7688.got.cif
#   From: 2010.03.12/outbox.cif.g09.slc.cpg/sg191_4_cif.got.tgz:7688.got - 2010.04.01 12:09:02.
