data_PCOD8328459
_publ_section_title
;
Structure prediction by ZEFSAII (Michael W. Deem and Ramdas Pophale) SiO2 
 PCOD8328459
Probable space group: P 6/M M M
;
_chemical_formula_sum "Si O2"
_cell_formula_units_Z 120
_cell_length_a 18.348505
_cell_length_b 18.348505
_cell_length_c 27.449827
_cell_angle_alpha 90.000000
_cell_angle_beta 90.000000
_cell_angle_gamma 120.000000
_cell_volume 8003.346366
_symmetry_space_group_name_H-M "P 6/M M M"
_symmetry_group_IT_number 191
_symmetry_cell_setting 'hexagonal'
loop_
_space_group_symop_operation_xyz
x,y,z
x-y,x,z
-y,x-y,z
-x,-y,z
-x+y,-x,z
y,-x+y,z
x-y,-y,-z
-x,-x+y,-z
y,x,-z
-y,-x,-z
-x+y,y,-z
x,x-y,-z
-x,-y,-z
-x+y,-x,-z
y,-x+y,-z
x,y,-z
x-y,x,-z
-y,x-y,-z
-x+y,y,z
x,x-y,z
-y,-x,z
y,x,z
x-y,-y,z
-x,-x+y,z
loop_
_atom_site_type_symbol
_atom_site_label
_atom_site_fract_x
_atom_site_fract_y
_atom_site_fract_z
Si Si1 0.906306 0.366913 0.784555
Si Si2 0.642509 0.904666 0.606156
Si Si3 0.341442 0.091646 0.500000
Si Si4 0.331511 0.833631 0.682856
Si Si5 0.586493 0.000000 0.945050
Si Si6 0.164579 0.668702 0.887088
O O1 0.913399 0.456700 0.782745
O O2 0.862454 0.316060 0.735547
O O3 0.851162 0.316786 0.831082
O O4 0.000000 0.380126 0.788855
O O5 0.672558 0.836279 0.616757
O O6 0.606215 0.893585 0.550350
O O7 0.567651 0.890125 0.641677
O O8 0.720137 0.000000 0.613964
O O9 0.300130 0.150065 0.500000
O O10 0.260948 0.000000 0.500000
O O11 0.423823 0.847646 0.677804
O O12 0.264142 0.735859 0.675350
O O13 0.656190 0.084459 0.918245
O O14 0.500000 0.000000 0.943918
O O15 0.616879 0.000000 0.000000
O O16 0.178746 0.589373 0.893076
O O17 0.248135 0.751866 0.905646
#
# Coordination Sequence:
#
# PCOD8328459 Si02
#       6
#    24  24  12  24  12  24
#     4   9  16  27  42  60  84 114 143 173 212 257
#     4   9  17  29  45  64  84 109 140 176 217 262
#     4   8  14  26  43  60  79 103 135 173 214 260
#     4  10  19  29  42  61  87 116 147 182 219 255
#     4   9  18  32  46  60  84 116 147 182 224 260
#     4  10  18  29  45  65  88 116 151 186 219 258
#
# _framework density 14.993728000000001
#
# number of rings (size 3 to 8) (size 9 to 14) (size 15 to 20)
#    0.000    2.700    1.000    1.600    0.000    1.600 
#    0.000    2.500    0.000    3.300    0.000    4.200 
#    0.000    0.000    0.000    0.300    0.000    1.500 
#
# Total GULP energy -1486937.390187 kJ/mol
# GULP energy per Si atom -12391.144918 kJ/mol
# Density = 1.495960 g / cm^3
# Si number density = 14.993728 Si / 1000 Ang^3
#
#
#
# Elastic Constant Matrix: (Units=GPa)
#
#
# Indices 1 2 3 4 5 6 
#
# 1 70.6836 41.1788 42.3089 0.0000 0.0000 0.0000
# 2 41.1788 70.6836 42.3089 0.0000 0.0000 0.0000
# 3 42.3089 42.3089 118.5261 0.0000 0.0000 0.0000
# 4 0.0000 0.0000 0.0000 17.9494 0.0000 0.0000
# 5 0.0000 0.0000 0.0000 0.0000 17.9494 0.0000
# 6 0.0000 0.0000 0.0000 0.0000 0.0000 14.7524
#
#
#
# Elastic Compliance Matrix: (Units=1/GPa)
#
#
# Indices 1 2 3 4 5 6 
#
# 1 0.023070 -0.010823 -0.004371 0.000000 0.000000 0.000000
# 2 -0.010823 0.023070 -0.004371 0.000000 0.000000 0.000000
# 3 -0.004371 -0.004371 0.011558 0.000000 0.000000 0.000000
# 4 0.000000 0.000000 0.000000 0.055712 0.000000 0.000000
# 5 0.000000 0.000000 0.000000 0.000000 0.055712 0.000000
# 6 0.000000 0.000000 0.000000 0.000000 0.000000 0.067786
#
#
# Mechanical properties :
#
#
# Convention : Reuss Voigt Hill
#
# Bulk Modulus (GPa) = 53.86567 56.83185 55.34876
# Shear Modulus (GPa) = 17.71623 19.07003 18.39313
#
# Velocity S-wave (km/s) = 3.44114 3.57019 3.50626
# Velocity P-wave (km/s) = 7.19667 7.41492 7.30661
#
# Compressibility (1/GPa) = 0.01856470
#
# Stress axis : x y z
#
# Youngs Moduli (GPa) = 43.34718 43.34718 86.52166
#
# Poissons Ratio (x) = 0.46916 0.37822
# Poissons Ratio (y) = 0.46916 0.37822
# Poissons Ratio (z) = 0.18949 0.18949
#
# Static dielectric constant tensor:
#      x y z
#    x 2.731800 0.000000 0.000000 
#    y 0.000000 2.731800 0.000000 
#    z 0.000000 0.000000 3.216150 
# 
# 
# High freq. dielectric constant tensor:
#      x y z
#    x 1.548620 0.000000 0.000000 
#    y 0.000000 1.548620 0.000000 
#    z 0.000000 0.000000 1.591170 
# 
# From -- ./inp_files/9550.got.cif
#   From: 2010.03.12/outbox.cif.g09.slc.cpg/sg191_5_cif.got.tgz:9550.got - 2010.04.01 12:09:02.
