data_PCOD8328893
_publ_section_title
;
Structure prediction by ZEFSAII (Michael W. Deem and Ramdas Pophale) SiO2 
 PCOD8328893
Probable space group: P 6/M M M
;
_chemical_formula_sum "Si O2"
_cell_formula_units_Z 144
_cell_length_a 21.182121
_cell_length_b 21.182121
_cell_length_c 21.837504
_cell_angle_alpha 90.000000
_cell_angle_beta 90.000000
_cell_angle_gamma 120.000000
_cell_volume 8485.403882
_symmetry_space_group_name_H-M "P 6/M M M"
_symmetry_group_IT_number 191
_symmetry_cell_setting 'hexagonal'
loop_
_space_group_symop_operation_xyz
x,y,z
x-y,x,z
-y,x-y,z
-x,-y,z
-x+y,-x,z
y,-x+y,z
x-y,-y,-z
-x,-x+y,-z
y,x,-z
-y,-x,-z
-x+y,y,-z
x,x-y,-z
-x,-y,-z
-x+y,-x,-z
y,-x+y,-z
x,y,-z
x-y,x,-z
-y,x-y,-z
-x+y,y,z
x,x-y,z
-y,-x,z
y,x,z
x-y,-y,z
-x,-x+y,z
loop_
_atom_site_type_symbol
_atom_site_label
_atom_site_fract_x
_atom_site_fract_y
_atom_site_fract_z
Si Si1 0.913893 0.456947 0.932700
Si Si2 0.780703 0.700855 0.431136
Si Si3 0.182876 0.516637 0.260164
Si Si4 0.571117 0.915268 0.372382
Si Si5 0.695995 0.777326 0.930422
Si Si6 0.466942 0.387759 0.500000
Si Si7 0.914849 0.572423 0.850407
O O1 0.887798 0.505534 0.897002
O O2 0.000000 0.500000 0.939239
O O3 0.877642 0.438821 0.000000
O O4 0.757895 0.665361 0.500000
O O5 0.864766 0.729531 0.417869
O O6 0.771209 0.771209 0.427013
O O7 0.733644 0.644586 0.377476
O O8 0.263160 0.526320 0.264501
O O9 0.190160 0.595080 0.247056
O O10 0.137703 0.483492 0.321842
O O11 0.135948 0.457678 0.208639
O O12 0.530182 0.880806 0.436781
O O13 0.591501 0.000000 0.361972
O O14 0.724964 0.862482 0.918779
O O15 0.763274 0.763274 0.919242
O O16 0.631824 0.730636 0.883203
O O17 0.666238 0.754688 0.000000
O O18 0.391531 0.391531 0.500000
O O19 0.532264 0.467737 0.500000
O O20 0.000000 0.606194 0.831972
#
# Coordination Sequence:
#
# PCOD8328893 Si02
#       7
#    12  24  24  24  24  12  24
#     4   9  16  28  50  80 106 123 149 197 257 314
#     4   9  16  28  47  72 100 127 157 196 244 294
#     4  12  25  39  51  67  95 138 177 209 246 304
#     4  10  19  33  54  77  98 120 156 208 262 308
#     4   9  17  30  50  77 107 137 169 207 252 300
#     4   9  16  28  47  74  99 116 140 188 252 309
#     4  10  19  33  53  77 101 126 162 210 262 309
#
# _framework density 16.970317999999999
#
# number of rings (size 3 to 8) (size 9 to 14) (size 15 to 20)
#    0.000    2.167    1.667    2.667    0.000    3.667 
#    0.000    0.000    0.000    0.333    0.000    3.500 
#    0.000    0.000    0.000    0.000    0.000   34.667 
#
# Total GULP energy -1784531.788800 kJ/mol
# GULP energy per Si atom -12392.581867 kJ/mol
# Density = 1.693169 g / cm^3
# Si number density = 16.970318 Si / 1000 Ang^3
#
#
#
# Elastic Constant Matrix: (Units=GPa)
#
#
# Indices 1 2 3 4 5 6 
#
# 1 93.8266 53.6756 43.3736 0.0000 0.0000 0.0000
# 2 53.6756 93.8266 43.3736 0.0000 0.0000 0.0000
# 3 43.3736 43.3736 105.1446 0.0000 0.0000 0.0000
# 4 0.0000 0.0000 0.0000 26.6625 0.0000 0.0000
# 5 0.0000 0.0000 0.0000 0.0000 26.6625 0.0000
# 6 0.0000 0.0000 0.0000 0.0000 0.0000 20.0755
#
#
#
# Elastic Compliance Matrix: (Units=1/GPa)
#
#
# Indices 1 2 3 4 5 6 
#
# 1 0.016929 -0.007977 -0.003692 0.000000 0.000000 0.000000
# 2 -0.007977 0.016929 -0.003692 0.000000 0.000000 0.000000
# 3 -0.003692 -0.003692 0.012557 0.000000 0.000000 0.000000
# 4 0.000000 0.000000 0.000000 0.037506 0.000000 0.000000
# 5 0.000000 0.000000 0.000000 0.000000 0.037506 0.000000
# 6 0.000000 0.000000 0.000000 0.000000 0.000000 0.049812
#
#
# Mechanical properties :
#
#
# Convention : Reuss Voigt Hill
#
# Bulk Modulus (GPa) = 63.73691 63.73816 63.73753
# Shear Modulus (GPa) = 24.13216 24.83844 24.48530
#
# Velocity S-wave (km/s) = 3.77506 3.82991 3.80258
# Velocity P-wave (km/s) = 7.52601 7.56292 7.54449
#
# Compressibility (1/GPa) = 0.01568950
#
# Stress axis : x y z
#
# Youngs Moduli (GPa) = 59.07176 59.07176 79.63619
#
# Poissons Ratio (x) = 0.47124 0.29405
# Poissons Ratio (y) = 0.47124 0.29405
# Poissons Ratio (z) = 0.21812 0.21812
#
# Static dielectric constant tensor:
#      x y z
#    x 3.080440 0.000000 0.000000 
#    y 0.000000 3.080440 0.000000 
#    z 0.000000 0.000000 3.253480 
# 
# 
# High freq. dielectric constant tensor:
#      x y z
#    x 1.639070 0.000000 0.000000 
#    y 0.000000 1.639070 0.000000 
#    z 0.000000 0.000000 1.654900 
# 
# From -- ./inp_files/7665.got.cif
#   From: 2010.03.12/outbox.cif.g09.slc.cpg/sg191_4_cif.got.tgz:7665.got - 2010.04.01 12:09:02.
