data_PCOD8328598
_publ_section_title
;
Structure prediction by ZEFSAII (Michael W. Deem and Ramdas Pophale) SiO2 
 PCOD8328598
Probable space group: P 6/M M M
;
_chemical_formula_sum "Si O2"
_cell_formula_units_Z 132
_cell_length_a 17.889051
_cell_length_b 17.889051
_cell_length_c 28.305458
_cell_angle_alpha 90.000000
_cell_angle_beta 90.000000
_cell_angle_gamma 120.000000
_cell_volume 7844.683432
_symmetry_space_group_name_H-M "P 6/M M M"
_symmetry_group_IT_number 191
_symmetry_cell_setting 'hexagonal'
loop_
_space_group_symop_operation_xyz
x,y,z
x-y,x,z
-y,x-y,z
-x,-y,z
-x+y,-x,z
y,-x+y,z
x-y,-y,-z
-x,-x+y,-z
y,x,-z
-y,-x,-z
-x+y,y,-z
x,x-y,-z
-x,-y,-z
-x+y,-x,-z
y,-x+y,-z
x,y,-z
x-y,x,-z
-y,x-y,-z
-x+y,y,z
x,x-y,z
-y,-x,z
y,x,z
x-y,-y,z
-x,-x+y,z
loop_
_atom_site_type_symbol
_atom_site_label
_atom_site_fract_x
_atom_site_fract_y
_atom_site_fract_z
Si Si1 0.638496 0.735423 0.054194
Si Si2 0.540903 0.903981 0.399578
Si Si3 0.635138 0.732043 0.220299
Si Si4 0.103116 0.469159 0.500000
Si Si5 0.503495 0.834103 0.699106
Si Si6 0.507034 0.668210 0.865604
O O1 0.672736 0.836368 0.065975
O O2 0.715745 0.715745 0.065185
O O3 0.554765 0.674556 0.085201
O O4 0.608629 0.714349 0.000000
O O5 0.453253 0.906506 0.404912
O O6 0.556388 0.868548 0.450237
O O7 0.534927 0.845607 0.355262
O O8 0.619498 0.000000 0.389532
O O9 0.669324 0.834662 0.219691
O O10 0.716795 0.716795 0.217369
O O11 0.583463 0.687628 0.268084
O O12 0.572655 0.684968 0.176587
O O13 0.144705 0.572353 0.500000
O O14 0.000000 0.423129 0.500000
O O15 0.428439 0.856878 0.706896
O O16 0.469083 0.734542 0.712987
O O17 0.474184 0.737092 0.864078
O O18 0.426669 0.573332 0.860240
#
# Coordination Sequence:
#
# PCOD8328598 Si02
#       6
#    24  24  24  12  24  24
#     4   9  18  32  49  69  93 122 156 194 237 282
#     4   8  13  22  37  54  71  96 135 183 229 269
#     4  10  21  35  51  71  93 117 145 180 222 266
#     4   7  10  18  33  52  70  90 126 179 231 269
#     4  10  19  29  41  59  86 119 153 187 222 259
#     4  10  20  33  49  70  97 128 160 192 225 260
#
# _framework density 16.826682999999999
#
# number of rings (size 3 to 8) (size 9 to 14) (size 15 to 20)
#    0.000    2.818    0.000    3.091    0.000    3.636 
#    0.000    3.182    0.000    1.455    0.000    2.545 
#    0.000    4.364    0.000    0.182    0.000    0.000 
#
# Total GULP energy -1635557.827889 kJ/mol
# GULP energy per Si atom -12390.589605 kJ/mol
# Density = 1.678839 g / cm^3
# Si number density = 16.826683 Si / 1000 Ang^3
#
#
#
# Elastic Constant Matrix: (Units=GPa)
#
#
# Indices 1 2 3 4 5 6 
#
# 1 78.6665 53.6637 35.0210 0.0000 0.0000 0.0000
# 2 53.6637 78.6665 35.0210 0.0000 0.0000 0.0000
# 3 35.0210 35.0210 105.2746 0.0000 0.0000 0.0000
# 4 0.0000 0.0000 0.0000 18.3995 0.0000 0.0000
# 5 0.0000 0.0000 0.0000 0.0000 18.3995 0.0000
# 6 0.0000 0.0000 0.0000 0.0000 0.0000 12.5014
#
#
#
# Elastic Compliance Matrix: (Units=1/GPa)
#
#
# Indices 1 2 3 4 5 6 
#
# 1 0.024584 -0.015412 -0.003051 0.000000 0.000000 0.000000
# 2 -0.015412 0.024584 -0.003051 0.000000 0.000000 0.000000
# 3 -0.003051 -0.003051 0.011529 0.000000 0.000000 0.000000
# 4 0.000000 0.000000 0.000000 0.054349 0.000000 0.000000
# 5 0.000000 0.000000 0.000000 0.000000 0.054349 0.000000
# 6 0.000000 0.000000 0.000000 0.000000 0.000000 0.079991
#
#
# Mechanical properties :
#
#
# Convention : Reuss Voigt Hill
#
# Bulk Modulus (GPa) = 56.59925 56.66878 56.63402
# Shear Modulus (GPa) = 16.76144 19.12020 17.94082
#
# Velocity S-wave (km/s) = 3.15956 3.37457 3.26883
# Velocity P-wave (km/s) = 6.85712 6.99533 6.92657
#
# Compressibility (1/GPa) = 0.01766808
#
# Stress axis : x y z
#
# Youngs Moduli (GPa) = 40.67733 40.67733 86.73801
#
# Poissons Ratio (x) = 0.62692 0.26465
# Poissons Ratio (y) = 0.62692 0.26465
# Poissons Ratio (z) = 0.12411 0.12411
#
# Static dielectric constant tensor:
#      x y z
#    x 2.901220 0.000000 0.000000 
#    y 0.000000 2.901220 0.000000 
#    z 0.000000 0.000000 3.642790 
# 
# 
# High freq. dielectric constant tensor:
#      x y z
#    x 1.614190 0.000000 0.000000 
#    y 0.000000 1.614190 0.000000 
#    z 0.000000 0.000000 1.678650 
# 
# From -- ./inp_files/9842.got.cif
#   From: 2010.03.12/outbox.cif.g09.slc.cpg/sg191_5_cif.got.tgz:9842.got - 2010.04.01 12:09:02.
