data_PCOD8328230
_publ_section_title
;
Structure prediction by ZEFSAII (Michael W. Deem and Ramdas Pophale) SiO2 
 PCOD8328230
Probable space group: P 6/M M M
;
_chemical_formula_sum "Si O2"
_cell_formula_units_Z 180
_cell_length_a 21.721739
_cell_length_b 21.721739
_cell_length_c 28.508473
_cell_angle_alpha 90.000000
_cell_angle_beta 90.000000
_cell_angle_gamma 120.000000
_cell_volume 11649.137451
_symmetry_space_group_name_H-M "P 6/M M M"
_symmetry_group_IT_number 191
_symmetry_cell_setting 'hexagonal'
loop_
_space_group_symop_operation_xyz
x,y,z
x-y,x,z
-y,x-y,z
-x,-y,z
-x+y,-x,z
y,-x+y,z
x-y,-y,-z
-x,-x+y,-z
y,x,-z
-y,-x,-z
-x+y,y,-z
x,x-y,-z
-x,-y,-z
-x+y,-x,-z
y,-x+y,-z
x,y,-z
x-y,x,-z
-y,x-y,-z
-x+y,y,z
x,x-y,z
-y,-x,z
y,x,z
x-y,-y,z
-x,-x+y,z
loop_
_atom_site_type_symbol
_atom_site_label
_atom_site_fract_x
_atom_site_fract_y
_atom_site_fract_z
Si Si1 0.079108 0.783083 0.630658
Si Si2 0.666063 0.186807 0.500000
Si Si3 0.703491 0.151487 0.774043
Si Si4 0.809938 0.335236 0.683377
Si Si5 0.295453 0.849826 0.593538
Si Si6 0.666317 0.479423 0.868919
Si Si7 0.466525 0.079187 0.052456
Si Si8 0.782493 0.703044 0.260797
O O1 0.134921 0.865080 0.617933
O O2 0.092085 0.729633 0.598524
O O3 0.088758 0.767990 0.684832
O O4 0.000000 0.768967 0.620846
O O5 0.736080 0.263921 0.500000
O O6 0.599348 0.198696 0.500000
O O7 0.662973 0.140230 0.545011
O O8 0.770734 0.229267 0.772734
O O9 0.653678 0.142720 0.729661
O O10 0.660965 0.143134 0.821846
O O11 0.729131 0.093598 0.770625
O O12 0.783629 0.391815 0.683153
O O13 0.742317 0.257684 0.683467
O O14 0.857288 0.345960 0.637196
O O15 0.227683 0.772318 0.594595
O O16 0.737483 0.474965 0.871663
O O17 0.600083 0.399918 0.871152
O O18 0.667003 0.528656 0.911577
O O19 0.539152 0.078303 0.054423
O O20 0.402495 0.000000 0.065696
O O21 0.454284 0.099449 0.000000
O O22 0.864660 0.729319 0.248082
O O23 0.767319 0.767319 0.250441
#
# Coordination Sequence:
#
# PCOD8328230 Si02
#       8
#    24  12  24  24  24  24  24  24
#     4   9  16  29  50  71  89 111 141 174 208 250
#     4  10  19  30  45  65  88 113 146 190 235 269
#     4   9  17  28  40  58  85 116 147 178 212 251
#     4  10  17  26  40  57  79 108 145 185 224 264
#     4   9  17  29  44  62  84 113 146 180 217 258
#     4  10  19  29  42  62  89 118 147 184 231 278
#     4   8  15  29  46  60  76 104 143 183 222 268
#     4   9  16  28  47  68  89 113 143 178 215 257
#
# _framework density 15.451788000000001
#
# number of rings (size 3 to 8) (size 9 to 14) (size 15 to 20)
#    0.000    2.800    1.333    1.533    0.000    0.800 
#    0.000    3.000    0.000    5.067    0.000    1.867 
#    0.000    0.000    0.000    0.000    0.000    7.867 
#
# Total GULP energy -2231006.711953 kJ/mol
# GULP energy per Si atom -12394.481733 kJ/mol
# Density = 1.541662 g / cm^3
# Si number density = 15.451788 Si / 1000 Ang^3
#
#
#
# Elastic Constant Matrix: (Units=GPa)
#
#
# Indices 1 2 3 4 5 6 
#
# 1 70.5927 38.7906 42.9373 0.0000 0.0000 0.0000
# 2 38.7906 70.5927 42.9373 0.0000 0.0000 0.0000
# 3 42.9373 42.9373 112.1737 0.0000 0.0000 0.0000
# 4 0.0000 0.0000 0.0000 17.4923 0.0000 0.0000
# 5 0.0000 0.0000 0.0000 0.0000 17.4923 0.0000
# 6 0.0000 0.0000 0.0000 0.0000 0.0000 15.9010
#
#
#
# Elastic Compliance Matrix: (Units=1/GPa)
#
#
# Indices 1 2 3 4 5 6 
#
# 1 0.022257 -0.009187 -0.005003 0.000000 0.000000 0.000000
# 2 -0.009187 0.022257 -0.005003 0.000000 0.000000 0.000000
# 3 -0.005003 -0.005003 0.012745 0.000000 0.000000 0.000000
# 4 0.000000 0.000000 0.000000 0.057168 0.000000 0.000000
# 5 0.000000 0.000000 0.000000 0.000000 0.057168 0.000000
# 6 0.000000 0.000000 0.000000 0.000000 0.000000 0.062889
#
#
# Mechanical properties :
#
#
# Convention : Reuss Voigt Hill
#
# Bulk Modulus (GPa) = 52.98571 55.85438 54.42005
# Shear Modulus (GPa) = 17.91084 18.75673 18.33378
#
# Velocity S-wave (km/s) = 3.40831 3.48787 3.44832
# Velocity P-wave (km/s) = 7.06075 7.24198 7.15194
#
# Compressibility (1/GPa) = 0.01887301
#
# Stress axis : x y z
#
# Youngs Moduli (GPa) = 44.92941 44.92942 78.46456
#
# Poissons Ratio (x) = 0.41278 0.39254
# Poissons Ratio (y) = 0.41278 0.39254
# Poissons Ratio (z) = 0.22477 0.22477
#
# Static dielectric constant tensor:
#      x y z
#    x 2.765230 0.000000 0.000000 
#    y 0.000000 2.765230 0.000000 
#    z 0.000000 0.000000 3.239110 
# 
# 
# High freq. dielectric constant tensor:
#      x y z
#    x 1.567890 0.000000 0.000000 
#    y 0.000000 1.567890 0.000000 
#    z 0.000000 0.000000 1.589980 
# 
# From -- ./inp_files/10867.got.cif
#   From: 2010.03.12/outbox.cif.g09.slc.cpg/sg191_6_cif.got.tgz:10867.got - 2010.04.01 12:09:02.
