data_PCOD8328360
_publ_section_title
;
Structure prediction by ZEFSAII (Michael W. Deem and Ramdas Pophale) SiO2 
 PCOD8328360
Probable space group: P 6/M M M
;
_chemical_formula_sum "Si O2"
_cell_formula_units_Z 192
_cell_length_a 24.549426
_cell_length_b 24.549426
_cell_length_c 23.257279
_cell_angle_alpha 90.000000
_cell_angle_beta 90.000000
_cell_angle_gamma 120.000000
_cell_volume 12138.701134
_symmetry_space_group_name_H-M "P 6/M M M"
_symmetry_group_IT_number 191
_symmetry_cell_setting 'hexagonal'
loop_
_space_group_symop_operation_xyz
x,y,z
x-y,x,z
-y,x-y,z
-x,-y,z
-x+y,-x,z
y,-x+y,z
x-y,-y,-z
-x,-x+y,-z
y,x,-z
-y,-x,-z
-x+y,y,-z
x,x-y,-z
-x,-y,-z
-x+y,-x,-z
y,-x+y,-z
x,y,-z
x-y,x,-z
-y,x-y,-z
-x+y,y,z
x,x-y,z
-y,-x,z
y,x,z
x-y,-y,z
-x,-x+y,z
loop_
_atom_site_type_symbol
_atom_site_label
_atom_site_fract_x
_atom_site_fract_y
_atom_site_fract_z
Si Si1 0.930613 0.296280 0.834034
Si Si2 0.664824 0.454698 0.140983
Si Si3 0.194149 0.265507 0.757847
Si Si4 0.153232 0.718546 0.936611
Si Si5 0.401675 0.475451 0.645593
Si Si6 0.928389 0.194723 0.376363
Si Si7 0.387723 0.491301 0.773590
Si Si8 0.380054 0.305589 0.564269
O O1 0.906679 0.238459 0.789533
O O2 0.891099 0.272284 0.892228
O O3 0.933133 0.357257 0.804850
O O4 0.000000 0.315775 0.853641
O O5 0.732792 0.465584 0.152154
O O6 0.616594 0.383407 0.123077
O O7 0.665517 0.498356 0.088805
O O8 0.646090 0.472486 0.201128
O O9 0.120919 0.241837 0.772931
O O10 0.211681 0.211681 0.775082
O O11 0.206922 0.280529 0.690794
O O12 0.216292 0.783709 0.942707
O O13 0.121985 0.696864 0.000000
O O14 0.456575 0.543426 0.622564
O O15 0.429763 0.429763 0.656783
O O16 0.373929 0.482526 0.705872
O O17 0.344049 0.444716 0.600459
O O18 0.878585 0.121416 0.391838
O O19 0.905932 0.238271 0.408161
O O20 0.000000 0.213272 0.394646
O O21 0.463890 0.536111 0.784051
O O22 0.397568 0.294804 0.500000
O O23 0.347231 0.347231 0.562256
#
# Coordination Sequence:
#
# PCOD8328360 Si02
#       8
#    24  24  24  24  24  24  24  24
#     4  10  18  27  43  64  84 109 142 176 207 244
#     4   9  17  29  45  62  78  98 128 169 214 256
#     4   9  17  29  46  68  91 114 143 180 220 261
#     4   9  18  31  43  56  79 109 136 164 202 246
#     4   9  16  26  41  59  81 111 142 169 199 242
#     4   9  17  29  45  64  87 115 145 179 220 265
#     4   9  17  28  41  59  84 111 138 170 210 255
#     4   9  17  28  41  59  84 111 140 175 212 250
#
# _framework density 15.817178
#
# number of rings (size 3 to 8) (size 9 to 14) (size 15 to 20)
#    0.000    2.875    0.000    1.625    0.000    4.250 
#    0.000    1.875    0.000    1.000    0.000    5.250 
#    0.000    0.000    0.000    3.500    0.000    5.375 
#
# Total GULP energy -2379202.600759 kJ/mol
# GULP energy per Si atom -12391.680212 kJ/mol
# Density = 1.578118 g / cm^3
# Si number density = 15.817178 Si / 1000 Ang^3
#
#
#
# Elastic Constant Matrix: (Units=GPa)
#
#
# Indices 1 2 3 4 5 6 
#
# 1 71.8220 35.1291 42.8196 0.0000 0.0000 0.0000
# 2 35.1291 71.8220 42.8196 0.0000 0.0000 0.0000
# 3 42.8196 42.8196 99.9485 0.0000 0.0000 0.0000
# 4 0.0000 0.0000 0.0000 16.5707 0.0000 0.0000
# 5 0.0000 0.0000 0.0000 0.0000 16.5707 0.0000
# 6 0.0000 0.0000 0.0000 0.0000 0.0000 18.3464
#
#
#
# Elastic Compliance Matrix: (Units=1/GPa)
#
#
# Indices 1 2 3 4 5 6 
#
# 1 0.020743 -0.006510 -0.006097 0.000000 0.000000 0.000000
# 2 -0.006510 0.020743 -0.006097 0.000000 0.000000 0.000000
# 3 -0.006097 -0.006097 0.015230 0.000000 0.000000 0.000000
# 4 0.000000 0.000000 0.000000 0.060348 0.000000 0.000000
# 5 0.000000 0.000000 0.000000 0.000000 0.060348 0.000000
# 6 0.000000 0.000000 0.000000 0.000000 0.000000 0.054507
#
#
# Mechanical properties :
#
#
# Convention : Reuss Voigt Hill
#
# Bulk Modulus (GPa) = 51.80043 53.90326 52.85184
# Shear Modulus (GPa) = 18.13155 18.48583 18.30869
#
# Velocity S-wave (km/s) = 3.38941 3.42236 3.40592
# Velocity P-wave (km/s) = 6.93816 7.05476 6.99670
#
# Compressibility (1/GPa) = 0.01930486
#
# Stress axis : x y z
#
# Youngs Moduli (GPa) = 48.20934 48.20934 65.66143
#
# Poissons Ratio (x) = 0.31386 0.40037
# Poissons Ratio (y) = 0.31386 0.40037
# Poissons Ratio (z) = 0.29395 0.29395
#
# Static dielectric constant tensor:
#      x y z
#    x 2.993850 0.000000 0.000000 
#    y 0.000000 2.993850 0.000000 
#    z 0.000000 0.000000 3.112260 
# 
# 
# High freq. dielectric constant tensor:
#      x y z
#    x 1.592340 0.000000 0.000000 
#    y 0.000000 1.592340 0.000000 
#    z 0.000000 0.000000 1.603310 
# 
# From -- ./inp_files/9291.got.cif
#   From: 2010.03.12/outbox.cif.g09.slc.cpg/sg191_5_cif.got.tgz:9291.got - 2010.04.01 12:09:02.
