data_PCOD8328992
_publ_section_title
;
Structure prediction by ZEFSAII (Michael W. Deem and Ramdas Pophale) SiO2 
 PCOD8328992
Probable space group: P 6/M M M
;
_chemical_formula_sum "Si O2"
_cell_formula_units_Z 156
_cell_length_a 21.877261
_cell_length_b 21.877261
_cell_length_c 21.571837
_cell_angle_alpha 90.000000
_cell_angle_beta 90.000000
_cell_angle_gamma 120.000000
_cell_volume 8941.361583
_symmetry_space_group_name_H-M "P 6/M M M"
_symmetry_group_IT_number 191
_symmetry_cell_setting 'hexagonal'
loop_
_space_group_symop_operation_xyz
x,y,z
x-y,x,z
-y,x-y,z
-x,-y,z
-x+y,-x,z
y,-x+y,z
x-y,-y,-z
-x,-x+y,-z
y,x,-z
-y,-x,-z
-x+y,y,-z
x,x-y,-z
-x,-y,-z
-x+y,-x,-z
y,-x+y,-z
x,y,-z
x-y,x,-z
-y,x-y,-z
-x+y,y,z
x,x-y,z
-y,-x,z
y,x,z
x-y,-y,z
-x,-x+y,z
loop_
_atom_site_type_symbol
_atom_site_label
_atom_site_fract_x
_atom_site_fract_y
_atom_site_fract_z
Si Si1 0.854724 0.289617 0.431781
Si Si2 0.469470 0.666512 0.926445
Si Si3 0.785682 0.081088 0.000000
Si Si4 0.305155 0.919695 0.750593
Si Si5 0.079939 0.385310 0.109317
Si Si6 0.920529 0.218251 0.359724
Si Si7 0.522242 0.187999 0.315254
O O1 0.876368 0.325516 0.500000
O O2 0.780600 0.219401 0.435555
O O3 0.912238 0.268762 0.409438
O O4 0.847223 0.341391 0.383101
O O5 0.478555 0.739278 0.900105
O O6 0.396734 0.603267 0.900163
O O7 0.531629 0.655635 0.901336
O O8 0.469252 0.666581 0.000000
O O9 0.757978 0.101922 0.938921
O O10 0.870473 0.129528 0.000000
O O11 0.766079 0.000000 0.000000
O O12 0.276149 0.908432 0.820721
O O13 0.239198 0.905286 0.707765
O O14 0.332104 0.864886 0.735636
O O15 0.369468 0.000000 0.740775
O O16 0.000000 0.364823 0.096583
O O17 0.864489 0.135512 0.371317
O O18 0.000000 0.231377 0.364985
O O19 0.598331 0.196661 0.303114
O O20 0.528080 0.264040 0.310052
#
# Coordination Sequence:
#
# PCOD8328992 Si02
#       7
#    24  24  12  24  24  24  24
#     4   8  15  29  48  69  94 125 161 200 239 278
#     4  10  20  33  48  66  91 124 159 193 232 283
#     4  10  20  34  53  78 105 129 155 191 238 290
#     4   9  19  35  53  71  93 123 161 206 251 292
#     4  10  20  34  53  76  97 120 155 202 255 299
#     4   9  17  30  49  73  99 128 162 200 242 287
#     4  10  20  33  49  71 100 133 167 203 245 296
#
# _framework density 17.447005999999998
#
# number of rings (size 3 to 8) (size 9 to 14) (size 15 to 20)
#    0.000    2.615    0.769    2.154    0.000    4.923 
#    0.000    2.308    0.000    3.000    0.000    4.308 
#    0.000    0.000    0.000   11.538    0.000    0.000 
#
# Total GULP energy -1933889.088857 kJ/mol
# GULP energy per Si atom -12396.724929 kJ/mol
# Density = 1.740730 g / cm^3
# Si number density = 17.447006 Si / 1000 Ang^3
#
#
#
# Elastic Constant Matrix: (Units=GPa)
#
#
# Indices 1 2 3 4 5 6 
#
# 1 91.4629 49.7051 25.2506 0.0000 0.0000 0.0000
# 2 49.7051 91.4629 25.2506 0.0000 0.0000 0.0000
# 3 25.2506 25.2506 94.4285 0.0000 0.0000 0.0000
# 4 0.0000 0.0000 0.0000 15.4823 0.0000 0.0000
# 5 0.0000 0.0000 0.0000 0.0000 15.4823 0.0000
# 6 0.0000 0.0000 0.0000 0.0000 0.0000 20.8789
#
#
#
# Elastic Compliance Matrix: (Units=1/GPa)
#
#
# Indices 1 2 3 4 5 6 
#
# 1 0.015890 -0.008057 -0.002095 0.000000 0.000000 0.000000
# 2 -0.008057 0.015890 -0.002095 0.000000 0.000000 0.000000
# 3 -0.002095 -0.002095 0.011710 0.000000 0.000000 0.000000
# 4 0.000000 0.000000 0.000000 0.064590 0.000000 0.000000
# 5 0.000000 0.000000 0.000000 0.000000 0.064590 0.000000
# 6 0.000000 0.000000 0.000000 0.000000 0.000000 0.047895
#
#
# Mechanical properties :
#
#
# Convention : Reuss Voigt Hill
#
# Bulk Modulus (GPa) = 52.63714 53.08520 52.86117
# Shear Modulus (GPa) = 19.88927 22.17855 21.03391
#
# Velocity S-wave (km/s) = 3.38002 3.56925 3.47593
# Velocity P-wave (km/s) = 6.74299 6.89048 6.81713
#
# Compressibility (1/GPa) = 0.01899799
#
# Stress axis : x y z
#
# Youngs Moduli (GPa) = 62.93124 62.93124 85.39537
#
# Poissons Ratio (x) = 0.50705 0.17887
# Poissons Ratio (y) = 0.50705 0.17887
# Poissons Ratio (z) = 0.13182 0.13182
#
# Static dielectric constant tensor:
#      x y z
#    x 3.118840 0.000000 0.000000 
#    y 0.000000 3.118840 0.000000 
#    z 0.000000 0.000000 3.548000 
# 
# 
# High freq. dielectric constant tensor:
#      x y z
#    x 1.656570 0.000000 0.000000 
#    y 0.000000 1.656570 0.000000 
#    z 0.000000 0.000000 1.680900 
# 
# From -- ./inp_files/7714.got.cif
#   From: 2010.03.12/outbox.cif.g09.slc.cpg/sg191_4_cif.got.tgz:7714.got - 2010.04.01 12:09:02.
