data_PCOD8328302
_publ_section_title
;
Structure prediction by ZEFSAII (Michael W. Deem and Ramdas Pophale) SiO2 
 PCOD8328302
Probable space group: P 6/M M M
;
_chemical_formula_sum "Si O2"
_cell_formula_units_Z 132
_cell_length_a 18.976180
_cell_length_b 18.976180
_cell_length_c 28.021827
_cell_angle_alpha 90.000000
_cell_angle_beta 90.000000
_cell_angle_gamma 120.000000
_cell_volume 8738.656365
_symmetry_space_group_name_H-M "P 6/M M M"
_symmetry_group_IT_number 191
_symmetry_cell_setting 'hexagonal'
loop_
_space_group_symop_operation_xyz
x,y,z
x-y,x,z
-y,x-y,z
-x,-y,z
-x+y,-x,z
y,-x+y,z
x-y,-y,-z
-x,-x+y,-z
y,x,-z
-y,-x,-z
-x+y,y,-z
x,x-y,-z
-x,-y,-z
-x+y,-x,-z
y,-x+y,-z
x,y,-z
x-y,x,-z
-y,x-y,-z
-x+y,y,z
x,x-y,z
-y,-x,z
y,x,z
x-y,-y,z
-x,-x+y,z
loop_
_atom_site_type_symbol
_atom_site_label
_atom_site_fract_x
_atom_site_fract_y
_atom_site_fract_z
Si Si1 0.171829 0.503030 0.191160
Si Si2 0.538084 0.908104 0.904758
Si Si3 0.173131 0.668849 0.000000
Si Si4 0.371393 0.909539 0.713758
Si Si5 0.331739 0.828954 0.615695
Si Si6 0.655581 0.907696 0.555996
O O1 0.266605 0.533209 0.193724
O O2 0.160864 0.580432 0.191141
O O3 0.134374 0.452194 0.142636
O O4 0.126734 0.447720 0.237336
O O5 0.451007 0.902013 0.904829
O O6 0.548604 0.866342 0.952333
O O7 0.610512 0.000000 0.904516
O O8 0.268843 0.731157 0.000000
O O9 0.157129 0.578565 0.000000
O O10 0.456691 0.913382 0.718445
O O11 0.322201 0.853090 0.669409
O O12 0.385714 0.000000 0.705928
O O13 0.421399 0.842797 0.605466
O O14 0.265678 0.734323 0.607986
O O15 0.315488 0.885719 0.580276
O O16 0.639625 0.902810 0.500000
O O17 0.682963 0.841482 0.571054
O O18 0.724973 0.000000 0.570564
#
# Coordination Sequence:
#
# PCOD8328302 Si02
#       6
#    24  24  12  24  24  24
#     4  10  18  27  39  55  75  97 123 158 202 246
#     4   9  17  28  40  52  68  93 123 152 184 226
#     4  10  18  27  39  55  74  93 116 150 193 234
#     4   9  17  28  41  56  75 102 136 172 209 249
#     4  10  19  30  44  63  88 117 149 184 220 255
#     4   9  18  32  49  68  89 114 144 178 217 261
#
# _framework density 15.105297
#
# number of rings (size 3 to 8) (size 9 to 14) (size 15 to 20)
#    0.000    2.545    0.000    2.909    0.000    4.727 
#    0.000    4.545    0.000    1.273    0.000    1.273 
#    0.000    0.000    0.000    0.000    0.000    0.000 
#
# Total GULP energy -1636227.984462 kJ/mol
# GULP energy per Si atom -12395.666549 kJ/mol
# Density = 1.507092 g / cm^3
# Si number density = 15.105297 Si / 1000 Ang^3
#
#
#
# Elastic Constant Matrix: (Units=GPa)
#
#
# Indices 1 2 3 4 5 6 
#
# 1 59.4555 35.8245 33.3709 0.0000 0.0000 0.0000
# 2 35.8245 59.4555 33.3709 0.0000 0.0000 0.0000
# 3 33.3709 33.3709 77.1850 0.0000 0.0000 0.0000
# 4 0.0000 0.0000 0.0000 18.8556 0.0000 0.0000
# 5 0.0000 0.0000 0.0000 0.0000 18.8556 0.0000
# 6 0.0000 0.0000 0.0000 0.0000 0.0000 11.8155
#
#
#
# Elastic Compliance Matrix: (Units=1/GPa)
#
#
# Indices 1 2 3 4 5 6 
#
# 1 0.028686 -0.013631 -0.006509 0.000000 0.000000 0.000000
# 2 -0.013631 0.028686 -0.006509 0.000000 0.000000 0.000000
# 3 -0.006509 -0.006509 0.018584 0.000000 0.000000 0.000000
# 4 0.000000 0.000000 0.000000 0.053035 0.000000 0.000000
# 5 0.000000 0.000000 0.000000 0.000000 0.053035 0.000000
# 6 0.000000 0.000000 0.000000 0.000000 0.000000 0.084635
#
#
# Mechanical properties :
#
#
# Convention : Reuss Voigt Hill
#
# Bulk Modulus (GPa) = 44.13457 44.58097 44.35777
# Shear Modulus (GPa) = 15.26664 16.14064 15.70364
#
# Velocity S-wave (km/s) = 3.18257 3.27240 3.22780
# Velocity P-wave (km/s) = 6.54113 6.62236 6.58187
#
# Compressibility (1/GPa) = 0.02265798
#
# Stress axis : x y z
#
# Youngs Moduli (GPa) = 34.86010 34.86010 53.80934
#
# Poissons Ratio (x) = 0.47519 0.35024
# Poissons Ratio (y) = 0.47519 0.35024
# Poissons Ratio (z) = 0.22690 0.22690
#
# Static dielectric constant tensor:
#      x y z
#    x 2.741630 0.000000 0.000000 
#    y 0.000000 2.741630 0.000000 
#    z 0.000000 0.000000 3.262770 
# 
# 
# High freq. dielectric constant tensor:
#      x y z
#    x 1.547740 0.000000 0.000000 
#    y 0.000000 1.547740 0.000000 
#    z 0.000000 0.000000 1.599020 
# 
# From -- ./inp_files/10510.got.cif
#   From: 2010.03.12/outbox.cif.g09.slc.cpg/sg191_6_cif.got.tgz:10510.got - 2010.04.01 12:09:02.
