data_PCOD8328213
_publ_section_title
;
Structure prediction by ZEFSAII (Michael W. Deem and Ramdas Pophale) SiO2 
 PCOD8328213
Probable space group: P -6 2 C
;
_chemical_formula_sum "Si O2"
_cell_formula_units_Z 36
_cell_length_a 8.661536
_cell_length_b 8.661536
_cell_length_c 27.432113
_cell_angle_alpha 90.000000
_cell_angle_beta 90.000000
_cell_angle_gamma 120.000000
_cell_volume 1782.295548
_symmetry_space_group_name_H-M "P -6 2 C"
_symmetry_group_IT_number 190
_symmetry_cell_setting 'hexagonal'
loop_
_space_group_symop_operation_xyz
x,y,z
-x+y,-x,1/2-z
-y,x-y,z
x,y,1/2-z
-x+y,-x,z
-y,x-y,1/2-z
x-y,-y,-z
-x,-x+y,-z
y,x,-z
y,x,1/2+z
x-y,-y,1/2+z
-x,-x+y,1/2+z
loop_
_atom_site_type_symbol
_atom_site_label
_atom_site_fract_x
_atom_site_fract_y
_atom_site_fract_z
Si Si1 0.339945 0.003218 0.095840
Si Si2 0.476222 0.128238 0.803658
Si Si3 0.329738 0.327395 0.557408
O O1 0.392164 0.199681 0.079148
O O2 0.357151 0.005371 0.154593
O O3 0.140359 0.863067 0.079813
O O4 0.469114 0.942862 0.070777
O O5 0.679465 0.165497 0.808928
O O6 0.399735 0.046027 0.750000
O O7 0.306221 0.306221 0.500000
#
# Coordination Sequence:
#
# PCOD8328213 Si02
#       3
#    12  12  12
#     4  12  23  42  61  93 122 164 207 253 308 361
#     4   8  15  35  66  91 116 157 197 246 314 368
#     4  12  24  39  61  87 126 166 209 252 302 362
#
# _framework density 20.198671999999998
#
# number of rings (size 3 to 8) (size 9 to 14) (size 15 to 20)
#    0.667    0.667    3.333    5.000    0.000    0.000 
#    0.000    3.333    0.000    0.000    0.000    0.000 
#    0.000    0.000    0.000    0.000    0.000    0.000 
#
# Total GULP energy -446384.814079 kJ/mol
# GULP energy per Si atom -12399.578169 kJ/mol
# Density = 2.015270 g / cm^3
# Si number density = 20.198672 Si / 1000 Ang^3
#
#
#
# Elastic Constant Matrix: (Units=GPa)
#
#
# Indices 1 2 3 4 5 6 
#
# 1 67.2546 12.4667 40.6732 0.0000 0.0000 0.0000
# 2 12.4667 67.2546 40.6732 0.0000 0.0000 0.0000
# 3 40.6732 40.6732 197.4790 0.0000 0.0000 0.0000
# 4 0.0000 0.0000 0.0000 -25.5303 0.0000 0.0000
# 5 0.0000 0.0000 0.0000 0.0000 -25.5303 0.0000
# 6 0.0000 0.0000 0.0000 0.0000 0.0000 27.3939
#
#
#
# Elastic Compliance Matrix: (Units=1/GPa)
#
#
# Indices 1 2 3 4 5 6 
#
# 1 0.017067 -0.001185 -0.003271 0.000000 0.000000 0.000000
# 2 -0.001185 0.017067 -0.003271 0.000000 0.000000 0.000000
# 3 -0.003271 -0.003271 0.006411 0.000000 0.000000 0.000000
# 4 0.000000 0.000000 0.000000 -0.039169 0.000000 0.000000
# 5 0.000000 0.000000 0.000000 0.000000 -0.039169 0.000000
# 6 0.000000 0.000000 0.000000 0.000000 0.000000 0.036504
#
#
# Mechanical properties :
#
#
# Convention : Reuss Voigt Hill
#
# Bulk Modulus (GPa) = 39.85644 57.73494 48.79569
# Shear Modulus (GPa) = 221.93804 11.14502 116.54153
#
# Velocity S-wave (km/s) = 10.49362 2.35153 7.60414
# Velocity P-wave (km/s) = 12.90723 6.00154 10.06516
#
# Compressibility (1/GPa) = 0.02509005
#
# Stress axis : x y z
#
# Youngs Moduli (GPa) = 58.59341 58.59341 155.97675
#
# Poissons Ratio (x) = 0.06946 0.51019
# Poissons Ratio (y) = 0.06946 0.51019
# Poissons Ratio (z) = 0.19166 0.19166
#
# Static dielectric constant tensor:
#      x y z
#    x 3.359750 0.000000 0.000000 
#    y 0.000000 3.359750 0.000000 
#    z 0.000000 0.000000 3.789230 
# 
# 
# High freq. dielectric constant tensor:
#      x y z
#    x 1.765930 0.000000 0.000000 
#    y 0.000000 1.765930 0.000000 
#    z 0.000000 0.000000 1.808820 
# 
# From -- ./inp_files/4794.got.cif
#   From: 2010.06.25/outbox.cif.g09.slc.cpg/sg190_3_cif.got.tgz:4794.got - 2010.06.28 13:08:06.
