data_PCOD8328860
_publ_section_title
;
Structure prediction by ZEFSAII (Michael W. Deem and Ramdas Pophale) SiO2 
 PCOD8328860
Probable space group: P 6/M M M
;
_chemical_formula_sum "Si O2"
_cell_formula_units_Z 144
_cell_length_a 22.266365
_cell_length_b 22.266365
_cell_length_c 20.341712
_cell_angle_alpha 90.000000
_cell_angle_beta 90.000000
_cell_angle_gamma 120.000000
_cell_volume 8734.072263
_symmetry_space_group_name_H-M "P 6/M M M"
_symmetry_group_IT_number 191
_symmetry_cell_setting 'hexagonal'
loop_
_space_group_symop_operation_xyz
x,y,z
x-y,x,z
-y,x-y,z
-x,-y,z
-x+y,-x,z
y,-x+y,z
x-y,-y,-z
-x,-x+y,-z
y,x,-z
-y,-x,-z
-x+y,y,-z
x,x-y,-z
-x,-y,-z
-x+y,-x,-z
y,-x+y,-z
x,y,-z
x-y,x,-z
-y,x-y,-z
-x+y,y,z
x,x-y,z
-y,-x,z
y,x,z
x-y,-y,z
-x,-x+y,z
loop_
_atom_site_type_symbol
_atom_site_label
_atom_site_fract_x
_atom_site_fract_y
_atom_site_fract_z
Si Si1 0.291642 0.077406 0.684899
Si Si2 0.261692 0.878954 0.193332
Si Si3 0.385677 0.078995 0.574532
Si Si4 0.530870 0.197094 0.227661
Si Si5 0.212011 0.922935 0.074343
Si Si6 0.530009 0.333436 0.383641
O O1 0.264841 0.132421 0.694115
O O2 0.333147 0.073522 0.748432
O O3 0.342171 0.100867 0.622073
O O4 0.225762 0.000000 0.675122
O O5 0.195695 0.804306 0.203550
O O6 0.327500 0.867270 0.198093
O O7 0.262699 0.911708 0.122553
O O8 0.366520 0.087024 0.500000
O O9 0.467211 0.127528 0.585838
O O10 0.366166 0.000000 0.589364
O O11 0.594503 0.189005 0.201553
O O12 0.543013 0.271507 0.203846
O O13 0.525115 0.192146 0.305625
O O14 0.131614 0.868387 0.090934
O O15 0.223637 0.000000 0.083987
O O16 0.230450 0.912478 0.000000
O O17 0.527126 0.263563 0.409108
O O18 0.601280 0.398721 0.408502
#
# Coordination Sequence:
#
# PCOD8328860 Si02
#       6
#    24  24  24  24  24  24
#     4  10  19  32  50  71  93 118 151 190 230 272
#     4   9  16  28  47  70  93 119 154 191 224 263
#     4  10  21  35  50  67  89 121 158 196 237 277
#     4   9  16  27  45  69  95 122 154 192 234 277
#     4   9  17  29  47  71  97 124 153 187 227 271
#     4  10  19  32  49  69  93 122 156 193 234 282
#
# _framework density 16.487155000000001
#
# number of rings (size 3 to 8) (size 9 to 14) (size 15 to 20)
#    0.000    2.500    1.667    1.333    0.000    3.333 
#    0.000    0.833    0.000    3.833    0.000    2.333 
#    0.000    5.333    0.000    4.333    0.000    0.000 
#
# Total GULP energy -1785200.953395 kJ/mol
# GULP energy per Si atom -12397.228843 kJ/mol
# Density = 1.644963 g / cm^3
# Si number density = 16.487155 Si / 1000 Ang^3
#
#
#
# Elastic Constant Matrix: (Units=GPa)
#
#
# Indices 1 2 3 4 5 6 
#
# 1 96.8963 54.4721 33.6516 0.0000 0.0000 0.0000
# 2 54.4721 96.8963 33.6516 0.0000 0.0000 0.0000
# 3 33.6516 33.6516 76.4560 0.0000 0.0000 0.0000
# 4 0.0000 0.0000 0.0000 19.1280 0.0000 0.0000
# 5 0.0000 0.0000 0.0000 0.0000 19.1280 0.0000
# 6 0.0000 0.0000 0.0000 0.0000 0.0000 21.2121
#
#
#
# Elastic Compliance Matrix: (Units=1/GPa)
#
#
# Indices 1 2 3 4 5 6 
#
# 1 0.015893 -0.007679 -0.003615 0.000000 0.000000 0.000000
# 2 -0.007679 0.015893 -0.003615 0.000000 0.000000 0.000000
# 3 -0.003615 -0.003615 0.016262 0.000000 0.000000 0.000000
# 4 0.000000 0.000000 0.000000 0.052279 0.000000 0.000000
# 5 0.000000 0.000000 0.000000 0.000000 0.052279 0.000000
# 6 0.000000 0.000000 0.000000 0.000000 0.000000 0.047143
#
#
# Mechanical properties :
#
#
# Convention : Reuss Voigt Hill
#
# Bulk Modulus (GPa) = 54.85910 57.08881 55.97396
# Shear Modulus (GPa) = 21.21845 21.79182 21.50513
#
# Velocity S-wave (km/s) = 3.59133 3.63953 3.61551
# Velocity P-wave (km/s) = 7.10935 7.23622 7.17307
#
# Compressibility (1/GPa) = 0.01822852
#
# Stress axis : x y z
#
# Youngs Moduli (GPa) = 62.92208 62.92208 61.49344
#
# Poissons Ratio (x) = 0.48317 0.22232
# Poissons Ratio (y) = 0.48317 0.22232
# Poissons Ratio (z) = 0.22748 0.22748
#
# Static dielectric constant tensor:
#      x y z
#    x 3.096880 0.000000 0.000000 
#    y 0.000000 3.096880 0.000000 
#    z 0.000000 0.000000 3.088120 
# 
# 
# High freq. dielectric constant tensor:
#      x y z
#    x 1.623320 0.000000 0.000000 
#    y 0.000000 1.623320 0.000000 
#    z 0.000000 0.000000 1.625850 
# 
# From -- ./inp_files/6560.got.cif
#   From: 2010.03.12/outbox.cif.g09.slc.cpg/sg191_4_cif.got.tgz:6560.got - 2010.04.01 12:09:02.
