data_PCOD8328850
_publ_section_title
;
Structure prediction by ZEFSAII (Michael W. Deem and Ramdas Pophale) SiO2 
 PCOD8328850
Probable space group: P 6/M M M
;
_chemical_formula_sum "Si O2"
_cell_formula_units_Z 96
_cell_length_a 30.618603
_cell_length_b 30.618603
_cell_length_c 7.701339
_cell_angle_alpha 90.000000
_cell_angle_beta 90.000000
_cell_angle_gamma 120.000000
_cell_volume 6252.700344
_symmetry_space_group_name_H-M "P 6/M M M"
_symmetry_group_IT_number 191
_symmetry_cell_setting 'hexagonal'
loop_
_space_group_symop_operation_xyz
x,y,z
x-y,x,z
-y,x-y,z
-x,-y,z
-x+y,-x,z
y,-x+y,z
x-y,-y,-z
-x,-x+y,-z
y,x,-z
-y,-x,-z
-x+y,y,-z
x,x-y,-z
-x,-y,-z
-x+y,-x,-z
y,-x+y,-z
x,y,-z
x-y,x,-z
-y,x-y,-z
-x+y,y,z
x,x-y,z
-y,-x,z
y,x,z
x-y,-y,z
-x,-x+y,z
loop_
_atom_site_type_symbol
_atom_site_label
_atom_site_fract_x
_atom_site_fract_y
_atom_site_fract_z
Si Si1 0.436292 0.770212 0.000000
Si Si2 0.855262 0.612280 0.203285
Si Si3 0.844318 0.786809 0.500000
Si Si4 0.718928 0.776336 0.198954
Si Si5 0.804152 0.505365 0.691464
O O1 0.466089 0.803143 0.168487
O O2 0.380837 0.761673 0.000000
O O3 0.431313 0.715657 0.000000
O O4 0.811051 0.622101 0.272477
O O5 0.908352 0.660689 0.253953
O O6 0.851426 0.562105 0.287656
O O7 0.849806 0.602682 0.000000
O O8 0.833105 0.833105 0.500000
O O9 0.904481 0.808962 0.500000
O O10 0.821884 0.753606 0.673308
O O11 0.731763 0.731763 0.218226
O O12 0.727589 0.796963 0.000000
O O13 0.805526 0.484797 0.500000
O O14 0.754988 0.509975 0.721935
#
# Coordination Sequence:
#
# PCOD8328850 Si02
#       5
#    12  24  12  24  24
#     4  10  19  32  46  62  85 113 145 181 220 259
#     4   9  15  25  42  62  85 115 147 176 210 256
#     4  10  20  32  46  65  90 122 157 191 229 271
#     4   9  18  30  43  64  95 124 150 183 218 263
#     4   9  17  28  42  61  84 109 141 180 216 256
#
# _framework density 15.353365999999999
#
# number of rings (size 3 to 8) (size 9 to 14) (size 15 to 20)
#    0.000    2.750    1.250    0.875    1.750    2.000 
#    0.000    0.000    0.000    1.625    0.000    0.000 
#    0.000    2.000    0.000    8.500    0.000    0.000 
#
# Total GULP energy -1189950.007211 kJ/mol
# GULP energy per Si atom -12395.312575 kJ/mol
# Density = 1.531842 g / cm^3
# Si number density = 15.353366 Si / 1000 Ang^3
#
#
#
# Elastic Constant Matrix: (Units=GPa)
#
#
# Indices 1 2 3 4 5 6 
#
# 1 79.6006 35.8576 40.0763 0.0000 0.0000 0.0000
# 2 35.8576 79.6006 40.0763 0.0000 0.0000 0.0000
# 3 40.0763 40.0763 94.9773 0.0000 0.0000 0.0000
# 4 0.0000 0.0000 0.0000 13.4653 0.0000 0.0000
# 5 0.0000 0.0000 0.0000 0.0000 13.4653 0.0000
# 6 0.0000 0.0000 0.0000 0.0000 0.0000 21.8715
#
#
#
# Elastic Compliance Matrix: (Units=1/GPa)
#
#
# Indices 1 2 3 4 5 6 
#
# 1 0.017555 -0.005306 -0.005169 0.000000 0.000000 0.000000
# 2 -0.005306 0.017555 -0.005169 0.000000 0.000000 0.000000
# 3 -0.005169 -0.005169 0.014891 0.000000 0.000000 0.000000
# 4 0.000000 0.000000 0.000000 0.074265 0.000000 0.000000
# 5 0.000000 0.000000 0.000000 0.000000 0.074265 0.000000
# 6 0.000000 0.000000 0.000000 0.000000 0.000000 0.045722
#
#
# Mechanical properties :
#
#
# Convention : Reuss Voigt Hill
#
# Bulk Modulus (GPa) = 53.43405 54.02208 53.72806
# Shear Modulus (GPa) = 17.74451 18.97162 18.35806
#
# Velocity S-wave (km/s) = 3.40331 3.51902 3.46165
# Velocity P-wave (km/s) = 7.09378 7.19538 7.14476
#
# Compressibility (1/GPa) = 0.01871466
#
# Stress axis : x y z
#
# Youngs Moduli (GPa) = 56.96360 56.96360 67.15579
#
# Poissons Ratio (x) = 0.30224 0.34711
# Poissons Ratio (y) = 0.30224 0.34711
# Poissons Ratio (z) = 0.29443 0.29443
#
# Static dielectric constant tensor:
#      x y z
#    x 2.761220 0.000000 0.000000 
#    y 0.000000 2.761220 0.000000 
#    z 0.000000 0.000000 3.144400 
# 
# 
# High freq. dielectric constant tensor:
#      x y z
#    x 1.557110 0.000000 0.000000 
#    y 0.000000 1.557110 0.000000 
#    z 0.000000 0.000000 1.607500 
# 
# From -- ./inp_files/1576.got.cif
#   From: 2010.03.12/outbox.cif.g09.slc.cpg/sg191_1_cif.got.tgz:1576.got - 2010.04.01 12:09:02.
