data_PCOD8328222
_publ_section_title
;
Structure prediction by ZEFSAII (Michael W. Deem and Ramdas Pophale) SiO2 
 PCOD8328222
Probable space group: P 6/M M M
;
_chemical_formula_sum "Si O2"
_cell_formula_units_Z 96
_cell_length_a 28.660596
_cell_length_b 28.660596
_cell_length_c 8.430759
_cell_angle_alpha 90.000000
_cell_angle_beta 90.000000
_cell_angle_gamma 120.000000
_cell_volume 5997.465263
_symmetry_space_group_name_H-M "P 6/M M M"
_symmetry_group_IT_number 191
_symmetry_cell_setting 'hexagonal'
loop_
_space_group_symop_operation_xyz
x,y,z
x-y,x,z
-y,x-y,z
-x,-y,z
-x+y,-x,z
y,-x+y,z
x-y,-y,-z
-x,-x+y,-z
y,x,-z
-y,-x,-z
-x+y,y,-z
x,x-y,-z
-x,-y,-z
-x+y,-x,-z
y,-x+y,-z
x,y,-z
x-y,x,-z
-y,x-y,-z
-x+y,y,z
x,x-y,z
-y,-x,z
y,x,z
x-y,-y,z
-x,-x+y,z
loop_
_atom_site_type_symbol
_atom_site_label
_atom_site_fract_x
_atom_site_fract_y
_atom_site_fract_z
Si Si1 0.295118 0.000000 0.313647
Si Si2 0.545227 0.823014 0.687866
Si Si3 0.217749 0.884483 0.311041
Si Si4 0.000000 0.397515 0.182804
Si Si5 0.604561 0.501629 0.686944
O O1 0.297732 0.054327 0.243236
O O2 0.287949 0.000000 0.500000
O O3 0.350298 0.000000 0.283601
O O4 0.547418 0.822876 0.500000
O O5 0.523751 0.761876 0.750999
O O6 0.605880 0.861660 0.751524
O O7 0.506581 0.845632 0.743978
O O8 0.218774 0.885932 0.500000
O O9 0.155851 0.844150 0.252958
O O10 0.051054 0.454739 0.221342
O O11 0.000000 0.383363 0.000000
O O12 0.604595 0.512319 0.500000
O O13 0.557691 0.442310 0.734250
#
# Coordination Sequence:
#
# PCOD8328222 Si02
#       5
#    12  24  24  12  24
#     4  10  16  27  47  62  82 111 139 170 198 237
#     4   8  13  23  41  63  82  97 122 164 203 234
#     4   8  13  21  38  63  82 100 130 165 199 231
#     4  12  23  31  40  59  88 114 134 167 213 250
#     4  10  19  31  47  63  79 106 143 171 196 246
#
# _framework density 16.006762999999999
#
# number of rings (size 3 to 8) (size 9 to 14) (size 15 to 20)
#    0.000    2.750    2.500    3.000    0.000    2.000 
#    0.000    0.000    0.000    3.500    0.000    3.500 
#    0.000    0.000    0.000    0.375    0.000   12.000 
#
# Total GULP energy -1189272.618440 kJ/mol
# GULP energy per Si atom -12388.256442 kJ/mol
# Density = 1.597033 g / cm^3
# Si number density = 16.006763 Si / 1000 Ang^3
#
#
#
# Elastic Constant Matrix: (Units=GPa)
#
#
# Indices 1 2 3 4 5 6 
#
# 1 130.7735 80.4040 4.7881 0.0000 0.0000 0.0000
# 2 80.4040 130.7735 4.7881 0.0000 0.0000 0.0000
# 3 4.7881 4.7881 8.2765 0.0000 0.0000 0.0000
# 4 0.0000 0.0000 0.0000 0.6907 0.0000 0.0000
# 5 0.0000 0.0000 0.0000 0.0000 0.6907 0.0000
# 6 0.0000 0.0000 0.0000 0.0000 0.0000 25.1847
#
#
#
# Elastic Compliance Matrix: (Units=1/GPa)
#
#
# Indices 1 2 3 4 5 6 
#
# 1 0.012358 -0.007495 -0.002813 0.000000 0.000000 0.000000
# 2 -0.007495 0.012358 -0.002813 0.000000 0.000000 0.000000
# 3 -0.002813 -0.002813 0.124079 0.000000 0.000000 0.000000
# 4 0.000000 0.000000 0.000000 1.447752 0.000000 0.000000
# 5 0.000000 0.000000 0.000000 0.000000 1.447752 0.000000
# 6 0.000000 0.000000 0.000000 0.000000 0.000000 0.039707
#
#
# Mechanical properties :
#
#
# Convention : Reuss Voigt Hill
#
# Bulk Modulus (GPa) = 8.15982 49.97601 29.06791
# Shear Modulus (GPa) = 1.58675 17.30277 9.44476
#
# Velocity S-wave (km/s) = 0.99672 3.29137 2.43173
# Velocity P-wave (km/s) = 2.53641 6.76267 5.10721
#
# Compressibility (1/GPa) = 0.12255179
#
# Stress axis : x y z
#
# Youngs Moduli (GPa) = 80.91845 80.91845 8.05937
#
# Poissons Ratio (x) = 0.60650 0.02267
# Poissons Ratio (y) = 0.60650 0.02267
# Poissons Ratio (z) = 0.22765 0.22765
#
# Static dielectric constant tensor:
#      x y z
#    x 3.402380 0.000000 0.000000 
#    y 0.000000 3.402380 0.000000 
#    z 0.000000 0.000000 2.571530 
# 
# 
# High freq. dielectric constant tensor:
#      x y z
#    x 1.601920 0.000000 0.000000 
#    y 0.000000 1.601920 0.000000 
#    z 0.000000 0.000000 1.570980 
# 
# From -- ./inp_files/1558.got.cif
#   From: 2010.03.12/outbox.cif.g09.slc.cpg/sg191_1_cif.got.tgz:1558.got - 2010.04.01 12:09:02.
