data_PCOD8328518
_publ_section_title
;
Structure prediction by ZEFSAII (Michael W. Deem and Ramdas Pophale) SiO2 
 PCOD8328518
Probable space group: P 6/M M M
;
_chemical_formula_sum "Si O2"
_cell_formula_units_Z 168
_cell_length_a 29.500335
_cell_length_b 29.500335
_cell_length_c 14.146622
_cell_angle_alpha 90.000000
_cell_angle_beta 90.000000
_cell_angle_gamma 120.000000
_cell_volume 10661.965588
_symmetry_space_group_name_H-M "P 6/M M M"
_symmetry_group_IT_number 191
_symmetry_cell_setting 'hexagonal'
loop_
_space_group_symop_operation_xyz
x,y,z
x-y,x,z
-y,x-y,z
-x,-y,z
-x+y,-x,z
y,-x+y,z
x-y,-y,-z
-x,-x+y,-z
y,x,-z
-y,-x,-z
-x+y,y,-z
x,x-y,-z
-x,-y,-z
-x+y,-x,-z
y,-x+y,-z
x,y,-z
x-y,x,-z
-y,x-y,-z
-x+y,y,z
x,x-y,z
-y,-x,z
y,x,z
x-y,-y,z
-x,-x+y,z
loop_
_atom_site_type_symbol
_atom_site_label
_atom_site_fract_x
_atom_site_fract_y
_atom_site_fract_z
Si Si1 0.130392 0.765248 0.107192
Si Si2 0.418061 0.479969 0.732206
Si Si3 0.469000 0.343565 0.109015
Si Si4 0.767753 0.434684 0.887408
Si Si5 0.249714 0.939033 0.723609
Si Si6 0.062285 0.664247 0.606043
Si Si7 0.941506 0.781228 0.610205
O O1 0.190183 0.809818 0.126445
O O2 0.124194 0.709131 0.125195
O O3 0.091529 0.771558 0.177953
O O4 0.114113 0.769618 0.000000
O O5 0.458492 0.541509 0.711459
O O6 0.449305 0.449305 0.733982
O O7 0.391435 0.471244 0.834374
O O8 0.372756 0.455178 0.652398
O O9 0.514465 0.333945 0.148565
O O10 0.477977 0.360645 0.000000
O O11 0.718022 0.436044 0.844923
O O12 0.767298 0.383649 0.847473
O O13 0.765445 0.433769 0.000000
O O14 0.282624 0.917587 0.666243
O O15 0.199521 0.927592 0.662929
O O16 0.285880 0.000000 0.747156
O O17 0.085258 0.678654 0.500000
O O18 0.000000 0.634230 0.602841
O O19 0.938333 0.768187 0.500000
O O20 0.899628 0.799255 0.638143
O O21 0.000000 0.827736 0.637210
#
# Coordination Sequence:
#
# PCOD8328518 Si02
#       7
#    24  24  24  24  24  24  24
#     4  10  20  32  46  65  90 121 156 189 222 267
#     4  10  20  32  45  64  88 114 148 185 221 265
#     4  10  19  31  45  61  85 117 149 181 221 266
#     4   9  16  26  41  60  80 102 131 168 211 259
#     4  10  18  30  48  69  93 121 155 194 234 273
#     4   9  17  30  47  66  88 113 143 183 228 272
#     4   9  17  29  47  72 100 129 161 198 239 281
#
# _framework density 15.756945
#
# number of rings (size 3 to 8) (size 9 to 14) (size 15 to 20)
#    0.000    2.429    1.429    1.857    0.000    5.714 
#    0.000    3.571    0.000    0.143    0.000    1.000 
#    0.000    0.000    0.000    0.000    0.000    0.571 
#
# Total GULP energy -2082929.054649 kJ/mol
# GULP energy per Si atom -12398.387230 kJ/mol
# Density = 1.572108 g / cm^3
# Si number density = 15.756945 Si / 1000 Ang^3
#
#
#
# Elastic Constant Matrix: (Units=GPa)
#
#
# Indices 1 2 3 4 5 6 
#
# 1 71.7511 37.6260 38.3905 0.0000 0.0000 0.0000
# 2 37.6260 71.7511 38.3905 0.0000 0.0000 0.0000
# 3 38.3905 38.3905 75.3129 0.0000 0.0000 0.0000
# 4 0.0000 0.0000 0.0000 18.1320 0.0000 0.0000
# 5 0.0000 0.0000 0.0000 0.0000 18.1320 0.0000
# 6 0.0000 0.0000 0.0000 0.0000 0.0000 17.0626
#
#
#
# Elastic Compliance Matrix: (Units=1/GPa)
#
#
# Indices 1 2 3 4 5 6 
#
# 1 0.021771 -0.007533 -0.007257 0.000000 0.000000 0.000000
# 2 -0.007533 0.021771 -0.007257 0.000000 0.000000 0.000000
# 3 -0.007257 -0.007257 0.020677 0.000000 0.000000 0.000000
# 4 0.000000 0.000000 0.000000 0.055151 0.000000 0.000000
# 5 0.000000 0.000000 0.000000 0.000000 0.055151 0.000000
# 6 0.000000 0.000000 0.000000 0.000000 0.000000 0.058608
#
#
# Mechanical properties :
#
#
# Convention : Reuss Voigt Hill
#
# Bulk Modulus (GPa) = 49.69746 49.73654 49.71700
# Shear Modulus (GPa) = 17.60989 17.62587 17.61788
#
# Velocity S-wave (km/s) = 3.34667 3.34819 3.34743
# Velocity P-wave (km/s) = 6.82218 6.82499 6.82359
#
# Compressibility (1/GPa) = 0.02012175
#
# Stress axis : x y z
#
# Youngs Moduli (GPa) = 45.93356 45.93356 48.36338
#
# Poissons Ratio (x) = 0.34603 0.35099
# Poissons Ratio (y) = 0.34603 0.35099
# Poissons Ratio (z) = 0.33336 0.33336
#
# Static dielectric constant tensor:
#      x y z
#    x 3.034400 0.000000 0.000000 
#    y 0.000000 3.034400 0.000000 
#    z 0.000000 0.000000 2.917970 
# 
# 
# High freq. dielectric constant tensor:
#      x y z
#    x 1.598200 0.000000 0.000000 
#    y 0.000000 1.598200 0.000000 
#    z 0.000000 0.000000 1.585180 
# 
# From -- ./inp_files/3596.got.cif
#   From: 2010.03.12/outbox.cif.g09.slc.cpg/sg191_2_cif.got.tgz:3596.got - 2010.04.01 12:09:02.
