data_PCOD8328327
_publ_section_title
;
Structure prediction by ZEFSAII (Michael W. Deem and Ramdas Pophale) SiO2 
 PCOD8328327
Probable space group: P 6/M M M
;
_chemical_formula_sum "Si O2"
_cell_formula_units_Z 120
_cell_length_a 18.182421
_cell_length_b 18.182421
_cell_length_c 26.083979
_cell_angle_alpha 90.000000
_cell_angle_beta 90.000000
_cell_angle_gamma 120.000000
_cell_volume 7468.061611
_symmetry_space_group_name_H-M "P 6/M M M"
_symmetry_group_IT_number 191
_symmetry_cell_setting 'hexagonal'
loop_
_space_group_symop_operation_xyz
x,y,z
x-y,x,z
-y,x-y,z
-x,-y,z
-x+y,-x,z
y,-x+y,z
x-y,-y,-z
-x,-x+y,-z
y,x,-z
-y,-x,-z
-x+y,y,-z
x,x-y,-z
-x,-y,-z
-x+y,-x,-z
y,-x+y,-z
x,y,-z
x-y,x,-z
-y,x-y,-z
-x+y,y,z
x,x-y,z
-y,-x,z
y,x,z
x-y,-y,z
-x,-x+y,z
loop_
_atom_site_type_symbol
_atom_site_label
_atom_site_fract_x
_atom_site_fract_y
_atom_site_fract_z
Si Si1 0.500130 0.668982 0.604257
Si Si2 0.634188 0.099074 0.500000
Si Si3 0.831702 0.497246 0.000000
Si Si4 0.367742 0.467433 0.290014
Si Si5 0.334949 0.839199 0.888746
Si Si6 0.636935 0.901949 0.197812
O O1 0.460363 0.730182 0.606553
O O2 0.428366 0.571635 0.602998
O O3 0.555751 0.689758 0.552074
O O4 0.554711 0.681895 0.655571
O O5 0.564722 0.129443 0.500000
O O6 0.593110 0.000000 0.500000
O O7 0.881896 0.531702 0.946010
O O8 0.762393 0.524785 0.000000
O O9 0.790128 0.395064 0.000000
O O10 0.430240 0.569761 0.282845
O O11 0.424530 0.424530 0.288363
O O12 0.298245 0.428373 0.245390
O O13 0.420582 0.841164 0.869676
O O14 0.258491 0.741509 0.889231
O O15 0.313395 0.896490 0.852239
O O16 0.674235 0.837118 0.193673
O O17 0.713378 0.000000 0.203783
#
# Coordination Sequence:
#
# PCOD8328327 Si02
#       6
#    24  12  12  24  24  24
#     4  10  18  27  39  56  79 105 134 167 202 238
#     4   9  17  28  40  52  68  95 132 172 210 244
#     4   8  13  22  37  59  88 121 154 182 207 236
#     4   9  17  29  45  64  86 112 139 165 195 238
#     4   9  16  26  42  65  93 124 154 181 207 239
#     4  10  20  33  48  65  85 110 141 178 220 263
#
# _framework density 16.068427
#
# number of rings (size 3 to 8) (size 9 to 14) (size 15 to 20)
#    0.000    2.700    0.000    2.600    0.000    5.200 
#    0.000    1.500    0.000    8.400    0.000    0.000 
#    0.000    0.000    0.000    0.000    0.000   11.800 
#
# Total GULP energy -1486566.554205 kJ/mol
# GULP energy per Si atom -12388.054618 kJ/mol
# Density = 1.603185 g / cm^3
# Si number density = 16.068427 Si / 1000 Ang^3
#
#
#
# Elastic Constant Matrix: (Units=GPa)
#
#
# Indices 1 2 3 4 5 6 
#
# 1 43.3953 24.7727 27.2591 0.0000 0.0000 0.0000
# 2 24.7727 43.3953 27.2591 0.0000 0.0000 0.0000
# 3 27.2591 27.2591 130.3812 0.0000 0.0000 0.0000
# 4 0.0000 0.0000 0.0000 11.6488 0.0000 0.0000
# 5 0.0000 0.0000 0.0000 0.0000 11.6488 0.0000
# 6 0.0000 0.0000 0.0000 0.0000 0.0000 9.3113
#
#
#
# Elastic Compliance Matrix: (Units=1/GPa)
#
#
# Indices 1 2 3 4 5 6 
#
# 1 0.035657 -0.018042 -0.003683 0.000000 0.000000 0.000000
# 2 -0.018042 0.035657 -0.003683 0.000000 0.000000 0.000000
# 3 -0.003683 -0.003683 0.009210 0.000000 0.000000 0.000000
# 4 0.000000 0.000000 0.000000 0.085845 0.000000 0.000000
# 5 0.000000 0.000000 0.000000 0.000000 0.085845 0.000000
# 6 0.000000 0.000000 0.000000 0.000000 0.000000 0.107397
#
#
# Mechanical properties :
#
#
# Convention : Reuss Voigt Hill
#
# Bulk Modulus (GPa) = 33.66032 41.75038 37.70535
# Shear Modulus (GPa) = 11.89548 15.71385 13.80466
#
# Velocity S-wave (km/s) = 2.72380 3.13058 2.93425
# Velocity P-wave (km/s) = 5.55749 6.25353 5.91576
#
# Compressibility (1/GPa) = 0.02970857
#
# Stress axis : x y z
#
# Youngs Moduli (GPa) = 28.04525 28.04525 108.58035
#
# Poissons Ratio (x) = 0.50598 0.39988
# Poissons Ratio (y) = 0.50598 0.39988
# Poissons Ratio (z) = 0.10329 0.10329
#
# Static dielectric constant tensor:
#      x y z
#    x 2.716450 0.000000 0.000000 
#    y 0.000000 2.716450 0.000000 
#    z 0.000000 0.000000 3.623730 
# 
# 
# High freq. dielectric constant tensor:
#      x y z
#    x 1.576560 0.000000 0.000000 
#    y 0.000000 1.576560 0.000000 
#    z 0.000000 0.000000 1.649290 
# 
# From -- ./inp_files/9566.got.cif
#   From: 2010.03.12/outbox.cif.g09.slc.cpg/sg191_5_cif.got.tgz:9566.got - 2010.04.01 12:09:02.
