data_PCOD8328209
_publ_section_title
;
Structure prediction by ZEFSAII (Michael W. Deem and Ramdas Pophale) SiO2 
 PCOD8328209
Probable space group: P -6 2 C
;
_chemical_formula_sum "Si O2"
_cell_formula_units_Z 60
_cell_length_a 16.572911
_cell_length_b 16.572911
_cell_length_c 13.831114
_cell_angle_alpha 90.000000
_cell_angle_beta 90.000000
_cell_angle_gamma 120.000000
_cell_volume 3289.920389
_symmetry_space_group_name_H-M "P -6 2 C"
_symmetry_group_IT_number 190
_symmetry_cell_setting 'hexagonal'
loop_
_space_group_symop_operation_xyz
x,y,z
-x+y,-x,1/2-z
-y,x-y,z
x,y,1/2-z
-x+y,-x,z
-y,x-y,1/2-z
x-y,-y,-z
-x,-x+y,-z
y,x,-z
y,x,1/2+z
x-y,-y,1/2+z
-x,-x+y,1/2+z
loop_
_atom_site_type_symbol
_atom_site_label
_atom_site_fract_x
_atom_site_fract_y
_atom_site_fract_z
Si Si1 0.127107 0.624323 0.860236
Si Si2 0.872892 0.375677 0.860236
Si Si3 0.341785 0.926346 0.638835
Si Si4 0.221068 0.778932 0.500000
Si Si5 0.926346 0.584562 0.861165
O O1 0.157894 0.648805 0.750000
O O2 0.110630 0.523323 0.885145
O O3 0.209209 0.699083 0.926165
O O4 0.036650 0.635819 0.880449
O O5 0.842106 0.351195 0.750000
O O6 0.889370 0.476677 0.885145
O O7 0.963350 0.364181 0.880449
O O8 0.790790 0.300917 0.926165
O O9 0.306889 0.906223 0.750000
O O10 0.253851 0.873050 0.565071
O O11 0.126950 0.746149 0.434929
O O12 0.906223 0.599334 0.750000
#
# Coordination Sequence:
#
# PCOD8328209 Si02
#       5
#    12  12  12  12  12
#     4   9  19  35  49  62  89 127 159 189 234 288
#     4   9  19  35  49  62  89 127 159 189 234 288
#     4   9  19  35  49  62  89 127 159 189 234 288
#     4  12  18  26  48  72  84 106 156 206 230 262
#     4   9  19  35  49  62  89 127 159 189 234 288
#
# _framework density 18.237525000000002
#
# number of rings (size 3 to 8) (size 9 to 14) (size 15 to 20)
#    0.000    2.400    0.000    6.000    0.000    3.200 
#    9.600    0.000    0.000    0.000    0.000    0.000 
#    0.000    0.000    0.000   38.400    0.000  288.000 
#
# Total GULP energy -743472.663860 kJ/mol
# GULP energy per Si atom -12391.211064 kJ/mol
# Density = 1.819602 g / cm^3
# Si number density = 18.237525 Si / 1000 Ang^3
#
#
#
# Elastic Constant Matrix: (Units=GPa)
#
#
# Indices 1 2 3 4 5 6 
#
# 1 53.1474 16.3619 39.4250 0.0000 0.0000 0.0000
# 2 16.3619 53.1474 39.4250 0.0000 0.0000 0.0000
# 3 39.4250 39.4250 93.2218 0.0000 0.0000 0.0000
# 4 0.0000 0.0000 0.0000 36.0895 0.0000 0.0000
# 5 0.0000 0.0000 0.0000 0.0000 36.0895 0.0000
# 6 0.0000 0.0000 0.0000 0.0000 0.0000 18.3927
#
#
#
# Elastic Compliance Matrix: (Units=1/GPa)
#
#
# Indices 1 2 3 4 5 6 
#
# 1 0.027419 0.000234 -0.011695 0.000000 0.000000 0.000000
# 2 0.000234 0.027419 -0.011695 0.000000 0.000000 0.000000
# 3 -0.011695 -0.011695 0.020619 0.000000 0.000000 0.000000
# 4 0.000000 0.000000 0.000000 0.027709 0.000000 0.000000
# 5 0.000000 0.000000 0.000000 0.000000 0.027709 0.000000
# 6 0.000000 0.000000 0.000000 0.000000 0.000000 0.054369
#
#
# Mechanical properties :
#
#
# Convention : Reuss Voigt Hill
#
# Bulk Modulus (GPa) = 34.31064 43.32669 38.81867
# Shear Modulus (GPa) = 20.72365 25.06800 22.89583
#
# Velocity S-wave (km/s) = 3.37459 3.71149 3.54704
# Velocity P-wave (km/s) = 5.83420 6.49425 6.17305
#
# Compressibility (1/GPa) = 0.02914548
#
# Stress axis : x y z
#
# Youngs Moduli (GPa) = 36.47126 36.47126 48.49886
#
# Poissons Ratio (x) = -0.00854 0.56719
# Poissons Ratio (y) = -0.00854 0.56719
# Poissons Ratio (z) = 0.42653 0.42653
#
# Static dielectric constant tensor:
#      x y z
#    x 3.184910 0.000000 0.000000 
#    y 0.000000 3.184910 0.000000 
#    z 0.000000 0.000000 3.775240 
# 
# 
# High freq. dielectric constant tensor:
#      x y z
#    x 1.660460 0.000000 0.000000 
#    y 0.000000 1.660460 0.000000 
#    z 0.000000 0.000000 1.749230 
# 
# From -- ./inp_files/2795.got.cif
#   From: 2010.06.25/outbox.cif.g09.slc.cpg/sg190_2_cif.got.tgz:2795.got - 2010.06.28 13:08:06.
