data_PCOD8328392
_publ_section_title
;
Structure prediction by ZEFSAII (Michael W. Deem and Ramdas Pophale) SiO2 
 PCOD8328392
Probable space group: P 6/M M M
;
_chemical_formula_sum "Si O2"
_cell_formula_units_Z 192
_cell_length_a 24.169212
_cell_length_b 24.169212
_cell_length_c 25.292234
_cell_angle_alpha 90.000000
_cell_angle_beta 90.000000
_cell_angle_gamma 120.000000
_cell_volume 12795.074094
_symmetry_space_group_name_H-M "P 6/M M M"
_symmetry_group_IT_number 191
_symmetry_cell_setting 'hexagonal'
loop_
_space_group_symop_operation_xyz
x,y,z
x-y,x,z
-y,x-y,z
-x,-y,z
-x+y,-x,z
y,-x+y,z
x-y,-y,-z
-x,-x+y,-z
y,x,-z
-y,-x,-z
-x+y,y,-z
x,x-y,-z
-x,-y,-z
-x+y,-x,-z
y,-x+y,-z
x,y,-z
x-y,x,-z
-y,x-y,-z
-x+y,y,z
x,x-y,z
-y,-x,z
y,x,z
x-y,-y,z
-x,-x+y,z
loop_
_atom_site_type_symbol
_atom_site_label
_atom_site_fract_x
_atom_site_fract_y
_atom_site_fract_z
Si Si1 0.617144 0.924181 0.559220
Si Si2 0.196610 0.267979 0.834733
Si Si3 0.599667 0.076339 0.363131
Si Si4 0.923911 0.318469 0.148080
Si Si5 0.784633 0.094156 0.281803
Si Si6 0.349022 0.421011 0.260604
Si Si7 0.807427 0.070507 0.395061
Si Si8 0.399999 0.924040 0.059029
O O1 0.597600 0.896384 0.500000
O O2 0.552679 0.895566 0.594406
O O3 0.665291 0.903283 0.583548
O O4 0.651012 0.000000 0.558303
O O5 0.124257 0.248514 0.851996
O O6 0.216327 0.216327 0.856091
O O7 0.244727 0.339031 0.858014
O O8 0.203302 0.268975 0.771505
O O9 0.548905 0.097809 0.379905
O O10 0.626011 0.103930 0.303785
O O11 0.567027 0.000000 0.361100
O O12 0.894155 0.328715 0.202874
O O13 0.895657 0.340482 0.099704
O O14 0.000000 0.360686 0.150985
O O15 0.828674 0.171327 0.280766
O O16 0.711161 0.072705 0.288007
O O17 0.803607 0.065994 0.331521
O O18 0.404866 0.404866 0.250855
O O19 0.879682 0.120319 0.413477
O O20 0.786162 0.000000 0.417942
O O21 0.450890 0.901780 0.075190
O O22 0.435354 0.000000 0.059869
O O23 0.373402 0.899204 0.000000
#
# Coordination Sequence:
#
# PCOD8328392 Si02
#       8
#    24  24  24  24  24  24  24  24
#     4   9  17  28  40  53  72  98 126 157 192 233
#     4   9  16  25  38  56  77 102 135 177 224 271
#     4   9  16  24  35  51  72 100 129 153 178 212
#     4   8  14  22  34  52  74 101 132 164 197 236
#     4   9  15  23  38  57  75  99 130 166 209 255
#     4   9  14  22  34  49  74 100 125 158 194 231
#     4  10  18  28  43  60  78 101 132 170 212 260
#     4   8  13  21  33  50  74 104 135 161 181 207
#
# _framework density 15.005775
#
# number of rings (size 3 to 8) (size 9 to 14) (size 15 to 20)
#    0.000    3.125    1.250    2.250    0.000    1.000 
#    0.000    3.750    0.000    0.625    0.000    0.000 
#    0.000    3.000    0.000    6.500    0.000   19.750 
#
# Total GULP energy -2378511.875044 kJ/mol
# GULP energy per Si atom -12388.082683 kJ/mol
# Density = 1.497162 g / cm^3
# Si number density = 15.005775 Si / 1000 Ang^3
#
#
#
# Elastic Constant Matrix: (Units=GPa)
#
#
# Indices 1 2 3 4 5 6 
#
# 1 62.1317 33.3364 31.3709 0.0000 0.0000 0.0000
# 2 33.3364 62.1317 31.3709 0.0000 0.0000 0.0000
# 3 31.3709 31.3709 75.0146 0.0000 0.0000 0.0000
# 4 0.0000 0.0000 0.0000 11.2603 0.0000 0.0000
# 5 0.0000 0.0000 0.0000 0.0000 11.2603 0.0000
# 6 0.0000 0.0000 0.0000 0.0000 0.0000 14.3977
#
#
#
# Elastic Compliance Matrix: (Units=1/GPa)
#
#
# Indices 1 2 3 4 5 6 
#
# 1 0.024586 -0.010142 -0.006041 0.000000 0.000000 0.000000
# 2 -0.010142 0.024586 -0.006041 0.000000 0.000000 0.000000
# 3 -0.006041 -0.006041 0.018383 0.000000 0.000000 0.000000
# 4 0.000000 0.000000 0.000000 0.088808 0.000000 0.000000
# 5 0.000000 0.000000 0.000000 0.000000 0.088808 0.000000
# 6 0.000000 0.000000 0.000000 0.000000 0.000000 0.069456
#
#
# Mechanical properties :
#
#
# Convention : Reuss Voigt Hill
#
# Bulk Modulus (GPa) = 43.27204 43.49274 43.38239
# Shear Modulus (GPa) = 13.63231 14.26364 13.94798
#
# Velocity S-wave (km/s) = 3.01735 3.08643 3.05209
# Velocity P-wave (km/s) = 6.40615 6.46130 6.43378
#
# Compressibility (1/GPa) = 0.02310961
#
# Stress axis : x y z
#
# Youngs Moduli (GPa) = 40.67312 40.67312 54.39757
#
# Poissons Ratio (x) = 0.41249 0.32860
# Poissons Ratio (y) = 0.41249 0.32860
# Poissons Ratio (z) = 0.24570 0.24570
#
# Static dielectric constant tensor:
#      x y z
#    x 2.690980 0.000000 0.000000 
#    y 0.000000 2.690980 0.000000 
#    z 0.000000 0.000000 3.087890 
# 
# 
# High freq. dielectric constant tensor:
#      x y z
#    x 1.532670 0.000000 0.000000 
#    y 0.000000 1.532670 0.000000 
#    z 0.000000 0.000000 1.574410 
# 
# From -- ./inp_files/10169.got.cif
#   From: 2010.03.12/outbox.cif.g09.slc.cpg/sg191_6_cif.got.tgz:10169.got - 2010.04.01 12:09:02.
