data_PCOD8328588
_publ_section_title
;
Structure prediction by ZEFSAII (Michael W. Deem and Ramdas Pophale) SiO2 
 PCOD8328588
Probable space group: P 6/M M M
;
_chemical_formula_sum "Si O2"
_cell_formula_units_Z 108
_cell_length_a 31.492008
_cell_length_b 31.492008
_cell_length_c 8.997949
_cell_angle_alpha 90.000000
_cell_angle_beta 90.000000
_cell_angle_gamma 120.000000
_cell_volume 7728.137939
_symmetry_space_group_name_H-M "P 6/M M M"
_symmetry_group_IT_number 191
_symmetry_cell_setting 'hexagonal'
loop_
_space_group_symop_operation_xyz
x,y,z
x-y,x,z
-y,x-y,z
-x,-y,z
-x+y,-x,z
y,-x+y,z
x-y,-y,-z
-x,-x+y,-z
y,x,-z
-y,-x,-z
-x+y,y,-z
x,x-y,-z
-x,-y,-z
-x+y,-x,-z
y,-x+y,-z
x,y,-z
x-y,x,-z
-y,x-y,-z
-x+y,y,z
x,x-y,z
-y,-x,z
y,x,z
x-y,-y,z
-x,-x+y,z
loop_
_atom_site_type_symbol
_atom_site_label
_atom_site_fract_x
_atom_site_fract_y
_atom_site_fract_z
Si Si1 0.470730 0.529271 0.332161
Si Si2 0.103176 0.304145 0.827136
Si Si3 0.943490 0.302879 0.675220
Si Si4 0.054615 0.203819 0.670194
Si Si5 0.387752 0.941793 0.832991
O O1 0.500000 0.500000 0.331263
O O2 0.460739 0.539262 0.500000
O O3 0.418742 0.498062 0.249175
O O4 0.159027 0.318054 0.794485
O O5 0.092007 0.340942 0.736863
O O6 0.066104 0.249053 0.775435
O O7 0.094144 0.308108 0.000000
O O8 0.937630 0.303122 0.500000
O O9 0.924889 0.337611 0.744860
O O10 0.000000 0.321565 0.719616
O O11 0.059391 0.221933 0.500000
O O12 0.091841 0.183682 0.702314
O O13 0.000000 0.159797 0.704451
O O14 0.419448 0.000000 0.835981
O O15 0.375536 0.920634 0.000000
#
# Coordination Sequence:
#
# PCOD8328588 Si02
#       5
#    12  24  24  24  24
#     4   9  15  23  35  51  73  99 127 159 191 221
#     4  10  20  31  42  57  76  97 122 154 191 230
#     4  10  19  29  41  57  76  98 125 157 193 231
#     4   9  17  29  44  60  77  97 120 146 180 225
#     4   9  16  25  37  53  73  98 127 158 191 223
#
# _framework density 13.974905
#
# number of rings (size 3 to 8) (size 9 to 14) (size 15 to 20)
#    0.000    2.556    0.000    3.000    0.000    9.778 
#    0.000    0.000    0.000    0.222    0.000    1.556 
#    0.000    0.000    0.000    5.556    0.000    5.778 
#
# Total GULP energy -1339167.458361 kJ/mol
# GULP energy per Si atom -12399.698689 kJ/mol
# Density = 1.394310 g / cm^3
# Si number density = 13.974905 Si / 1000 Ang^3
#
#
#
# Elastic Constant Matrix: (Units=GPa)
#
#
# Indices 1 2 3 4 5 6 
#
# 1 83.3612 41.3871 43.2070 0.0000 0.0000 0.0000
# 2 41.3871 83.3612 43.2070 0.0000 0.0000 0.0000
# 3 43.2070 43.2070 94.9959 0.0000 0.0000 0.0000
# 4 0.0000 0.0000 0.0000 20.5546 0.0000 0.0000
# 5 0.0000 0.0000 0.0000 0.0000 20.5546 0.0000
# 6 0.0000 0.0000 0.0000 0.0000 0.0000 20.9870
#
#
#
# Elastic Compliance Matrix: (Units=1/GPa)
#
#
# Indices 1 2 3 4 5 6 
#
# 1 0.017764 -0.006060 -0.005323 0.000000 0.000000 0.000000
# 2 -0.006060 0.017764 -0.005323 0.000000 0.000000 0.000000
# 3 -0.005323 -0.005323 0.015369 0.000000 0.000000 0.000000
# 4 0.000000 0.000000 0.000000 0.048651 0.000000 0.000000
# 5 0.000000 0.000000 0.000000 0.000000 0.048651 0.000000
# 6 0.000000 0.000000 0.000000 0.000000 0.000000 0.047648
#
#
# Mechanical properties :
#
#
# Convention : Reuss Voigt Hill
#
# Bulk Modulus (GPa) = 57.19659 57.48007 57.33833
# Shear Modulus (GPa) = 21.26865 21.34708 21.30787
#
# Velocity S-wave (km/s) = 3.90541 3.91260 3.90901
# Velocity P-wave (km/s) = 7.83283 7.85057 7.84171
#
# Compressibility (1/GPa) = 0.01748356
#
# Stress axis : x y z
#
# Youngs Moduli (GPa) = 56.29408 56.29408 65.06611
#
# Poissons Ratio (x) = 0.34116 0.34635
# Poissons Ratio (y) = 0.34116 0.34635
# Poissons Ratio (z) = 0.29966 0.29966
#
# Static dielectric constant tensor:
#      x y z
#    x 2.619870 0.000000 0.000000 
#    y 0.000000 2.619870 0.000000 
#    z 0.000000 0.000000 2.945500 
# 
# 
# High freq. dielectric constant tensor:
#      x y z
#    x 1.503490 0.000000 0.000000 
#    y 0.000000 1.503490 0.000000 
#    z 0.000000 0.000000 1.552760 
# 
# From -- ./inp_files/1686.got.cif
#   From: 2010.03.12/outbox.cif.g09.slc.cpg/sg191_1_cif.got.tgz:1686.got - 2010.04.01 12:09:02.
