data_PCOD8328019
_publ_section_title
;
Structure prediction by ZEFSAII (Michael W. Deem and Ramdas Pophale) SiO2 
 PCOD8328019
Probable space group: P -6 2 C
;
_chemical_formula_sum "Si O2"
_cell_formula_units_Z 64
_cell_length_a 14.378670
_cell_length_b 14.378670
_cell_length_c 18.859210
_cell_angle_alpha 90.000000
_cell_angle_beta 90.000000
_cell_angle_gamma 120.000000
_cell_volume 3376.692872
_symmetry_space_group_name_H-M "P -6 2 C"
_symmetry_group_IT_number 190
_symmetry_cell_setting 'hexagonal'
loop_
_space_group_symop_operation_xyz
x,y,z
-x+y,-x,1/2-z
-y,x-y,z
x,y,1/2-z
-x+y,-x,z
-y,x-y,1/2-z
x-y,-y,-z
-x,-x+y,-z
y,x,-z
y,x,1/2+z
x-y,-y,1/2+z
-x,-x+y,1/2+z
loop_
_atom_site_type_symbol
_atom_site_label
_atom_site_fract_x
_atom_site_fract_y
_atom_site_fract_z
Si Si1 0.403604 0.494548 0.333865
Si Si2 0.761908 0.868478 0.420290
Si Si3 0.752173 0.889844 0.581148
Si Si4 0.268130 0.830387 0.165920
Si Si5 0.333334 0.666668 0.833717
Si Si6 0.560217 0.861663 0.665533
O O1 0.409502 0.493753 0.250000
O O2 0.492129 0.610709 0.362974
O O3 0.291860 0.483325 0.359170
O O4 0.422081 0.398730 0.362436
O O5 0.716179 0.863428 0.499286
O O6 0.857640 0.843362 0.411215
O O7 0.676164 0.777687 0.369790
O O8 0.798589 0.987072 0.393428
O O9 0.645783 0.833500 0.629858
O O10 0.266167 0.840001 0.250000
O O11 0.333334 0.666668 0.750000
O O12 0.327120 0.557178 0.860409
O O13 0.573426 0.861101 0.750000
#
# Coordination Sequence:
#
# PCOD8328019 Si02
#       6
#    12  12  12  12   4  12
#     4   9  18  32  54  84 116 145 181 231 285 337
#     4  10  21  37  58  82 111 148 187 229 290 341
#     4  10  21  38  58  80 112 147 188 232 283 350
#     4  10  19  34  57  86 113 144 185 231 284 342
#     4   9  21  36  54  78 111 153 193 227 280 342
#     4  10  20  37  58  82 112 151 192 234 281 340
#
# _framework density 18.953455000000002
#
# number of rings (size 3 to 8) (size 9 to 14) (size 15 to 20)
#    0.000    2.250    1.875    0.750    2.625    3.750 
#    0.000    1.875    0.000    2.250    0.000    0.000 
#    0.000    0.000    0.000    0.000    0.000    0.000 
#
# Total GULP energy -793124.692861 kJ/mol
# GULP energy per Si atom -12392.573326 kJ/mol
# Density = 1.891032 g / cm^3
# Si number density = 18.953455 Si / 1000 Ang^3
#
#
#
# Elastic Constant Matrix: (Units=GPa)
#
#
# Indices 1 2 3 4 5 6 
#
# 1 108.3953 40.4605 31.0568 0.0001 0.0000 0.0000
# 2 40.4605 108.3954 31.0571 0.0000 0.0000 0.0002
# 3 31.0568 31.0571 31.2071 0.0000 0.0000 0.0000
# 4 0.0001 0.0000 0.0000 25.0033 0.0000 0.0000
# 5 0.0000 0.0000 0.0000 0.0000 25.0032 0.0000
# 6 0.0000 0.0002 0.0000 0.0000 0.0000 33.9676
#
#
#
# Elastic Compliance Matrix: (Units=1/GPa)
#
#
# Indices 1 2 3 4 5 6 
#
# 1 0.013104 -0.001616 -0.011434 0.000000 0.000000 0.000000
# 2 -0.001616 0.013104 -0.011434 0.000000 0.000000 0.000000
# 3 -0.011434 -0.011434 0.054801 0.000000 0.000000 0.000000
# 4 0.000000 0.000000 0.000000 0.039995 0.000000 0.000000
# 5 0.000000 0.000000 0.000000 0.000000 0.039995 0.000000
# 6 0.000000 0.000000 0.000000 0.000000 0.000000 0.029440
#
#
# Mechanical properties :
#
#
# Convention : Reuss Voigt Hill
#
# Bulk Modulus (GPa) = 31.20656 50.34962 40.77809
# Shear Modulus (GPa) = 19.99308 26.48971 23.24139
#
# Velocity S-wave (km/s) = 3.25137 3.74253 3.50556
# Velocity P-wave (km/s) = 5.53135 6.73037 6.16010
#
# Compressibility (1/GPa) = 0.03204454
#
# Stress axis : x y z
#
# Youngs Moduli (GPa) = 76.31028 76.30985 18.24777
#
# Poissons Ratio (x) = 0.12328 0.20864
# Poissons Ratio (y) = 0.12328 0.20864
# Poissons Ratio (z) = 0.87249 0.87250
#
# Static dielectric constant tensor:
#      x y z
#    x 3.631350 0.000000 0.000000 
#    y 0.000000 3.631340 0.000000 
#    z 0.000000 0.000000 3.160720 
# 
# 
# High freq. dielectric constant tensor:
#      x y z
#    x 1.746580 0.000000 0.000000 
#    y 0.000000 1.746580 0.000000 
#    z 0.000000 0.000000 1.698480 
# 
# From -- ./inp_files/3689.got.cif
#   From: 2010.06.25/outbox.cif.g09.slc.cpg/sg190_2_cif.got.tgz:3689.got - 2010.06.28 13:08:06.
