data_PCOD8328280
_publ_section_title
;
Structure prediction by ZEFSAII (Michael W. Deem and Ramdas Pophale) SiO2 
 PCOD8328280
Probable space group: P 6/M M M
;
_chemical_formula_sum "Si O2"
_cell_formula_units_Z 120
_cell_length_a 18.741996
_cell_length_b 18.741996
_cell_length_c 27.669119
_cell_angle_alpha 90.000000
_cell_angle_beta 90.000000
_cell_angle_gamma 120.000000
_cell_volume 8417.006152
_symmetry_space_group_name_H-M "P 6/M M M"
_symmetry_group_IT_number 191
_symmetry_cell_setting 'hexagonal'
loop_
_space_group_symop_operation_xyz
x,y,z
x-y,x,z
-y,x-y,z
-x,-y,z
-x+y,-x,z
y,-x+y,z
x-y,-y,-z
-x,-x+y,-z
y,x,-z
-y,-x,-z
-x+y,y,-z
x,x-y,-z
-x,-y,-z
-x+y,-x,-z
y,-x+y,-z
x,y,-z
x-y,x,-z
-y,x-y,-z
-x+y,y,z
x,x-y,z
-y,-x,z
y,x,z
x-y,-y,z
-x,-x+y,z
loop_
_atom_site_type_symbol
_atom_site_label
_atom_site_fract_x
_atom_site_fract_y
_atom_site_fract_z
Si Si1 0.538693 0.908581 0.208572
Si Si2 0.000000 0.415489 0.054834
Si Si3 0.669001 0.172567 0.500000
Si Si4 0.368393 0.461666 0.403110
Si Si5 0.833391 0.332038 0.891557
Si Si6 0.501926 0.170896 0.694562
O O1 0.457048 0.914096 0.213169
O O2 0.527659 0.848067 0.164585
O O3 0.554434 0.874264 0.258666
O O4 0.615490 0.000000 0.198874
O O5 0.915250 0.346318 0.079888
O O6 0.000000 0.500000 0.058207
O O7 0.000000 0.387633 0.000000
O O8 0.729842 0.270158 0.500000
O O9 0.576079 0.152158 0.500000
O O10 0.684582 0.134441 0.548492
O O11 0.448974 0.551027 0.403184
O O12 0.389604 0.389604 0.402854
O O13 0.315431 0.450611 0.354914
O O14 0.818191 0.409096 0.899491
O O15 0.751910 0.248091 0.909130
O O16 0.578146 0.156291 0.694365
O O17 0.534883 0.267442 0.697703
#
# Coordination Sequence:
#
# PCOD8328280 Si02
#       6
#    24  12  12  24  24  24
#     4   9  16  27  41  56  77 107 138 168 206 252
#     4   9  18  32  46  60  84 116 145 176 218 260
#     4  10  18  27  39  53  70  89 114 152 199 240
#     4   9  17  28  39  50  65  91 124 155 189 233
#     4  10  18  29  45  65  87 113 148 186 220 252
#     4  10  18  26  37  54  76  98 125 164 208 244
#
# _framework density 14.25685
#
# number of rings (size 3 to 8) (size 9 to 14) (size 15 to 20)
#    0.000    2.500    1.000    2.600    0.000    4.000 
#    0.000    4.000    0.000    1.200    0.000    0.000 
#    0.000    0.000    0.000    0.300    0.000    1.300 
#
# Total GULP energy -1487154.074357 kJ/mol
# GULP energy per Si atom -12392.950620 kJ/mol
# Density = 1.422440 g / cm^3
# Si number density = 14.256850 Si / 1000 Ang^3
#
#
#
# Elastic Constant Matrix: (Units=GPa)
#
#
# Indices 1 2 3 4 5 6 
#
# 1 49.8819 23.8756 30.5300 0.0000 0.0000 0.0000
# 2 23.8756 49.8819 30.5300 0.0000 0.0000 0.0000
# 3 30.5300 30.5300 114.1460 0.0000 0.0000 0.0000
# 4 0.0000 0.0000 0.0000 13.6703 0.0000 0.0000
# 5 0.0000 0.0000 0.0000 0.0000 13.6703 0.0000
# 6 0.0000 0.0000 0.0000 0.0000 0.0000 13.0031
#
#
#
# Elastic Compliance Matrix: (Units=1/GPa)
#
#
# Indices 1 2 3 4 5 6 
#
# 1 0.027933 -0.010519 -0.004658 0.000000 0.000000 0.000000
# 2 -0.010519 0.027933 -0.004658 0.000000 0.000000 0.000000
# 3 -0.004658 -0.004658 0.011252 0.000000 0.000000 0.000000
# 4 0.000000 0.000000 0.000000 0.073152 0.000000 0.000000
# 5 0.000000 0.000000 0.000000 0.000000 0.073152 0.000000
# 6 0.000000 0.000000 0.000000 0.000000 0.000000 0.076904
#
#
# Mechanical properties :
#
#
# Convention : Reuss Voigt Hill
#
# Bulk Modulus (GPa) = 36.43070 42.64232 39.53651
# Shear Modulus (GPa) = 14.74299 16.66701 15.70500
#
# Velocity S-wave (km/s) = 3.21923 3.42285 3.32260
# Velocity P-wave (km/s) = 6.27905 6.75250 6.52007
#
# Compressibility (1/GPa) = 0.02744938
#
# Stress axis : x y z
#
# Youngs Moduli (GPa) = 35.79999 35.79999 88.87184
#
# Poissons Ratio (x) = 0.37659 0.41392
# Poissons Ratio (y) = 0.37659 0.41392
# Poissons Ratio (z) = 0.16674 0.16674
#
# Static dielectric constant tensor:
#      x y z
#    x 2.508580 0.000000 0.000000 
#    y 0.000000 2.508580 0.000000 
#    z 0.000000 0.000000 3.207800 
# 
# 
# High freq. dielectric constant tensor:
#      x y z
#    x 1.502410 0.000000 0.000000 
#    y 0.000000 1.502410 0.000000 
#    z 0.000000 0.000000 1.569510 
# 
# From -- ./inp_files/10298.got.cif
#   From: 2010.03.12/outbox.cif.g09.slc.cpg/sg191_6_cif.got.tgz:10298.got - 2010.04.01 12:09:02.
