data_PCOD8328611
_publ_section_title
;
Structure prediction by ZEFSAII (Michael W. Deem and Ramdas Pophale) SiO2 
 PCOD8328611
Probable space group: P 6/M M M
;
_chemical_formula_sum "Si O2"
_cell_formula_units_Z 108
_cell_length_a 18.078881
_cell_length_b 18.078881
_cell_length_c 23.177003
_cell_angle_alpha 90.000000
_cell_angle_beta 90.000000
_cell_angle_gamma 120.000000
_cell_volume 6560.410287
_symmetry_space_group_name_H-M "P 6/M M M"
_symmetry_group_IT_number 191
_symmetry_cell_setting 'hexagonal'
loop_
_space_group_symop_operation_xyz
x,y,z
x-y,x,z
-y,x-y,z
-x,-y,z
-x+y,-x,z
y,-x+y,z
x-y,-y,-z
-x,-x+y,-z
y,x,-z
-y,-x,-z
-x+y,y,-z
x,x-y,-z
-x,-y,-z
-x+y,-x,-z
y,-x+y,-z
x,y,-z
x-y,x,-z
-y,x-y,-z
-x+y,y,z
x,x-y,z
-y,-x,z
y,x,z
x-y,-y,z
-x,-x+y,z
loop_
_atom_site_type_symbol
_atom_site_label
_atom_site_fract_x
_atom_site_fract_y
_atom_site_fract_z
Si Si1 0.096317 0.363505 0.720485
Si Si2 0.166813 0.497311 0.817962
Si Si3 0.365199 0.459898 0.500000
Si Si4 0.460134 0.364546 0.937519
Si Si5 0.165463 0.496438 0.621644
O O1 0.165651 0.331302 0.720497
O O2 0.106220 0.419635 0.776707
O O3 0.107044 0.420508 0.664703
O O4 0.000000 0.282309 0.720192
O O5 0.265649 0.531297 0.802383
O O6 0.146015 0.573008 0.808994
O O7 0.152272 0.462298 0.883662
O O8 0.377600 0.377600 0.500000
O O9 0.455852 0.544149 0.500000
O O10 0.314516 0.458828 0.442988
O O11 0.546410 0.453591 0.937657
O O12 0.381022 0.381022 0.929518
O O13 0.451187 0.318756 0.000000
O O14 0.265092 0.530183 0.633817
O O15 0.146752 0.573376 0.631435
#
# Coordination Sequence:
#
# PCOD8328611 Si02
#       5
#    24  24  12  24  24
#     4  10  21  35  51  70  90 114 144 181 225 271
#     4  10  19  29  42  62  90 123 157 190 222 257
#     4   9  17  28  42  60  84 119 163 205 237 264
#     4   8  14  25  40  56  75 105 149 197 237 268
#     4  10  19  30  45  66  94 127 161 194 226 261
#
# _framework density 16.462384
#
# number of rings (size 3 to 8) (size 9 to 14) (size 15 to 20)
#    0.000    2.556    0.000    3.444    0.000    4.000 
#    0.000    3.333    0.000    1.556    0.000    0.000 
#    0.000    0.000    0.000    0.000    0.000   23.111 
#
# Total GULP energy -1338505.704060 kJ/mol
# GULP energy per Si atom -12393.571334 kJ/mol
# Density = 1.642492 g / cm^3
# Si number density = 16.462384 Si / 1000 Ang^3
#
#
#
# Elastic Constant Matrix: (Units=GPa)
#
#
# Indices 1 2 3 4 5 6 
#
# 1 71.2402 43.6915 30.5629 0.0000 0.0000 0.0000
# 2 43.6915 71.2402 30.5629 0.0000 0.0000 0.0000
# 3 30.5629 30.5629 115.3925 0.0000 0.0000 0.0000
# 4 0.0000 0.0000 0.0000 19.5223 0.0000 0.0000
# 5 0.0000 0.0000 0.0000 0.0000 19.5223 0.0000
# 6 0.0000 0.0000 0.0000 0.0000 0.0000 13.7744
#
#
#
# Elastic Compliance Matrix: (Units=1/GPa)
#
#
# Indices 1 2 3 4 5 6 
#
# 1 0.023213 -0.013086 -0.002682 0.000000 0.000000 0.000000
# 2 -0.013086 0.023213 -0.002682 0.000000 0.000000 0.000000
# 3 -0.002682 -0.002682 0.010087 0.000000 0.000000 0.000000
# 4 0.000000 0.000000 0.000000 0.051223 0.000000 0.000000
# 5 0.000000 0.000000 0.000000 0.000000 0.051223 0.000000
# 6 0.000000 0.000000 0.000000 0.000000 0.000000 0.072599
#
#
# Mechanical properties :
#
#
# Convention : Reuss Voigt Hill
#
# Bulk Modulus (GPa) = 50.98814 51.94526 51.46670
# Shear Modulus (GPa) = 18.18195 20.76752 19.47474
#
# Velocity S-wave (km/s) = 3.32694 3.55563 3.44318
# Velocity P-wave (km/s) = 6.76741 6.96269 6.86574
#
# Compressibility (1/GPa) = 0.01961240
#
# Stress axis : x y z
#
# Youngs Moduli (GPa) = 43.07862 43.07862 99.13787
#
# Poissons Ratio (x) = 0.56373 0.26592
# Poissons Ratio (y) = 0.56373 0.26592
# Poissons Ratio (z) = 0.11555 0.11555
#
# Static dielectric constant tensor:
#      x y z
#    x 2.829400 0.000000 0.000000 
#    y 0.000000 2.829400 0.000000 
#    z 0.000000 0.000000 3.631900 
# 
# 
# High freq. dielectric constant tensor:
#      x y z
#    x 1.598710 0.000000 0.000000 
#    y 0.000000 1.598710 0.000000 
#    z 0.000000 0.000000 1.661060 
# 
# From -- ./inp_files/8363.got.cif
#   From: 2010.03.12/outbox.cif.g09.slc.cpg/sg191_5_cif.got.tgz:8363.got - 2010.04.01 12:09:02.
