data_PCOD8328616
_publ_section_title
;
Structure prediction by ZEFSAII (Michael W. Deem and Ramdas Pophale) SiO2 
 PCOD8328616
Probable space group: P 6/M M M
;
_chemical_formula_sum "Si O2"
_cell_formula_units_Z 120
_cell_length_a 17.868506
_cell_length_b 17.868506
_cell_length_c 25.812810
_cell_angle_alpha 90.000000
_cell_angle_beta 90.000000
_cell_angle_gamma 120.000000
_cell_volume 7137.438860
_symmetry_space_group_name_H-M "P 6/M M M"
_symmetry_group_IT_number 191
_symmetry_cell_setting 'hexagonal'
loop_
_space_group_symop_operation_xyz
x,y,z
x-y,x,z
-y,x-y,z
-x,-y,z
-x+y,-x,z
y,-x+y,z
x-y,-y,-z
-x,-x+y,-z
y,x,-z
-y,-x,-z
-x+y,y,-z
x,x-y,-z
-x,-y,-z
-x+y,-x,-z
y,-x+y,-z
x,y,-z
x-y,x,-z
-y,x-y,-z
-x+y,y,z
x,x-y,z
-y,-x,z
y,x,z
x-y,-y,z
-x,-x+y,z
loop_
_atom_site_type_symbol
_atom_site_label
_atom_site_fract_x
_atom_site_fract_y
_atom_site_fract_z
Si Si1 0.503768 0.834358 0.184974
Si Si2 0.904835 0.540998 0.293145
Si Si3 0.364139 0.263248 0.500000
Si Si4 0.097561 0.367020 0.095465
Si Si5 0.491751 0.160352 0.000000
Si Si6 0.365785 0.468296 0.405047
O O1 0.428583 0.857166 0.176038
O O2 0.468847 0.734424 0.170198
O O3 0.535737 0.846656 0.244501
O O4 0.584807 0.895597 0.149298
O O5 0.912976 0.456488 0.295440
O O6 0.864582 0.546157 0.348817
O O7 0.000000 0.623973 0.285116
O O8 0.291825 0.291825 0.500000
O O9 0.317364 0.158682 0.500000
O O10 0.425788 0.296132 0.549925
O O11 0.166419 0.332837 0.092747
O O12 0.000000 0.285833 0.090677
O O13 0.114954 0.434712 0.050157
O O14 0.573389 0.146778 0.000000
O O15 0.524424 0.262212 0.000000
O O16 0.429653 0.570348 0.416870
O O17 0.423215 0.423215 0.402298
#
# Coordination Sequence:
#
# PCOD8328616 Si02
#       6
#    24  24  12  24  12  24
#     4  10  19  29  42  62  91 126 160 190 218 250
#     4   8  14  25  41  60  82 110 145 182 216 253
#     4  10  19  29  43  62  83 109 142 182 223 263
#     4  10  21  35  51  71  93 119 151 190 235 278
#     4  10  20  33  50  73 102 134 165 194 222 253
#     4   8  14  26  44  64  84 107 137 173 215 262
#
# _framework density 16.812754000000002
#
# number of rings (size 3 to 8) (size 9 to 14) (size 15 to 20)
#    0.000    2.800    0.000    3.300    0.000    4.800 
#    0.000    2.000    0.000    1.900    0.000    0.000 
#    0.000    2.400    0.000    0.000    0.000   26.000 
#
# Total GULP energy -1486987.810373 kJ/mol
# GULP energy per Si atom -12391.565086 kJ/mol
# Density = 1.677449 g / cm^3
# Si number density = 16.812754 Si / 1000 Ang^3
#
#
#
# Elastic Constant Matrix: (Units=GPa)
#
#
# Indices 1 2 3 4 5 6 
#
# 1 77.7848 47.5633 32.5289 0.0000 0.0000 0.0000
# 2 47.5633 77.7848 32.5289 0.0000 0.0000 0.0000
# 3 32.5289 32.5289 119.6555 0.0000 0.0000 0.0000
# 4 0.0000 0.0000 0.0000 8.5555 0.0000 0.0000
# 5 0.0000 0.0000 0.0000 0.0000 8.5555 0.0000
# 6 0.0000 0.0000 0.0000 0.0000 0.0000 15.1107
#
#
#
# Elastic Compliance Matrix: (Units=1/GPa)
#
#
# Indices 1 2 3 4 5 6 
#
# 1 0.021189 -0.011900 -0.002525 0.000000 0.000000 0.000000
# 2 -0.011900 0.021189 -0.002525 0.000000 0.000000 0.000000
# 3 -0.002525 -0.002525 0.009730 0.000000 0.000000 0.000000
# 4 0.000000 0.000000 0.000000 0.116884 0.000000 0.000000
# 5 0.000000 0.000000 0.000000 0.000000 0.116884 0.000000
# 6 0.000000 0.000000 0.000000 0.000000 0.000000 0.066178
#
#
# Mechanical properties :
#
#
# Convention : Reuss Voigt Hill
#
# Bulk Modulus (GPa) = 54.92513 55.60748 55.26630
# Shear Modulus (GPa) = 12.75431 17.28460 15.01946
#
# Velocity S-wave (km/s) = 2.75727 3.20982 2.99212
# Velocity P-wave (km/s) = 6.54801 6.84717 6.69926
#
# Compressibility (1/GPa) = 0.01820660
#
# Stress axis : x y z
#
# Youngs Moduli (GPa) = 47.19497 47.19497 102.77245
#
# Poissons Ratio (x) = 0.56164 0.25951
# Poissons Ratio (y) = 0.56164 0.25951
# Poissons Ratio (z) = 0.11917 0.11917
#
# Static dielectric constant tensor:
#      x y z
#    x 2.865250 0.000000 0.000000 
#    y 0.000000 2.865250 0.000000 
#    z 0.000000 0.000000 3.724940 
# 
# 
# High freq. dielectric constant tensor:
#      x y z
#    x 1.612640 0.000000 0.000000 
#    y 0.000000 1.612640 0.000000 
#    z 0.000000 0.000000 1.675570 
# 
# From -- ./inp_files/9622.got.cif
#   From: 2010.03.12/outbox.cif.g09.slc.cpg/sg191_5_cif.got.tgz:9622.got - 2010.04.01 12:09:02.
