data_PCOD8328097
_publ_section_title
;
Structure prediction by ZEFSAII (Michael W. Deem and Ramdas Pophale) SiO2 
 PCOD8328097
Probable space group: P -6 2 C
;
_chemical_formula_sum "Si O2"
_cell_formula_units_Z 48
_cell_length_a 17.449032
_cell_length_b 17.449032
_cell_length_c 9.043179
_cell_angle_alpha 90.000000
_cell_angle_beta 90.000000
_cell_angle_gamma 120.000000
_cell_volume 2384.484135
_symmetry_space_group_name_H-M "P -6 2 C"
_symmetry_group_IT_number 190
_symmetry_cell_setting 'hexagonal'
loop_
_space_group_symop_operation_xyz
x,y,z
-x+y,-x,1/2-z
-y,x-y,z
x,y,1/2-z
-x+y,-x,z
-y,x-y,1/2-z
x-y,-y,-z
-x,-x+y,-z
y,x,-z
y,x,1/2+z
x-y,-y,1/2+z
-x,-x+y,1/2+z
loop_
_atom_site_type_symbol
_atom_site_label
_atom_site_fract_x
_atom_site_fract_y
_atom_site_fract_z
Si Si1 0.000000 0.794168 0.500000
Si Si2 0.569859 0.664155 0.574712
Si Si3 0.779811 0.165658 0.584870
Si Si4 0.580056 0.092351 0.577381
Si Si5 0.110775 0.079355 0.250000
O O1 0.072253 0.776402 0.424214
O O2 0.950304 0.826046 0.388406
O O3 0.566602 0.651573 0.750000
O O4 0.631102 0.631102 0.500000
O O5 0.611760 0.767050 0.536988
O O6 0.471419 0.607688 0.504055
O O7 0.811815 0.203345 0.750000
O O8 0.684179 0.155005 0.555468
O O9 0.553866 0.076574 0.750000
O O10 0.552800 0.000000 0.500000
O O11 0.070610 0.972932 0.250000
#
# Coordination Sequence:
#
# PCOD8328097 Si02
#       5
#     6  12  12  12   6
#     4  12  22  42  66  96 130 172 228 276 320 396
#     4  11  24  42  65  94 126 166 209 264 329 386
#     4  11  24  41  65  98 131 170 218 267 320 390
#     4  10  20  39  66  90 126 163 203 257 319 385
#     4  10  24  42  60  88 130 184 220 268 338 380
#
# _framework density 20.130140999999998
#
# number of rings (size 3 to 8) (size 9 to 14) (size 15 to 20)
#    0.250    1.000    2.500    5.250    1.750    4.000 
#    1.500    0.000    0.000    0.000    0.000    0.000 
#    0.000    0.000    0.000    0.000    0.000    0.000 
#
# Total GULP energy -595156.539699 kJ/mol
# GULP energy per Si atom -12399.094577 kJ/mol
# Density = 2.008432 g / cm^3
# Si number density = 20.130141 Si / 1000 Ang^3
#
#
#
# Elastic Constant Matrix: (Units=GPa)
#
#
# Indices 1 2 3 4 5 6 
#
# 1 83.4469 32.8799 39.1981 0.0000 0.0000 0.0000
# 2 32.8799 83.4469 39.1981 0.0000 0.0000 0.0000
# 3 39.1981 39.1981 157.0078 0.0000 0.0000 0.0000
# 4 0.0000 0.0000 0.0000 33.3915 0.0000 0.0000
# 5 0.0000 0.0000 0.0000 0.0000 33.3915 0.0000
# 6 0.0000 0.0000 0.0000 0.0000 0.0000 25.2835
#
#
#
# Elastic Compliance Matrix: (Units=1/GPa)
#
#
# Indices 1 2 3 4 5 6 
#
# 1 0.015056 -0.004720 -0.002580 0.000000 0.000000 0.000000
# 2 -0.004720 0.015056 -0.002580 0.000000 0.000000 0.000000
# 3 -0.002580 -0.002580 0.007657 0.000000 0.000000 0.000000
# 4 0.000000 0.000000 0.000000 0.029948 0.000000 0.000000
# 5 0.000000 0.000000 0.000000 0.000000 0.029948 0.000000
# 6 0.000000 0.000000 0.000000 0.000000 0.000000 0.039551
#
#
# Mechanical properties :
#
#
# Convention : Reuss Voigt Hill
#
# Bulk Modulus (GPa) = 55.53366 60.71708 58.12537
# Shear Modulus (GPa) = 30.67870 32.58834 31.63352
#
# Velocity S-wave (km/s) = 3.90810 4.02790 3.96845
# Velocity P-wave (km/s) = 6.92904 7.20137 7.06652
#
# Compressibility (1/GPa) = 0.01800710
#
# Stress axis : x y z
#
# Youngs Moduli (GPa) = 66.42056 66.42056 130.59101
#
# Poissons Ratio (x) = 0.31352 0.33696
# Poissons Ratio (y) = 0.31352 0.33696
# Poissons Ratio (z) = 0.17139 0.17139
#
# Static dielectric constant tensor:
#      x y z
#    x 3.564780 0.000000 0.000000 
#    y 0.000000 3.564780 0.000000 
#    z 0.000000 0.000000 3.480450 
# 
# 
# High freq. dielectric constant tensor:
#      x y z
#    x 1.778350 0.000000 0.000000 
#    y 0.000000 1.778350 0.000000 
#    z 0.000000 0.000000 1.802210 
# 
# From -- ./inp_files/701.got.cif
#   From: 2010.06.25/outbox.cif.g09.slc.cpg/sg190_1_cif.got.tgz:701.got - 2010.06.28 13:08:06.
