data_PCOD8328187
_publ_section_title
;
Structure prediction by ZEFSAII (Michael W. Deem and Ramdas Pophale) SiO2 
 PCOD8328187
Probable space group: P -6 2 C
;
_chemical_formula_sum "Si O2"
_cell_formula_units_Z 74
_cell_length_a 14.402712
_cell_length_b 14.402712
_cell_length_c 27.699557
_cell_angle_alpha 90.000000
_cell_angle_beta 90.000000
_cell_angle_gamma 120.000000
_cell_volume 4976.133329
_symmetry_space_group_name_H-M "P -6 2 C"
_symmetry_group_IT_number 190
_symmetry_cell_setting 'hexagonal'
loop_
_space_group_symop_operation_xyz
x,y,z
-x+y,-x,1/2-z
-y,x-y,z
x,y,1/2-z
-x+y,-x,z
-y,x-y,1/2-z
x-y,-y,-z
-x,-x+y,-z
y,x,-z
y,x,1/2+z
x-y,-y,1/2+z
-x,-x+y,1/2+z
loop_
_atom_site_type_symbol
_atom_site_label
_atom_site_fract_x
_atom_site_fract_y
_atom_site_fract_z
Si Si1 0.446522 0.170493 0.036525
Si Si2 0.885133 0.007752 0.802451
Si Si3 0.000000 0.505205 0.500000
Si Si4 0.852341 0.557069 0.944907
Si Si5 0.666668 0.333334 0.445639
Si Si6 0.052493 0.210424 0.946965
Si Si7 0.161966 0.218134 0.401537
Si Si8 0.666667 0.333334 0.937933
O O1 0.494063 0.098969 0.017069
O O2 0.541803 0.260481 0.070583
O O3 0.336156 0.097164 0.064672
O O4 0.416436 0.224543 0.993182
O O5 0.835223 0.011287 0.750000
O O6 0.815401 0.012341 0.846683
O O7 0.007105 0.108486 0.805792
O O8 0.956315 0.546886 0.543434
O O9 0.890415 0.655414 0.908665
O O10 0.760021 0.448963 0.919324
O O11 0.666668 0.333334 0.504030
O O12 0.150540 0.187914 0.940442
O O13 0.962639 0.144216 0.907351
O O14 0.000000 0.177239 0.000000
#
# Coordination Sequence:
#
# PCOD8328187 Si02
#       8
#    12  12   6  12   4  12  12   4
#     4  11  19  32  43  60  84 130 166 197 224 253
#     4   8  15  32  51  65  88 126 156 187 232 284
#     4  12  18  30  46  58  86 128 174 202 220 254
#     4  11  20  31  45  62  87 121 169 200 231 262
#     4   9  18  33  48  51  78 121 173 211 219 231
#     4  12  22  29  39  64 102 134 149 176 224 282
#     4  12  21  32  43  70  97 125 154 187 234 290
#     4   9  18  36  45  57  82 121 165 214 223 252
#
# _framework density 14.870984999999999
#
# number of rings (size 3 to 8) (size 9 to 14) (size 15 to 20)
#    0.324    0.973    8.919    1.784    0.000    0.000 
#    0.000    0.000    0.000    0.000    0.000    1.135 
#    0.000    0.000    0.000    0.000    0.000    0.000 
#
# Total GULP energy -917088.979145 kJ/mol
# GULP energy per Si atom -12393.094313 kJ/mol
# Density = 1.483714 g / cm^3
# Si number density = 14.870985 Si / 1000 Ang^3
#
#
#
# Elastic Constant Matrix: (Units=GPa)
#
#
# Indices 1 2 3 4 5 6 
#
# 1 78.1969 29.2715 20.5352 0.0000 -0.0001 0.0001
# 2 29.2715 78.1974 20.5350 -0.0001 -0.0001 0.0000
# 3 20.5352 20.5350 47.0821 0.0000 0.0000 -0.0001
# 4 0.0000 -0.0001 0.0000 9.2620 0.0000 0.0000
# 5 -0.0001 -0.0001 0.0000 0.0000 9.2621 0.0000
# 6 0.0001 0.0000 -0.0001 0.0000 0.0000 24.4627
#
#
#
# Elastic Compliance Matrix: (Units=1/GPa)
#
#
# Indices 1 2 3 4 5 6 
#
# 1 0.015803 -0.004636 -0.004870 0.000000 0.000000 0.000000
# 2 -0.004636 0.015803 -0.004870 0.000000 0.000000 0.000000
# 3 -0.004870 -0.004870 0.025488 0.000000 0.000000 0.000000
# 4 0.000000 0.000000 0.000000 0.107967 0.000000 0.000000
# 5 0.000000 0.000000 0.000000 0.000000 0.107967 0.000000
# 6 0.000000 0.000000 0.000000 0.000000 0.000000 0.040879
#
#
# Mechanical properties :
#
#
# Convention : Reuss Voigt Hill
#
# Bulk Modulus (GPa) = 35.28649 38.23998 36.76324
# Shear Modulus (GPa) = 14.20024 17.47301 15.83663
#
# Velocity S-wave (km/s) = 3.09349 3.43151 3.26687
# Velocity P-wave (km/s) = 6.04479 6.43977 6.24540
#
# Compressibility (1/GPa) = 0.02833946
#
# Stress axis : x y z
#
# Youngs Moduli (GPa) = 63.27998 63.28056 39.23440
#
# Poissons Ratio (x) = 0.29340 0.19108
# Poissons Ratio (y) = 0.29340 0.19108
# Poissons Ratio (z) = 0.30819 0.30819
#
# Static dielectric constant tensor:
#      x y z
#    x 3.071070 0.000000 0.000000 
#    y 0.000000 3.071070 0.000000 
#    z 0.000000 0.000000 2.403140 
# 
# 
# High freq. dielectric constant tensor:
#      x y z
#    x 1.576750 0.000000 0.000000 
#    y 0.000000 1.576750 0.000000 
#    z 0.000000 0.000000 1.498160 
# 
# From -- ./inp_files/4954.got.cif
#   From: 2010.06.25/outbox.cif.g09.slc.cpg/sg190_3_cif.got.tgz:4954.got - 2010.06.28 13:08:06.
