data_PCOD8328684
_publ_section_title
;
Structure prediction by ZEFSAII (Michael W. Deem and Ramdas Pophale) SiO2 
 PCOD8328684
Probable space group: P 6/M M M
;
_chemical_formula_sum "Si O2"
_cell_formula_units_Z 168
_cell_length_a 18.082849
_cell_length_b 18.082849
_cell_length_c 34.499260
_cell_angle_alpha 90.000000
_cell_angle_beta 90.000000
_cell_angle_gamma 120.000000
_cell_volume 9769.540169
_symmetry_space_group_name_H-M "P 6/M M M"
_symmetry_group_IT_number 191
_symmetry_cell_setting 'hexagonal'
loop_
_space_group_symop_operation_xyz
x,y,z
x-y,x,z
-y,x-y,z
-x,-y,z
-x+y,-x,z
y,-x+y,z
x-y,-y,-z
-x,-x+y,-z
y,x,-z
-y,-x,-z
-x+y,y,-z
x,x-y,-z
-x,-y,-z
-x+y,-x,-z
y,-x+y,-z
x,y,-z
x-y,x,-z
-y,x-y,-z
-x+y,y,z
x,x-y,z
-y,-x,z
y,x,z
x-y,-y,z
-x,-x+y,z
loop_
_atom_site_type_symbol
_atom_site_label
_atom_site_fract_x
_atom_site_fract_y
_atom_site_fract_z
Si Si1 0.097021 0.902980 0.046146
Si Si2 0.836561 0.504132 0.176867
Si Si3 0.331578 0.496925 0.396454
Si Si4 0.100166 0.633261 0.686141
Si Si5 0.805663 0.611326 0.954098
Si Si6 0.637134 0.734945 0.242623
Si Si7 0.535041 0.900061 0.091466
Si Si8 0.905834 0.646851 0.456085
O O1 0.145619 0.854382 0.061607
O O2 0.000000 0.854341 0.062096
O O3 0.096450 0.903551 0.000000
O O4 0.737246 0.474492 0.182412
O O5 0.850917 0.425459 0.186529
O O6 0.895473 0.581791 0.205096
O O7 0.865185 0.537957 0.133654
O O8 0.263705 0.527409 0.405289
O O9 0.426094 0.573907 0.401353
O O10 0.315826 0.459343 0.353097
O O11 0.322268 0.427151 0.427423
O O12 0.132117 0.566059 0.696206
O O13 0.126297 0.700727 0.720597
O O14 0.000000 0.583150 0.679375
O O15 0.853881 0.562401 0.940021
O O16 0.805075 0.610150 0.000000
O O17 0.674458 0.837229 0.239552
O O18 0.714835 0.714835 0.246062
O O19 0.439693 0.879385 0.081274
O O20 0.600980 0.000000 0.089899
O O21 0.892059 0.611301 0.500000
O O22 0.839186 0.678372 0.445652
O O23 0.000000 0.727881 0.450695
#
# Coordination Sequence:
#
# PCOD8328684 Si02
#       8
#    12  24  24  24  12  24  24  24
#     4   9  17  30  51  78 106 134 164 203 252 307
#     4  10  19  33  54  80 107 135 164 198 237 285
#     4  10  19  30  44  64  94 132 170 206 243 282
#     4   9  17  29  46  70  99 129 161 198 243 295
#     4  11  22  37  54  77 104 136 173 212 255 302
#     4  10  20  33  51  75 102 132 167 206 247 293
#     4  10  21  37  56  77 103 136 173 212 252 295
#     4   9  18  32  49  68  89 116 154 200 248 297
#
# _framework density 17.196306
#
# number of rings (size 3 to 8) (size 9 to 14) (size 15 to 20)
#    0.000    2.286    0.714    2.500    0.000    4.000 
#    0.429    1.429    0.000    5.714    0.000    1.000 
#    0.000    0.000    0.000    4.571    0.000    3.143 
#
# Total GULP energy -2083293.833513 kJ/mol
# GULP energy per Si atom -12400.558533 kJ/mol
# Density = 1.715717 g / cm^3
# Si number density = 17.196306 Si / 1000 Ang^3
#
#
#
# Elastic Constant Matrix: (Units=GPa)
#
#
# Indices 1 2 3 4 5 6 
#
# 1 86.9210 56.9045 41.9855 0.0000 0.0000 0.0000
# 2 56.9045 86.9210 41.9855 0.0000 0.0000 0.0000
# 3 41.9855 41.9855 74.1868 0.0000 0.0000 0.0000
# 4 0.0000 0.0000 0.0000 23.2389 0.0000 0.0000
# 5 0.0000 0.0000 0.0000 0.0000 23.2389 0.0000
# 6 0.0000 0.0000 0.0000 0.0000 0.0000 15.0083
#
#
#
# Elastic Compliance Matrix: (Units=1/GPa)
#
#
# Indices 1 2 3 4 5 6 
#
# 1 0.021849 -0.011466 -0.005877 0.000000 0.000000 0.000000
# 2 -0.011466 0.021849 -0.005877 0.000000 0.000000 0.000000
# 3 -0.005877 -0.005877 0.020131 0.000000 0.000000 0.000000
# 4 0.000000 0.000000 0.000000 0.043031 0.000000 0.000000
# 5 0.000000 0.000000 0.000000 0.000000 0.043031 0.000000
# 6 0.000000 0.000000 0.000000 0.000000 0.000000 0.066630
#
#
# Mechanical properties :
#
#
# Convention : Reuss Voigt Hill
#
# Bulk Modulus (GPa) = 57.49682 58.86441 58.18062
# Shear Modulus (GPa) = 18.60411 19.44077 19.02244
#
# Velocity S-wave (km/s) = 3.29274 3.36597 3.32956
# Velocity P-wave (km/s) = 6.92563 7.02933 6.97767
#
# Compressibility (1/GPa) = 0.01739227
#
# Stress axis : x y z
#
# Youngs Moduli (GPa) = 45.76778 45.76778 49.67407
#
# Poissons Ratio (x) = 0.52475 0.29192
# Poissons Ratio (y) = 0.52475 0.29192
# Poissons Ratio (z) = 0.26896 0.26896
#
# Static dielectric constant tensor:
#      x y z
#    x 3.173950 0.000000 0.000000 
#    y 0.000000 3.173950 0.000000 
#    z 0.000000 0.000000 3.237590 
# 
# 
# High freq. dielectric constant tensor:
#      x y z
#    x 1.658350 0.000000 0.000000 
#    y 0.000000 1.658350 0.000000 
#    z 0.000000 0.000000 1.664620 
# 
# From -- ./inp_files/10769.got.cif
#   From: 2010.03.12/outbox.cif.g09.slc.cpg/sg191_6_cif.got.tgz:10769.got - 2010.04.01 12:09:02.
