data_PCOD8328261
_publ_section_title
;
Structure prediction by ZEFSAII (Michael W. Deem and Ramdas Pophale) SiO2 
 PCOD8328261
Probable space group: P 6/M M M
;
_chemical_formula_sum "Si O2"
_cell_formula_units_Z 180
_cell_length_a 20.845429
_cell_length_b 20.845429
_cell_length_c 31.572388
_cell_angle_alpha 90.000000
_cell_angle_beta 90.000000
_cell_angle_gamma 120.000000
_cell_volume 11881.184438
_symmetry_space_group_name_H-M "P 6/M M M"
_symmetry_group_IT_number 191
_symmetry_cell_setting 'hexagonal'
loop_
_space_group_symop_operation_xyz
x,y,z
x-y,x,z
-y,x-y,z
-x,-y,z
-x+y,-x,z
y,-x+y,z
x-y,-y,-z
-x,-x+y,-z
y,x,-z
-y,-x,-z
-x+y,y,-z
x,x-y,-z
-x,-y,-z
-x+y,-x,-z
y,-x+y,-z
x,y,-z
x-y,x,-z
-y,x-y,-z
-x+y,y,z
x,x-y,z
-y,-x,z
y,x,z
x-y,-y,z
-x,-x+y,z
loop_
_atom_site_type_symbol
_atom_site_label
_atom_site_fract_x
_atom_site_fract_y
_atom_site_fract_z
Si Si1 0.666449 0.181898 0.253197
Si Si2 0.534825 0.617555 0.576015
Si Si3 0.521763 0.335648 0.097217
Si Si4 0.182614 0.514857 0.500000
Si Si5 0.082732 0.465233 0.670275
Si Si6 0.387131 0.084017 0.952443
Si Si7 0.351978 0.914534 0.172640
Si Si8 0.222502 0.303881 0.128295
O O1 0.600168 0.200335 0.254717
O O2 0.742393 0.257608 0.245033
O O3 0.672763 0.144130 0.296573
O O4 0.651441 0.122233 0.217246
O O5 0.458787 0.541214 0.574027
O O6 0.601432 0.601432 0.565523
O O7 0.533137 0.673180 0.541448
O O8 0.545823 0.652268 0.623142
O O9 0.511654 0.255827 0.108160
O O10 0.607222 0.392779 0.086657
O O11 0.473195 0.331848 0.056563
O O12 0.497811 0.366991 0.136922
O O13 0.265057 0.530113 0.500000
O O14 0.186499 0.593250 0.500000
O O15 0.079720 0.539860 0.672215
O O16 0.000000 0.397463 0.681086
O O17 0.338226 0.098794 0.918904
O O18 0.370953 0.000000 0.946717
O O19 0.367703 0.097138 0.000000
O O20 0.274438 0.910328 0.162695
O O21 0.418161 0.000000 0.172997
O O22 0.137995 0.275989 0.139749
O O23 0.232674 0.232674 0.130235
#
# Coordination Sequence:
#
# PCOD8328261 Si02
#       8
#    24  24  24  12  24  24  24  24
#     4  11  21  31  43  60  85 113 137 162 199 251
#     4   8  14  26  42  56  70  94 132 172 206 240
#     4  11  22  34  47  63  86 113 137 163 200 249
#     4  10  18  25  35  53  78 105 130 162 207 258
#     4   8  15  28  44  59  74  96 131 173 207 235
#     4   9  18  32  50  69  85 105 137 177 212 234
#     4  10  20  33  50  67  80 101 137 179 213 235
#     4   9  17  30  48  69  91 112 135 165 202 241
#
# _framework density 15.150005
#
# number of rings (size 3 to 8) (size 9 to 14) (size 15 to 20)
#    0.000    2.533    0.000    5.733    0.000    5.067 
#    0.000    2.000    0.000    2.533    0.000    0.000 
#    0.000    0.000    0.000    3.333    0.000    0.000 
#
# Total GULP energy -2231126.530598 kJ/mol
# GULP energy per Si atom -12395.147392 kJ/mol
# Density = 1.511552 g / cm^3
# Si number density = 15.150005 Si / 1000 Ang^3
#
#
#
# Elastic Constant Matrix: (Units=GPa)
#
#
# Indices 1 2 3 4 5 6 
#
# 1 65.1552 36.9191 17.7724 0.0000 0.0000 0.0000
# 2 36.9191 65.1552 17.7724 0.0000 0.0000 0.0000
# 3 17.7724 17.7724 64.4286 0.0000 0.0000 0.0000
# 4 0.0000 0.0000 0.0000 13.0290 0.0000 0.0000
# 5 0.0000 0.0000 0.0000 0.0000 13.0290 0.0000
# 6 0.0000 0.0000 0.0000 0.0000 0.0000 14.1181
#
#
#
# Elastic Compliance Matrix: (Units=1/GPa)
#
#
# Indices 1 2 3 4 5 6 
#
# 1 0.023127 -0.012289 -0.002990 0.000000 0.000000 0.000000
# 2 -0.012289 0.023127 -0.002990 0.000000 0.000000 0.000000
# 3 -0.002990 -0.002990 0.017170 0.000000 0.000000 0.000000
# 4 0.000000 0.000000 0.000000 0.076752 0.000000 0.000000
# 5 0.000000 0.000000 0.000000 0.000000 0.076752 0.000000
# 6 0.000000 0.000000 0.000000 0.000000 0.000000 0.070831
#
#
# Mechanical properties :
#
#
# Convention : Reuss Voigt Hill
#
# Bulk Modulus (GPa) = 37.19169 37.74077 37.46623
# Shear Modulus (GPa) = 15.00341 16.18688 15.59515
#
# Velocity S-wave (km/s) = 3.15035 3.27225 3.21188
# Velocity P-wave (km/s) = 6.15104 6.26437 6.20796
#
# Compressibility (1/GPa) = 0.02688773
#
# Stress axis : x y z
#
# Youngs Moduli (GPa) = 43.24001 43.24001 58.23979
#
# Poissons Ratio (x) = 0.53137 0.17411
# Poissons Ratio (y) = 0.53137 0.17411
# Poissons Ratio (z) = 0.12927 0.12927
#
# Static dielectric constant tensor:
#      x y z
#    x 2.773910 0.000000 0.000000 
#    y 0.000000 2.773910 0.000000 
#    z 0.000000 0.000000 3.138610 
# 
# 
# High freq. dielectric constant tensor:
#      x y z
#    x 1.556940 0.000000 0.000000 
#    y 0.000000 1.556940 0.000000 
#    z 0.000000 0.000000 1.584990 
# 
# From -- ./inp_files/10877.got.cif
#   From: 2010.03.12/outbox.cif.g09.slc.cpg/sg191_6_cif.got.tgz:10877.got - 2010.04.01 12:09:02.
