data_PCOD8328403
_publ_section_title
;
Structure prediction by ZEFSAII (Michael W. Deem and Ramdas Pophale) SiO2 
 PCOD8328403
Probable space group: P 6/M M M
;
_chemical_formula_sum "Si O2"
_cell_formula_units_Z 168
_cell_length_a 22.155905
_cell_length_b 22.155905
_cell_length_c 25.298801
_cell_angle_alpha 90.000000
_cell_angle_beta 90.000000
_cell_angle_gamma 120.000000
_cell_volume 10754.978814
_symmetry_space_group_name_H-M "P 6/M M M"
_symmetry_group_IT_number 191
_symmetry_cell_setting 'hexagonal'
loop_
_space_group_symop_operation_xyz
x,y,z
x-y,x,z
-y,x-y,z
-x,-y,z
-x+y,-x,z
y,-x+y,z
x-y,-y,-z
-x,-x+y,-z
y,x,-z
-y,-x,-z
-x+y,y,-z
x,x-y,-z
-x,-y,-z
-x+y,-x,-z
y,-x+y,-z
x,y,-z
x-y,x,-z
-y,x-y,-z
-x+y,y,z
x,x-y,z
-y,-x,z
y,x,z
x-y,-y,z
-x,-x+y,z
loop_
_atom_site_type_symbol
_atom_site_label
_atom_site_fract_x
_atom_site_fract_y
_atom_site_fract_z
Si Si1 0.194598 0.528163 0.183847
Si Si2 0.077650 0.291179 0.440205
Si Si3 0.785260 0.707925 0.246335
Si Si4 0.737773 0.121026 0.343729
Si Si5 0.666046 0.195410 0.308656
Si Si6 0.301979 0.919987 0.152158
Si Si7 0.077849 0.291138 0.060490
O O1 0.265070 0.530140 0.165946
O O2 0.198903 0.599452 0.165259
O O3 0.184430 0.518496 0.246330
O O4 0.128714 0.464795 0.155287
O O5 0.087867 0.320032 0.500000
O O6 0.132557 0.265113 0.427111
O O7 0.089746 0.353986 0.401600
O O8 0.000000 0.225702 0.432185
O O9 0.867549 0.735098 0.252655
O O10 0.773923 0.773923 0.236461
O O11 0.741281 0.669381 0.298757
O O12 0.755830 0.654590 0.197680
O O13 0.804133 0.195867 0.335048
O O14 0.671922 0.132712 0.336827
O O15 0.594582 0.189164 0.328614
O O16 0.728454 0.271547 0.324801
O O17 0.264140 0.906829 0.095785
O O18 0.362731 0.000000 0.158802
O O19 0.132502 0.265003 0.073506
O O20 0.000000 0.226969 0.072330
O O21 0.084973 0.315997 0.000000
#
# Coordination Sequence:
#
# PCOD8328403 Si02
#       7
#    24  24  24  24  24  24  24
#     4  10  18  29  45  66  93 122 151 181 218 266
#     4   9  17  29  46  66  86 110 142 179 215 253
#     4  10  18  28  43  63  86 112 141 174 214 258
#     4   9  16  27  43  63  86 112 142 174 210 251
#     4   9  16  26  42  64  90 118 146 177 215 260
#     4  10  19  30  46  66  90 118 146 181 222 262
#     4   9  17  29  46  67  89 115 149 187 225 265
#
# _framework density 15.620672000000001
#
# number of rings (size 3 to 8) (size 9 to 14) (size 15 to 20)
#    0.000    2.571    1.429    2.000    0.000    1.429 
#    0.000    0.000    0.000    3.000    0.000    5.000 
#    0.000    9.143    0.000    0.286    0.000    0.571 
#
# Total GULP energy -2082680.594280 kJ/mol
# GULP energy per Si atom -12396.908299 kJ/mol
# Density = 1.558512 g / cm^3
# Si number density = 15.620672 Si / 1000 Ang^3
#
#
#
# Elastic Constant Matrix: (Units=GPa)
#
#
# Indices 1 2 3 4 5 6 
#
# 1 103.6400 62.9587 34.0347 0.0000 0.0000 0.0000
# 2 62.9587 103.6400 34.0347 0.0000 0.0000 0.0000
# 3 34.0347 34.0347 67.8004 0.0000 0.0000 0.0000
# 4 0.0000 0.0000 0.0000 18.7829 0.0000 0.0000
# 5 0.0000 0.0000 0.0000 0.0000 18.7829 0.0000
# 6 0.0000 0.0000 0.0000 0.0000 0.0000 20.3407
#
#
#
# Elastic Compliance Matrix: (Units=1/GPa)
#
#
# Indices 1 2 3 4 5 6 
#
# 1 0.016066 -0.008515 -0.003791 0.000000 0.000000 0.000000
# 2 -0.008515 0.016066 -0.003791 0.000000 0.000000 0.000000
# 3 -0.003791 -0.003791 0.018555 0.000000 0.000000 0.000000
# 4 0.000000 0.000000 0.000000 0.053240 0.000000 0.000000
# 5 0.000000 0.000000 0.000000 0.000000 0.053240 0.000000
# 6 0.000000 0.000000 0.000000 0.000000 0.000000 0.049163
#
#
# Mechanical properties :
#
#
# Convention : Reuss Voigt Hill
#
# Bulk Modulus (GPa) = 54.06898 59.68182 56.87540
# Shear Modulus (GPa) = 20.43426 21.18479 20.80952
#
# Velocity S-wave (km/s) = 3.62077 3.68666 3.65386
# Velocity P-wave (km/s) = 7.22280 7.51078 7.36820
#
# Compressibility (1/GPa) = 0.01849489
#
# Stress axis : x y z
#
# Youngs Moduli (GPa) = 62.24230 62.24230 53.89443
#
# Poissons Ratio (x) = 0.53000 0.20429
# Poissons Ratio (y) = 0.53000 0.20429
# Poissons Ratio (z) = 0.23593 0.23593
#
# Static dielectric constant tensor:
#      x y z
#    x 2.969630 0.000000 0.000000 
#    y 0.000000 2.969630 0.000000 
#    z 0.000000 0.000000 2.963810 
# 
# 
# High freq. dielectric constant tensor:
#      x y z
#    x 1.589070 0.000000 0.000000 
#    y 0.000000 1.589070 0.000000 
#    z 0.000000 0.000000 1.588100 
# 
# From -- ./inp_files/10061.got.cif
#   From: 2010.03.12/outbox.cif.g09.slc.cpg/sg191_6_cif.got.tgz:10061.got - 2010.04.01 12:09:02.
