data_PCOD8328609
_publ_section_title
;
Structure prediction by ZEFSAII (Michael W. Deem and Ramdas Pophale) SiO2 
 PCOD8328609
Probable space group: P 6/M M M
;
_chemical_formula_sum "Si O2"
_cell_formula_units_Z 120
_cell_length_a 17.949746
_cell_length_b 17.949746
_cell_length_c 25.633107
_cell_angle_alpha 90.000000
_cell_angle_beta 90.000000
_cell_angle_gamma 120.000000
_cell_volume 7152.345692
_symmetry_space_group_name_H-M "P 6/M M M"
_symmetry_group_IT_number 191
_symmetry_cell_setting 'hexagonal'
loop_
_space_group_symop_operation_xyz
x,y,z
x-y,x,z
-y,x-y,z
-x,-y,z
-x+y,-x,z
y,-x+y,z
x-y,-y,-z
-x,-x+y,-z
y,x,-z
-y,-x,-z
-x+y,y,-z
x,x-y,-z
-x,-y,-z
-x+y,-x,-z
y,-x+y,-z
x,y,-z
x-y,x,-z
-y,x-y,-z
-x+y,y,z
x,x-y,z
-y,-x,z
y,x,z
x-y,-y,z
-x,-x+y,z
loop_
_atom_site_type_symbol
_atom_site_label
_atom_site_fract_x
_atom_site_fract_y
_atom_site_fract_z
Si Si1 0.540153 0.636439 0.556412
Si Si2 0.096942 0.359912 0.940701
Si Si3 0.898917 0.367026 0.150737
Si Si4 0.669483 0.503941 0.334986
Si Si5 0.733177 0.634588 0.246326
O O1 0.548671 0.682710 0.500000
O O2 0.453201 0.546800 0.556394
O O3 0.619905 0.619905 0.563095
O O4 0.538594 0.690979 0.605494
O O5 0.160870 0.321740 0.932359
O O6 0.126606 0.442566 0.903945
O O7 0.000000 0.284478 0.926795
O O8 0.101867 0.391853 0.000000
O O9 0.855887 0.427944 0.153541
O O10 0.867813 0.300359 0.198399
O O11 0.000000 0.427000 0.154685
O O12 0.735539 0.471078 0.320053
O O13 0.572316 0.427685 0.327363
O O14 0.684638 0.582430 0.298147
O O15 0.836503 0.673006 0.250548
O O16 0.712006 0.712006 0.238731
#
# Coordination Sequence:
#
# PCOD8328609 Si02
#       5
#    24  24  24  24  24
#     4   8  14  25  40  56  75 105 148 192 228 263
#     4   9  17  29  46  68  93 122 157 196 236 277
#     4   9  17  29  46  68  91 115 146 182 218 259
#     4  10  19  29  42  62  89 120 153 189 228 267
#     4  10  20  33  50  71  93 118 149 185 224 266
#
# _framework density 16.777712999999999
#
# number of rings (size 3 to 8) (size 9 to 14) (size 15 to 20)
#    0.000    2.800    0.000    2.600    0.000    2.800 
#    0.000    2.000    0.000    6.000    0.000    1.400 
#    0.000    4.800    0.000    0.200    0.000    0.000 
#
# Total GULP energy -1486983.303815 kJ/mol
# GULP energy per Si atom -12391.527532 kJ/mol
# Density = 1.673953 g / cm^3
# Si number density = 16.777713 Si / 1000 Ang^3
#
#
#
# Elastic Constant Matrix: (Units=GPa)
#
#
# Indices 1 2 3 4 5 6 
#
# 1 72.6668 40.5520 32.2917 0.0000 0.0000 0.0000
# 2 40.5520 72.6668 32.2917 0.0000 0.0000 0.0000
# 3 32.2917 32.2917 106.7409 0.0000 0.0000 0.0000
# 4 0.0000 0.0000 0.0000 19.2709 0.0000 0.0000
# 5 0.0000 0.0000 0.0000 0.0000 19.2709 0.0000
# 6 0.0000 0.0000 0.0000 0.0000 0.0000 16.0574
#
#
#
# Elastic Compliance Matrix: (Units=1/GPa)
#
#
# Indices 1 2 3 4 5 6 
#
# 1 0.020906 -0.010232 -0.003229 0.000000 0.000000 0.000000
# 2 -0.010232 0.020906 -0.003229 0.000000 0.000000 0.000000
# 3 -0.003229 -0.003229 0.011322 0.000000 0.000000 0.000000
# 4 0.000000 0.000000 0.000000 0.051892 0.000000 0.000000
# 5 0.000000 0.000000 0.000000 0.000000 0.051892 0.000000
# 6 0.000000 0.000000 0.000000 0.000000 0.000000 0.062277
#
#
# Mechanical properties :
#
#
# Convention : Reuss Voigt Hill
#
# Bulk Modulus (GPa) = 50.62204 51.37168 50.99686
# Shear Modulus (GPa) = 19.29304 20.71578 20.00441
#
# Velocity S-wave (km/s) = 3.39473 3.51767 3.45675
# Velocity P-wave (km/s) = 6.75302 6.86907 6.81129
#
# Compressibility (1/GPa) = 0.01975424
#
# Stress axis : x y z
#
# Youngs Moduli (GPa) = 47.83221 47.83221 88.32074
#
# Poissons Ratio (x) = 0.48941 0.28521
# Poissons Ratio (y) = 0.48941 0.28521
# Poissons Ratio (z) = 0.15446 0.15446
#
# Static dielectric constant tensor:
#      x y z
#    x 2.949530 0.000000 0.000000 
#    y 0.000000 2.949530 0.000000 
#    z 0.000000 0.000000 3.574030 
# 
# 
# High freq. dielectric constant tensor:
#      x y z
#    x 1.615130 0.000000 0.000000 
#    y 0.000000 1.615130 0.000000 
#    z 0.000000 0.000000 1.670010 
# 
# From -- ./inp_files/10224.got.cif
#   From: 2010.03.12/outbox.cif.g09.slc.cpg/sg191_6_cif.got.tgz:10224.got - 2010.04.01 12:09:02.
