data_PCOD8328050
_publ_section_title
;
Structure prediction by ZEFSAII (Michael W. Deem and Ramdas Pophale) SiO2 
 PCOD8328050
Probable space group: P -6 2 C
;
_chemical_formula_sum "Si O2"
_cell_formula_units_Z 72
_cell_length_a 23.603178
_cell_length_b 23.603178
_cell_length_c 8.694228
_cell_angle_alpha 90.000000
_cell_angle_beta 90.000000
_cell_angle_gamma 120.000000
_cell_volume 4194.716554
_symmetry_space_group_name_H-M "P -6 2 C"
_symmetry_group_IT_number 190
_symmetry_cell_setting 'hexagonal'
loop_
_space_group_symop_operation_xyz
x,y,z
-x+y,-x,1/2-z
-y,x-y,z
x,y,1/2-z
-x+y,-x,z
-y,x-y,1/2-z
x-y,-y,-z
-x,-x+y,-z
y,x,-z
y,x,1/2+z
x-y,-y,1/2+z
-x,-x+y,1/2+z
loop_
_atom_site_type_symbol
_atom_site_label
_atom_site_fract_x
_atom_site_fract_y
_atom_site_fract_z
Si Si1 0.851017 0.713764 0.068288
Si Si2 0.070963 0.483729 0.072981
Si Si3 0.644875 0.929217 0.569318
Si Si4 0.071938 0.593105 0.930172
Si Si5 0.856732 0.928577 0.066761
Si Si6 0.640263 0.711638 0.429684
O O1 0.859160 0.727355 0.250000
O O2 0.886384 0.675049 0.006172
O O3 0.878796 0.782425 0.981507
O O4 0.776571 0.664873 0.026696
O O5 0.062867 0.493613 0.250000
O O6 0.104640 0.438895 0.048315
O O7 0.110481 0.557140 0.998085
O O8 0.000000 0.444420 0.000000
O O9 0.653526 0.936613 0.750000
O O10 0.567216 0.897023 0.526212
O O11 0.686997 0.000000 0.500000
O O12 0.068088 0.583698 0.750000
O O13 0.000000 0.556334 0.000000
O O14 0.862376 0.932022 0.250000
O O15 0.903894 0.903894 0.000000
O O16 0.878469 0.000000 0.000000
O O17 0.658332 0.726916 0.250000
O O18 0.675577 0.675577 0.500000
#
# Coordination Sequence:
#
# PCOD8328050 Si02
#       6
#    12  12  12  12  12  12
#     4  11  22  36  52  72  99 131 166 204 252 306
#     4   9  16  26  42  65  92 120 150 182 218 264
#     4   9  19  32  47  68  95 126 158 194 235 285
#     4   9  15  25  42  65  92 120 149 179 216 261
#     4  12  25  42  60  78  98 124 164 215 271 324
#     4  10  20  33  48  68  95 127 161 198 241 290
#
# _framework density 17.164449999999999
#
# number of rings (size 3 to 8) (size 9 to 14) (size 15 to 20)
#    0.000    2.000    0.000    5.667    0.000    5.333 
#    0.000    0.000    0.000    0.000    0.000    0.000 
#    1.667    0.000    1.000    0.000    1.333    0.000 
#
# Total GULP energy -892087.815807 kJ/mol
# GULP energy per Si atom -12390.108553 kJ/mol
# Density = 1.712538 g / cm^3
# Si number density = 17.164450 Si / 1000 Ang^3
#
#
#
# Elastic Constant Matrix: (Units=GPa)
#
#
# Indices 1 2 3 4 5 6 
#
# 1 84.5863 34.0272 27.7210 0.0000 0.0000 0.0000
# 2 34.0272 84.5863 27.7210 0.0000 0.0000 0.0000
# 3 27.7210 27.7210 85.1139 0.0000 0.0000 0.0000
# 4 0.0000 0.0000 0.0000 24.9197 0.0000 0.0000
# 5 0.0000 0.0000 0.0000 0.0000 24.9197 0.0000
# 6 0.0000 0.0000 0.0000 0.0000 0.0000 25.2795
#
#
#
# Elastic Compliance Matrix: (Units=1/GPa)
#
#
# Indices 1 2 3 4 5 6 
#
# 1 0.014862 -0.004917 -0.003239 0.000000 0.000000 0.000000
# 2 -0.004917 0.014862 -0.003239 0.000000 0.000000 0.000000
# 3 -0.003239 -0.003239 0.013859 0.000000 0.000000 0.000000
# 4 0.000000 0.000000 0.000000 0.040129 0.000000 0.000000
# 5 0.000000 0.000000 0.000000 0.000000 0.040129 0.000000
# 6 0.000000 0.000000 0.000000 0.000000 0.000000 0.039558
#
#
# Mechanical properties :
#
#
# Convention : Reuss Voigt Hill
#
# Bulk Modulus (GPa) = 48.09442 48.13612 48.11527
# Shear Modulus (GPa) = 25.89083 26.01157 25.95120
#
# Velocity S-wave (km/s) = 3.88802 3.89708 3.89255
# Velocity P-wave (km/s) = 6.94523 6.95375 6.94949
#
# Compressibility (1/GPa) = 0.02079243
#
# Stress axis : x y z
#
# Youngs Moduli (GPa) = 67.28675 67.28675 72.15665
#
# Poissons Ratio (x) = 0.33086 0.23371
# Poissons Ratio (y) = 0.33086 0.23371
# Poissons Ratio (z) = 0.21794 0.21794
#
# Static dielectric constant tensor:
#      x y z
#    x 3.590910 0.000000 0.000000 
#    y 0.000000 3.590910 0.000000 
#    z 0.000000 0.000000 3.310580 
# 
# 
# High freq. dielectric constant tensor:
#      x y z
#    x 1.646220 0.000000 0.000000 
#    y 0.000000 1.646220 0.000000 
#    z 0.000000 0.000000 1.680550 
# 
# From -- ./inp_files/1207.got.cif
#   From: 2010.06.25/outbox.cif.g09.slc.cpg/sg190_1_cif.got.tgz:1207.got - 2010.06.28 13:08:06.
