data_PCOD8328869
_publ_section_title
;
Structure prediction by ZEFSAII (Michael W. Deem and Ramdas Pophale) SiO2 
 PCOD8328869
Probable space group: P 6/M M M
;
_chemical_formula_sum "Si O2"
_cell_formula_units_Z 78
_cell_length_a 22.300826
_cell_length_b 22.300826
_cell_length_c 10.121329
_cell_angle_alpha 90.000000
_cell_angle_beta 90.000000
_cell_angle_gamma 120.000000
_cell_volume 4359.232895
_symmetry_space_group_name_H-M "P 6/M M M"
_symmetry_group_IT_number 191
_symmetry_cell_setting 'hexagonal'
loop_
_space_group_symop_operation_xyz
x,y,z
x-y,x,z
-y,x-y,z
-x,-y,z
-x+y,-x,z
y,-x+y,z
x-y,-y,-z
-x,-x+y,-z
y,x,-z
-y,-x,-z
-x+y,y,-z
x,x-y,-z
-x,-y,-z
-x+y,-x,-z
y,-x+y,-z
x,y,-z
x-y,x,-z
-y,x-y,-z
-x+y,y,z
x,x-y,z
-y,-x,z
y,x,z
x-y,-y,z
-x,-x+y,z
loop_
_atom_site_type_symbol
_atom_site_label
_atom_site_fract_x
_atom_site_fract_y
_atom_site_fract_z
Si Si1 0.000000 0.857257 0.285216
Si Si2 0.193834 0.527041 0.849157
Si Si3 0.862152 0.862152 0.000000
Si Si4 0.407465 0.273863 0.653143
Si Si5 0.000000 0.274802 0.353533
O O1 0.932046 0.864091 0.312849
O O2 0.000000 0.797442 0.370692
O O3 0.000000 0.826431 0.137832
O O4 0.271605 0.543209 0.825348
O O5 0.192094 0.596047 0.817320
O O6 0.141483 0.469240 0.746874
O O7 0.170382 0.502171 0.000000
O O8 0.875391 0.937696 0.000000
O O9 0.423753 0.298153 0.500000
O O10 0.396528 0.198264 0.670042
O O11 0.336725 0.267504 0.711317
O O12 0.000000 0.300743 0.500000
#
# Coordination Sequence:
#
# PCOD8328869 Si02
#       5
#    12  24   6  24  12
#     4  10  19  32  50  73  99 127 161 205 256 306
#     4   9  17  31  52  78 105 131 158 195 246 299
#     4   8  15  28  44  64  90 120 149 184 236 296
#     4   9  18  33  51  71  97 131 170 208 245 290
#     4  10  20  35  52  68  93 132 171 206 249 295
#
# _framework density 17.893056000000001
#
# number of rings (size 3 to 8) (size 9 to 14) (size 15 to 20)
#    0.000    2.769    0.000    1.462    0.000    4.923 
#    2.769    0.769    0.000    7.385    0.000    0.000 
#    0.000    0.000    0.000    0.000    0.000    0.000 
#
# Total GULP energy -966356.615258 kJ/mol
# GULP energy per Si atom -12389.187375 kJ/mol
# Density = 1.785233 g / cm^3
# Si number density = 17.893056 Si / 1000 Ang^3
#
#
#
# Elastic Constant Matrix: (Units=GPa)
#
#
# Indices 1 2 3 4 5 6 
#
# 1 114.7134 60.8295 46.4436 0.0000 0.0000 0.0000
# 2 60.8295 114.7134 46.4436 0.0000 0.0000 0.0000
# 3 46.4436 46.4436 75.4833 0.0000 0.0000 0.0000
# 4 0.0000 0.0000 0.0000 23.1020 0.0000 0.0000
# 5 0.0000 0.0000 0.0000 0.0000 23.1020 0.0000
# 6 0.0000 0.0000 0.0000 0.0000 0.0000 26.9420
#
#
#
# Elastic Compliance Matrix: (Units=1/GPa)
#
#
# Indices 1 2 3 4 5 6 
#
# 1 0.013502 -0.005056 -0.005197 0.000000 0.000000 0.000000
# 2 -0.005056 0.013502 -0.005197 0.000000 0.000000 0.000000
# 3 -0.005197 -0.005197 0.019643 0.000000 0.000000 0.000000
# 4 0.000000 0.000000 0.000000 0.043286 0.000000 0.000000
# 5 0.000000 0.000000 0.000000 0.000000 0.043286 0.000000
# 6 0.000000 0.000000 0.000000 0.000000 0.000000 0.037117
#
#
# Mechanical properties :
#
#
# Convention : Reuss Voigt Hill
#
# Bulk Modulus (GPa) = 63.49903 68.03818 65.76861
# Shear Modulus (GPa) = 24.21461 24.70877 24.46169
#
# Velocity S-wave (km/s) = 3.68271 3.72010 3.70145
# Velocity P-wave (km/s) = 7.32450 7.52061 7.42320
#
# Compressibility (1/GPa) = 0.01574827
#
# Stress axis : x y z
#
# Youngs Moduli (GPa) = 74.06038 74.06038 50.90808
#
# Poissons Ratio (x) = 0.37444 0.26457
# Poissons Ratio (y) = 0.37444 0.26457
# Poissons Ratio (z) = 0.38489 0.38489
#
# Static dielectric constant tensor:
#      x y z
#    x 3.254280 0.000000 0.000000 
#    y 0.000000 3.254280 0.000000 
#    z 0.000000 0.000000 3.616370 
# 
# 
# High freq. dielectric constant tensor:
#      x y z
#    x 1.683110 0.000000 0.000000 
#    y 0.000000 1.683110 0.000000 
#    z 0.000000 0.000000 1.691190 
# 
# From -- ./inp_files/1075.got.cif
#   From: 2010.03.12/outbox.cif.g09.slc.cpg/sg191_1_cif.got.tgz:1075.got - 2010.04.01 12:09:02.
