data_PCOD8328843
_publ_section_title
;
Structure prediction by ZEFSAII (Michael W. Deem and Ramdas Pophale) SiO2 
 PCOD8328843
Probable space group: P 6/M M M
;
_chemical_formula_sum "Si O2"
_cell_formula_units_Z 144
_cell_length_a 21.987750
_cell_length_b 21.987750
_cell_length_c 20.343781
_cell_angle_alpha 90.000000
_cell_angle_beta 90.000000
_cell_angle_gamma 120.000000
_cell_volume 8517.730296
_symmetry_space_group_name_H-M "P 6/M M M"
_symmetry_group_IT_number 191
_symmetry_cell_setting 'hexagonal'
loop_
_space_group_symop_operation_xyz
x,y,z
x-y,x,z
-y,x-y,z
-x,-y,z
-x+y,-x,z
y,-x+y,z
x-y,-y,-z
-x,-x+y,-z
y,x,-z
-y,-x,-z
-x+y,y,-z
x,x-y,-z
-x,-y,-z
-x+y,-x,-z
y,-x+y,-z
x,y,-z
x-y,x,-z
-y,x-y,-z
-x+y,y,z
x,x-y,z
-y,-x,z
y,x,z
x-y,-y,z
-x,-x+y,z
loop_
_atom_site_type_symbol
_atom_site_label
_atom_site_fract_x
_atom_site_fract_y
_atom_site_fract_z
Si Si1 0.290504 0.077932 0.236400
Si Si2 0.525331 0.334777 0.321592
Si Si3 0.467655 0.078852 0.073020
Si Si4 0.292422 0.443999 0.808419
Si Si5 0.919935 0.347550 0.574277
Si Si6 0.922060 0.708670 0.390389
O O1 0.264241 0.132121 0.215936
O O2 0.362029 0.096175 0.200183
O O3 0.307134 0.083862 0.313255
O O4 0.230143 0.000000 0.216034
O O5 0.516910 0.258455 0.333826
O O6 0.607358 0.392643 0.317988
O O7 0.487725 0.337229 0.254496
O O8 0.490193 0.354901 0.380523
O O9 0.541724 0.083447 0.073604
O O10 0.470123 0.133258 0.125694
O O11 0.407196 0.000000 0.091208
O O12 0.453346 0.098630 0.000000
O O13 0.229213 0.458426 0.818120
O O14 0.909795 0.366229 0.500000
O O15 0.905333 0.268150 0.574166
O O16 0.000000 0.400411 0.598367
O O17 0.865422 0.730843 0.413156
O O18 0.000000 0.771701 0.409036
#
# Coordination Sequence:
#
# PCOD8328843 Si02
#       6
#    24  24  24  24  24  24
#     4   9  16  27  45  69  96 124 157 197 239 285
#     4  11  23  38  54  73  98 130 165 200 240 291
#     4   9  18  32  49  70  97 128 160 194 235 286
#     4  10  19  31  50  74  97 124 161 204 244 282
#     4  10  21  36  54  75  97 122 156 203 254 296
#     4   9  16  28  46  68  94 123 156 194 237 284
#
# _framework density 16.905911
#
# number of rings (size 3 to 8) (size 9 to 14) (size 15 to 20)
#    0.000    2.333    1.667    2.167    0.000    3.000 
#    0.000    0.833    0.000    1.667    0.000    2.333 
#    0.000    0.000    0.000    4.167    0.000    4.333 
#
# Total GULP energy -1785361.592208 kJ/mol
# GULP energy per Si atom -12398.344390 kJ/mol
# Density = 1.686743 g / cm^3
# Si number density = 16.905911 Si / 1000 Ang^3
#
#
#
# Elastic Constant Matrix: (Units=GPa)
#
#
# Indices 1 2 3 4 5 6 
#
# 1 76.9584 34.0919 39.1145 0.0000 0.0000 0.0000
# 2 34.0919 76.9584 39.1145 0.0000 0.0000 0.0000
# 3 39.1145 39.1145 89.1001 0.0000 0.0000 0.0000
# 4 0.0000 0.0000 0.0000 18.8952 0.0000 0.0000
# 5 0.0000 0.0000 0.0000 0.0000 18.8952 0.0000
# 6 0.0000 0.0000 0.0000 0.0000 0.0000 21.4332
#
#
#
# Elastic Compliance Matrix: (Units=1/GPa)
#
#
# Indices 1 2 3 4 5 6 
#
# 1 0.018182 -0.005146 -0.005723 0.000000 0.000000 0.000000
# 2 -0.005146 0.018182 -0.005723 0.000000 0.000000 0.000000
# 3 -0.005723 -0.005723 0.016248 0.000000 0.000000 0.000000
# 4 0.000000 0.000000 0.000000 0.052923 0.000000 0.000000
# 5 0.000000 0.000000 0.000000 0.000000 0.052923 0.000000
# 6 0.000000 0.000000 0.000000 0.000000 0.000000 0.046656
#
#
# Mechanical properties :
#
#
# Convention : Reuss Voigt Hill
#
# Bulk Modulus (GPa) = 51.46902 51.96205 51.71553
# Shear Modulus (GPa) = 20.42684 20.55780 20.49232
#
# Velocity S-wave (km/s) = 3.47978 3.49092 3.48536
# Velocity P-wave (km/s) = 6.83050 6.85941 6.84497
#
# Compressibility (1/GPa) = 0.01942916
#
# Stress axis : x y z
#
# Youngs Moduli (GPa) = 54.99842 54.99842 61.54599
#
# Poissons Ratio (x) = 0.28302 0.35222
# Poissons Ratio (y) = 0.28302 0.35222
# Poissons Ratio (z) = 0.31475 0.31475
#
# Static dielectric constant tensor:
#      x y z
#    x 3.148090 0.000000 0.000000 
#    y 0.000000 3.148090 0.000000 
#    z 0.000000 0.000000 3.254090 
# 
# 
# High freq. dielectric constant tensor:
#      x y z
#    x 1.644010 0.000000 0.000000 
#    y 0.000000 1.644010 0.000000 
#    z 0.000000 0.000000 1.642840 
# 
# From -- ./inp_files/7597.got.cif
#   From: 2010.03.12/outbox.cif.g09.slc.cpg/sg191_4_cif.got.tgz:7597.got - 2010.04.01 12:09:02.
