data_PCOD8328108
_publ_section_title
;
Structure prediction by ZEFSAII (Michael W. Deem and Ramdas Pophale) SiO2 
 PCOD8328108
Probable space group: P -6 2 C
;
_chemical_formula_sum "Si O2"
_cell_formula_units_Z 42
_cell_length_a 8.588177
_cell_length_b 8.588177
_cell_length_c 32.279099
_cell_angle_alpha 90.000000
_cell_angle_beta 90.000000
_cell_angle_gamma 120.000000
_cell_volume 2061.835480
_symmetry_space_group_name_H-M "P -6 2 C"
_symmetry_group_IT_number 190
_symmetry_cell_setting 'hexagonal'
loop_
_space_group_symop_operation_xyz
x,y,z
-x+y,-x,1/2-z
-y,x-y,z
x,y,1/2-z
-x+y,-x,z
-y,x-y,1/2-z
x-y,-y,-z
-x,-x+y,-z
y,x,-z
y,x,1/2+z
x-y,-y,1/2+z
-x,-x+y,1/2+z
loop_
_atom_site_type_symbol
_atom_site_label
_atom_site_fract_x
_atom_site_fract_y
_atom_site_fract_z
Si Si1 0.520311 0.878207 0.961271
Si Si2 0.324435 0.994205 0.160825
Si Si3 0.195071 0.990814 0.250000
Si Si4 0.995612 0.655875 0.372095
O O1 0.311371 0.831675 0.962013
O O2 0.621386 0.992022 0.920940
O O3 0.628764 0.000000 0.000000
O O4 0.301375 0.985965 0.210087
O O5 0.394053 0.193452 0.143768
O O6 0.473148 0.939292 0.151398
O O7 0.137550 0.861980 0.137955
O O8 0.181048 0.172988 0.250000
#
# Coordination Sequence:
#
# PCOD8328108 Si02
#       4
#    12  12   6  12
#     4  10  23  41  65  98 136 173 226 279 336 406
#     4  12  24  42  72  94 141 177 226 282 338 404
#     4  10  20  42  66 100 130 174 226 278 340 400
#     4  12  24  45  65 105 133 186 223 279 341 410
#
# _framework density 20.370200000000001
#
# number of rings (size 3 to 8) (size 9 to 14) (size 15 to 20)
#    0.857    0.000    5.714    1.714    4.000    2.286 
#    0.000    0.000    0.000    0.571    0.000    0.000 
#    0.000    0.000    0.000    0.000    0.000    0.000 
#
# Total GULP energy -520929.817332 kJ/mol
# GULP energy per Si atom -12403.090889 kJ/mol
# Density = 2.032384 g / cm^3
# Si number density = 20.370200 Si / 1000 Ang^3
#
#
#
# Elastic Constant Matrix: (Units=GPa)
#
#
# Indices 1 2 3 4 5 6 
#
# 1 71.2028 6.9142 47.5554 0.0000 0.0000 0.0000
# 2 6.9142 71.2028 47.5554 0.0000 0.0000 0.0000
# 3 47.5554 47.5554 217.6187 0.0000 0.0000 0.0000
# 4 0.0000 0.0000 0.0000 26.4036 0.0000 0.0000
# 5 0.0000 0.0000 0.0000 0.0000 26.4036 0.0000
# 6 0.0000 0.0000 0.0000 0.0000 0.0000 32.1443
#
#
#
# Elastic Compliance Matrix: (Units=1/GPa)
#
#
# Indices 1 2 3 4 5 6 
#
# 1 0.016498 0.000944 -0.003812 0.000000 0.000000 0.000000
# 2 0.000944 0.016498 -0.003812 0.000000 0.000000 0.000000
# 3 -0.003812 -0.003812 0.006261 0.000000 0.000000 0.000000
# 4 0.000000 0.000000 0.000000 0.037874 0.000000 0.000000
# 5 0.000000 0.000000 0.000000 0.000000 0.037874 0.000000
# 6 0.000000 0.000000 0.000000 0.000000 0.000000 0.031110
#
#
# Mechanical properties :
#
#
# Convention : Reuss Voigt Hill
#
# Bulk Modulus (GPa) = 38.61166 62.67491 50.64329
# Shear Modulus (GPa) = 29.74298 34.19024 31.96661
#
# Velocity S-wave (km/s) = 3.82530 4.10133 3.96572
# Velocity P-wave (km/s) = 6.20538 7.29812 6.77382
#
# Compressibility (1/GPa) = 0.02589891
#
# Stress axis : x y z
#
# Youngs Moduli (GPa) = 60.61180 60.61180 159.71811
#
# Poissons Ratio (x) = -0.05719 0.60877
# Poissons Ratio (y) = -0.05719 0.60877
# Poissons Ratio (z) = 0.23102 0.23102
#
# Static dielectric constant tensor:
#      x y z
#    x 3.478550 0.000000 0.000000 
#    y 0.000000 3.478550 0.000000 
#    z 0.000000 0.000000 3.609800 
# 
# 
# High freq. dielectric constant tensor:
#      x y z
#    x 1.786750 0.000000 0.000000 
#    y 0.000000 1.786750 0.000000 
#    z 0.000000 0.000000 1.807980 
# 
# From -- ./inp_files/5072.got.cif
#   From: 2010.06.25/outbox.cif.g09.slc.cpg/sg190_3_cif.got.tgz:5072.got - 2010.06.28 13:08:06.
