data_PCOD8328687
_publ_section_title
;
Structure prediction by ZEFSAII (Michael W. Deem and Ramdas Pophale) SiO2 
 PCOD8328687
Probable space group: P 6/M M M
;
_chemical_formula_sum "Si O2"
_cell_formula_units_Z 120
_cell_length_a 26.944532
_cell_length_b 26.944532
_cell_length_c 12.801476
_cell_angle_alpha 90.000000
_cell_angle_beta 90.000000
_cell_angle_gamma 120.000000
_cell_volume 8048.815410
_symmetry_space_group_name_H-M "P 6/M M M"
_symmetry_group_IT_number 191
_symmetry_cell_setting 'hexagonal'
loop_
_space_group_symop_operation_xyz
x,y,z
x-y,x,z
-y,x-y,z
-x,-y,z
-x+y,-x,z
y,-x+y,z
x-y,-y,-z
-x,-x+y,-z
y,x,-z
-y,-x,-z
-x+y,y,-z
x,x-y,-z
-x,-y,-z
-x+y,-x,-z
y,-x+y,-z
x,y,-z
x-y,x,-z
-y,x-y,-z
-x+y,y,z
x,x-y,z
-y,-x,z
y,x,z
x-y,-y,z
-x,-x+y,z
loop_
_atom_site_type_symbol
_atom_site_label
_atom_site_fract_x
_atom_site_fract_y
_atom_site_fract_z
Si Si1 0.133937 0.755766 0.695306
Si Si2 0.862821 0.377066 0.500000
Si Si3 0.931985 0.310739 0.500000
Si Si4 0.866139 0.488278 0.882552
Si Si5 0.933581 0.618818 0.119470
Si Si6 0.798064 0.311267 0.304719
O O1 0.175045 0.824955 0.687363
O O2 0.089054 0.730848 0.600304
O O3 0.100355 0.740058 0.805636
O O4 0.173647 0.728103 0.689306
O O5 0.893596 0.446798 0.500000
O O6 0.909313 0.356216 0.500000
O O7 0.821679 0.355313 0.399723
O O8 0.000000 0.347262 0.500000
O O9 0.892625 0.446313 0.869440
O O10 0.915690 0.552906 0.856945
O O11 0.812651 0.468038 0.805067
O O12 0.842741 0.484520 0.000000
O O13 0.000000 0.656458 0.145332
O O14 0.919934 0.626705 0.000000
O O15 0.729323 0.270678 0.312847
#
# Coordination Sequence:
#
# PCOD8328687 Si02
#       6
#    24  12  12  24  24  24
#     4   9  17  29  44  61  80 104 136 167 195 233
#     4  10  19  30  45  63  81 102 128 157 197 257
#     4  10  19  30  45  65  88 110 132 163 206 250
#     4   9  17  28  42  60  80 103 131 161 200 257
#     4   9  17  28  42  62  87 111 135 167 208 249
#     4   9  17  29  44  58  72  94 125 162 199 234
#
# _framework density 14.909026000000001
#
# number of rings (size 3 to 8) (size 9 to 14) (size 15 to 20)
#    0.000    2.800    0.000    1.800    0.000    3.800 
#    0.000    6.000    0.000   12.800    0.000    0.000 
#    0.000    0.000    0.000    0.000    0.000    0.000 
#
# Total GULP energy -1487353.772032 kJ/mol
# GULP energy per Si atom -12394.614767 kJ/mol
# Density = 1.487509 g / cm^3
# Si number density = 14.909026 Si / 1000 Ang^3
#
#
#
# Elastic Constant Matrix: (Units=GPa)
#
#
# Indices 1 2 3 4 5 6 
#
# 1 68.8023 42.0414 43.6281 0.0000 0.0000 0.0000
# 2 42.0414 68.8023 43.6281 0.0000 0.0000 0.0000
# 3 43.6281 43.6281 111.3461 0.0000 0.0000 0.0000
# 4 0.0000 0.0000 0.0000 16.5276 0.0000 0.0000
# 5 0.0000 0.0000 0.0000 0.0000 16.5276 0.0000
# 6 0.0000 0.0000 0.0000 0.0000 0.0000 13.3804
#
#
#
# Elastic Compliance Matrix: (Units=1/GPa)
#
#
# Indices 1 2 3 4 5 6 
#
# 1 0.025207 -0.012161 -0.005112 0.000000 0.000000 0.000000
# 2 -0.012161 0.025207 -0.005112 0.000000 0.000000 0.000000
# 3 -0.005112 -0.005112 0.012987 0.000000 0.000000 0.000000
# 4 0.000000 0.000000 0.000000 0.060505 0.000000 0.000000
# 5 0.000000 0.000000 0.000000 0.000000 0.060505 0.000000
# 6 0.000000 0.000000 0.000000 0.000000 0.000000 0.074736
#
#
# Mechanical properties :
#
#
# Convention : Reuss Voigt Hill
#
# Bulk Modulus (GPa) = 53.67253 56.39400 55.03326
# Shear Modulus (GPa) = 16.12253 17.26400 16.69326
#
# Velocity S-wave (km/s) = 3.29202 3.40657 3.34978
# Velocity P-wave (km/s) = 7.10831 7.30619 7.20793
#
# Compressibility (1/GPa) = 0.01863151
#
# Stress axis : x y z
#
# Youngs Moduli (GPa) = 39.67191 39.67191 77.00202
#
# Poissons Ratio (x) = 0.48246 0.39360
# Poissons Ratio (y) = 0.48246 0.39360
# Poissons Ratio (z) = 0.20279 0.20279
#
# Static dielectric constant tensor:
#      x y z
#    x 2.704740 0.000000 0.000000 
#    y 0.000000 2.704740 0.000000 
#    z 0.000000 0.000000 3.144560 
# 
# 
# High freq. dielectric constant tensor:
#      x y z
#    x 1.534100 0.000000 0.000000 
#    y 0.000000 1.534100 0.000000 
#    z 0.000000 0.000000 1.593650 
# 
# From -- ./inp_files/3220.got.cif
#   From: 2010.03.12/outbox.cif.g09.slc.cpg/sg191_2_cif.got.tgz:3220.got - 2010.04.01 12:09:02.
