data_PCOD8328760
_publ_section_title
;
Structure prediction by ZEFSAII (Michael W. Deem and Ramdas Pophale) SiO2 
 PCOD8328760
Probable space group: P 6/M M M
;
_chemical_formula_sum "Si O2"
_cell_formula_units_Z 108
_cell_length_a 17.559765
_cell_length_b 17.559765
_cell_length_c 22.034923
_cell_angle_alpha 90.000000
_cell_angle_beta 90.000000
_cell_angle_gamma 120.000000
_cell_volume 5884.093537
_symmetry_space_group_name_H-M "P 6/M M M"
_symmetry_group_IT_number 191
_symmetry_cell_setting 'hexagonal'
loop_
_space_group_symop_operation_xyz
x,y,z
x-y,x,z
-y,x-y,z
-x,-y,z
-x+y,-x,z
y,-x+y,z
x-y,-y,-z
-x,-x+y,-z
y,x,-z
-y,-x,-z
-x+y,y,-z
x,x-y,-z
-x,-y,-z
-x+y,-x,-z
y,-x+y,-z
x,y,-z
x-y,x,-z
-y,x-y,-z
-x+y,y,z
x,x-y,z
-y,-x,z
y,x,z
x-y,-y,z
-x,-x+y,z
loop_
_atom_site_type_symbol
_atom_site_label
_atom_site_fract_x
_atom_site_fract_y
_atom_site_fract_z
Si Si1 0.729053 0.630599 0.762009
Si Si2 0.000000 0.827220 0.427723
Si Si3 0.511752 0.843955 0.646354
Si Si4 0.000000 0.346327 0.571857
Si Si5 0.330636 0.837513 0.129080
Si Si6 0.902719 0.361171 0.000000
O O1 0.833792 0.667584 0.759623
O O2 0.711804 0.711804 0.752148
O O3 0.678981 0.557261 0.711102
O O4 0.687868 0.586164 0.826357
O O5 0.913348 0.826695 0.402690
O O6 0.000000 0.828276 0.500000
O O7 0.000000 0.740662 0.403524
O O8 0.415553 0.831105 0.649856
O O9 0.503628 0.751814 0.628571
O O10 0.567653 0.913422 0.594556
O O11 0.000000 0.348344 0.500000
O O12 0.430397 0.860793 0.137544
O O13 0.264836 0.735165 0.144915
O O14 0.309358 0.853436 0.060594
O O15 0.907132 0.453566 0.000000
O O16 0.000000 0.374407 0.000000
#
# Coordination Sequence:
#
# PCOD8328760 Si02
#       6
#    24  12  24  12  24  12
#     4  10  21  37  58  82 107 139 178 222 268 317
#     4   9  17  31  53  81 111 141 174 213 259 312
#     4  11  23  39  59  83 111 143 182 226 272 320
#     4  11  23  39  59  81 109 144 181 221 269 331
#     4  10  19  30  47  72 106 145 185 226 269 316
#     4   9  17  28  42  64  96 139 187 231 271 314
#
# _framework density 18.354569000000001
#
# number of rings (size 3 to 8) (size 9 to 14) (size 15 to 20)
#    0.000    1.889    1.111    3.222    0.000    4.889 
#    0.000    3.333    0.000    1.556    0.000    0.000 
#    0.000    0.000    0.000    0.000    0.000   23.111 
#
# Total GULP energy -1339313.683277 kJ/mol
# GULP energy per Si atom -12401.052623 kJ/mol
# Density = 1.831279 g / cm^3
# Si number density = 18.354569 Si / 1000 Ang^3
#
#
#
# Elastic Constant Matrix: (Units=GPa)
#
#
# Indices 1 2 3 4 5 6 
#
# 1 120.5201 70.1099 35.4057 0.0000 0.0000 0.0000
# 2 70.1099 120.5201 35.4057 0.0000 0.0000 0.0000
# 3 35.4057 35.4057 88.3310 0.0000 0.0000 0.0000
# 4 0.0000 0.0000 0.0000 23.3551 0.0000 0.0000
# 5 0.0000 0.0000 0.0000 0.0000 23.3551 0.0000
# 6 0.0000 0.0000 0.0000 0.0000 0.0000 25.2051
#
#
#
# Elastic Compliance Matrix: (Units=1/GPa)
#
#
# Indices 1 2 3 4 5 6 
#
# 1 0.013000 -0.006837 -0.002470 0.000000 0.000000 0.000000
# 2 -0.006837 0.013000 -0.002470 0.000000 0.000000 0.000000
# 3 -0.002470 -0.002470 0.013302 0.000000 0.000000 0.000000
# 4 0.000000 0.000000 0.000000 0.042817 0.000000 0.000000
# 5 0.000000 0.000000 0.000000 0.000000 0.042817 0.000000
# 6 0.000000 0.000000 0.000000 0.000000 0.000000 0.039675
#
#
# Mechanical properties :
#
#
# Convention : Reuss Voigt Hill
#
# Bulk Modulus (GPa) = 63.50630 67.91266 65.70948
# Shear Modulus (GPa) = 25.85105 26.94639 26.39872
#
# Velocity S-wave (km/s) = 3.75697 3.83574 3.79656
# Velocity P-wave (km/s) = 7.31400 7.52980 7.42269
#
# Compressibility (1/GPa) = 0.01574647
#
# Stress axis : x y z
#
# Youngs Moduli (GPa) = 76.92097 76.92097 75.17919
#
# Poissons Ratio (x) = 0.52590 0.18573
# Poissons Ratio (y) = 0.52590 0.18573
# Poissons Ratio (z) = 0.19003 0.19003
#
# Static dielectric constant tensor:
#      x y z
#    x 3.378770 0.000000 0.000000 
#    y 0.000000 3.378770 0.000000 
#    z 0.000000 0.000000 3.450560 
# 
# 
# High freq. dielectric constant tensor:
#      x y z
#    x 1.704520 0.000000 0.000000 
#    y 0.000000 1.704520 0.000000 
#    z 0.000000 0.000000 1.714410 
# 
# From -- ./inp_files/7367.got.cif
#   From: 2010.03.12/outbox.cif.g09.slc.cpg/sg191_4_cif.got.tgz:7367.got - 2010.04.01 12:09:02.
