data_PCOD8328372
_publ_section_title
;
Structure prediction by ZEFSAII (Michael W. Deem and Ramdas Pophale) SiO2 
 PCOD8328372
Probable space group: P 6/M M M
;
_chemical_formula_sum "Si O2"
_cell_formula_units_Z 144
_cell_length_a 22.364919
_cell_length_b 22.364919
_cell_length_c 25.584447
_cell_angle_alpha 90.000000
_cell_angle_beta 90.000000
_cell_angle_gamma 120.000000
_cell_volume 11082.591489
_symmetry_space_group_name_H-M "P 6/M M M"
_symmetry_group_IT_number 191
_symmetry_cell_setting 'hexagonal'
loop_
_space_group_symop_operation_xyz
x,y,z
x-y,x,z
-y,x-y,z
-x,-y,z
-x+y,-x,z
y,-x+y,z
x-y,-y,-z
-x,-x+y,-z
y,x,-z
-y,-x,-z
-x+y,y,-z
x,x-y,-z
-x,-y,-z
-x+y,-x,-z
y,-x+y,-z
x,y,-z
x-y,x,-z
-y,x-y,-z
-x+y,y,z
x,x-y,z
-y,-x,z
y,x,z
x-y,-y,z
-x,-x+y,z
loop_
_atom_site_type_symbol
_atom_site_label
_atom_site_fract_x
_atom_site_fract_y
_atom_site_fract_z
Si Si1 0.790103 0.713122 0.438849
Si Si2 0.608800 0.079550 0.309259
Si Si3 0.148885 0.711725 0.599357
Si Si4 0.668530 0.475091 0.113669
Si Si5 0.666474 0.191327 0.500000
Si Si6 0.332288 0.800201 0.000000
Si Si7 0.532914 0.923658 0.808092
O O1 0.779835 0.696627 0.500000
O O2 0.869272 0.738543 0.422615
O O3 0.772712 0.772712 0.423236
O O4 0.737511 0.643003 0.409856
O O5 0.550039 0.100078 0.312842
O O6 0.668820 0.128888 0.347817
O O7 0.639759 0.092931 0.250565
O O8 0.578409 0.000000 0.325171
O O9 0.224899 0.775102 0.607181
O O10 0.148319 0.665720 0.550755
O O11 0.734223 0.468446 0.130871
O O12 0.601080 0.398921 0.115569
O O13 0.662696 0.528767 0.152218
O O14 0.679952 0.508693 0.054958
O O15 0.733027 0.266974 0.500000
O O16 0.599280 0.198559 0.500000
O O17 0.282767 0.717233 0.000000
O O18 0.410612 0.821223 0.000000
O O19 0.461927 0.923853 0.808530
O O20 0.594071 0.000000 0.825083
#
# Coordination Sequence:
#
# PCOD8328372 Si02
#       7
#    24  24  24  24  12  12  24
#     4   9  16  27  42  58  76  95 113 134 165 203
#     4   9  17  29  42  54  69  91 119 149 180 211
#     4  10  18  28  41  57  75  93 115 146 179 211
#     4   9  15  23  36  53  72  91 115 145 178 211
#     4  10  19  30  41  53  72  97 122 146 177 215
#     4   8  13  20  31  49  71  93 112 137 174 214
#     4   8  15  27  39  49  66  93 119 143 175 214
#
# _framework density 12.993351000000001
#
# number of rings (size 3 to 8) (size 9 to 14) (size 15 to 20)
#    0.000    3.000    0.833    2.333    0.000    2.000 
#    0.000    0.417    0.000    5.000    0.000    1.167 
#    0.000    0.000    0.000    0.000    0.000    0.000 
#
# Total GULP energy -1784439.553469 kJ/mol
# GULP energy per Si atom -12391.941344 kJ/mol
# Density = 1.296378 g / cm^3
# Si number density = 12.993351 Si / 1000 Ang^3
#
#
#
# Elastic Constant Matrix: (Units=GPa)
#
#
# Indices 1 2 3 4 5 6 
#
# 1 54.5730 32.3758 39.8065 0.0000 0.0000 0.0000
# 2 32.3758 54.5730 39.8065 0.0000 0.0000 0.0000
# 3 39.8065 39.8065 90.9339 0.0000 0.0000 0.0000
# 4 0.0000 0.0000 0.0000 17.0277 0.0000 0.0000
# 5 0.0000 0.0000 0.0000 0.0000 17.0277 0.0000
# 6 0.0000 0.0000 0.0000 0.0000 0.0000 11.0986
#
#
#
# Elastic Compliance Matrix: (Units=1/GPa)
#
#
# Indices 1 2 3 4 5 6 
#
# 1 0.032123 -0.012928 -0.008402 0.000000 0.000000 0.000000
# 2 -0.012928 0.032123 -0.008402 0.000000 0.000000 0.000000
# 3 -0.008402 -0.008402 0.018353 0.000000 0.000000 0.000000
# 4 0.000000 0.000000 0.000000 0.058728 0.000000 0.000000
# 5 0.000000 0.000000 0.000000 0.000000 0.058728 0.000000
# 6 0.000000 0.000000 0.000000 0.000000 0.000000 0.090101
#
#
# Mechanical properties :
#
#
# Convention : Reuss Voigt Hill
#
# Bulk Modulus (GPa) = 43.22887 47.11751 45.17319
# Shear Modulus (GPa) = 13.99256 14.90355 14.44806
#
# Velocity S-wave (km/s) = 3.28518 3.39043 3.33822
# Velocity P-wave (km/s) = 6.90884 7.18806 7.04983
#
# Compressibility (1/GPa) = 0.02313269
#
# Stress axis : x y z
#
# Youngs Moduli (GPa) = 31.13067 31.13067 54.48580
#
# Poissons Ratio (x) = 0.40246 0.45782
# Poissons Ratio (y) = 0.40246 0.45782
# Poissons Ratio (z) = 0.26157 0.26157
#
# Static dielectric constant tensor:
#      x y z
#    x 2.502070 0.000000 0.000000 
#    y 0.000000 2.502070 0.000000 
#    z 0.000000 0.000000 2.763560 
# 
# 
# High freq. dielectric constant tensor:
#      x y z
#    x 1.471380 0.000000 0.000000 
#    y 0.000000 1.471380 0.000000 
#    z 0.000000 0.000000 1.495110 
# 
# From -- ./inp_files/9962.got.cif
#   From: 2010.03.12/outbox.cif.g09.slc.cpg/sg191_5_cif.got.tgz:9962.got - 2010.04.01 12:09:02.
