data_PCOD8328585
_publ_section_title
;
Structure prediction by ZEFSAII (Michael W. Deem and Ramdas Pophale) SiO2 
 PCOD8328585
Probable space group: P 6/M M M
;
_chemical_formula_sum "Si O2"
_cell_formula_units_Z 156
_cell_length_a 21.054861
_cell_length_b 21.054861
_cell_length_c 29.616899
_cell_angle_alpha 90.000000
_cell_angle_beta 90.000000
_cell_angle_gamma 120.000000
_cell_volume 11370.379847
_symmetry_space_group_name_H-M "P 6/M M M"
_symmetry_group_IT_number 191
_symmetry_cell_setting 'hexagonal'
loop_
_space_group_symop_operation_xyz
x,y,z
x-y,x,z
-y,x-y,z
-x,-y,z
-x+y,-x,z
y,-x+y,z
x-y,-y,-z
-x,-x+y,-z
y,x,-z
-y,-x,-z
-x+y,y,-z
x,x-y,-z
-x,-y,-z
-x+y,-x,-z
y,-x+y,-z
x,y,-z
x-y,x,-z
-y,x-y,-z
-x+y,y,z
x,x-y,z
-y,-x,z
y,x,z
x-y,-y,z
-x,-x+y,z
loop_
_atom_site_type_symbol
_atom_site_label
_atom_site_fract_x
_atom_site_fract_y
_atom_site_fract_z
Si Si1 0.083805 0.616048 0.202244
Si Si2 0.302966 0.081857 0.051339
Si Si3 0.483901 0.817627 0.712649
Si Si4 0.425405 0.338649 0.893903
Si Si5 0.813756 0.480461 0.551523
Si Si6 0.543886 0.456115 0.949163
Si Si7 0.917956 0.383903 0.630465
O O1 0.088563 0.544282 0.190416
O O2 0.137756 0.661743 0.242502
O O3 0.111004 0.668457 0.158324
O O4 0.000000 0.591596 0.215697
O O5 0.267636 0.133818 0.056514
O O6 0.372308 0.112778 0.084693
O O7 0.240601 0.000000 0.064759
O O8 0.330219 0.083516 0.000000
O O9 0.401219 0.802437 0.709284
O O10 0.481396 0.740698 0.712400
O O11 0.533334 0.866916 0.671036
O O12 0.387514 0.387514 0.896887
O O13 0.499113 0.378617 0.923487
O O14 0.837653 0.504826 0.500000
O O15 0.742332 0.484664 0.564793
O O16 0.794046 0.397023 0.559558
O O17 0.881113 0.535714 0.583022
O O18 0.500000 0.500000 0.948824
O O19 0.559010 0.440991 0.000000
O O20 0.924802 0.462401 0.634256
O O21 0.000000 0.395115 0.633179
#
# Coordination Sequence:
#
# PCOD8328585 Si02
#       7
#    24  24  24  24  24  12  24
#     4   9  16  27  41  56  76 101 126 153 187 226
#     4   9  17  28  41  57  78 102 126 155 193 234
#     4  10  19  29  41  55  72  95 123 160 197 235
#     4   9  15  24  38  57  78  99 122 149 183 222
#     4   9  16  25  38  56  78 102 126 154 188 226
#     4   9  14  20  34  56  80 100 118 144 177 215
#     4   9  17  28  40  54  71  93 123 155 191 232
#
# _framework density 13.719858
#
# number of rings (size 3 to 8) (size 9 to 14) (size 15 to 20)
#    0.000    2.846    0.769    1.692    0.000    5.231 
#    0.000    3.077    0.000    0.154    0.000    1.077 
#    0.769    0.000    0.923    0.000    0.000    0.000 
#
# Total GULP energy -1933747.035734 kJ/mol
# GULP energy per Si atom -12395.814332 kJ/mol
# Density = 1.368863 g / cm^3
# Si number density = 13.719858 Si / 1000 Ang^3
#
#
#
# Elastic Constant Matrix: (Units=GPa)
#
#
# Indices 1 2 3 4 5 6 
#
# 1 67.1031 36.9818 44.3395 0.0000 0.0000 0.0000
# 2 36.9818 67.1031 44.3395 0.0000 0.0000 0.0000
# 3 44.3395 44.3395 97.7365 0.0000 0.0000 0.0000
# 4 0.0000 0.0000 0.0000 15.8853 0.0000 0.0000
# 5 0.0000 0.0000 0.0000 0.0000 15.8853 0.0000
# 6 0.0000 0.0000 0.0000 0.0000 0.0000 15.0607
#
#
#
# Elastic Compliance Matrix: (Units=1/GPa)
#
#
# Indices 1 2 3 4 5 6 
#
# 1 0.024430 -0.008769 -0.007105 0.000000 0.000000 0.000000
# 2 -0.008769 0.024430 -0.007105 0.000000 0.000000 0.000000
# 3 -0.007105 -0.007105 0.016678 0.000000 0.000000 0.000000
# 4 0.000000 0.000000 0.000000 0.062951 0.000000 0.000000
# 5 0.000000 0.000000 0.000000 0.000000 0.062951 0.000000
# 6 0.000000 0.000000 0.000000 0.000000 0.000000 0.066398
#
#
# Mechanical properties :
#
#
# Convention : Reuss Voigt Hill
#
# Bulk Modulus (GPa) = 51.07135 53.69604 52.38370
# Shear Modulus (GPa) = 16.11228 16.45170 16.28199
#
# Velocity S-wave (km/s) = 3.43064 3.46658 3.44866
# Velocity P-wave (km/s) = 7.27994 7.43272 7.35673
#
# Compressibility (1/GPa) = 0.01958045
#
# Stress axis : x y z
#
# Youngs Moduli (GPa) = 40.93356 40.93356 59.95980
#
# Poissons Ratio (x) = 0.35896 0.42599
# Poissons Ratio (y) = 0.35896 0.42599
# Poissons Ratio (z) = 0.29082 0.29082
#
# Static dielectric constant tensor:
#      x y z
#    x 2.532560 0.000000 0.000000 
#    y 0.000000 2.532560 0.000000 
#    z 0.000000 0.000000 2.910680 
# 
# 
# High freq. dielectric constant tensor:
#      x y z
#    x 1.491470 0.000000 0.000000 
#    y 0.000000 1.491470 0.000000 
#    z 0.000000 0.000000 1.536800 
# 
# From -- ./inp_files/10807.got.cif
#   From: 2010.03.12/outbox.cif.g09.slc.cpg/sg191_6_cif.got.tgz:10807.got - 2010.04.01 12:09:02.
