data_PCOD8328154
_publ_section_title
;
Structure prediction by ZEFSAII (Michael W. Deem and Ramdas Pophale) SiO2 
 PCOD8328154
Probable space group: P -6 2 C
;
_chemical_formula_sum "Si O2"
_cell_formula_units_Z 72
_cell_length_a 14.571078
_cell_length_b 14.571078
_cell_length_c 18.143968
_cell_angle_alpha 90.000000
_cell_angle_beta 90.000000
_cell_angle_gamma 120.000000
_cell_volume 3336.155376
_symmetry_space_group_name_H-M "P -6 2 C"
_symmetry_group_IT_number 190
_symmetry_cell_setting 'hexagonal'
loop_
_space_group_symop_operation_xyz
x,y,z
-x+y,-x,1/2-z
-y,x-y,z
x,y,1/2-z
-x+y,-x,z
-y,x-y,1/2-z
x-y,-y,-z
-x,-x+y,-z
y,x,-z
y,x,1/2+z
x-y,-y,1/2+z
-x,-x+y,1/2+z
loop_
_atom_site_type_symbol
_atom_site_label
_atom_site_fract_x
_atom_site_fract_y
_atom_site_fract_z
Si Si1 0.479648 0.194601 0.667833
Si Si2 0.884445 0.119220 0.525596
Si Si3 0.171976 0.410555 0.911278
Si Si4 0.494697 0.877619 0.408880
Si Si5 0.407541 0.519190 0.919219
Si Si6 0.977722 0.233411 0.831551
O O1 0.522116 0.237629 0.750000
O O2 0.571325 0.196355 0.618428
O O3 0.439412 0.267564 0.627841
O O4 0.382355 0.075616 0.672313
O O5 0.846904 0.199219 0.491496
O O6 0.903274 0.135538 0.613959
O O7 0.000000 0.146455 0.500000
O O8 0.798682 0.000000 0.500000
O O9 0.292744 0.473619 0.880992
O O10 0.144872 0.504068 0.912055
O O11 0.098104 0.312644 0.857489
O O12 0.503730 0.880095 0.495885
O O13 0.544319 0.997490 0.381662
O O14 0.979319 0.188076 0.750000
#
# Coordination Sequence:
#
# PCOD8328154 Si02
#       6
#    12  12  12  12  12  12
#     4  11  22  39  61  89 132 173 208 266 345 414
#     4  10  22  40  70  98 132 173 227 286 353 414
#     4  11  23  42  64  99 132 181 230 284 341 408
#     4  11  22  36  60 100 129 167 219 273 333 405
#     4  11  23  37  65  93 136 171 228 281 329 401
#     4  10  22  42  65  92 131 176 222 277 344 407
#
# _framework density 21.581728999999999
#
# number of rings (size 3 to 8) (size 9 to 14) (size 15 to 20)
#    0.000    1.333    1.667    4.333    9.333    0.000 
#    0.000    5.833    0.000    0.000    0.000    0.000 
#    0.000    0.000    0.000    0.000    0.000    0.000 
#
# Total GULP energy -892007.872187 kJ/mol
# GULP energy per Si atom -12388.998225 kJ/mol
# Density = 2.153261 g / cm^3
# Si number density = 21.581729 Si / 1000 Ang^3
#
#
#
# Elastic Constant Matrix: (Units=GPa)
#
#
# Indices 1 2 3 4 5 6 
#
# 1 127.9059 50.4731 35.1489 0.0000 0.0000 0.0000
# 2 50.4731 127.9059 35.1489 0.0000 0.0000 0.0000
# 3 35.1489 35.1489 121.5696 0.0000 0.0000 0.0000
# 4 0.0000 0.0000 0.0000 17.8878 0.0000 0.0000
# 5 0.0000 0.0000 0.0000 0.0000 17.8878 0.0000
# 6 0.0000 0.0000 0.0000 0.0000 0.0000 38.7164
#
#
#
# Elastic Compliance Matrix: (Units=1/GPa)
#
#
# Indices 1 2 3 4 5 6 
#
# 1 0.009621 -0.003294 -0.001829 0.000000 0.000000 0.000000
# 2 -0.003294 0.009621 -0.001829 0.000000 0.000000 0.000000
# 3 -0.001829 -0.001829 0.009284 0.000000 0.000000 0.000000
# 4 0.000000 0.000000 0.000000 0.055904 0.000000 0.000000
# 5 0.000000 0.000000 0.000000 0.000000 0.055904 0.000000
# 6 0.000000 0.000000 0.000000 0.000000 0.000000 0.025829
#
#
# Mechanical properties :
#
#
# Convention : Reuss Voigt Hill
#
# Bulk Modulus (GPa) = 68.39812 68.76926 68.58369
# Shear Modulus (GPa) = 27.03579 32.00576 29.52077
#
# Velocity S-wave (km/s) = 3.54321 3.85515 3.70247
# Velocity P-wave (km/s) = 6.96423 7.19375 7.07992
#
# Compressibility (1/GPa) = 0.01462028
#
# Stress axis : x y z
#
# Youngs Moduli (GPa) = 103.94275 103.94275 107.71767
#
# Poissons Ratio (x) = 0.34236 0.19705
# Poissons Ratio (y) = 0.34236 0.19705
# Poissons Ratio (z) = 0.19014 0.19014
#
# Static dielectric constant tensor:
#      x y z
#    x 3.932500 0.000000 0.000000 
#    y 0.000000 3.932500 0.000000 
#    z 0.000000 0.000000 3.878060 
# 
# 
# High freq. dielectric constant tensor:
#      x y z
#    x 1.849280 0.000000 0.000000 
#    y 0.000000 1.849280 0.000000 
#    z 0.000000 0.000000 1.826140 
# 
# From -- ./inp_files/3751.got.cif
#   From: 2010.06.25/outbox.cif.g09.slc.cpg/sg190_2_cif.got.tgz:3751.got - 2010.06.28 13:08:06.
