data_PCOD8328121
_publ_section_title
;
Structure prediction by ZEFSAII (Michael W. Deem and Ramdas Pophale) SiO2 
 PCOD8328121
Probable space group: P -6 2 C
;
_chemical_formula_sum "Si O2"
_cell_formula_units_Z 48
_cell_length_a 12.478675
_cell_length_b 12.478675
_cell_length_c 17.477257
_cell_angle_alpha 90.000000
_cell_angle_beta 90.000000
_cell_angle_gamma 120.000000
_cell_volume 2356.898348
_symmetry_space_group_name_H-M "P -6 2 C"
_symmetry_group_IT_number 190
_symmetry_cell_setting 'hexagonal'
loop_
_space_group_symop_operation_xyz
x,y,z
-x+y,-x,1/2-z
-y,x-y,z
x,y,1/2-z
-x+y,-x,z
-y,x-y,1/2-z
x-y,-y,-z
-x,-x+y,-z
y,x,-z
y,x,1/2+z
x-y,-y,1/2+z
-x,-x+y,1/2+z
loop_
_atom_site_type_symbol
_atom_site_label
_atom_site_fract_x
_atom_site_fract_y
_atom_site_fract_z
Si Si1 0.239200 0.239203 0.659090
Si Si2 0.400349 0.141628 0.590786
Si Si3 0.666667 0.333335 0.909693
Si Si4 0.141627 0.400351 0.590787
Si Si5 0.000000 0.000000 0.340566
Si Si6 0.333334 0.666668 0.909693
O O1 0.247385 0.247383 0.750000
O O2 0.353243 0.229572 0.626070
O O3 0.229574 0.353249 0.626073
O O4 0.118821 0.118829 0.627174
O O5 0.543534 0.208649 0.617885
O O6 0.387413 0.140457 0.500000
O O7 0.327367 0.000001 0.622608
O O8 0.666668 0.333334 1.000000
O O9 0.208644 0.543537 0.617884
O O10 0.000000 0.000000 0.250000
#
# Coordination Sequence:
#
# PCOD8328121 Si02
#       6
#    12  12   4  12   4   4
#     4  11  21  37  58  83 118 158 193 234 290 343
#     4  10  21  37  60  89 116 149 194 241 286 340
#     4   9  21  39  61  86 118 153 190 239 292 339
#     4  10  21  37  60  89 116 149 194 241 286 340
#     4   9  18  33  52  77 112 150 187 230 286 333
#     4   9  21  39  61  86 118 153 190 239 292 339
#
# _framework density 20.365749000000001
#
# number of rings (size 3 to 8) (size 9 to 14) (size 15 to 20)
#    0.000    2.000    2.500    0.750    3.500    0.000 
#    0.000    2.500    0.000    0.000    0.000    0.000 
#    0.000    0.000    0.000    0.000    0.000    0.000 
#
# Total GULP energy -594983.933695 kJ/mol
# GULP energy per Si atom -12395.498619 kJ/mol
# Density = 2.031940 g / cm^3
# Si number density = 20.365749 Si / 1000 Ang^3
#
#
#
# Elastic Constant Matrix: (Units=GPa)
#
#
# Indices 1 2 3 4 5 6 
#
# 1 133.3217 64.7013 20.8768 0.0000 0.0001 -0.0001
# 2 64.7013 133.3209 20.8768 0.0001 0.0000 -0.0004
# 3 20.8768 20.8768 32.5670 -0.0001 -0.0001 -0.0001
# 4 0.0000 0.0001 -0.0001 11.2388 0.0001 0.0000
# 5 0.0001 0.0000 -0.0001 0.0001 11.2388 0.0001
# 6 -0.0001 -0.0004 -0.0001 0.0000 0.0001 34.3097
#
#
#
# Elastic Compliance Matrix: (Units=1/GPa)
#
#
# Indices 1 2 3 4 5 6 
#
# 1 0.010206 -0.004367 -0.003743 0.000000 0.000000 0.000000
# 2 -0.004367 0.010206 -0.003743 0.000000 0.000000 0.000000
# 3 -0.003743 -0.003743 0.035505 0.000000 0.000000 0.000000
# 4 0.000000 0.000000 0.000000 0.088977 -0.000001 0.000000
# 5 0.000000 0.000000 0.000000 -0.000001 0.088977 0.000000
# 6 0.000000 0.000000 0.000000 0.000000 0.000000 0.029146
#
#
# Mechanical properties :
#
#
# Convention : Reuss Voigt Hill
#
# Bulk Modulus (GPa) = 31.04555 56.90213 43.97384
# Shear Modulus (GPa) = 16.80889 24.20778 20.50834
#
# Velocity S-wave (km/s) = 2.87601 3.45142 3.17677
# Velocity P-wave (km/s) = 5.12890 6.62449 5.92408
#
# Compressibility (1/GPa) = 0.03221074
#
# Stress axis : x y z
#
# Youngs Moduli (GPa) = 97.98093 97.98034 28.16503
#
# Poissons Ratio (x) = 0.42787 0.10543
# Poissons Ratio (y) = 0.42787 0.10543
# Poissons Ratio (z) = 0.36676 0.36676
#
# Static dielectric constant tensor:
#      x y z
#    x 3.940560 0.000000 0.000000 
#    y 0.000000 3.940570 0.000000 
#    z 0.000000 0.000000 3.245320 
# 
# 
# High freq. dielectric constant tensor:
#      x y z
#    x 1.804450 0.000000 0.000000 
#    y 0.000000 1.804450 0.000000 
#    z 0.000000 0.000000 1.758060 
# 
# From -- ./inp_files/4176.got.cif
#   From: 2010.06.25/outbox.cif.g09.slc.cpg/sg190_3_cif.got.tgz:4176.got - 2010.06.28 13:08:06.
