data_PCOD8328165
_publ_section_title
;
Structure prediction by ZEFSAII (Michael W. Deem and Ramdas Pophale) SiO2 
 PCOD8328165
Probable space group: P -6 2 C
;
_chemical_formula_sum "Si O2"
_cell_formula_units_Z 52
_cell_length_a 13.864526
_cell_length_b 13.864526
_cell_length_c 16.686546
_cell_angle_alpha 90.000000
_cell_angle_beta 90.000000
_cell_angle_gamma 120.000000
_cell_volume 2777.839408
_symmetry_space_group_name_H-M "P -6 2 C"
_symmetry_group_IT_number 190
_symmetry_cell_setting 'hexagonal'
loop_
_space_group_symop_operation_xyz
x,y,z
-x+y,-x,1/2-z
-y,x-y,z
x,y,1/2-z
-x+y,-x,z
-y,x-y,1/2-z
x-y,-y,-z
-x,-x+y,-z
y,x,-z
y,x,1/2+z
x-y,-y,1/2+z
-x,-x+y,1/2+z
loop_
_atom_site_type_symbol
_atom_site_label
_atom_site_fract_x
_atom_site_fract_y
_atom_site_fract_z
Si Si1 0.472233 0.763473 0.250000
Si Si2 0.498053 0.000000 0.500000
Si Si3 0.370396 0.114186 0.033543
Si Si4 0.605287 0.891625 0.097759
Si Si5 0.000000 0.000000 0.404170
Si Si6 0.159308 0.240588 0.844433
O O1 0.419712 0.629174 0.250000
O O2 0.547774 0.812496 0.172566
O O3 0.380984 0.903064 0.538102
O O4 0.538467 0.953810 0.427059
O O5 0.338745 0.140827 0.120352
O O6 0.398361 0.216287 0.976123
O O7 0.265023 0.000000 0.000000
O O8 0.731360 0.979464 0.118169
O O9 0.123840 0.054709 0.369376
O O10 0.000000 0.000000 0.500000
O O11 0.170619 0.256270 0.750000
#
# Coordination Sequence:
#
# PCOD8328165 Si02
#       6
#     6   6  12  12   4  12
#     4  10  24  38  62  96 122 164 214 284 320 372
#     4  10  24  40  68  92 120 180 214 264 324 380
#     4  10  23  41  64  96 122 172 218 265 319 386
#     4  12  20  44  64  93 132 165 218 266 327 386
#     4  12  25  41  64 102 133 179 217 262 335 406
#     4  12  23  40  65  95 137 169 212 270 332 392
#
# _framework density 18.719586
#
# number of rings (size 3 to 8) (size 9 to 14) (size 15 to 20)
#    0.923    0.000    3.462    5.538    0.000    0.000 
#    5.538    0.000    0.000    0.000    0.000    0.000 
#    0.000    0.000    0.000    0.000    0.000    0.000 
#
# Total GULP energy -644735.360775 kJ/mol
# GULP energy per Si atom -12398.756938 kJ/mol
# Density = 1.867698 g / cm^3
# Si number density = 18.719586 Si / 1000 Ang^3
#
#
#
# Elastic Constant Matrix: (Units=GPa)
#
#
# Indices 1 2 3 4 5 6 
#
# 1 90.1234 3.3355 42.2705 0.0000 0.0000 0.0000
# 2 3.3355 90.1234 42.2705 0.0000 0.0000 0.0000
# 3 42.2705 42.2705 81.6905 0.0000 0.0000 0.0000
# 4 0.0000 0.0000 0.0000 114.2994 0.0000 0.0000
# 5 0.0000 0.0000 0.0000 0.0000 114.2994 0.0000
# 6 0.0000 0.0000 0.0000 0.0000 0.0000 43.3940
#
#
#
# Elastic Compliance Matrix: (Units=1/GPa)
#
#
# Indices 1 2 3 4 5 6 
#
# 1 0.015819 0.004296 -0.010409 0.000000 0.000000 0.000000
# 2 0.004296 0.015819 -0.010409 0.000000 0.000000 0.000000
# 3 -0.010409 -0.010409 0.023013 0.000000 0.000000 0.000000
# 4 0.000000 0.000000 0.000000 0.008749 0.000000 0.000000
# 5 0.000000 0.000000 0.000000 0.000000 0.008749 0.000000
# 6 0.000000 0.000000 0.000000 0.000000 0.000000 0.023045
#
#
# Mechanical properties :
#
#
# Convention : Reuss Voigt Hill
#
# Bulk Modulus (GPa) = 46.27633 48.63225 47.45429
# Shear Modulus (GPa) = 36.91728 66.00261 51.45995
#
# Velocity S-wave (km/s) = 4.44567 5.94434 5.24877
# Velocity P-wave (km/s) = 7.15028 8.55273 7.88276
#
# Compressibility (1/GPa) = 0.02160932
#
# Stress axis : x y z
#
# Youngs Moduli (GPa) = 63.21584 63.21584 43.45343
#
# Poissons Ratio (x) = -0.27161 0.45229
# Poissons Ratio (y) = -0.27161 0.45229
# Poissons Ratio (z) = 0.65799 0.65799
#
# Static dielectric constant tensor:
#      x y z
#    x 3.464630 0.000000 0.000000 
#    y 0.000000 3.464630 0.000000 
#    z 0.000000 0.000000 3.414890 
# 
# 
# High freq. dielectric constant tensor:
#      x y z
#    x 1.729630 0.000000 0.000000 
#    y 0.000000 1.729630 0.000000 
#    z 0.000000 0.000000 1.726180 
# 
# From -- ./inp_files/2758.got.cif
#   From: 2010.06.25/outbox.cif.g09.slc.cpg/sg190_2_cif.got.tgz:2758.got - 2010.06.28 13:08:06.
