data_PCOD8328224
_publ_section_title
;
Structure prediction by ZEFSAII (Michael W. Deem and Ramdas Pophale) SiO2 
 PCOD8328224
Probable space group: P 6/M M M
;
_chemical_formula_sum "Si O2"
_cell_formula_units_Z 72
_cell_length_a 27.501986
_cell_length_b 27.501986
_cell_length_c 7.644881
_cell_angle_alpha 90.000000
_cell_angle_beta 90.000000
_cell_angle_gamma 120.000000
_cell_volume 5007.598199
_symmetry_space_group_name_H-M "P 6/M M M"
_symmetry_group_IT_number 191
_symmetry_cell_setting 'hexagonal'
loop_
_space_group_symop_operation_xyz
x,y,z
x-y,x,z
-y,x-y,z
-x,-y,z
-x+y,-x,z
y,-x+y,z
x-y,-y,-z
-x,-x+y,-z
y,x,-z
-y,-x,-z
-x+y,y,-z
x,x-y,-z
-x,-y,-z
-x+y,-x,-z
y,-x+y,-z
x,y,-z
x-y,x,-z
-y,x-y,-z
-x+y,y,z
x,x-y,z
-y,-x,z
y,x,z
x-y,-y,z
-x,-x+y,z
loop_
_atom_site_type_symbol
_atom_site_label
_atom_site_fract_x
_atom_site_fract_y
_atom_site_fract_z
Si Si1 0.679078 0.895497 0.500000
Si Si2 0.933020 0.343197 0.500000
Si Si3 0.937197 0.171914 0.800927
Si Si4 0.587363 0.066616 0.194485
O O1 0.660070 0.830035 0.500000
O O2 0.624188 0.900679 0.500000
O O3 0.714520 0.925670 0.673384
O O4 0.911353 0.361977 0.668762
O O5 0.000000 0.368517 0.500000
O O6 0.893668 0.106333 0.760787
O O7 0.000000 0.183062 0.769084
O O8 0.930243 0.187312 0.000000
O O9 0.544647 0.089293 0.242030
O O10 0.552611 0.000000 0.202536
O O11 0.612417 0.086949 0.000000
#
# Coordination Sequence:
#
# PCOD8328224 Si02
#       4
#    12  12  24  24
#     4  10  20  31  40  54  78 106 136 167 198 231
#     4  10  17  24  38  57  74  98 133 165 189 218
#     4   9  17  29  44  59  75  97 126 162 204 249
#     4   8  14  24  37  55  79 102 122 147 180 215
#
# _framework density 14.37815
#
# number of rings (size 3 to 8) (size 9 to 14) (size 15 to 20)
#    0.000    3.000    0.000    3.000    0.000    3.333 
#    0.000    3.333    0.000    0.333    0.000    2.333 
#    0.000    4.000    0.000    4.333    0.000    4.667 
#
# Total GULP energy -892394.618555 kJ/mol
# GULP energy per Si atom -12394.369702 kJ/mol
# Density = 1.434542 g / cm^3
# Si number density = 14.378150 Si / 1000 Ang^3
#
#
#
# Elastic Constant Matrix: (Units=GPa)
#
#
# Indices 1 2 3 4 5 6 
#
# 1 86.3867 41.9868 53.1881 0.0000 0.0000 0.0000
# 2 41.9868 86.3867 53.1881 0.0000 0.0000 0.0000
# 3 53.1881 53.1881 108.5840 0.0000 0.0000 0.0000
# 4 0.0000 0.0000 0.0000 13.2971 0.0000 0.0000
# 5 0.0000 0.0000 0.0000 0.0000 13.2971 0.0000
# 6 0.0000 0.0000 0.0000 0.0000 0.0000 22.1999
#
#
#
# Elastic Compliance Matrix: (Units=1/GPa)
#
#
# Indices 1 2 3 4 5 6 
#
# 1 0.017817 -0.004705 -0.006423 0.000000 0.000000 0.000000
# 2 -0.004705 0.017817 -0.006423 0.000000 0.000000 0.000000
# 3 -0.006423 -0.006423 0.015501 0.000000 0.000000 0.000000
# 4 0.000000 0.000000 0.000000 0.075204 0.000000 0.000000
# 5 0.000000 0.000000 0.000000 0.000000 0.075204 0.000000
# 6 0.000000 0.000000 0.000000 0.000000 0.000000 0.045045
#
#
# Mechanical properties :
#
#
# Convention : Reuss Voigt Hill
#
# Bulk Modulus (GPa) = 62.36478 64.23151 63.29815
# Shear Modulus (GPa) = 17.41945 18.62514 18.02229
#
# Velocity S-wave (km/s) = 3.48447 3.60304 3.54425
# Velocity P-wave (km/s) = 7.72383 7.87903 7.80182
#
# Compressibility (1/GPa) = 0.01603469
#
# Stress axis : x y z
#
# Youngs Moduli (GPa) = 56.12548 56.12548 64.50991
#
# Poissons Ratio (x) = 0.26409 0.41432
# Poissons Ratio (y) = 0.26409 0.41432
# Poissons Ratio (z) = 0.36047 0.36047
#
# Static dielectric constant tensor:
#      x y z
#    x 2.604780 0.000000 0.000000 
#    y 0.000000 2.604780 0.000000 
#    z 0.000000 0.000000 3.208240 
# 
# 
# High freq. dielectric constant tensor:
#      x y z
#    x 1.515070 0.000000 0.000000 
#    y 0.000000 1.515070 0.000000 
#    z 0.000000 0.000000 1.573200 
# 
# From -- ./inp_files/943.got.cif
#   From: 2010.03.12/outbox.cif.g09.slc.cpg/sg191_1_cif.got.tgz:943.got - 2010.04.01 12:09:02.
