data_PCOD8328018
_publ_section_title
;
Structure prediction by ZEFSAII (Michael W. Deem and Ramdas Pophale) SiO2 
 PCOD8328018
Probable space group: P -6 2 C
;
_chemical_formula_sum "Si O2"
_cell_formula_units_Z 78
_cell_length_a 24.620926
_cell_length_b 24.620926
_cell_length_c 8.224582
_cell_angle_alpha 90.000000
_cell_angle_beta 90.000000
_cell_angle_gamma 120.000000
_cell_volume 4317.707642
_symmetry_space_group_name_H-M "P -6 2 C"
_symmetry_group_IT_number 190
_symmetry_cell_setting 'hexagonal'
loop_
_space_group_symop_operation_xyz
x,y,z
-x+y,-x,1/2-z
-y,x-y,z
x,y,1/2-z
-x+y,-x,z
-y,x-y,1/2-z
x-y,-y,-z
-x,-x+y,-z
y,x,-z
y,x,1/2+z
x-y,-y,1/2+z
-x,-x+y,1/2+z
loop_
_atom_site_type_symbol
_atom_site_label
_atom_site_fract_x
_atom_site_fract_y
_atom_site_fract_z
Si Si1 0.733678 0.475312 0.570057
Si Si2 0.639857 0.931969 0.060202
Si Si3 0.623385 0.808070 0.432455
Si Si4 0.066065 0.588236 0.936909
Si Si5 0.311210 0.930885 0.056386
Si Si6 0.409536 0.725160 0.750000
Si Si7 0.388930 0.868147 0.064059
O O1 0.740990 0.450344 0.750000
O O2 0.776958 0.549032 0.568103
O O3 0.754367 0.448064 0.417618
O O4 0.661459 0.456579 0.547226
O O5 0.647346 0.929380 0.250000
O O6 0.650191 0.876537 0.981459
O O7 0.569521 0.917227 0.027205
O O8 0.692680 0.000000 0.000000
O O9 0.649611 0.819168 0.250000
O O10 0.640733 0.758695 0.515957
O O11 0.060631 0.600826 0.750000
O O12 0.118806 0.569047 0.963712
O O13 0.000000 0.531523 0.000000
O O14 0.308399 0.925040 0.250000
O O15 0.360637 0.910596 0.992617
O O16 0.330037 0.000000 0.000000
O O17 0.385506 0.650250 0.750000
O O18 0.409304 0.886973 0.250000
#
# Coordination Sequence:
#
# PCOD8328018 Si02
#       7
#    12  12  12  12  12   6  12
#     4   9  19  38  56  70  94 128 165 201 255 311
#     4  10  19  34  52  71  96 124 163 203 245 296
#     4   8  17  35  55  71  95 134 164 194 242 307
#     4  11  21  31  44  66  95 121 152 197 246 294
#     4   9  17  31  49  73 100 125 160 195 235 290
#     4  10  24  38  48  72  96 118 162 222 248 304
#     4   9  18  32  50  69  93 125 159 196 246 305
#
# _framework density 18.065141000000001
#
# number of rings (size 3 to 8) (size 9 to 14) (size 15 to 20)
#    0.154    2.462    0.000    5.077    1.077    3.692 
#    6.923    3.077    0.000    0.000    0.000    0.000 
#    0.000    0.000    0.000    0.462    0.000    5.538 
#
# Total GULP energy -966360.900077 kJ/mol
# GULP energy per Si atom -12389.242309 kJ/mol
# Density = 1.802402 g / cm^3
# Si number density = 18.065141 Si / 1000 Ang^3
#
#
#
# Elastic Constant Matrix: (Units=GPa)
#
#
# Indices 1 2 3 4 5 6 
#
# 1 74.6367 21.3660 12.0598 0.0000 0.0000 0.0000
# 2 21.3660 74.6367 12.0598 0.0000 0.0000 0.0000
# 3 12.0598 12.0598 66.8084 0.0000 0.0000 0.0000
# 4 0.0000 0.0000 0.0000 14.0448 0.0000 0.0000
# 5 0.0000 0.0000 0.0000 0.0000 14.0448 0.0000
# 6 0.0000 0.0000 0.0000 0.0000 0.0000 26.6354
#
#
#
# Elastic Compliance Matrix: (Units=1/GPa)
#
#
# Indices 1 2 3 4 5 6 
#
# 1 0.014842 -0.003930 -0.001970 0.000000 0.000000 0.000000
# 2 -0.003930 0.014842 -0.001970 0.000000 0.000000 0.000000
# 3 -0.001970 -0.001970 0.015679 0.000000 0.000000 0.000000
# 4 0.000000 0.000000 0.000000 0.071201 0.000000 0.000000
# 5 0.000000 0.000000 0.000000 0.000000 0.071201 0.000000
# 6 0.000000 0.000000 0.000000 0.000000 0.000000 0.037544
#
#
# Mechanical properties :
#
#
# Convention : Reuss Voigt Hill
#
# Bulk Modulus (GPa) = 33.75728 34.11698 33.93713
# Shear Modulus (GPa) = 19.92656 22.31809 21.12233
#
# Velocity S-wave (km/s) = 3.32481 3.51867 3.42311
# Velocity P-wave (km/s) = 5.78499 5.95270 5.86944
#
# Compressibility (1/GPa) = 0.02962324
#
# Stress axis : x y z
#
# Youngs Moduli (GPa) = 67.37804 67.37804 63.77853
#
# Poissons Ratio (x) = 0.26482 0.12562
# Poissons Ratio (y) = 0.26482 0.12562
# Poissons Ratio (z) = 0.13271 0.13271
#
# Static dielectric constant tensor:
#      x y z
#    x 3.453410 0.000000 0.000000 
#    y 0.000000 3.453410 0.000000 
#    z 0.000000 0.000000 3.270490 
# 
# 
# High freq. dielectric constant tensor:
#      x y z
#    x 1.672790 0.000000 0.000000 
#    y 0.000000 1.672790 0.000000 
#    z 0.000000 0.000000 1.693420 
# 
# From -- ./inp_files/1382.got.cif
#   From: 2010.06.25/outbox.cif.g09.slc.cpg/sg190_1_cif.got.tgz:1382.got - 2010.06.28 13:08:06.
