data_PCOD8328338
_publ_section_title
;
Structure prediction by ZEFSAII (Michael W. Deem and Ramdas Pophale) SiO2 
 PCOD8328338
Probable space group: P 6/M M M
;
_chemical_formula_sum "Si O2"
_cell_formula_units_Z 120
_cell_length_a 18.029067
_cell_length_b 18.029067
_cell_length_c 25.350368
_cell_angle_alpha 90.000000
_cell_angle_beta 90.000000
_cell_angle_gamma 120.000000
_cell_volume 7136.107853
_symmetry_space_group_name_H-M "P 6/M M M"
_symmetry_group_IT_number 191
_symmetry_cell_setting 'hexagonal'
loop_
_space_group_symop_operation_xyz
x,y,z
x-y,x,z
-y,x-y,z
-x,-y,z
-x+y,-x,z
y,-x+y,z
x-y,-y,-z
-x,-x+y,-z
y,x,-z
-y,-x,-z
-x+y,y,-z
x,x-y,-z
-x,-y,-z
-x+y,-x,-z
y,-x+y,-z
x,y,-z
x-y,x,-z
-y,x-y,-z
-x+y,y,z
x,x-y,z
-y,-x,z
y,x,z
x-y,-y,z
-x,-x+y,z
loop_
_atom_site_type_symbol
_atom_site_label
_atom_site_fract_x
_atom_site_fract_y
_atom_site_fract_z
Si Si1 0.100455 0.467321 0.390531
Si Si2 0.502271 0.668690 0.500000
Si Si3 0.639669 0.904607 0.000000
Si Si4 0.836911 0.503474 0.791628
Si Si5 0.497242 0.333381 0.912425
Si Si6 0.637475 0.902063 0.295788
O O1 0.141330 0.570665 0.384201
O O2 0.126347 0.443261 0.446650
O O3 0.132203 0.429775 0.344098
O O4 0.000000 0.424344 0.387324
O O5 0.428685 0.571316 0.500000
O O6 0.464224 0.732112 0.500000
O O7 0.584138 0.894578 0.051723
O O8 0.672873 0.836437 0.000000
O O9 0.721713 0.000000 0.000000
O O10 0.737994 0.475988 0.783170
O O11 0.848737 0.424369 0.774169
O O12 0.864817 0.528864 0.852119
O O13 0.898267 0.585832 0.756793
O O14 0.526872 0.263436 0.920201
O O15 0.575589 0.424412 0.930068
O O16 0.676387 0.838194 0.291341
O O17 0.714340 0.000000 0.303566
#
# Coordination Sequence:
#
# PCOD8328338 Si02
#       6
#    24  12  12  24  24  24
#     4   9  17  29  45  64  86 113 144 178 217 260
#     4  10  18  27  39  57  84 117 151 181 207 238
#     4  10  21  35  49  66  89 117 150 190 235 277
#     4   9  17  29  46  69  97 128 158 185 212 246
#     4   9  17  29  46  69  98 130 159 183 209 247
#     4  10  20  33  48  66  88 114 146 185 229 274
#
# _framework density 16.81589
#
# number of rings (size 3 to 8) (size 9 to 14) (size 15 to 20)
#    0.000    2.600    0.000    2.300    0.000    5.600 
#    0.000    3.000    0.000    6.700    0.000    0.000 
#    0.000    0.000    0.000   10.000    0.000   20.800 
#
# Total GULP energy -1487682.311878 kJ/mol
# GULP energy per Si atom -12397.352599 kJ/mol
# Density = 1.677762 g / cm^3
# Si number density = 16.815890 Si / 1000 Ang^3
#
#
#
# Elastic Constant Matrix: (Units=GPa)
#
#
# Indices 1 2 3 4 5 6 
#
# 1 70.3079 45.3539 32.4170 0.0000 0.0000 0.0000
# 2 45.3539 70.3079 32.4170 0.0000 0.0000 0.0000
# 3 32.4170 32.4170 93.3140 0.0000 0.0000 0.0000
# 4 0.0000 0.0000 0.0000 15.5484 0.0000 0.0000
# 5 0.0000 0.0000 0.0000 0.0000 15.5484 0.0000
# 6 0.0000 0.0000 0.0000 0.0000 0.0000 12.4770
#
#
#
# Elastic Compliance Matrix: (Units=1/GPa)
#
#
# Indices 1 2 3 4 5 6 
#
# 1 0.025405 -0.014669 -0.003730 0.000000 0.000000 0.000000
# 2 -0.014669 0.025405 -0.003730 0.000000 0.000000 0.000000
# 3 -0.003730 -0.003730 0.013308 0.000000 0.000000 0.000000
# 4 0.000000 0.000000 0.000000 0.064315 0.000000 0.000000
# 5 0.000000 0.000000 0.000000 0.000000 0.064315 0.000000
# 6 0.000000 0.000000 0.000000 0.000000 0.000000 0.080148
#
#
# Mechanical properties :
#
#
# Convention : Reuss Voigt Hill
#
# Bulk Modulus (GPa) = 50.34788 50.47840 50.41314
# Shear Modulus (GPa) = 15.44288 16.96422 16.20355
#
# Velocity S-wave (km/s) = 3.03372 3.17964 3.10754
# Velocity P-wave (km/s) = 6.50207 6.60027 6.55135
#
# Compressibility (1/GPa) = 0.01986181
#
# Stress axis : x y z
#
# Youngs Moduli (GPa) = 39.36192 39.36192 75.14269
#
# Poissons Ratio (x) = 0.57738 0.28027
# Poissons Ratio (y) = 0.57738 0.28027
# Poissons Ratio (z) = 0.14682 0.14682
#
# Static dielectric constant tensor:
#      x y z
#    x 2.917330 0.000000 0.000000 
#    y 0.000000 2.917330 0.000000 
#    z 0.000000 0.000000 3.484920 
# 
# 
# High freq. dielectric constant tensor:
#      x y z
#    x 1.618650 0.000000 0.000000 
#    y 0.000000 1.618650 0.000000 
#    z 0.000000 0.000000 1.668710 
# 
# From -- ./inp_files/8536.got.cif
#   From: 2010.03.12/outbox.cif.g09.slc.cpg/sg191_5_cif.got.tgz:8536.got - 2010.04.01 12:09:02.
