data_PCOD8328215
_publ_section_title
;
Structure prediction by ZEFSAII (Michael W. Deem and Ramdas Pophale) SiO2 
 PCOD8328215
Probable space group: P -6 2 C
;
_chemical_formula_sum "Si O2"
_cell_formula_units_Z 96
_cell_length_a 17.066777
_cell_length_b 17.066777
_cell_length_c 27.384473
_cell_angle_alpha 90.000000
_cell_angle_beta 90.000000
_cell_angle_gamma 120.000000
_cell_volume 6907.772833
_symmetry_space_group_name_H-M "P -6 2 C"
_symmetry_group_IT_number 190
_symmetry_cell_setting 'hexagonal'
loop_
_space_group_symop_operation_xyz
x,y,z
-x+y,-x,1/2-z
-y,x-y,z
x,y,1/2-z
-x+y,-x,z
-y,x-y,1/2-z
x-y,-y,-z
-x,-x+y,-z
y,x,-z
y,x,1/2+z
x-y,-y,1/2+z
-x,-x+y,1/2+z
loop_
_atom_site_type_symbol
_atom_site_label
_atom_site_fract_x
_atom_site_fract_y
_atom_site_fract_z
Si Si1 0.667089 0.152541 0.694731
Si Si2 0.063105 0.306047 0.956363
Si Si3 0.485452 0.152541 0.805269
Si Si4 0.725679 0.093973 0.604975
Si Si5 0.667897 0.155514 0.987687
Si Si6 0.631706 0.725679 0.104975
Si Si7 0.306047 0.242942 0.456363
Si Si8 0.667897 0.512383 0.512313
O O1 0.669210 0.121109 0.750000
O O2 0.571933 0.143866 0.682148
O O3 0.743299 0.256701 0.686679
O O4 0.684502 0.088694 0.658530
O O5 0.141091 0.282183 0.945622
O O6 0.104477 0.410481 0.971760
O O7 0.003920 0.286685 0.907321
O O8 0.000000 0.241982 0.000000
O O9 0.451900 0.121109 0.750000
O O10 0.404192 0.088694 0.841470
O O11 0.671236 0.118817 0.565841
O O12 0.831826 0.168174 0.602797
O O13 0.713315 0.996080 0.592679
O O14 0.693995 0.104477 0.028240
O O15 0.737264 0.262736 0.990096
O O16 0.567681 0.135362 0.999035
O O17 0.552419 0.671236 0.065841
O O18 0.241982 0.241982 0.500000
#
# Coordination Sequence:
#
# PCOD8328215 Si02
#       8
#    12  12  12  12  12  12  12  12
#     4   9  16  25  38  58  84 111 135 157 182 215
#     4   9  17  28  41  56  75 100 127 157 195 233
#     4   9  16  25  38  58  84 111 135 157 182 215
#     4   9  17  27  39  55  75 100 127 156 192 230
#     4   9  16  24  35  53  77 104 130 153 178 213
#     4   9  17  27  39  55  75 100 127 156 192 230
#     4   9  17  28  41  56  75 100 127 157 195 233
#     4   9  16  24  35  53  77 104 130 153 178 213
#
# _framework density 13.897387999999999
#
# number of rings (size 3 to 8) (size 9 to 14) (size 15 to 20)
#    0.000    3.000    0.000    3.500    0.000    6.500 
#    0.000    2.500    0.000    5.250    0.000    0.000 
#    0.000    0.000    0.000    0.000    0.000    0.000 
#
# Total GULP energy -1190201.792179 kJ/mol
# GULP energy per Si atom -12397.935335 kJ/mol
# Density = 1.386576 g / cm^3
# Si number density = 13.897388 Si / 1000 Ang^3
#
#
#
# Elastic Constant Matrix: (Units=GPa)
#
#
# Indices 1 2 3 4 5 6 
#
# 1 84.3199 51.7845 44.6141 0.0000 0.0000 0.0000
# 2 51.7845 84.3199 44.6141 0.0000 0.0000 0.0000
# 3 44.6141 44.6141 82.8946 0.0000 0.0000 0.0000
# 4 0.0000 0.0000 0.0000 18.9333 0.0000 0.0000
# 5 0.0000 0.0000 0.0000 0.0000 18.9333 0.0000
# 6 0.0000 0.0000 0.0000 0.0000 0.0000 16.2677
#
#
#
# Elastic Compliance Matrix: (Units=1/GPa)
#
#
# Indices 1 2 3 4 5 6 
#
# 1 0.021044 -0.009691 -0.006110 0.000000 0.000000 0.000000
# 2 -0.009691 0.021044 -0.006110 0.000000 0.000000 0.000000
# 3 -0.006110 -0.006110 0.018641 0.000000 0.000000 0.000000
# 4 0.000000 0.000000 0.000000 0.052817 0.000000 0.000000
# 5 0.000000 0.000000 0.000000 0.000000 0.052817 0.000000
# 6 0.000000 0.000000 0.000000 0.000000 0.000000 0.061472
#
#
# Mechanical properties :
#
#
# Convention : Reuss Voigt Hill
#
# Bulk Modulus (GPa) = 59.15143 59.28444 59.21794
# Shear Modulus (GPa) = 18.03137 18.19494 18.11315
#
# Velocity S-wave (km/s) = 3.60594 3.62226 3.61411
# Velocity P-wave (km/s) = 7.74548 7.76181 7.75365
#
# Compressibility (1/GPa) = 0.01690576
#
# Stress axis : x y z
#
# Youngs Moduli (GPa) = 47.51842 47.51842 53.64612
#
# Poissons Ratio (x) = 0.46052 0.32779
# Poissons Ratio (y) = 0.46052 0.32779
# Poissons Ratio (z) = 0.29035 0.29035
#
# Static dielectric constant tensor:
#      x y z
#    x 2.649890 0.000000 0.000000 
#    y 0.000000 2.649890 0.000000 
#    z 0.000000 0.000000 2.712710 
# 
# 
# High freq. dielectric constant tensor:
#      x y z
#    x 1.516950 0.000000 0.000000 
#    y 0.000000 1.516950 0.000000 
#    z 0.000000 0.000000 1.511450 
# 
# From -- ./inp_files/4767.got.cif
#   From: 2010.06.25/outbox.cif.g09.slc.cpg/sg190_3_cif.got.tgz:4767.got - 2010.06.28 13:08:06.
