data_PCOD8328644
_publ_section_title
;
Structure prediction by ZEFSAII (Michael W. Deem and Ramdas Pophale) SiO2 
 PCOD8328644
Probable space group: P 6/M M M
;
_chemical_formula_sum "Si O2"
_cell_formula_units_Z 88
_cell_length_a 25.953768
_cell_length_b 25.953768
_cell_length_c 8.836774
_cell_angle_alpha 90.000000
_cell_angle_beta 90.000000
_cell_angle_gamma 120.000000
_cell_volume 5154.959008
_symmetry_space_group_name_H-M "P 6/M M M"
_symmetry_group_IT_number 191
_symmetry_cell_setting 'hexagonal'
loop_
_space_group_symop_operation_xyz
x,y,z
x-y,x,z
-y,x-y,z
-x,-y,z
-x+y,-x,z
y,-x+y,z
x-y,-y,-z
-x,-x+y,-z
y,x,-z
-y,-x,-z
-x+y,y,-z
x,x-y,-z
-x,-y,-z
-x+y,-x,-z
y,-x+y,-z
x,y,-z
x-y,x,-z
-y,x-y,-z
-x+y,y,z
x,x-y,z
-y,-x,z
y,x,z
x-y,-y,z
-x,-x+y,z
loop_
_atom_site_type_symbol
_atom_site_label
_atom_site_fract_x
_atom_site_fract_y
_atom_site_fract_z
Si Si1 0.247526 0.181524 0.323636
Si Si2 0.122665 0.367453 0.169139
Si Si3 0.333334 0.666667 0.679386
Si Si4 0.397455 0.602546 0.820971
Si Si5 0.183485 0.695892 0.677268
O O1 0.262812 0.188309 0.500000
O O2 0.230153 0.115077 0.268154
O O3 0.192590 0.192590 0.288124
O O4 0.305635 0.232942 0.240398
O O5 0.183289 0.366577 0.166054
O O6 0.131704 0.422655 0.270981
O O7 0.103365 0.373987 0.000000
O O8 0.333334 0.666667 0.500000
O O9 0.366405 0.633596 0.737095
O O10 0.363003 0.534105 0.768113
O O11 0.393337 0.606664 0.000000
O O12 0.177547 0.682591 0.500000
O O13 0.248829 0.751172 0.717386
#
# Coordination Sequence:
#
# PCOD8328644 Si02
#       5
#    24  24   4  12  24
#     4   9  17  30  49  73 101 132 164 195 231 275
#     4   9  17  29  45  66  92 119 153 196 242 286
#     4  12  22  32  40  54  82 119 163 204 250 308
#     4  12  22  30  42  60  85 119 160 206 252 300
#     4  10  19  30  44  60  85 119 157 198 244 299
#
# _framework density 17.070941000000001
#
# number of rings (size 3 to 8) (size 9 to 14) (size 15 to 20)
#    0.000    2.182    1.364    3.273    0.000    4.909 
#    0.000    0.000    0.000    0.273    0.000    2.864 
#    0.000    7.636    0.000    6.818    0.000    7.091 
#
# Total GULP energy -1091027.898727 kJ/mol
# GULP energy per Si atom -12398.044304 kJ/mol
# Density = 1.703209 g / cm^3
# Si number density = 17.070941 Si / 1000 Ang^3
#
#
#
# Elastic Constant Matrix: (Units=GPa)
#
#
# Indices 1 2 3 4 5 6 
#
# 1 86.7020 44.3179 35.8480 0.0000 0.0000 -0.0001
# 2 44.3179 86.7021 35.8478 -0.0001 0.0000 0.0000
# 3 35.8480 35.8478 101.8514 -0.0001 0.0000 -0.0001
# 4 0.0000 -0.0001 -0.0001 17.6786 0.0000 0.0000
# 5 0.0000 0.0000 0.0000 0.0000 17.6788 0.0000
# 6 -0.0001 0.0000 -0.0001 0.0000 0.0000 21.1921
#
#
#
# Elastic Compliance Matrix: (Units=1/GPa)
#
#
# Indices 1 2 3 4 5 6 
#
# 1 0.016523 -0.007070 -0.003327 0.000000 0.000000 0.000000
# 2 -0.007070 0.016523 -0.003327 0.000000 0.000000 0.000000
# 3 -0.003327 -0.003327 0.012160 0.000000 0.000000 0.000000
# 4 0.000000 0.000000 0.000000 0.056566 0.000000 0.000000
# 5 0.000000 0.000000 0.000000 0.000000 0.056565 0.000000
# 6 0.000000 0.000000 0.000000 0.000000 0.000000 0.047187
#
#
# Mechanical properties :
#
#
# Convention : Reuss Voigt Hill
#
# Bulk Modulus (GPa) = 56.31294 56.36475 56.33885
# Shear Modulus (GPa) = 20.92984 21.92603 21.42793
#
# Velocity S-wave (km/s) = 3.50530 3.58775 3.54676
# Velocity P-wave (km/s) = 7.03150 7.08888 7.06025
#
# Compressibility (1/GPa) = 0.01775791
#
# Stress axis : x y z
#
# Youngs Moduli (GPa) = 60.52021 60.52042 82.23495
#
# Poissons Ratio (x) = 0.42790 0.27361
# Poissons Ratio (y) = 0.42790 0.27360
# Poissons Ratio (z) = 0.20136 0.20136
#
# Static dielectric constant tensor:
#      x y z
#    x 3.114850 0.000000 0.000000 
#    y 0.000000 3.114850 0.000000 
#    z 0.000000 0.000000 3.334580 
# 
# 
# High freq. dielectric constant tensor:
#      x y z
#    x 1.630530 0.000000 0.000000 
#    y 0.000000 1.630530 0.000000 
#    z 0.000000 0.000000 1.671580 
# 
# From -- ./inp_files/1279.got.cif
#   From: 2010.03.12/outbox.cif.g09.slc.cpg/sg191_1_cif.got.tgz:1279.got - 2010.04.01 12:09:02.
