data_PCOD8328954
_publ_section_title
;
Structure prediction by ZEFSAII (Michael W. Deem and Ramdas Pophale) SiO2 
 PCOD8328954
Probable space group: P 6/M M M
;
_chemical_formula_sum "Si O2"
_cell_formula_units_Z 72
_cell_length_a 20.654005
_cell_length_b 20.654005
_cell_length_c 11.828722
_cell_angle_alpha 90.000000
_cell_angle_beta 90.000000
_cell_angle_gamma 120.000000
_cell_volume 4369.955479
_symmetry_space_group_name_H-M "P 6/M M M"
_symmetry_group_IT_number 191
_symmetry_cell_setting 'hexagonal'
loop_
_space_group_symop_operation_xyz
x,y,z
x-y,x,z
-y,x-y,z
-x,-y,z
-x+y,-x,z
y,-x+y,z
x-y,-y,-z
-x,-x+y,-z
y,x,-z
-y,-x,-z
-x+y,y,-z
x,x-y,-z
-x,-y,-z
-x+y,-x,-z
y,-x+y,-z
x,y,-z
x-y,x,-z
-y,x-y,-z
-x+y,y,z
x,x-y,z
-y,-x,z
y,x,z
x-y,-y,z
-x,-x+y,z
loop_
_atom_site_type_symbol
_atom_site_label
_atom_site_fract_x
_atom_site_fract_y
_atom_site_fract_z
Si Si1 0.816271 0.483738 0.631261
Si Si2 0.309892 0.227399 0.000000
Si Si3 0.577694 0.913619 0.178324
Si Si4 0.811176 0.336716 0.000000
O O1 0.832998 0.503144 0.500000
O O2 0.733146 0.466292 0.663309
O O3 0.822538 0.411269 0.663328
O O4 0.877996 0.558468 0.696451
O O5 0.357727 0.263571 0.886173
O O6 0.238147 0.238147 0.000000
O O7 0.279192 0.139596 0.000000
O O8 0.502118 0.864352 0.108909
O O9 0.599300 0.000000 0.183644
O O10 0.751496 0.248505 0.000000
O O11 0.768886 0.384443 0.000000
#
# Coordination Sequence:
#
# PCOD8328954 Si02
#       4
#    24  12  24  12
#     4  10  20  33  48  64  85 115 150 187 225 266
#     4   9  17  31  51  72  94 119 147 178 213 258
#     4  10  20  32  47  66  88 116 147 181 221 262
#     4  11  21  32  47  65  87 113 143 182 224 266
#
# _framework density 16.476140000000001
#
# number of rings (size 3 to 8) (size 9 to 14) (size 15 to 20)
#    0.000    2.000    0.000    7.000    0.000    5.333 
#    0.000    5.000    0.000    0.167    0.000    0.000 
#    0.000    0.000    0.000    0.000    0.000    0.000 
#
# Total GULP energy -892382.105917 kJ/mol
# GULP energy per Si atom -12394.195916 kJ/mol
# Density = 1.643864 g / cm^3
# Si number density = 16.476140 Si / 1000 Ang^3
#
#
#
# Elastic Constant Matrix: (Units=GPa)
#
#
# Indices 1 2 3 4 5 6 
#
# 1 103.3358 59.5499 47.4108 0.0000 0.0000 0.0000
# 2 59.5499 103.3358 47.4108 0.0000 0.0000 0.0000
# 3 47.4108 47.4108 86.8485 0.0000 0.0000 0.0000
# 4 0.0000 0.0000 0.0000 20.8696 0.0000 0.0000
# 5 0.0000 0.0000 0.0000 0.0000 20.8696 0.0000
# 6 0.0000 0.0000 0.0000 0.0000 0.0000 21.8930
#
#
#
# Elastic Compliance Matrix: (Units=1/GPa)
#
#
# Indices 1 2 3 4 5 6 
#
# 1 0.015919 -0.006920 -0.004913 0.000000 0.000000 0.000000
# 2 -0.006920 0.015919 -0.004913 0.000000 0.000000 0.000000
# 3 -0.004913 -0.004913 0.016878 0.000000 0.000000 0.000000
# 4 0.000000 0.000000 0.000000 0.047917 0.000000 0.000000
# 5 0.000000 0.000000 0.000000 0.000000 0.047917 0.000000
# 6 0.000000 0.000000 0.000000 0.000000 0.000000 0.045677
#
#
# Mechanical properties :
#
#
# Convention : Reuss Voigt Hill
#
# Bulk Modulus (GPa) = 65.67880 66.91811 66.29846
# Shear Modulus (GPa) = 21.85406 22.00300 21.92853
#
# Velocity S-wave (km/s) = 3.64594 3.65834 3.65214
# Velocity P-wave (km/s) = 7.59430 7.65166 7.62303
#
# Compressibility (1/GPa) = 0.01522561
#
# Stress axis : x y z
#
# Youngs Moduli (GPa) = 62.81902 62.81902 59.24902
#
# Poissons Ratio (x) = 0.43469 0.29107
# Poissons Ratio (y) = 0.43469 0.29107
# Poissons Ratio (z) = 0.30861 0.30861
#
# Static dielectric constant tensor:
#      x y z
#    x 2.958660 0.000000 0.000000 
#    y 0.000000 2.958660 0.000000 
#    z 0.000000 0.000000 3.264070 
# 
# 
# High freq. dielectric constant tensor:
#      x y z
#    x 1.616640 0.000000 0.000000 
#    y 0.000000 1.616640 0.000000 
#    z 0.000000 0.000000 1.639040 
# 
# From -- ./inp_files/2312.got.cif
#   From: 2010.03.12/outbox.cif.g09.slc.cpg/sg191_2_cif.got.tgz:2312.got - 2010.04.01 12:09:02.
