data_PCOD8328094
_publ_section_title
;
Structure prediction by ZEFSAII (Michael W. Deem and Ramdas Pophale) SiO2 
 PCOD8328094
Probable space group: P -6 2 C
;
_chemical_formula_sum "Si O2"
_cell_formula_units_Z 58
_cell_length_a 14.903193
_cell_length_b 14.903193
_cell_length_c 13.228199
_cell_angle_alpha 90.000000
_cell_angle_beta 90.000000
_cell_angle_gamma 120.000000
_cell_volume 2544.427043
_symmetry_space_group_name_H-M "P -6 2 C"
_symmetry_group_IT_number 190
_symmetry_cell_setting 'hexagonal'
loop_
_space_group_symop_operation_xyz
x,y,z
-x+y,-x,1/2-z
-y,x-y,z
x,y,1/2-z
-x+y,-x,z
-y,x-y,1/2-z
x-y,-y,-z
-x,-x+y,-z
y,x,-z
y,x,1/2+z
x-y,-y,1/2+z
-x,-x+y,1/2+z
loop_
_atom_site_type_symbol
_atom_site_label
_atom_site_fract_x
_atom_site_fract_y
_atom_site_fract_z
Si Si1 0.499566 0.499566 0.500000
Si Si2 0.160283 0.924039 0.870862
Si Si3 0.461048 0.183323 0.035944
Si Si4 0.206335 0.139535 0.636656
Si Si5 0.304054 0.436328 0.364053
Si Si6 0.666668 0.333334 0.133329
O O1 0.606464 0.517450 0.454813
O O2 0.414563 0.468302 0.412749
O O3 0.168065 0.915427 0.750000
O O4 0.204380 0.856665 0.920601
O O5 0.042805 0.875619 0.913140
O O6 0.216173 0.043879 0.911085
O O7 0.547596 0.279350 0.098807
O O8 0.472592 0.232718 0.924001
O O9 0.166255 0.101472 0.750000
O O10 0.313333 0.245159 0.636595
O O11 0.320302 0.481278 0.250000
O O12 0.666667 0.333334 0.250000
#
# Coordination Sequence:
#
# PCOD8328094 Si02
#       6
#     6  12  12  12  12   4
#     4  12  26  46  74 104 136 192 258 310 382 466
#     4  10  20  38  68 105 150 191 236 295 358 439
#     4  12  25  47  70 106 143 192 252 307 375 458
#     4   9  19  36  63 101 141 188 231 283 361 437
#     4  11  25  46  70 101 145 192 247 316 382 450
#     4  12  27  48  73 104 145 189 249 318 379 440
#
# _framework density 22.794917999999999
#
# number of rings (size 3 to 8) (size 9 to 14) (size 15 to 20)
#    0.000    1.241    2.069    3.517    0.000    4.138 
#    0.000    0.000    0.000    2.483    0.000    0.000 
#    0.000    0.000    0.000    0.000    0.000    0.000 
#
# Total GULP energy -719000.971706 kJ/mol
# GULP energy per Si atom -12396.568478 kJ/mol
# Density = 2.274304 g / cm^3
# Si number density = 22.794918 Si / 1000 Ang^3
#
#
#
# Elastic Constant Matrix: (Units=GPa)
#
#
# Indices 1 2 3 4 5 6 
#
# 1 145.1776 40.3310 60.2640 0.0001 0.0000 0.0000
# 2 40.3310 145.1768 60.2637 -0.0002 0.0001 0.0001
# 3 60.2640 60.2637 112.9484 -0.0001 -0.0001 -0.0001
# 4 0.0001 -0.0002 -0.0001 28.7911 0.0000 0.0000
# 5 0.0000 0.0001 -0.0001 0.0000 28.7910 -0.0001
# 6 0.0000 0.0001 -0.0001 0.0000 -0.0001 52.4251
#
#
#
# Elastic Compliance Matrix: (Units=1/GPa)
#
#
# Indices 1 2 3 4 5 6 
#
# 1 0.008894 -0.000643 -0.004402 0.000000 0.000000 0.000000
# 2 -0.000643 0.008894 -0.004402 0.000000 0.000000 0.000000
# 3 -0.004402 -0.004402 0.013551 0.000000 0.000000 0.000000
# 4 0.000000 0.000000 0.000000 0.034733 0.000000 0.000000
# 5 0.000000 0.000000 0.000000 0.000000 0.034733 0.000000
# 6 0.000000 0.000000 0.000000 0.000000 0.000000 0.019075
#
#
# Mechanical properties :
#
#
# Convention : Reuss Voigt Hill
#
# Bulk Modulus (GPa) = 80.36056 80.55779 80.45917
# Shear Modulus (GPa) = 34.98349 38.16437 36.57393
#
# Velocity S-wave (km/s) = 3.92178 4.09620 4.00994
# Velocity P-wave (km/s) = 7.47244 7.60189 7.53745
#
# Compressibility (1/GPa) = 0.01244392
#
# Stress axis : x y z
#
# Youngs Moduli (GPa) = 112.43199 112.43142 73.79401
#
# Poissons Ratio (x) = 0.07235 0.32486
# Poissons Ratio (y) = 0.07235 0.32486
# Poissons Ratio (z) = 0.49495 0.49495
#
# Static dielectric constant tensor:
#      x y z
#    x 4.055460 -0.000010 0.000000 
#    y -0.000010 4.055500 0.000010 
#    z 0.000000 0.000010 4.368150 
# 
# 
# High freq. dielectric constant tensor:
#      x y z
#    x 1.908670 0.000000 0.000000 
#    y 0.000000 1.908670 0.000000 
#    z 0.000000 0.000000 1.909230 
# 
# From -- ./inp_files/2828.got.cif
#   From: 2010.06.25/outbox.cif.g09.slc.cpg/sg190_2_cif.got.tgz:2828.got - 2010.06.28 13:08:06.
