data_PCOD8328721
_publ_section_title
;
Structure prediction by ZEFSAII (Michael W. Deem and Ramdas Pophale) SiO2 
 PCOD8328721
Probable space group: P 6/M M M
;
_chemical_formula_sum "Si O2"
_cell_formula_units_Z 120
_cell_length_a 18.017103
_cell_length_b 18.017103
_cell_length_c 25.245048
_cell_angle_alpha 90.000000
_cell_angle_beta 90.000000
_cell_angle_gamma 120.000000
_cell_volume 7097.031864
_symmetry_space_group_name_H-M "P 6/M M M"
_symmetry_group_IT_number 191
_symmetry_cell_setting 'hexagonal'
loop_
_space_group_symop_operation_xyz
x,y,z
x-y,x,z
-y,x-y,z
-x,-y,z
-x+y,-x,z
y,-x+y,z
x-y,-y,-z
-x,-x+y,-z
y,x,-z
-y,-x,-z
-x+y,y,-z
x,x-y,-z
-x,-y,-z
-x+y,-x,-z
y,-x+y,-z
x,y,-z
x-y,x,-z
-y,x-y,-z
-x+y,y,z
x,x-y,z
-y,-x,z
y,x,z
x-y,-y,z
-x,-x+y,z
loop_
_atom_site_type_symbol
_atom_site_label
_atom_site_fract_x
_atom_site_fract_y
_atom_site_fract_z
Si Si1 0.502976 0.666711 0.709180
Si Si2 0.264973 0.904661 0.500000
Si Si3 0.836308 0.333375 0.588044
Si Si4 0.330968 0.496098 0.888327
Si Si5 0.635464 0.095170 0.000000
Si Si6 0.095865 0.733837 0.201976
O O1 0.472902 0.736451 0.716834
O O2 0.424542 0.575459 0.727041
O O3 0.529200 0.664047 0.648619
O O4 0.584972 0.690509 0.744863
O O5 0.163606 0.836395 0.500000
O O6 0.310613 0.894811 0.448053
O O7 0.278099 0.000000 0.500000
O O8 0.848857 0.424429 0.570419
O O9 0.736718 0.263283 0.580237
O O10 0.264990 0.529980 0.876746
O O11 0.427051 0.572950 0.880329
O O12 0.313346 0.457663 0.947553
O O13 0.314727 0.421193 0.848109
O O14 0.545110 0.090219 0.000000
O O15 0.622297 0.000000 0.000000
O O16 0.164623 0.835377 0.200421
O O17 0.000000 0.719840 0.200920
#
# Coordination Sequence:
#
# PCOD8328721 Si02
#       6
#    24  12  24  24  12  24
#     4   9  17  29  46  69  98 131 163 190 215 248
#     4  10  21  35  49  66  89 117 150 190 237 283
#     4   9  17  29  46  69  98 131 162 188 214 250
#     4  10  19  30  45  66  94 127 160 191 223 263
#     4   9  17  28  42  60  84 119 163 205 235 256
#     4  10  21  35  50  68  90 117 149 188 234 280
#
# _framework density 16.908477999999999
#
# number of rings (size 3 to 8) (size 9 to 14) (size 15 to 20)
#    0.000    2.500    0.000    2.400    0.000    5.600 
#    0.000    6.000    0.000    0.300    0.000    0.000 
#    0.000    0.000    0.000   10.000    0.000   20.800 
#
# Total GULP energy -1487936.888526 kJ/mol
# GULP energy per Si atom -12399.474071 kJ/mol
# Density = 1.686999 g / cm^3
# Si number density = 16.908478 Si / 1000 Ang^3
#
#
#
# Elastic Constant Matrix: (Units=GPa)
#
#
# Indices 1 2 3 4 5 6 
#
# 1 87.8805 59.7947 36.0770 0.0000 0.0000 0.0000
# 2 59.7947 87.8805 36.0770 0.0000 0.0000 0.0000
# 3 36.0770 36.0770 93.2305 0.0000 0.0000 0.0000
# 4 0.0000 0.0000 0.0000 16.7296 0.0000 0.0000
# 5 0.0000 0.0000 0.0000 0.0000 16.7296 0.0000
# 6 0.0000 0.0000 0.0000 0.0000 0.0000 14.0429
#
#
#
# Elastic Compliance Matrix: (Units=1/GPa)
#
#
# Indices 1 2 3 4 5 6 
#
# 1 0.021978 -0.013627 -0.003231 0.000000 0.000000 0.000000
# 2 -0.013627 0.021978 -0.003231 0.000000 0.000000 0.000000
# 3 -0.003231 -0.003231 0.013227 0.000000 0.000000 0.000000
# 4 0.000000 0.000000 0.000000 0.059774 0.000000 0.000000
# 5 0.000000 0.000000 0.000000 0.000000 0.059774 0.000000
# 6 0.000000 0.000000 0.000000 0.000000 0.000000 0.071210
#
#
# Mechanical properties :
#
#
# Convention : Reuss Voigt Hill
#
# Bulk Modulus (GPa) = 58.81493 59.20987 59.01240
# Shear Modulus (GPa) = 17.01900 18.63660 17.82780
#
# Velocity S-wave (km/s) = 3.17604 3.32355 3.25063
# Velocity P-wave (km/s) = 6.95050 7.05846 7.00469
#
# Compressibility (1/GPa) = 0.01700248
#
# Stress axis : x y z
#
# Youngs Moduli (GPa) = 45.50036 45.50036 75.60330
#
# Poissons Ratio (x) = 0.62005 0.24430
# Poissons Ratio (y) = 0.62005 0.24430
# Poissons Ratio (z) = 0.14703 0.14703
#
# Static dielectric constant tensor:
#      x y z
#    x 2.930230 0.000000 0.000000 
#    y 0.000000 2.930230 0.000000 
#    z 0.000000 0.000000 3.494700 
# 
# 
# High freq. dielectric constant tensor:
#      x y z
#    x 1.622830 0.000000 0.000000 
#    y 0.000000 1.622830 0.000000 
#    z 0.000000 0.000000 1.673470 
# 
# From -- ./inp_files/8534.got.cif
#   From: 2010.03.12/outbox.cif.g09.slc.cpg/sg191_5_cif.got.tgz:8534.got - 2010.04.01 12:09:02.
