data_PCOD8328150
_publ_section_title
;
Structure prediction by ZEFSAII (Michael W. Deem and Ramdas Pophale) SiO2 
 PCOD8328150
Probable space group: P -6 2 C
;
_chemical_formula_sum "Si O2"
_cell_formula_units_Z 66
_cell_length_a 20.445849
_cell_length_b 20.445849
_cell_length_c 9.039066
_cell_angle_alpha 90.000000
_cell_angle_beta 90.000000
_cell_angle_gamma 120.000000
_cell_volume 3272.385708
_symmetry_space_group_name_H-M "P -6 2 C"
_symmetry_group_IT_number 190
_symmetry_cell_setting 'hexagonal'
loop_
_space_group_symop_operation_xyz
x,y,z
-x+y,-x,1/2-z
-y,x-y,z
x,y,1/2-z
-x+y,-x,z
-y,x-y,1/2-z
x-y,-y,-z
-x,-x+y,-z
y,x,-z
y,x,1/2+z
x-y,-y,1/2+z
-x,-x+y,1/2+z
loop_
_atom_site_type_symbol
_atom_site_label
_atom_site_fract_x
_atom_site_fract_y
_atom_site_fract_z
Si Si1 0.794589 0.714947 0.572477
Si Si2 0.134981 0.438135 0.914982
Si Si3 0.081576 0.778878 0.929926
Si Si4 0.072209 0.542548 0.909901
Si Si5 0.180180 0.706555 0.975308
Si Si6 0.744932 0.422765 0.750000
O O1 0.803464 0.724109 0.750000
O O2 0.771343 0.771343 0.500000
O O3 0.732392 0.628953 0.533243
O O4 0.873041 0.737145 0.490868
O O5 0.102185 0.407594 0.750000
O O6 0.110128 0.496254 0.977716
O O7 0.226143 0.480320 0.897652
O O8 0.081519 0.776024 0.750000
O O9 0.121135 0.735500 0.002700
O O10 0.000000 0.742910 0.000000
O O11 0.040041 0.508073 0.750000
O O12 0.135283 0.629544 0.884215
O O13 0.000000 0.532002 0.000000
O O14 0.207716 0.682788 0.117839
O O15 0.745379 0.343135 0.750000
#
# Coordination Sequence:
#
# PCOD8328150 Si02
#       6
#    12  12  12  12  12   6
#     4  11  22  39  65  93 128 168 214 262 322 385
#     4  10  22  39  60  87 120 159 211 267 327 392
#     4  11  24  41  66  98 136 173 220 276 334 402
#     4  11  24  40  60  86 120 160 204 264 329 394
#     4  11  22  39  62  84 123 164 214 264 333 391
#     4  10  24  40  58  90 124 162 222 280 334 396
#
# _framework density 20.168771
#
# number of rings (size 3 to 8) (size 9 to 14) (size 15 to 20)
#    0.182    1.091    0.000    7.091    7.636    2.182 
#    1.091    0.000    0.000    0.364    0.000    2.545 
#    0.000    0.000    0.000    0.000    0.000    0.000 
#
# Total GULP energy -817749.500452 kJ/mol
# GULP energy per Si atom -12390.143946 kJ/mol
# Density = 2.012287 g / cm^3
# Si number density = 20.168771 Si / 1000 Ang^3
#
#
#
# Elastic Constant Matrix: (Units=GPa)
#
#
# Indices 1 2 3 4 5 6 
#
# 1 118.9360 58.0656 44.5083 0.0000 0.0000 0.0000
# 2 58.0656 118.9360 44.5083 0.0000 0.0000 0.0000
# 3 44.5083 44.5083 120.4763 0.0000 0.0000 0.0000
# 4 0.0000 0.0000 0.0000 34.1375 0.0000 0.0000
# 5 0.0000 0.0000 0.0000 0.0000 34.1375 0.0000
# 6 0.0000 0.0000 0.0000 0.0000 0.0000 30.4352
#
#
#
# Elastic Compliance Matrix: (Units=1/GPa)
#
#
# Indices 1 2 3 4 5 6 
#
# 1 0.011684 -0.004745 -0.002563 0.000000 0.000000 0.000000
# 2 -0.004745 0.011684 -0.002563 0.000000 0.000000 0.000000
# 3 -0.002563 -0.002563 0.010194 0.000000 0.000000 0.000000
# 4 0.000000 0.000000 0.000000 0.029293 0.000000 0.000000
# 5 0.000000 0.000000 0.000000 0.000000 0.029293 0.000000
# 6 0.000000 0.000000 0.000000 0.000000 0.000000 0.032857
#
#
# Mechanical properties :
#
#
# Convention : Reuss Voigt Hill
#
# Bulk Modulus (GPa) = 72.36769 72.50144 72.43456
# Shear Modulus (GPa) = 33.47743 33.82646 33.65194
#
# Velocity S-wave (km/s) = 4.07856 4.09977 4.08918
# Velocity P-wave (km/s) = 7.62486 7.64436 7.63462
#
# Compressibility (1/GPa) = 0.01381832
#
# Stress axis : x y z
#
# Youngs Moduli (GPa) = 85.59005 85.59005 98.09245
#
# Poissons Ratio (x) = 0.40610 0.25146
# Poissons Ratio (y) = 0.40610 0.25146
# Poissons Ratio (z) = 0.21941 0.21941
#
# Static dielectric constant tensor:
#      x y z
#    x 3.768980 0.000000 0.000000 
#    y 0.000000 3.768980 0.000000 
#    z 0.000000 0.000000 1.838790 
# 
# 
# High freq. dielectric constant tensor:
#      x y z
#    x 1.784800 0.000000 0.000000 
#    y 0.000000 1.784800 0.000000 
#    z 0.000000 0.000000 1.793750 
# 
# From -- ./inp_files/1070.got.cif
#   From: 2010.06.25/outbox.cif.g09.slc.cpg/sg190_1_cif.got.tgz:1070.got - 2010.06.28 13:08:06.
