data_PCOD8328502
_publ_section_title
;
Structure prediction by ZEFSAII (Michael W. Deem and Ramdas Pophale) SiO2 
 PCOD8328502
Probable space group: P 6/M M M
;
_chemical_formula_sum "Si O2"
_cell_formula_units_Z 156
_cell_length_a 21.647537
_cell_length_b 21.647537
_cell_length_c 19.982991
_cell_angle_alpha 90.000000
_cell_angle_beta 90.000000
_cell_angle_gamma 120.000000
_cell_volume 8109.761938
_symmetry_space_group_name_H-M "P 6/M M M"
_symmetry_group_IT_number 191
_symmetry_cell_setting 'hexagonal'
loop_
_space_group_symop_operation_xyz
x,y,z
x-y,x,z
-y,x-y,z
-x,-y,z
-x+y,-x,z
y,-x+y,z
x-y,-y,-z
-x,-x+y,-z
y,x,-z
-y,-x,-z
-x+y,y,-z
x,x-y,-z
-x,-y,-z
-x+y,-x,-z
y,-x+y,-z
x,y,-z
x-y,x,-z
-y,x-y,-z
-x+y,y,z
x,x-y,z
-y,-x,z
y,x,z
x-y,-y,z
-x,-x+y,z
loop_
_atom_site_type_symbol
_atom_site_label
_atom_site_fract_x
_atom_site_fract_y
_atom_site_fract_z
Si Si1 0.448780 0.151818 0.367599
Si Si2 0.327301 0.918963 0.225553
Si Si3 0.457613 0.915225 0.579476
Si Si4 0.706069 0.785046 0.578601
Si Si5 0.497240 0.317326 0.000000
Si Si6 0.082483 0.735110 0.000000
Si Si7 0.210265 0.288758 0.862249
Si Si8 0.664279 0.468706 0.146440
O O1 0.474238 0.237119 0.375565
O O2 0.433983 0.130389 0.290439
O O3 0.505302 0.129446 0.394291
O O4 0.376161 0.104559 0.408081
O O5 0.260012 0.921212 0.196485
O O6 0.352796 0.881829 0.171130
O O7 0.391088 0.000000 0.239819
O O8 0.456209 0.912417 0.500000
O O9 0.500000 0.000000 0.602386
O O10 0.717818 0.791667 0.500000
O O11 0.726000 0.863000 0.608432
O O12 0.756470 0.756470 0.610597
O O13 0.542909 0.349514 0.933257
O O14 0.463243 0.231622 0.000000
O O15 0.429186 0.328077 0.000000
O O16 0.110764 0.779437 0.931528
O O17 0.000000 0.699564 0.000000
O O18 0.129043 0.258085 0.839298
O O19 0.222083 0.222083 0.872582
O O20 0.743860 0.487719 0.167234
O O21 0.606856 0.393145 0.179099
#
# Coordination Sequence:
#
# PCOD8328502 Si02
#       8
#    24  24  12  24  12  12  24  24
#     4  11  23  40  61  86 116 152 194 238 287 344
#     4  11  23  38  58  83 111 145 185 233 288 341
#     4  11  24  42  66  94 124 159 199 243 297 356
#     4   9  17  31  54  82 111 143 182 227 272 321
#     4  10  19  33  54  74 101 137 183 234 283 332
#     4  10  18  29  49  74 101 135 176 230 292 347
#     4  10  19  32  52  77 106 140 182 230 285 343
#     4  11  23  38  56  78 107 147 190 236 284 343
#
# _framework density 19.236076000000001
#
# number of rings (size 3 to 8) (size 9 to 14) (size 15 to 20)
#    0.000    1.615    1.538    4.308    1.077    2.462 
#    0.462    0.769    0.000    1.692    0.000    1.077 
#    0.000    1.846    0.000    4.923    0.000    3.385 
#
# Total GULP energy -1932844.082311 kJ/mol
# GULP energy per Si atom -12390.026169 kJ/mol
# Density = 1.919229 g / cm^3
# Si number density = 19.236076 Si / 1000 Ang^3
#
#
#
# Elastic Constant Matrix: (Units=GPa)
#
#
# Indices 1 2 3 4 5 6 
#
# 1 124.7442 77.2647 25.2133 0.0000 0.0000 0.0000
# 2 77.2647 124.7442 25.2133 0.0000 0.0000 0.0000
# 3 25.2133 25.2133 63.2474 0.0000 0.0000 0.0000
# 4 0.0000 0.0000 0.0000 5.4594 0.0000 0.0000
# 5 0.0000 0.0000 0.0000 0.0000 5.4594 0.0000
# 6 0.0000 0.0000 0.0000 0.0000 0.0000 23.7398
#
#
#
# Elastic Compliance Matrix: (Units=1/GPa)
#
#
# Indices 1 2 3 4 5 6 
#
# 1 0.013280 -0.007782 -0.002191 0.000000 0.000000 0.000000
# 2 -0.007782 0.013280 -0.002191 0.000000 0.000000 0.000000
# 3 -0.002191 -0.002191 0.017558 0.000000 0.000000 0.000000
# 4 0.000000 0.000000 0.000000 0.183169 0.000000 0.000000
# 5 0.000000 0.000000 0.000000 0.000000 0.183169 0.000000
# 6 0.000000 0.000000 0.000000 0.000000 0.000000 0.042123
#
#
# Mechanical properties :
#
#
# Convention : Reuss Voigt Hill
#
# Bulk Modulus (GPa) = 50.53850 63.12424 56.83137
# Shear Modulus (GPa) = 10.34115 19.26803 14.80459
#
# Velocity S-wave (km/s) = 2.32112 3.16834 2.77722
# Velocity P-wave (km/s) = 5.78906 6.80230 6.31603
#
# Compressibility (1/GPa) = 0.01978689
#
# Stress axis : x y z
#
# Youngs Moduli (GPa) = 75.30392 75.30392 56.95355
#
# Poissons Ratio (x) = 0.58603 0.12481
# Poissons Ratio (y) = 0.58603 0.12481
# Poissons Ratio (z) = 0.16503 0.16503
#
# Static dielectric constant tensor:
#      x y z
#    x 3.635710 0.000000 0.000000 
#    y 0.000000 3.635710 0.000000 
#    z 0.000000 0.000000 3.696660 
# 
# 
# High freq. dielectric constant tensor:
#      x y z
#    x 1.742120 0.000000 0.000000 
#    y 0.000000 1.742120 0.000000 
#    z 0.000000 0.000000 1.746590 
# 
# From -- ./inp_files/7760.got.cif
#   From: 2010.03.12/outbox.cif.g09.slc.cpg/sg191_4_cif.got.tgz:7760.got - 2010.04.01 12:09:02.
