data_PCOD8328624
_publ_section_title
;
Structure prediction by ZEFSAII (Michael W. Deem and Ramdas Pophale) SiO2 
 PCOD8328624
Probable space group: P 6/M M M
;
_chemical_formula_sum "Si O2"
_cell_formula_units_Z 168
_cell_length_a 22.936515
_cell_length_b 22.936515
_cell_length_c 23.664714
_cell_angle_alpha 90.000000
_cell_angle_beta 90.000000
_cell_angle_gamma 120.000000
_cell_volume 10781.687865
_symmetry_space_group_name_H-M "P 6/M M M"
_symmetry_group_IT_number 191
_symmetry_cell_setting 'hexagonal'
loop_
_space_group_symop_operation_xyz
x,y,z
x-y,x,z
-y,x-y,z
-x,-y,z
-x+y,-x,z
y,-x+y,z
x-y,-y,-z
-x,-x+y,-z
y,x,-z
-y,-x,-z
-x+y,y,-z
x,x-y,-z
-x,-y,-z
-x+y,-x,-z
y,-x+y,-z
x,y,-z
x-y,x,-z
-y,x-y,-z
-x+y,y,z
x,x-y,z
-y,-x,z
y,x,z
x-y,-y,z
-x,-x+y,z
loop_
_atom_site_type_symbol
_atom_site_label
_atom_site_fract_x
_atom_site_fract_y
_atom_site_fract_z
Si Si1 0.920290 0.392665 0.843220
Si Si2 0.203192 0.925867 0.435751
Si Si3 0.269436 0.404800 0.767193
Si Si4 0.470945 0.077318 0.436067
Si Si5 0.713507 0.922330 0.850745
Si Si6 0.306113 0.920976 0.062226
Si Si7 0.594054 0.730014 0.636403
O O1 0.899157 0.449579 0.845011
O O2 0.879990 0.340771 0.792847
O O3 0.897562 0.350888 0.901967
O O4 0.000000 0.424823 0.833074
O O5 0.220981 0.916686 0.500000
O O6 0.125382 0.874619 0.421698
O O7 0.251451 0.914536 0.394599
O O8 0.214616 0.000000 0.425643
O O9 0.213865 0.427729 0.776576
O O10 0.244112 0.332212 0.795844
O O11 0.281179 0.397385 0.701758
O O12 0.459230 0.093735 0.500000
O O13 0.545807 0.091614 0.428965
O O14 0.463997 0.126322 0.391774
O O15 0.417602 0.000000 0.421734
O O16 0.744290 0.872145 0.849142
O O17 0.665230 0.902432 0.905502
O O18 0.773917 0.000000 0.852562
O O19 0.348935 0.000000 0.054833
O O20 0.289714 0.886541 0.000000
O O21 0.574162 0.787081 0.627277
#
# Coordination Sequence:
#
# PCOD8328624 Si02
#       7
#    24  24  24  24  24  24  24
#     4   9  17  28  43  65  91 115 139 171 211 253
#     4   9  17  28  42  61  84 108 134 168 212 259
#     4   9  18  31  44  60  85 115 146 179 214 255
#     4   9  18  31  45  63  88 115 140 167 204 253
#     4   9  17  29  44  62  87 118 149 182 220 261
#     4   8  14  25  41  62  88 115 140 167 203 248
#     4  10  19  29  44  65  85 108 141 180 218 254
#
# _framework density 15.581975999999999
#
# number of rings (size 3 to 8) (size 9 to 14) (size 15 to 20)
#    0.000    3.000    0.000    2.571    0.000    5.429 
#    0.000    2.857    0.000    0.857    0.000    1.000 
#    0.000    0.000    0.000   11.143    0.000    4.286 
#
# Total GULP energy -2082532.961802 kJ/mol
# GULP energy per Si atom -12396.029535 kJ/mol
# Density = 1.554651 g / cm^3
# Si number density = 15.581976 Si / 1000 Ang^3
#
#
#
# Elastic Constant Matrix: (Units=GPa)
#
#
# Indices 1 2 3 4 5 6 
#
# 1 81.4674 42.9136 42.2304 0.0000 0.0000 0.0000
# 2 42.9136 81.4674 42.2304 0.0000 0.0000 0.0000
# 3 42.2304 42.2304 104.7083 0.0000 0.0000 0.0000
# 4 0.0000 0.0000 0.0000 17.2947 0.0000 0.0000
# 5 0.0000 0.0000 0.0000 0.0000 17.2947 0.0000
# 6 0.0000 0.0000 0.0000 0.0000 0.0000 19.2769
#
#
#
# Elastic Compliance Matrix: (Units=1/GPa)
#
#
# Indices 1 2 3 4 5 6 
#
# 1 0.018505 -0.007433 -0.004466 0.000000 0.000000 0.000000
# 2 -0.007433 0.018505 -0.004466 0.000000 0.000000 0.000000
# 3 -0.004466 -0.004466 0.013152 0.000000 0.000000 0.000000
# 4 0.000000 0.000000 0.000000 0.057821 0.000000 0.000000
# 5 0.000000 0.000000 0.000000 0.000000 0.057821 0.000000
# 6 0.000000 0.000000 0.000000 0.000000 0.000000 0.051876
#
#
# Mechanical properties :
#
#
# Convention : Reuss Voigt Hill
#
# Bulk Modulus (GPa) = 57.35770 58.04353 57.70061
# Shear Modulus (GPa) = 19.51452 20.12451 19.81951
#
# Velocity S-wave (km/s) = 3.54273 3.59768 3.57031
# Velocity P-wave (km/s) = 7.32290 7.38844 7.35574
#
# Compressibility (1/GPa) = 0.01743445
#
# Stress axis : x y z
#
# Youngs Moduli (GPa) = 54.03950 54.03950 76.03181
#
# Poissons Ratio (x) = 0.40167 0.33952
# Poissons Ratio (y) = 0.40167 0.33952
# Poissons Ratio (z) = 0.24132 0.24132
#
# Static dielectric constant tensor:
#      x y z
#    x 2.841460 0.000000 0.000000 
#    y 0.000000 2.841460 0.000000 
#    z 0.000000 0.000000 3.227370 
# 
# 
# High freq. dielectric constant tensor:
#      x y z
#    x 1.577310 0.000000 0.000000 
#    y 0.000000 1.577310 0.000000 
#    z 0.000000 0.000000 1.606420 
# 
# From -- ./inp_files/9169.got.cif
#   From: 2010.03.12/outbox.cif.g09.slc.cpg/sg191_5_cif.got.tgz:9169.got - 2010.04.01 12:09:02.
