data_PCOD8328388
_publ_section_title
;
Structure prediction by ZEFSAII (Michael W. Deem and Ramdas Pophale) SiO2 
 PCOD8328388
Probable space group: P 6/M M M
;
_chemical_formula_sum "Si O2"
_cell_formula_units_Z 192
_cell_length_a 22.852182
_cell_length_b 22.852182
_cell_length_c 24.652999
_cell_angle_alpha 90.000000
_cell_angle_beta 90.000000
_cell_angle_gamma 120.000000
_cell_volume 11149.508892
_symmetry_space_group_name_H-M "P 6/M M M"
_symmetry_group_IT_number 191
_symmetry_cell_setting 'hexagonal'
loop_
_space_group_symop_operation_xyz
x,y,z
x-y,x,z
-y,x-y,z
-x,-y,z
-x+y,-x,z
y,-x+y,z
x-y,-y,-z
-x,-x+y,-z
y,x,-z
-y,-x,-z
-x+y,y,-z
x,x-y,-z
-x,-y,-z
-x+y,-x,-z
y,-x+y,-z
x,y,-z
x-y,x,-z
-y,x-y,-z
-x+y,y,z
x,x-y,z
-y,-x,z
y,x,z
x-y,-y,z
-x,-x+y,z
loop_
_atom_site_type_symbol
_atom_site_label
_atom_site_fract_x
_atom_site_fract_y
_atom_site_fract_z
Si Si1 0.393577 0.266244 0.560917
Si Si2 0.075721 0.792736 0.062967
Si Si3 0.355296 0.838402 0.721528
Si Si4 0.332493 0.532599 0.841065
Si Si5 0.797443 0.464579 0.396497
Si Si6 0.689406 0.611225 0.142351
Si Si7 0.077377 0.713061 0.262472
Si Si8 0.205970 0.923867 0.644816
O O1 0.380389 0.282462 0.500000
O O2 0.396851 0.198426 0.563627
O O3 0.465517 0.326417 0.582303
O O4 0.332329 0.256646 0.598901
O O5 0.129466 0.870535 0.077996
O O6 0.093317 0.742301 0.094572
O O7 0.000000 0.777229 0.077950
O O8 0.080574 0.778871 0.000000
O O9 0.437097 0.874194 0.723509
O O10 0.325149 0.794634 0.775980
O O11 0.327336 0.791356 0.668827
O O12 0.333916 0.894231 0.717143
O O13 0.265233 0.530465 0.864834
O O14 0.399059 0.600942 0.860695
O O15 0.338979 0.468946 0.862922
O O16 0.727047 0.454093 0.420219
O O17 0.808333 0.404167 0.417621
O O18 0.627717 0.627717 0.140369
O O19 0.730724 0.638443 0.198835
O O20 0.104077 0.780312 0.298619
O O21 0.000000 0.669378 0.275959
O O22 0.127191 0.872810 0.630353
O O23 0.218795 0.000000 0.649586
#
# Coordination Sequence:
#
# PCOD8328388 Si02
#       8
#    24  24  24  24  24  24  24  24
#     4   9  18  32  49  67  88 116 151 191 230 268
#     4   9  17  30  49  73 101 132 165 200 237 278
#     4   9  17  27  41  63  90 125 161 196 237 280
#     4  10  19  29  43  64  93 127 162 200 244 295
#     4  10  18  28  42  62  89 122 161 201 239 275
#     4   9  18  31  48  72  98 125 160 201 245 287
#     4   9  17  29  46  70  97 124 153 189 234 280
#     4  10  20  34  53  75  97 120 146 179 221 270
#
# _framework density 17.220489000000001
#
# number of rings (size 3 to 8) (size 9 to 14) (size 15 to 20)
#    0.000    2.625    1.250    1.000    0.000    3.500 
#    0.000    3.750    0.000    1.750    0.000    3.500 
#    0.000    1.000    0.000    9.375    0.000    3.250 
#
# Total GULP energy -2379492.351806 kJ/mol
# GULP energy per Si atom -12393.189332 kJ/mol
# Density = 1.718129 g / cm^3
# Si number density = 17.220489 Si / 1000 Ang^3
#
#
#
# Elastic Constant Matrix: (Units=GPa)
#
#
# Indices 1 2 3 4 5 6 
#
# 1 80.1759 67.7610 31.2718 0.0000 0.0000 0.0000
# 2 67.7610 80.1759 31.2718 0.0000 0.0000 0.0000
# 3 31.2718 31.2718 49.9548 0.0000 0.0000 0.0000
# 4 0.0000 0.0000 0.0000 18.7013 0.0000 0.0000
# 5 0.0000 0.0000 0.0000 0.0000 18.7013 0.0000
# 6 0.0000 0.0000 0.0000 0.0000 0.0000 6.2074
#
#
#
# Elastic Compliance Matrix: (Units=1/GPa)
#
#
# Indices 1 2 3 4 5 6 
#
# 1 0.044871 -0.035678 -0.005755 0.000000 0.000000 0.000000
# 2 -0.035678 0.044871 -0.005755 0.000000 0.000000 0.000000
# 3 -0.005755 -0.005755 0.027223 0.000000 0.000000 0.000000
# 4 0.000000 0.000000 0.000000 0.053472 0.000000 0.000000
# 5 0.000000 0.000000 0.000000 0.000000 0.053472 0.000000
# 6 0.000000 0.000000 0.000000 0.000000 0.000000 0.161098
#
#
# Mechanical properties :
#
#
# Convention : Reuss Voigt Hill
#
# Bulk Modulus (GPa) = 44.26796 52.32395 48.29596
# Shear Modulus (GPa) = 10.26884 14.05547 12.16215
#
# Velocity S-wave (km/s) = 2.44461 2.86003 2.66044
# Velocity P-wave (km/s) = 5.80780 6.43094 6.12730
#
# Compressibility (1/GPa) = 0.02258970
#
# Stress axis : x y z
#
# Youngs Moduli (GPa) = 22.28630 22.28630 36.73397
#
# Poissons Ratio (x) = 0.79513 0.21139
# Poissons Ratio (y) = 0.79513 0.21139
# Poissons Ratio (z) = 0.12825 0.12825
#
# Static dielectric constant tensor:
#      x y z
#    x 3.222090 0.000000 0.000000 
#    y 0.000000 3.222090 0.000000 
#    z 0.000000 0.000000 3.203260 
# 
# 
# High freq. dielectric constant tensor:
#      x y z
#    x 1.650020 0.000000 0.000000 
#    y 0.000000 1.650020 0.000000 
#    z 0.000000 0.000000 1.652850 
# 
# From -- ./inp_files/9395.got.cif
#   From: 2010.03.12/outbox.cif.g09.slc.cpg/sg191_5_cif.got.tgz:9395.got - 2010.04.01 12:09:02.
