data_PCOD8328313
_publ_section_title
;
Structure prediction by ZEFSAII (Michael W. Deem and Ramdas Pophale) SiO2 
 PCOD8328313
Probable space group: P 6/M M M
;
_chemical_formula_sum "Si O2"
_cell_formula_units_Z 132
_cell_length_a 18.051824
_cell_length_b 18.051824
_cell_length_c 28.149429
_cell_angle_alpha 90.000000
_cell_angle_beta 90.000000
_cell_angle_gamma 120.000000
_cell_volume 7944.057935
_symmetry_space_group_name_H-M "P 6/M M M"
_symmetry_group_IT_number 191
_symmetry_cell_setting 'hexagonal'
loop_
_space_group_symop_operation_xyz
x,y,z
x-y,x,z
-y,x-y,z
-x,-y,z
-x+y,-x,z
y,-x+y,z
x-y,-y,-z
-x,-x+y,-z
y,x,-z
-y,-x,-z
-x+y,y,-z
x,x-y,-z
-x,-y,-z
-x+y,-x,-z
y,-x+y,-z
x,y,-z
x-y,x,-z
-y,x-y,-z
-x+y,y,z
x,x-y,z
-y,-x,z
y,x,z
x-y,-y,z
-x,-x+y,z
loop_
_atom_site_type_symbol
_atom_site_label
_atom_site_fract_x
_atom_site_fract_y
_atom_site_fract_z
Si Si1 0.096541 0.358627 0.945841
Si Si2 0.330694 0.498462 0.500000
Si Si3 0.905059 0.364761 0.402989
Si Si4 0.834078 0.503164 0.303381
Si Si5 0.100423 0.468072 0.136474
Si Si6 0.733346 0.634778 0.776748
O O1 0.160746 0.321491 0.937557
O O2 0.125455 0.441669 0.913133
O O3 0.000000 0.283609 0.933080
O O4 0.101479 0.389316 0.000000
O O5 0.427815 0.572186 0.500000
O O6 0.269572 0.539144 0.500000
O O7 0.312130 0.441971 0.452211
O O8 0.904038 0.452019 0.408012
O O9 0.848607 0.313545 0.357828
O O10 0.000000 0.381816 0.394485
O O11 0.735457 0.470913 0.290655
O O12 0.854575 0.427288 0.294880
O O13 0.896669 0.582696 0.270551
O O14 0.143199 0.571600 0.138742
O O15 0.131249 0.432477 0.179838
O O16 0.000000 0.427592 0.140170
O O17 0.836335 0.672669 0.773666
O O18 0.711613 0.711613 0.783197
#
# Coordination Sequence:
#
# PCOD8328313 Si02
#       6
#    24  12  24  24  24  24
#     4   9  17  29  46  68  93 122 157 196 236 277
#     4  10  18  27  39  55  76 101 132 174 223 270
#     4   9  17  28  41  56  76 106 143 179 215 260
#     4  10  19  30  45  66  92 120 150 185 225 268
#     4   9  17  29  46  68  91 115 146 183 222 266
#     4  10  20  33  50  71  94 121 153 189 227 268
#
# _framework density 16.616192999999999
#
# number of rings (size 3 to 8) (size 9 to 14) (size 15 to 20)
#    0.000    2.545    0.000    2.727    0.000    3.273 
#    0.000    3.636    0.000    4.364    0.000    1.273 
#    0.000    4.364    0.000    0.182    0.000    0.000 
#
# Total GULP energy -1635983.937576 kJ/mol
# GULP energy per Si atom -12393.817709 kJ/mol
# Density = 1.657837 g / cm^3
# Si number density = 16.616193 Si / 1000 Ang^3
#
#
#
# Elastic Constant Matrix: (Units=GPa)
#
#
# Indices 1 2 3 4 5 6 
#
# 1 72.3176 39.6774 31.4338 0.0000 0.0000 0.0000
# 2 39.6774 72.3176 31.4338 0.0000 0.0000 0.0000
# 3 31.4338 31.4338 103.0352 0.0000 0.0000 0.0000
# 4 0.0000 0.0000 0.0000 20.3628 0.0000 0.0000
# 5 0.0000 0.0000 0.0000 0.0000 20.3628 0.0000
# 6 0.0000 0.0000 0.0000 0.0000 0.0000 16.3201
#
#
#
# Elastic Compliance Matrix: (Units=1/GPa)
#
#
# Indices 1 2 3 4 5 6 
#
# 1 0.020706 -0.009932 -0.003287 0.000000 0.000000 0.000000
# 2 -0.009932 0.020706 -0.003287 0.000000 0.000000 0.000000
# 3 -0.003287 -0.003287 0.011711 0.000000 0.000000 0.000000
# 4 0.000000 0.000000 0.000000 0.049109 0.000000 0.000000
# 5 0.000000 0.000000 0.000000 0.000000 0.049109 0.000000
# 6 0.000000 0.000000 0.000000 0.000000 0.000000 0.061274
#
#
# Mechanical properties :
#
#
# Convention : Reuss Voigt Hill
#
# Bulk Modulus (GPa) = 49.72314 50.30672 50.01493
# Shear Modulus (GPa) = 19.81541 21.08419 20.44980
#
# Velocity S-wave (km/s) = 3.45706 3.56602 3.51196
# Velocity P-wave (km/s) = 6.77676 6.87726 6.82720
#
# Compressibility (1/GPa) = 0.02011136
#
# Stress axis : x y z
#
# Youngs Moduli (GPa) = 48.29620 48.29620 85.39010
#
# Poissons Ratio (x) = 0.47965 0.28067
# Poissons Ratio (y) = 0.47965 0.28067
# Poissons Ratio (z) = 0.15875 0.15875
#
# Static dielectric constant tensor:
#      x y z
#    x 2.951720 0.000000 0.000000 
#    y 0.000000 2.951720 0.000000 
#    z 0.000000 0.000000 3.445710 
# 
# 
# High freq. dielectric constant tensor:
#      x y z
#    x 1.609580 0.000000 0.000000 
#    y 0.000000 1.609580 0.000000 
#    z 0.000000 0.000000 1.663290 
# 
# From -- ./inp_files/9802.got.cif
#   From: 2010.03.12/outbox.cif.g09.slc.cpg/sg191_5_cif.got.tgz:9802.got - 2010.04.01 12:09:02.
