data_PCOD8328041
_publ_section_title
;
Structure prediction by ZEFSAII (Michael W. Deem and Ramdas Pophale) SiO2 
 PCOD8328041
Probable space group: P -6 2 C
;
_chemical_formula_sum "Si O2"
_cell_formula_units_Z 72
_cell_length_a 23.932433
_cell_length_b 23.932433
_cell_length_c 9.013027
_cell_angle_alpha 90.000000
_cell_angle_beta 90.000000
_cell_angle_gamma 120.000000
_cell_volume 4470.694638
_symmetry_space_group_name_H-M "P -6 2 C"
_symmetry_group_IT_number 190
_symmetry_cell_setting 'hexagonal'
loop_
_space_group_symop_operation_xyz
x,y,z
-x+y,-x,1/2-z
-y,x-y,z
x,y,1/2-z
-x+y,-x,z
-y,x-y,1/2-z
x-y,-y,-z
-x,-x+y,-z
y,x,-z
y,x,1/2+z
x-y,-y,1/2+z
-x,-x+y,1/2+z
loop_
_atom_site_type_symbol
_atom_site_label
_atom_site_fract_x
_atom_site_fract_y
_atom_site_fract_z
Si Si1 0.495526 0.752459 0.079316
Si Si2 0.480782 0.851600 0.924859
Si Si3 0.514215 0.138347 0.582077
Si Si4 0.066765 0.695084 0.921615
Si Si5 0.364117 0.068200 0.923956
Si Si6 0.810007 0.628648 0.422027
O O1 0.517054 0.774097 0.250000
O O2 0.459311 0.674760 0.070090
O O3 0.454149 0.783812 0.015632
O O4 0.554863 0.778416 0.967823
O O5 0.475703 0.838492 0.750000
O O6 0.554053 0.900978 0.976343
O O7 0.435747 0.880996 0.972373
O O8 0.522246 0.120403 0.750000
O O9 0.439272 0.097905 0.534753
O O10 0.051910 0.681448 0.750000
O O11 0.113442 0.771965 0.952433
O O12 0.000000 0.673774 0.000000
O O13 0.352643 0.060661 0.750000
O O14 0.338295 0.115347 0.983317
O O15 0.322790 0.000000 0.000000
O O16 0.796196 0.633290 0.250000
#
# Coordination Sequence:
#
# PCOD8328041 Si02
#       6
#    12  12  12  12  12  12
#     4   9  17  31  48  63  81 110 147 185 233 289
#     4  10  20  32  46  65  88 115 150 194 242 287
#     4   9  19  33  47  64  86 115 150 191 240 290
#     4   9  19  32  47  69  93 120 153 187 227 275
#     4  10  20  33  50  72  95 124 158 190 232 282
#     4   9  17  31  49  69  93 118 148 187 225 267
#
# _framework density 16.104880999999999
#
# number of rings (size 3 to 8) (size 9 to 14) (size 15 to 20)
#    0.000    2.667    0.000    4.000    0.000    8.667 
#    1.000    3.333    0.000    0.000    0.000    0.000 
#    0.000    0.000    0.000    0.500    0.000    8.000 
#
# Total GULP energy -892264.767339 kJ/mol
# GULP energy per Si atom -12392.566213 kJ/mol
# Density = 1.606823 g / cm^3
# Si number density = 16.104881 Si / 1000 Ang^3
#
#
#
# Elastic Constant Matrix: (Units=GPa)
#
#
# Indices 1 2 3 4 5 6 
#
# 1 76.7398 47.4857 46.0072 0.0000 0.0000 0.0000
# 2 47.4857 76.7398 46.0072 0.0000 0.0000 0.0000
# 3 46.0072 46.0072 78.8504 0.0000 0.0000 0.0000
# 4 0.0000 0.0000 0.0000 27.0725 0.0000 0.0000
# 5 0.0000 0.0000 0.0000 0.0000 27.0725 0.0000
# 6 0.0000 0.0000 0.0000 0.0000 0.0000 14.6270
#
#
#
# Elastic Compliance Matrix: (Units=1/GPa)
#
#
# Indices 1 2 3 4 5 6 
#
# 1 0.024180 -0.010003 -0.008272 0.000000 0.000000 0.000000
# 2 -0.010003 0.024180 -0.008272 0.000000 0.000000 0.000000
# 3 -0.008272 -0.008272 0.022335 0.000000 0.000000 0.000000
# 4 0.000000 0.000000 0.000000 0.036938 0.000000 0.000000
# 5 0.000000 0.000000 0.000000 0.000000 0.036938 0.000000
# 6 0.000000 0.000000 0.000000 0.000000 0.000000 0.068367
#
#
# Mechanical properties :
#
#
# Convention : Reuss Voigt Hill
#
# Bulk Modulus (GPa) = 56.81358 56.81448 56.81403
# Shear Modulus (GPa) = 18.38920 19.94304 19.16612
#
# Velocity S-wave (km/s) = 3.38278 3.52280 3.45350
# Velocity P-wave (km/s) = 7.11417 7.20425 7.15935
#
# Compressibility (1/GPa) = 0.01760143
#
# Stress axis : x y z
#
# Youngs Moduli (GPa) = 41.35632 41.35632 44.77263
#
# Poissons Ratio (x) = 0.41370 0.37035
# Poissons Ratio (y) = 0.41370 0.37035
# Poissons Ratio (z) = 0.34209 0.34209
#
# Static dielectric constant tensor:
#      x y z
#    x 3.031670 0.000000 0.000000 
#    y 0.000000 3.031670 0.000000 
#    z 0.000000 0.000000 3.129900 
# 
# 
# High freq. dielectric constant tensor:
#      x y z
#    x 1.591520 0.000000 0.000000 
#    y 0.000000 1.591520 0.000000 
#    z 0.000000 0.000000 1.633840 
# 
# From -- ./inp_files/1174.got.cif
#   From: 2010.06.25/outbox.cif.g09.slc.cpg/sg190_1_cif.got.tgz:1174.got - 2010.06.28 13:08:06.
