data_PCOD8328038
_publ_section_title
;
Structure prediction by ZEFSAII (Michael W. Deem and Ramdas Pophale) SiO2 
 PCOD8328038
Probable space group: P -6 2 C
;
_chemical_formula_sum "Si O2"
_cell_formula_units_Z 72
_cell_length_a 23.596724
_cell_length_b 23.596724
_cell_length_c 9.372672
_cell_angle_alpha 90.000000
_cell_angle_beta 90.000000
_cell_angle_gamma 120.000000
_cell_volume 4519.573737
_symmetry_space_group_name_H-M "P -6 2 C"
_symmetry_group_IT_number 190
_symmetry_cell_setting 'hexagonal'
loop_
_space_group_symop_operation_xyz
x,y,z
-x+y,-x,1/2-z
-y,x-y,z
x,y,1/2-z
-x+y,-x,z
-y,x-y,1/2-z
x-y,-y,-z
-x,-x+y,-z
y,x,-z
y,x,1/2+z
x-y,-y,1/2+z
-x,-x+y,1/2+z
loop_
_atom_site_type_symbol
_atom_site_label
_atom_site_fract_x
_atom_site_fract_y
_atom_site_fract_z
Si Si1 0.748053 0.481617 0.907090
Si Si2 0.636882 0.702461 0.082205
Si Si3 0.699633 0.066839 0.085002
Si Si4 0.807956 0.171304 0.907789
Si Si5 0.521465 0.373796 0.085826
Si Si6 0.375768 0.863164 0.082822
O O1 0.748307 0.452802 0.750000
O O2 0.788391 0.559153 0.897535
O O3 0.674516 0.461301 0.953002
O O4 0.780717 0.455531 0.020008
O O5 0.643048 0.695149 0.250000
O O6 0.659892 0.777850 0.043204
O O7 0.562246 0.654138 0.032741
O O8 0.685120 0.685120 0.000000
O O9 0.706819 0.053878 0.250000
O O10 0.655071 0.099752 0.064543
O O11 0.772338 0.112877 0.021439
O O12 0.665926 0.000000 0.000000
O O13 0.807396 0.142559 0.750000
O O14 0.541861 0.384216 0.250000
O O15 0.558125 0.443322 0.005505
O O16 0.392193 0.872733 0.250000
#
# Coordination Sequence:
#
# PCOD8328038 Si02
#       6
#    12  12  12  12  12  12
#     4   8  15  30  48  60  74 105 145 179 220 276
#     4   9  18  31  48  70  93 119 151 184 222 269
#     4  10  20  32  47  68  91 118 151 184 224 273
#     4   8  15  30  49  66  87 114 144 180 217 257
#     4  10  20  31  44  64  87 110 142 189 239 279
#     4   9  18  32  47  62  83 114 150 186 228 280
#
# _framework density 15.930706000000001
#
# number of rings (size 3 to 8) (size 9 to 14) (size 15 to 20)
#    0.000    3.000    0.000    3.000    0.000    4.667 
#    1.000    6.667    0.000    0.000    0.000    0.000 
#    0.000    0.000    0.000    0.500    0.000    8.000 
#
# Total GULP energy -892527.025466 kJ/mol
# GULP energy per Si atom -12396.208687 kJ/mol
# Density = 1.589445 g / cm^3
# Si number density = 15.930706 Si / 1000 Ang^3
#
#
#
# Elastic Constant Matrix: (Units=GPa)
#
#
# Indices 1 2 3 4 5 6 
#
# 1 63.1489 36.1585 52.1391 0.0000 0.0000 0.0000
# 2 36.1585 63.1489 52.1391 0.0000 0.0000 0.0000
# 3 52.1391 52.1391 101.6822 0.0000 0.0000 0.0000
# 4 0.0000 0.0000 0.0000 24.7577 0.0000 0.0000
# 5 0.0000 0.0000 0.0000 0.0000 24.7577 0.0000
# 6 0.0000 0.0000 0.0000 0.0000 0.0000 13.4952
#
#
#
# Elastic Compliance Matrix: (Units=1/GPa)
#
#
# Indices 1 2 3 4 5 6 
#
# 1 0.029433 -0.007617 -0.011187 0.000000 0.000000 0.000000
# 2 -0.007617 0.029433 -0.011187 0.000000 0.000000 0.000000
# 3 -0.011187 -0.011187 0.021307 0.000000 0.000000 0.000000
# 4 0.000000 0.000000 0.000000 0.040392 0.000000 0.000000
# 5 0.000000 0.000000 0.000000 0.000000 0.040392 0.000000
# 6 0.000000 0.000000 0.000000 0.000000 0.000000 0.074100
#
#
# Mechanical properties :
#
#
# Convention : Reuss Voigt Hill
#
# Bulk Modulus (GPa) = 49.52239 56.53925 53.03082
# Shear Modulus (GPa) = 16.56900 18.43833 17.50367
#
# Velocity S-wave (km/s) = 3.22851 3.40576 3.31832
# Velocity P-wave (km/s) = 6.71202 7.14377 6.93126
#
# Compressibility (1/GPa) = 0.02019289
#
# Stress axis : x y z
#
# Youngs Moduli (GPa) = 33.97514 33.97514 46.93332
#
# Poissons Ratio (x) = 0.25879 0.52503
# Poissons Ratio (y) = 0.25879 0.52503
# Poissons Ratio (z) = 0.38007 0.38007
#
# Static dielectric constant tensor:
#      x y z
#    x 2.915440 0.000000 0.000000 
#    y 0.000000 2.915440 0.000000 
#    z 0.000000 0.000000 3.118900 
# 
# 
# High freq. dielectric constant tensor:
#      x y z
#    x 1.585960 0.000000 0.000000 
#    y 0.000000 1.585960 0.000000 
#    z 0.000000 0.000000 1.616650 
# 
# From -- ./inp_files/1175.got.cif
#   From: 2010.06.25/outbox.cif.g09.slc.cpg/sg190_1_cif.got.tgz:1175.got - 2010.06.28 13:08:06.
