data_PCOD8328069
_publ_section_title
;
Structure prediction by ZEFSAII (Michael W. Deem and Ramdas Pophale) SiO2 
 PCOD8328069
Probable space group: P -6 2 C
;
_chemical_formula_sum "Si O2"
_cell_formula_units_Z 72
_cell_length_a 22.859773
_cell_length_b 22.859773
_cell_length_c 8.794775
_cell_angle_alpha 90.000000
_cell_angle_beta 90.000000
_cell_angle_gamma 120.000000
_cell_volume 3980.147729
_symmetry_space_group_name_H-M "P -6 2 C"
_symmetry_group_IT_number 190
_symmetry_cell_setting 'hexagonal'
loop_
_space_group_symop_operation_xyz
x,y,z
-x+y,-x,1/2-z
-y,x-y,z
x,y,1/2-z
-x+y,-x,z
-y,x-y,1/2-z
x-y,-y,-z
-x,-x+y,-z
y,x,-z
y,x,1/2+z
x-y,-y,1/2+z
-x,-x+y,1/2+z
loop_
_atom_site_type_symbol
_atom_site_label
_atom_site_fract_x
_atom_site_fract_y
_atom_site_fract_z
Si Si1 0.135347 0.066795 0.429215
Si Si2 0.524875 0.292490 0.071561
Si Si3 0.807754 0.066058 0.573123
Si Si4 0.558681 0.180314 0.431056
Si Si5 0.577421 0.651881 0.429564
Si Si6 0.394880 0.191845 0.923977
O O1 0.128719 0.061012 0.250000
O O2 0.074920 0.074920 0.500000
O O3 0.206097 0.128577 0.477457
O O4 0.131032 0.000000 0.500000
O O5 0.531487 0.299045 0.250000
O O6 0.563499 0.368747 0.006439
O O7 0.555446 0.246185 0.014436
O O8 0.447469 0.255395 0.022005
O O9 0.814707 0.052546 0.750000
O O10 0.806586 0.133912 0.548498
O O11 0.742463 0.000000 0.500000
O O12 0.550763 0.170633 0.250000
O O13 0.499345 0.112098 0.507262
O O14 0.575831 0.641689 0.250000
O O15 0.621906 0.621906 0.500000
O O16 0.610840 0.731547 0.474743
O O17 0.418402 0.205148 0.750000
#
# Coordination Sequence:
#
# PCOD8328069 Si02
#       6
#    12  12  12  12  12  12
#     4  11  21  34  51  73  99 127 159 198 244 296
#     4   9  17  30  52  78 105 134 168 205 248 299
#     4  10  20  36  54  74  99 129 165 208 252 298
#     4   9  17  31  51  78 107 136 168 208 253 303
#     4  10  20  35  53  75 103 138 174 214 260 308
#     4   9  20  36  53  74 103 134 170 213 257 302
#
# _framework density 18.089780999999999
#
# number of rings (size 3 to 8) (size 9 to 14) (size 15 to 20)
#    0.000    2.333    0.000    4.000    0.000    4.667 
#    0.000    2.500    0.000    4.000    0.000    0.000 
#    0.000    0.000    0.000    0.000    0.000    0.000 
#
# Total GULP energy -892469.483170 kJ/mol
# GULP energy per Si atom -12395.409488 kJ/mol
# Density = 1.804861 g / cm^3
# Si number density = 18.089781 Si / 1000 Ang^3
#
#
#
# Elastic Constant Matrix: (Units=GPa)
#
#
# Indices 1 2 3 4 5 6 
#
# 1 102.2534 64.3939 40.4259 0.0000 0.0000 0.0000
# 2 64.3939 102.2534 40.4259 0.0000 0.0000 0.0000
# 3 40.4259 40.4259 82.0122 0.0000 0.0000 0.0000
# 4 0.0000 0.0000 0.0000 28.6390 0.0000 0.0000
# 5 0.0000 0.0000 0.0000 0.0000 28.6390 0.0000
# 6 0.0000 0.0000 0.0000 0.0000 0.0000 18.9298
#
#
#
# Elastic Compliance Matrix: (Units=1/GPa)
#
#
# Indices 1 2 3 4 5 6 
#
# 1 0.017150 -0.009263 -0.003888 0.000000 0.000000 0.000000
# 2 -0.009263 0.017150 -0.003888 0.000000 0.000000 0.000000
# 3 -0.003888 -0.003888 0.016026 0.000000 0.000000 0.000000
# 4 0.000000 0.000000 0.000000 0.034917 0.000000 0.000000
# 5 0.000000 0.000000 0.000000 0.000000 0.034917 0.000000
# 6 0.000000 0.000000 0.000000 0.000000 0.000000 0.052827
#
#
# Mechanical properties :
#
#
# Convention : Reuss Voigt Hill
#
# Bulk Modulus (GPa) = 61.54184 64.11228 62.82706
# Shear Modulus (GPa) = 23.53148 24.65978 24.09563
#
# Velocity S-wave (km/s) = 3.61060 3.69614 3.65362
# Velocity P-wave (km/s) = 7.17467 7.33031 7.25291
#
# Compressibility (1/GPa) = 0.01624911
#
# Stress axis : x y z
#
# Youngs Moduli (GPa) = 58.30857 58.30857 62.39888
#
# Poissons Ratio (x) = 0.54013 0.24258
# Poissons Ratio (y) = 0.54013 0.24258
# Poissons Ratio (z) = 0.22668 0.22668
#
# Static dielectric constant tensor:
#      x y z
#    x 3.474700 0.000000 0.000000 
#    y 0.000000 3.474700 0.000000 
#    z 0.000000 0.000000 3.398990 
# 
# 
# High freq. dielectric constant tensor:
#      x y z
#    x 1.696170 0.000000 0.000000 
#    y 0.000000 1.696170 0.000000 
#    z 0.000000 0.000000 1.704430 
# 
# From -- ./inp_files/1204.got.cif
#   From: 2010.06.25/outbox.cif.g09.slc.cpg/sg190_1_cif.got.tgz:1204.got - 2010.06.28 13:08:06.
