data_PCOD8328746
_publ_section_title
;
Structure prediction by ZEFSAII (Michael W. Deem and Ramdas Pophale) SiO2 
 PCOD8328746
Probable space group: P 6/M M M
;
_chemical_formula_sum "Si O2"
_cell_formula_units_Z 132
_cell_length_a 17.555862
_cell_length_b 17.555862
_cell_length_c 28.361314
_cell_angle_alpha 90.000000
_cell_angle_beta 90.000000
_cell_angle_gamma 120.000000
_cell_volume 7570.094423
_symmetry_space_group_name_H-M "P 6/M M M"
_symmetry_group_IT_number 191
_symmetry_cell_setting 'hexagonal'
loop_
_space_group_symop_operation_xyz
x,y,z
x-y,x,z
-y,x-y,z
-x,-y,z
-x+y,-x,z
y,-x+y,z
x-y,-y,-z
-x,-x+y,-z
y,x,-z
-y,-x,-z
-x+y,y,-z
x,x-y,-z
-x,-y,-z
-x+y,-x,-z
y,-x+y,-z
x,y,-z
x-y,x,-z
-y,x-y,-z
-x+y,y,z
x,x-y,z
-y,-x,z
y,x,z
x-y,-y,z
-x,-x+y,z
loop_
_atom_site_type_symbol
_atom_site_label
_atom_site_fract_x
_atom_site_fract_y
_atom_site_fract_z
Si Si1 0.843334 0.331761 0.591265
Si Si2 0.532571 0.897043 0.231051
Si Si3 0.727212 0.627998 0.500000
Si Si4 0.630577 0.732637 0.859741
Si Si5 0.363685 0.467653 0.948001
Si Si6 0.370732 0.100436 0.679918
O O1 0.854567 0.427284 0.589991
O O2 0.740421 0.259580 0.593905
O O3 0.887248 0.318742 0.545132
O O4 0.895177 0.325212 0.636067
O O5 0.426294 0.852587 0.232374
O O6 0.560409 0.874555 0.181647
O O7 0.566873 0.863520 0.274259
O O8 0.574070 0.000000 0.236681
O O9 0.710975 0.710975 0.500000
O O10 0.832249 0.664497 0.500000
O O11 0.676622 0.838311 0.853407
O O12 0.706182 0.706182 0.859543
O O13 0.575777 0.709917 0.908173
O O14 0.428249 0.571752 0.938273
O O15 0.422040 0.422040 0.946037
O O16 0.319906 0.454270 0.000000
O O17 0.330664 0.165332 0.672022
O O18 0.291031 0.000000 0.686068
#
# Coordination Sequence:
#
# PCOD8328746 Si02
#       6
#    24  24  12  24  24  24
#     4  10  20  33  50  73 101 131 161 194 234 281
#     4   9  17  30  49  71  92 115 146 184 227 278
#     4  10  21  35  51  72  97 127 162 200 241 283
#     4  10  19  30  46  68  93 122 158 199 238 275
#     4   8  14  26  45  67  88 111 142 181 226 277
#     4  10  20  33  50  72  97 127 163 202 241 279
#
# _framework density 17.437035000000002
#
# number of rings (size 3 to 8) (size 9 to 14) (size 15 to 20)
#    0.000    2.545    0.000    3.182    0.000    5.091 
#    0.000    0.909    0.000    8.091    0.000    0.000 
#    0.000    8.727    0.000    4.545    0.000    1.091 
#
# Total GULP energy -1636123.483225 kJ/mol
# GULP energy per Si atom -12394.874873 kJ/mol
# Density = 1.739735 g / cm^3
# Si number density = 17.437035 Si / 1000 Ang^3
#
#
#
# Elastic Constant Matrix: (Units=GPa)
#
#
# Indices 1 2 3 4 5 6 
#
# 1 91.5868 58.2238 32.3443 0.0000 0.0000 0.0000
# 2 58.2238 91.5868 32.3443 0.0000 0.0000 0.0000
# 3 32.3443 32.3443 123.1128 0.0000 0.0000 0.0000
# 4 0.0000 0.0000 0.0000 22.1725 0.0000 0.0000
# 5 0.0000 0.0000 0.0000 0.0000 22.1725 0.0000
# 6 0.0000 0.0000 0.0000 0.0000 0.0000 16.6815
#
#
#
# Elastic Compliance Matrix: (Units=1/GPa)
#
#
# Indices 1 2 3 4 5 6 
#
# 1 0.018751 -0.011222 -0.001978 0.000000 0.000000 0.000000
# 2 -0.011222 0.018751 -0.001978 0.000000 0.000000 0.000000
# 3 -0.001978 -0.001978 0.009162 0.000000 0.000000 0.000000
# 4 0.000000 0.000000 0.000000 0.045101 0.000000 0.000000
# 5 0.000000 0.000000 0.000000 0.000000 0.045101 0.000000
# 6 0.000000 0.000000 0.000000 0.000000 0.000000 0.059947
#
#
# Mechanical properties :
#
#
# Convention : Reuss Voigt Hill
#
# Bulk Modulus (GPa) = 61.31911 61.34568 61.33239
# Shear Modulus (GPa) = 21.49560 24.43023 22.96292
#
# Velocity S-wave (km/s) = 3.51487 3.74713 3.63286
# Velocity P-wave (km/s) = 7.19130 7.34703 7.26958
#
# Compressibility (1/GPa) = 0.01630813
#
# Stress axis : x y z
#
# Youngs Moduli (GPa) = 53.32960 53.32960 109.14645
#
# Poissons Ratio (x) = 0.59847 0.21590
# Poissons Ratio (y) = 0.59847 0.21590
# Poissons Ratio (z) = 0.10549 0.10549
#
# Static dielectric constant tensor:
#      x y z
#    x 3.077730 0.000000 0.000000 
#    y 0.000000 3.077730 0.000000 
#    z 0.000000 0.000000 4.240480 
# 
# 
# High freq. dielectric constant tensor:
#      x y z
#    x 1.649390 0.000000 0.000000 
#    y 0.000000 1.649390 0.000000 
#    z 0.000000 0.000000 1.698690 
# 
# From -- ./inp_files/8719.got.cif
#   From: 2010.03.12/outbox.cif.g09.slc.cpg/sg191_5_cif.got.tgz:8719.got - 2010.04.01 12:09:02.
