data_PCOD8328640
_publ_section_title
;
Structure prediction by ZEFSAII (Michael W. Deem and Ramdas Pophale) SiO2 
 PCOD8328640
Probable space group: P 6/M M M
;
_chemical_formula_sum "Si O2"
_cell_formula_units_Z 180
_cell_length_a 20.895467
_cell_length_b 20.895467
_cell_length_c 31.195342
_cell_angle_alpha 90.000000
_cell_angle_beta 90.000000
_cell_angle_gamma 120.000000
_cell_volume 11795.722486
_symmetry_space_group_name_H-M "P 6/M M M"
_symmetry_group_IT_number 191
_symmetry_cell_setting 'hexagonal'
loop_
_space_group_symop_operation_xyz
x,y,z
x-y,x,z
-y,x-y,z
-x,-y,z
-x+y,-x,z
y,-x+y,z
x-y,-y,-z
-x,-x+y,-z
y,x,-z
-y,-x,-z
-x+y,y,-z
x,x-y,-z
-x,-y,-z
-x+y,-x,-z
y,-x+y,-z
x,y,-z
x-y,x,-z
-y,x-y,-z
-x+y,y,z
x,x-y,z
-y,-x,z
y,x,z
x-y,-y,z
-x,-x+y,z
loop_
_atom_site_type_symbol
_atom_site_label
_atom_site_fract_x
_atom_site_fract_y
_atom_site_fract_z
Si Si1 0.579883 0.718314 0.657925
Si Si2 0.918612 0.226693 0.266080
Si Si3 0.616888 0.534694 0.952403
Si Si4 0.085118 0.661323 0.796022
Si Si5 0.333774 0.817332 0.500000
Si Si6 0.818312 0.332421 0.874322
Si Si7 0.525782 0.333790 0.731241
Si Si8 0.468898 0.385527 0.420113
O O1 0.591331 0.795666 0.639772
O O2 0.644387 0.733725 0.691546
O O3 0.502240 0.674374 0.682717
O O4 0.576933 0.667496 0.619041
O O5 0.859907 0.140094 0.265560
O O6 0.908440 0.263989 0.223238
O O7 0.000000 0.236396 0.266753
O O8 0.539791 0.460210 0.952873
O O9 0.601163 0.601163 0.939407
O O10 0.670561 0.525578 0.919259
O O11 0.652795 0.549783 0.000000
O O12 0.131975 0.678160 0.839111
O O13 0.119731 0.630690 0.761044
O O14 0.000000 0.599500 0.804497
O O15 0.258251 0.741750 0.500000
O O16 0.400007 0.800013 0.500000
O O17 0.336853 0.863056 0.458083
O O18 0.818483 0.409242 0.867414
O O19 0.734327 0.265674 0.872632
O O20 0.506911 0.253456 0.749508
O O21 0.613377 0.386624 0.730928
O O22 0.550735 0.449266 0.405473
O O23 0.423124 0.423124 0.437442
#
# Coordination Sequence:
#
# PCOD8328640 Si02
#       8
#    24  24  24  24  12  24  24  24
#     4   9  17  29  44  62  84 110 140 170 197 234
#     4   9  17  30  47  66  88 112 138 168 203 242
#     4   8  15  29  47  63  78 100 133 170 204 240
#     4  10  20  32  45  60  79 106 142 181 213 244
#     4  10  20  33  47  61  78 103 134 168 205 246
#     4  11  21  31  43  60  84 111 138 170 211 257
#     4  10  19  30  43  60  84 111 138 169 208 252
#     4  10  19  30  44  62  83 105 132 168 209 246
#
# _framework density 15.259769
#
# number of rings (size 3 to 8) (size 9 to 14) (size 15 to 20)
#    0.000    2.400    0.000    4.933    0.000    3.200 
#    0.000    1.333    0.000    5.200    0.000    0.000 
#    0.000    0.000    0.000    0.000    0.000    0.000 
#
# Total GULP energy -2231050.754049 kJ/mol
# GULP energy per Si atom -12394.726411 kJ/mol
# Density = 1.522504 g / cm^3
# Si number density = 15.259769 Si / 1000 Ang^3
#
#
#
# Elastic Constant Matrix: (Units=GPa)
#
#
# Indices 1 2 3 4 5 6 
#
# 1 81.2386 41.8961 40.9280 0.0000 0.0000 0.0000
# 2 41.8961 81.2386 40.9280 0.0000 0.0000 0.0000
# 3 40.9280 40.9280 87.6267 0.0000 0.0000 0.0000
# 4 0.0000 0.0000 0.0000 20.1731 0.0000 0.0000
# 5 0.0000 0.0000 0.0000 0.0000 20.1731 0.0000
# 6 0.0000 0.0000 0.0000 0.0000 0.0000 19.6712
#
#
#
# Elastic Compliance Matrix: (Units=1/GPa)
#
#
# Indices 1 2 3 4 5 6 
#
# 1 0.018598 -0.006820 -0.005501 0.000000 0.000000 0.000000
# 2 -0.006820 0.018598 -0.005501 0.000000 0.000000 0.000000
# 3 -0.005501 -0.005501 0.016551 0.000000 0.000000 0.000000
# 4 0.000000 0.000000 0.000000 0.049571 0.000000 0.000000
# 5 0.000000 0.000000 0.000000 0.000000 0.049571 0.000000
# 6 0.000000 0.000000 0.000000 0.000000 0.000000 0.050836
#
#
# Mechanical properties :
#
#
# Convention : Reuss Voigt Hill
#
# Bulk Modulus (GPa) = 55.24129 55.28976 55.26553
# Shear Modulus (GPa) = 20.37461 20.42695 20.40078
#
# Velocity S-wave (km/s) = 3.65798 3.66268 3.66033
# Velocity P-wave (km/s) = 7.35665 7.36193 7.35929
#
# Compressibility (1/GPa) = 0.01810240
#
# Stress axis : x y z
#
# Youngs Moduli (GPa) = 53.76910 53.76910 60.41912
#
# Poissons Ratio (x) = 0.36669 0.33238
# Poissons Ratio (y) = 0.36669 0.33238
# Poissons Ratio (z) = 0.29580 0.29580
#
# Static dielectric constant tensor:
#      x y z
#    x 2.821370 0.000000 0.000000 
#    y 0.000000 2.821370 0.000000 
#    z 0.000000 0.000000 3.001050 
# 
# 
# High freq. dielectric constant tensor:
#      x y z
#    x 1.567240 0.000000 0.000000 
#    y 0.000000 1.567240 0.000000 
#    z 0.000000 0.000000 1.585990 
# 
# From -- ./inp_files/10881.got.cif
#   From: 2010.03.12/outbox.cif.g09.slc.cpg/sg191_6_cif.got.tgz:10881.got - 2010.04.01 12:09:02.
