data_PCOD8328919
_publ_section_title
;
Structure prediction by ZEFSAII (Michael W. Deem and Ramdas Pophale) SiO2 
 PCOD8328919
Probable space group: P 6/M M M
;
_chemical_formula_sum "Si O2"
_cell_formula_units_Z 96
_cell_length_a 22.331025
_cell_length_b 22.331025
_cell_length_c 14.205184
_cell_angle_alpha 90.000000
_cell_angle_beta 90.000000
_cell_angle_gamma 120.000000
_cell_volume 6134.720921
_symmetry_space_group_name_H-M "P 6/M M M"
_symmetry_group_IT_number 191
_symmetry_cell_setting 'hexagonal'
loop_
_space_group_symop_operation_xyz
x,y,z
x-y,x,z
-y,x-y,z
-x,-y,z
-x+y,-x,z
y,-x+y,z
x-y,-y,-z
-x,-x+y,-z
y,x,-z
-y,-x,-z
-x+y,y,-z
x,x-y,-z
-x,-y,-z
-x+y,-x,-z
y,-x+y,-z
x,y,-z
x-y,x,-z
-y,x-y,-z
-x+y,y,z
x,x-y,z
-y,-x,z
y,x,z
x-y,-y,z
-x,-x+y,z
loop_
_atom_site_type_symbol
_atom_site_label
_atom_site_fract_x
_atom_site_fract_y
_atom_site_fract_z
Si Si1 0.407194 0.272170 0.108302
Si Si2 0.134996 0.407136 0.608300
Si Si3 0.389268 0.470596 0.250027
Si Si4 0.209622 0.922753 0.249956
O O1 0.432975 0.216488 0.120071
O O2 0.461672 0.343932 0.157246
O O3 0.333077 0.243078 0.157372
O O4 0.399861 0.286845 0.000000
O O5 0.112971 0.399755 0.500000
O O6 0.216461 0.432921 0.620060
O O7 0.117722 0.461636 0.657198
O O8 0.089977 0.333041 0.657427
O O9 0.452420 0.547581 0.250062
O O10 0.414425 0.414425 0.250005
O O11 0.127231 0.872770 0.249947
O O12 0.223149 0.000000 0.249928
#
# Coordination Sequence:
#
# PCOD8328919 Si02
#       4
#    24  24  24  24
#     4   9  17  30  48  66  84 110 144 181 218 252
#     4   9  17  30  48  66  84 110 144 181 218 252
#     4  10  20  30  42  65  93 118 142 168 208 263
#     4   9  17  28  43  65  90 114 142 176 213 252
#
# _framework density 15.648633
#
# number of rings (size 3 to 8) (size 9 to 14) (size 15 to 20)
#    0.000    2.750    0.000    5.250    0.000    5.000 
#    0.000    2.500    0.000    4.250    0.000    0.000 
#    0.000    0.000    0.000   12.500    0.000    0.000 
#
# Total GULP energy -1190214.129120 kJ/mol
# GULP energy per Si atom -12398.063845 kJ/mol
# Density = 1.561302 g / cm^3
# Si number density = 15.648633 Si / 1000 Ang^3
#
#
#
# Elastic Constant Matrix: (Units=GPa)
#
#
# Indices 1 2 3 4 5 6 
#
# 1 108.2110 58.1674 53.2453 0.0000 0.0000 0.0000
# 2 58.1674 108.2110 53.2453 0.0000 0.0000 0.0000
# 3 53.2453 53.2453 153.8164 0.0000 0.0000 0.0000
# 4 0.0000 0.0000 0.0000 10.8891 0.0000 0.0000
# 5 0.0000 0.0000 0.0000 0.0000 10.8891 0.0000
# 6 0.0000 0.0000 0.0000 0.0000 0.0000 25.0218
#
#
#
# Elastic Compliance Matrix: (Units=1/GPa)
#
#
# Indices 1 2 3 4 5 6 
#
# 1 0.013852 -0.006131 -0.002673 0.000000 0.000000 0.000000
# 2 -0.006131 0.013852 -0.002673 0.000000 0.000000 0.000000
# 3 -0.002673 -0.002673 0.008352 0.000000 0.000000 0.000000
# 4 0.000000 0.000000 0.000000 0.091835 0.000000 0.000000
# 5 0.000000 0.000000 0.000000 0.000000 0.091835 0.000000
# 6 0.000000 0.000000 0.000000 0.000000 0.000000 0.039965
#
#
# Mechanical properties :
#
#
# Convention : Reuss Voigt Hill
#
# Bulk Modulus (GPa) = 76.31921 77.72826 77.02373
# Shear Modulus (GPa) = 17.42096 23.06537 20.24316
#
# Velocity S-wave (km/s) = 3.34017 3.84338 3.60058
# Velocity P-wave (km/s) = 7.98449 8.33512 8.16169
#
# Compressibility (1/GPa) = 0.01310286
#
# Stress axis : x y z
#
# Youngs Moduli (GPa) = 72.19268 72.19268 119.73672
#
# Poissons Ratio (x) = 0.44259 0.32003
# Poissons Ratio (y) = 0.44259 0.32003
# Poissons Ratio (z) = 0.19295 0.19295
#
# Static dielectric constant tensor:
#      x y z
#    x 2.889440 0.000000 0.000000 
#    y 0.000000 2.889440 0.000000 
#    z 0.000000 0.000000 3.190340 
# 
# 
# High freq. dielectric constant tensor:
#      x y z
#    x 1.584850 0.000000 0.000000 
#    y 0.000000 1.584850 0.000000 
#    z 0.000000 0.000000 1.611220 
# 
# From -- ./inp_files/4163.got.cif
#   From: 2010.03.12/outbox.cif.g09.slc.cpg/sg191_3_cif.got.tgz:4163.got - 2010.04.01 12:09:02.
