data_PCOD8328907
_publ_section_title
;
Structure prediction by ZEFSAII (Michael W. Deem and Ramdas Pophale) SiO2 
 PCOD8328907
Probable space group: P 6/M M M
;
_chemical_formula_sum "Si O2"
_cell_formula_units_Z 144
_cell_length_a 21.907362
_cell_length_b 21.907362
_cell_length_c 19.430240
_cell_angle_alpha 90.000000
_cell_angle_beta 90.000000
_cell_angle_gamma 120.000000
_cell_volume 8075.863429
_symmetry_space_group_name_H-M "P 6/M M M"
_symmetry_group_IT_number 191
_symmetry_cell_setting 'hexagonal'
loop_
_space_group_symop_operation_xyz
x,y,z
x-y,x,z
-y,x-y,z
-x,-y,z
-x+y,-x,z
y,-x+y,z
x-y,-y,-z
-x,-x+y,-z
y,x,-z
-y,-x,-z
-x+y,y,-z
x,x-y,-z
-x,-y,-z
-x+y,-x,-z
y,-x+y,-z
x,y,-z
x-y,x,-z
-y,x-y,-z
-x+y,y,z
x,x-y,z
-y,-x,z
y,x,z
x-y,-y,z
-x,-x+y,z
loop_
_atom_site_type_symbol
_atom_site_label
_atom_site_fract_x
_atom_site_fract_y
_atom_site_fract_z
Si Si1 0.920826 0.841651 0.581979
Si Si2 0.615670 0.695881 0.077934
Si Si3 0.295879 0.918318 0.332155
Si Si4 0.807253 0.473394 0.293838
Si Si5 0.079558 0.294906 0.801233
Si Si6 0.318009 0.159005 0.581500
Si Si7 0.666314 0.472199 0.868783
O O1 0.880691 0.880691 0.611401
O O2 0.921808 0.843616 0.500000
O O3 0.881036 0.762072 0.609166
O O4 0.635330 0.635330 0.090957
O O5 0.661633 0.761497 0.127828
O O6 0.533339 0.660076 0.093236
O O7 0.632276 0.724495 0.000000
O O8 0.338101 0.875825 0.329025
O O9 0.257729 0.909156 0.259609
O O10 0.238666 0.884254 0.392280
O O11 0.350090 0.000000 0.349068
O O12 0.736967 0.473934 0.317276
O O13 0.801576 0.400788 0.319091
O O14 0.816424 0.481441 0.212458
O O15 0.132039 0.264078 0.791269
O O16 0.000000 0.229501 0.802072
O O17 0.321708 0.160854 0.500000
O O18 0.737356 0.474711 0.892735
O O19 0.601497 0.398504 0.893225
#
# Coordination Sequence:
#
# PCOD8328907 Si02
#       7
#    12  24  24  24  24  12  24
#     4   9  17  30  49  76 112 153 191 221 252 302
#     4  10  21  35  52  76 105 139 180 227 275 320
#     4  11  21  35  57  85 115 145 182 228 273 323
#     4  10  19  34  56  84 113 143 186 234 278 325
#     4  10  19  34  55  78 106 141 181 223 268 317
#     4  11  22  37  58  83 115 151 185 223 276 337
#     4  10  20  33  51  74 106 143 182 223 264 316
#
# _framework density 17.830911
#
# number of rings (size 3 to 8) (size 9 to 14) (size 15 to 20)
#    0.000    1.833    3.333    1.417    0.000    5.000 
#    0.000    2.500    0.000    1.667    0.000    1.167 
#    0.000    0.000    0.000    4.167    0.000    0.000 
#
# Total GULP energy -1785964.764859 kJ/mol
# GULP energy per Si atom -12402.533089 kJ/mol
# Density = 1.779033 g / cm^3
# Si number density = 17.830911 Si / 1000 Ang^3
#
#
#
# Elastic Constant Matrix: (Units=GPa)
#
#
# Indices 1 2 3 4 5 6 
#
# 1 122.4667 63.6387 27.8821 0.0000 0.0000 0.0000
# 2 63.6387 122.4667 27.8821 0.0000 0.0000 0.0000
# 3 27.8821 27.8821 54.6560 0.0000 0.0000 0.0000
# 4 0.0000 0.0000 0.0000 21.9603 0.0000 0.0000
# 5 0.0000 0.0000 0.0000 0.0000 21.9603 0.0000
# 6 0.0000 0.0000 0.0000 0.0000 0.0000 29.4140
#
#
#
# Elastic Compliance Matrix: (Units=1/GPa)
#
#
# Indices 1 2 3 4 5 6 
#
# 1 0.011671 -0.005328 -0.003236 0.000000 0.000000 0.000000
# 2 -0.005328 0.011671 -0.003236 0.000000 0.000000 0.000000
# 3 -0.003236 -0.003236 0.021598 0.000000 0.000000 0.000000
# 4 0.000000 0.000000 0.000000 0.045537 0.000000 0.000000
# 5 0.000000 0.000000 0.000000 0.000000 0.045537 0.000000
# 6 0.000000 0.000000 0.000000 0.000000 0.000000 0.033997
#
#
# Mechanical properties :
#
#
# Convention : Reuss Voigt Hill
#
# Bulk Modulus (GPa) = 46.85955 59.82170 53.34063
# Shear Modulus (GPa) = 24.91007 26.67937 25.79472
#
# Velocity S-wave (km/s) = 3.74172 3.87233 3.80758
# Velocity P-wave (km/s) = 6.70853 7.32226 7.02210
#
# Compressibility (1/GPa) = 0.02134037
#
# Stress axis : x y z
#
# Youngs Moduli (GPa) = 85.68410 85.68410 46.30151
#
# Poissons Ratio (x) = 0.45652 0.14982
# Poissons Ratio (y) = 0.45652 0.14982
# Poissons Ratio (z) = 0.27725 0.27725
#
# Static dielectric constant tensor:
#      x y z
#    x 3.368030 0.000000 0.000000 
#    y 0.000000 3.368030 0.000000 
#    z 0.000000 0.000000 3.107110 
# 
# 
# High freq. dielectric constant tensor:
#      x y z
#    x 1.691350 0.000000 0.000000 
#    y 0.000000 1.691350 0.000000 
#    z 0.000000 0.000000 1.665960 
# 
# From -- ./inp_files/7662.got.cif
#   From: 2010.03.12/outbox.cif.g09.slc.cpg/sg191_4_cif.got.tgz:7662.got - 2010.04.01 12:09:02.
