data_PCOD8328682
_publ_section_title
;
Structure prediction by ZEFSAII (Michael W. Deem and Ramdas Pophale) SiO2 
 PCOD8328682
Probable space group: P 6/M M M
;
_chemical_formula_sum "Si O2"
_cell_formula_units_Z 168
_cell_length_a 17.851522
_cell_length_b 17.851522
_cell_length_c 35.537001
_cell_angle_alpha 90.000000
_cell_angle_beta 90.000000
_cell_angle_gamma 120.000000
_cell_volume 9807.581034
_symmetry_space_group_name_H-M "P 6/M M M"
_symmetry_group_IT_number 191
_symmetry_cell_setting 'hexagonal'
loop_
_space_group_symop_operation_xyz
x,y,z
x-y,x,z
-y,x-y,z
-x,-y,z
-x+y,-x,z
y,-x+y,z
x-y,-y,-z
-x,-x+y,-z
y,x,-z
-y,-x,-z
-x+y,y,-z
x,x-y,-z
-x,-y,-z
-x+y,-x,-z
y,-x+y,-z
x,y,-z
x-y,x,-z
-y,x-y,-z
-x+y,y,z
x,x-y,z
-y,-x,z
y,x,z
x-y,-y,z
-x,-x+y,z
loop_
_atom_site_type_symbol
_atom_site_label
_atom_site_fract_x
_atom_site_fract_y
_atom_site_fract_z
Si Si1 0.668574 0.505133 0.603075
Si Si2 0.333298 0.837644 0.043052
Si Si3 0.365261 0.898190 0.316718
Si Si4 0.632817 0.732024 0.246041
Si Si5 0.905095 0.643689 0.542335
Si Si6 0.269244 0.367205 0.891905
Si Si7 0.668408 0.159499 0.177551
O O1 0.736675 0.473350 0.594669
O O2 0.572557 0.427444 0.600570
O O3 0.686746 0.547324 0.644505
O O4 0.675262 0.571635 0.571398
O O5 0.425749 0.851498 0.055842
O O6 0.263373 0.736628 0.048487
O O7 0.307184 0.895882 0.067921
O O8 0.336322 0.866639 0.000000
O O9 0.430542 0.861083 0.309047
O O10 0.297037 0.870628 0.283152
O O11 0.420105 0.000000 0.320367
O O12 0.670620 0.835310 0.240617
O O13 0.711680 0.711680 0.248845
O O14 0.572361 0.678402 0.211451
O O15 0.889754 0.605046 0.500000
O O16 0.837927 0.675853 0.552299
O O17 0.000000 0.726749 0.546279
O O18 0.165850 0.331700 0.889069
O O19 0.287381 0.287381 0.886757
O O20 0.320475 0.440247 0.860913
O O21 0.573742 0.147483 0.178952
O O22 0.739257 0.260744 0.180714
#
# Coordination Sequence:
#
# PCOD8328682 Si02
#       7
#    24  24  24  24  24  24  24
#     4  10  19  30  44  64  92 125 159 192 224 258
#     4   9  17  29  46  69  98 131 163 192 223 264
#     4   9  17  29  46  68  92 118 150 188 228 271
#     4  10  20  33  49  69  93 122 156 194 235 276
#     4   9  18  32  49  68  89 114 145 182 225 272
#     4  10  21  35  50  69  93 122 156 195 239 282
#     4  10  20  33  50  73 101 131 159 186 218 261
#
# _framework density 17.129605999999999
#
# number of rings (size 3 to 8) (size 9 to 14) (size 15 to 20)
#    0.000    2.429    0.000    2.571    0.000    4.571 
#    0.000    2.857    0.000    5.857    0.000    1.000 
#    0.000    3.429    0.000    8.143    0.000    3.143 
#
# Total GULP energy -2082937.315949 kJ/mol
# GULP energy per Si atom -12398.436404 kJ/mol
# Density = 1.709062 g / cm^3
# Si number density = 17.129606 Si / 1000 Ang^3
#
#
#
# Elastic Constant Matrix: (Units=GPa)
#
#
# Indices 1 2 3 4 5 6 
#
# 1 80.8730 50.5442 36.9199 0.0000 0.0000 0.0000
# 2 50.5442 80.8730 36.9199 0.0000 0.0000 0.0000
# 3 36.9199 36.9199 95.2511 0.0000 0.0000 0.0000
# 4 0.0000 0.0000 0.0000 21.5692 0.0000 0.0000
# 5 0.0000 0.0000 0.0000 0.0000 21.5692 0.0000
# 6 0.0000 0.0000 0.0000 0.0000 0.0000 15.1644
#
#
#
# Elastic Compliance Matrix: (Units=1/GPa)
#
#
# Indices 1 2 3 4 5 6 
#
# 1 0.021350 -0.011622 -0.003771 0.000000 0.000000 0.000000
# 2 -0.011622 0.021350 -0.003771 0.000000 0.000000 0.000000
# 3 -0.003771 -0.003771 0.013422 0.000000 0.000000 0.000000
# 4 0.000000 0.000000 0.000000 0.046363 0.000000 0.000000
# 5 0.000000 0.000000 0.000000 0.000000 0.046363 0.000000
# 6 0.000000 0.000000 0.000000 0.000000 0.000000 0.065944
#
#
# Mechanical properties :
#
#
# Convention : Reuss Voigt Hill
#
# Bulk Modulus (GPa) = 56.19541 56.19613 56.19577
# Shear Modulus (GPa) = 19.30140 20.50142 19.90141
#
# Velocity S-wave (km/s) = 3.36041 3.46329 3.41224
# Velocity P-wave (km/s) = 6.92341 6.99072 6.95715
#
# Compressibility (1/GPa) = 0.01779505
#
# Stress axis : x y z
#
# Youngs Moduli (GPa) = 46.83851 46.83851 74.50684
#
# Poissons Ratio (x) = 0.54436 0.28094
# Poissons Ratio (y) = 0.54436 0.28094
# Poissons Ratio (z) = 0.17661 0.17661
#
# Static dielectric constant tensor:
#      x y z
#    x 3.068540 0.000000 0.000000 
#    y 0.000000 3.068540 0.000000 
#    z 0.000000 0.000000 3.475450 
# 
# 
# High freq. dielectric constant tensor:
#      x y z
#    x 1.642060 0.000000 0.000000 
#    y 0.000000 1.642060 0.000000 
#    z 0.000000 0.000000 1.680410 
# 
# From -- ./inp_files/10734.got.cif
#   From: 2010.03.12/outbox.cif.g09.slc.cpg/sg191_6_cif.got.tgz:10734.got - 2010.04.01 12:09:02.
