data_PCOD8328524
_publ_section_title
;
Structure prediction by ZEFSAII (Michael W. Deem and Ramdas Pophale) SiO2 
 PCOD8328524
Probable space group: P 6/M M M
;
_chemical_formula_sum "Si O2"
_cell_formula_units_Z 120
_cell_length_a 26.923821
_cell_length_b 26.923821
_cell_length_c 11.938410
_cell_angle_alpha 90.000000
_cell_angle_beta 90.000000
_cell_angle_gamma 120.000000
_cell_volume 7494.635408
_symmetry_space_group_name_H-M "P 6/M M M"
_symmetry_group_IT_number 191
_symmetry_cell_setting 'hexagonal'
loop_
_space_group_symop_operation_xyz
x,y,z
x-y,x,z
-y,x-y,z
-x,-y,z
-x+y,-x,z
y,-x+y,z
x-y,-y,-z
-x,-x+y,-z
y,x,-z
-y,-x,-z
-x+y,y,-z
x,x-y,-z
-x,-y,-z
-x+y,-x,-z
y,-x+y,-z
x,y,-z
x-y,x,-z
-y,x-y,-z
-x+y,y,z
x,x-y,z
-y,-x,z
y,x,z
x-y,-y,z
-x,-x+y,z
loop_
_atom_site_type_symbol
_atom_site_label
_atom_site_fract_x
_atom_site_fract_y
_atom_site_fract_z
Si Si1 0.448776 0.781296 0.764065
Si Si2 0.662950 0.065996 0.000000
Si Si3 0.640837 0.167363 0.000000
Si Si4 0.936061 0.175106 0.870994
Si Si5 0.065697 0.345059 0.775707
Si Si6 0.560167 0.837707 0.630812
O O1 0.394041 0.788081 0.738008
O O2 0.432454 0.716227 0.738120
O O3 0.500544 0.825852 0.685521
O O4 0.469299 0.795217 0.892276
O O5 0.634698 0.105422 0.000000
O O6 0.702821 0.081358 0.892137
O O7 0.612695 0.000000 0.000000
O O8 0.576034 0.152067 0.000000
O O9 0.891038 0.108963 0.843108
O O10 0.923162 0.215228 0.790944
O O11 0.000000 0.186231 0.847957
O O12 0.930787 0.190009 0.000000
O O13 0.104850 0.386354 0.677886
O O14 0.000000 0.322454 0.741897
O O15 0.556035 0.846159 0.500000
O O16 0.570444 0.785222 0.658711
#
# Coordination Sequence:
#
# PCOD8328524 Si02
#       6
#    24  12  12  24  24  24
#     4  10  20  34  52  73  96 122 154 195 243 292
#     4  10  18  30  48  73  99 122 153 193 231 287
#     4  10  19  32  50  73  98 124 150 187 244 295
#     4   9  16  26  42  67  97 127 159 196 238 281
#     4  10  18  31  50  72  98 124 155 195 240 286
#     4  10  21  35  50  70  95 125 163 200 232 276
#
# _framework density 16.011451999999998
#
# number of rings (size 3 to 8) (size 9 to 14) (size 15 to 20)
#    0.000    2.200    3.000    1.100    0.000    1.000 
#    0.000    1.000    0.000    2.000    0.000    2.800 
#    0.000    0.000    0.000    0.000    0.000    0.000 
#
# Total GULP energy -1488065.358357 kJ/mol
# GULP energy per Si atom -12400.544653 kJ/mol
# Density = 1.597501 g / cm^3
# Si number density = 16.011452 Si / 1000 Ang^3
#
#
#
# Elastic Constant Matrix: (Units=GPa)
#
#
# Indices 1 2 3 4 5 6 
#
# 1 102.1781 58.4488 44.6424 0.0000 0.0000 0.0000
# 2 58.4488 102.1781 44.6424 0.0000 0.0000 0.0000
# 3 44.6424 44.6424 85.1505 0.0000 0.0000 0.0000
# 4 0.0000 0.0000 0.0000 19.5369 0.0000 0.0000
# 5 0.0000 0.0000 0.0000 0.0000 19.5369 0.0000
# 6 0.0000 0.0000 0.0000 0.0000 0.0000 21.8646
#
#
#
# Elastic Compliance Matrix: (Units=1/GPa)
#
#
# Indices 1 2 3 4 5 6 
#
# 1 0.015827 -0.007041 -0.004606 0.000000 0.000000 0.000000
# 2 -0.007041 0.015827 -0.004606 0.000000 0.000000 0.000000
# 3 -0.004606 -0.004606 0.016574 0.000000 0.000000 0.000000
# 4 0.000000 0.000000 0.000000 0.051185 0.000000 0.000000
# 5 0.000000 0.000000 0.000000 0.000000 0.051185 0.000000
# 6 0.000000 0.000000 0.000000 0.000000 0.000000 0.045736
#
#
# Mechanical properties :
#
#
# Convention : Reuss Voigt Hill
#
# Bulk Modulus (GPa) = 63.61039 64.99709 64.30374
# Shear Modulus (GPa) = 21.36009 21.63925 21.49967
#
# Velocity S-wave (km/s) = 3.65643 3.68024 3.66836
# Velocity P-wave (km/s) = 7.59212 7.66428 7.62828
#
# Compressibility (1/GPa) = 0.01572070
#
# Stress axis : x y z
#
# Youngs Moduli (GPa) = 63.18317 63.18317 60.33598
#
# Poissons Ratio (x) = 0.44487 0.27793
# Poissons Ratio (y) = 0.44487 0.27793
# Poissons Ratio (z) = 0.29104 0.29104
#
# Static dielectric constant tensor:
#      x y z
#    x 3.001230 0.000000 0.000000 
#    y 0.000000 3.001230 0.000000 
#    z 0.000000 0.000000 2.916230 
# 
# 
# High freq. dielectric constant tensor:
#      x y z
#    x 1.613030 0.000000 0.000000 
#    y 0.000000 1.613030 0.000000 
#    z 0.000000 0.000000 1.600230 
# 
# From -- ./inp_files/3243.got.cif
#   From: 2010.03.12/outbox.cif.g09.slc.cpg/sg191_2_cif.got.tgz:3243.got - 2010.04.01 12:09:02.
