data_PCOD8328504
_publ_section_title
;
Structure prediction by ZEFSAII (Michael W. Deem and Ramdas Pophale) SiO2 
 PCOD8328504
Probable space group: P 6/M M M
;
_chemical_formula_sum "Si O2"
_cell_formula_units_Z 192
_cell_length_a 23.379204
_cell_length_b 23.379204
_cell_length_c 23.504749
_cell_angle_alpha 90.000000
_cell_angle_beta 90.000000
_cell_angle_gamma 120.000000
_cell_volume 11126.169979
_symmetry_space_group_name_H-M "P 6/M M M"
_symmetry_group_IT_number 191
_symmetry_cell_setting 'hexagonal'
loop_
_space_group_symop_operation_xyz
x,y,z
x-y,x,z
-y,x-y,z
-x,-y,z
-x+y,-x,z
y,-x+y,z
x-y,-y,-z
-x,-x+y,-z
y,x,-z
-y,-x,-z
-x+y,y,-z
x,x-y,-z
-x,-y,-z
-x+y,-x,-z
y,-x+y,-z
x,y,-z
x-y,x,-z
-y,x-y,-z
-x+y,y,z
x,x-y,z
-y,-x,z
y,x,z
x-y,-y,z
-x,-x+y,z
loop_
_atom_site_type_symbol
_atom_site_label
_atom_site_fract_x
_atom_site_fract_y
_atom_site_fract_z
Si Si1 0.676048 0.749094 0.264677
Si Si2 0.273596 0.862166 0.435926
Si Si3 0.528117 0.923964 0.848979
Si Si4 0.926807 0.200863 0.383175
Si Si5 0.922378 0.301888 0.937180
Si Si6 0.725689 0.800685 0.859219
Si Si7 0.798807 0.333676 0.636134
Si Si8 0.299848 0.829254 0.246499
O O1 0.684277 0.684277 0.264934
O O2 0.718982 0.798230 0.314931
O O3 0.701441 0.786044 0.205232
O O4 0.601010 0.729298 0.274784
O O5 0.300464 0.882711 0.500000
O O6 0.206349 0.793652 0.434600
O O7 0.259251 0.917257 0.409575
O O8 0.327808 0.855078 0.399029
O O9 0.458406 0.916812 0.863980
O O10 0.552353 0.903500 0.905424
O O11 0.518719 0.872564 0.800115
O O12 0.580943 0.000000 0.830764
O O13 0.871799 0.128202 0.405632
O O14 0.000000 0.215567 0.400582
O O15 0.898329 0.236661 0.899503
O O16 0.000000 0.336349 0.944008
O O17 0.889177 0.284461 0.000000
O O18 0.757636 0.878818 0.870527
O O19 0.780847 0.780847 0.872946
O O20 0.802394 0.401197 0.617730
O O21 0.726578 0.273423 0.620862
O O22 0.811975 0.335261 0.703496
O O23 0.238985 0.761016 0.221023
#
# Coordination Sequence:
#
# PCOD8328504 Si02
#       8
#    24  24  24  24  24  24  24  24
#     4  10  18  29  49  75 100 126 161 204 250 294
#     4   9  18  33  51  71  96 127 164 205 247 289
#     4  10  20  33  49  71  99 129 162 202 249 301
#     4  10  19  32  52  77 103 131 165 204 245 291
#     4   9  18  31  46  67  95 127 162 199 242 291
#     4  10  19  31  49  73 102 132 163 202 247 293
#     4  10  20  33  50  72  99 131 167 208 251 294
#     4  11  19  30  49  71  99 132 166 202 245 297
#
# _framework density 17.256612000000001
#
# number of rings (size 3 to 8) (size 9 to 14) (size 15 to 20)
#    0.000    2.125    2.500    2.000    0.000    1.000 
#    0.000    1.250    0.000    2.375    0.000    0.875 
#    0.000    3.000    0.000    6.250    0.000    0.000 
#
# Total GULP energy -2380125.595217 kJ/mol
# GULP energy per Si atom -12396.487475 kJ/mol
# Density = 1.721733 g / cm^3
# Si number density = 17.256612 Si / 1000 Ang^3
#
#
#
# Elastic Constant Matrix: (Units=GPa)
#
#
# Indices 1 2 3 4 5 6 
#
# 1 92.4132 47.4120 32.5161 0.0000 0.0000 0.0000
# 2 47.4120 92.4132 32.5161 0.0000 0.0000 0.0000
# 3 32.5161 32.5161 98.0848 0.0000 0.0000 0.0000
# 4 0.0000 0.0000 0.0000 13.4106 0.0000 0.0000
# 5 0.0000 0.0000 0.0000 0.0000 13.4106 0.0000
# 6 0.0000 0.0000 0.0000 0.0000 0.0000 22.5006
#
#
#
# Elastic Compliance Matrix: (Units=1/GPa)
#
#
# Indices 1 2 3 4 5 6 
#
# 1 0.015339 -0.006883 -0.002803 0.000000 0.000000 0.000000
# 2 -0.006883 0.015339 -0.002803 0.000000 0.000000 0.000000
# 3 -0.002803 -0.002803 0.012054 0.000000 0.000000 0.000000
# 4 0.000000 0.000000 0.000000 0.074568 0.000000 0.000000
# 5 0.000000 0.000000 0.000000 0.000000 0.074568 0.000000
# 6 0.000000 0.000000 0.000000 0.000000 0.000000 0.044443
#
#
# Mechanical properties :
#
#
# Convention : Reuss Voigt Hill
#
# Bulk Modulus (GPa) = 56.33039 56.42220 56.37629
# Shear Modulus (GPa) = 18.71218 21.22883 19.97050
#
# Velocity S-wave (km/s) = 3.29652 3.51120 3.40555
# Velocity P-wave (km/s) = 6.87045 7.01463 6.94291
#
# Compressibility (1/GPa) = 0.01775241
#
# Stress axis : x y z
#
# Youngs Moduli (GPa) = 65.19514 65.19514 82.96164
#
# Poissons Ratio (x) = 0.44874 0.23255
# Poissons Ratio (y) = 0.44874 0.23255
# Poissons Ratio (z) = 0.18275 0.18275
#
# Static dielectric constant tensor:
#      x y z
#    x 3.131620 0.000000 0.000000 
#    y 0.000000 3.131620 0.000000 
#    z 0.000000 0.000000 3.361580 
# 
# 
# High freq. dielectric constant tensor:
#      x y z
#    x 1.648040 0.000000 0.000000 
#    y 0.000000 1.648040 0.000000 
#    z 0.000000 0.000000 1.667300 
# 
# From -- ./inp_files/9374.got.cif
#   From: 2010.03.12/outbox.cif.g09.slc.cpg/sg191_5_cif.got.tgz:9374.got - 2010.04.01 12:09:02.
