data_PCOD8328507
_publ_section_title
;
Structure prediction by ZEFSAII (Michael W. Deem and Ramdas Pophale) SiO2 
 PCOD8328507
Probable space group: P 6/M M M
;
_chemical_formula_sum "Si O2"
_cell_formula_units_Z 144
_cell_length_a 21.003217
_cell_length_b 21.003217
_cell_length_c 19.803909
_cell_angle_alpha 90.000000
_cell_angle_beta 90.000000
_cell_angle_gamma 120.000000
_cell_volume 7565.771011
_symmetry_space_group_name_H-M "P 6/M M M"
_symmetry_group_IT_number 191
_symmetry_cell_setting 'hexagonal'
loop_
_space_group_symop_operation_xyz
x,y,z
x-y,x,z
-y,x-y,z
-x,-y,z
-x+y,-x,z
y,-x+y,z
x-y,-y,-z
-x,-x+y,-z
y,x,-z
-y,-x,-z
-x+y,y,-z
x,x-y,-z
-x,-y,-z
-x+y,-x,-z
y,-x+y,-z
x,y,-z
x-y,x,-z
-y,x-y,-z
-x+y,y,z
x,x-y,z
-y,-x,z
y,x,z
x-y,-y,z
-x,-x+y,z
loop_
_atom_site_type_symbol
_atom_site_label
_atom_site_fract_x
_atom_site_fract_y
_atom_site_fract_z
Si Si1 0.723074 0.082122 0.573113
Si Si2 0.838699 0.161302 0.072653
Si Si3 0.918689 0.837377 0.292990
Si Si4 0.663886 0.479263 0.811647
Si Si5 0.088550 0.687341 0.717256
Si Si6 0.844451 0.155550 0.220333
Si Si7 0.664628 0.084645 0.075366
Si Si8 0.116307 0.232614 0.574122
O O1 0.727727 0.121905 0.500000
O O2 0.710083 0.118266 0.639871
O O3 0.796739 0.079023 0.585028
O O4 0.655619 0.000000 0.568084
O O5 0.861059 0.138942 0.143497
O O6 0.751721 0.122041 0.074607
O O7 0.861062 0.138939 0.000000
O O8 0.878632 0.878632 0.263359
O O9 0.876903 0.753805 0.272614
O O10 0.917787 0.835574 0.374437
O O11 0.747106 0.494211 0.813383
O O12 0.607788 0.392213 0.807785
O O13 0.648136 0.516649 0.746701
O O14 0.643947 0.510601 0.877476
O O15 0.114750 0.757468 0.766259
O O16 0.000000 0.636642 0.720004
O O17 0.626788 0.000000 0.101562
O O18 0.636155 0.085772 0.000000
O O19 0.098529 0.197057 0.500000
#
# Coordination Sequence:
#
# PCOD8328507 Si02
#       8
#    24  12  12  24  24  12  24  12
#     4   9  17  29  48  79 115 143 174 225 288 350
#     4  10  20  36  59  89 124 155 184 228 290 354
#     4  12  25  38  52  74 112 162 210 254 300 356
#     4  12  25  42  60  83 115 157 198 240 286 347
#     4  11  20  34  59  88 116 148 191 239 294 346
#     4  12  20  35  58  88 115 151 190 242 298 354
#     4  10  20  36  61  91 122 155 190 234 288 343
#     4  10  18  29  49  77 108 146 194 244 292 350
#
# _framework density 19.033090999999999
#
# number of rings (size 3 to 8) (size 9 to 14) (size 15 to 20)
#    0.000    1.333    5.000    1.750    0.000    3.333 
#    0.000    0.833    0.000    2.000    0.000    2.333 
#    0.000    2.000    0.000    0.000    0.000    0.000 
#
# Total GULP energy -1783962.843756 kJ/mol
# GULP energy per Si atom -12388.630859 kJ/mol
# Density = 1.898977 g / cm^3
# Si number density = 19.033091 Si / 1000 Ang^3
#
#
#
# Elastic Constant Matrix: (Units=GPa)
#
#
# Indices 1 2 3 4 5 6 
#
# 1 77.0101 24.7778 25.4146 0.0000 0.0000 0.0000
# 2 24.7778 77.0101 25.4146 0.0000 0.0000 0.0000
# 3 25.4146 25.4146 141.4790 0.0000 0.0000 0.0000
# 4 0.0000 0.0000 0.0000 17.3367 0.0000 0.0000
# 5 0.0000 0.0000 0.0000 0.0000 17.3367 0.0000
# 6 0.0000 0.0000 0.0000 0.0000 0.0000 26.1162
#
#
#
# Elastic Compliance Matrix: (Units=1/GPa)
#
#
# Indices 1 2 3 4 5 6 
#
# 1 0.014969 -0.004176 -0.001939 0.000000 0.000000 0.000000
# 2 -0.004176 0.014969 -0.001939 0.000000 0.000000 0.000000
# 3 -0.001939 -0.001939 0.007765 0.000000 0.000000 0.000000
# 4 0.000000 0.000000 0.000000 0.057681 0.000000 0.000000
# 5 0.000000 0.000000 0.000000 0.000000 0.057681 0.000000
# 6 0.000000 0.000000 0.000000 0.000000 0.000000 0.038290
#
#
# Mechanical properties :
#
#
# Convention : Reuss Voigt Hill
#
# Bulk Modulus (GPa) = 46.30741 49.63481 47.97111
# Shear Modulus (GPa) = 23.29253 26.81738 25.05495
#
# Velocity S-wave (km/s) = 3.50207 3.75772 3.63214
# Velocity P-wave (km/s) = 6.38243 6.70538 6.54589
#
# Compressibility (1/GPa) = 0.02159481
#
# Stress axis : x y z
#
# Youngs Moduli (GPa) = 66.80540 66.80540 128.78782
#
# Poissons Ratio (x) = 0.27900 0.24968
# Poissons Ratio (y) = 0.27900 0.24968
# Poissons Ratio (z) = 0.12952 0.12952
#
# Static dielectric constant tensor:
#      x y z
#    x 3.264220 0.000000 0.000000 
#    y 0.000000 3.264220 0.000000 
#    z 0.000000 0.000000 4.145190 
# 
# 
# High freq. dielectric constant tensor:
#      x y z
#    x 1.709770 0.000000 0.000000 
#    y 0.000000 1.709770 0.000000 
#    z 0.000000 0.000000 1.761730 
# 
# From -- ./inp_files/7705.got.cif
#   From: 2010.03.12/outbox.cif.g09.slc.cpg/sg191_4_cif.got.tgz:7705.got - 2010.04.01 12:09:02.
