data_PCOD8328321
_publ_section_title
;
Structure prediction by ZEFSAII (Michael W. Deem and Ramdas Pophale) SiO2 
 PCOD8328321
Probable space group: P 6/M M M
;
_chemical_formula_sum "Si O2"
_cell_formula_units_Z 132
_cell_length_a 18.202824
_cell_length_b 18.202824
_cell_length_c 27.781626
_cell_angle_alpha 90.000000
_cell_angle_beta 90.000000
_cell_angle_gamma 120.000000
_cell_volume 7971.973239
_symmetry_space_group_name_H-M "P 6/M M M"
_symmetry_group_IT_number 191
_symmetry_cell_setting 'hexagonal'
loop_
_space_group_symop_operation_xyz
x,y,z
x-y,x,z
-y,x-y,z
-x,-y,z
-x+y,-x,z
y,-x+y,z
x-y,-y,-z
-x,-x+y,-z
y,x,-z
-y,-x,-z
-x+y,y,-z
x,x-y,-z
-x,-y,-z
-x+y,-x,-z
y,-x+y,-z
x,y,-z
x-y,x,-z
-y,x-y,-z
-x+y,y,z
x,x-y,z
-y,-x,z
y,x,z
x-y,-y,z
-x,-x+y,z
loop_
_atom_site_type_symbol
_atom_site_label
_atom_site_fract_x
_atom_site_fract_y
_atom_site_fract_z
Si Si1 0.739187 0.643592 0.055352
Si Si2 0.668827 0.500586 0.500000
Si Si3 0.357096 0.261617 0.788011
Si Si4 0.743022 0.095491 0.678164
Si Si5 0.631667 0.531895 0.598977
Si Si6 0.505033 0.668254 0.133479
O O1 0.838344 0.676687 0.067524
O O2 0.718905 0.718905 0.067025
O O3 0.678932 0.560987 0.086484
O O4 0.719174 0.615400 0.000000
O O5 0.572043 0.427958 0.500000
O O6 0.731185 0.462369 0.500000
O O7 0.683873 0.554869 0.548687
O O8 0.324438 0.162219 0.799210
O O9 0.281607 0.281607 0.800284
O O10 0.385035 0.284148 0.732581
O O11 0.439720 0.321331 0.819237
O O12 0.844205 0.155796 0.671804
O O13 0.695881 0.129961 0.643681
O O14 0.719642 0.000000 0.664666
O O15 0.569907 0.430094 0.604769
O O16 0.575856 0.575856 0.598800
O O17 0.474128 0.737064 0.133331
O O18 0.424939 0.575062 0.133266
#
# Coordination Sequence:
#
# PCOD8328321 Si02
#       6
#    24  12  24  24  24  24
#     4   9  18  32  49  69  93 121 152 186 225 267
#     4  10  18  27  39  55  78 107 139 173 209 250
#     4   9  18  31  47  67  90 116 145 179 219 261
#     4   9  17  30  47  66  88 114 145 179 216 259
#     4   9  17  28  42  60  82 109 140 175 215 256
#     4  10  20  33  48  67  92 121 152 185 222 262
#
# _framework density 16.558008000000001
#
# number of rings (size 3 to 8) (size 9 to 14) (size 15 to 20)
#    0.000    2.727    0.000    1.636    0.000    3.636 
#    0.000    2.727    0.000    2.000    0.000    3.818 
#    0.000    4.364    0.000    0.364    0.000   18.909 
#
# Total GULP energy -1636119.164356 kJ/mol
# GULP energy per Si atom -12394.842154 kJ/mol
# Density = 1.652032 g / cm^3
# Si number density = 16.558008 Si / 1000 Ang^3
#
#
#
# Elastic Constant Matrix: (Units=GPa)
#
#
# Indices 1 2 3 4 5 6 
#
# 1 93.6779 67.5606 51.0450 0.0000 0.0000 0.0000
# 2 67.5606 93.6779 51.0450 0.0000 0.0000 0.0000
# 3 51.0450 51.0450 102.3788 0.0000 0.0000 0.0000
# 4 0.0000 0.0000 0.0000 18.9576 0.0000 0.0000
# 5 0.0000 0.0000 0.0000 0.0000 18.9576 0.0000
# 6 0.0000 0.0000 0.0000 0.0000 0.0000 13.0587
#
#
#
# Elastic Compliance Matrix: (Units=1/GPa)
#
#
# Indices 1 2 3 4 5 6 
#
# 1 0.023676 -0.014613 -0.004519 0.000000 0.000000 0.000000
# 2 -0.014613 0.023676 -0.004519 0.000000 0.000000 0.000000
# 3 -0.004519 -0.004519 0.014274 0.000000 0.000000 0.000000
# 4 0.000000 0.000000 0.000000 0.052749 0.000000 0.000000
# 5 0.000000 0.000000 0.000000 0.000000 0.052749 0.000000
# 6 0.000000 0.000000 0.000000 0.000000 0.000000 0.076577
#
#
# Mechanical properties :
#
#
# Convention : Reuss Voigt Hill
#
# Bulk Modulus (GPa) = 69.80898 69.89285 69.85092
# Shear Modulus (GPa) = 16.90461 18.20037 17.55249
#
# Velocity S-wave (km/s) = 3.19867 3.31900 3.25939
# Velocity P-wave (km/s) = 7.47621 7.54919 7.51279
#
# Compressibility (1/GPa) = 0.01432480
#
# Stress axis : x y z
#
# Youngs Moduli (GPa) = 42.23700 42.23700 70.05908
#
# Poissons Ratio (x) = 0.61720 0.31658
# Poissons Ratio (y) = 0.61720 0.31658
# Poissons Ratio (z) = 0.19086 0.19086
#
# Static dielectric constant tensor:
#      x y z
#    x 3.098380 0.000000 0.000000 
#    y 0.000000 3.098380 0.000000 
#    z 0.000000 0.000000 3.399980 
# 
# 
# High freq. dielectric constant tensor:
#      x y z
#    x 1.620850 0.000000 0.000000 
#    y 0.000000 1.620850 0.000000 
#    z 0.000000 0.000000 1.656840 
# 
# From -- ./inp_files/9706.got.cif
#   From: 2010.03.12/outbox.cif.g09.slc.cpg/sg191_5_cif.got.tgz:9706.got - 2010.04.01 12:09:02.
