data_PCOD8328362
_publ_section_title
;
Structure prediction by ZEFSAII (Michael W. Deem and Ramdas Pophale) SiO2 
 PCOD8328362
Probable space group: P 6/M M M
;
_chemical_formula_sum "Si O2"
_cell_formula_units_Z 168
_cell_length_a 22.386736
_cell_length_b 22.386736
_cell_length_c 24.596172
_cell_angle_alpha 90.000000
_cell_angle_beta 90.000000
_cell_angle_gamma 120.000000
_cell_volume 10675.290663
_symmetry_space_group_name_H-M "P 6/M M M"
_symmetry_group_IT_number 191
_symmetry_cell_setting 'hexagonal'
loop_
_space_group_symop_operation_xyz
x,y,z
x-y,x,z
-y,x-y,z
-x,-y,z
-x+y,-x,z
y,-x+y,z
x-y,-y,-z
-x,-x+y,-z
y,x,-z
-y,-x,-z
-x+y,y,-z
x,x-y,-z
-x,-y,-z
-x+y,-x,-z
y,-x+y,-z
x,y,-z
x-y,x,-z
-y,x-y,-z
-x+y,y,z
x,x-y,z
-y,-x,z
y,x,z
x-y,-y,z
-x,-x+y,z
loop_
_atom_site_type_symbol
_atom_site_label
_atom_site_fract_x
_atom_site_fract_y
_atom_site_fract_z
Si Si1 0.920406 0.583830 0.134810
Si Si2 0.803502 0.333220 0.064391
Si Si3 0.333411 0.804493 0.561561
Si Si4 0.468399 0.077514 0.248427
Si Si5 0.923590 0.713228 0.821494
Si Si6 0.209848 0.922997 0.303730
Si Si7 0.564910 0.713988 0.659738
O O1 0.872117 0.535823 0.087076
O O2 0.895679 0.541173 0.190560
O O3 0.911203 0.650425 0.139938
O O4 0.000000 0.607066 0.121635
O O5 0.799189 0.399595 0.084151
O O6 0.735282 0.264719 0.085385
O O7 0.808530 0.332344 0.000000
O O8 0.335865 0.830380 0.500000
O O9 0.405509 0.811017 0.578495
O O10 0.275193 0.724808 0.567625
O O11 0.317928 0.852860 0.600616
O O12 0.539026 0.078052 0.247780
O O13 0.472637 0.128448 0.295287
O O14 0.404968 0.000000 0.259220
O O15 0.868449 0.736897 0.836102
O O16 0.916486 0.688523 0.758868
O O17 0.000000 0.778384 0.831285
O O18 0.128692 0.871309 0.314945
O O19 0.256489 0.903447 0.341154
O O20 0.226591 0.000000 0.318016
O O21 0.549182 0.774591 0.674626
#
# Coordination Sequence:
#
# PCOD8328362 Si02
#       7
#    24  24  24  24  24  24  24
#     4  10  19  31  48  70  93 117 148 186 230 277
#     4  10  21  36  52  67  86 117 156 195 234 279
#     4   9  17  29  44  61  83 114 153 194 233 272
#     4  10  19  30  44  62  86 115 144 176 218 267
#     4   9  16  27  45  68  93 119 147 180 217 262
#     4   9  16  27  44  66  90 115 144 176 213 258
#     4  10  18  27  43  65  87 113 146 184 224 266
#
# _framework density 15.737277000000001
#
# number of rings (size 3 to 8) (size 9 to 14) (size 15 to 20)
#    0.000    2.429    1.429    2.000    0.000    2.857 
#    0.000    0.714    0.000    2.286    0.000    7.000 
#    0.000    0.000    0.000    0.000    0.000    0.000 
#
# Total GULP energy -2083128.968727 kJ/mol
# GULP energy per Si atom -12399.577195 kJ/mol
# Density = 1.570146 g / cm^3
# Si number density = 15.737277 Si / 1000 Ang^3
#
#
#
# Elastic Constant Matrix: (Units=GPa)
#
#
# Indices 1 2 3 4 5 6 
#
# 1 94.8396 50.8206 33.6274 0.0000 0.0000 0.0000
# 2 50.8206 94.8396 33.6274 0.0000 0.0000 0.0000
# 3 33.6274 33.6274 42.6704 0.0000 0.0000 0.0000
# 4 0.0000 0.0000 0.0000 21.7165 0.0000 0.0000
# 5 0.0000 0.0000 0.0000 0.0000 21.7165 0.0000
# 6 0.0000 0.0000 0.0000 0.0000 0.0000 22.0095
#
#
#
# Elastic Compliance Matrix: (Units=1/GPa)
#
#
# Indices 1 2 3 4 5 6 
#
# 1 0.016755 -0.005963 -0.008505 0.000000 0.000000 0.000000
# 2 -0.005963 0.016755 -0.008505 0.000000 0.000000 0.000000
# 3 -0.008505 -0.008505 0.036841 0.000000 0.000000 0.000000
# 4 0.000000 0.000000 0.000000 0.046048 0.000000 0.000000
# 5 0.000000 0.000000 0.000000 0.000000 0.046048 0.000000
# 6 0.000000 0.000000 0.000000 0.000000 0.000000 0.045435
#
#
# Mechanical properties :
#
#
# Convention : Reuss Voigt Hill
#
# Bulk Modulus (GPa) = 40.97542 52.05558 46.51550
# Shear Modulus (GPa) = 19.08677 20.70681 19.89679
#
# Velocity S-wave (km/s) = 3.48636 3.63130 3.55957
# Velocity P-wave (km/s) = 6.50384 7.12261 6.82025
#
# Compressibility (1/GPa) = 0.02440487
#
# Stress axis : x y z
#
# Youngs Moduli (GPa) = 59.68417 59.68417 27.14389
#
# Poissons Ratio (x) = 0.35587 0.23086
# Poissons Ratio (y) = 0.35587 0.23086
# Poissons Ratio (z) = 0.50762 0.50762
#
# Static dielectric constant tensor:
#      x y z
#    x 3.030080 0.000000 0.000000 
#    y 0.000000 3.030080 0.000000 
#    z 0.000000 0.000000 2.841800 
# 
# 
# High freq. dielectric constant tensor:
#      x y z
#    x 1.601080 0.000000 0.000000 
#    y 0.000000 1.601080 0.000000 
#    z 0.000000 0.000000 1.580690 
# 
# From -- ./inp_files/8000.got.cif
#   From: 2010.03.12/outbox.cif.g09.slc.cpg/sg191_4_cif.got.tgz:8000.got - 2010.04.01 12:09:02.
