data_PCOD8328793
_publ_section_title
;
Structure prediction by ZEFSAII (Michael W. Deem and Ramdas Pophale) SiO2 
 PCOD8328793
Probable space group: P 6/M M M
;
_chemical_formula_sum "Si O2"
_cell_formula_units_Z 84
_cell_length_a 21.591096
_cell_length_b 21.591096
_cell_length_c 12.781070
_cell_angle_alpha 90.000000
_cell_angle_beta 90.000000
_cell_angle_gamma 120.000000
_cell_volume 5159.970538
_symmetry_space_group_name_H-M "P 6/M M M"
_symmetry_group_IT_number 191
_symmetry_cell_setting 'hexagonal'
loop_
_space_group_symop_operation_xyz
x,y,z
x-y,x,z
-y,x-y,z
-x,-y,z
-x+y,-x,z
y,-x+y,z
x-y,-y,-z
-x,-x+y,-z
y,x,-z
-y,-x,-z
-x+y,y,-z
x,x-y,-z
-x,-y,-z
-x+y,-x,-z
y,-x+y,-z
x,y,-z
x-y,x,-z
-y,x-y,-z
-x+y,y,z
x,x-y,z
-y,-x,z
y,x,z
x-y,-y,z
-x,-x+y,z
loop_
_atom_site_type_symbol
_atom_site_label
_atom_site_fract_x
_atom_site_fract_y
_atom_site_fract_z
Si Si1 0.077860 0.291559 0.123915
Si Si2 0.152282 0.450807 0.885606
Si Si3 0.476484 0.664924 0.677427
Si Si4 0.919435 0.532900 0.500000
O O1 0.138287 0.276574 0.173774
O O2 0.093226 0.371121 0.150062
O O3 0.000000 0.234938 0.170254
O O4 0.078636 0.283770 0.000000
O O5 0.226115 0.452229 0.897516
O O6 0.158947 0.506182 0.796420
O O7 0.133209 0.470823 0.000000
O O8 0.484861 0.742431 0.660225
O O9 0.395162 0.604839 0.652025
O O10 0.532087 0.657288 0.601853
O O11 0.927197 0.463599 0.500000
O O12 0.000000 0.602341 0.500000
#
# Coordination Sequence:
#
# PCOD8328793 Si02
#       4
#    24  24  24  12
#     4   8  13  22  37  56  78 106 141 179 217 258
#     4   8  15  27  41  60  87 116 144 174 210 255
#     4  10  19  31  48  68  90 115 145 182 223 270
#     4   9  19  34  48  62  82 111 146 182 220 260
#
# _framework density 16.279161999999999
#
# number of rings (size 3 to 8) (size 9 to 14) (size 15 to 20)
#    0.000    3.286    0.000    2.429    0.000    1.714 
#    0.000    1.429    0.000    2.000    0.000   10.000 
#    0.000    0.000    0.000    0.000    0.000    0.000 
#
# Total GULP energy -1040657.841499 kJ/mol
# GULP energy per Si atom -12388.783827 kJ/mol
# Density = 1.624211 g / cm^3
# Si number density = 16.279162 Si / 1000 Ang^3
#
#
#
# Elastic Constant Matrix: (Units=GPa)
#
#
# Indices 1 2 3 4 5 6 
#
# 1 73.2131 36.3217 33.8962 0.0000 0.0000 0.0000
# 2 36.3217 73.2131 33.8962 0.0000 0.0000 0.0000
# 3 33.8962 33.8962 88.1593 0.0000 0.0000 0.0000
# 4 0.0000 0.0000 0.0000 13.8273 0.0000 0.0000
# 5 0.0000 0.0000 0.0000 0.0000 13.8273 0.0000
# 6 0.0000 0.0000 0.0000 0.0000 0.0000 18.4457
#
#
#
# Elastic Compliance Matrix: (Units=1/GPa)
#
#
# Indices 1 2 3 4 5 6 
#
# 1 0.019543 -0.007563 -0.004606 0.000000 0.000000 0.000000
# 2 -0.007563 0.019543 -0.004606 0.000000 0.000000 0.000000
# 3 -0.004606 -0.004606 0.014885 0.000000 0.000000 0.000000
# 4 0.000000 0.000000 0.000000 0.072321 0.000000 0.000000
# 5 0.000000 0.000000 0.000000 0.000000 0.072321 0.000000
# 6 0.000000 0.000000 0.000000 0.000000 0.000000 0.054213
#
#
# Mechanical properties :
#
#
# Convention : Reuss Voigt Hill
#
# Bulk Modulus (GPa) = 48.96968 49.20151 49.08559
# Shear Modulus (GPa) = 17.05404 17.91814 17.48609
#
# Velocity S-wave (km/s) = 3.24018 3.32125 3.28096
# Velocity P-wave (km/s) = 6.64416 6.70797 6.67614
#
# Compressibility (1/GPa) = 0.02042080
#
# Stress axis : x y z
#
# Youngs Moduli (GPa) = 51.16791 51.16791 67.18057
#
# Poissons Ratio (x) = 0.38699 0.30946
# Poissons Ratio (y) = 0.38699 0.30946
# Poissons Ratio (z) = 0.23570 0.23570
#
# Static dielectric constant tensor:
#      x y z
#    x 3.133860 0.000000 0.000000 
#    y 0.000000 3.133860 0.000000 
#    z 0.000000 0.000000 3.497950 
# 
# 
# High freq. dielectric constant tensor:
#      x y z
#    x 1.606500 0.000000 0.000000 
#    y 0.000000 1.606500 0.000000 
#    z 0.000000 0.000000 1.604730 
# 
# From -- ./inp_files/2638.got.cif
#   From: 2010.03.12/outbox.cif.g09.slc.cpg/sg191_2_cif.got.tgz:2638.got - 2010.04.01 12:09:02.
