data_PCOD8328841
_publ_section_title
;
Structure prediction by ZEFSAII (Michael W. Deem and Ramdas Pophale) SiO2 
 PCOD8328841
Probable space group: P 6/M M M
;
_chemical_formula_sum "Si O2"
_cell_formula_units_Z 144
_cell_length_a 21.316213
_cell_length_b 21.316213
_cell_length_c 21.660518
_cell_angle_alpha 90.000000
_cell_angle_beta 90.000000
_cell_angle_gamma 120.000000
_cell_volume 8523.531539
_symmetry_space_group_name_H-M "P 6/M M M"
_symmetry_group_IT_number 191
_symmetry_cell_setting 'hexagonal'
loop_
_space_group_symop_operation_xyz
x,y,z
x-y,x,z
-y,x-y,z
-x,-y,z
-x+y,-x,z
y,-x+y,z
x-y,-y,-z
-x,-x+y,-z
y,x,-z
-y,-x,-z
-x+y,y,-z
x,x-y,-z
-x,-y,-z
-x+y,-x,-z
y,-x+y,-z
x,y,-z
x-y,x,-z
-y,x-y,-z
-x+y,y,z
x,x-y,z
-y,-x,z
y,x,z
x-y,-y,z
-x,-x+y,z
loop_
_atom_site_type_symbol
_atom_site_label
_atom_site_fract_x
_atom_site_fract_y
_atom_site_fract_z
Si Si1 0.916390 0.458195 0.572915
Si Si2 0.464361 0.304235 0.363597
Si Si3 0.427429 0.084035 0.868750
Si Si4 0.085820 0.612962 0.000000
Si Si5 0.704423 0.783521 0.807791
Si Si6 0.524815 0.190645 0.770443
Si Si7 0.303555 0.221639 0.334650
O O1 0.918736 0.459368 0.500000
O O2 0.871649 0.374499 0.593439
O O3 0.000000 0.500000 0.598511
O O4 0.486730 0.243365 0.381304
O O5 0.485254 0.329115 0.293485
O O6 0.377957 0.269475 0.371705
O O7 0.451013 0.112795 0.938504
O O8 0.361775 0.097024 0.852470
O O9 0.493596 0.129402 0.822802
O O10 0.404784 0.000000 0.861817
O O11 0.118147 0.559074 0.000000
O O12 0.000000 0.567896 0.000000
O O13 0.733779 0.866890 0.822669
O O14 0.771624 0.771624 0.820870
O O15 0.677045 0.763171 0.737622
O O16 0.609826 0.219652 0.762697
O O17 0.513005 0.256503 0.790357
O O18 0.272125 0.136063 0.348924
O O19 0.244463 0.244463 0.354650
#
# Coordination Sequence:
#
# PCOD8328841 Si02
#       7
#    12  24  24  12  24  24  24
#     4  11  24  40  56  78 108 139 175 221 267 308
#     4  10  20  35  54  76 101 133 172 214 256 308
#     4  10  19  31  50  72  94 123 160 203 253 301
#     4   9  18  32  45  64  97 128 156 194 242 301
#     4   9  16  27  44  68  96 123 155 197 244 291
#     4  11  21  34  50  71  97 126 159 206 251 298
#     4   9  16  28  48  74 103 131 163 206 253 298
#
# _framework density 16.894404999999999
#
# number of rings (size 3 to 8) (size 9 to 14) (size 15 to 20)
#    0.000    2.167    2.500    1.667    0.000    2.000 
#    0.500    1.667    0.000    0.333    0.000    3.500 
#    0.000    0.000    0.000    0.000    0.000    9.833 
#
# Total GULP energy -1785190.513650 kJ/mol
# GULP energy per Si atom -12397.156345 kJ/mol
# Density = 1.685595 g / cm^3
# Si number density = 16.894405 Si / 1000 Ang^3
#
#
#
# Elastic Constant Matrix: (Units=GPa)
#
#
# Indices 1 2 3 4 5 6 
#
# 1 103.6365 57.2551 34.0795 0.0000 0.0000 0.0000
# 2 57.2551 103.6365 34.0795 0.0000 0.0000 0.0000
# 3 34.0795 34.0795 51.2569 0.0000 0.0000 0.0000
# 4 0.0000 0.0000 0.0000 18.8621 0.0000 0.0000
# 5 0.0000 0.0000 0.0000 0.0000 18.8621 0.0000
# 6 0.0000 0.0000 0.0000 0.0000 0.0000 23.1907
#
#
#
# Elastic Compliance Matrix: (Units=1/GPa)
#
#
# Indices 1 2 3 4 5 6 
#
# 1 0.015106 -0.006454 -0.005753 0.000000 0.000000 0.000000
# 2 -0.006454 0.015106 -0.005753 0.000000 0.000000 0.000000
# 3 -0.005753 -0.005753 0.027159 0.000000 0.000000 0.000000
# 4 0.000000 0.000000 0.000000 0.053016 0.000000 0.000000
# 5 0.000000 0.000000 0.000000 0.000000 0.053016 0.000000
# 6 0.000000 0.000000 0.000000 0.000000 0.000000 0.043121
#
#
# Mechanical properties :
#
#
# Convention : Reuss Voigt Hill
#
# Bulk Modulus (GPa) = 46.61346 56.59535 51.60441
# Shear Modulus (GPa) = 20.03237 21.05735 20.54486
#
# Velocity S-wave (km/s) = 3.44719 3.53428 3.49101
# Velocity P-wave (km/s) = 6.59509 7.08711 6.84552
#
# Compressibility (1/GPa) = 0.02145303
#
# Stress axis : x y z
#
# Youngs Moduli (GPa) = 66.19705 66.19705 36.81969
#
# Poissons Ratio (x) = 0.42723 0.21182
# Poissons Ratio (y) = 0.42723 0.21182
# Poissons Ratio (z) = 0.38082 0.38082
#
# Static dielectric constant tensor:
#      x y z
#    x 3.200820 0.000000 0.000000 
#    y 0.000000 3.200820 0.000000 
#    z 0.000000 0.000000 3.022360 
# 
# 
# High freq. dielectric constant tensor:
#      x y z
#    x 1.646900 0.000000 0.000000 
#    y 0.000000 1.646900 0.000000 
#    z 0.000000 0.000000 1.627270 
# 
# From -- ./inp_files/7692.got.cif
#   From: 2010.03.12/outbox.cif.g09.slc.cpg/sg191_4_cif.got.tgz:7692.got - 2010.04.01 12:09:02.
