data_PCOD8328386
_publ_section_title
;
Structure prediction by ZEFSAII (Michael W. Deem and Ramdas Pophale) SiO2 
 PCOD8328386
Probable space group: P 6/M M M
;
_chemical_formula_sum "Si O2"
_cell_formula_units_Z 144
_cell_length_a 22.359117
_cell_length_b 22.359117
_cell_length_c 20.645240
_cell_angle_alpha 90.000000
_cell_angle_beta 90.000000
_cell_angle_gamma 120.000000
_cell_volume 8938.401623
_symmetry_space_group_name_H-M "P 6/M M M"
_symmetry_group_IT_number 191
_symmetry_cell_setting 'hexagonal'
loop_
_space_group_symop_operation_xyz
x,y,z
x-y,x,z
-y,x-y,z
-x,-y,z
-x+y,-x,z
y,-x+y,z
x-y,-y,-z
-x,-x+y,-z
y,x,-z
-y,-x,-z
-x+y,y,-z
x,x-y,-z
-x,-y,-z
-x+y,-x,-z
y,-x+y,-z
x,y,-z
x-y,x,-z
-y,x-y,-z
-x+y,y,z
x,x-y,z
-y,-x,z
y,x,z
x-y,-y,z
-x,-x+y,z
loop_
_atom_site_type_symbol
_atom_site_label
_atom_site_fract_x
_atom_site_fract_y
_atom_site_fract_z
Si Si1 0.808631 0.474491 0.688960
Si Si2 0.210093 0.286650 0.621734
Si Si3 0.436458 0.288875 0.809371
Si Si4 0.076656 0.287207 0.226096
Si Si5 0.666647 0.472437 0.073151
Si Si6 0.854246 0.566625 0.428260
O O1 0.734375 0.468750 0.689580
O O2 0.796498 0.398249 0.691975
O O3 0.854986 0.517828 0.750275
O O4 0.851632 0.512024 0.623981
O O5 0.133203 0.266405 0.597378
O O6 0.224152 0.224152 0.604520
O O7 0.216170 0.301415 0.697793
O O8 0.269349 0.355685 0.587939
O O9 0.435895 0.217948 0.802586
O O10 0.357216 0.270822 0.806585
O O11 0.468174 0.325730 0.877929
O O12 0.133704 0.267408 0.201557
O O13 0.000000 0.225069 0.208215
O O14 0.727853 0.455705 0.083611
O O15 0.596708 0.403293 0.089502
O O16 0.666823 0.497923 0.000000
O O17 0.867453 0.546304 0.500000
O O18 0.782634 0.565268 0.425273
#
# Coordination Sequence:
#
# PCOD8328386 Si02
#       6
#    24  24  24  24  24  24
#     4  10  18  28  42  61  84 111 146 189 234 274
#     4   9  16  28  47  69  90 112 141 176 213 254
#     4   9  16  27  43  63  87 116 151 187 220 257
#     4   9  16  28  48  71  92 114 143 179 215 253
#     4   9  16  25  39  61  90 122 155 192 234 275
#     4   9  17  29  43  59  82 113 147 182 221 263
#
# _framework density 16.110261999999999
#
# number of rings (size 3 to 8) (size 9 to 14) (size 15 to 20)
#    0.000    2.833    1.667    0.833    0.000    1.333 
#    0.000    1.667    0.000    5.333    0.000    4.667 
#    0.000    0.000    0.000    4.167    0.000    4.333 
#
# Total GULP energy -1784828.120363 kJ/mol
# GULP energy per Si atom -12394.639725 kJ/mol
# Density = 1.607359 g / cm^3
# Si number density = 16.110262 Si / 1000 Ang^3
#
#
#
# Elastic Constant Matrix: (Units=GPa)
#
#
# Indices 1 2 3 4 5 6 
#
# 1 76.8105 37.1976 36.2873 0.0000 0.0000 0.0000
# 2 37.1976 76.8105 36.2873 0.0000 0.0000 0.0000
# 3 36.2873 36.2873 83.9349 0.0000 0.0000 0.0000
# 4 0.0000 0.0000 0.0000 14.4221 0.0000 0.0000
# 5 0.0000 0.0000 0.0000 0.0000 14.4221 0.0000
# 6 0.0000 0.0000 0.0000 0.0000 0.0000 19.8065
#
#
#
# Elastic Compliance Matrix: (Units=1/GPa)
#
#
# Indices 1 2 3 4 5 6 
#
# 1 0.018673 -0.006571 -0.005232 0.000000 0.000000 0.000000
# 2 -0.006571 0.018673 -0.005232 0.000000 0.000000 0.000000
# 3 -0.005232 -0.005232 0.016438 0.000000 0.000000 0.000000
# 4 0.000000 0.000000 0.000000 0.069338 0.000000 0.000000
# 5 0.000000 0.000000 0.000000 0.000000 0.069338 0.000000
# 6 0.000000 0.000000 0.000000 0.000000 0.000000 0.050489
#
#
# Mechanical properties :
#
#
# Convention : Reuss Voigt Hill
#
# Bulk Modulus (GPa) = 50.72615 50.78891 50.75753
# Shear Modulus (GPa) = 17.63107 18.24904 17.94006
#
# Velocity S-wave (km/s) = 3.31176 3.36930 3.34065
# Velocity P-wave (km/s) = 6.79551 6.83597 6.81577
#
# Compressibility (1/GPa) = 0.01971370
#
# Stress axis : x y z
#
# Youngs Moduli (GPa) = 53.55313 53.55313 60.83542
#
# Poissons Ratio (x) = 0.35191 0.31829
# Poissons Ratio (y) = 0.35191 0.31829
# Poissons Ratio (z) = 0.28019 0.28019
#
# Static dielectric constant tensor:
#      x y z
#    x 2.928970 0.000000 0.000000 
#    y 0.000000 2.928970 0.000000 
#    z 0.000000 0.000000 3.193670 
# 
# 
# High freq. dielectric constant tensor:
#      x y z
#    x 1.594240 0.000000 0.000000 
#    y 0.000000 1.594240 0.000000 
#    z 0.000000 0.000000 1.614950 
# 
# From -- ./inp_files/7589.got.cif
#   From: 2010.03.12/outbox.cif.g09.slc.cpg/sg191_4_cif.got.tgz:7589.got - 2010.04.01 12:09:02.
