data_PCOD8328366
_publ_section_title
;
Structure prediction by ZEFSAII (Michael W. Deem and Ramdas Pophale) SiO2 
 PCOD8328366
Probable space group: P 6/M M M
;
_chemical_formula_sum "Si O2"
_cell_formula_units_Z 96
_cell_length_a 22.495868
_cell_length_b 22.495868
_cell_length_c 13.935622
_cell_angle_alpha 90.000000
_cell_angle_beta 90.000000
_cell_angle_gamma 120.000000
_cell_volume 6107.486272
_symmetry_space_group_name_H-M "P 6/M M M"
_symmetry_group_IT_number 191
_symmetry_cell_setting 'hexagonal'
loop_
_space_group_symop_operation_xyz
x,y,z
x-y,x,z
-y,x-y,z
-x,-y,z
-x+y,-x,z
y,-x+y,z
x-y,-y,-z
-x,-x+y,-z
y,x,-z
-y,-x,-z
-x+y,y,-z
x,x-y,-z
-x,-y,-z
-x+y,-x,-z
y,-x+y,-z
x,y,-z
x-y,x,-z
-y,x-y,-z
-x+y,y,z
x,x-y,z
-y,-x,z
y,x,z
x-y,-y,z
-x,-x+y,z
loop_
_atom_site_type_symbol
_atom_site_label
_atom_site_fract_x
_atom_site_fract_y
_atom_site_fract_z
Si Si1 0.607123 0.081170 0.105263
Si Si2 0.079493 0.410697 0.294585
Si Si3 0.209861 0.923423 0.390315
Si Si4 0.201187 0.534620 0.612781
O O1 0.553892 0.107783 0.131707
O O2 0.666239 0.103942 0.185755
O O3 0.565078 0.000000 0.100100
O O4 0.640515 0.110142 0.000000
O O5 0.091075 0.347213 0.316925
O O6 0.125817 0.472228 0.365415
O O7 0.000000 0.388755 0.311668
O O8 0.228976 0.915132 0.500000
O O9 0.130302 0.869699 0.368595
O O10 0.222465 0.000000 0.374263
O O11 0.209530 0.541789 0.500000
O O12 0.261138 0.522275 0.656295
O O13 0.209254 0.604627 0.656813
#
# Coordination Sequence:
#
# PCOD8328366 Si02
#       4
#    24  24  24  24
#     4   8  14  25  40  58  82 111 140 170 206 249
#     4  10  18  27  43  67  89 107 132 169 214 260
#     4   9  17  29  45  65  90 119 147 174 209 256
#     4  10  20  32  44  57  77 108 143 174 203 240
#
# _framework density 15.718415
#
# number of rings (size 3 to 8) (size 9 to 14) (size 15 to 20)
#    0.000    2.750    0.000    3.250    0.000    6.000 
#    0.000    1.250    0.000    3.250    0.000    1.750 
#    0.000    2.000    0.000    0.000    0.000    0.000 
#
# Total GULP energy -1189657.560648 kJ/mol
# GULP energy per Si atom -12392.266257 kJ/mol
# Density = 1.568264 g / cm^3
# Si number density = 15.718415 Si / 1000 Ang^3
#
#
#
# Elastic Constant Matrix: (Units=GPa)
#
#
# Indices 1 2 3 4 5 6 
#
# 1 92.7077 54.5879 37.9521 0.0000 0.0000 0.0000
# 2 54.5879 92.7077 37.9521 0.0000 0.0000 0.0000
# 3 37.9521 37.9521 59.4218 0.0000 0.0000 0.0000
# 4 0.0000 0.0000 0.0000 11.9031 0.0000 0.0000
# 5 0.0000 0.0000 0.0000 0.0000 11.9031 0.0000
# 6 0.0000 0.0000 0.0000 0.0000 0.0000 19.0599
#
#
#
# Elastic Compliance Matrix: (Units=1/GPa)
#
#
# Indices 1 2 3 4 5 6 
#
# 1 0.018176 -0.008057 -0.006463 0.000000 0.000000 0.000000
# 2 -0.008057 0.018176 -0.006463 0.000000 0.000000 0.000000
# 3 -0.006463 -0.006463 0.025085 0.000000 0.000000 0.000000
# 4 0.000000 0.000000 0.000000 0.084012 0.000000 0.000000
# 5 0.000000 0.000000 0.000000 0.000000 0.084012 0.000000
# 6 0.000000 0.000000 0.000000 0.000000 0.000000 0.052466
#
#
# Mechanical properties :
#
#
# Convention : Reuss Voigt Hill
#
# Bulk Modulus (GPa) = 51.35838 56.20238 53.78038
# Shear Modulus (GPa) = 15.13388 16.19625 15.66507
#
# Velocity S-wave (km/s) = 3.10629 3.21347 3.16033
# Velocity P-wave (km/s) = 6.75354 7.04286 6.89972
#
# Compressibility (1/GPa) = 0.01947102
#
# Stress axis : x y z
#
# Youngs Moduli (GPa) = 55.01637 55.01637 39.86432
#
# Poissons Ratio (x) = 0.44325 0.25766
# Poissons Ratio (y) = 0.44325 0.25766
# Poissons Ratio (z) = 0.35559 0.35559
#
# Static dielectric constant tensor:
#      x y z
#    x 2.947100 0.000000 0.000000 
#    y 0.000000 2.947100 0.000000 
#    z 0.000000 0.000000 3.189330 
# 
# 
# High freq. dielectric constant tensor:
#      x y z
#    x 1.587170 0.000000 0.000000 
#    y 0.000000 1.587170 0.000000 
#    z 0.000000 0.000000 1.587430 
# 
# From -- ./inp_files/2738.got.cif
#   From: 2010.03.12/outbox.cif.g09.slc.cpg/sg191_2_cif.got.tgz:2738.got - 2010.04.01 12:09:02.
