data_PCOD8328344
_publ_section_title
;
Structure prediction by ZEFSAII (Michael W. Deem and Ramdas Pophale) SiO2 
 PCOD8328344
Probable space group: P 6/M M M
;
_chemical_formula_sum "Si O2"
_cell_formula_units_Z 132
_cell_length_a 18.023679
_cell_length_b 18.023679
_cell_length_c 26.799400
_cell_angle_alpha 90.000000
_cell_angle_beta 90.000000
_cell_angle_gamma 120.000000
_cell_volume 7539.500784
_symmetry_space_group_name_H-M "P 6/M M M"
_symmetry_group_IT_number 191
_symmetry_cell_setting 'hexagonal'
loop_
_space_group_symop_operation_xyz
x,y,z
x-y,x,z
-y,x-y,z
-x,-y,z
-x+y,-x,z
y,-x+y,z
x-y,-y,-z
-x,-x+y,-z
y,x,-z
-y,-x,-z
-x+y,y,-z
x,x-y,-z
-x,-y,-z
-x+y,-x,-z
y,-x+y,-z
x,y,-z
x-y,x,-z
-y,x-y,-z
-x+y,y,z
x,x-y,z
-y,-x,z
y,x,z
x-y,-y,z
-x,-x+y,z
loop_
_atom_site_type_symbol
_atom_site_label
_atom_site_fract_x
_atom_site_fract_y
_atom_site_fract_z
Si Si1 0.495038 0.163129 0.893698
Si Si2 0.168043 0.000000 0.940592
Si Si3 0.502320 0.668721 0.500000
Si Si4 0.534318 0.902316 0.786600
Si Si5 0.100396 0.467440 0.396556
Si Si6 0.000000 0.663360 0.059127
Si Si7 0.099697 0.736376 0.306488
O O1 0.582862 0.165724 0.907110
O O2 0.500358 0.250179 0.912606
O O3 0.479031 0.156240 0.834331
O O4 0.419563 0.084225 0.922166
O O5 0.252184 0.000000 0.920542
O O6 0.084138 0.915863 0.919782
O O7 0.166626 0.000000 0.000000
O O8 0.428757 0.571244 0.500000
O O9 0.464173 0.732087 0.500000
O O10 0.556925 0.683299 0.449534
O O11 0.443052 0.886103 0.765802
O O12 0.581564 0.881358 0.743424
O O13 0.591365 0.000000 0.804633
O O14 0.141691 0.570846 0.390754
O O15 0.131076 0.429782 0.352308
O O16 0.000000 0.425369 0.393671
O O17 0.000000 0.662541 0.000000
O O18 0.160138 0.839863 0.305887
O O19 0.000000 0.710513 0.310793
#
# Coordination Sequence:
#
# PCOD8328344 Si02
#       7
#    24  12  12  24  24  12  24
#     4  11  22  37  56  79 106 136 172 213 258 303
#     4   9  17  31  53  81 109 135 165 205 252 297
#     4  10  18  27  39  57  88 127 165 197 231 280
#     4   9  17  32  54  78 102 130 161 197 243 296
#     4   9  17  29  45  65  89 122 162 204 248 294
#     4  11  23  39  57  77 103 139 177 210 247 301
#     4  10  19  31  49  73  99 127 163 207 252 297
#
# _framework density 17.50779
#
# number of rings (size 3 to 8) (size 9 to 14) (size 15 to 20)
#    0.000    2.182    0.909    3.091    0.000    5.455 
#    0.000    0.000    0.000    6.364    0.000    0.000 
#    0.000    0.000    0.000    0.000    0.000   18.909 
#
# Total GULP energy -1636475.963761 kJ/mol
# GULP energy per Si atom -12397.545180 kJ/mol
# Density = 1.746794 g / cm^3
# Si number density = 17.507790 Si / 1000 Ang^3
#
#
#
# Elastic Constant Matrix: (Units=GPa)
#
#
# Indices 1 2 3 4 5 6 
#
# 1 112.9889 65.8267 36.8891 0.0000 0.0000 0.0000
# 2 65.8267 112.9889 36.8891 0.0000 0.0000 0.0000
# 3 36.8891 36.8891 67.3472 0.0000 0.0000 0.0000
# 4 0.0000 0.0000 0.0000 7.8245 0.0000 0.0000
# 5 0.0000 0.0000 0.0000 0.0000 7.8245 0.0000
# 6 0.0000 0.0000 0.0000 0.0000 0.0000 23.5811
#
#
#
# Elastic Compliance Matrix: (Units=1/GPa)
#
#
# Indices 1 2 3 4 5 6 
#
# 1 0.014214 -0.006989 -0.003958 0.000000 0.000000 0.000000
# 2 -0.006989 0.014214 -0.003958 0.000000 0.000000 0.000000
# 3 -0.003958 -0.003958 0.019184 0.000000 0.000000 0.000000
# 4 0.000000 0.000000 0.000000 0.127804 0.000000 0.000000
# 5 0.000000 0.000000 0.000000 0.000000 0.127804 0.000000
# 6 0.000000 0.000000 0.000000 0.000000 0.000000 0.042407
#
#
# Mechanical properties :
#
#
# Convention : Reuss Voigt Hill
#
# Bulk Modulus (GPa) = 56.16704 63.61500 59.89102
# Shear Modulus (GPa) = 13.11059 18.09401 15.60230
#
# Velocity S-wave (km/s) = 2.73947 3.21827 2.98847
# Velocity P-wave (km/s) = 6.49285 7.08688 6.79636
#
# Compressibility (1/GPa) = 0.01780404
#
# Stress axis : x y z
#
# Youngs Moduli (GPa) = 70.35157 70.35157 52.12698
#
# Poissons Ratio (x) = 0.49169 0.20630
# Poissons Ratio (y) = 0.49169 0.20630
# Poissons Ratio (z) = 0.27842 0.27842
#
# Static dielectric constant tensor:
#      x y z
#    x 3.235620 0.000000 0.000000 
#    y 0.000000 3.235620 0.000000 
#    z 0.000000 0.000000 3.308210 
# 
# 
# High freq. dielectric constant tensor:
#      x y z
#    x 1.665800 0.000000 0.000000 
#    y 0.000000 1.665800 0.000000 
#    z 0.000000 0.000000 1.676020 
# 
# From -- ./inp_files/9871.got.cif
#   From: 2010.03.12/outbox.cif.g09.slc.cpg/sg191_5_cif.got.tgz:9871.got - 2010.04.01 12:09:02.
