data_PCOD8328235
_publ_section_title
;
Structure prediction by ZEFSAII (Michael W. Deem and Ramdas Pophale) SiO2 
 PCOD8328235
Probable space group: P 6/M M M
;
_chemical_formula_sum "Si O2"
_cell_formula_units_Z 156
_cell_length_a 24.910863
_cell_length_b 24.910863
_cell_length_c 18.464528
_cell_angle_alpha 90.000000
_cell_angle_beta 90.000000
_cell_angle_gamma 120.000000
_cell_volume 9923.077625
_symmetry_space_group_name_H-M "P 6/M M M"
_symmetry_group_IT_number 191
_symmetry_cell_setting 'hexagonal'
loop_
_space_group_symop_operation_xyz
x,y,z
x-y,x,z
-y,x-y,z
-x,-y,z
-x+y,-x,z
y,-x+y,z
x-y,-y,-z
-x,-x+y,-z
y,x,-z
-y,-x,-z
-x+y,y,-z
x,x-y,-z
-x,-y,-z
-x+y,-x,-z
y,-x+y,-z
x,y,-z
x-y,x,-z
-y,x-y,-z
-x+y,y,z
x,x-y,z
-y,-x,z
y,x,z
x-y,-y,z
-x,-x+y,z
loop_
_atom_site_type_symbol
_atom_site_label
_atom_site_fract_x
_atom_site_fract_y
_atom_site_fract_z
Si Si1 0.874740 0.246972 0.081589
Si Si2 0.932158 0.184118 0.167068
Si Si3 0.196036 0.928185 0.330593
Si Si4 0.926565 0.625564 0.581183
Si Si5 0.073349 0.634815 0.173258
Si Si6 0.073644 0.597496 0.668749
Si Si7 0.463301 0.536700 0.079059
O O1 0.801680 0.198321 0.083746
O O2 0.913524 0.213816 0.102051
O O3 0.889549 0.295932 0.144612
O O4 0.894250 0.275078 0.000000
O O5 0.889629 0.110371 0.166610
O O6 0.926744 0.210381 0.245586
O O7 0.000000 0.195988 0.152528
O O8 0.123108 0.876893 0.347996
O O9 0.239223 0.906679 0.372147
O O10 0.214830 0.000000 0.352043
O O11 0.900285 0.619236 0.500000
O O12 0.900752 0.555773 0.612508
O O13 0.000000 0.658709 0.581114
O O14 0.094986 0.629072 0.252939
O O15 0.096271 0.599895 0.120653
O O16 0.000000 0.609504 0.169604
O O17 0.099711 0.549856 0.653133
O O18 0.000000 0.557511 0.666356
O O19 0.500000 0.500000 0.074544
O O20 0.447989 0.552012 0.000000
#
# Coordination Sequence:
#
# PCOD8328235 Si02
#       7
#    24  24  24  24  24  24  12
#     4  10  20  30  40  58  85 115 147 183 224 270
#     4   9  17  29  44  61  81 109 146 185 227 277
#     4   9  17  30  47  66  89 120 158 197 237 284
#     4   9  17  27  40  61  87 115 148 182 216 259
#     4  10  17  27  42  60  83 112 143 174 210 255
#     4   9  16  27  42  60  84 114 145 173 206 254
#     4   9  16  24  36  58  83 105 133 167 202 244
#
# _framework density 15.720929
#
# number of rings (size 3 to 8) (size 9 to 14) (size 15 to 20)
#    0.000    2.692    0.769    1.846    0.000    4.923 
#    0.000    1.538    0.000    0.308    0.000    2.154 
#    0.769    0.000    0.923    8.154    0.000   10.923 
#
# Total GULP energy -1932776.469446 kJ/mol
# GULP energy per Si atom -12389.592753 kJ/mol
# Density = 1.568515 g / cm^3
# Si number density = 15.720929 Si / 1000 Ang^3
#
#
#
# Elastic Constant Matrix: (Units=GPa)
#
#
# Indices 1 2 3 4 5 6 
#
# 1 66.7361 32.1091 19.1071 0.0000 0.0000 0.0000
# 2 32.1091 66.7361 19.1071 0.0000 0.0000 0.0000
# 3 19.1071 19.1071 58.9430 0.0000 0.0000 0.0000
# 4 0.0000 0.0000 0.0000 14.8518 0.0000 0.0000
# 5 0.0000 0.0000 0.0000 0.0000 14.8518 0.0000
# 6 0.0000 0.0000 0.0000 0.0000 0.0000 17.3135
#
#
#
# Elastic Compliance Matrix: (Units=1/GPa)
#
#
# Indices 1 2 3 4 5 6 
#
# 1 0.020223 -0.008656 -0.003749 0.000000 0.000000 0.000000
# 2 -0.008656 0.020223 -0.003749 0.000000 0.000000 0.000000
# 3 -0.003749 -0.003749 0.019396 0.000000 0.000000 0.000000
# 4 0.000000 0.000000 0.000000 0.067332 0.000000 0.000000
# 5 0.000000 0.000000 0.000000 0.000000 0.067332 0.000000
# 6 0.000000 0.000000 0.000000 0.000000 0.000000 0.057758
#
#
# Mechanical properties :
#
#
# Convention : Reuss Voigt Hill
#
# Bulk Modulus (GPa) = 36.32196 37.00688 36.66442
# Shear Modulus (GPa) = 17.02117 17.54287 17.28202
#
# Velocity S-wave (km/s) = 3.29402 3.34412 3.31917
# Velocity P-wave (km/s) = 6.13366 6.20499 6.16943
#
# Compressibility (1/GPa) = 0.02753155
#
# Stress axis : x y z
#
# Youngs Moduli (GPa) = 49.44922 49.44922 51.55604
#
# Poissons Ratio (x) = 0.42805 0.19330
# Poissons Ratio (y) = 0.42805 0.19330
# Poissons Ratio (z) = 0.18540 0.18540
#
# Static dielectric constant tensor:
#      x y z
#    x 2.884430 0.000000 0.000000 
#    y 0.000000 2.884430 0.000000 
#    z 0.000000 0.000000 3.247960 
# 
# 
# High freq. dielectric constant tensor:
#      x y z
#    x 1.573230 0.000000 0.000000 
#    y 0.000000 1.573230 0.000000 
#    z 0.000000 0.000000 1.615050 
# 
# From -- ./inp_files/6810.got.cif
#   From: 2010.03.12/outbox.cif.g09.slc.cpg/sg191_4_cif.got.tgz:6810.got - 2010.04.01 12:09:02.
