data_PCOD8328547
_publ_section_title
;
Structure prediction by ZEFSAII (Michael W. Deem and Ramdas Pophale) SiO2 
 PCOD8328547
Probable space group: P 6/M M M
;
_chemical_formula_sum "Si O2"
_cell_formula_units_Z 84
_cell_length_a 16.999431
_cell_length_b 16.999431
_cell_length_c 19.546247
_cell_angle_alpha 90.000000
_cell_angle_beta 90.000000
_cell_angle_gamma 120.000000
_cell_volume 4891.733449
_symmetry_space_group_name_H-M "P 6/M M M"
_symmetry_group_IT_number 191
_symmetry_cell_setting 'hexagonal'
loop_
_space_group_symop_operation_xyz
x,y,z
x-y,x,z
-y,x-y,z
-x,-y,z
-x+y,-x,z
y,-x+y,z
x-y,-y,-z
-x,-x+y,-z
y,x,-z
-y,-x,-z
-x+y,y,-z
x,x-y,-z
-x,-y,-z
-x+y,-x,-z
y,-x+y,-z
x,y,-z
x-y,x,-z
-y,x-y,-z
-x+y,y,z
x,x-y,z
-y,-x,z
y,x,z
x-y,-y,z
-x,-x+y,z
loop_
_atom_site_type_symbol
_atom_site_label
_atom_site_fract_x
_atom_site_fract_y
_atom_site_fract_z
Si Si1 0.840967 0.509810 0.500000
Si Si2 0.217983 0.108992 0.176055
Si Si3 0.107100 0.464014 0.000000
Si Si4 0.399124 0.199562 0.105089
Si Si5 0.895990 0.535026 0.355371
Si Si6 0.196142 0.392284 0.255774
O O1 0.732394 0.464788 0.500000
O O2 0.872708 0.436354 0.500000
O O3 0.879872 0.567322 0.430041
O O4 0.154514 0.154514 0.174522
O O5 0.287847 0.143924 0.110854
O O6 0.282079 0.141040 0.244603
O O7 0.140020 0.434927 0.932689
O O8 0.145402 0.572701 0.000000
O O9 0.000000 0.411999 0.000000
O O10 0.440850 0.220425 0.181494
O O11 0.848282 0.424141 0.352337
O O12 0.862775 0.574354 0.295851
O O13 0.000000 0.574766 0.341755
#
# Coordination Sequence:
#
# PCOD8328547 Si02
#       6
#    12  12  12  12  24  12
#     4  10  18  31  49  74 103 141 184 231 276 327
#     4  10  20  36  59  85 116 149 184 228 282 342
#     4  10  20  38  63  83 105 145 186 218 266 329
#     4   9  22  37  55  87 115 143 178 234 274 324
#     4  10  20  34  53  76 106 145 189 230 277 334
#     4  10  21  36  54  82 115 147 179 234 284 331
#
# _framework density 17.171827
#
# number of rings (size 3 to 8) (size 9 to 14) (size 15 to 20)
#    0.857    1.286    1.429    2.429    0.000    2.857 
#    4.286    2.857    0.000    0.000    0.000    5.000 
#    0.000    0.000    0.000    6.143    0.000    0.000 
#
# Total GULP energy -1040627.291825 kJ/mol
# GULP energy per Si atom -12388.420141 kJ/mol
# Density = 1.713274 g / cm^3
# Si number density = 17.171827 Si / 1000 Ang^3
#
#
#
# Elastic Constant Matrix: (Units=GPa)
#
#
# Indices 1 2 3 4 5 6 
#
# 1 111.4078 51.2674 54.8473 0.0000 0.0000 0.0000
# 2 51.2674 111.4078 54.8473 0.0000 0.0000 0.0000
# 3 54.8473 54.8473 151.1068 0.0000 0.0000 0.0000
# 4 0.0000 0.0000 0.0000 23.5762 0.0000 0.0000
# 5 0.0000 0.0000 0.0000 0.0000 23.5762 0.0000
# 6 0.0000 0.0000 0.0000 0.0000 0.0000 30.0702
#
#
#
# Elastic Compliance Matrix: (Units=1/GPa)
#
#
# Indices 1 2 3 4 5 6 
#
# 1 0.012384 -0.004244 -0.002954 0.000000 0.000000 0.000000
# 2 -0.004244 0.012384 -0.002954 0.000000 0.000000 0.000000
# 3 -0.002954 -0.002954 0.008763 0.000000 0.000000 0.000000
# 4 0.000000 0.000000 0.000000 0.042416 0.000000 0.000000
# 5 0.000000 0.000000 0.000000 0.000000 0.042416 0.000000
# 6 0.000000 0.000000 0.000000 0.000000 0.000000 0.033255
#
#
# Mechanical properties :
#
#
# Convention : Reuss Voigt Hill
#
# Bulk Modulus (GPa) = 75.62080 77.31626 76.46853
# Shear Modulus (GPa) = 28.35592 29.64191 28.99891
#
# Velocity S-wave (km/s) = 4.06803 4.15926 4.11390
# Velocity P-wave (km/s) = 8.13625 8.25764 8.19717
#
# Compressibility (1/GPa) = 0.01322388
#
# Stress axis : x y z
#
# Youngs Moduli (GPa) = 80.75217 80.75217 114.12237
#
# Poissons Ratio (x) = 0.34273 0.33716
# Poissons Ratio (y) = 0.34273 0.33716
# Poissons Ratio (z) = 0.23857 0.23857
#
# Static dielectric constant tensor:
#      x y z
#    x 3.274620 0.000000 0.000000 
#    y 0.000000 3.274620 0.000000 
#    z 0.000000 0.000000 3.297430 
# 
# 
# High freq. dielectric constant tensor:
#      x y z
#    x 1.655700 0.000000 0.000000 
#    y 0.000000 1.655700 0.000000 
#    z 0.000000 0.000000 1.667260 
# 
# From -- ./inp_files/7080.got.cif
#   From: 2010.03.12/outbox.cif.g09.slc.cpg/sg191_4_cif.got.tgz:7080.got - 2010.04.01 12:09:02.
