data_PCOD8328074
_publ_section_title
;
Structure prediction by ZEFSAII (Michael W. Deem and Ramdas Pophale) SiO2 
 PCOD8328074
Probable space group: P -6 2 C
;
_chemical_formula_sum "Si O2"
_cell_formula_units_Z 74
_cell_length_a 15.919212
_cell_length_b 15.919212
_cell_length_c 18.003062
_cell_angle_alpha 90.000000
_cell_angle_beta 90.000000
_cell_angle_gamma 120.000000
_cell_volume 3951.119288
_symmetry_space_group_name_H-M "P -6 2 C"
_symmetry_group_IT_number 190
_symmetry_cell_setting 'hexagonal'
loop_
_space_group_symop_operation_xyz
x,y,z
-x+y,-x,1/2-z
-y,x-y,z
x,y,1/2-z
-x+y,-x,z
-y,x-y,1/2-z
x-y,-y,-z
-x,-x+y,-z
y,x,-z
y,x,1/2+z
x-y,-y,1/2+z
-x,-x+y,1/2+z
loop_
_atom_site_type_symbol
_atom_site_label
_atom_site_fract_x
_atom_site_fract_y
_atom_site_fract_z
Si Si1 0.997240 0.892323 0.750000
Si Si2 0.333334 0.666668 0.358316
Si Si3 0.300734 0.460561 0.530836
Si Si4 0.357223 0.098719 0.546168
Si Si5 0.888092 0.720621 0.831850
Si Si6 0.880945 0.390474 0.831102
Si Si7 0.966646 0.589408 0.889170
Si Si8 0.666668 0.333334 0.467000
O O1 0.900829 0.906037 0.750000
O O2 0.983992 0.828548 0.824436
O O3 0.380166 0.775523 0.329283
O O4 0.333334 0.666667 0.445704
O O5 0.186303 0.398254 0.512906
O O6 0.330331 0.408441 0.594050
O O7 0.364075 0.465341 0.459925
O O8 0.327310 0.567029 0.560225
O O9 0.276975 0.100466 0.600153
O O10 0.441353 0.110690 0.601106
O O11 0.312065 0.000000 0.500000
O O12 0.835623 0.697478 0.750000
O O13 0.918957 0.641192 0.844893
O O14 0.898960 0.357298 0.750000
O O15 0.962640 0.503318 0.840296
#
# Coordination Sequence:
#
# PCOD8328074 Si02
#       8
#     6   4  12  12  12  12  12   4
#     4   8  18  36  64  86 104 152 186 236 302 356
#     4  12  19  34  57  87 120 160 194 239 305 364
#     4  10  21  34  57  83 117 160 200 233 307 351
#     4  11  23  37  56  89 122 159 197 254 300 358
#     4   9  19  38  62  84 119 150 197 248 300 354
#     4  12  23  34  57  86 125 156 206 247 303 359
#     4  10  20  35  56  86 119 156 194 245 292 366
#     4  12  18  37  55  84 118 169 193 254 286 358
#
# _framework density 18.728870000000001
#
# number of rings (size 3 to 8) (size 9 to 14) (size 15 to 20)
#    0.649    0.973    3.243    2.432    4.541    1.297 
#    0.000    0.000    0.000    0.000    0.000    0.000 
#    0.000    0.000    0.000    0.000    0.000    0.000 
#
# Total GULP energy -916743.923130 kJ/mol
# GULP energy per Si atom -12388.431394 kJ/mol
# Density = 1.868624 g / cm^3
# Si number density = 18.728870 Si / 1000 Ang^3
#
#
#
# Elastic Constant Matrix: (Units=GPa)
#
#
# Indices 1 2 3 4 5 6 
#
# 1 76.1307 32.5190 29.0388 0.0000 -0.0003 0.0000
# 2 32.5190 76.1316 29.0386 -0.0004 -0.0004 0.0002
# 3 29.0388 29.0386 72.2935 0.0003 0.0002 0.0000
# 4 0.0000 -0.0004 0.0003 9.9113 0.0011 0.0001
# 5 -0.0003 -0.0004 0.0002 0.0011 9.9061 -0.0002
# 6 0.0000 0.0002 0.0000 0.0001 -0.0002 21.8063
#
#
#
# Elastic Compliance Matrix: (Units=1/GPa)
#
#
# Indices 1 2 3 4 5 6 
#
# 1 0.017325 -0.005605 -0.004708 0.000000 0.000000 0.000000
# 2 -0.005605 0.017325 -0.004708 0.000001 0.000001 0.000000
# 3 -0.004708 -0.004708 0.017615 -0.000001 -0.000001 0.000000
# 4 0.000000 0.000001 -0.000001 0.100895 -0.000011 0.000000
# 5 0.000000 0.000001 -0.000001 -0.000011 0.100948 0.000001
# 6 0.000000 0.000000 0.000000 0.000000 0.000001 0.045858
#
#
# Mechanical properties :
#
#
# Convention : Reuss Voigt Hill
#
# Bulk Modulus (GPa) = 44.99636 45.08317 45.03976
# Shear Modulus (GPa) = 14.81858 17.25535 16.03697
#
# Velocity S-wave (km/s) = 2.81591 3.03862 2.92938
# Velocity P-wave (km/s) = 5.88640 6.03612 5.96173
#
# Compressibility (1/GPa) = 0.02222402
#
# Stress axis : x y z
#
# Youngs Moduli (GPa) = 57.72004 57.72099 56.77123
#
# Poissons Ratio (x) = 0.32350 0.26727
# Poissons Ratio (y) = 0.32349 0.26726
# Poissons Ratio (z) = 0.27174 0.27173
#
# Static dielectric constant tensor:
#      x y z
#    x 3.469740 0.000000 0.000000 
#    y 0.000000 3.469730 0.000000 
#    z 0.000000 0.000000 3.371890 
# 
# 
# High freq. dielectric constant tensor:
#      x y z
#    x 1.720920 0.000000 0.000000 
#    y 0.000000 1.720920 0.000000 
#    z 0.000000 0.000000 1.706550 
# 
# From -- ./inp_files/4422.got.cif
#   From: 2010.06.25/outbox.cif.g09.slc.cpg/sg190_3_cif.got.tgz:4422.got - 2010.06.28 13:08:06.
