data_PCOD8328195
_publ_section_title
;
Structure prediction by ZEFSAII (Michael W. Deem and Ramdas Pophale) SiO2 
 PCOD8328195
Probable space group: P -6 2 C
;
_chemical_formula_sum "Si O2"
_cell_formula_units_Z 40
_cell_length_a 16.143122
_cell_length_b 16.143122
_cell_length_c 8.746762
_cell_angle_alpha 90.000000
_cell_angle_beta 90.000000
_cell_angle_gamma 120.000000
_cell_volume 1974.026593
_symmetry_space_group_name_H-M "P -6 2 C"
_symmetry_group_IT_number 190
_symmetry_cell_setting 'hexagonal'
loop_
_space_group_symop_operation_xyz
x,y,z
-x+y,-x,1/2-z
-y,x-y,z
x,y,1/2-z
-x+y,-x,z
-y,x-y,1/2-z
x-y,-y,-z
-x,-x+y,-z
y,x,-z
y,x,1/2+z
x-y,-y,1/2+z
-x,-x+y,1/2+z
loop_
_atom_site_type_symbol
_atom_site_label
_atom_site_fract_x
_atom_site_fract_y
_atom_site_fract_z
Si Si1 0.263125 0.905184 0.923427
Si Si2 0.383739 0.286371 0.931305
Si Si3 0.666667 0.333334 0.569576
Si Si4 0.857851 0.421310 0.423334
O O1 0.226810 0.896338 0.750000
O O2 0.370983 0.921914 0.926018
O O3 0.187620 0.811078 0.012931
O O4 0.270903 0.000000 0.000000
O O5 0.379508 0.285537 0.750000
O O6 0.295983 0.295983 0.000000
O O7 0.481370 0.381327 0.981416
O O8 0.666667 0.333334 0.750000
O O9 0.762029 0.340286 0.504054
O O10 0.839436 0.442784 0.250000
#
# Coordination Sequence:
#
# PCOD8328195 Si02
#       4
#    12  12   4  12
#     4  11  24  41  63  89 122 159 202 250 304 359
#     4  12  25  41  63  89 122 159 205 252 304 360
#     4  12  22  32  55  87 124 167 208 246 295 350
#     4  11  22  38  60  87 125 165 206 249 295 352
#
# _framework density 20.263152000000002
#
# number of rings (size 3 to 8) (size 9 to 14) (size 15 to 20)
#    0.000    0.600    3.000    6.300    0.000    6.000 
#    0.000    0.000    0.000    0.600    0.000    4.200 
#    0.000    0.000    0.000    0.000    0.000    0.000 
#
# Total GULP energy -495949.594710 kJ/mol
# GULP energy per Si atom -12398.739868 kJ/mol
# Density = 2.021703 g / cm^3
# Si number density = 20.263152 Si / 1000 Ang^3
#
#
#
# Elastic Constant Matrix: (Units=GPa)
#
#
# Indices 1 2 3 4 5 6 
#
# 1 84.2289 37.2225 50.6896 0.0000 -0.0001 -0.0002
# 2 37.2225 84.2286 50.6896 0.0000 0.0001 0.0002
# 3 50.6896 50.6896 208.6301 0.0000 0.0000 -0.0001
# 4 0.0000 0.0000 0.0000 28.5323 0.0000 -0.0001
# 5 -0.0001 0.0001 0.0000 0.0000 28.5325 0.0000
# 6 -0.0002 0.0002 -0.0001 -0.0001 0.0000 23.5035
#
#
#
# Elastic Compliance Matrix: (Units=1/GPa)
#
#
# Indices 1 2 3 4 5 6 
#
# 1 0.015801 -0.005473 -0.002509 0.000000 0.000000 0.000000
# 2 -0.005473 0.015801 -0.002509 0.000000 0.000000 0.000000
# 3 -0.002509 -0.002509 0.006013 0.000000 0.000000 0.000000
# 4 0.000000 0.000000 0.000000 0.035048 0.000000 0.000000
# 5 0.000000 0.000000 0.000000 0.000000 0.035048 0.000000
# 6 0.000000 0.000000 0.000000 0.000000 0.000000 0.042547
#
#
# Mechanical properties :
#
#
# Convention : Reuss Voigt Hill
#
# Bulk Modulus (GPa) = 60.12598 72.69899 66.41249
# Shear Modulus (GPa) = 28.28303 32.01271 30.14787
#
# Velocity S-wave (km/s) = 3.74008 3.97904 3.86141
# Velocity P-wave (km/s) = 6.95614 7.55418 7.26132
#
# Compressibility (1/GPa) = 0.01663175
#
# Stress axis : x y z
#
# Youngs Moduli (GPa) = 63.28680 63.28653 166.31782
#
# Poissons Ratio (x) = 0.34634 0.41737
# Poissons Ratio (y) = 0.34635 0.41737
# Poissons Ratio (z) = 0.15881 0.15881
#
# Static dielectric constant tensor:
#      x y z
#    x 3.539570 0.000000 0.000000 
#    y 0.000000 3.539570 0.000000 
#    z 0.000000 0.000000 3.859690 
# 
# 
# High freq. dielectric constant tensor:
#      x y z
#    x 1.776670 0.000000 0.000000 
#    y 0.000000 1.776670 0.000000 
#    z 0.000000 0.000000 1.812830 
# 
# From -- ./inp_files/524.got.cif
#   From: 2010.06.25/outbox.cif.g09.slc.cpg/sg190_1_cif.got.tgz:524.got - 2010.06.28 13:08:06.
