data_PCOD8328190
_publ_section_title
;
Structure prediction by ZEFSAII (Michael W. Deem and Ramdas Pophale) SiO2 
 PCOD8328190
Probable space group: P -6 2 C
;
_chemical_formula_sum "Si O2"
_cell_formula_units_Z 36
_cell_length_a 16.531026
_cell_length_b 16.531026
_cell_length_c 8.614801
_cell_angle_alpha 90.000000
_cell_angle_beta 90.000000
_cell_angle_gamma 120.000000
_cell_volume 2038.804105
_symmetry_space_group_name_H-M "P -6 2 C"
_symmetry_group_IT_number 190
_symmetry_cell_setting 'hexagonal'
loop_
_space_group_symop_operation_xyz
x,y,z
-x+y,-x,1/2-z
-y,x-y,z
x,y,1/2-z
-x+y,-x,z
-y,x-y,1/2-z
x-y,-y,-z
-x,-x+y,-z
y,x,-z
y,x,1/2+z
x-y,-y,1/2+z
-x,-x+y,1/2+z
loop_
_atom_site_type_symbol
_atom_site_label
_atom_site_fract_x
_atom_site_fract_y
_atom_site_fract_z
Si Si1 0.272308 0.902364 0.069527
Si Si2 0.899097 0.099048 0.066495
Si Si3 0.241076 0.555433 0.924965
O O1 0.260498 0.915659 0.250000
O O2 0.174497 0.870105 0.984474
O O3 0.301735 0.824294 0.046855
O O4 0.352765 0.000000 0.000000
O O5 0.902009 0.094459 0.250000
O O6 0.000000 0.125673 0.000000
O O7 0.821675 0.000000 0.000000
O O8 0.350253 0.584651 0.949551
O O9 0.209504 0.517290 0.750000
#
# Coordination Sequence:
#
# PCOD8328190 Si02
#       3
#    12  12  12
#     4  11  21  34  54  80 110 142 179 220 265 314
#     4  11  21  35  53  75 105 140 180 220 266 318
#     4   8  17  35  58  79 104 138 173 214 264 314
#
# _framework density 17.657409999999999
#
# number of rings (size 3 to 8) (size 9 to 14) (size 15 to 20)
#    0.667    1.333    0.000    8.333    0.000    1.333 
#    0.000    1.667    0.000    8.000    0.000    0.000 
#    0.000    0.000    0.000    0.000    0.000    0.000 
#
# Total GULP energy -446310.803178 kJ/mol
# GULP energy per Si atom -12397.522310 kJ/mol
# Density = 1.761722 g / cm^3
# Si number density = 17.657410 Si / 1000 Ang^3
#
#
#
# Elastic Constant Matrix: (Units=GPa)
#
#
# Indices 1 2 3 4 5 6 
#
# 1 88.9837 48.9413 38.8158 0.0000 0.0000 0.0000
# 2 48.9413 88.9837 38.8158 0.0000 0.0000 0.0000
# 3 38.8158 38.8158 145.9771 0.0000 0.0000 0.0000
# 4 0.0000 0.0000 0.0000 30.6151 0.0000 0.0000
# 5 0.0000 0.0000 0.0000 0.0000 30.6151 0.0000
# 6 0.0000 0.0000 0.0000 0.0000 0.0000 20.0212
#
#
#
# Elastic Compliance Matrix: (Units=1/GPa)
#
#
# Indices 1 2 3 4 5 6 
#
# 1 0.016750 -0.008224 -0.002267 0.000000 0.000000 0.000000
# 2 -0.008224 0.016750 -0.002267 0.000000 0.000000 0.000000
# 3 -0.002267 -0.002267 0.008056 0.000000 0.000000 0.000000
# 4 0.000000 0.000000 0.000000 0.032664 0.000000 0.000000
# 5 0.000000 0.000000 0.000000 0.000000 0.032664 0.000000
# 6 0.000000 0.000000 0.000000 0.000000 0.000000 0.049947
#
#
# Mechanical properties :
#
#
# Convention : Reuss Voigt Hill
#
# Bulk Modulus (GPa) = 62.34364 64.12116 63.23240
# Shear Modulus (GPa) = 26.63925 29.40839 28.02382
#
# Velocity S-wave (km/s) = 3.88838 4.08548 3.98815
# Velocity P-wave (km/s) = 7.45274 7.65818 7.55616
#
# Compressibility (1/GPa) = 0.01604013
#
# Stress axis : x y z
#
# Youngs Moduli (GPa) = 59.70157 59.70157 124.12947
#
# Poissons Ratio (x) = 0.49096 0.28143
# Poissons Ratio (y) = 0.49096 0.28143
# Poissons Ratio (z) = 0.13536 0.13536
#
# Static dielectric constant tensor:
#      x y z
#    x 3.121780 0.000000 0.000000 
#    y 0.000000 3.121780 0.000000 
#    z 0.000000 0.000000 3.281900 
# 
# 
# High freq. dielectric constant tensor:
#      x y z
#    x 1.668950 0.000000 0.000000 
#    y 0.000000 1.668950 0.000000 
#    z 0.000000 0.000000 1.697240 
# 
# From -- ./inp_files/458.got.cif
#   From: 2010.06.25/outbox.cif.g09.slc.cpg/sg190_1_cif.got.tgz:458.got - 2010.06.28 13:08:06.
