data_PCOD8328247
_publ_section_title
;
Structure prediction by ZEFSAII (Michael W. Deem and Ramdas Pophale) SiO2 
 PCOD8328247
Probable space group: P 6/M M M
;
_chemical_formula_sum "Si O2"
_cell_formula_units_Z 168
_cell_length_a 22.886597
_cell_length_b 22.886597
_cell_length_c 21.487334
_cell_angle_alpha 90.000000
_cell_angle_beta 90.000000
_cell_angle_gamma 120.000000
_cell_volume 9747.104249
_symmetry_space_group_name_H-M "P 6/M M M"
_symmetry_group_IT_number 191
_symmetry_cell_setting 'hexagonal'
loop_
_space_group_symop_operation_xyz
x,y,z
x-y,x,z
-y,x-y,z
-x,-y,z
-x+y,-x,z
y,-x+y,z
x-y,-y,-z
-x,-x+y,-z
y,x,-z
-y,-x,-z
-x+y,y,-z
x,x-y,-z
-x,-y,-z
-x+y,-x,-z
y,-x+y,-z
x,y,-z
x-y,x,-z
-y,x-y,-z
-x+y,y,z
x,x-y,z
-y,-x,z
y,x,z
x-y,-y,z
-x,-x+y,z
loop_
_atom_site_type_symbol
_atom_site_label
_atom_site_fract_x
_atom_site_fract_y
_atom_site_fract_z
Si Si1 0.074586 0.277866 0.426100
Si Si2 0.139492 0.725981 0.787155
Si Si3 0.393780 0.919962 0.310738
Si Si4 0.791212 0.713531 0.130356
Si Si5 0.461263 0.664793 0.867603
Si Si6 0.920345 0.331243 0.431700
Si Si7 0.180222 0.492602 0.000000
Si Si8 0.268388 0.922546 0.000000
O O1 0.070913 0.271511 0.500000
O O2 0.129755 0.259510 0.399225
O O3 0.098745 0.355229 0.408214
O O4 0.000000 0.226306 0.398135
O O5 0.208099 0.791902 0.764125
O O6 0.109673 0.671998 0.732140
O O7 0.087829 0.747555 0.815515
O O8 0.153243 0.688519 0.843143
O O9 0.447341 0.894682 0.294961
O O10 0.366617 0.896067 0.381154
O O11 0.431035 0.000000 0.304633
O O12 0.871013 0.742025 0.143132
O O13 0.774097 0.774097 0.133133
O O14 0.776609 0.679433 0.062347
O O15 0.439185 0.719593 0.852250
O O16 0.405629 0.594372 0.836700
O O17 0.461004 0.652223 0.940869
O O18 0.888003 0.328641 0.500000
O O19 0.000000 0.373454 0.438832
O O20 0.232473 0.464946 0.000000
O O21 0.108208 0.425722 0.000000
O O22 0.320944 0.000000 0.000000
#
# Coordination Sequence:
#
# PCOD8328247 Si02
#       8
#    24  24  24  24  24  24  12  12
#     4   8  13  22  38  61  89 120 153 190 232 276
#     4  10  20  33  49  67  92 129 164 195 231 277
#     4  10  20  33  49  70  97 124 151 188 235 287
#     4  10  19  32  52  75  99 127 163 204 244 288
#     4  10  19  30  46  65  88 118 157 203 245 282
#     4   8  15  28  45  66  91 118 149 187 233 284
#     4  10  17  29  46  64  89 117 152 196 242 285
#     4  10  18  29  49  72  97 125 158 201 245 292
#
# _framework density 17.235887999999999
#
# number of rings (size 3 to 8) (size 9 to 14) (size 15 to 20)
#    0.000    2.571    1.429    2.714    0.000    0.857 
#    0.000    2.143    0.000    2.286    0.000    1.000 
#    0.000    1.714    0.000    0.000    0.000   18.571 
#
# Total GULP energy -2081565.970728 kJ/mol
# GULP energy per Si atom -12390.273635 kJ/mol
# Density = 1.719666 g / cm^3
# Si number density = 17.235888 Si / 1000 Ang^3
#
#
#
# Elastic Constant Matrix: (Units=GPa)
#
#
# Indices 1 2 3 4 5 6 
#
# 1 83.1786 43.6679 28.0164 0.0000 0.0000 0.0000
# 2 43.6679 83.1786 28.0164 0.0000 0.0000 0.0000
# 3 28.0164 28.0164 76.1043 0.0000 0.0000 0.0000
# 4 0.0000 0.0000 0.0000 20.8983 0.0000 0.0000
# 5 0.0000 0.0000 0.0000 0.0000 20.8983 0.0000
# 6 0.0000 0.0000 0.0000 0.0000 0.0000 19.7554
#
#
#
# Elastic Compliance Matrix: (Units=1/GPa)
#
#
# Indices 1 2 3 4 5 6 
#
# 1 0.017362 -0.007948 -0.003466 0.000000 0.000000 0.000000
# 2 -0.007948 0.017362 -0.003466 0.000000 0.000000 0.000000
# 3 -0.003466 -0.003466 0.015692 0.000000 0.000000 0.000000
# 4 0.000000 0.000000 0.000000 0.047851 0.000000 0.000000
# 5 0.000000 0.000000 0.000000 0.000000 0.047851 0.000000
# 6 0.000000 0.000000 0.000000 0.000000 0.000000 0.050619
#
#
# Mechanical properties :
#
#
# Convention : Reuss Voigt Hill
#
# Bulk Modulus (GPa) = 48.40857 49.09586 48.75222
# Shear Modulus (GPa) = 21.42424 21.82778 21.62601
#
# Velocity S-wave (km/s) = 3.52945 3.56253 3.54603
# Velocity P-wave (km/s) = 6.69001 6.74305 6.71658
#
# Compressibility (1/GPa) = 0.02065750
#
# Stress axis : x y z
#
# Youngs Moduli (GPa) = 57.59695 57.59695 63.72846
#
# Poissons Ratio (x) = 0.45775 0.22087
# Poissons Ratio (y) = 0.45775 0.22087
# Poissons Ratio (z) = 0.19962 0.19962
#
# Static dielectric constant tensor:
#      x y z
#    x 3.177030 0.000000 0.000000 
#    y 0.000000 3.177030 0.000000 
#    z 0.000000 0.000000 3.421200 
# 
# 
# High freq. dielectric constant tensor:
#      x y z
#    x 1.648810 0.000000 0.000000 
#    y 0.000000 1.648810 0.000000 
#    z 0.000000 0.000000 1.653290 
# 
# From -- ./inp_files/8057.got.cif
#   From: 2010.03.12/outbox.cif.g09.slc.cpg/sg191_5_cif.got.tgz:8057.got - 2010.04.01 12:09:02.
