data_PCOD8328882
_publ_section_title
;
Structure prediction by ZEFSAII (Michael W. Deem and Ramdas Pophale) SiO2 
 PCOD8328882
Probable space group: P 6/M M M
;
_chemical_formula_sum "Si O2"
_cell_formula_units_Z 108
_cell_length_a 24.279016
_cell_length_b 24.279016
_cell_length_c 11.540574
_cell_angle_alpha 90.000000
_cell_angle_beta 90.000000
_cell_angle_gamma 120.000000
_cell_volume 5891.422980
_symmetry_space_group_name_H-M "P 6/M M M"
_symmetry_group_IT_number 191
_symmetry_cell_setting 'hexagonal'
loop_
_space_group_symop_operation_xyz
x,y,z
x-y,x,z
-y,x-y,z
-x,-y,z
-x+y,-x,z
y,-x+y,z
x-y,-y,-z
-x,-x+y,-z
y,x,-z
-y,-x,-z
-x+y,y,-z
x,x-y,-z
-x,-y,-z
-x+y,-x,-z
y,-x+y,-z
x,y,-z
x-y,x,-z
-y,x-y,-z
-x+y,y,z
x,x-y,z
-y,-x,z
y,x,z
x-y,-y,z
-x,-x+y,z
loop_
_atom_site_type_symbol
_atom_site_label
_atom_site_fract_x
_atom_site_fract_y
_atom_site_fract_z
Si Si1 0.659252 0.538516 0.288309
Si Si2 0.755259 0.000000 0.770761
Si Si3 0.537982 0.332100 0.500000
Si Si4 0.758794 0.644521 0.124562
Si Si5 0.871117 0.000000 0.636666
Si Si6 0.537819 0.075637 0.862840
Si Si7 0.354426 0.000000 0.623917
O O1 0.677443 0.500246 0.379962
O O2 0.720256 0.592256 0.221338
O O3 0.607681 0.496033 0.192547
O O4 0.632705 0.574650 0.364498
O O5 0.782405 0.064291 0.844028
O O6 0.696955 0.000000 0.706619
O O7 0.811254 0.000000 0.696655
O O8 0.597985 0.402016 0.500000
O O9 0.560107 0.280054 0.500000
O O10 0.821209 0.642417 0.104123
O O11 0.721632 0.628495 0.000000
O O12 0.874534 0.937267 0.673264
O O13 0.860492 0.000000 0.500000
O O14 0.500000 0.000000 0.836554
O O15 0.543994 0.087987 0.000000
O O16 0.325972 0.000000 0.500000
#
# Coordination Sequence:
#
# PCOD8328882 Si02
#       7
#    24  12  12  24  12  12  12
#     4  11  21  37  58  84 116 149 187 231 285 348
#     4  10  20  33  55  81 115 148 189 236 293 347
#     4  12  25  41  61  83 111 149 200 249 301 341
#     4  10  21  37  56  81 113 149 189 231 283 348
#     4  10  20  35  55  80 113 157 209 258 302 344
#     4  11  22  35  57  91 121 150 187 229 283 351
#     4  10  19  32  53  83 116 146 177 215 275 361
#
# _framework density 18.331734999999998
#
# number of rings (size 3 to 8) (size 9 to 14) (size 15 to 20)
#    0.000    1.444    3.333    2.889    0.000    0.444 
#    0.000    1.667    0.000    0.000    0.000    0.000 
#    0.000    5.333    0.000    0.000    0.000    0.000 
#
# Total GULP energy -1337972.447082 kJ/mol
# GULP energy per Si atom -12388.633769 kJ/mol
# Density = 1.829001 g / cm^3
# Si number density = 18.331735 Si / 1000 Ang^3
#
#
#
# Elastic Constant Matrix: (Units=GPa)
#
#
# Indices 1 2 3 4 5 6 
#
# 1 94.8143 29.2980 32.1075 0.0000 0.0000 0.0000
# 2 29.2980 94.8143 32.1075 0.0000 0.0000 0.0000
# 3 32.1075 32.1075 103.8818 0.0000 0.0000 0.0000
# 4 0.0000 0.0000 0.0000 46.2428 0.0000 0.0000
# 5 0.0000 0.0000 0.0000 0.0000 46.2428 0.0000
# 6 0.0000 0.0000 0.0000 0.0000 0.0000 32.7581
#
#
#
# Elastic Compliance Matrix: (Units=1/GPa)
#
#
# Indices 1 2 3 4 5 6 
#
# 1 0.012427 -0.002836 -0.002964 0.000000 0.000000 0.000000
# 2 -0.002836 0.012427 -0.002964 0.000000 0.000000 0.000000
# 3 -0.002964 -0.002964 0.011459 0.000000 0.000000 0.000000
# 4 0.000000 0.000000 0.000000 0.021625 0.000000 0.000000
# 5 0.000000 0.000000 0.000000 0.000000 0.021625 0.000000
# 6 0.000000 0.000000 0.000000 0.000000 0.000000 0.030527
#
#
# Mechanical properties :
#
#
# Convention : Reuss Voigt Hill
#
# Bulk Modulus (GPa) = 53.23885 53.39294 53.31590
# Shear Modulus (GPa) = 37.34667 38.38191 37.86429
#
# Velocity S-wave (km/s) = 4.51851 4.58071 4.54971
# Velocity P-wave (km/s) = 7.50517 7.56084 7.53306
#
# Compressibility (1/GPa) = 0.01878327
#
# Stress axis : x y z
#
# Youngs Moduli (GPa) = 80.46885 80.46885 87.26957
#
# Poissons Ratio (x) = 0.22823 0.25870
# Poissons Ratio (y) = 0.22823 0.25870
# Poissons Ratio (z) = 0.23854 0.23854
#
# Static dielectric constant tensor:
#      x y z
#    x 3.371170 0.000000 0.000000 
#    y 0.000000 3.371170 0.000000 
#    z 0.000000 0.000000 3.610800 
# 
# 
# High freq. dielectric constant tensor:
#      x y z
#    x 1.710520 0.000000 0.000000 
#    y 0.000000 1.710520 0.000000 
#    z 0.000000 0.000000 1.722770 
# 
# From -- ./inp_files/3032.got.cif
#   From: 2010.03.12/outbox.cif.g09.slc.cpg/sg191_2_cif.got.tgz:3032.got - 2010.04.01 12:09:02.
