data_PCOD8328894
_publ_section_title
;
Structure prediction by ZEFSAII (Michael W. Deem and Ramdas Pophale) SiO2 
 PCOD8328894
Probable space group: P 6/M M M
;
_chemical_formula_sum "Si O2"
_cell_formula_units_Z 72
_cell_length_a 21.223976
_cell_length_b 21.223976
_cell_length_c 10.245054
_cell_angle_alpha 90.000000
_cell_angle_beta 90.000000
_cell_angle_gamma 120.000000
_cell_volume 3996.670779
_symmetry_space_group_name_H-M "P 6/M M M"
_symmetry_group_IT_number 191
_symmetry_cell_setting 'hexagonal'
loop_
_space_group_symop_operation_xyz
x,y,z
x-y,x,z
-y,x-y,z
-x,-y,z
-x+y,-x,z
y,-x+y,z
x-y,-y,-z
-x,-x+y,-z
y,x,-z
-y,-x,-z
-x+y,y,-z
x,x-y,-z
-x,-y,-z
-x+y,-x,-z
y,-x+y,-z
x,y,-z
x-y,x,-z
-y,x-y,-z
-x+y,y,z
x,x-y,z
-y,-x,z
y,x,z
x-y,-y,z
-x,-x+y,z
loop_
_atom_site_type_symbol
_atom_site_label
_atom_site_fract_x
_atom_site_fract_y
_atom_site_fract_z
Si Si1 0.334539 0.813962 0.500000
Si Si2 0.140286 0.711324 0.257588
Si Si3 0.483237 0.815685 0.000000
Si Si4 0.287140 0.287140 0.343304
Si Si5 0.858548 0.858548 0.345456
O O1 0.261104 0.738897 0.500000
O O2 0.397675 0.795350 0.500000
O O3 0.339998 0.859918 0.627365
O O4 0.207989 0.792012 0.268056
O O5 0.141098 0.673001 0.123635
O O6 0.069103 0.717481 0.272941
O O7 0.408471 0.816941 0.000000
O O8 0.463514 0.731757 0.000000
O O9 0.297519 0.297519 0.500000
O O10 0.214104 0.214104 0.305173
O O11 0.928310 0.856619 0.287396
O O12 0.864716 0.864716 0.500000
#
# Coordination Sequence:
#
# PCOD8328894 Si02
#       5
#    12  24  12  12  12
#     4  10  19  33  53  77 104 134 174 225 275 323
#     4  10  21  36  55  80 110 141 183 230 269 327
#     4  10  21  39  61  83 108 140 180 231 287 335
#     4  11  20  34  54  77 108 155 192 219 271 333
#     4   9  17  28  48  78 112 145 182 227 273 319
#
# _framework density 18.014994000000002
#
# number of rings (size 3 to 8) (size 9 to 14) (size 15 to 20)
#    0.000    2.000    1.667    2.500    0.000    2.667 
#    0.000    8.333    0.000    0.000    0.000    0.000 
#    0.000    0.000    0.000   12.667    0.000    4.000 
#
# Total GULP energy -892816.926806 kJ/mol
# GULP energy per Si atom -12400.235095 kJ/mol
# Density = 1.797399 g / cm^3
# Si number density = 18.014994 Si / 1000 Ang^3
#
#
#
# Elastic Constant Matrix: (Units=GPa)
#
#
# Indices 1 2 3 4 5 6 
#
# 1 118.6051 54.4507 55.1779 0.0000 0.0000 0.0000
# 2 54.4507 118.6051 55.1779 0.0000 0.0000 0.0000
# 3 55.1779 55.1779 132.5235 0.0000 0.0000 0.0000
# 4 0.0000 0.0000 0.0000 2.5596 0.0000 0.0000
# 5 0.0000 0.0000 0.0000 0.0000 2.5596 0.0000
# 6 0.0000 0.0000 0.0000 0.0000 0.0000 32.0772
#
#
#
# Elastic Compliance Matrix: (Units=1/GPa)
#
#
# Indices 1 2 3 4 5 6 
#
# 1 0.011727 -0.003860 -0.003276 0.000000 0.000000 0.000000
# 2 -0.003860 0.011727 -0.003276 0.000000 0.000000 0.000000
# 3 -0.003276 -0.003276 0.010274 0.000000 0.000000 0.000000
# 4 0.000000 0.000000 0.000000 0.390681 0.000000 0.000000
# 5 0.000000 0.000000 0.000000 0.000000 0.390681 0.000000
# 6 0.000000 0.000000 0.000000 0.000000 0.000000 0.031175
#
#
# Mechanical properties :
#
#
# Convention : Reuss Voigt Hill
#
# Bulk Modulus (GPa) = 77.48592 77.70518 77.59555
# Shear Modulus (GPa) = 5.73795 21.10109 13.41952
#
# Velocity S-wave (km/s) = 1.78662 3.42615 2.73226
# Velocity P-wave (km/s) = 6.88195 7.67324 7.28834
#
# Compressibility (1/GPa) = 0.01290557
#
# Stress axis : x y z
#
# Youngs Moduli (GPa) = 85.27056 85.27056 97.33713
#
# Poissons Ratio (x) = 0.32915 0.31884
# Poissons Ratio (y) = 0.32915 0.31884
# Poissons Ratio (z) = 0.27932 0.27932
#
# Static dielectric constant tensor:
#      x y z
#    x 3.328360 0.000000 0.000000 
#    y 0.000000 3.328360 0.000000 
#    z 0.000000 0.000000 3.783500 
# 
# 
# High freq. dielectric constant tensor:
#      x y z
#    x 1.702160 0.000000 0.000000 
#    y 0.000000 1.702160 0.000000 
#    z 0.000000 0.000000 1.683630 
# 
# From -- ./inp_files/2377.got.cif
#   From: 2010.03.12/outbox.cif.g09.slc.cpg/sg191_2_cif.got.tgz:2377.got - 2010.04.01 12:09:02.
