data_PCOD8328017
_publ_section_title
;
Structure prediction by ZEFSAII (Michael W. Deem and Ramdas Pophale) SiO2 
 PCOD8328017
Probable space group: P -6 2 C
;
_chemical_formula_sum "Si O2"
_cell_formula_units_Z 52
_cell_length_a 14.009215
_cell_length_b 14.009215
_cell_length_c 13.766384
_cell_angle_alpha 90.000000
_cell_angle_beta 90.000000
_cell_angle_gamma 120.000000
_cell_volume 2339.796636
_symmetry_space_group_name_H-M "P -6 2 C"
_symmetry_group_IT_number 190
_symmetry_cell_setting 'hexagonal'
loop_
_space_group_symop_operation_xyz
x,y,z
-x+y,-x,1/2-z
-y,x-y,z
x,y,1/2-z
-x+y,-x,z
-y,x-y,1/2-z
x-y,-y,-z
-x,-x+y,-z
y,x,-z
y,x,1/2+z
x-y,-y,1/2+z
-x,-x+y,1/2+z
loop_
_atom_site_type_symbol
_atom_site_label
_atom_site_fract_x
_atom_site_fract_y
_atom_site_fract_z
Si Si1 0.444465 0.209689 0.955253
Si Si2 0.000000 0.000000 0.386939
Si Si3 0.928571 0.756715 0.643783
Si Si4 0.462061 0.900098 0.361879
Si Si5 0.894189 0.588013 0.361287
O O1 0.313799 0.146098 0.933102
O O2 0.487239 0.124457 0.935567
O O3 0.502842 0.311571 0.880777
O O4 0.467329 0.256180 0.066342
O O5 0.068796 0.122660 0.348018
O O6 0.000000 0.000000 0.500000
O O7 0.892641 0.700068 0.750000
O O8 0.041635 0.759878 0.614986
O O9 0.424614 0.891970 0.250000
O O10 0.564328 0.022500 0.383789
O O11 0.851456 0.562926 0.250000
#
# Coordination Sequence:
#
# PCOD8328017 Si02
#       5
#    12   4  12  12  12
#     4  11  20  37  62  89 120 159 202 251 306 360
#     4  12  22  35  55  84 121 161 197 236 289 360
#     4  10  20  36  58  85 119 158 197 242 295 355
#     4  10  19  33  59  92 119 152 202 258 307 355
#     4   9  20  39  60  84 121 162 199 245 307 370
#
# _framework density 22.224153000000001
#
# number of rings (size 3 to 8) (size 9 to 14) (size 15 to 20)
#    0.000    1.846    0.000    8.769    0.000    0.000 
#    0.000    8.077    0.000   12.462    0.000    0.000 
#    0.000    0.000    0.000    0.000    0.000    0.000 
#
# Total GULP energy -644677.295883 kJ/mol
# GULP energy per Si atom -12397.640305 kJ/mol
# Density = 2.217357 g / cm^3
# Si number density = 22.224153 Si / 1000 Ang^3
#
#
#
# Elastic Constant Matrix: (Units=GPa)
#
#
# Indices 1 2 3 4 5 6 
#
# 1 91.2532 52.2440 48.5789 0.0000 0.0000 0.0000
# 2 52.2440 91.2532 48.5789 0.0000 0.0000 0.0000
# 3 48.5789 48.5789 132.9654 0.0000 0.0000 0.0000
# 4 0.0000 0.0000 0.0000 35.6783 0.0000 0.0000
# 5 0.0000 0.0000 0.0000 0.0000 35.6783 0.0000
# 6 0.0000 0.0000 0.0000 0.0000 0.0000 19.5046
#
#
#
# Elastic Compliance Matrix: (Units=1/GPa)
#
#
# Indices 1 2 3 4 5 6 
#
# 1 0.017447 -0.008188 -0.003383 0.000000 0.000000 0.000000
# 2 -0.008188 0.017447 -0.003383 0.000000 0.000000 0.000000
# 3 -0.003383 -0.003383 0.009993 0.000000 0.000000 0.000000
# 4 0.000000 0.000000 0.000000 0.028028 0.000000 0.000000
# 5 0.000000 0.000000 0.000000 0.000000 0.028028 0.000000
# 6 0.000000 0.000000 0.000000 0.000000 0.000000 0.051270
#
#
# Mechanical properties :
#
#
# Convention : Reuss Voigt Hill
#
# Bulk Modulus (GPa) = 66.75737 68.25279 67.50508
# Shear Modulus (GPa) = 26.72173 29.24357 27.98265
#
# Velocity S-wave (km/s) = 3.47129 3.63139 3.55224
# Velocity P-wave (km/s) = 6.79484 6.95417 6.87497
#
# Compressibility (1/GPa) = 0.01497962
#
# Stress axis : x y z
#
# Youngs Moduli (GPa) = 57.31613 57.31613 100.07406
#
# Poissons Ratio (x) = 0.46930 0.33854
# Poissons Ratio (y) = 0.46930 0.33854
# Poissons Ratio (z) = 0.19389 0.19389
#
# Static dielectric constant tensor:
#      x y z
#    x 3.615400 0.000000 0.000000 
#    y 0.000000 3.615400 0.000000 
#    z 0.000000 0.000000 4.245900 
# 
# 
# High freq. dielectric constant tensor:
#      x y z
#    x 1.849950 0.000000 0.000000 
#    y 0.000000 1.849950 0.000000 
#    z 0.000000 0.000000 1.895430 
# 
# From -- ./inp_files/2718.got.cif
#   From: 2010.06.25/outbox.cif.g09.slc.cpg/sg190_2_cif.got.tgz:2718.got - 2010.06.28 13:08:06.
