data_PCOD8328661
_publ_section_title
;
Structure prediction by ZEFSAII (Michael W. Deem and Ramdas Pophale) SiO2 
 PCOD8328661
Probable space group: P 6/M M M
;
_chemical_formula_sum "Si O2"
_cell_formula_units_Z 132
_cell_length_a 18.358521
_cell_length_b 18.358521
_cell_length_c 28.016656
_cell_angle_alpha 90.000000
_cell_angle_beta 90.000000
_cell_angle_gamma 120.000000
_cell_volume 8177.533099
_symmetry_space_group_name_H-M "P 6/M M M"
_symmetry_group_IT_number 191
_symmetry_cell_setting 'hexagonal'
loop_
_space_group_symop_operation_xyz
x,y,z
x-y,x,z
-y,x-y,z
-x,-y,z
-x+y,-x,z
y,-x+y,z
x-y,-y,-z
-x,-x+y,-z
y,x,-z
-y,-x,-z
-x+y,y,-z
x,x-y,-z
-x,-y,-z
-x+y,-x,-z
y,-x+y,-z
x,y,-z
x-y,x,-z
-y,x-y,-z
-x+y,y,z
x,x-y,z
-y,-x,z
y,x,z
x-y,-y,z
-x,-x+y,z
loop_
_atom_site_type_symbol
_atom_site_label
_atom_site_fract_x
_atom_site_fract_y
_atom_site_fract_z
Si Si1 0.096891 0.630587 0.223220
Si Si2 0.369502 0.469052 0.946765
Si Si3 0.901254 0.639081 0.135864
Si Si4 0.094634 0.739149 0.396144
Si Si5 0.249850 0.908287 0.500000
Si Si6 0.331913 0.832125 0.676029
O O1 0.121249 0.560625 0.206703
O O2 0.116555 0.696430 0.181296
O O3 0.149147 0.680652 0.269463
O O4 0.000000 0.584956 0.237823
O O5 0.432416 0.567585 0.933492
O O6 0.423778 0.423778 0.944912
O O7 0.293569 0.422551 0.909793
O O8 0.332333 0.462384 0.000000
O O9 0.839610 0.679219 0.138529
O O10 0.000000 0.712553 0.133087
O O11 0.162696 0.837305 0.385954
O O12 0.106567 0.712912 0.450503
O O13 0.106350 0.679342 0.359597
O O14 0.000000 0.723271 0.389550
O O15 0.150125 0.849876 0.500000
O O16 0.261304 0.000000 0.500000
O O17 0.424304 0.848608 0.667006
O O18 0.264169 0.735832 0.664648
#
# Coordination Sequence:
#
# PCOD8328661 Si02
#       6
#    24  24  24  24  12  24
#     4   9  17  29  46  67  88 110 138 174 217 265
#     4   8  14  26  45  67  88 110 137 170 211 260
#     4  10  19  30  45  65  89 117 151 189 225 261
#     4   9  17  29  46  66  87 112 142 177 216 258
#     4   8  14  26  43  62  83 107 137 173 214 258
#     4  10  19  30  44  63  89 119 149 179 212 251
#
# _framework density 16.141787000000001
#
# number of rings (size 3 to 8) (size 9 to 14) (size 15 to 20)
#    0.000    2.909    0.000    2.364    0.000    3.636 
#    0.000    0.455    0.000    6.091    0.000    3.818 
#    0.000    0.000    0.000   10.364    0.000    4.000 
#
# Total GULP energy -1635348.799401 kJ/mol
# GULP energy per Si atom -12389.006056 kJ/mol
# Density = 1.610505 g / cm^3
# Si number density = 16.141787 Si / 1000 Ang^3
#
#
#
# Elastic Constant Matrix: (Units=GPa)
#
#
# Indices 1 2 3 4 5 6 
#
# 1 76.0712 43.6938 45.4789 0.0000 0.0000 0.0000
# 2 43.6938 76.0712 45.4789 0.0000 0.0000 0.0000
# 3 45.4789 45.4789 91.5805 0.0000 0.0000 0.0000
# 4 0.0000 0.0000 0.0000 20.2554 0.0000 0.0000
# 5 0.0000 0.0000 0.0000 0.0000 20.2554 0.0000
# 6 0.0000 0.0000 0.0000 0.0000 0.0000 16.1887
#
#
#
# Elastic Compliance Matrix: (Units=1/GPa)
#
#
# Indices 1 2 3 4 5 6 
#
# 1 0.022146 -0.008740 -0.006657 0.000000 0.000000 0.000000
# 2 -0.008740 0.022146 -0.006657 0.000000 0.000000 0.000000
# 3 -0.006657 -0.006657 0.017531 0.000000 0.000000 0.000000
# 4 0.000000 0.000000 0.000000 0.049370 0.000000 0.000000
# 5 0.000000 0.000000 0.000000 0.000000 0.049370 0.000000
# 6 0.000000 0.000000 0.000000 0.000000 0.000000 0.061772
#
#
# Mechanical properties :
#
#
# Convention : Reuss Voigt Hill
#
# Bulk Modulus (GPa) = 56.45367 57.00293 56.72830
# Shear Modulus (GPa) = 18.35893 18.61132 18.48512
#
# Velocity S-wave (km/s) = 3.37613 3.39925 3.38771
# Velocity P-wave (km/s) = 7.08853 7.12721 7.10789
#
# Compressibility (1/GPa) = 0.01771364
#
# Stress axis : x y z
#
# Youngs Moduli (GPa) = 45.15549 45.15549 57.04070
#
# Poissons Ratio (x) = 0.39466 0.37973
# Poissons Ratio (y) = 0.39466 0.37973
# Poissons Ratio (z) = 0.30061 0.30061
#
# Static dielectric constant tensor:
#      x y z
#    x 2.899120 0.000000 0.000000 
#    y 0.000000 2.899120 0.000000 
#    z 0.000000 0.000000 3.375660 
# 
# 
# High freq. dielectric constant tensor:
#      x y z
#    x 1.596890 0.000000 0.000000 
#    y 0.000000 1.596890 0.000000 
#    z 0.000000 0.000000 1.638910 
# 
# From -- ./inp_files/9776.got.cif
#   From: 2010.03.12/outbox.cif.g09.slc.cpg/sg191_5_cif.got.tgz:9776.got - 2010.04.01 12:09:02.
