data_PCOD8328101
_publ_section_title
;
Structure prediction by ZEFSAII (Michael W. Deem and Ramdas Pophale) SiO2 
 PCOD8328101
Probable space group: P -6 2 C
;
_chemical_formula_sum "Si O2"
_cell_formula_units_Z 42
_cell_length_a 10.738527
_cell_length_b 10.738527
_cell_length_c 18.257845
_cell_angle_alpha 90.000000
_cell_angle_beta 90.000000
_cell_angle_gamma 120.000000
_cell_volume 1823.348039
_symmetry_space_group_name_H-M "P -6 2 C"
_symmetry_group_IT_number 190
_symmetry_cell_setting 'hexagonal'
loop_
_space_group_symop_operation_xyz
x,y,z
-x+y,-x,1/2-z
-y,x-y,z
x,y,1/2-z
-x+y,-x,z
-y,x-y,1/2-z
x-y,-y,-z
-x,-x+y,-z
y,x,-z
y,x,1/2+z
x-y,-y,1/2+z
-x,-x+y,1/2+z
loop_
_atom_site_type_symbol
_atom_site_label
_atom_site_fract_x
_atom_site_fract_y
_atom_site_fract_z
Si Si1 0.059877 0.302813 0.409119
Si Si2 0.746200 0.065455 0.093552
Si Si3 0.504224 0.504224 0.000000
Si Si4 0.384898 0.084697 0.750000
Si Si5 0.615707 0.979298 0.250000
O O1 0.903973 0.179449 0.436929
O O2 0.092600 0.455118 0.444311
O O3 0.189372 0.278126 0.431602
O O4 0.032000 0.289546 0.322426
O O5 0.633422 0.098775 0.051361
O O6 0.716865 0.061884 0.180554
O O7 0.485263 0.014403 0.750000
O O8 0.451435 0.257433 0.750000
#
# Coordination Sequence:
#
# PCOD8328101 Si02
#       5
#    12  12   6   6   6
#     4  11  24  45  70  99 131 172 223 276 331 389
#     4  11  24  45  70  99 131 172 223 276 331 389
#     4  12  24  42  62  96 136 174 212 260 324 402
#     4  10  20  40  66  98 132 169 217 272 332 390
#     4  10  20  40  66  98 132 169 217 272 332 390
#
# _framework density 23.034551
#
# number of rings (size 3 to 8) (size 9 to 14) (size 15 to 20)
#    0.000    1.143    2.857    3.429    0.000    0.000 
#   13.714    5.714    0.000    0.000    0.000    0.000 
#    0.000    0.000    0.000    0.000    0.000    0.000 
#
# Total GULP energy -520413.209990 kJ/mol
# GULP energy per Si atom -12390.790714 kJ/mol
# Density = 2.298212 g / cm^3
# Si number density = 23.034551 Si / 1000 Ang^3
#
#
#
# Elastic Constant Matrix: (Units=GPa)
#
#
# Indices 1 2 3 4 5 6 
#
# 1 116.3435 52.7864 21.8979 0.0000 0.0000 0.0000
# 2 52.7864 116.3435 21.8979 0.0000 0.0000 0.0000
# 3 21.8979 21.8979 110.7814 0.0000 0.0000 0.0000
# 4 0.0000 0.0000 0.0000 29.5323 0.0000 0.0000
# 5 0.0000 0.0000 0.0000 0.0000 29.5323 0.0000
# 6 0.0000 0.0000 0.0000 0.0000 0.0000 31.7785
#
#
#
# Elastic Compliance Matrix: (Units=1/GPa)
#
#
# Indices 1 2 3 4 5 6 
#
# 1 0.010983 -0.004751 -0.001232 0.000000 0.000000 0.000000
# 2 -0.004751 0.010983 -0.001232 0.000000 0.000000 0.000000
# 3 -0.001232 -0.001232 0.009514 0.000000 0.000000 0.000000
# 4 0.000000 0.000000 0.000000 0.033861 0.000000 0.000000
# 5 0.000000 0.000000 0.000000 0.000000 0.033861 0.000000
# 6 0.000000 0.000000 0.000000 0.000000 0.000000 0.031468
#
#
# Mechanical properties :
#
#
# Convention : Reuss Voigt Hill
#
# Bulk Modulus (GPa) = 58.65175 59.62587 59.13881
# Shear Modulus (GPa) = 33.16040 34.62768 33.89404
#
# Velocity S-wave (km/s) = 3.79831 3.88144 3.84010
# Velocity P-wave (km/s) = 6.68985 6.78447 6.73732
#
# Compressibility (1/GPa) = 0.01704979
#
# Stress axis : x y z
#
# Youngs Moduli (GPa) = 91.05196 91.05196 105.11097
#
# Poissons Ratio (x) = 0.43260 0.12947
# Poissons Ratio (y) = 0.43260 0.12947
# Poissons Ratio (z) = 0.11216 0.11216
#
# Static dielectric constant tensor:
#      x y z
#    x 3.906310 0.000000 0.000000 
#    y 0.000000 3.906310 0.000000 
#    z 0.000000 0.000000 4.681450 
# 
# 
# High freq. dielectric constant tensor:
#      x y z
#    x 1.890440 0.000000 0.000000 
#    y 0.000000 1.890440 0.000000 
#    z 0.000000 0.000000 1.961380 
# 
# From -- ./inp_files/4105.got.cif
#   From: 2010.06.25/outbox.cif.g09.slc.cpg/sg190_3_cif.got.tgz:4105.got - 2010.06.28 13:08:06.
