data_PCOD8328649
_publ_section_title
;
Structure prediction by ZEFSAII (Michael W. Deem and Ramdas Pophale) SiO2 
 PCOD8328649
Probable space group: P 6/M M M
;
_chemical_formula_sum "Si O2"
_cell_formula_units_Z 144
_cell_length_a 24.458023
_cell_length_b 24.458023
_cell_length_c 17.492995
_cell_angle_alpha 90.000000
_cell_angle_beta 90.000000
_cell_angle_gamma 120.000000
_cell_volume 9062.280527
_symmetry_space_group_name_H-M "P 6/M M M"
_symmetry_group_IT_number 191
_symmetry_cell_setting 'hexagonal'
loop_
_space_group_symop_operation_xyz
x,y,z
x-y,x,z
-y,x-y,z
-x,-y,z
-x+y,-x,z
y,-x+y,z
x-y,-y,-z
-x,-x+y,-z
y,x,-z
-y,-x,-z
-x+y,y,-z
x,x-y,-z
-x,-y,-z
-x+y,-x,-z
y,-x+y,-z
x,y,-z
x-y,x,-z
-y,x-y,-z
-x+y,y,z
x,x-y,z
-y,-x,z
y,x,z
x-y,-y,z
-x,-x+y,z
loop_
_atom_site_type_symbol
_atom_site_label
_atom_site_fract_x
_atom_site_fract_y
_atom_site_fract_z
Si Si1 0.666283 0.453248 0.170009
Si Si2 0.735722 0.929087 0.089585
Si Si3 0.700346 0.631515 0.814911
Si Si4 0.606011 0.089651 0.912354
Si Si5 0.473242 0.071859 0.590038
Si Si6 0.709595 0.163713 0.696283
O O1 0.734651 0.469301 0.143465
O O2 0.621062 0.378939 0.182341
O O3 0.642568 0.478196 0.100447
O O4 0.668877 0.485118 0.251167
O O5 0.756677 0.878339 0.115086
O O6 0.668707 0.910797 0.126812
O O7 0.790471 0.000000 0.113094
O O8 0.723563 0.925158 0.000000
O O9 0.678948 0.678948 0.779887
O O10 0.638232 0.576908 0.857830
O O11 0.726620 0.607276 0.746952
O O12 0.531526 0.063052 0.892201
O O13 0.612366 0.073985 0.000000
O O14 0.468926 0.077941 0.500000
O O15 0.543342 0.086684 0.613341
O O16 0.457881 0.122999 0.626620
O O17 0.422709 0.000000 0.616202
O O18 0.774804 0.225197 0.667453
#
# Coordination Sequence:
#
# PCOD8328649 Si02
#       6
#    24  24  24  24  24  24
#     4   9  17  28  41  56  75 103 138 175 215 260
#     4   9  17  29  45  64  86 113 145 180 217 258
#     4  10  19  30  44  62  84 112 146 179 213 256
#     4   9  18  30  40  54  79 108 141 184 231 272
#     4   9  18  33  52  71  90 114 144 176 210 252
#     4  10  19  30  45  66  90 112 136 170 214 258
#
# _framework density 15.890040000000001
#
# number of rings (size 3 to 8) (size 9 to 14) (size 15 to 20)
#    0.000    2.667    0.000    2.667    0.000    3.333 
#    0.000    0.833    0.000    1.500    0.000    1.167 
#    0.000    0.000    0.000    0.000    0.000    0.000 
#
# Total GULP energy -1784304.691503 kJ/mol
# GULP energy per Si atom -12391.004802 kJ/mol
# Density = 1.585387 g / cm^3
# Si number density = 15.890040 Si / 1000 Ang^3
#
#
#
# Elastic Constant Matrix: (Units=GPa)
#
#
# Indices 1 2 3 4 5 6 
#
# 1 88.4516 55.3835 31.9546 0.0000 0.0000 0.0000
# 2 55.3835 88.4516 31.9546 0.0000 0.0000 0.0000
# 3 31.9546 31.9546 43.6806 0.0000 0.0000 0.0000
# 4 0.0000 0.0000 0.0000 18.2114 0.0000 0.0000
# 5 0.0000 0.0000 0.0000 0.0000 18.2114 0.0000
# 6 0.0000 0.0000 0.0000 0.0000 0.0000 16.5340
#
#
#
# Elastic Compliance Matrix: (Units=1/GPa)
#
#
# Indices 1 2 3 4 5 6 
#
# 1 0.020271 -0.009970 -0.007535 0.000000 0.000000 0.000000
# 2 -0.009970 0.020271 -0.007535 0.000000 0.000000 0.000000
# 3 -0.007535 -0.007535 0.033919 0.000000 0.000000 0.000000
# 4 0.000000 0.000000 0.000000 0.054911 0.000000 0.000000
# 5 0.000000 0.000000 0.000000 0.000000 0.054911 0.000000
# 6 0.000000 0.000000 0.000000 0.000000 0.000000 0.060481
#
#
# Mechanical properties :
#
#
# Convention : Reuss Voigt Hill
#
# Bulk Modulus (GPa) = 41.02046 51.01879 46.01963
# Shear Modulus (GPa) = 16.50329 17.34411 16.92370
#
# Velocity S-wave (km/s) = 3.22622 3.30738 3.26705
# Velocity P-wave (km/s) = 6.30470 6.83828 6.57691
#
# Compressibility (1/GPa) = 0.02437808
#
# Stress axis : x y z
#
# Youngs Moduli (GPa) = 49.33253 49.33253 29.48237
#
# Poissons Ratio (x) = 0.49185 0.22216
# Poissons Ratio (y) = 0.49185 0.22216
# Poissons Ratio (z) = 0.37174 0.37174
#
# Static dielectric constant tensor:
#      x y z
#    x 3.105590 0.000000 0.000000 
#    y 0.000000 3.105590 0.000000 
#    z 0.000000 0.000000 2.725510 
# 
# 
# High freq. dielectric constant tensor:
#      x y z
#    x 1.608630 0.000000 0.000000 
#    y 0.000000 1.608630 0.000000 
#    z 0.000000 0.000000 1.581480 
# 
# From -- ./inp_files/6562.got.cif
#   From: 2010.03.12/outbox.cif.g09.slc.cpg/sg191_4_cif.got.tgz:6562.got - 2010.04.01 12:09:02.
