data_PCOD8328764
_publ_section_title
;
Structure prediction by ZEFSAII (Michael W. Deem and Ramdas Pophale) SiO2 
 PCOD8328764
Probable space group: P 6/M M M
;
_chemical_formula_sum "Si O2"
_cell_formula_units_Z 192
_cell_length_a 23.961314
_cell_length_b 23.961314
_cell_length_c 23.772565
_cell_angle_alpha 90.000000
_cell_angle_beta 90.000000
_cell_angle_gamma 120.000000
_cell_volume 11820.284674
_symmetry_space_group_name_H-M "P 6/M M M"
_symmetry_group_IT_number 191
_symmetry_cell_setting 'hexagonal'
loop_
_space_group_symop_operation_xyz
x,y,z
x-y,x,z
-y,x-y,z
-x,-y,z
-x+y,-x,z
y,-x+y,z
x-y,-y,-z
-x,-x+y,-z
y,x,-z
-y,-x,-z
-x+y,y,-z
x,x-y,-z
-x,-y,-z
-x+y,-x,-z
y,-x+y,-z
x,y,-z
x-y,x,-z
-y,x-y,-z
-x+y,y,z
x,x-y,z
-y,-x,z
y,x,z
x-y,-y,z
-x,-x+y,z
loop_
_atom_site_type_symbol
_atom_site_label
_atom_site_fract_x
_atom_site_fract_y
_atom_site_fract_z
Si Si1 0.923460 0.362369 0.760446
Si Si2 0.684685 0.926421 0.752087
Si Si3 0.600317 0.736304 0.065477
Si Si4 0.923426 0.523177 0.358970
Si Si5 0.731095 0.926998 0.127979
Si Si6 0.620591 0.924313 0.562535
Si Si7 0.269767 0.074576 0.366506
Si Si8 0.600873 0.075382 0.881540
O O1 0.892732 0.284666 0.762970
O O2 0.896453 0.378506 0.704360
O O3 0.902641 0.384864 0.816417
O O4 0.000000 0.399153 0.758235
O O5 0.719787 0.916629 0.805258
O O6 0.701492 0.901752 0.695781
O O7 0.707075 0.000000 0.741206
O O8 0.579353 0.789677 0.079781
O O9 0.665201 0.752286 0.098458
O O10 0.544650 0.664912 0.082518
O O11 0.615170 0.737393 0.000000
O O12 0.902867 0.451434 0.380264
O O13 0.893813 0.554776 0.400923
O O14 0.000000 0.567720 0.357681
O O15 0.753336 0.876668 0.106588
O O16 0.786370 0.000000 0.113917
O O17 0.604923 0.893649 0.500000
O O18 0.671899 0.909801 0.591815
O O19 0.648983 0.000000 0.558192
O O20 0.240403 0.120202 0.384286
O O21 0.213684 0.000000 0.369424
O O22 0.543649 0.087297 0.902853
O O23 0.579547 0.000000 0.888763
#
# Coordination Sequence:
#
# PCOD8328764 Si02
#       8
#    24  24  24  24  24  24  24  24
#     4   9  14  24  41  64  93 120 147 178 216 263
#     4   9  15  26  45  65  88 117 147 183 226 275
#     4  10  21  35  49  66  92 127 163 196 230 273
#     4   9  15  23  38  60  87 120 152 177 203 244
#     4  10  19  31  48  69  92 119 152 192 238 288
#     4   9  17  28  40  57  84 117 152 186 220 264
#     4  10  19  31  47  66  88 116 153 197 244 294
#     4  10  19  30  48  74 100 124 150 186 233 279
#
# _framework density 16.243264
#
# number of rings (size 3 to 8) (size 9 to 14) (size 15 to 20)
#    0.000    2.500    2.500    1.125    0.000    3.250 
#    0.000    1.875    0.000    0.500    0.000    0.000 
#    0.000    3.000    0.000    6.625    0.000    1.875 
#
# Total GULP energy -2379321.313622 kJ/mol
# GULP energy per Si atom -12392.298508 kJ/mol
# Density = 1.620629 g / cm^3
# Si number density = 16.243264 Si / 1000 Ang^3
#
#
#
# Elastic Constant Matrix: (Units=GPa)
#
#
# Indices 1 2 3 4 5 6 
#
# 1 74.1278 45.8149 23.6396 0.0000 0.0000 0.0000
# 2 45.8149 74.1278 23.6396 0.0000 0.0000 0.0000
# 3 23.6396 23.6396 87.4070 0.0000 0.0000 0.0000
# 4 0.0000 0.0000 0.0000 11.4844 0.0000 0.0000
# 5 0.0000 0.0000 0.0000 0.0000 11.4844 0.0000
# 6 0.0000 0.0000 0.0000 0.0000 0.0000 14.1565
#
#
#
# Elastic Compliance Matrix: (Units=1/GPa)
#
#
# Indices 1 2 3 4 5 6 
#
# 1 0.022326 -0.012994 -0.002524 0.000000 0.000000 0.000000
# 2 -0.012994 0.022326 -0.002524 0.000000 0.000000 0.000000
# 3 -0.002524 -0.002524 0.012806 0.000000 0.000000 0.000000
# 4 0.000000 0.000000 0.000000 0.087075 0.000000 0.000000
# 5 0.000000 0.000000 0.000000 0.000000 0.087075 0.000000
# 6 0.000000 0.000000 0.000000 0.000000 0.000000 0.070639
#
#
# Mechanical properties :
#
#
# Convention : Reuss Voigt Hill
#
# Bulk Modulus (GPa) = 46.78445 46.87229 46.82837
# Shear Modulus (GPa) = 14.47372 16.92964 15.70168
#
# Velocity S-wave (km/s) = 2.98830 3.23190 3.11249
# Velocity P-wave (km/s) = 6.38526 6.54569 6.46597
#
# Compressibility (1/GPa) = 0.02137463
#
# Stress axis : x y z
#
# Youngs Moduli (GPa) = 44.79111 44.79111 78.08874
#
# Poissons Ratio (x) = 0.58200 0.19709
# Poissons Ratio (y) = 0.58200 0.19709
# Poissons Ratio (z) = 0.11305 0.11305
#
# Static dielectric constant tensor:
#      x y z
#    x 2.842520 0.000000 0.000000 
#    y 0.000000 2.842520 0.000000 
#    z 0.000000 0.000000 3.258120 
# 
# 
# High freq. dielectric constant tensor:
#      x y z
#    x 1.590260 0.000000 0.000000 
#    y 0.000000 1.590260 0.000000 
#    z 0.000000 0.000000 1.635090 
# 
# From -- ./inp_files/9313.got.cif
#   From: 2010.03.12/outbox.cif.g09.slc.cpg/sg191_5_cif.got.tgz:9313.got - 2010.04.01 12:09:02.
