data_PCOD8328552
_publ_section_title
;
Structure prediction by ZEFSAII (Michael W. Deem and Ramdas Pophale) SiO2 
 PCOD8328552
Probable space group: P 6/M M M
;
_chemical_formula_sum "Si O2"
_cell_formula_units_Z 168
_cell_length_a 29.068725
_cell_length_b 29.068725
_cell_length_c 14.071052
_cell_angle_alpha 90.000000
_cell_angle_beta 90.000000
_cell_angle_gamma 120.000000
_cell_volume 10296.963336
_symmetry_space_group_name_H-M "P 6/M M M"
_symmetry_group_IT_number 191
_symmetry_cell_setting 'hexagonal'
loop_
_space_group_symop_operation_xyz
x,y,z
x-y,x,z
-y,x-y,z
-x,-y,z
-x+y,-x,z
y,-x+y,z
x-y,-y,-z
-x,-x+y,-z
y,x,-z
-y,-x,-z
-x+y,y,-z
x,x-y,-z
-x,-y,-z
-x+y,-x,-z
y,-x+y,-z
x,y,-z
x-y,x,-z
-y,x-y,-z
-x+y,y,z
x,x-y,z
-y,-x,z
y,x,z
x-y,-y,z
-x,-x+y,z
loop_
_atom_site_type_symbol
_atom_site_label
_atom_site_fract_x
_atom_site_fract_y
_atom_site_fract_z
Si Si1 0.436569 0.666903 0.387693
Si Si2 0.888463 0.579657 0.113632
Si Si3 0.786820 0.213181 0.896171
Si Si4 0.753672 0.692995 0.797837
Si Si5 0.582295 0.521385 0.785492
Si Si6 0.649853 0.939407 0.394317
Si Si7 0.527417 0.643020 0.391373
Si Si8 0.849727 0.150274 0.894703
O O1 0.430827 0.667316 0.500000
O O2 0.439098 0.719549 0.343743
O O3 0.385513 0.614488 0.345244
O O4 0.490272 0.666956 0.360712
O O5 0.827887 0.558563 0.153389
O O6 0.927961 0.638099 0.153517
O O7 0.904676 0.537546 0.148431
O O8 0.889846 0.583024 0.000000
O O9 0.818416 0.181585 0.905199
O O10 0.773535 0.226466 0.000000
O O11 0.736469 0.736469 0.818364
O O12 0.754918 0.683165 0.684433
O O13 0.813035 0.717232 0.838052
O O14 0.534573 0.465428 0.822638
O O15 0.566892 0.566892 0.793348
O O16 0.593651 0.514891 0.675763
O O17 0.665998 0.930164 0.500000
O O18 0.587913 0.899051 0.376226
O O19 0.661752 0.000000 0.384133
O O20 0.516510 0.622307 0.500000
O O21 0.862744 0.137257 0.000000
#
# Coordination Sequence:
#
# PCOD8328552 Si02
#       8
#    24  24  12  24  24  24  24  12
#     4   9  17  30  47  65  85 111 145 186 235 290
#     4  10  19  33  52  71  91 116 152 191 233 286
#     4   7  14  30  50  69  87 107 139 187 230 270
#     4  10  18  31  51  71  95 130 163 195 241 287
#     4  11  23  35  46  66  96 125 156 191 227 275
#     4   9  17  30  48  69  93 123 161 200 236 281
#     4  10  19  33  50  66  89 119 152 192 232 276
#     4   9  18  30  45  73 103 123 159 206 234 268
#
# _framework density 16.31549
#
# number of rings (size 3 to 8) (size 9 to 14) (size 15 to 20)
#    0.000    2.429    1.429    2.714    0.000    4.571 
#    2.571    1.786    0.000    0.000    0.000    0.000 
#    0.714    0.000    0.429    0.214    0.000    0.929 
#
# Total GULP energy -2082221.385248 kJ/mol
# GULP energy per Si atom -12394.174912 kJ/mol
# Density = 1.627836 g / cm^3
# Si number density = 16.315490 Si / 1000 Ang^3
#
#
#
# Elastic Constant Matrix: (Units=GPa)
#
#
# Indices 1 2 3 4 5 6 
#
# 1 98.8340 56.0712 41.8772 0.0000 0.0000 0.0000
# 2 56.0712 98.8340 41.8772 0.0000 0.0000 0.0000
# 3 41.8772 41.8772 80.4692 0.0000 0.0000 0.0000
# 4 0.0000 0.0000 0.0000 18.7744 0.0000 0.0000
# 5 0.0000 0.0000 0.0000 0.0000 18.7744 0.0000
# 6 0.0000 0.0000 0.0000 0.0000 0.0000 21.3814
#
#
#
# Elastic Compliance Matrix: (Units=1/GPa)
#
#
# Indices 1 2 3 4 5 6 
#
# 1 0.016184 -0.007201 -0.004675 0.000000 0.000000 0.000000
# 2 -0.007201 0.016184 -0.004675 0.000000 0.000000 0.000000
# 3 -0.004675 -0.004675 0.017293 0.000000 0.000000 0.000000
# 4 0.000000 0.000000 0.000000 0.053264 0.000000 0.000000
# 5 0.000000 0.000000 0.000000 0.000000 0.053264 0.000000
# 6 0.000000 0.000000 0.000000 0.000000 0.000000 0.046770
#
#
# Mechanical properties :
#
#
# Convention : Reuss Voigt Hill
#
# Bulk Modulus (GPa) = 60.38837 61.97648 61.18242
# Shear Modulus (GPa) = 20.69708 21.00682 20.85195
#
# Velocity S-wave (km/s) = 3.56554 3.59212 3.57886
# Velocity P-wave (km/s) = 7.35146 7.43459 7.39315
#
# Compressibility (1/GPa) = 0.01655948
#
# Stress axis : x y z
#
# Youngs Moduli (GPa) = 61.78931 61.78931 57.82704
#
# Poissons Ratio (x) = 0.44493 0.27034
# Poissons Ratio (y) = 0.44493 0.27034
# Poissons Ratio (z) = 0.28886 0.28886
#
# Static dielectric constant tensor:
#      x y z
#    x 3.044630 0.000000 0.000000 
#    y 0.000000 3.044630 0.000000 
#    z 0.000000 0.000000 3.117740 
# 
# 
# High freq. dielectric constant tensor:
#      x y z
#    x 1.605610 0.000000 0.000000 
#    y 0.000000 1.605610 0.000000 
#    z 0.000000 0.000000 1.622120 
# 
# From -- ./inp_files/5322.got.cif
#   From: 2010.03.12/outbox.cif.g09.slc.cpg/sg191_3_cif.got.tgz:5322.got - 2010.04.01 12:09:02.
