data_PCOD8328159
_publ_section_title
;
Structure prediction by ZEFSAII (Michael W. Deem and Ramdas Pophale) SiO2 
 PCOD8328159
Probable space group: P -6 2 C
;
_chemical_formula_sum "Si O2"
_cell_formula_units_Z 42
_cell_length_a 8.834151
_cell_length_b 8.834151
_cell_length_c 31.987398
_cell_angle_alpha 90.000000
_cell_angle_beta 90.000000
_cell_angle_gamma 120.000000
_cell_volume 2161.917825
_symmetry_space_group_name_H-M "P -6 2 C"
_symmetry_group_IT_number 190
_symmetry_cell_setting 'hexagonal'
loop_
_space_group_symop_operation_xyz
x,y,z
-x+y,-x,1/2-z
-y,x-y,z
x,y,1/2-z
-x+y,-x,z
-y,x-y,1/2-z
x-y,-y,-z
-x,-x+y,-z
y,x,-z
y,x,1/2+z
x-y,-y,1/2+z
-x,-x+y,1/2+z
loop_
_atom_site_type_symbol
_atom_site_label
_atom_site_fract_x
_atom_site_fract_y
_atom_site_fract_z
Si Si1 0.333334 0.666668 0.041367
Si Si2 0.648495 0.518783 0.825468
Si Si3 0.000000 0.000000 0.449435
Si Si4 0.333335 0.666668 0.556742
Si Si5 0.124336 0.486421 0.750000
Si Si6 0.986674 0.331227 0.916883
O O1 0.505598 0.672018 0.056818
O O2 0.333334 0.666667 0.992401
O O3 0.487716 0.317152 0.822271
O O4 0.619509 0.627994 0.789673
O O5 0.661975 0.617111 0.868081
O O6 0.997533 0.165043 0.430766
O O7 0.000000 0.000000 0.500000
O O8 0.498217 0.662912 0.573714
O O9 0.176048 0.692192 0.750000
#
# Coordination Sequence:
#
# PCOD8328159 Si02
#       6
#     4  12   4   4   6  12
#     4  12  21  48  60 103 131 184 237 285 351 417
#     4  10  22  44  69  95 134 181 221 271 351 410
#     4  12  27  45  66 100 146 187 240 300 351 411
#     4  12  27  36  72  91 143 181 237 291 345 405
#     4  10  24  38  70 106 130 162 226 276 330 412
#     4  12  25  43  67 100 135 186 234 290 352 420
#
# _framework density 19.427197
#
# number of rings (size 3 to 8) (size 9 to 14) (size 15 to 20)
#    0.857    0.000    2.857    5.143    4.000    0.000 
#    0.000    0.000    0.000    4.571    0.000    0.000 
#    0.000    0.000    0.000    0.000    0.000    0.000 
#
# Total GULP energy -520608.843695 kJ/mol
# GULP energy per Si atom -12395.448659 kJ/mol
# Density = 1.938298 g / cm^3
# Si number density = 19.427197 Si / 1000 Ang^3
#
#
#
# Elastic Constant Matrix: (Units=GPa)
#
#
# Indices 1 2 3 4 5 6 
#
# 1 121.3886 39.1645 17.8308 -0.0002 -0.0003 -0.0001
# 2 39.1645 121.3883 17.8311 -0.0003 -0.0002 -0.0004
# 3 17.8308 17.8311 128.7805 -0.0007 -0.0001 -0.0001
# 4 -0.0002 -0.0003 -0.0007 1.6396 -0.0003 0.0000
# 5 -0.0003 -0.0002 -0.0001 -0.0003 1.6421 -0.0001
# 6 -0.0001 -0.0004 -0.0001 0.0000 -0.0001 41.1116
#
#
#
# Elastic Compliance Matrix: (Units=1/GPa)
#
#
# Indices 1 2 3 4 5 6 
#
# 1 0.009294 -0.002868 -0.000890 0.000000 0.000001 0.000000
# 2 -0.002868 0.009294 -0.000890 0.000001 0.000001 0.000000
# 3 -0.000890 -0.000890 0.008012 0.000003 0.000000 0.000000
# 4 0.000000 0.000001 0.000003 0.609890 0.000099 0.000000
# 5 0.000001 0.000001 0.000000 0.000099 0.608964 0.000001
# 6 0.000000 0.000000 0.000000 0.000000 0.000001 0.024324
#
#
# Mechanical properties :
#
#
# Convention : Reuss Voigt Hill
#
# Bulk Modulus (GPa) = 57.78768 57.91223 57.84995
# Shear Modulus (GPa) = 3.89153 28.66075 16.27614
#
# Velocity S-wave (km/s) = 1.41686 3.84512 2.89762
# Velocity P-wave (km/s) = 5.69974 7.04186 6.40604
#
# Compressibility (1/GPa) = 0.01730473
#
# Stress axis : x y z
#
# Youngs Moduli (GPa) = 107.59640 107.59605 124.81990
#
# Poissons Ratio (x) = 0.30857 0.11106
# Poissons Ratio (y) = 0.30858 0.11106
# Poissons Ratio (z) = 0.09573 0.09574
#
# Static dielectric constant tensor:
#      x y z
#    x 3.712350 0.000010 0.000000 
#    y 0.000010 3.712370 0.000000 
#    z 0.000000 0.000000 4.060560 
# 
# 
# High freq. dielectric constant tensor:
#      x y z
#    x 1.761990 0.000000 0.000000 
#    y 0.000000 1.761990 0.000000 
#    z 0.000000 0.000000 1.774520 
# 
# From -- ./inp_files/5098.got.cif
#   From: 2010.06.25/outbox.cif.g09.slc.cpg/sg190_3_cif.got.tgz:5098.got - 2010.06.28 13:08:06.
