data_PCOD8328654
_publ_section_title
;
Structure prediction by ZEFSAII (Michael W. Deem and Ramdas Pophale) SiO2 
 PCOD8328654
Probable space group: P 6/M M M
;
_chemical_formula_sum "Si O2"
_cell_formula_units_Z 168
_cell_length_a 21.918823
_cell_length_b 21.918823
_cell_length_c 26.051666
_cell_angle_alpha 90.000000
_cell_angle_beta 90.000000
_cell_angle_gamma 120.000000
_cell_volume 10839.283929
_symmetry_space_group_name_H-M "P 6/M M M"
_symmetry_group_IT_number 191
_symmetry_cell_setting 'hexagonal'
loop_
_space_group_symop_operation_xyz
x,y,z
x-y,x,z
-y,x-y,z
-x,-y,z
-x+y,-x,z
y,-x+y,z
x-y,-y,-z
-x,-x+y,-z
y,x,-z
-y,-x,-z
-x+y,y,-z
x,x-y,-z
-x,-y,-z
-x+y,-x,-z
y,-x+y,-z
x,y,-z
x-y,x,-z
-y,x-y,-z
-x+y,y,z
x,x-y,z
-y,-x,z
y,x,z
x-y,-y,z
-x,-x+y,z
loop_
_atom_site_type_symbol
_atom_site_label
_atom_site_fract_x
_atom_site_fract_y
_atom_site_fract_z
Si Si1 0.428204 0.347898 0.558091
Si Si2 0.473583 0.389922 0.945685
Si Si3 0.190637 0.525388 0.639440
Si Si4 0.291800 0.213369 0.292309
Si Si5 0.446227 0.152772 0.742224
Si Si6 0.292288 0.078156 0.412240
Si Si7 0.388063 0.467106 0.835894
O O1 0.456723 0.365731 0.500000
O O2 0.401160 0.401160 0.576557
O O3 0.491301 0.356168 0.593380
O O4 0.363223 0.268230 0.558807
O O5 0.557289 0.442712 0.947858
O O6 0.434844 0.434844 0.943463
O O7 0.454240 0.347223 0.891398
O O8 0.452117 0.345111 0.000000
O O9 0.258198 0.516396 0.629228
O O10 0.215501 0.607751 0.643009
O O11 0.150679 0.487017 0.691638
O O12 0.263641 0.131821 0.277781
O O13 0.231970 0.231970 0.276365
O O14 0.363282 0.264397 0.262717
O O15 0.309879 0.225786 0.352187
O O16 0.462913 0.231457 0.751343
O O17 0.474421 0.131785 0.791438
O O18 0.269340 0.134670 0.429200
O O19 0.228671 0.000000 0.426258
O O20 0.460867 0.539134 0.840136
O O21 0.403785 0.403785 0.823668
#
# Coordination Sequence:
#
# PCOD8328654 Si02
#       7
#    24  24  24  24  24  24  24
#     4  10  21  36  54  74  92 110 136 175 220 261
#     4   7  10  18  33  54  80 107 134 167 209 254
#     4  11  23  38  53  68  88 117 149 179 212 256
#     4   9  16  27  44  64  86 112 142 174 209 252
#     4  10  19  30  44  62  86 115 145 178 213 251
#     4   9  16  28  46  67  89 113 142 173 207 248
#     4   9  16  25  40  63  86 107 136 177 221 259
#
# _framework density 15.499179
#
# number of rings (size 3 to 8) (size 9 to 14) (size 15 to 20)
#    0.000    2.714    1.429    2.714    0.000    2.286 
#    0.000    0.714    0.000    1.857    0.000    2.000 
#    0.000    0.000    0.000    3.571    0.000    3.714 
#
# Total GULP energy -2081637.456409 kJ/mol
# GULP energy per Si atom -12390.699145 kJ/mol
# Density = 1.546390 g / cm^3
# Si number density = 15.499179 Si / 1000 Ang^3
#
#
#
# Elastic Constant Matrix: (Units=GPa)
#
#
# Indices 1 2 3 4 5 6 
#
# 1 58.3258 23.0261 33.2188 0.0000 0.0000 0.0000
# 2 23.0261 58.3258 33.2188 0.0000 0.0000 0.0000
# 3 33.2188 33.2188 105.1582 0.0000 0.0000 0.0000
# 4 0.0000 0.0000 0.0000 13.0389 0.0000 0.0000
# 5 0.0000 0.0000 0.0000 0.0000 13.0389 0.0000
# 6 0.0000 0.0000 0.0000 0.0000 0.0000 17.6499
#
#
#
# Elastic Compliance Matrix: (Units=1/GPa)
#
#
# Indices 1 2 3 4 5 6 
#
# 1 0.022447 -0.005881 -0.005233 0.000000 0.000000 0.000000
# 2 -0.005881 0.022447 -0.005233 0.000000 0.000000 0.000000
# 3 -0.005233 -0.005233 0.012816 0.000000 0.000000 0.000000
# 4 0.000000 0.000000 0.000000 0.076694 0.000000 0.000000
# 5 0.000000 0.000000 0.000000 0.000000 0.076694 0.000000
# 6 0.000000 0.000000 0.000000 0.000000 0.000000 0.056658
#
#
# Mechanical properties :
#
#
# Convention : Reuss Voigt Hill
#
# Bulk Modulus (GPa) = 39.97554 44.52636 42.25095
# Shear Modulus (GPa) = 16.19228 17.56860 16.88044
#
# Velocity S-wave (km/s) = 3.23572 3.37043 3.30376
# Velocity P-wave (km/s) = 6.30935 6.62850 6.47089
#
# Compressibility (1/GPa) = 0.02501530
#
# Stress axis : x y z
#
# Youngs Moduli (GPa) = 44.54856 44.54856 78.02940
#
# Poissons Ratio (x) = 0.26201 0.40834
# Poissons Ratio (y) = 0.26201 0.40834
# Poissons Ratio (z) = 0.23313 0.23313
#
# Static dielectric constant tensor:
#      x y z
#    x 2.806090 0.000000 0.000000 
#    y 0.000000 2.806090 0.000000 
#    z 0.000000 0.000000 3.225450 
# 
# 
# High freq. dielectric constant tensor:
#      x y z
#    x 1.569720 0.000000 0.000000 
#    y 0.000000 1.569720 0.000000 
#    z 0.000000 0.000000 1.596010 
# 
# From -- ./inp_files/10003.got.cif
#   From: 2010.03.12/outbox.cif.g09.slc.cpg/sg191_6_cif.got.tgz:10003.got - 2010.04.01 12:09:02.
