data_PCOD8328559
_publ_section_title
;
Structure prediction by ZEFSAII (Michael W. Deem and Ramdas Pophale) SiO2 
 PCOD8328559
Probable space group: P 6/M M M
;
_chemical_formula_sum "Si O2"
_cell_formula_units_Z 112
_cell_length_a 29.863238
_cell_length_b 29.863238
_cell_length_c 9.151588
_cell_angle_alpha 90.000000
_cell_angle_beta 90.000000
_cell_angle_gamma 120.000000
_cell_volume 7068.070664
_symmetry_space_group_name_H-M "P 6/M M M"
_symmetry_group_IT_number 191
_symmetry_cell_setting 'hexagonal'
loop_
_space_group_symop_operation_xyz
x,y,z
x-y,x,z
-y,x-y,z
-x,-y,z
-x+y,-x,z
y,-x+y,z
x-y,-y,-z
-x,-x+y,-z
y,x,-z
-y,-x,-z
-x+y,y,-z
x,x-y,-z
-x,-y,-z
-x+y,-x,-z
y,-x+y,-z
x,y,-z
x-y,x,-z
-y,x-y,-z
-x+y,y,z
x,x-y,z
-y,-x,z
y,x,z
x-y,-y,z
-x,-x+y,z
loop_
_atom_site_type_symbol
_atom_site_label
_atom_site_fract_x
_atom_site_fract_y
_atom_site_fract_z
Si Si1 0.148390 0.748129 0.671422
Si Si2 0.199887 0.697190 0.165505
Si Si3 0.333334 0.666667 0.671902
Si Si4 0.940488 0.246948 0.170562
Si Si5 0.772630 0.386315 0.832466
Si Si6 0.057651 0.842653 0.667535
O O1 0.138604 0.741866 0.500000
O O2 0.194273 0.805727 0.712410
O O3 0.163136 0.705897 0.725013
O O4 0.095597 0.735344 0.750029
O O5 0.259822 0.740178 0.191226
O O6 0.193116 0.640903 0.197170
O O7 0.183260 0.700547 0.000000
O O8 0.333334 0.666667 0.500000
O O9 0.362514 0.725028 0.724621
O O10 0.927704 0.191484 0.230996
O O11 0.000000 0.289469 0.202709
O O12 0.928067 0.240993 0.000000
O O13 0.752465 0.376233 0.000000
O O14 0.062314 0.828716 0.500000
O O15 0.097139 0.902862 0.700418
O O16 0.000000 0.831682 0.701670
#
# Coordination Sequence:
#
# PCOD8328559 Si02
#       6
#    24  24   4  24  12  24
#     4  10  20  32  46  66  95 124 150 181 221 271
#     4   9  17  29  47  66  88 120 157 192 223 261
#     4  12  22  26  40  66  94 125 157 198 238 266
#     4  10  20  32  47  68  91 115 148 187 225 269
#     4  10  18  32  48  64  89 125 164 194 226 271
#     4   9  17  29  45  65  90 120 152 185 224 268
#
# _framework density 15.845909000000001
#
# number of rings (size 3 to 8) (size 9 to 14) (size 15 to 20)
#    0.000    2.357    1.071    2.250    0.000    6.429 
#    0.000    0.000    0.000    0.214    0.000    2.250 
#    0.000    6.000    0.000    5.357    0.000    5.571 
#
# Total GULP energy -1388869.512894 kJ/mol
# GULP energy per Si atom -12400.620651 kJ/mol
# Density = 1.580984 g / cm^3
# Si number density = 15.845909 Si / 1000 Ang^3
#
#
#
# Elastic Constant Matrix: (Units=GPa)
#
#
# Indices 1 2 3 4 5 6 
#
# 1 102.0582 54.4532 51.1062 0.0000 0.0000 0.0000
# 2 54.4532 102.0583 51.1062 0.0000 0.0000 0.0000
# 3 51.1062 51.1062 88.4988 0.0001 0.0000 0.0000
# 4 0.0000 0.0000 0.0001 22.8689 0.0000 0.0000
# 5 0.0000 0.0000 0.0000 0.0000 22.8688 0.0000
# 6 0.0000 0.0000 0.0000 0.0000 0.0000 23.8025
#
#
#
# Elastic Compliance Matrix: (Units=1/GPa)
#
#
# Indices 1 2 3 4 5 6 
#
# 1 0.015632 -0.005374 -0.005924 0.000000 0.000000 0.000000
# 2 -0.005374 0.015632 -0.005924 0.000000 0.000000 0.000000
# 3 -0.005924 -0.005924 0.018141 0.000000 0.000000 0.000000
# 4 0.000000 0.000000 0.000000 0.043728 0.000000 0.000000
# 5 0.000000 0.000000 0.000000 0.000000 0.043728 0.000000
# 6 0.000000 0.000000 0.000000 0.000000 0.000000 0.042012
#
#
# Mechanical properties :
#
#
# Convention : Reuss Voigt Hill
#
# Bulk Modulus (GPa) = 66.83534 67.32740 67.08137
# Shear Modulus (GPa) = 22.90391 22.97136 22.93763
#
# Velocity S-wave (km/s) = 3.80599 3.81159 3.80879
# Velocity P-wave (km/s) = 7.84754 7.87096 7.85926
#
# Compressibility (1/GPa) = 0.01496214
#
# Stress axis : x y z
#
# Youngs Moduli (GPa) = 63.97120 63.97126 55.12307
#
# Poissons Ratio (x) = 0.34379 0.32653
# Poissons Ratio (y) = 0.34379 0.32653
# Poissons Ratio (z) = 0.37895 0.37895
#
# Static dielectric constant tensor:
#      x y z
#    x 2.935900 0.000000 0.000000 
#    y 0.000000 2.935900 0.000000 
#    z 0.000000 0.000000 3.086480 
# 
# 
# High freq. dielectric constant tensor:
#      x y z
#    x 1.591200 0.000000 0.000000 
#    y 0.000000 1.591200 0.000000 
#    z 0.000000 0.000000 1.617100 
# 
# From -- ./inp_files/1775.got.cif
#   From: 2010.03.12/outbox.cif.g09.slc.cpg/sg191_1_cif.got.tgz:1775.got - 2010.04.01 12:09:02.
