data_PCOD8328720
_publ_section_title
;
Structure prediction by ZEFSAII (Michael W. Deem and Ramdas Pophale) SiO2 
 PCOD8328720
Probable space group: P 6/M M M
;
_chemical_formula_sum "Si O2"
_cell_formula_units_Z 132
_cell_length_a 18.021267
_cell_length_b 18.021267
_cell_length_c 27.970591
_cell_angle_alpha 90.000000
_cell_angle_beta 90.000000
_cell_angle_gamma 120.000000
_cell_volume 7866.887087
_symmetry_space_group_name_H-M "P 6/M M M"
_symmetry_group_IT_number 191
_symmetry_cell_setting 'hexagonal'
loop_
_space_group_symop_operation_xyz
x,y,z
x-y,x,z
-y,x-y,z
-x,-y,z
-x+y,-x,z
y,-x+y,z
x-y,-y,-z
-x,-x+y,-z
y,x,-z
-y,-x,-z
-x+y,y,-z
x,x-y,-z
-x,-y,-z
-x+y,-x,-z
y,-x+y,-z
x,y,-z
x-y,x,-z
-y,x-y,-z
-x+y,y,z
x,x-y,z
-y,-x,z
y,x,z
x-y,-y,z
-x,-x+y,z
loop_
_atom_site_type_symbol
_atom_site_label
_atom_site_fract_x
_atom_site_fract_y
_atom_site_fract_z
Si Si1 0.635354 0.095079 0.316987
Si Si2 0.330972 0.834901 0.216228
Si Si3 0.903703 0.636432 0.500000
Si Si4 0.333413 0.836180 0.945290
Si Si5 0.637994 0.733864 0.865291
Si Si6 0.503854 0.834798 0.417894
O O1 0.544798 0.089596 0.316614
O O2 0.686633 0.144009 0.269629
O O3 0.686129 0.144827 0.364259
O O4 0.622469 0.000000 0.317374
O O5 0.426987 0.853973 0.209057
O O6 0.264951 0.735050 0.205875
O O7 0.314804 0.893482 0.179839
O O8 0.834440 0.668879 0.500000
O O9 0.893537 0.579944 0.546445
O O10 0.000000 0.718093 0.500000
O O11 0.424438 0.848876 0.928767
O O12 0.263568 0.736433 0.938475
O O13 0.309290 0.894407 0.913334
O O14 0.336909 0.865100 0.000000
O O15 0.670787 0.835394 0.863809
O O16 0.719814 0.719814 0.864310
O O17 0.427038 0.854075 0.425796
O O18 0.469802 0.734901 0.428378
#
# Coordination Sequence:
#
# PCOD8328720 Si02
#       6
#    24  24  12  24  24  24
#     4   9  17  28  42  60  84 119 163 205 236 260
#     4  10  19  30  45  66  94 127 160 191 223 263
#     4  10  21  35  51  70  91 117 148 186 231 277
#     4   9  17  29  46  69  98 131 163 191 218 252
#     4  10  21  35  50  68  90 117 149 188 234 280
#     4  10  19  30  45  66  94 127 161 194 227 265
#
# _framework density 16.779191000000001
#
# number of rings (size 3 to 8) (size 9 to 14) (size 15 to 20)
#    0.000    2.364    0.000    3.000    0.000    4.727 
#    0.000    5.455    0.000    0.273    0.000    0.000 
#    0.000    0.000    0.000    4.545    0.000   37.818 
#
# Total GULP energy -1636666.898889 kJ/mol
# GULP energy per Si atom -12398.991658 kJ/mol
# Density = 1.674100 g / cm^3
# Si number density = 16.779191 Si / 1000 Ang^3
#
#
#
# Elastic Constant Matrix: (Units=GPa)
#
#
# Indices 1 2 3 4 5 6 
#
# 1 83.4975 54.4618 33.3254 0.0000 0.0000 0.0000
# 2 54.4618 83.4975 33.3254 0.0000 0.0000 0.0000
# 3 33.3254 33.3254 102.8835 0.0000 0.0000 0.0000
# 4 0.0000 0.0000 0.0000 17.8861 0.0000 0.0000
# 5 0.0000 0.0000 0.0000 0.0000 17.8861 0.0000
# 6 0.0000 0.0000 0.0000 0.0000 0.0000 14.5178
#
#
#
# Elastic Compliance Matrix: (Units=1/GPa)
#
#
# Indices 1 2 3 4 5 6 
#
# 1 0.021517 -0.012924 -0.002783 0.000000 0.000000 0.000000
# 2 -0.012924 0.021517 -0.002783 0.000000 0.000000 0.000000
# 3 -0.002783 -0.002783 0.011523 0.000000 0.000000 0.000000
# 4 0.000000 0.000000 0.000000 0.055909 0.000000 0.000000
# 5 0.000000 0.000000 0.000000 0.000000 0.055909 0.000000
# 6 0.000000 0.000000 0.000000 0.000000 0.000000 0.068881
#
#
# Mechanical properties :
#
#
# Convention : Reuss Voigt Hill
#
# Bulk Modulus (GPa) = 56.89718 56.90042 56.89880
# Shear Modulus (GPa) = 17.97945 19.97575 18.97760
#
# Velocity S-wave (km/s) = 3.27698 3.45412 3.36671
# Velocity P-wave (km/s) = 6.94990 7.06348 7.00692
#
# Compressibility (1/GPa) = 0.01757556
#
# Stress axis : x y z
#
# Youngs Moduli (GPa) = 46.47527 46.47527 86.78336
#
# Poissons Ratio (x) = 0.60063 0.24156
# Poissons Ratio (y) = 0.60063 0.24156
# Poissons Ratio (z) = 0.12936 0.12936
#
# Static dielectric constant tensor:
#      x y z
#    x 2.923010 0.000000 0.000000 
#    y 0.000000 2.923010 0.000000 
#    z 0.000000 0.000000 3.486720 
# 
# 
# High freq. dielectric constant tensor:
#      x y z
#    x 1.618010 0.000000 0.000000 
#    y 0.000000 1.618010 0.000000 
#    z 0.000000 0.000000 1.669610 
# 
# From -- ./inp_files/9785.got.cif
#   From: 2010.03.12/outbox.cif.g09.slc.cpg/sg191_5_cif.got.tgz:9785.got - 2010.04.01 12:09:02.
