data_PCOD8328465
_publ_section_title
;
Structure prediction by ZEFSAII (Michael W. Deem and Ramdas Pophale) SiO2 
 PCOD8328465
Probable space group: P 6/M M M
;
_chemical_formula_sum "Si O2"
_cell_formula_units_Z 120
_cell_length_a 17.856531
_cell_length_b 17.856531
_cell_length_c 27.268242
_cell_angle_alpha 90.000000
_cell_angle_beta 90.000000
_cell_angle_gamma 120.000000
_cell_volume 7529.774244
_symmetry_space_group_name_H-M "P 6/M M M"
_symmetry_group_IT_number 191
_symmetry_cell_setting 'hexagonal'
loop_
_space_group_symop_operation_xyz
x,y,z
x-y,x,z
-y,x-y,z
-x,-y,z
-x+y,-x,z
y,-x+y,z
x-y,-y,-z
-x,-x+y,-z
y,x,-z
-y,-x,-z
-x+y,y,-z
x,x-y,-z
-x,-y,-z
-x+y,-x,-z
y,-x+y,-z
x,y,-z
x-y,x,-z
-y,x-y,-z
-x+y,y,z
x,x-y,z
-y,-x,z
y,x,z
x-y,-y,z
-x,-x+y,z
loop_
_atom_site_type_symbol
_atom_site_label
_atom_site_fract_x
_atom_site_fract_y
_atom_site_fract_z
Si Si1 0.366417 0.466090 0.220864
Si Si2 0.493555 0.162924 0.884596
Si Si3 0.589212 0.000000 0.055401
Si Si4 0.898598 0.366170 0.593906
Si Si5 0.370666 0.268824 0.500000
Si Si6 0.899509 0.632818 0.314659
O O1 0.437248 0.562753 0.238476
O O2 0.415046 0.415046 0.205614
O O3 0.316747 0.469081 0.172795
O O4 0.298906 0.418019 0.263893
O O5 0.586283 0.172566 0.892656
O O6 0.496454 0.248227 0.904681
O O7 0.421771 0.083802 0.916344
O O8 0.500000 0.000000 0.056455
O O9 0.620018 0.000000 0.000000
O O10 0.855384 0.427692 0.592486
O O11 0.872077 0.305250 0.546673
O O12 0.870116 0.308290 0.642572
O O13 0.000000 0.427955 0.594466
O O14 0.295759 0.295759 0.500000
O O15 0.327531 0.163766 0.500000
O O16 0.837678 0.675355 0.317029
O O17 0.000000 0.707973 0.319933
#
# Coordination Sequence:
#
# PCOD8328465 Si02
#       6
#    24  24  12  24  12  24
#     4   9  16  28  46  66  88 117 149 181 221 272
#     4  10  18  29  45  66  90 117 151 188 225 264
#     4   9  18  32  46  60  84 118 151 182 220 264
#     4   9  17  30  48  68  87 112 147 187 230 278
#     4  10  19  31  49  70  93 123 162 202 237 275
#     4  10  19  30  46  68  93 121 155 192 229 270
#
# _framework density 15.936733
#
# number of rings (size 3 to 8) (size 9 to 14) (size 15 to 20)
#    0.000    2.500    1.000    2.300    0.000    4.000 
#    0.000    0.000    0.000   12.300    0.000    0.000 
#    0.000    4.800    0.000    0.300    0.000    1.700 
#
# Total GULP energy -1487495.118602 kJ/mol
# GULP energy per Si atom -12395.792655 kJ/mol
# Density = 1.590046 g / cm^3
# Si number density = 15.936733 Si / 1000 Ang^3
#
#
#
# Elastic Constant Matrix: (Units=GPa)
#
#
# Indices 1 2 3 4 5 6 
#
# 1 88.8748 44.4709 42.2220 0.0000 0.0000 0.0000
# 2 44.4709 88.8748 42.2220 0.0000 0.0000 0.0000
# 3 42.2220 42.2220 89.1898 0.0000 0.0000 0.0000
# 4 0.0000 0.0000 0.0000 13.4725 0.0000 0.0000
# 5 0.0000 0.0000 0.0000 0.0000 13.4725 0.0000
# 6 0.0000 0.0000 0.0000 0.0000 0.0000 22.2020
#
#
#
# Elastic Compliance Matrix: (Units=1/GPa)
#
#
# Indices 1 2 3 4 5 6 
#
# 1 0.016615 -0.005905 -0.005070 0.000000 0.000000 0.000000
# 2 -0.005905 0.016615 -0.005070 0.000000 0.000000 0.000000
# 3 -0.005070 -0.005070 0.016012 0.000000 0.000000 0.000000
# 4 0.000000 0.000000 0.000000 0.074226 0.000000 0.000000
# 5 0.000000 0.000000 0.000000 0.000000 0.074226 0.000000
# 6 0.000000 0.000000 0.000000 0.000000 0.000000 0.045041
#
#
# Mechanical properties :
#
#
# Convention : Reuss Voigt Hill
#
# Bulk Modulus (GPa) = 58.30188 58.30770 58.30479
# Shear Modulus (GPa) = 17.82257 19.03101 18.42679
#
# Velocity S-wave (km/s) = 3.34778 3.45941 3.40405
# Velocity P-wave (km/s) = 7.18375 7.25418 7.21905
#
# Compressibility (1/GPa) = 0.01715210
#
# Stress axis : x y z
#
# Youngs Moduli (GPa) = 60.18555 60.18555 62.45186
#
# Poissons Ratio (x) = 0.35541 0.31664
# Poissons Ratio (y) = 0.35541 0.31664
# Poissons Ratio (z) = 0.30514 0.30514
#
# Static dielectric constant tensor:
#      x y z
#    x 2.873830 0.000000 0.000000 
#    y 0.000000 2.873830 0.000000 
#    z 0.000000 0.000000 3.156840 
# 
# 
# High freq. dielectric constant tensor:
#      x y z
#    x 1.587640 0.000000 0.000000 
#    y 0.000000 1.587640 0.000000 
#    z 0.000000 0.000000 1.626300 
# 
# From -- ./inp_files/8547.got.cif
#   From: 2010.03.12/outbox.cif.g09.slc.cpg/sg191_5_cif.got.tgz:8547.got - 2010.04.01 12:09:02.
