data_PCOD8328815
_publ_section_title
;
Structure prediction by ZEFSAII (Michael W. Deem and Ramdas Pophale) SiO2 
 PCOD8328815
Probable space group: P 6/M M M
;
_chemical_formula_sum "Si O2"
_cell_formula_units_Z 132
_cell_length_a 17.553903
_cell_length_b 17.553903
_cell_length_c 30.097403
_cell_angle_alpha 90.000000
_cell_angle_beta 90.000000
_cell_angle_gamma 120.000000
_cell_volume 8031.691959
_symmetry_space_group_name_H-M "P 6/M M M"
_symmetry_group_IT_number 191
_symmetry_cell_setting 'hexagonal'
loop_
_space_group_symop_operation_xyz
x,y,z
x-y,x,z
-y,x-y,z
-x,-y,z
-x+y,-x,z
y,-x+y,z
x-y,-y,-z
-x,-x+y,-z
y,x,-z
-y,-x,-z
-x+y,y,-z
x,x-y,-z
-x,-y,-z
-x+y,-x,-z
y,-x+y,-z
x,y,-z
x-y,x,-z
-y,x-y,-z
-x+y,y,z
x,x-y,z
-y,-x,z
y,x,z
x-y,-y,z
-x,-x+y,z
loop_
_atom_site_type_symbol
_atom_site_label
_atom_site_fract_x
_atom_site_fract_y
_atom_site_fract_z
Si Si1 0.489906 0.158616 0.703253
Si Si2 0.369655 0.099913 0.214795
Si Si3 0.635428 0.531859 0.868867
Si Si4 0.901381 0.634627 0.950039
Si Si5 0.000000 0.590058 0.448667
Si Si6 0.270924 0.367531 0.381660
O O1 0.571523 0.143046 0.700590
O O2 0.523302 0.261651 0.709970
O O3 0.429164 0.102908 0.744159
O O4 0.434939 0.123891 0.658518
O O5 0.330523 0.165262 0.223016
O O6 0.430794 0.135373 0.171195
O O7 0.289384 0.000000 0.209106
O O8 0.573871 0.426130 0.864950
O O9 0.574822 0.574822 0.865689
O O10 0.684168 0.553424 0.916316
O O11 0.838151 0.676302 0.945272
O O12 0.000000 0.711767 0.938500
O O13 0.896509 0.598335 0.000000
O O14 0.913069 0.583235 0.425312
O O15 0.000000 0.500000 0.441729
O O16 0.000000 0.612883 0.500000
O O17 0.168754 0.337508 0.389821
O O18 0.281731 0.281731 0.371587
#
# Coordination Sequence:
#
# PCOD8328815 Si02
#       6
#    24  24  24  24  12  24
#     4  10  19  31  48  72 101 131 163 200 244 291
#     4  10  20  32  48  70  95 125 159 196 237 280
#     4   9  17  29  45  66  89 112 144 184 226 275
#     4   9  17  29  46  67  90 118 153 193 234 275
#     4   9  18  32  52  76 101 131 167 205 245 293
#     4   9  19  32  49  73  99 129 166 205 244 289
#
# _framework density 16.434894
#
# number of rings (size 3 to 8) (size 9 to 14) (size 15 to 20)
#    0.545    2.091    0.000    2.364    0.000    2.545 
#    0.000    1.818    0.000    4.909    0.000    1.273 
#    0.000    9.455    0.000    0.182    0.000    0.727 
#
# Total GULP energy -1635836.586530 kJ/mol
# GULP energy per Si atom -12392.701413 kJ/mol
# Density = 1.639749 g / cm^3
# Si number density = 16.434894 Si / 1000 Ang^3
#
#
#
# Elastic Constant Matrix: (Units=GPa)
#
#
# Indices 1 2 3 4 5 6 
#
# 1 91.4518 56.2586 34.8216 0.0000 0.0000 0.0000
# 2 56.2586 91.4518 34.8216 0.0000 0.0000 0.0000
# 3 34.8216 34.8216 111.1382 0.0000 0.0000 0.0000
# 4 0.0000 0.0000 0.0000 19.0978 0.0000 0.0000
# 5 0.0000 0.0000 0.0000 0.0000 19.0978 0.0000
# 6 0.0000 0.0000 0.0000 0.0000 0.0000 17.5966
#
#
#
# Elastic Compliance Matrix: (Units=1/GPa)
#
#
# Indices 1 2 3 4 5 6 
#
# 1 0.018179 -0.010236 -0.002489 0.000000 0.000000 0.000000
# 2 -0.010236 0.018179 -0.002489 0.000000 0.000000 0.000000
# 3 -0.002489 -0.002489 0.010557 0.000000 0.000000 0.000000
# 4 0.000000 0.000000 0.000000 0.052362 0.000000 0.000000
# 5 0.000000 0.000000 0.000000 0.000000 0.052362 0.000000
# 6 0.000000 0.000000 0.000000 0.000000 0.000000 0.056829
#
#
# Mechanical properties :
#
#
# Convention : Reuss Voigt Hill
#
# Bulk Modulus (GPa) = 60.64652 60.64948 60.64800
# Shear Modulus (GPa) = 20.45896 22.36777 21.41337
#
# Velocity S-wave (km/s) = 3.53207 3.69317 3.61352
# Velocity P-wave (km/s) = 7.32224 7.42758 7.37510
#
# Compressibility (1/GPa) = 0.01648899
#
# Stress axis : x y z
#
# Youngs Moduli (GPa) = 55.00848 55.00848 94.72044
#
# Poissons Ratio (x) = 0.56304 0.23574
# Poissons Ratio (y) = 0.56304 0.23574
# Poissons Ratio (z) = 0.13691 0.13691
#
# Static dielectric constant tensor:
#      x y z
#    x 3.013860 0.000000 0.000000 
#    y 0.000000 3.013860 0.000000 
#    z 0.000000 0.000000 3.235780 
# 
# 
# High freq. dielectric constant tensor:
#      x y z
#    x 1.614000 0.000000 0.000000 
#    y 0.000000 1.614000 0.000000 
#    z 0.000000 0.000000 1.647040 
# 
# From -- ./inp_files/10414.got.cif
#   From: 2010.03.12/outbox.cif.g09.slc.cpg/sg191_6_cif.got.tgz:10414.got - 2010.04.01 12:09:02.
