data_PCOD8328269
_publ_section_title
;
Structure prediction by ZEFSAII (Michael W. Deem and Ramdas Pophale) SiO2 
 PCOD8328269
Probable space group: P 6/M M M
;
_chemical_formula_sum "Si O2"
_cell_formula_units_Z 156
_cell_length_a 19.479623
_cell_length_b 19.479623
_cell_length_c 33.335591
_cell_angle_alpha 90.000000
_cell_angle_beta 90.000000
_cell_angle_gamma 120.000000
_cell_volume 10954.684790
_symmetry_space_group_name_H-M "P 6/M M M"
_symmetry_group_IT_number 191
_symmetry_cell_setting 'hexagonal'
loop_
_space_group_symop_operation_xyz
x,y,z
x-y,x,z
-y,x-y,z
-x,-y,z
-x+y,-x,z
y,-x+y,z
x-y,-y,-z
-x,-x+y,-z
y,x,-z
-y,-x,-z
-x+y,y,-z
x,x-y,-z
-x,-y,-z
-x+y,-x,-z
y,-x+y,-z
x,y,-z
x-y,x,-z
-y,x-y,-z
-x+y,y,z
x,x-y,z
-y,-x,z
y,x,z
x-y,-y,z
-x,-x+y,z
loop_
_atom_site_type_symbol
_atom_site_label
_atom_site_fract_x
_atom_site_fract_y
_atom_site_fract_z
Si Si1 0.087649 0.462742 0.186057
Si Si2 0.093976 0.470564 0.097871
Si Si3 0.537290 0.910781 0.341757
Si Si4 0.825414 0.493817 0.579150
Si Si5 0.090826 0.337868 0.047042
Si Si6 0.331270 0.824282 0.263124
Si Si7 0.462731 0.089267 0.500000
O O1 0.081348 0.540674 0.191236
O O2 0.125729 0.465699 0.142302
O O3 0.140386 0.457665 0.221923
O O4 0.000000 0.386168 0.189576
O O5 0.126364 0.563182 0.085140
O O6 0.119252 0.423700 0.067018
O O7 0.000000 0.428653 0.100485
O O8 0.454021 0.908041 0.341764
O O9 0.544613 0.866760 0.381020
O O10 0.546463 0.870233 0.301543
O O11 0.609380 0.000000 0.342754
O O12 0.734089 0.468177 0.578728
O O13 0.831468 0.415734 0.579164
O O14 0.868111 0.545213 0.539677
O O15 0.154862 0.309723 0.058320
O O16 0.000000 0.271842 0.060214
O O17 0.092444 0.352404 0.000000
O O18 0.416328 0.832656 0.262758
O O19 0.267239 0.732762 0.266484
O O20 0.545757 0.091514 0.500000
O O21 0.390500 0.000000 0.500000
#
# Coordination Sequence:
#
# PCOD8328269 Si02
#       7
#    24  24  24  24  24  24  12
#     4   8  14  25  39  53  71  96 124 152 182 219
#     4   8  14  25  41  60  79  99 126 159 193 231
#     4   9  17  28  40  51  64  87 118 147 177 216
#     4  10  18  27  39  55  74  92 112 143 185 224
#     4   9  17  28  42  60  81 105 133 166 203 241
#     4  10  18  26  36  51  71  93 118 150 188 223
#     4   9  17  28  40  52  68  93 122 146 168 200
#
# _framework density 14.240482
#
# number of rings (size 3 to 8) (size 9 to 14) (size 15 to 20)
#    0.000    3.000    0.000    2.846    0.000    4.615 
#    0.000    3.846    0.000    0.462    0.000    1.077 
#    0.000    0.000    0.000    0.000    0.000    0.000 
#
# Total GULP energy -1933082.933733 kJ/mol
# GULP energy per Si atom -12391.557268 kJ/mol
# Density = 1.420807 g / cm^3
# Si number density = 14.240482 Si / 1000 Ang^3
#
#
#
# Elastic Constant Matrix: (Units=GPa)
#
#
# Indices 1 2 3 4 5 6 
#
# 1 44.7409 20.8842 31.7705 0.0000 0.0000 0.0000
# 2 20.8842 44.7409 31.7705 0.0000 0.0000 0.0000
# 3 31.7705 31.7705 89.0160 0.0000 0.0000 0.0000
# 4 0.0000 0.0000 0.0000 13.7222 0.0000 0.0000
# 5 0.0000 0.0000 0.0000 0.0000 13.7222 0.0000
# 6 0.0000 0.0000 0.0000 0.0000 0.0000 11.9284
#
#
#
# Elastic Compliance Matrix: (Units=1/GPa)
#
#
# Indices 1 2 3 4 5 6 
#
# 1 0.032601 -0.009316 -0.008310 0.000000 0.000000 0.000000
# 2 -0.009316 0.032601 -0.008310 0.000000 0.000000 0.000000
# 3 -0.008310 -0.008310 0.017166 0.000000 0.000000 0.000000
# 4 0.000000 0.000000 0.000000 0.072875 0.000000 0.000000
# 5 0.000000 0.000000 0.000000 0.000000 0.072875 0.000000
# 6 0.000000 0.000000 0.000000 0.000000 0.000000 0.083834
#
#
# Mechanical properties :
#
#
# Convention : Reuss Voigt Hill
#
# Bulk Modulus (GPa) = 32.79395 38.59427 35.69411
# Shear Modulus (GPa) = 13.36935 14.14604 13.75770
#
# Velocity S-wave (km/s) = 3.06735 3.15519 3.11158
# Velocity P-wave (km/s) = 5.96855 6.35880 6.16676
#
# Compressibility (1/GPa) = 0.03049343
#
# Stress axis : x y z
#
# Youngs Moduli (GPa) = 30.67414 30.67414 58.25453
#
# Poissons Ratio (x) = 0.28577 0.48412
# Poissons Ratio (y) = 0.28577 0.48412
# Poissons Ratio (z) = 0.25492 0.25492
#
# Static dielectric constant tensor:
#      x y z
#    x 2.596370 0.000000 0.000000 
#    y 0.000000 2.596370 0.000000 
#    z 0.000000 0.000000 3.206190 
# 
# 
# High freq. dielectric constant tensor:
#      x y z
#    x 1.505460 0.000000 0.000000 
#    y 0.000000 1.505460 0.000000 
#    z 0.000000 0.000000 1.564840 
# 
# From -- ./inp_files/10801.got.cif
#   From: 2010.03.12/outbox.cif.g09.slc.cpg/sg191_6_cif.got.tgz:10801.got - 2010.04.01 12:09:02.
