data_PCOD8328856
_publ_section_title
;
Structure prediction by ZEFSAII (Michael W. Deem and Ramdas Pophale) SiO2 
 PCOD8328856
Probable space group: P 6/M M M
;
_chemical_formula_sum "Si O2"
_cell_formula_units_Z 132
_cell_length_a 26.905470
_cell_length_b 26.905470
_cell_length_c 12.519590
_cell_angle_alpha 90.000000
_cell_angle_beta 90.000000
_cell_angle_gamma 120.000000
_cell_volume 7848.775447
_symmetry_space_group_name_H-M "P 6/M M M"
_symmetry_group_IT_number 191
_symmetry_cell_setting 'hexagonal'
loop_
_space_group_symop_operation_xyz
x,y,z
x-y,x,z
-y,x-y,z
-x,-y,z
-x+y,-x,z
y,-x+y,z
x-y,-y,-z
-x,-x+y,-z
y,x,-z
-y,-x,-z
-x+y,y,-z
x,x-y,-z
-x,-y,-z
-x+y,-x,-z
y,-x+y,-z
x,y,-z
x-y,x,-z
-y,x-y,-z
-x+y,y,z
x,x-y,z
-y,-x,z
y,x,z
x-y,-y,z
-x,-x+y,z
loop_
_atom_site_type_symbol
_atom_site_label
_atom_site_fract_x
_atom_site_fract_y
_atom_site_fract_z
Si Si1 0.443565 0.379210 0.619483
Si Si2 0.065298 0.243240 0.375875
Si Si3 0.778570 0.446587 0.500000
Si Si4 0.935146 0.654530 0.737004
Si Si5 0.723176 0.161941 0.120746
Si Si6 0.829971 0.358747 0.279622
O O1 0.464929 0.378333 0.500000
O O2 0.430443 0.430443 0.634041
O O3 0.387143 0.317729 0.640665
O O4 0.494383 0.392878 0.702351
O O5 0.069346 0.259764 0.500000
O O6 0.111159 0.222317 0.348448
O O7 0.082269 0.300249 0.307732
O O8 0.000000 0.192710 0.348731
O O9 0.710662 0.421324 0.500000
O O10 0.793992 0.396996 0.500000
O O11 0.803412 0.481262 0.610867
O O12 0.893741 0.615924 0.831333
O O13 0.000000 0.688402 0.782557
O O14 0.788385 0.211616 0.124983
O O15 0.684674 0.183923 0.181955
O O16 0.699929 0.147814 0.000000
O O17 0.808311 0.404156 0.254587
#
# Coordination Sequence:
#
# PCOD8328856 Si02
#       6
#    24  24  12  24  24  24
#     4   9  16  27  44  67  96 124 147 176 217 269
#     4   9  16  26  42  66  97 131 166 205 248 292
#     4  10  19  32  49  69  91 113 139 179 231 282
#     4   9  17  29  47  70  95 123 156 194 236 285
#     4  10  21  36  52  69  92 124 160 196 236 284
#     4  10  20  33  49  70  93 118 151 189 230 277
#
# _framework density 16.817910999999999
#
# number of rings (size 3 to 8) (size 9 to 14) (size 15 to 20)
#    0.000    2.545    0.909    1.727    0.000    3.273 
#    0.000    0.909    0.000    0.545    0.000    6.364 
#    0.000    0.000    0.000    0.000    0.000    0.000 
#
# Total GULP energy -1635990.191988 kJ/mol
# GULP energy per Si atom -12393.865091 kJ/mol
# Density = 1.677963 g / cm^3
# Si number density = 16.817911 Si / 1000 Ang^3
#
#
#
# Elastic Constant Matrix: (Units=GPa)
#
#
# Indices 1 2 3 4 5 6 
#
# 1 73.0288 28.6110 34.3959 0.0000 0.0000 0.0000
# 2 28.6110 73.0288 34.3959 0.0000 0.0000 0.0000
# 3 34.3959 34.3959 98.7575 0.0000 0.0000 0.0000
# 4 0.0000 0.0000 0.0000 20.9870 0.0000 0.0000
# 5 0.0000 0.0000 0.0000 0.0000 20.9870 0.0000
# 6 0.0000 0.0000 0.0000 0.0000 0.0000 22.2089
#
#
#
# Elastic Compliance Matrix: (Units=1/GPa)
#
#
# Indices 1 2 3 4 5 6 
#
# 1 0.017693 -0.004820 -0.004484 0.000000 0.000000 0.000000
# 2 -0.004820 0.017693 -0.004484 0.000000 0.000000 0.000000
# 3 -0.004484 -0.004484 0.013249 0.000000 0.000000 0.000000
# 4 0.000000 0.000000 0.000000 0.047649 0.000000 0.000000
# 5 0.000000 0.000000 0.000000 0.000000 0.047649 0.000000
# 6 0.000000 0.000000 0.000000 0.000000 0.000000 0.045027
#
#
# Mechanical properties :
#
#
# Convention : Reuss Voigt Hill
#
# Bulk Modulus (GPa) = 47.48086 48.84676 48.16381
# Shear Modulus (GPa) = 22.36588 22.66405 22.51496
#
# Velocity S-wave (km/s) = 3.65071 3.67497 3.66286
# Velocity P-wave (km/s) = 6.78704 6.86402 6.82564
#
# Compressibility (1/GPa) = 0.02106112
#
# Stress axis : x y z
#
# Youngs Moduli (GPa) = 56.51835 56.51835 75.47765
#
# Poissons Ratio (x) = 0.27243 0.33841
# Poissons Ratio (y) = 0.27243 0.33841
# Poissons Ratio (z) = 0.25340 0.25340
#
# Static dielectric constant tensor:
#      x y z
#    x 3.123270 0.000000 0.000000 
#    y 0.000000 3.123270 0.000000 
#    z 0.000000 0.000000 3.043070 
# 
# 
# High freq. dielectric constant tensor:
#      x y z
#    x 1.643570 0.000000 0.000000 
#    y 0.000000 1.643570 0.000000 
#    z 0.000000 0.000000 1.625320 
# 
# From -- ./inp_files/3344.got.cif
#   From: 2010.03.12/outbox.cif.g09.slc.cpg/sg191_2_cif.got.tgz:3344.got - 2010.04.01 12:09:02.
