data_PCOD8328425
_publ_section_title
;
Structure prediction by ZEFSAII (Michael W. Deem and Ramdas Pophale) SiO2 
 PCOD8328425
Probable space group: P 6/M M M
;
_chemical_formula_sum "Si O2"
_cell_formula_units_Z 180
_cell_length_a 21.593641
_cell_length_b 21.593641
_cell_length_c 28.379637
_cell_angle_alpha 90.000000
_cell_angle_beta 90.000000
_cell_angle_gamma 120.000000
_cell_volume 11460.121486
_symmetry_space_group_name_H-M "P 6/M M M"
_symmetry_group_IT_number 191
_symmetry_cell_setting 'hexagonal'
loop_
_space_group_symop_operation_xyz
x,y,z
x-y,x,z
-y,x-y,z
-x,-y,z
-x+y,-x,z
y,-x+y,z
x-y,-y,-z
-x,-x+y,-z
y,x,-z
-y,-x,-z
-x+y,y,-z
x,x-y,-z
-x,-y,-z
-x+y,-x,-z
y,-x+y,-z
x,y,-z
x-y,x,-z
-y,x-y,-z
-x+y,y,z
x,x-y,z
-y,-x,z
y,x,z
x-y,-y,z
-x,-x+y,z
loop_
_atom_site_type_symbol
_atom_site_label
_atom_site_fract_x
_atom_site_fract_y
_atom_site_fract_z
Si Si1 0.301025 0.456521 0.678858
Si Si2 0.219347 0.299407 0.698380
Si Si3 0.915259 0.527199 0.050964
Si Si4 0.664594 0.475468 0.224658
Si Si5 0.477906 0.812796 0.418627
Si Si6 0.083248 0.659691 0.850930
Si Si7 0.291127 0.078101 0.192366
Si Si8 0.532689 0.613676 0.500000
O O1 0.232051 0.464102 0.682023
O O2 0.277046 0.372917 0.673478
O O3 0.345003 0.491287 0.726521
O O4 0.346165 0.499080 0.633277
O O5 0.137705 0.275409 0.683158
O O6 0.236797 0.236797 0.684740
O O7 0.229617 0.316719 0.753761
O O8 0.886081 0.443041 0.057742
O O9 0.889201 0.554539 0.095338
O O10 0.000000 0.568746 0.050274
O O11 0.887708 0.539636 0.000000
O O12 0.744490 0.488979 0.217462
O O13 0.609196 0.390805 0.224845
O O14 0.642758 0.510793 0.182921
O O15 0.396102 0.792203 0.427948
O O16 0.484002 0.742001 0.425383
O O17 0.532056 0.874042 0.454414
O O18 0.094708 0.737039 0.839960
O O19 0.000000 0.598393 0.844513
O O20 0.262956 0.131478 0.178906
O O21 0.224721 0.000000 0.182759
O O22 0.601861 0.601861 0.500000
O O23 0.463185 0.536816 0.500000
#
# Coordination Sequence:
#
# PCOD8328425 Si02
#       8
#    24  24  24  24  24  24  24  12
#     4   9  18  30  44  64  89 117 148 184 222 262
#     4   9  16  28  45  65  90 120 153 185 221 267
#     4   8  14  25  40  59  84 111 139 175 222 271
#     4  11  21  32  44  60  87 120 151 181 218 266
#     4  10  19  32  50  70  91 117 154 198 240 279
#     4  10  18  28  45  67  87 109 141 183 226 268
#     4   9  16  27  44  64  87 115 145 178 217 261
#     4   9  19  34  48  64  88 117 148 184 232 288
#
# _framework density 15.706638999999999
#
# number of rings (size 3 to 8) (size 9 to 14) (size 15 to 20)
#    0.000    2.600    1.333    2.067    0.000    1.333 
#    0.000    2.000    0.000    4.267    0.000    1.867 
#    0.000    1.067    0.000    0.000    0.000    0.000 
#
# Total GULP energy -2230856.307007 kJ/mol
# GULP energy per Si atom -12393.646150 kJ/mol
# Density = 1.567089 g / cm^3
# Si number density = 15.706639 Si / 1000 Ang^3
#
#
#
# Elastic Constant Matrix: (Units=GPa)
#
#
# Indices 1 2 3 4 5 6 
#
# 1 73.7533 36.7683 33.6794 0.0000 0.0000 0.0000
# 2 36.7683 73.7533 33.6794 0.0000 0.0000 0.0000
# 3 33.6794 33.6794 94.2063 0.0000 0.0000 0.0000
# 4 0.0000 0.0000 0.0000 17.6085 0.0000 0.0000
# 5 0.0000 0.0000 0.0000 0.0000 17.6085 0.0000
# 6 0.0000 0.0000 0.0000 0.0000 0.0000 18.4925
#
#
#
# Elastic Compliance Matrix: (Units=1/GPa)
#
#
# Indices 1 2 3 4 5 6 
#
# 1 0.019303 -0.007735 -0.004136 0.000000 0.000000 0.000000
# 2 -0.007735 0.019303 -0.004136 0.000000 0.000000 0.000000
# 3 -0.004136 -0.004136 0.013572 0.000000 0.000000 0.000000
# 4 0.000000 0.000000 0.000000 0.056791 0.000000 0.000000
# 5 0.000000 0.000000 0.000000 0.000000 0.056791 0.000000
# 6 0.000000 0.000000 0.000000 0.000000 0.000000 0.054076
#
#
# Mechanical properties :
#
#
# Convention : Reuss Voigt Hill
#
# Bulk Modulus (GPa) = 49.58835 49.99636 49.79236
# Shear Modulus (GPa) = 19.33702 19.91427 19.62565
#
# Velocity S-wave (km/s) = 3.51256 3.56461 3.53868
# Velocity P-wave (km/s) = 6.93476 6.98873 6.96180
#
# Compressibility (1/GPa) = 0.02016603
#
# Stress axis : x y z
#
# Youngs Moduli (GPa) = 51.80454 51.80454 73.67993
#
# Poissons Ratio (x) = 0.40069 0.30473
# Poissons Ratio (y) = 0.40069 0.30473
# Poissons Ratio (z) = 0.21426 0.21426
#
# Static dielectric constant tensor:
#      x y z
#    x 2.903980 0.000000 0.000000 
#    y 0.000000 2.903980 0.000000 
#    z 0.000000 0.000000 3.268950 
# 
# 
# High freq. dielectric constant tensor:
#      x y z
#    x 1.583300 0.000000 0.000000 
#    y 0.000000 1.583300 0.000000 
#    z 0.000000 0.000000 1.598540 
# 
# From -- ./inp_files/10830.got.cif
#   From: 2010.03.12/outbox.cif.g09.slc.cpg/sg191_6_cif.got.tgz:10830.got - 2010.04.01 12:09:02.
