data_PCOD8328496
_publ_section_title
;
Structure prediction by ZEFSAII (Michael W. Deem and Ramdas Pophale) SiO2 
 PCOD8328496
Probable space group: P 6/M M M
;
_chemical_formula_sum "Si O2"
_cell_formula_units_Z 180
_cell_length_a 21.695289
_cell_length_b 21.695289
_cell_length_c 29.204452
_cell_angle_alpha 90.000000
_cell_angle_beta 90.000000
_cell_angle_gamma 120.000000
_cell_volume 11904.483914
_symmetry_space_group_name_H-M "P 6/M M M"
_symmetry_group_IT_number 191
_symmetry_cell_setting 'hexagonal'
loop_
_space_group_symop_operation_xyz
x,y,z
x-y,x,z
-y,x-y,z
-x,-y,z
-x+y,-x,z
y,-x+y,z
x-y,-y,-z
-x,-x+y,-z
y,x,-z
-y,-x,-z
-x+y,y,-z
x,x-y,-z
-x,-y,-z
-x+y,-x,-z
y,-x+y,-z
x,y,-z
x-y,x,-z
-y,x-y,-z
-x+y,y,z
x,x-y,z
-y,-x,z
y,x,z
x-y,-y,z
-x,-x+y,z
loop_
_atom_site_type_symbol
_atom_site_label
_atom_site_fract_x
_atom_site_fract_y
_atom_site_fract_z
Si Si1 0.387542 0.468757 0.628756
Si Si2 0.475252 0.666392 0.196557
Si Si3 0.457923 0.915845 0.050768
Si Si4 0.781826 0.079475 0.873154
Si Si5 0.785281 0.706734 0.234249
Si Si6 0.917352 0.354198 0.119031
Si Si7 0.666931 0.475566 0.552294
Si Si8 0.851313 0.289500 0.284804
O O1 0.455464 0.544537 0.639451
O O2 0.409640 0.409640 0.619066
O O3 0.346498 0.471817 0.583791
O O4 0.337067 0.446556 0.672123
O O5 0.484346 0.742173 0.182567
O O6 0.393358 0.606643 0.191534
O O7 0.524546 0.650318 0.164147
O O8 0.498736 0.666878 0.248813
O O9 0.506667 0.890626 0.077471
O O10 0.500000 0.000000 0.046366
O O11 0.440645 0.881290 0.000000
O O12 0.861096 0.138905 0.889692
O O13 0.772879 0.084698 0.819153
O O14 0.722740 0.094304 0.896149
O O15 0.766416 0.000000 0.886359
O O16 0.866915 0.733830 0.247698
O O17 0.769444 0.769444 0.247318
O O18 0.731658 0.636213 0.261073
O O19 0.000000 0.407892 0.130564
O O20 0.669099 0.499864 0.500000
O O21 0.740539 0.481077 0.567046
O O22 0.605810 0.394191 0.559234
O O23 0.780068 0.219933 0.301734
#
# Coordination Sequence:
#
# PCOD8328496 Si02
#       8
#    24  24  12  24  24  24  24  24
#     4  10  20  31  42  60  86 114 139 169 218 269
#     4  11  21  32  45  64  88 117 148 181 221 267
#     4   9  18  32  48  70  96 118 146 186 231 273
#     4   9  16  27  44  67  92 117 149 187 226 267
#     4   9  16  26  41  61  85 113 142 176 214 253
#     4  10  18  29  48  70  88 113 148 187 227 268
#     4   9  17  30  48  66  82 104 140 182 217 252
#     4  10  19  30  44  60  83 113 147 184 218 256
#
# _framework density 15.120354000000001
#
# number of rings (size 3 to 8) (size 9 to 14) (size 15 to 20)
#    0.000    2.333    2.000    1.867    0.000    1.333 
#    0.000    1.333    0.000    6.133    0.000    1.867 
#    0.000    0.000    0.000    0.000    0.000    0.000 
#
# Total GULP energy -2231768.535524 kJ/mol
# GULP energy per Si atom -12398.714086 kJ/mol
# Density = 1.508594 g / cm^3
# Si number density = 15.120354 Si / 1000 Ang^3
#
#
#
# Elastic Constant Matrix: (Units=GPa)
#
#
# Indices 1 2 3 4 5 6 
#
# 1 94.3404 53.4745 39.6258 0.0000 0.0000 0.0000
# 2 53.4745 94.3404 39.6258 0.0000 0.0000 0.0000
# 3 39.6258 39.6258 52.8074 0.0000 0.0000 0.0000
# 4 0.0000 0.0000 0.0000 15.5146 0.0000 0.0000
# 5 0.0000 0.0000 0.0000 0.0000 15.5146 0.0000
# 6 0.0000 0.0000 0.0000 0.0000 0.0000 20.4330
#
#
#
# Elastic Compliance Matrix: (Units=1/GPa)
#
#
# Indices 1 2 3 4 5 6 
#
# 1 0.017895 -0.006576 -0.008494 0.000000 0.000000 0.000000
# 2 -0.006576 0.017895 -0.008494 0.000000 0.000000 0.000000
# 3 -0.008494 -0.008494 0.031684 0.000000 0.000000 0.000000
# 4 0.000000 0.000000 0.000000 0.064455 0.000000 0.000000
# 5 0.000000 0.000000 0.000000 0.000000 0.064455 0.000000
# 6 0.000000 0.000000 0.000000 0.000000 0.000000 0.048941
#
#
# Mechanical properties :
#
#
# Convention : Reuss Voigt Hill
#
# Bulk Modulus (GPa) = 49.14660 56.32671 52.73666
# Shear Modulus (GPa) = 16.70938 17.54323 17.12631
#
# Velocity S-wave (km/s) = 3.32790 3.40992 3.36916
# Velocity P-wave (km/s) = 6.88046 7.26888 7.07733
#
# Compressibility (1/GPa) = 0.02034729
#
# Stress axis : x y z
#
# Youngs Moduli (GPa) = 55.88241 55.88241 31.56187
#
# Poissons Ratio (x) = 0.36746 0.26808
# Poissons Ratio (y) = 0.36746 0.26808
# Poissons Ratio (z) = 0.47465 0.47465
#
# Static dielectric constant tensor:
#      x y z
#    x 2.965190 0.000000 0.000000 
#    y 0.000000 2.965190 0.000000 
#    z 0.000000 0.000000 2.811410 
# 
# 
# High freq. dielectric constant tensor:
#      x y z
#    x 1.574360 0.000000 0.000000 
#    y 0.000000 1.574360 0.000000 
#    z 0.000000 0.000000 1.558650 
# 
# From -- ./inp_files/10891.got.cif
#   From: 2010.03.12/outbox.cif.g09.slc.cpg/sg191_6_cif.got.tgz:10891.got - 2010.04.01 12:09:02.
