data_PCOD8328406
_publ_section_title
;
Structure prediction by ZEFSAII (Michael W. Deem and Ramdas Pophale) SiO2 
 PCOD8328406
Probable space group: P 6/M M M
;
_chemical_formula_sum "Si O2"
_cell_formula_units_Z 144
_cell_length_a 21.582802
_cell_length_b 21.582802
_cell_length_c 22.098691
_cell_angle_alpha 90.000000
_cell_angle_beta 90.000000
_cell_angle_gamma 120.000000
_cell_volume 8914.825243
_symmetry_space_group_name_H-M "P 6/M M M"
_symmetry_group_IT_number 191
_symmetry_cell_setting 'hexagonal'
loop_
_space_group_symop_operation_xyz
x,y,z
x-y,x,z
-y,x-y,z
-x,-y,z
-x+y,-x,z
y,-x+y,z
x-y,-y,-z
-x,-x+y,-z
y,x,-z
-y,-x,-z
-x+y,y,-z
x,x-y,-z
-x,-y,-z
-x+y,-x,-z
y,-x+y,-z
x,y,-z
x-y,x,-z
-y,x-y,-z
-x+y,y,z
x,x-y,z
-y,-x,z
y,x,z
x-y,-y,z
-x,-x+y,z
loop_
_atom_site_type_symbol
_atom_site_label
_atom_site_fract_x
_atom_site_fract_y
_atom_site_fract_z
Si Si1 0.154041 0.448960 0.071394
Si Si2 0.616637 0.918385 0.384712
Si Si3 0.215782 0.920471 0.276654
Si Si4 0.526143 0.191466 0.570090
Si Si5 0.221078 0.302111 0.138408
Si Si6 0.541475 0.082949 0.071784
Si Si7 0.782168 0.081406 0.500000
O O1 0.237387 0.474774 0.088873
O O2 0.101190 0.372271 0.100127
O O3 0.127937 0.503650 0.094505
O O4 0.144194 0.439386 0.000000
O O5 0.638689 0.897891 0.321707
O O6 0.531584 0.873161 0.389669
O O7 0.652067 0.900317 0.440763
O O8 0.636648 0.000000 0.385975
O O9 0.131269 0.868732 0.286089
O O10 0.238739 0.914711 0.208672
O O11 0.231693 0.000000 0.292140
O O12 0.511684 0.170130 0.500000
O O13 0.603655 0.207310 0.590272
O O14 0.520910 0.260455 0.584918
O O15 0.136924 0.273847 0.124771
O O16 0.240043 0.240043 0.121870
O O17 0.500000 0.000000 0.096098
O O18 0.540185 0.080370 0.000000
O O19 0.867782 0.132219 0.500000
O O20 0.765050 0.000000 0.500000
#
# Coordination Sequence:
#
# PCOD8328406 Si02
#       7
#    24  24  24  24  24  12  12
#     4   9  17  29  45  68  94 118 148 185 226 267
#     4  10  19  30  46  67  87 109 139 179 223 261
#     4   9  17  29  46  66  88 115 146 179 217 261
#     4  10  19  30  45  64  88 116 145 176 212 258
#     4   9  17  29  46  67  91 119 150 184 221 263
#     4   9  16  26  42  64  90 120 150 181 221 267
#     4  10  18  28  43  64  87 109 137 173 214 256
#
# _framework density 16.152868999999999
#
# number of rings (size 3 to 8) (size 9 to 14) (size 15 to 20)
#    0.000    2.583    0.833    2.167    0.000    2.000 
#    0.500    0.833    1.833    0.417    0.000    2.333 
#    0.000    4.000    0.000    4.333    0.000    4.667 
#
# Total GULP energy -1784990.781650 kJ/mol
# GULP energy per Si atom -12395.769317 kJ/mol
# Density = 1.611610 g / cm^3
# Si number density = 16.152869 Si / 1000 Ang^3
#
#
#
# Elastic Constant Matrix: (Units=GPa)
#
#
# Indices 1 2 3 4 5 6 
#
# 1 103.6230 64.0050 25.3177 0.0000 0.0000 0.0000
# 2 64.0050 103.6230 25.3177 0.0000 0.0000 0.0000
# 3 25.3177 25.3177 33.6129 0.0000 0.0000 0.0000
# 4 0.0000 0.0000 0.0000 19.0368 0.0000 0.0000
# 5 0.0000 0.0000 0.0000 0.0000 19.0368 0.0000
# 6 0.0000 0.0000 0.0000 0.0000 0.0000 19.8090
#
#
#
# Elastic Compliance Matrix: (Units=1/GPa)
#
#
# Indices 1 2 3 4 5 6 
#
# 1 0.016482 -0.008759 -0.005817 0.000000 0.000000 0.000000
# 2 -0.008759 0.016482 -0.005817 0.000000 0.000000 0.000000
# 3 -0.005817 -0.005817 0.038513 0.000000 0.000000 0.000000
# 4 0.000000 0.000000 0.000000 0.052530 0.000000 0.000000
# 5 0.000000 0.000000 0.000000 0.000000 0.052530 0.000000
# 6 0.000000 0.000000 0.000000 0.000000 0.000000 0.050482
#
#
# Mechanical properties :
#
#
# Convention : Reuss Voigt Hill
#
# Bulk Modulus (GPa) = 32.58267 52.23775 42.41021
# Shear Modulus (GPa) = 17.98335 19.99107 18.98721
#
# Velocity S-wave (km/s) = 3.34027 3.52180 3.43223
# Velocity P-wave (km/s) = 5.92383 6.99623 6.48224
#
# Compressibility (1/GPa) = 0.03069116
#
# Stress axis : x y z
#
# Youngs Moduli (GPa) = 60.67275 60.67275 25.96518
#
# Poissons Ratio (x) = 0.53144 0.15103
# Poissons Ratio (y) = 0.53144 0.15103
# Poissons Ratio (z) = 0.35292 0.35292
#
# Static dielectric constant tensor:
#      x y z
#    x 3.154410 0.000000 0.000000 
#    y 0.000000 3.154410 0.000000 
#    z 0.000000 0.000000 3.002480 
# 
# 
# High freq. dielectric constant tensor:
#      x y z
#    x 1.617330 0.000000 0.000000 
#    y 0.000000 1.617330 0.000000 
#    z 0.000000 0.000000 1.604640 
# 
# From -- ./inp_files/7682.got.cif
#   From: 2010.03.12/outbox.cif.g09.slc.cpg/sg191_4_cif.got.tgz:7682.got - 2010.04.01 12:09:02.
