data_PCOD8328484
_publ_section_title
;
Structure prediction by ZEFSAII (Michael W. Deem and Ramdas Pophale) SiO2 
 PCOD8328484
Probable space group: P 6/M M M
;
_chemical_formula_sum "Si O2"
_cell_formula_units_Z 120
_cell_length_a 17.006144
_cell_length_b 17.006144
_cell_length_c 29.486279
_cell_angle_alpha 90.000000
_cell_angle_beta 90.000000
_cell_angle_gamma 120.000000
_cell_volume 7385.200774
_symmetry_space_group_name_H-M "P 6/M M M"
_symmetry_group_IT_number 191
_symmetry_cell_setting 'hexagonal'
loop_
_space_group_symop_operation_xyz
x,y,z
x-y,x,z
-y,x-y,z
-x,-y,z
-x+y,-x,z
y,-x+y,z
x-y,-y,-z
-x,-x+y,-z
y,x,-z
-y,-x,-z
-x+y,y,-z
x,x-y,-z
-x,-y,-z
-x+y,-x,-z
y,-x+y,-z
x,y,-z
x-y,x,-z
-y,x-y,-z
-x+y,y,z
x,x-y,z
-y,-x,z
y,x,z
x-y,-y,z
-x,-x+y,z
loop_
_atom_site_type_symbol
_atom_site_label
_atom_site_fract_x
_atom_site_fract_y
_atom_site_fract_z
Si Si1 0.844131 0.332452 0.277346
Si Si2 0.725930 0.098417 0.636935
Si Si3 0.893635 0.446818 0.860940
Si Si4 0.845282 0.512824 0.449159
Si Si5 0.608626 0.391375 0.949825
Si Si6 0.713785 0.608907 0.187408
O O1 0.865879 0.432940 0.265382
O O2 0.736142 0.263859 0.275392
O O3 0.880752 0.332752 0.327468
O O4 0.894840 0.301870 0.241268
O O5 0.831914 0.168087 0.643208
O O6 0.691737 0.099384 0.586342
O O7 0.713195 0.000000 0.645936
O O8 0.859729 0.429865 0.912369
O O9 0.861441 0.510745 0.836159
O O10 0.000000 0.500000 0.862696
O O11 0.879326 0.550278 0.500000
O O12 0.738183 0.476365 0.444392
O O13 0.862693 0.431347 0.437746
O O14 0.563806 0.281903 0.944664
O O15 0.585915 0.414086 0.000000
O O16 0.820003 0.640005 0.175451
O O17 0.685185 0.685185 0.173567
#
# Coordination Sequence:
#
# PCOD8328484 Si02
#       6
#    24  24  12  24  12  24
#     4  10  19  31  46  67  96 125 155 183 216 265
#     4  10  21  34  48  64  84 113 142 178 225 269
#     4  10  18  29  46  70  96 124 161 202 246 290
#     4   9  17  29  45  66  91 118 147 173 200 241
#     4   8  16  29  44  62  90 128 168 201 228 270
#     4  10  20  32  47  68  95 126 160 203 246 290
#
# _framework density 16.248712000000001
#
# number of rings (size 3 to 8) (size 9 to 14) (size 15 to 20)
#    0.200    2.200    1.000    2.200    0.000    3.800 
#    0.600    3.000    0.000    0.400    0.000    0.000 
#    0.000    4.800    0.000    5.000    0.000    0.000 
#
# Total GULP energy -1487161.508739 kJ/mol
# GULP energy per Si atom -12393.012573 kJ/mol
# Density = 1.621173 g / cm^3
# Si number density = 16.248712 Si / 1000 Ang^3
#
#
#
# Elastic Constant Matrix: (Units=GPa)
#
#
# Indices 1 2 3 4 5 6 
#
# 1 68.7030 49.5446 15.5818 0.0000 0.0000 0.0000
# 2 49.5446 68.7030 15.5818 0.0000 0.0000 0.0000
# 3 15.5818 15.5818 76.8069 0.0000 0.0000 0.0000
# 4 0.0000 0.0000 0.0000 17.1181 0.0000 0.0000
# 5 0.0000 0.0000 0.0000 0.0000 17.1181 0.0000
# 6 0.0000 0.0000 0.0000 0.0000 0.0000 9.5792
#
#
#
# Elastic Compliance Matrix: (Units=1/GPa)
#
#
# Indices 1 2 3 4 5 6 
#
# 1 0.030565 -0.021631 -0.001813 0.000000 0.000000 0.000000
# 2 -0.021631 0.030565 -0.001813 0.000000 0.000000 0.000000
# 3 -0.001813 -0.001813 0.013755 0.000000 0.000000 0.000000
# 4 0.000000 0.000000 0.000000 0.058418 0.000000 0.000000
# 5 0.000000 0.000000 0.000000 0.000000 0.058418 0.000000
# 6 0.000000 0.000000 0.000000 0.000000 0.000000 0.104393
#
#
# Mechanical properties :
#
#
# Convention : Reuss Voigt Hill
#
# Bulk Modulus (GPa) = 41.02740 41.73658 41.38199
# Shear Modulus (GPa) = 14.09439 17.66340 15.87890
#
# Velocity S-wave (km/s) = 2.94839 3.30064 3.12948
# Velocity P-wave (km/s) = 6.07413 6.34567 6.21139
#
# Compressibility (1/GPa) = 0.02437395
#
# Stress axis : x y z
#
# Youngs Moduli (GPa) = 32.71666 32.71666 72.70038
#
# Poissons Ratio (x) = 0.70769 0.13177
# Poissons Ratio (y) = 0.70769 0.13177
# Poissons Ratio (z) = 0.05930 0.05930
#
# Static dielectric constant tensor:
#      x y z
#    x 2.950570 0.000000 0.000000 
#    y 0.000000 2.950570 0.000000 
#    z 0.000000 0.000000 3.092310 
# 
# 
# High freq. dielectric constant tensor:
#      x y z
#    x 1.601430 0.000000 0.000000 
#    y 0.000000 1.601430 0.000000 
#    z 0.000000 0.000000 1.627970 
# 
# From -- ./inp_files/9586.got.cif
#   From: 2010.03.12/outbox.cif.g09.slc.cpg/sg191_5_cif.got.tgz:9586.got - 2010.04.01 12:09:02.
