data_PCOD8328436
_publ_section_title
;
Structure prediction by ZEFSAII (Michael W. Deem and Ramdas Pophale) SiO2 
 PCOD8328436
Probable space group: P 6/M M M
;
_chemical_formula_sum "Si O2"
_cell_formula_units_Z 168
_cell_length_a 22.132606
_cell_length_b 22.132606
_cell_length_c 25.746124
_cell_angle_alpha 90.000000
_cell_angle_beta 90.000000
_cell_angle_gamma 120.000000
_cell_volume 10922.136354
_symmetry_space_group_name_H-M "P 6/M M M"
_symmetry_group_IT_number 191
_symmetry_cell_setting 'hexagonal'
loop_
_space_group_symop_operation_xyz
x,y,z
x-y,x,z
-y,x-y,z
-x,-y,z
-x+y,-x,z
y,-x+y,z
x-y,-y,-z
-x,-x+y,-z
y,x,-z
-y,-x,-z
-x+y,y,-z
x,x-y,-z
-x,-y,-z
-x+y,-x,-z
y,-x+y,-z
x,y,-z
x-y,x,-z
-y,x-y,-z
-x+y,y,z
x,x-y,z
-y,-x,z
y,x,z
x-y,-y,z
-x,-x+y,z
loop_
_atom_site_type_symbol
_atom_site_label
_atom_site_fract_x
_atom_site_fract_y
_atom_site_fract_z
Si Si1 0.526295 0.608930 0.443738
Si Si2 0.081922 0.660763 0.336467
Si Si3 0.922380 0.211911 0.819499
Si Si4 0.809944 0.334336 0.254713
Si Si5 0.555321 0.847614 0.849784
Si Si6 0.923579 0.714663 0.697245
Si Si7 0.467775 0.389595 0.942306
O O1 0.539121 0.647845 0.500000
O O2 0.443941 0.556060 0.436437
O O3 0.565743 0.565743 0.443968
O O4 0.553326 0.661129 0.395175
O O5 0.131340 0.647909 0.298140
O O6 0.094447 0.737717 0.330133
O O7 0.000000 0.602519 0.326978
O O8 0.866975 0.133026 0.837881
O O9 0.904005 0.267531 0.842917
O O10 0.918434 0.218061 0.758140
O O11 0.000000 0.231184 0.837650
O O12 0.789794 0.394897 0.254514
O O13 0.740306 0.259695 0.265144
O O14 0.845494 0.334829 0.200045
O O15 0.543939 0.771970 0.859777
O O16 0.528436 0.866922 0.900877
O O17 0.868947 0.737893 0.678695
O O18 0.000000 0.776624 0.681367
O O19 0.540946 0.459055 0.942271
O O20 0.407387 0.407387 0.927548
O O21 0.453158 0.355642 0.000000
#
# Coordination Sequence:
#
# PCOD8328436 Si02
#       7
#    24  24  24  24  24  24  24
#     4   8  14  25  40  60  88 117 143 175 218 267
#     4  10  18  28  46  70  91 112 143 184 227 269
#     4   9  16  27  43  64  90 118 146 176 216 262
#     4  11  22  34  46  62  88 120 150 182 221 265
#     4  10  19  30  46  66  87 113 146 184 221 259
#     4   9  16  27  43  63  89 118 145 177 218 263
#     4   9  18  32  48  65  86 112 141 175 217 263
#
# _framework density 15.381606
#
# number of rings (size 3 to 8) (size 9 to 14) (size 15 to 20)
#    0.000    2.571    1.429    2.714    0.000    1.714 
#    0.000    0.000    0.000    2.286    0.000    2.000 
#    0.000    1.143    0.000    0.000    0.000    0.000 
#
# Total GULP energy -2082143.754882 kJ/mol
# GULP energy per Si atom -12393.712827 kJ/mol
# Density = 1.534660 g / cm^3
# Si number density = 15.381606 Si / 1000 Ang^3
#
#
#
# Elastic Constant Matrix: (Units=GPa)
#
#
# Indices 1 2 3 4 5 6 
#
# 1 69.1051 33.9698 41.5573 0.0000 0.0000 0.0000
# 2 33.9698 69.1051 41.5573 0.0000 0.0000 0.0000
# 3 41.5573 41.5573 85.1698 0.0000 0.0000 0.0000
# 4 0.0000 0.0000 0.0000 15.1642 0.0000 0.0000
# 5 0.0000 0.0000 0.0000 0.0000 15.1642 0.0000
# 6 0.0000 0.0000 0.0000 0.0000 0.0000 17.5677
#
#
#
# Elastic Compliance Matrix: (Units=1/GPa)
#
#
# Indices 1 2 3 4 5 6 
#
# 1 0.022228 -0.006233 -0.007804 0.000000 0.000000 0.000000
# 2 -0.006233 0.022228 -0.007804 0.000000 0.000000 0.000000
# 3 -0.007804 -0.007804 0.019357 0.000000 0.000000 0.000000
# 4 0.000000 0.000000 0.000000 0.065945 0.000000 0.000000
# 5 0.000000 0.000000 0.000000 0.000000 0.065945 0.000000
# 6 0.000000 0.000000 0.000000 0.000000 0.000000 0.056923
#
#
# Mechanical properties :
#
#
# Convention : Reuss Voigt Hill
#
# Bulk Modulus (GPa) = 49.67893 50.83876 50.25885
# Shear Modulus (GPa) = 16.50055 16.66557 16.58306
#
# Velocity S-wave (km/s) = 3.27883 3.29519 3.28702
# Velocity P-wave (km/s) = 6.83389 6.89935 6.86670
#
# Compressibility (1/GPa) = 0.02012926
#
# Stress axis : x y z
#
# Youngs Moduli (GPa) = 44.98817 44.98817 51.66005
#
# Poissons Ratio (x) = 0.28043 0.40318
# Poissons Ratio (y) = 0.28043 0.40318
# Poissons Ratio (z) = 0.35111 0.35111
#
# Static dielectric constant tensor:
#      x y z
#    x 2.962950 0.000000 0.000000 
#    y 0.000000 2.962950 0.000000 
#    z 0.000000 0.000000 3.144250 
# 
# 
# High freq. dielectric constant tensor:
#      x y z
#    x 1.577500 0.000000 0.000000 
#    y 0.000000 1.577500 0.000000 
#    z 0.000000 0.000000 1.581850 
# 
# From -- ./inp_files/10048.got.cif
#   From: 2010.03.12/outbox.cif.g09.slc.cpg/sg191_6_cif.got.tgz:10048.got - 2010.04.01 12:09:02.
