data_PCOD8328711
_publ_section_title
;
Structure prediction by ZEFSAII (Michael W. Deem and Ramdas Pophale) SiO2 
 PCOD8328711
Probable space group: P 6/M M M
;
_chemical_formula_sum "Si O2"
_cell_formula_units_Z 120
_cell_length_a 17.686289
_cell_length_b 17.686289
_cell_length_c 25.725440
_cell_angle_alpha 90.000000
_cell_angle_beta 90.000000
_cell_angle_gamma 120.000000
_cell_volume 6968.942444
_symmetry_space_group_name_H-M "P 6/M M M"
_symmetry_group_IT_number 191
_symmetry_cell_setting 'hexagonal'
loop_
_space_group_symop_operation_xyz
x,y,z
x-y,x,z
-y,x-y,z
-x,-y,z
-x+y,-x,z
y,-x+y,z
x-y,-y,-z
-x,-x+y,-z
y,x,-z
-y,-x,-z
-x+y,y,-z
x,x-y,-z
-x,-y,-z
-x+y,-x,-z
y,-x+y,-z
x,y,-z
x-y,x,-z
-y,x-y,-z
-x+y,y,z
x,x-y,z
-y,-x,z
y,x,z
x-y,-y,z
-x,-x+y,z
loop_
_atom_site_type_symbol
_atom_site_label
_atom_site_fract_x
_atom_site_fract_y
_atom_site_fract_z
Si Si1 0.506443 0.837248 0.389614
Si Si2 0.541220 0.903332 0.500000
Si Si3 0.467408 0.102499 0.201454
Si Si4 0.365066 0.897678 0.000000
Si Si5 0.269757 0.372085 0.100377
Si Si6 0.632880 0.731864 0.701720
O O1 0.429160 0.858320 0.382442
O O2 0.472446 0.736223 0.376208
O O3 0.543743 0.854178 0.448209
O O4 0.583922 0.899696 0.351144
O O5 0.453914 0.907828 0.500000
O O6 0.624670 0.000000 0.500000
O O7 0.572965 0.145930 0.200624
O O8 0.434841 0.127676 0.149875
O O9 0.437579 0.134382 0.251782
O O10 0.426216 0.000000 0.204498
O O11 0.305289 0.870092 0.949166
O O12 0.426898 0.853796 0.000000
O O13 0.427589 0.000000 0.000000
O O14 0.163845 0.327690 0.100948
O O15 0.296534 0.296534 0.099768
O O16 0.673053 0.836527 0.697781
O O17 0.711272 0.711272 0.711493
#
# Coordination Sequence:
#
# PCOD8328711 Si02
#       6
#    24  12  24  12  24  24
#     4  10  19  30  45  66  93 124 157 193 232 274
#     4   9  17  28  42  60  84 119 161 197 227 264
#     4   9  17  30  49  71  93 119 152 188 227 274
#     4   9  17  30  49  70  90 116 152 193 237 286
#     4  10  19  31  49  72  97 127 164 203 240 280
#     4  10  20  33  50  71  94 122 156 194 234 277
#
# _framework density 17.219255
#
# number of rings (size 3 to 8) (size 9 to 14) (size 15 to 20)
#    0.000    2.400    0.000    3.200    0.000    4.400 
#    0.000    1.000    0.000   11.200    0.000    0.000 
#    0.000    7.200    0.000    0.000    0.000   21.600 
#
# Total GULP energy -1487478.076456 kJ/mol
# GULP energy per Si atom -12395.650637 kJ/mol
# Density = 1.718006 g / cm^3
# Si number density = 17.219255 Si / 1000 Ang^3
#
#
#
# Elastic Constant Matrix: (Units=GPa)
#
#
# Indices 1 2 3 4 5 6 
#
# 1 86.1726 49.3953 29.9720 0.0000 0.0000 0.0000
# 2 49.3953 86.1726 29.9720 0.0000 0.0000 0.0000
# 3 29.9720 29.9720 128.4181 0.0000 0.0000 0.0000
# 4 0.0000 0.0000 0.0000 17.1128 0.0000 0.0000
# 5 0.0000 0.0000 0.0000 0.0000 17.1128 0.0000
# 6 0.0000 0.0000 0.0000 0.0000 0.0000 18.3887
#
#
#
# Elastic Compliance Matrix: (Units=1/GPa)
#
#
# Indices 1 2 3 4 5 6 
#
# 1 0.017708 -0.009483 -0.001920 0.000000 0.000000 0.000000
# 2 -0.009483 0.017708 -0.001920 0.000000 0.000000 0.000000
# 3 -0.001920 -0.001920 0.008683 0.000000 0.000000 0.000000
# 4 0.000000 0.000000 0.000000 0.058436 0.000000 0.000000
# 5 0.000000 0.000000 0.000000 0.000000 0.058436 0.000000
# 6 0.000000 0.000000 0.000000 0.000000 0.000000 0.054381
#
#
# Mechanical properties :
#
#
# Convention : Reuss Voigt Hill
#
# Bulk Modulus (GPa) = 57.29104 57.71576 57.50340
# Shear Modulus (GPa) = 20.17636 23.28444 21.73040
#
# Velocity S-wave (km/s) = 3.42677 3.68126 3.55629
# Velocity P-wave (km/s) = 7.00005 7.18748 7.09438
#
# Compressibility (1/GPa) = 0.01745474
#
# Stress axis : x y z
#
# Youngs Moduli (GPa) = 56.47182 56.47182 115.16543
#
# Poissons Ratio (x) = 0.53551 0.22108
# Poissons Ratio (y) = 0.53551 0.22108
# Poissons Ratio (z) = 0.10841 0.10841
#
# Static dielectric constant tensor:
#      x y z
#    x 3.024670 0.000000 0.000000 
#    y 0.000000 3.024670 0.000000 
#    z 0.000000 0.000000 3.512980 
# 
# 
# High freq. dielectric constant tensor:
#      x y z
#    x 1.638700 0.000000 0.000000 
#    y 0.000000 1.638700 0.000000 
#    z 0.000000 0.000000 1.688210 
# 
# From -- ./inp_files/8587.got.cif
#   From: 2010.03.12/outbox.cif.g09.slc.cpg/sg191_5_cif.got.tgz:8587.got - 2010.04.01 12:09:02.
