data_PCOD8328381
_publ_section_title
;
Structure prediction by ZEFSAII (Michael W. Deem and Ramdas Pophale) SiO2 
 PCOD8328381
Probable space group: P 6/M M M
;
_chemical_formula_sum "Si O2"
_cell_formula_units_Z 192
_cell_length_a 22.356804
_cell_length_b 22.356804
_cell_length_c 30.602206
_cell_angle_alpha 90.000000
_cell_angle_beta 90.000000
_cell_angle_gamma 120.000000
_cell_volume 13246.550662
_symmetry_space_group_name_H-M "P 6/M M M"
_symmetry_group_IT_number 191
_symmetry_cell_setting 'hexagonal'
loop_
_space_group_symop_operation_xyz
x,y,z
x-y,x,z
-y,x-y,z
-x,-y,z
-x+y,-x,z
y,-x+y,z
x-y,-y,-z
-x,-x+y,-z
y,x,-z
-y,-x,-z
-x+y,y,-z
x,x-y,-z
-x,-y,-z
-x+y,-x,-z
y,-x+y,-z
x,y,-z
x-y,x,-z
-y,x-y,-z
-x+y,y,z
x,x-y,z
-y,-x,z
y,x,z
x-y,-y,z
-x,-x+y,z
loop_
_atom_site_type_symbol
_atom_site_label
_atom_site_fract_x
_atom_site_fract_y
_atom_site_fract_z
Si Si1 0.467321 0.390625 0.951013
Si Si2 0.854182 0.287693 0.548385
Si Si3 0.804995 0.471609 0.787190
Si Si4 0.713372 0.789929 0.581837
Si Si5 0.210416 0.286981 0.684508
Si Si6 0.667053 0.194121 0.886732
Si Si7 0.564062 0.711508 0.291579
Si Si8 0.808641 0.334158 0.627546
O O1 0.538133 0.461868 0.948762
O O2 0.405081 0.405081 0.938654
O O3 0.470388 0.337438 0.917011
O O4 0.456004 0.359712 0.000000
O O5 0.867248 0.321271 0.500000
O O6 0.782558 0.217443 0.550430
O O7 0.913637 0.269404 0.559167
O O8 0.851671 0.339620 0.583725
O O9 0.726327 0.452653 0.779863
O O10 0.808975 0.404488 0.775061
O O11 0.828337 0.495707 0.836790
O O12 0.856475 0.532722 0.755085
O O13 0.733550 0.866775 0.565331
O O14 0.775817 0.775817 0.570144
O O15 0.698814 0.784025 0.633166
O O16 0.133697 0.267394 0.701177
O O17 0.224657 0.224657 0.696522
O O18 0.271058 0.356887 0.706513
O O19 0.603967 0.207933 0.894970
O O20 0.736430 0.263571 0.899137
O O21 0.565524 0.782762 0.297196
O O22 0.517623 0.662554 0.331022
O O23 0.796387 0.398193 0.629496
O O24 0.734402 0.265599 0.628028
#
# Coordination Sequence:
#
# PCOD8328381 Si02
#       8
#    24  24  24  24  24  24  24  24
#     4   8  14  25  39  52  68  95 131 167 202 243
#     4   9  17  29  43  59  80 105 132 162 195 229
#     4   9  16  25  38  56  80 108 137 169 207 247
#     4   9  16  28  47  68  86 104 128 156 185 219
#     4   9  16  28  47  67  85 105 130 159 190 226
#     4   9  16  25  37  55  79 105 132 166 210 256
#     4   9  16  27  42  59  79 105 137 168 194 225
#     4  10  18  28  42  60  80 102 131 168 207 243
#
# _framework density 14.494339
#
# number of rings (size 3 to 8) (size 9 to 14) (size 15 to 20)
#    0.000    3.000    1.250    1.125    0.000    1.750 
#    0.000    1.875    0.000    5.125    0.000    2.625 
#    0.000    0.000    0.000    3.125    0.000    3.250 
#
# Total GULP energy -2379720.599798 kJ/mol
# GULP energy per Si atom -12394.378124 kJ/mol
# Density = 1.446135 g / cm^3
# Si number density = 14.494339 Si / 1000 Ang^3
#
#
#
# Elastic Constant Matrix: (Units=GPa)
#
#
# Indices 1 2 3 4 5 6 
#
# 1 68.6685 35.0667 39.1481 0.0000 0.0000 0.0000
# 2 35.0667 68.6685 39.1481 0.0000 0.0000 0.0000
# 3 39.1481 39.1481 82.1940 0.0000 0.0000 0.0000
# 4 0.0000 0.0000 0.0000 15.9798 0.0000 0.0000
# 5 0.0000 0.0000 0.0000 0.0000 15.9798 0.0000
# 6 0.0000 0.0000 0.0000 0.0000 0.0000 16.8009
#
#
#
# Elastic Compliance Matrix: (Units=1/GPa)
#
#
# Indices 1 2 3 4 5 6 
#
# 1 0.022405 -0.007355 -0.007168 0.000000 0.000000 0.000000
# 2 -0.007355 0.022405 -0.007168 0.000000 0.000000 0.000000
# 3 -0.007168 -0.007168 0.018995 0.000000 0.000000 0.000000
# 4 0.000000 0.000000 0.000000 0.062579 0.000000 0.000000
# 5 0.000000 0.000000 0.000000 0.000000 0.062579 0.000000
# 6 0.000000 0.000000 0.000000 0.000000 0.000000 0.059521
#
#
# Mechanical properties :
#
#
# Convention : Reuss Voigt Hill
#
# Bulk Modulus (GPa) = 48.96639 49.58407 49.27523
# Shear Modulus (GPa) = 16.74063 16.82998 16.78530
#
# Velocity S-wave (km/s) = 3.40218 3.41125 3.40672
# Velocity P-wave (km/s) = 7.02065 7.05684 7.03877
#
# Compressibility (1/GPa) = 0.02042217
#
# Stress axis : x y z
#
# Youngs Moduli (GPa) = 44.63219 44.63219 52.64625
#
# Poissons Ratio (x) = 0.32827 0.37738
# Poissons Ratio (y) = 0.32827 0.37738
# Poissons Ratio (z) = 0.31994 0.31994
#
# Static dielectric constant tensor:
#      x y z
#    x 2.716560 0.000000 0.000000 
#    y 0.000000 2.716560 0.000000 
#    z 0.000000 0.000000 2.933000 
# 
# 
# High freq. dielectric constant tensor:
#      x y z
#    x 1.528270 0.000000 0.000000 
#    y 0.000000 1.528270 0.000000 
#    z 0.000000 0.000000 1.549430 
# 
# From -- ./inp_files/10137.got.cif
#   From: 2010.03.12/outbox.cif.g09.slc.cpg/sg191_6_cif.got.tgz:10137.got - 2010.04.01 12:09:02.
