data_PCOD8328068
_publ_section_title
;
Structure prediction by ZEFSAII (Michael W. Deem and Ramdas Pophale) SiO2 
 PCOD8328068
Probable space group: P -6 2 C
;
_chemical_formula_sum "Si O2"
_cell_formula_units_Z 64
_cell_length_a 16.122959
_cell_length_b 16.122959
_cell_length_c 16.647192
_cell_angle_alpha 90.000000
_cell_angle_beta 90.000000
_cell_angle_gamma 120.000000
_cell_volume 3747.668077
_symmetry_space_group_name_H-M "P -6 2 C"
_symmetry_group_IT_number 190
_symmetry_cell_setting 'hexagonal'
loop_
_space_group_symop_operation_xyz
x,y,z
-x+y,-x,1/2-z
-y,x-y,z
x,y,1/2-z
-x+y,-x,z
-y,x-y,1/2-z
x-y,-y,-z
-x,-x+y,-z
y,x,-z
y,x,1/2+z
x-y,-y,1/2+z
-x,-x+y,1/2+z
loop_
_atom_site_type_symbol
_atom_site_label
_atom_site_fract_x
_atom_site_fract_y
_atom_site_fract_z
Si Si1 0.515366 0.832778 0.090679
Si Si2 0.579455 0.963304 0.842948
Si Si3 0.540969 0.777262 0.586515
Si Si4 0.345791 0.843804 0.340720
Si Si5 0.564911 0.621741 0.657116
Si Si6 0.333335 0.666667 0.844309
O O1 0.527587 0.764670 0.154309
O O2 0.409594 0.819716 0.099058
O O3 0.594229 0.942827 0.106389
O O4 0.530911 0.798564 0.005081
O O5 0.601323 0.989413 0.750000
O O6 0.599089 0.878140 0.866950
O O7 0.468907 0.929146 0.863391
O O8 0.591946 0.713248 0.599576
O O9 0.439772 0.710472 0.625980
O O10 0.384259 0.848363 0.250000
O O11 0.356816 0.946527 0.361561
O O12 0.568354 0.652077 0.750000
O O13 0.333334 0.666668 0.750000
#
# Coordination Sequence:
#
# PCOD8328068 Si02
#       6
#    12  12  12  12  12   4
#     4  11  22  34  50  74  99 135 175 217 264 302
#     4  10  20  35  53  70  99 137 173 213 256 315
#     4  12  21  32  48  76 105 130 169 216 267 308
#     4  10  20  36  54  70  98 137 182 219 251 310
#     4   9  19  33  51  72  96 133 174 213 259 309
#     4  12  21  30  48  69  97 137 172 204 258 324
#
# _framework density 17.077285
#
# number of rings (size 3 to 8) (size 9 to 14) (size 15 to 20)
#    0.000    1.500    1.875    6.562    0.000    0.750 
#    0.000    0.000    0.000    0.000    0.000    0.000 
#    1.875    0.000    3.375    0.000    3.375    0.000 
#
# Total GULP energy -793532.631265 kJ/mol
# GULP energy per Si atom -12398.947364 kJ/mol
# Density = 1.703842 g / cm^3
# Si number density = 17.077285 Si / 1000 Ang^3
#
#
#
# Elastic Constant Matrix: (Units=GPa)
#
#
# Indices 1 2 3 4 5 6 
#
# 1 102.1525 42.3129 29.0101 -0.0001 0.0000 -0.0002
# 2 42.3129 102.1513 29.0094 0.0000 0.0001 -0.0002
# 3 29.0101 29.0094 82.0999 -0.0002 0.0000 -0.0002
# 4 -0.0001 0.0000 -0.0002 26.3740 -0.0001 0.0000
# 5 0.0000 0.0001 0.0000 -0.0001 26.3746 0.0000
# 6 -0.0002 -0.0002 -0.0002 0.0000 0.0000 29.9195
#
#
#
# Elastic Compliance Matrix: (Units=1/GPa)
#
#
# Indices 1 2 3 4 5 6 
#
# 1 0.012389 -0.004322 -0.002850 0.000000 0.000000 0.000000
# 2 -0.004322 0.012389 -0.002850 0.000000 0.000000 0.000000
# 3 -0.002850 -0.002850 0.014195 0.000000 0.000000 0.000000
# 4 0.000000 0.000000 0.000000 0.037916 0.000000 0.000000
# 5 0.000000 0.000000 0.000000 0.000000 0.037915 0.000000
# 6 0.000000 0.000000 0.000000 0.000000 0.000000 0.033423
#
#
# Mechanical properties :
#
#
# Convention : Reuss Voigt Hill
#
# Bulk Modulus (GPa) = 52.83522 54.11874 53.47698
# Shear Modulus (GPa) = 28.63974 28.93838 28.78906
#
# Velocity S-wave (km/s) = 4.09964 4.12096 4.11032
# Velocity P-wave (km/s) = 7.30859 7.37580 7.34227
#
# Compressibility (1/GPa) = 0.01892677
#
# Stress axis : x y z
#
# Youngs Moduli (GPa) = 80.71585 80.71520 70.44907
#
# Poissons Ratio (x) = 0.34888 0.20081
# Poissons Ratio (y) = 0.34888 0.20081
# Poissons Ratio (z) = 0.23008 0.23007
#
# Static dielectric constant tensor:
#      x y z
#    x 3.178850 0.000000 0.000000 
#    y 0.000000 3.178860 0.000000 
#    z 0.000000 0.000000 3.269670 
# 
# 
# High freq. dielectric constant tensor:
#      x y z
#    x 1.636990 0.000000 0.000000 
#    y 0.000000 1.636990 0.000000 
#    z 0.000000 0.000000 1.670790 
# 
# From -- ./inp_files/3654.got.cif
#   From: 2010.06.25/outbox.cif.g09.slc.cpg/sg190_2_cif.got.tgz:3654.got - 2010.06.28 13:08:06.
