data_PCOD8328788
_publ_section_title
;
Structure prediction by ZEFSAII (Michael W. Deem and Ramdas Pophale) SiO2 
 PCOD8328788
Probable space group: P 6/M M M
;
_chemical_formula_sum "Si O2"
_cell_formula_units_Z 120
_cell_length_a 17.924466
_cell_length_b 17.924466
_cell_length_c 27.390868
_cell_angle_alpha 90.000000
_cell_angle_beta 90.000000
_cell_angle_gamma 120.000000
_cell_volume 7621.296872
_symmetry_space_group_name_H-M "P 6/M M M"
_symmetry_group_IT_number 191
_symmetry_cell_setting 'hexagonal'
loop_
_space_group_symop_operation_xyz
x,y,z
x-y,x,z
-y,x-y,z
-x,-y,z
-x+y,-x,z
y,-x+y,z
x-y,-y,-z
-x,-x+y,-z
y,x,-z
-y,-x,-z
-x+y,y,-z
x,x-y,-z
-x,-y,-z
-x+y,-x,-z
y,-x+y,-z
x,y,-z
x-y,x,-z
-y,x-y,-z
-x+y,y,z
x,x-y,z
-y,-x,z
y,x,z
x-y,-y,z
-x,-x+y,z
loop_
_atom_site_type_symbol
_atom_site_label
_atom_site_fract_x
_atom_site_fract_y
_atom_site_fract_z
Si Si1 0.508458 0.668273 0.605596
Si Si2 0.331962 0.490755 0.879523
Si Si3 0.496446 0.331679 0.500000
Si Si4 0.901941 0.264513 0.205157
Si Si5 0.000000 0.588405 0.054627
Si Si6 0.093958 0.739011 0.316043
O O1 0.484330 0.742165 0.615190
O O2 0.422823 0.577178 0.609399
O O3 0.553764 0.681026 0.551533
O O4 0.573414 0.672553 0.646863
O O5 0.249109 0.498219 0.894582
O O6 0.414680 0.585321 0.878482
O O7 0.321195 0.448337 0.826372
O O8 0.341362 0.427944 0.918167
O O9 0.572684 0.427317 0.500000
O O10 0.534676 0.267338 0.500000
O O11 0.837648 0.162353 0.194406
O O12 0.892482 0.285199 0.261330
O O13 0.000000 0.289099 0.192821
O O14 0.000000 0.500000 0.053178
O O15 0.000000 0.621999 0.000000
O O16 0.163016 0.836985 0.329633
O O17 0.000000 0.729368 0.320800
#
# Coordination Sequence:
#
# PCOD8328788 Si02
#       6
#    24  24  12  24  12  24
#     4   9  16  26  40  60  85 115 148 181 214 251
#     4  10  19  31  47  68  94 124 157 191 228 268
#     4   8  13  22  37  55  78 109 146 182 215 250
#     4   9  17  30  48  68  89 115 146 181 221 267
#     4   9  18  32  48  66  90 120 153 190 230 266
#     4   9  18  31  46  64  86 112 143 178 220 266
#
# _framework density 15.745352
#
# number of rings (size 3 to 8) (size 9 to 14) (size 15 to 20)
#    0.000    2.900    1.000    0.500    0.000    3.200 
#    0.000    2.500    0.000    5.800    0.000    2.800 
#    0.000    0.000    0.000    0.000    0.000   20.900 
#
# Total GULP energy -1486776.825749 kJ/mol
# GULP energy per Si atom -12389.806881 kJ/mol
# Density = 1.570952 g / cm^3
# Si number density = 15.745352 Si / 1000 Ang^3
#
#
#
# Elastic Constant Matrix: (Units=GPa)
#
#
# Indices 1 2 3 4 5 6 
#
# 1 83.5305 50.3604 49.3943 0.0000 0.0000 0.0000
# 2 50.3604 83.5305 49.3943 0.0000 0.0000 0.0000
# 3 49.3943 49.3943 106.6446 0.0000 0.0000 0.0000
# 4 0.0000 0.0000 0.0000 19.1072 0.0000 0.0000
# 5 0.0000 0.0000 0.0000 0.0000 19.1072 0.0000
# 6 0.0000 0.0000 0.0000 0.0000 0.0000 16.5850
#
#
#
# Elastic Compliance Matrix: (Units=1/GPa)
#
#
# Indices 1 2 3 4 5 6 
#
# 1 0.020747 -0.009401 -0.005255 0.000000 0.000000 0.000000
# 2 -0.009401 0.020747 -0.005255 0.000000 0.000000 0.000000
# 3 -0.005255 -0.005255 0.014245 0.000000 0.000000 0.000000
# 4 0.000000 0.000000 0.000000 0.052336 0.000000 0.000000
# 5 0.000000 0.000000 0.000000 0.000000 0.052336 0.000000
# 6 0.000000 0.000000 0.000000 0.000000 0.000000 0.060295
#
#
# Mechanical properties :
#
#
# Convention : Reuss Voigt Hill
#
# Bulk Modulus (GPa) = 62.82731 63.55596 63.19164
# Shear Modulus (GPa) = 18.80869 19.26366 19.03618
#
# Velocity S-wave (km/s) = 3.45998 3.50158 3.48084
# Velocity P-wave (km/s) = 7.48002 7.53662 7.50837
#
# Compressibility (1/GPa) = 0.01591664
#
# Stress axis : x y z
#
# Youngs Moduli (GPa) = 48.19983 48.19983 70.20008
#
# Poissons Ratio (x) = 0.45312 0.36891
# Poissons Ratio (y) = 0.45312 0.36891
# Poissons Ratio (z) = 0.25330 0.25330
#
# Static dielectric constant tensor:
#      x y z
#    x 2.911450 0.000000 0.000000 
#    y 0.000000 2.911450 0.000000 
#    z 0.000000 0.000000 3.370850 
# 
# 
# High freq. dielectric constant tensor:
#      x y z
#    x 1.583460 0.000000 0.000000 
#    y 0.000000 1.583460 0.000000 
#    z 0.000000 0.000000 1.618790 
# 
# From -- ./inp_files/9579.got.cif
#   From: 2010.03.12/outbox.cif.g09.slc.cpg/sg191_5_cif.got.tgz:9579.got - 2010.04.01 12:09:02.
