data_PCOD8328984
_publ_section_title
;
Structure prediction by ZEFSAII (Michael W. Deem and Ramdas Pophale) SiO2 
 PCOD8328984
Probable space group: P 6/M M M
;
_chemical_formula_sum "Si O2"
_cell_formula_units_Z 84
_cell_length_a 25.971040
_cell_length_b 25.971040
_cell_length_c 9.754749
_cell_angle_alpha 90.000000
_cell_angle_beta 90.000000
_cell_angle_gamma 120.000000
_cell_volume 5698.038942
_symmetry_space_group_name_H-M "P 6/M M M"
_symmetry_group_IT_number 191
_symmetry_cell_setting 'hexagonal'
loop_
_space_group_symop_operation_xyz
x,y,z
x-y,x,z
-y,x-y,z
-x,-y,z
-x+y,-x,z
y,-x+y,z
x-y,-y,-z
-x,-x+y,-z
y,x,-z
-y,-x,-z
-x+y,y,-z
x,x-y,-z
-x,-y,-z
-x+y,-x,-z
y,-x+y,-z
x,y,-z
x-y,x,-z
-y,x-y,-z
-x+y,y,z
x,x-y,z
-y,-x,z
y,x,z
x-y,-y,z
-x,-x+y,z
loop_
_atom_site_type_symbol
_atom_site_label
_atom_site_fract_x
_atom_site_fract_y
_atom_site_fract_z
Si Si1 0.425132 0.071203 0.654174
Si Si2 0.065032 0.532516 0.337409
Si Si3 0.128018 0.256035 0.838374
Si Si4 0.930609 0.861217 0.342149
Si Si5 0.736343 0.070011 0.155965
O O1 0.423068 0.092481 0.500000
O O2 0.494337 0.097058 0.703402
O O3 0.393281 0.096229 0.753089
O O4 0.392167 0.000000 0.659739
O O5 0.057436 0.528718 0.500000
O O6 0.000000 0.500000 0.267771
O O7 0.097636 0.195271 0.755845
O O8 0.196417 0.294069 0.794169
O O9 0.120593 0.241185 0.000000
O O10 0.900834 0.900834 0.309101
O O11 0.919958 0.839915 0.500000
O O12 0.706188 0.000000 0.174828
O O13 0.733497 0.087955 0.000000
#
# Coordination Sequence:
#
# PCOD8328984 Si02
#       5
#    24  12  12  12  24
#     4   8  13  22  37  55  75 100 128 155 182 215
#     4   7  10  18  33  53  75  99 126 151 174 203
#     4  10  20  33  47  61  80 108 139 169 204 252
#     4  10  21  36  52  68  84 100 122 163 223 284
#     4   9  17  28  40  55  76 101 130 165 202 237
#
# _framework density 14.741914
#
# number of rings (size 3 to 8) (size 9 to 14) (size 15 to 20)
#    0.000    3.286    0.000    2.714    0.000    3.429 
#    0.000    3.571    0.000    5.143    0.000    0.000 
#    0.000    0.000    0.000    0.857    0.000   10.429 
#
# Total GULP energy -1040754.240122 kJ/mol
# GULP energy per Si atom -12389.931430 kJ/mol
# Density = 1.470836 g / cm^3
# Si number density = 14.741914 Si / 1000 Ang^3
#
#
#
# Elastic Constant Matrix: (Units=GPa)
#
#
# Indices 1 2 3 4 5 6 
#
# 1 85.4669 48.9839 48.9039 0.0000 0.0000 0.0000
# 2 48.9839 85.4669 48.9039 0.0000 0.0000 0.0000
# 3 48.9039 48.9039 64.3878 0.0000 0.0000 0.0000
# 4 0.0000 0.0000 0.0000 19.4345 0.0000 0.0000
# 5 0.0000 0.0000 0.0000 0.0000 19.4345 0.0000
# 6 0.0000 0.0000 0.0000 0.0000 0.0000 18.2415
#
#
#
# Elastic Compliance Matrix: (Units=1/GPa)
#
#
# Indices 1 2 3 4 5 6 
#
# 1 0.022016 -0.005394 -0.012624 0.000000 0.000000 0.000000
# 2 -0.005394 0.022016 -0.012624 0.000000 0.000000 0.000000
# 3 -0.012624 -0.012624 0.034708 0.000000 0.000000 0.000000
# 4 0.000000 0.000000 0.000000 0.051455 0.000000 0.000000
# 5 0.000000 0.000000 0.000000 0.000000 0.051455 0.000000
# 6 0.000000 0.000000 0.000000 0.000000 0.000000 0.054820
#
#
# Mechanical properties :
#
#
# Convention : Reuss Voigt Hill
#
# Bulk Modulus (GPa) = 57.29570 58.76722 58.03146
# Shear Modulus (GPa) = 16.47057 17.32412 16.89734
#
# Velocity S-wave (km/s) = 3.34617 3.43178 3.38925
# Velocity P-wave (km/s) = 7.34026 7.46012 7.40043
#
# Compressibility (1/GPa) = 0.01745332
#
# Stress axis : x y z
#
# Youngs Moduli (GPa) = 45.42224 45.42224 28.81215
#
# Poissons Ratio (x) = 0.24502 0.36373
# Poissons Ratio (y) = 0.24502 0.36373
# Poissons Ratio (z) = 0.57342 0.57342
#
# Static dielectric constant tensor:
#      x y z
#    x 2.921460 0.000000 0.000000 
#    y 0.000000 2.921460 0.000000 
#    z 0.000000 0.000000 2.844220 
# 
# 
# High freq. dielectric constant tensor:
#      x y z
#    x 1.542100 0.000000 0.000000 
#    y 0.000000 1.542100 0.000000 
#    z 0.000000 0.000000 1.554460 
# 
# From -- ./inp_files/2493.got.cif
#   From: 2010.03.12/outbox.cif.g09.slc.cpg/sg191_2_cif.got.tgz:2493.got - 2010.04.01 12:09:02.
