data_PCOD8328839
_publ_section_title
;
Structure prediction by ZEFSAII (Michael W. Deem and Ramdas Pophale) SiO2 
 PCOD8328839
Probable space group: P 6/M M M
;
_chemical_formula_sum "Si O2"
_cell_formula_units_Z 192
_cell_length_a 22.986285
_cell_length_b 22.986285
_cell_length_c 23.096191
_cell_angle_alpha 90.000000
_cell_angle_beta 90.000000
_cell_angle_gamma 120.000000
_cell_volume 10568.383595
_symmetry_space_group_name_H-M "P 6/M M M"
_symmetry_group_IT_number 191
_symmetry_cell_setting 'hexagonal'
loop_
_space_group_symop_operation_xyz
x,y,z
x-y,x,z
-y,x-y,z
-x,-y,z
-x+y,-x,z
y,-x+y,z
x-y,-y,-z
-x,-x+y,-z
y,x,-z
-y,-x,-z
-x+y,y,-z
x,x-y,-z
-x,-y,-z
-x+y,-x,-z
y,-x+y,-z
x,y,-z
x-y,x,-z
-y,x-y,-z
-x+y,y,z
x,x-y,z
-y,-x,z
y,x,z
x-y,-y,z
-x,-x+y,z
loop_
_atom_site_type_symbol
_atom_site_label
_atom_site_fract_x
_atom_site_fract_y
_atom_site_fract_z
Si Si1 0.076686 0.472439 0.846645
Si Si2 0.926776 0.206231 0.610662
Si Si3 0.298592 0.920659 0.935855
Si Si4 0.800791 0.334082 0.626327
Si Si5 0.072368 0.273895 0.854061
Si Si6 0.694130 0.522042 0.748435
Si Si7 0.901659 0.670285 0.735212
Si Si8 0.407659 0.330717 0.432394
O O1 0.077561 0.538781 0.868170
O O2 0.100175 0.446034 0.901191
O O3 0.133275 0.494334 0.797349
O O4 0.000000 0.417507 0.826057
O O5 0.870934 0.129067 0.597889
O O6 0.936741 0.222122 0.679085
O O7 0.904032 0.254104 0.579734
O O8 0.000000 0.221907 0.587244
O O9 0.229836 0.895380 0.900328
O O10 0.334948 0.000000 0.941241
O O11 0.283170 0.887823 0.000000
O O12 0.788550 0.394275 0.606100
O O13 0.737529 0.262472 0.606408
O O14 0.806807 0.337065 0.695898
O O15 0.870129 0.345897 0.599024
O O16 0.121985 0.243970 0.847219
O O17 0.056553 0.300739 0.794090
O O18 0.000000 0.213595 0.875138
O O19 0.760976 0.521952 0.772452
O O20 0.711121 0.594319 0.722537
O O21 0.834699 0.669398 0.750689
O O22 0.422984 0.340036 0.500000
O O23 0.381596 0.381596 0.411191
#
# Coordination Sequence:
#
# PCOD8328839 Si02
#       8
#    24  24  24  24  24  24  24  24
#     4  10  20  32  49  75 104 133 165 205 254 307
#     4  10  19  32  52  78 106 136 172 213 259 310
#     4   9  18  31  46  66  96 133 167 201 245 299
#     4  11  23  39  58  80 108 143 179 215 254 305
#     4  10  19  31  49  73 102 134 169 211 258 308
#     4  10  19  33  53  75 102 136 172 209 252 301
#     4   9  16  28  49  75  98 127 167 210 254 300
#     4  10  22  39  59  81 105 136 173 218 269 313
#
# _framework density 18.167394999999999
#
# number of rings (size 3 to 8) (size 9 to 14) (size 15 to 20)
#    0.000    2.125    2.500    1.250    0.000    3.000 
#    0.000    1.875    0.000    1.250    0.000    0.000 
#    0.000    3.000    0.000    6.250    0.000    0.000 
#
# Total GULP energy -2379164.163983 kJ/mol
# GULP energy per Si atom -12391.480021 kJ/mol
# Density = 1.812605 g / cm^3
# Si number density = 18.167395 Si / 1000 Ang^3
#
#
#
# Elastic Constant Matrix: (Units=GPa)
#
#
# Indices 1 2 3 4 5 6 
#
# 1 96.1349 47.5925 23.6236 0.0000 0.0000 0.0000
# 2 47.5925 96.1349 23.6236 0.0000 0.0000 0.0000
# 3 23.6236 23.6236 70.4679 0.0000 0.0000 0.0000
# 4 0.0000 0.0000 0.0000 15.0801 0.0000 0.0000
# 5 0.0000 0.0000 0.0000 0.0000 15.0801 0.0000
# 6 0.0000 0.0000 0.0000 0.0000 0.0000 24.2712
#
#
#
# Elastic Compliance Matrix: (Units=1/GPa)
#
#
# Indices 1 2 3 4 5 6 
#
# 1 0.014210 -0.006391 -0.002621 0.000000 0.000000 0.000000
# 2 -0.006391 0.014210 -0.002621 0.000000 0.000000 0.000000
# 3 -0.002621 -0.002621 0.015948 0.000000 0.000000 0.000000
# 4 0.000000 0.000000 0.000000 0.066313 0.000000 0.000000
# 5 0.000000 0.000000 0.000000 0.000000 0.066313 0.000000
# 6 0.000000 0.000000 0.000000 0.000000 0.000000 0.041201
#
#
# Mechanical properties :
#
#
# Convention : Reuss Voigt Hill
#
# Bulk Modulus (GPa) = 47.38958 50.26857 48.82908
# Shear Modulus (GPa) = 20.12115 22.07950 21.10032
#
# Velocity S-wave (km/s) = 3.33159 3.48995 3.41169
# Velocity P-wave (km/s) = 6.39851 6.63094 6.51576
#
# Compressibility (1/GPa) = 0.02110168
#
# Stress axis : x y z
#
# Youngs Moduli (GPa) = 70.37337 70.37337 62.70218
#
# Poissons Ratio (x) = 0.44973 0.16436
# Poissons Ratio (y) = 0.44973 0.16436
# Poissons Ratio (z) = 0.18447 0.18447
#
# Static dielectric constant tensor:
#      x y z
#    x 3.283360 0.000000 0.000000 
#    y 0.000000 3.283360 0.000000 
#    z 0.000000 0.000000 3.402650 
# 
# 
# High freq. dielectric constant tensor:
#      x y z
#    x 1.691360 0.000000 0.000000 
#    y 0.000000 1.691360 0.000000 
#    z 0.000000 0.000000 1.696690 
# 
# From -- ./inp_files/8106.got.cif
#   From: 2010.03.12/outbox.cif.g09.slc.cpg/sg191_5_cif.got.tgz:8106.got - 2010.04.01 12:09:02.
