data_PCOD8328123
_publ_section_title
;
Structure prediction by ZEFSAII (Michael W. Deem and Ramdas Pophale) SiO2 
 PCOD8328123
Probable space group: P -6 2 C
;
_chemical_formula_sum "Si O2"
_cell_formula_units_Z 60
_cell_length_a 19.643268
_cell_length_b 19.643268
_cell_length_c 9.577378
_cell_angle_alpha 90.000000
_cell_angle_beta 90.000000
_cell_angle_gamma 120.000000
_cell_volume 3200.403554
_symmetry_space_group_name_H-M "P -6 2 C"
_symmetry_group_IT_number 190
_symmetry_cell_setting 'hexagonal'
loop_
_space_group_symop_operation_xyz
x,y,z
-x+y,-x,1/2-z
-y,x-y,z
x,y,1/2-z
-x+y,-x,z
-y,x-y,1/2-z
x-y,-y,-z
-x,-x+y,-z
y,x,-z
y,x,1/2+z
x-y,-y,1/2+z
-x,-x+y,1/2+z
loop_
_atom_site_type_symbol
_atom_site_label
_atom_site_fract_x
_atom_site_fract_y
_atom_site_fract_z
Si Si1 0.864979 0.216857 0.407314
Si Si2 0.165207 0.639282 0.088008
Si Si3 0.620603 0.927519 0.588734
Si Si4 0.503387 0.693831 0.089530
Si Si5 0.096258 0.020382 0.750000
Si Si6 0.000000 0.183093 0.000000
O O1 0.878782 0.248740 0.250000
O O2 0.782784 0.138224 0.423991
O O3 0.866573 0.284711 0.503314
O O4 0.930776 0.196144 0.447632
O O5 0.140306 0.635404 0.250000
O O6 0.247386 0.718025 0.059077
O O7 0.173612 0.565203 0.045384
O O8 0.099233 0.636729 0.986255
O O9 0.617017 0.949739 0.750000
O O10 0.686044 0.000000 0.500000
O O11 0.526758 0.696707 0.250000
O O12 0.017738 0.932891 0.750000
O O13 0.150556 0.033620 0.617987
#
# Coordination Sequence:
#
# PCOD8328123 Si02
#       6
#    12  12  12  12   6   6
#     4  10  23  40  57  86 118 156 194 238 285 357
#     4   9  17  33  56  86 117 150 190 242 284 336
#     4  10  21  38  57  82 113 147 195 237 287 342
#     4   9  18  33  59  87 120 155 199 240 292 342
#     4  10  24  42  66  92 118 144 190 242 292 360
#     4  12  22  44  64  88 126 154 188 240 302 350
#
# _framework density 18.747636
#
# number of rings (size 3 to 8) (size 9 to 14) (size 15 to 20)
#    0.200    2.000    1.000    1.600    1.400    4.800 
#    1.800    0.000    0.000    2.400    0.000    0.000 
#    0.000    0.000    0.000    0.000    0.000    0.000 
#
# Total GULP energy -744006.541930 kJ/mol
# GULP energy per Si atom -12400.109032 kJ/mol
# Density = 1.870497 g / cm^3
# Si number density = 18.747636 Si / 1000 Ang^3
#
#
#
# Elastic Constant Matrix: (Units=GPa)
#
#
# Indices 1 2 3 4 5 6 
#
# 1 46.8337 50.9926 35.9714 0.0000 0.0000 0.0000
# 2 50.9926 46.8337 35.9714 0.0000 0.0000 0.0000
# 3 35.9714 35.9714 108.3741 0.0000 0.0000 0.0000
# 4 0.0000 0.0000 0.0000 31.4961 0.0000 0.0000
# 5 0.0000 0.0000 0.0000 0.0000 31.4961 0.0000
# 6 0.0000 0.0000 0.0000 0.0000 0.0000 -2.0794
#
#
#
# Elastic Compliance Matrix: (Units=1/GPa)
#
#
# Indices 1 2 3 4 5 6 
#
# 1 -0.113463 0.126986 -0.004489 0.000000 0.000000 0.000000
# 2 0.126986 -0.113463 -0.004489 0.000000 0.000000 0.000000
# 3 -0.004489 -0.004489 0.012207 0.000000 0.000000 0.000000
# 4 0.000000 0.000000 0.000000 0.031750 0.000000 0.000000
# 5 0.000000 0.000000 0.000000 0.000000 0.031750 0.000000
# 6 0.000000 0.000000 0.000000 0.000000 0.000000 -0.480897
#
#
# Mechanical properties :
#
#
# Convention : Reuss Voigt Hill
#
# Bulk Modulus (GPa) = 46.95067 49.76806 48.35937
# Shear Modulus (GPa) = -5.80697 17.45630 5.82467
#
# Velocity S-wave (km/s) = -1.76186 3.05474 1.76455
# Velocity P-wave (km/s) = 4.57810 6.24867 5.47745
#
# Compressibility (1/GPa) = 0.02129895
#
# Stress axis : x y z
#
# Youngs Moduli (GPa) = -8.81346 -8.81346 81.92014
#
# Poissons Ratio (x) = 1.11919 0.36771
# Poissons Ratio (y) = 1.11919 0.36771
# Poissons Ratio (z) = -0.03956 -0.03956
#
# Static dielectric constant tensor:
#      x y z
#    x 3.409860 0.000000 0.000000 
#    y 0.000000 3.409860 0.000000 
#    z 0.000000 0.000000 3.544730 
# 
# 
# High freq. dielectric constant tensor:
#      x y z
#    x 1.724130 0.000000 0.000000 
#    y 0.000000 1.724130 0.000000 
#    z 0.000000 0.000000 1.737300 
# 
# From -- ./inp_files/981.got.cif
#   From: 2010.06.25/outbox.cif.g09.slc.cpg/sg190_1_cif.got.tgz:981.got - 2010.06.28 13:08:06.
