data_PCOD8328822
_publ_section_title
;
Structure prediction by ZEFSAII (Michael W. Deem and Ramdas Pophale) SiO2 
 PCOD8328822
Probable space group: P 6/M M M
;
_chemical_formula_sum "Si O2"
_cell_formula_units_Z 192
_cell_length_a 22.720579
_cell_length_b 22.720579
_cell_length_c 25.495714
_cell_angle_alpha 90.000000
_cell_angle_beta 90.000000
_cell_angle_gamma 120.000000
_cell_volume 11398.208567
_symmetry_space_group_name_H-M "P 6/M M M"
_symmetry_group_IT_number 191
_symmetry_cell_setting 'hexagonal'
loop_
_space_group_symop_operation_xyz
x,y,z
x-y,x,z
-y,x-y,z
-x,-y,z
-x+y,-x,z
y,-x+y,z
x-y,-y,-z
-x,-x+y,-z
y,x,-z
-y,-x,-z
-x+y,y,-z
x,x-y,-z
-x,-y,-z
-x+y,-x,-z
y,-x+y,-z
x,y,-z
x-y,x,-z
-y,x-y,-z
-x+y,y,z
x,x-y,z
-y,-x,z
y,x,z
x-y,-y,z
-x,-x+y,z
loop_
_atom_site_type_symbol
_atom_site_label
_atom_site_fract_x
_atom_site_fract_y
_atom_site_fract_z
Si Si1 0.718000 0.792539 0.140790
Si Si2 0.793489 0.717237 0.259526
Si Si3 0.528195 0.606896 0.299925
Si Si4 0.612164 0.873045 0.351066
Si Si5 0.467681 0.666618 0.100673
Si Si6 0.666694 0.467230 0.776784
Si Si7 0.282830 0.075802 0.559697
Si Si8 0.873909 0.608271 0.941741
O O1 0.739745 0.869873 0.126096
O O2 0.784657 0.784657 0.135840
O O3 0.688743 0.774562 0.200079
O O4 0.661693 0.738413 0.101261
O O5 0.873723 0.747446 0.269929
O O6 0.777919 0.777919 0.269783
O O7 0.750136 0.655969 0.298764
O O8 0.457766 0.542235 0.317841
O O9 0.583096 0.583096 0.286028
O O10 0.552584 0.660732 0.348109
O O11 0.517449 0.644977 0.250527
O O12 0.584039 0.792020 0.352784
O O13 0.654302 0.908250 0.403214
O O14 0.452630 0.726315 0.084419
O O15 0.404056 0.595945 0.083083
O O16 0.482605 0.669929 0.162105
O O17 0.533121 0.672835 0.071029
O O18 0.740273 0.480545 0.756611
O O19 0.611266 0.388735 0.765180
O O20 0.309026 0.083762 0.500000
O O21 0.255285 0.127643 0.571969
O O22 0.221043 0.000000 0.570474
O O23 0.802761 0.605521 0.937829
O O24 0.905827 0.629999 0.000000
#
# Coordination Sequence:
#
# PCOD8328822 Si02
#       8
#    24  24  24  24  24  24  24  24
#     4   9  18  32  50  71  93 118 148 184 225 269
#     4   9  17  28  45  69  94 119 149 187 227 265
#     4  10  20  31  43  63  93 123 149 184 233 285
#     4  10  19  31  49  70  92 121 159 197 231 271
#     4   9  17  29  46  66  88 114 148 189 231 270
#     4   9  17  29  45  64  87 117 152 189 227 271
#     4   9  17  29  46  69  97 129 164 201 238 273
#     4   9  18  31  45  63  88 116 147 183 221 264
#
# _framework density 16.844752
#
# number of rings (size 3 to 8) (size 9 to 14) (size 15 to 20)
#    0.000    2.750    0.000    1.750    1.750    1.500 
#    0.000    0.000    0.000    2.125    0.000    5.250 
#    0.000    3.000    0.000    3.375    0.000    3.250 
#
# Total GULP energy -2379802.397784 kJ/mol
# GULP energy per Si atom -12394.804155 kJ/mol
# Density = 1.680641 g / cm^3
# Si number density = 16.844752 Si / 1000 Ang^3
#
#
#
# Elastic Constant Matrix: (Units=GPa)
#
#
# Indices 1 2 3 4 5 6 
#
# 1 84.3088 43.2805 34.8298 0.0000 0.0000 0.0000
# 2 43.2805 84.3088 34.8298 0.0000 0.0000 0.0000
# 3 34.8298 34.8298 73.7024 0.0000 0.0000 0.0000
# 4 0.0000 0.0000 0.0000 18.9281 0.0000 0.0000
# 5 0.0000 0.0000 0.0000 0.0000 18.9281 0.0000
# 6 0.0000 0.0000 0.0000 0.0000 0.0000 20.5141
#
#
#
# Elastic Compliance Matrix: (Units=1/GPa)
#
#
# Indices 1 2 3 4 5 6 
#
# 1 0.017468 -0.006905 -0.004992 0.000000 0.000000 0.000000
# 2 -0.006905 0.017468 -0.004992 0.000000 0.000000 0.000000
# 3 -0.004992 -0.004992 0.018286 0.000000 0.000000 0.000000
# 4 0.000000 0.000000 0.000000 0.052831 0.000000 0.000000
# 5 0.000000 0.000000 0.000000 0.000000 0.052831 0.000000
# 6 0.000000 0.000000 0.000000 0.000000 0.000000 0.048747
#
#
# Mechanical properties :
#
#
# Convention : Reuss Voigt Hill
#
# Bulk Modulus (GPa) = 51.42739 52.02223 51.72481
# Shear Modulus (GPa) = 20.17012 20.29940 20.23476
#
# Velocity S-wave (km/s) = 3.46412 3.47520 3.46967
# Velocity P-wave (km/s) = 6.82617 6.85953 6.84287
#
# Compressibility (1/GPa) = 0.01944489
#
# Stress axis : x y z
#
# Youngs Moduli (GPa) = 57.24678 57.24678 54.68651
#
# Poissons Ratio (x) = 0.39530 0.27298
# Poissons Ratio (y) = 0.39530 0.27298
# Poissons Ratio (z) = 0.28576 0.28576
#
# Static dielectric constant tensor:
#      x y z
#    x 3.175290 0.000000 0.000000 
#    y 0.000000 3.175290 0.000000 
#    z 0.000000 0.000000 3.161740 
# 
# 
# High freq. dielectric constant tensor:
#      x y z
#    x 1.639170 0.000000 0.000000 
#    y 0.000000 1.639170 0.000000 
#    z 0.000000 0.000000 1.638940 
# 
# From -- ./inp_files/9383.got.cif
#   From: 2010.03.12/outbox.cif.g09.slc.cpg/sg191_5_cif.got.tgz:9383.got - 2010.04.01 12:09:02.
