data_PCOD8328376
_publ_section_title
;
Structure prediction by ZEFSAII (Michael W. Deem and Ramdas Pophale) SiO2 
 PCOD8328376
Probable space group: P 6/M M M
;
_chemical_formula_sum "Si O2"
_cell_formula_units_Z 108
_cell_length_a 26.932373
_cell_length_b 26.932373
_cell_length_c 13.634253
_cell_angle_alpha 90.000000
_cell_angle_beta 90.000000
_cell_angle_gamma 120.000000
_cell_volume 8564.681584
_symmetry_space_group_name_H-M "P 6/M M M"
_symmetry_group_IT_number 191
_symmetry_cell_setting 'hexagonal'
loop_
_space_group_symop_operation_xyz
x,y,z
x-y,x,z
-y,x-y,z
-x,-y,z
-x+y,-x,z
y,-x+y,z
x-y,-y,-z
-x,-x+y,-z
y,x,-z
-y,-x,-z
-x+y,y,-z
x,x-y,-z
-x,-y,-z
-x+y,-x,-z
y,-x+y,-z
x,y,-z
x-y,x,-z
-y,x-y,-z
-x+y,y,z
x,x-y,z
-y,-x,z
y,x,z
x-y,-y,z
-x,-x+y,z
loop_
_atom_site_type_symbol
_atom_site_label
_atom_site_fract_x
_atom_site_fract_y
_atom_site_fract_z
Si Si1 0.065967 0.432671 0.782731
Si Si2 0.555616 0.833056 0.114192
Si Si3 0.932177 0.466089 0.109445
Si Si4 0.667103 0.445553 0.238578
Si Si5 0.495530 0.876704 0.388805
O O1 0.106434 0.409040 0.826612
O O2 0.088053 0.494713 0.834146
O O3 0.076169 0.446599 0.666918
O O4 0.000000 0.386393 0.804328
O O5 0.581795 0.790898 0.134528
O O6 0.490078 0.801060 0.149322
O O7 0.558206 0.847255 0.000000
O O8 0.000000 0.500000 0.105316
O O9 0.906218 0.453109 0.000000
O O10 0.713758 0.427517 0.266781
O O11 0.609432 0.390569 0.201565
O O12 0.656680 0.472192 0.336954
O O13 0.512377 0.872002 0.500000
O O14 0.448482 0.896963 0.385774
#
# Coordination Sequence:
#
# PCOD8328376 Si02
#       5
#    24  24  12  24  24
#     4  10  18  28  41  58  74  91 117 144 173 210
#     4   9  18  30  41  54  74  97 116 138 175 217
#     4   9  16  24  35  55  77  91 108 138 171 201
#     4   9  17  28  40  53  68  89 120 153 180 213
#     4   9  17  28  39  51  70  92 111 138 180 222
#
# _framework density 12.609926
#
# number of rings (size 3 to 8) (size 9 to 14) (size 15 to 20)
#    0.000    2.778    1.111    0.889    1.556    2.667 
#    0.000    1.111    0.000    2.667    0.000    0.000 
#    0.000    0.000    0.000    0.000    0.000    0.000 
#
# Total GULP energy -1338626.573131 kJ/mol
# GULP energy per Si atom -12394.690492 kJ/mol
# Density = 1.258122 g / cm^3
# Si number density = 12.609926 Si / 1000 Ang^3
#
#
#
# Elastic Constant Matrix: (Units=GPa)
#
#
# Indices 1 2 3 4 5 6 
#
# 1 49.1556 20.0172 11.6618 0.0000 0.0000 0.0000
# 2 20.0172 49.1556 11.6618 0.0000 0.0000 0.0000
# 3 11.6618 11.6618 63.9887 0.0000 0.0000 0.0000
# 4 0.0000 0.0000 0.0000 10.9183 0.0000 0.0000
# 5 0.0000 0.0000 0.0000 0.0000 10.9183 0.0000
# 6 0.0000 0.0000 0.0000 0.0000 0.0000 14.5692
#
#
#
# Elastic Compliance Matrix: (Units=1/GPa)
#
#
# Indices 1 2 3 4 5 6 
#
# 1 0.024861 -0.009458 -0.002807 0.000000 0.000000 0.000000
# 2 -0.009458 0.024861 -0.002807 0.000000 0.000000 0.000000
# 3 -0.002807 -0.002807 0.016651 0.000000 0.000000 0.000000
# 4 0.000000 0.000000 0.000000 0.091589 0.000000 0.000000
# 5 0.000000 0.000000 0.000000 0.000000 0.091589 0.000000
# 6 0.000000 0.000000 0.000000 0.000000 0.000000 0.068638
#
#
# Mechanical properties :
#
#
# Convention : Reuss Voigt Hill
#
# Bulk Modulus (GPa) = 27.60267 27.66462 27.63365
# Shear Modulus (GPa) = 13.87311 15.21178 14.54245
#
# Velocity S-wave (km/s) = 3.32048 3.47700 3.39964
# Velocity P-wave (km/s) = 6.05293 6.17299 6.11325
#
# Compressibility (1/GPa) = 0.03622838
#
# Stress axis : x y z
#
# Youngs Moduli (GPa) = 40.22362 40.22362 60.05655
#
# Poissons Ratio (x) = 0.38043 0.16859
# Poissons Ratio (y) = 0.38043 0.16859
# Poissons Ratio (z) = 0.11292 0.11292
#
# Static dielectric constant tensor:
#      x y z
#    x 2.457550 0.000000 0.000000 
#    y 0.000000 2.457550 0.000000 
#    z 0.000000 0.000000 2.652310 
# 
# 
# High freq. dielectric constant tensor:
#      x y z
#    x 1.445940 0.000000 0.000000 
#    y 0.000000 1.445940 0.000000 
#    z 0.000000 0.000000 1.487030 
# 
# From -- ./inp_files/3074.got.cif
#   From: 2010.03.12/outbox.cif.g09.slc.cpg/sg191_2_cif.got.tgz:3074.got - 2010.04.01 12:09:02.
