data_PCOD8328722
_publ_section_title
;
Structure prediction by ZEFSAII (Michael W. Deem and Ramdas Pophale) SiO2 
 PCOD8328722
Probable space group: P 6/M M M
;
_chemical_formula_sum "Si O2"
_cell_formula_units_Z 120
_cell_length_a 17.855171
_cell_length_b 17.855171
_cell_length_c 25.607063
_cell_angle_alpha 90.000000
_cell_angle_beta 90.000000
_cell_angle_gamma 120.000000
_cell_volume 7069.983973
_symmetry_space_group_name_H-M "P 6/M M M"
_symmetry_group_IT_number 191
_symmetry_cell_setting 'hexagonal'
loop_
_space_group_symop_operation_xyz
x,y,z
x-y,x,z
-y,x-y,z
-x,-y,z
-x+y,-x,z
y,-x+y,z
x-y,-y,-z
-x,-x+y,-z
y,x,-z
-y,-x,-z
-x+y,y,-z
x,x-y,-z
-x,-y,-z
-x+y,-x,-z
y,-x+y,-z
x,y,-z
x-y,x,-z
-y,x-y,-z
-x+y,y,z
x,x-y,z
-y,-x,z
y,x,z
x-y,-y,z
-x,-x+y,z
loop_
_atom_site_type_symbol
_atom_site_label
_atom_site_fract_x
_atom_site_fract_y
_atom_site_fract_z
Si Si1 0.835800 0.504956 0.409220
Si Si2 0.902330 0.269731 0.903485
Si Si3 0.636359 0.732447 0.500000
Si Si4 0.495171 0.164355 0.811807
Si Si5 0.160244 0.668595 0.000000
Si Si6 0.904198 0.363483 0.298849
O O1 0.734912 0.469823 0.420910
O O2 0.856171 0.428086 0.416818
O O3 0.894629 0.580211 0.449063
O O4 0.855915 0.544068 0.350858
O O5 0.833387 0.166614 0.906035
O O6 0.895283 0.311408 0.849486
O O7 0.885144 0.319747 0.949441
O O8 0.000000 0.286112 0.908096
O O9 0.719584 0.719584 0.500000
O O10 0.669150 0.834575 0.500000
O O11 0.571643 0.143285 0.820631
O O12 0.530294 0.265147 0.824375
O O13 0.459250 0.146493 0.752792
O O14 0.262209 0.737792 0.000000
O O15 0.146668 0.573334 0.000000
O O16 0.909717 0.454859 0.299898
O O17 0.000000 0.376300 0.297650
#
# Coordination Sequence:
#
# PCOD8328722 Si02
#       6
#    24  24  12  24  12  24
#     4  10  19  30  45  66  94 127 161 194 227 265
#     4  10  21  35  51  71  94 122 155 194 239 283
#     4  10  21  35  51  70  91 117 148 186 231 277
#     4  10  19  30  45  66  94 127 161 195 231 273
#     4  10  20  33  50  73 102 134 165 194 224 261
#     4   9  17  28  42  60  84 119 163 205 237 265
#
# _framework density 16.973164000000001
#
# number of rings (size 3 to 8) (size 9 to 14) (size 15 to 20)
#    0.000    2.200    0.000    3.500    0.000    4.400 
#    0.000    5.000    0.000    0.300    0.000    0.000 
#    0.000    2.400    0.000    0.000    0.000   41.600 
#
# Total GULP energy -1487836.061830 kJ/mol
# GULP energy per Si atom -12398.633849 kJ/mol
# Density = 1.693453 g / cm^3
# Si number density = 16.973164 Si / 1000 Ang^3
#
#
#
# Elastic Constant Matrix: (Units=GPa)
#
#
# Indices 1 2 3 4 5 6 
#
# 1 88.2129 58.2588 32.4602 0.0000 0.0000 0.0000
# 2 58.2588 88.2129 32.4602 0.0000 0.0000 0.0000
# 3 32.4602 32.4602 114.8474 0.0000 0.0000 0.0000
# 4 0.0000 0.0000 0.0000 14.2848 0.0000 0.0000
# 5 0.0000 0.0000 0.0000 0.0000 14.2848 0.0000
# 6 0.0000 0.0000 0.0000 0.0000 0.0000 14.9770
#
#
#
# Elastic Compliance Matrix: (Units=1/GPa)
#
#
# Indices 1 2 3 4 5 6 
#
# 1 0.020595 -0.012790 -0.002206 0.000000 0.000000 0.000000
# 2 -0.012790 0.020595 -0.002206 0.000000 0.000000 0.000000
# 3 -0.002206 -0.002206 0.009954 0.000000 0.000000 0.000000
# 4 0.000000 0.000000 0.000000 0.070005 0.000000 0.000000
# 5 0.000000 0.000000 0.000000 0.000000 0.070005 0.000000
# 6 0.000000 0.000000 0.000000 0.000000 0.000000 0.066769
#
#
# Mechanical properties :
#
#
# Convention : Reuss Voigt Hill
#
# Bulk Modulus (GPa) = 59.73620 59.73683 59.73651
# Shear Modulus (GPa) = 16.78387 19.91559 18.34973
#
# Velocity S-wave (km/s) = 3.14801 3.42915 3.29158
# Velocity P-wave (km/s) = 6.96306 7.13793 7.05103
#
# Compressibility (1/GPa) = 0.01674027
#
# Stress axis : x y z
#
# Youngs Moduli (GPa) = 48.55614 48.55614 100.46015
#
# Poissons Ratio (x) = 0.62102 0.22161
# Poissons Ratio (y) = 0.62102 0.22161
# Poissons Ratio (z) = 0.10711 0.10711
#
# Static dielectric constant tensor:
#      x y z
#    x 2.981620 0.000000 0.000000 
#    y 0.000000 2.981620 0.000000 
#    z 0.000000 0.000000 3.527010 
# 
# 
# High freq. dielectric constant tensor:
#      x y z
#    x 1.628570 0.000000 0.000000 
#    y 0.000000 1.628570 0.000000 
#    z 0.000000 0.000000 1.679490 
# 
# From -- ./inp_files/8545.got.cif
#   From: 2010.03.12/outbox.cif.g09.slc.cpg/sg191_5_cif.got.tgz:8545.got - 2010.04.01 12:09:02.
