data_PCOD8328162
_publ_section_title
;
Structure prediction by ZEFSAII (Michael W. Deem and Ramdas Pophale) SiO2 
 PCOD8328162
Probable space group: P -6 2 C
;
_chemical_formula_sum "Si O2"
_cell_formula_units_Z 30
_cell_length_a 8.632879
_cell_length_b 8.632879
_cell_length_c 22.111370
_cell_angle_alpha 90.000000
_cell_angle_beta 90.000000
_cell_angle_gamma 120.000000
_cell_volume 1427.110466
_symmetry_space_group_name_H-M "P -6 2 C"
_symmetry_group_IT_number 190
_symmetry_cell_setting 'hexagonal'
loop_
_space_group_symop_operation_xyz
x,y,z
-x+y,-x,1/2-z
-y,x-y,z
x,y,1/2-z
-x+y,-x,z
-y,x-y,1/2-z
x-y,-y,-z
-x,-x+y,-z
y,x,-z
y,x,1/2+z
x-y,-y,1/2+z
-x,-x+y,1/2+z
loop_
_atom_site_type_symbol
_atom_site_label
_atom_site_fract_x
_atom_site_fract_y
_atom_site_fract_z
Si Si1 0.000000 0.000000 0.928369
Si Si2 0.333334 0.666668 0.920923
Si Si3 0.862157 0.536213 0.750000
Si Si4 0.660837 0.990970 0.120208
Si Si5 0.333335 0.666667 0.064188
O O1 0.939526 0.803069 0.904530
O O2 0.000000 0.000000 0.000000
O O3 0.276841 0.470893 0.896597
O O4 0.333334 0.666667 0.992750
O O5 0.845896 0.339825 0.750000
O O6 0.970673 0.649470 0.807705
O O7 0.470330 0.862513 0.089341
#
# Coordination Sequence:
#
# PCOD8328162 Si02
#       5
#     4   4   6  12   4
#     4  12  27  46  68 106 141 177 232 281 340 414
#     4  12  27  40  68 106 132 177 232 266 340 411
#     4  10  22  46  72  94 134 176 228 280 340 406
#     4  12  25  44  72  97 138 182 222 283 338 397
#     4  12  21  46  68  97 141 180 217 284 337 396
#
# _framework density 21.021498000000001
#
# number of rings (size 3 to 8) (size 9 to 14) (size 15 to 20)
#    0.400    0.000    4.000    6.000    0.000    3.200 
#    0.000    0.000    0.000    0.000    0.000    0.000 
#    0.000    0.000    0.000    0.000    0.000    0.000 
#
# Total GULP energy -372253.071674 kJ/mol
# GULP energy per Si atom -12408.435722 kJ/mol
# Density = 2.097365 g / cm^3
# Si number density = 21.021498 Si / 1000 Ang^3
#
#
#
# Elastic Constant Matrix: (Units=GPa)
#
#
# Indices 1 2 3 4 5 6 
#
# 1 76.3698 22.5568 47.6913 0.0020 0.0015 -0.0012
# 2 22.5568 76.3682 47.6919 -0.0012 -0.0010 0.0003
# 3 47.6913 47.6919 240.3039 -0.0011 -0.0016 0.0003
# 4 0.0020 -0.0012 -0.0011 50.3111 -0.0057 0.0012
# 5 0.0015 -0.0010 -0.0016 -0.0057 50.3149 -0.0016
# 6 -0.0012 0.0003 0.0003 0.0012 -0.0016 26.9085
#
#
#
# Elastic Compliance Matrix: (Units=1/GPa)
#
#
# Indices 1 2 3 4 5 6 
#
# 1 0.015542 -0.003041 -0.002481 -0.000001 -0.000001 0.000001
# 2 -0.003041 0.015542 -0.002481 0.000000 0.000000 0.000000
# 3 -0.002481 -0.002481 0.005146 0.000000 0.000000 0.000000
# 4 -0.000001 0.000000 0.000000 0.019876 0.000002 -0.000001
# 5 -0.000001 0.000000 0.000000 0.000002 0.019875 0.000001
# 6 0.000001 0.000000 0.000000 -0.000001 0.000001 0.037163
#
#
# Mechanical properties :
#
#
# Convention : Reuss Voigt Hill
#
# Bulk Modulus (GPa) = 49.44676 69.88021 59.66348
# Shear Modulus (GPa) = 36.79404 43.84702 40.32053
#
# Velocity S-wave (km/s) = 4.18820 4.57203 4.38432
# Velocity P-wave (km/s) = 6.85282 7.82213 7.35346
#
# Compressibility (1/GPa) = 0.02022377
#
# Stress axis : x y z
#
# Youngs Moduli (GPa) = 64.34307 64.34130 194.32012
#
# Poissons Ratio (x) = 0.19568 0.48208
# Poissons Ratio (y) = 0.19568 0.48211
# Poissons Ratio (z) = 0.15963 0.15963
#
# Static dielectric constant tensor:
#      x y z
#    x 3.364740 0.000010 0.000020 
#    y 0.000010 3.364820 -0.000010 
#    z 0.000020 -0.000010 3.867270 
# 
# 
# High freq. dielectric constant tensor:
#      x y z
#    x 1.823170 0.000000 0.000000 
#    y 0.000000 1.823170 0.000000 
#    z 0.000000 0.000000 1.842140 
# 
# From -- ./inp_files/4503.got.cif
#   From: 2010.06.25/outbox.cif.g09.slc.cpg/sg190_3_cif.got.tgz:4503.got - 2010.06.28 13:08:06.
