data_PCOD8328986
_publ_section_title
;
Structure prediction by ZEFSAII (Michael W. Deem and Ramdas Pophale) SiO2 
 PCOD8328986
Probable space group: P 6/M M M
;
_chemical_formula_sum "Si O2"
_cell_formula_units_Z 120
_cell_length_a 33.257438
_cell_length_b 33.257438
_cell_length_c 9.985099
_cell_angle_alpha 90.000000
_cell_angle_beta 90.000000
_cell_angle_gamma 120.000000
_cell_volume 9564.462905
_symmetry_space_group_name_H-M "P 6/M M M"
_symmetry_group_IT_number 191
_symmetry_cell_setting 'hexagonal'
loop_
_space_group_symop_operation_xyz
x,y,z
x-y,x,z
-y,x-y,z
-x,-y,z
-x+y,-x,z
y,-x+y,z
x-y,-y,-z
-x,-x+y,-z
y,x,-z
-y,-x,-z
-x+y,y,-z
x,x-y,-z
-x,-y,-z
-x+y,-x,-z
y,-x+y,-z
x,y,-z
x-y,x,-z
-y,x-y,-z
-x+y,y,z
x,x-y,z
-y,-x,z
y,x,z
x-y,-y,z
-x,-x+y,z
loop_
_atom_site_type_symbol
_atom_site_label
_atom_site_fract_x
_atom_site_fract_y
_atom_site_fract_z
Si Si1 0.944739 0.583292 0.149919
Si Si2 0.901434 0.098567 0.342843
Si Si3 0.891384 0.945692 0.846601
Si Si4 0.204800 0.259715 0.348709
Si Si5 0.672779 0.944788 0.150094
Si Si6 0.517098 0.944750 0.350063
O O1 0.927756 0.619523 0.191580
O O2 0.923012 0.539397 0.250269
O O3 0.000000 0.609367 0.155156
O O4 0.927575 0.564607 0.000000
O O5 0.908224 0.091777 0.500000
O O6 0.924379 0.075622 0.254825
O O7 0.925094 0.152229 0.303225
O O8 0.922675 0.922675 0.817583
O O9 0.873179 0.936590 0.000000
O O10 0.207472 0.277681 0.500000
O O11 0.229707 0.229707 0.335666
O O12 0.229103 0.304936 0.253306
O O13 0.701509 0.000000 0.154445
O O14 0.674491 0.927521 0.000000
O O15 0.517733 0.927077 0.500000
O O16 0.464215 0.928429 0.306203
O O17 0.546717 0.000000 0.346493
#
# Coordination Sequence:
#
# PCOD8328986 Si02
#       6
#    24  12  12  24  24  24
#     4   8  13  20  29  41  56  75 100 128 157 186
#     4  10  20  33  47  63  82  98 112 132 156 186
#     4  10  21  36  52  68  84 100 116 132 150 176
#     4   9  17  28  41  56  72  89 107 126 151 184
#     4   8  14  24  36  49  65  83 103 129 157 184
#     4   8  13  19  25  35  53  76 101 129 159 188
#
# _framework density 12.546443
#
# number of rings (size 3 to 8) (size 9 to 14) (size 15 to 20)
#    0.000    3.400    0.000    2.500    0.000    3.600 
#    0.000    8.000    0.000    0.600    0.000    0.000 
#    0.000    0.000    0.000    0.000    0.000    0.000 
#
# Total GULP energy -1487127.694507 kJ/mol
# GULP energy per Si atom -12392.730788 kJ/mol
# Density = 1.251789 g / cm^3
# Si number density = 12.546443 Si / 1000 Ang^3
#
#
#
# Elastic Constant Matrix: (Units=GPa)
#
#
# Indices 1 2 3 4 5 6 
#
# 1 57.2949 31.6702 49.5980 0.0000 0.0000 0.0000
# 2 31.6702 57.2949 49.5980 0.0000 0.0000 0.0000
# 3 49.5980 49.5980 87.8336 0.0000 0.0000 0.0000
# 4 0.0000 0.0000 0.0000 19.8180 0.0000 0.0000
# 5 0.0000 0.0000 0.0000 0.0000 19.8180 0.0000
# 6 0.0000 0.0000 0.0000 0.0000 0.0000 12.8123
#
#
#
# Elastic Compliance Matrix: (Units=1/GPa)
#
#
# Indices 1 2 3 4 5 6 
#
# 1 0.034687 -0.004338 -0.017137 0.000000 0.000000 0.000000
# 2 -0.004338 0.034687 -0.017137 0.000000 0.000000 0.000000
# 3 -0.017137 -0.017137 0.030739 0.000000 0.000000 0.000000
# 4 0.000000 0.000000 0.000000 0.050459 0.000000 0.000000
# 5 0.000000 0.000000 0.000000 0.000000 0.050459 0.000000
# 6 0.000000 0.000000 0.000000 0.000000 0.000000 0.078050
#
#
# Mechanical properties :
#
#
# Convention : Reuss Voigt Hill
#
# Bulk Modulus (GPa) = 43.69249 51.57288 47.63268
# Shear Modulus (GPa) = 13.73874 15.26013 14.49944
#
# Velocity S-wave (km/s) = 3.31271 3.49132 3.40319
# Velocity P-wave (km/s) = 7.03792 7.57940 7.31367
#
# Compressibility (1/GPa) = 0.02288723
#
# Stress axis : x y z
#
# Youngs Moduli (GPa) = 28.82965 28.82965 32.53184
#
# Poissons Ratio (x) = 0.12507 0.55750
# Poissons Ratio (y) = 0.12507 0.55750
# Poissons Ratio (z) = 0.49405 0.49405
#
# Static dielectric constant tensor:
#      x y z
#    x 2.524740 0.000000 0.000000 
#    y 0.000000 2.524740 0.000000 
#    z 0.000000 0.000000 2.816210 
# 
# 
# High freq. dielectric constant tensor:
#      x y z
#    x 1.440170 0.000000 0.000000 
#    y 0.000000 1.440170 0.000000 
#    z 0.000000 0.000000 1.487920 
# 
# From -- ./inp_files/3208.got.cif
#   From: 2010.03.12/outbox.cif.g09.slc.cpg/sg191_2_cif.got.tgz:3208.got - 2010.04.01 12:09:02.
