data_PCOD8328521
_publ_section_title
;
Structure prediction by ZEFSAII (Michael W. Deem and Ramdas Pophale) SiO2 
 PCOD8328521
Probable space group: P 6/M M M
;
_chemical_formula_sum "Si O2"
_cell_formula_units_Z 132
_cell_length_a 17.845499
_cell_length_b 17.845499
_cell_length_c 27.622382
_cell_angle_alpha 90.000000
_cell_angle_beta 90.000000
_cell_angle_gamma 120.000000
_cell_volume 7618.143540
_symmetry_space_group_name_H-M "P 6/M M M"
_symmetry_group_IT_number 191
_symmetry_cell_setting 'hexagonal'
loop_
_space_group_symop_operation_xyz
x,y,z
x-y,x,z
-y,x-y,z
-x,-y,z
-x+y,-x,z
y,-x+y,z
x-y,-y,-z
-x,-x+y,-z
y,x,-z
-y,-x,-z
-x+y,y,-z
x,x-y,-z
-x,-y,-z
-x+y,-x,-z
y,-x+y,-z
x,y,-z
x-y,x,-z
-y,x-y,-z
-x+y,y,z
x,x-y,z
-y,-x,z
y,x,z
x-y,-y,z
-x,-x+y,z
loop_
_atom_site_type_symbol
_atom_site_label
_atom_site_fract_x
_atom_site_fract_y
_atom_site_fract_z
Si Si1 0.635511 0.535712 0.383008
Si Si2 0.097943 0.902058 0.442387
Si Si3 0.331353 0.495238 0.281820
Si Si4 0.510055 0.668175 0.000000
Si Si5 0.196634 0.803367 0.557351
Si Si6 0.898637 0.365729 0.819447
Si Si7 0.899824 0.630784 0.089857
O O1 0.566764 0.433237 0.385057
O O2 0.590591 0.590591 0.395745
O O3 0.678562 0.561762 0.329389
O O4 0.706073 0.556907 0.423759
O O5 0.096846 0.903155 0.500000
O O6 0.147206 0.852795 0.423677
O O7 0.000000 0.852621 0.422137
O O8 0.265834 0.531668 0.286155
O O9 0.428798 0.571203 0.279749
O O10 0.314339 0.442427 0.231794
O O11 0.567527 0.676819 0.046421
O O12 0.425458 0.574543 0.000000
O O13 0.481980 0.740990 0.000000
O O14 0.198464 0.801537 0.500000
O O15 0.856721 0.428361 0.825556
O O16 0.868100 0.295881 0.861990
O O17 0.000000 0.425158 0.821522
O O18 0.834631 0.669262 0.082407
O O19 0.000000 0.708792 0.092913
#
# Coordination Sequence:
#
# PCOD8328521 Si02
#       7
#    24  12  24  12  12  24  24
#     4  10  21  37  55  74  99 133 170 206 248 296
#     4   9  17  30  51  78 106 132 158 193 241 298
#     4  10  18  30  48  71  98 129 164 203 247 291
#     4  10  20  33  50  73 104 142 177 208 244 291
#     4  11  22  37  54  77 102 130 165 207 248 291
#     4   9  17  29  47  72 101 131 164 203 247 298
#     4  10  20  33  49  71  99 133 174 218 261 304
#
# _framework density 17.327055999999999
#
# number of rings (size 3 to 8) (size 9 to 14) (size 15 to 20)
#    0.000    2.182    0.909    2.818    0.000    5.455 
#    0.545    0.909    0.000    6.000    0.000    0.000 
#    0.000    2.182    0.000    0.000    0.000    0.000 
#
# Total GULP energy -1636417.933147 kJ/mol
# GULP energy per Si atom -12397.105554 kJ/mol
# Density = 1.728762 g / cm^3
# Si number density = 17.327056 Si / 1000 Ang^3
#
#
#
# Elastic Constant Matrix: (Units=GPa)
#
#
# Indices 1 2 3 4 5 6 
#
# 1 81.8080 42.3234 38.5897 0.0000 0.0000 0.0000
# 2 42.3234 81.8080 38.5897 0.0000 0.0000 0.0000
# 3 38.5897 38.5897 114.0852 0.0000 0.0000 0.0000
# 4 0.0000 0.0000 0.0000 17.8164 0.0000 0.0000
# 5 0.0000 0.0000 0.0000 0.0000 17.8164 0.0000
# 6 0.0000 0.0000 0.0000 0.0000 0.0000 19.7423
#
#
#
# Elastic Compliance Matrix: (Units=1/GPa)
#
#
# Indices 1 2 3 4 5 6 
#
# 1 0.017764 -0.007562 -0.003451 0.000000 0.000000 0.000000
# 2 -0.007562 0.017764 -0.003451 0.000000 0.000000 0.000000
# 3 -0.003451 -0.003451 0.011100 0.000000 0.000000 0.000000
# 4 0.000000 0.000000 0.000000 0.056128 0.000000 0.000000
# 5 0.000000 0.000000 0.000000 0.000000 0.056128 0.000000
# 6 0.000000 0.000000 0.000000 0.000000 0.000000 0.050653
#
#
# Mechanical properties :
#
#
# Convention : Reuss Voigt Hill
#
# Bulk Modulus (GPa) = 56.49720 57.41186 56.95453
# Shear Modulus (GPa) = 20.46129 21.62159 21.04144
#
# Velocity S-wave (km/s) = 3.44013 3.53633 3.48856
# Velocity P-wave (km/s) = 6.96107 7.06260 7.01202
#
# Compressibility (1/GPa) = 0.01769999
#
# Stress axis : x y z
#
# Youngs Moduli (GPa) = 56.29406 56.29406 90.09189
#
# Poissons Ratio (x) = 0.42572 0.31088
# Poissons Ratio (y) = 0.42572 0.31088
# Poissons Ratio (z) = 0.19425 0.19425
#
# Static dielectric constant tensor:
#      x y z
#    x 3.164040 0.000000 0.000000 
#    y 0.000000 3.164040 0.000000 
#    z 0.000000 0.000000 3.418630 
# 
# 
# High freq. dielectric constant tensor:
#      x y z
#    x 1.655310 0.000000 0.000000 
#    y 0.000000 1.655310 0.000000 
#    z 0.000000 0.000000 1.675880 
# 
# From -- ./inp_files/9873.got.cif
#   From: 2010.03.12/outbox.cif.g09.slc.cpg/sg191_5_cif.got.tgz:9873.got - 2010.04.01 12:09:02.
