data_PCOD8328282
_publ_section_title
;
Structure prediction by ZEFSAII (Michael W. Deem and Ramdas Pophale) SiO2 
 PCOD8328282
Probable space group: P 6/M M M
;
_chemical_formula_sum "Si O2"
_cell_formula_units_Z 192
_cell_length_a 22.346685
_cell_length_b 22.346685
_cell_length_c 30.391935
_cell_angle_alpha 90.000000
_cell_angle_beta 90.000000
_cell_angle_gamma 120.000000
_cell_volume 13143.626151
_symmetry_space_group_name_H-M "P 6/M M M"
_symmetry_group_IT_number 191
_symmetry_cell_setting 'hexagonal'
loop_
_space_group_symop_operation_xyz
x,y,z
x-y,x,z
-y,x-y,z
-x,-y,z
-x+y,-x,z
y,-x+y,z
x-y,-y,-z
-x,-x+y,-z
y,x,-z
-y,-x,-z
-x+y,y,-z
x,x-y,-z
-x,-y,-z
-x+y,-x,-z
y,-x+y,-z
x,y,-z
x-y,x,-z
-y,x-y,-z
-x+y,y,z
x,x-y,z
-y,-x,z
y,x,z
x-y,-y,z
-x,-x+y,z
loop_
_atom_site_type_symbol
_atom_site_label
_atom_site_fract_x
_atom_site_fract_y
_atom_site_fract_z
Si Si1 0.468291 0.390795 0.701622
Si Si2 0.196238 0.529449 0.552092
Si Si3 0.416383 0.336678 0.609689
Si Si4 0.807538 0.473438 0.858296
Si Si5 0.922702 0.712386 0.747023
Si Si6 0.149605 0.436476 0.223458
Si Si7 0.789384 0.076506 0.354248
Si Si8 0.469904 0.665438 0.953473
O O1 0.538438 0.461563 0.701658
O O2 0.404075 0.404075 0.710137
O O3 0.459689 0.355066 0.654611
O O4 0.472854 0.343913 0.739316
O O5 0.190711 0.523030 0.500000
O O6 0.264739 0.529477 0.568979
O O7 0.200566 0.600283 0.567954
O O8 0.127803 0.463882 0.570788
O O9 0.393060 0.393060 0.599025
O O10 0.349737 0.260797 0.614256
O O11 0.728663 0.457326 0.858492
O O12 0.807346 0.403673 0.845033
O O13 0.854182 0.533334 0.823856
O O14 0.843027 0.501752 0.906848
O O15 0.871207 0.742414 0.755770
O O16 0.902062 0.645910 0.777357
O O17 0.916318 0.687693 0.696357
O O18 0.000000 0.772293 0.758778
O O19 0.226940 0.453880 0.234329
O O20 0.868401 0.131600 0.365902
O O21 0.778222 0.000000 0.362012
O O22 0.482386 0.741193 0.956695
O O23 0.388274 0.611727 0.950873
O O24 0.499861 0.652038 0.000000
#
# Coordination Sequence:
#
# PCOD8328282 Si02
#       8
#    24  24  24  24  24  24  24  24
#     4  10  19  30  43  58  78 103 132 168 205 240
#     4  10  21  36  52  67  85 112 145 179 214 256
#     4  10  19  31  48  69  89 109 136 172 216 257
#     4   9  16  24  33  47  70 101 137 176 218 259
#     4   9  16  27  43  62  83 106 132 160 191 229
#     4  10  18  26  38  55  77 106 136 166 201 241
#     4   9  16  27  45  67  89 112 138 167 198 237
#     4   8  12  18  29  44  62  87 123 168 215 259
#
# _framework density 14.607841000000001
#
# number of rings (size 3 to 8) (size 9 to 14) (size 15 to 20)
#    0.000    2.625    1.250    1.875    0.000    3.500 
#    0.000    0.625    0.000    0.500    0.000    1.750 
#    0.000    2.000    0.000   14.625    0.000    3.375 
#
# Total GULP energy -2379320.355841 kJ/mol
# GULP energy per Si atom -12392.293520 kJ/mol
# Density = 1.457459 g / cm^3
# Si number density = 14.607841 Si / 1000 Ang^3
#
#
#
# Elastic Constant Matrix: (Units=GPa)
#
#
# Indices 1 2 3 4 5 6 
#
# 1 74.9122 39.3764 32.6269 0.0000 0.0000 0.0000
# 2 39.3764 74.9122 32.6269 0.0000 0.0000 0.0000
# 3 32.6269 32.6269 53.6516 0.0000 0.0000 0.0000
# 4 0.0000 0.0000 0.0000 15.2519 0.0000 0.0000
# 5 0.0000 0.0000 0.0000 0.0000 15.2519 0.0000
# 6 0.0000 0.0000 0.0000 0.0000 0.0000 17.7679
#
#
#
# Elastic Compliance Matrix: (Units=1/GPa)
#
#
# Indices 1 2 3 4 5 6 
#
# 1 0.020772 -0.007368 -0.008151 0.000000 0.000000 0.000000
# 2 -0.007368 0.020772 -0.008151 0.000000 0.000000 0.000000
# 3 -0.008151 -0.008151 0.028553 0.000000 0.000000 0.000000
# 4 0.000000 0.000000 0.000000 0.065565 0.000000 0.000000
# 5 0.000000 0.000000 0.000000 0.000000 0.065565 0.000000
# 6 0.000000 0.000000 0.000000 0.000000 0.000000 0.056281
#
#
# Mechanical properties :
#
#
# Convention : Reuss Voigt Hill
#
# Bulk Modulus (GPa) = 43.94547 45.85962 44.90255
# Shear Modulus (GPa) = 16.00328 16.24407 16.12367
#
# Velocity S-wave (km/s) = 3.31346 3.33830 3.32591
# Velocity P-wave (km/s) = 6.69235 6.80595 6.74939
#
# Compressibility (1/GPa) = 0.02275547
#
# Stress axis : x y z
#
# Youngs Moduli (GPa) = 48.14129 48.14130 35.02300
#
# Poissons Ratio (x) = 0.35473 0.28548
# Poissons Ratio (y) = 0.35473 0.28548
# Poissons Ratio (z) = 0.39241 0.39241
#
# Static dielectric constant tensor:
#      x y z
#    x 2.766570 0.000000 0.000000 
#    y 0.000000 2.766570 0.000000 
#    z 0.000000 0.000000 2.982070 
# 
# 
# High freq. dielectric constant tensor:
#      x y z
#    x 1.541970 0.000000 0.000000 
#    y 0.000000 1.541970 0.000000 
#    z 0.000000 0.000000 1.548890 
# 
# From -- ./inp_files/10143.got.cif
#   From: 2010.03.12/outbox.cif.g09.slc.cpg/sg191_6_cif.got.tgz:10143.got - 2010.04.01 12:09:02.
