data_PCOD8328307
_publ_section_title
;
Structure prediction by ZEFSAII (Michael W. Deem and Ramdas Pophale) SiO2 
 PCOD8328307
Probable space group: P 6/M M M
;
_chemical_formula_sum "Si O2"
_cell_formula_units_Z 180
_cell_length_a 21.136350
_cell_length_b 21.136350
_cell_length_c 31.407670
_cell_angle_alpha 90.000000
_cell_angle_beta 90.000000
_cell_angle_gamma 120.000000
_cell_volume 12151.400487
_symmetry_space_group_name_H-M "P 6/M M M"
_symmetry_group_IT_number 191
_symmetry_cell_setting 'hexagonal'
loop_
_space_group_symop_operation_xyz
x,y,z
x-y,x,z
-y,x-y,z
-x,-y,z
-x+y,-x,z
y,-x+y,z
x-y,-y,-z
-x,-x+y,-z
y,x,-z
-y,-x,-z
-x+y,y,-z
x,x-y,-z
-x,-y,-z
-x+y,-x,-z
y,-x+y,-z
x,y,-z
x-y,x,-z
-y,x-y,-z
-x+y,y,z
x,x-y,z
-y,-x,z
y,x,z
x-y,-y,z
-x,-x+y,z
loop_
_atom_site_type_symbol
_atom_site_label
_atom_site_fract_x
_atom_site_fract_y
_atom_site_fract_z
Si Si1 0.666249 0.192465 0.318325
Si Si2 0.465942 0.081577 0.924045
Si Si3 0.420874 0.281411 0.754634
Si Si4 0.692547 0.773714 0.681248
Si Si5 0.914829 0.526843 0.830712
Si Si6 0.813292 0.480043 0.549531
Si Si7 0.816854 0.483972 0.000000
Si Si8 0.420832 0.084479 0.618826
O O1 0.612440 0.224880 0.317335
O O2 0.745396 0.254604 0.335695
O O3 0.673877 0.170589 0.270603
O O4 0.633544 0.122346 0.348868
O O5 0.537841 0.075682 0.928124
O O6 0.464069 0.113380 0.877080
O O7 0.468775 0.138328 0.958958
O O8 0.396339 0.000000 0.931641
O O9 0.408670 0.204335 0.770932
O O10 0.355319 0.267688 0.722807
O O11 0.426193 0.327523 0.795785
O O12 0.719034 0.859517 0.681818
O O13 0.763205 0.763205 0.681380
O O14 0.645410 0.738059 0.638476
O O15 0.880835 0.440418 0.818763
O O16 0.000000 0.559811 0.835599
O O17 0.831126 0.496223 0.500000
O O18 0.732738 0.465476 0.560402
O O19 0.816395 0.408198 0.563754
O O20 0.874292 0.552281 0.573751
O O21 0.737576 0.475152 0.000000
O O22 0.807289 0.403645 0.000000
O O23 0.397408 0.000000 0.613022
#
# Coordination Sequence:
#
# PCOD8328307 Si02
#       8
#    24  24  24  24  24  24  12  24
#     4  10  19  30  43  58  78 105 137 170 202 235
#     4   8  15  27  41  54  69  94 126 158 191 229
#     4   9  17  27  39  57  82 108 131 158 192 232
#     4   9  17  30  47  65  85 109 135 161 192 231
#     4   9  16  26  40  57  75  96 127 164 197 227
#     4  10  20  33  48  64  83 108 138 171 205 240
#     4  10  18  27  39  55  74  93 118 154 197 240
#     4  10  20  32  45  62  84 107 133 166 202 241
#
# _framework density 14.813108
#
# number of rings (size 3 to 8) (size 9 to 14) (size 15 to 20)
#    0.000    2.667    0.000    4.533    0.000    3.733 
#    0.000    2.000    0.000    0.400    0.000    0.000 
#    0.000    0.000    0.000    0.000    0.000    0.000 
#
# Total GULP energy -2230812.019204 kJ/mol
# GULP energy per Si atom -12393.400107 kJ/mol
# Density = 1.477939 g / cm^3
# Si number density = 14.813108 Si / 1000 Ang^3
#
#
#
# Elastic Constant Matrix: (Units=GPa)
#
#
# Indices 1 2 3 4 5 6 
#
# 1 74.3690 38.1996 38.9643 0.0000 0.0000 0.0000
# 2 38.1996 74.3690 38.9643 0.0000 0.0000 0.0000
# 3 38.9643 38.9643 90.2991 0.0000 0.0000 0.0000
# 4 0.0000 0.0000 0.0000 18.1414 0.0000 0.0000
# 5 0.0000 0.0000 0.0000 0.0000 18.1414 0.0000
# 6 0.0000 0.0000 0.0000 0.0000 0.0000 18.0847
#
#
#
# Elastic Compliance Matrix: (Units=1/GPa)
#
#
# Indices 1 2 3 4 5 6 
#
# 1 0.020158 -0.007490 -0.005466 0.000000 0.000000 0.000000
# 2 -0.007490 0.020158 -0.005466 0.000000 0.000000 0.000000
# 3 -0.005466 -0.005466 0.015792 0.000000 0.000000 0.000000
# 4 0.000000 0.000000 0.000000 0.055122 0.000000 0.000000
# 5 0.000000 0.000000 0.000000 0.000000 0.055122 0.000000
# 6 0.000000 0.000000 0.000000 0.000000 0.000000 0.055295
#
#
# Mechanical properties :
#
#
# Convention : Reuss Voigt Hill
#
# Bulk Modulus (GPa) = 51.91489 52.36597 52.14043
# Shear Modulus (GPa) = 18.87417 19.06743 18.97080
#
# Velocity S-wave (km/s) = 3.57340 3.59165 3.58254
# Velocity P-wave (km/s) = 7.22138 7.25450 7.23796
#
# Compressibility (1/GPa) = 0.01926230
#
# Stress axis : x y z
#
# Youngs Moduli (GPa) = 49.60905 49.60905 63.32498
#
# Poissons Ratio (x) = 0.37158 0.34614
# Poissons Ratio (y) = 0.37158 0.34614
# Poissons Ratio (z) = 0.27117 0.27117
#
# Static dielectric constant tensor:
#      x y z
#    x 2.708600 0.000000 0.000000 
#    y 0.000000 2.708600 0.000000 
#    z 0.000000 0.000000 3.013690 
# 
# 
# High freq. dielectric constant tensor:
#      x y z
#    x 1.543420 0.000000 0.000000 
#    y 0.000000 1.543420 0.000000 
#    z 0.000000 0.000000 1.571430 
# 
# From -- ./inp_files/10879.got.cif
#   From: 2010.03.12/outbox.cif.g09.slc.cpg/sg191_6_cif.got.tgz:10879.got - 2010.04.01 12:09:02.
