data_PCOD8328821
_publ_section_title
;
Structure prediction by ZEFSAII (Michael W. Deem and Ramdas Pophale) SiO2 
 PCOD8328821
Probable space group: P 6/M M M
;
_chemical_formula_sum "Si O2"
_cell_formula_units_Z 168
_cell_length_a 22.315209
_cell_length_b 22.315209
_cell_length_c 23.666912
_cell_angle_alpha 90.000000
_cell_angle_beta 90.000000
_cell_angle_gamma 120.000000
_cell_volume 10206.436668
_symmetry_space_group_name_H-M "P 6/M M M"
_symmetry_group_IT_number 191
_symmetry_cell_setting 'hexagonal'
loop_
_space_group_symop_operation_xyz
x,y,z
x-y,x,z
-y,x-y,z
-x,-y,z
-x+y,-x,z
y,-x+y,z
x-y,-y,-z
-x,-x+y,-z
y,x,-z
-y,-x,-z
-x+y,y,-z
x,x-y,-z
-x,-y,-z
-x+y,-x,-z
y,-x+y,-z
x,y,-z
x-y,x,-z
-y,x-y,-z
-x+y,y,z
x,x-y,z
-y,-x,z
y,x,z
x-y,-y,z
-x,-x+y,z
loop_
_atom_site_type_symbol
_atom_site_label
_atom_site_fract_x
_atom_site_fract_y
_atom_site_fract_z
Si Si1 0.473741 0.391413 0.171898
Si Si2 0.258254 0.878287 0.232402
Si Si3 0.327434 0.918604 0.061841
Si Si4 0.666293 0.467983 0.432869
Si Si5 0.211422 0.922550 0.124369
Si Si6 0.291941 0.077904 0.659517
Si Si7 0.693340 0.078383 0.435011
O O1 0.553712 0.446289 0.183988
O O2 0.427229 0.427229 0.172905
O O3 0.446340 0.333285 0.220598
O O4 0.467928 0.356717 0.110155
O O5 0.203024 0.796977 0.231259
O O6 0.240171 0.918879 0.185641
O O7 0.258820 0.911396 0.292511
O O8 0.250485 0.902058 0.077689
O O9 0.377745 0.000000 0.058735
O O10 0.325221 0.885765 0.000000
O O11 0.665054 0.463459 0.500000
O O12 0.733992 0.467983 0.408974
O O13 0.597885 0.402116 0.407653
O O14 0.667312 0.537508 0.413061
O O15 0.129496 0.870505 0.119224
O O16 0.225487 0.000000 0.114892
O O17 0.264476 0.132238 0.666710
O O18 0.330402 0.090558 0.599733
O O19 0.226640 0.000000 0.663014
O O20 0.717369 0.094097 0.500000
O O21 0.630389 0.000000 0.427039
#
# Coordination Sequence:
#
# PCOD8328821 Si02
#       7
#    24  24  24  24  24  24  24
#     4   9  16  26  42  64  90 116 140 172 215 258
#     4   9  17  30  47  65  85 112 147 182 215 255
#     4   8  14  24  37  56  83 111 138 169 207 252
#     4   9  16  26  41  60  83 112 145 178 211 251
#     4   9  16  26  41  60  83 111 143 181 223 266
#     4  10  19  31  49  70  91 115 145 182 222 268
#     4   9  18  31  46  65  88 114 145 184 231 278
#
# _framework density 16.460201000000001
#
# number of rings (size 3 to 8) (size 9 to 14) (size 15 to 20)
#    0.000    3.000    0.000    2.714    0.000    2.286 
#    0.000    3.571    0.000    1.429    0.000    0.000 
#    0.000    3.429    0.000    7.571    0.000    0.000 
#
# Total GULP energy -2082530.841179 kJ/mol
# GULP energy per Si atom -12396.016912 kJ/mol
# Density = 1.642274 g / cm^3
# Si number density = 16.460201 Si / 1000 Ang^3
#
#
#
# Elastic Constant Matrix: (Units=GPa)
#
#
# Indices 1 2 3 4 5 6 
#
# 1 104.1511 60.1254 28.9865 0.0000 0.0000 0.0000
# 2 60.1254 104.1511 28.9865 0.0000 0.0000 0.0000
# 3 28.9865 28.9865 65.1281 0.0000 0.0000 0.0000
# 4 0.0000 0.0000 0.0000 14.7988 0.0000 0.0000
# 5 0.0000 0.0000 0.0000 0.0000 14.7988 0.0000
# 6 0.0000 0.0000 0.0000 0.0000 0.0000 22.0129
#
#
#
# Elastic Compliance Matrix: (Units=1/GPa)
#
#
# Indices 1 2 3 4 5 6 
#
# 1 0.014968 -0.007746 -0.003214 0.000000 0.000000 0.000000
# 2 -0.007746 0.014968 -0.003214 0.000000 0.000000 0.000000
# 3 -0.003214 -0.003214 0.018215 0.000000 0.000000 0.000000
# 4 0.000000 0.000000 0.000000 0.067573 0.000000 0.000000
# 5 0.000000 0.000000 0.000000 0.000000 0.067573 0.000000
# 6 0.000000 0.000000 0.000000 0.000000 0.000000 0.045428
#
#
# Mechanical properties :
#
#
# Convention : Reuss Voigt Hill
#
# Bulk Modulus (GPa) = 50.49974 56.62525 53.56250
# Shear Modulus (GPa) = 18.96277 20.67755 19.82016
#
# Velocity S-wave (km/s) = 3.39785 3.54816 3.47382
# Velocity P-wave (km/s) = 6.79267 7.15974 6.97862
#
# Compressibility (1/GPa) = 0.01980208
#
# Stress axis : x y z
#
# Youngs Moduli (GPa) = 66.81024 66.81024 54.89875
#
# Poissons Ratio (x) = 0.51753 0.17645
# Poissons Ratio (y) = 0.51753 0.17645
# Poissons Ratio (z) = 0.21473 0.21473
#
# Static dielectric constant tensor:
#      x y z
#    x 3.020390 0.000000 0.000000 
#    y 0.000000 3.020390 0.000000 
#    z 0.000000 0.000000 3.159730 
# 
# 
# High freq. dielectric constant tensor:
#      x y z
#    x 1.612520 0.000000 0.000000 
#    y 0.000000 1.612520 0.000000 
#    z 0.000000 0.000000 1.626930 
# 
# From -- ./inp_files/8008.got.cif
#   From: 2010.03.12/outbox.cif.g09.slc.cpg/sg191_5_cif.got.tgz:8008.got - 2010.04.01 12:09:02.
