data_PCOD8328563
_publ_section_title
;
Structure prediction by ZEFSAII (Michael W. Deem and Ramdas Pophale) SiO2 
 PCOD8328563
Probable space group: P 6/M M M
;
_chemical_formula_sum "Si O2"
_cell_formula_units_Z 144
_cell_length_a 21.946758
_cell_length_b 21.946758
_cell_length_c 19.502413
_cell_angle_alpha 90.000000
_cell_angle_beta 90.000000
_cell_angle_gamma 120.000000
_cell_volume 8135.040709
_symmetry_space_group_name_H-M "P 6/M M M"
_symmetry_group_IT_number 191
_symmetry_cell_setting 'hexagonal'
loop_
_space_group_symop_operation_xyz
x,y,z
x-y,x,z
-y,x-y,z
-x,-y,z
-x+y,-x,z
y,-x+y,z
x-y,-y,-z
-x,-x+y,-z
y,x,-z
-y,-x,-z
-x+y,y,-z
x,x-y,-z
-x,-y,-z
-x+y,-x,-z
y,-x+y,-z
x,y,-z
x-y,x,-z
-y,x-y,-z
-x+y,y,z
x,x-y,z
-y,-x,z
y,x,z
x-y,-y,z
-x,-x+y,z
loop_
_atom_site_type_symbol
_atom_site_label
_atom_site_fract_x
_atom_site_fract_y
_atom_site_fract_z
Si Si1 0.920871 0.841742 0.581705
Si Si2 0.615986 0.735875 0.075987
Si Si3 0.293848 0.917069 0.331435
Si Si4 0.807012 0.473172 0.296049
Si Si5 0.076813 0.291864 0.798149
Si Si6 0.317414 0.158707 0.581190
Si Si7 0.665891 0.471243 0.866151
O O1 0.881017 0.881017 0.610693
O O2 0.921407 0.842813 0.500000
O O3 0.881202 0.762404 0.609432
O O4 0.609595 0.804798 0.077566
O O5 0.675105 0.745880 0.130059
O O6 0.540181 0.671733 0.098182
O O7 0.636073 0.721915 0.000000
O O8 0.337285 0.875846 0.329726
O O9 0.251117 0.900836 0.260508
O O10 0.238621 0.884938 0.393292
O O11 0.346895 0.000000 0.343009
O O12 0.736689 0.473378 0.319935
O O13 0.802633 0.401317 0.321886
O O14 0.814846 0.479801 0.214883
O O15 0.132289 0.264577 0.801445
O O16 0.000000 0.225203 0.782682
O O17 0.320390 0.160195 0.500000
O O18 0.729355 0.458709 0.887884
O O19 0.594348 0.405653 0.893143
#
# Coordination Sequence:
#
# PCOD8328563 Si02
#       7
#    12  24  24  24  24  12  24
#     4   9  17  30  49  76 112 151 185 213 244 294
#     4   9  17  29  46  69  99 135 174 216 262 310
#     4  11  21  35  57  83 112 145 181 222 267 320
#     4  10  18  32  54  82 111 141 185 234 278 320
#     4  10  19  34  55  77 102 135 175 216 260 310
#     4  11  22  37  58  83 113 145 179 221 272 329
#     4   9  16  26  43  68 102 140 180 223 263 308
#
# _framework density 17.701203
#
# number of rings (size 3 to 8) (size 9 to 14) (size 15 to 20)
#    0.000    2.167    3.333    0.917    0.000    3.667 
#    0.000    0.000    0.000    2.167    0.000    2.333 
#    0.000    0.000    0.000    4.167    0.000    0.000 
#
# Total GULP energy -1785407.407592 kJ/mol
# GULP energy per Si atom -12398.662553 kJ/mol
# Density = 1.766091 g / cm^3
# Si number density = 17.701203 Si / 1000 Ang^3
#
#
#
# Elastic Constant Matrix: (Units=GPa)
#
#
# Indices 1 2 3 4 5 6 
#
# 1 103.8989 50.7429 25.2849 0.0000 0.0000 0.0000
# 2 50.7429 103.8989 25.2849 0.0000 0.0000 0.0000
# 3 25.2849 25.2849 58.3049 0.0000 0.0000 0.0000
# 4 0.0000 0.0000 0.0000 16.5275 0.0000 0.0000
# 5 0.0000 0.0000 0.0000 0.0000 16.5275 0.0000
# 6 0.0000 0.0000 0.0000 0.0000 0.0000 26.5780
#
#
#
# Elastic Compliance Matrix: (Units=1/GPa)
#
#
# Indices 1 2 3 4 5 6 
#
# 1 0.013174 -0.005639 -0.003268 0.000000 0.000000 0.000000
# 2 -0.005639 0.013174 -0.003268 0.000000 0.000000 0.000000
# 3 -0.003268 -0.003268 0.019985 0.000000 0.000000 0.000000
# 4 0.000000 0.000000 0.000000 0.060505 0.000000 0.000000
# 5 0.000000 0.000000 0.000000 0.000000 0.060505 0.000000
# 6 0.000000 0.000000 0.000000 0.000000 0.000000 0.037625
#
#
# Mechanical properties :
#
#
# Convention : Reuss Voigt Hill
#
# Bulk Modulus (GPa) = 45.48601 52.08086 48.78344
# Shear Modulus (GPa) = 21.12868 22.91261 22.02064
#
# Velocity S-wave (km/s) = 3.45864 3.60169 3.53089
# Velocity P-wave (km/s) = 6.45771 6.83976 6.65148
#
# Compressibility (1/GPa) = 0.02198478
#
# Stress axis : x y z
#
# Youngs Moduli (GPa) = 75.90794 75.90794 50.03641
#
# Poissons Ratio (x) = 0.42802 0.16351
# Poissons Ratio (y) = 0.42802 0.16351
# Poissons Ratio (z) = 0.24805 0.24805
#
# Static dielectric constant tensor:
#      x y z
#    x 3.237890 0.000000 0.000000 
#    y 0.000000 3.237890 0.000000 
#    z 0.000000 0.000000 3.129270 
# 
# 
# High freq. dielectric constant tensor:
#      x y z
#    x 1.677720 0.000000 0.000000 
#    y 0.000000 1.677720 0.000000 
#    z 0.000000 0.000000 1.661070 
# 
# From -- ./inp_files/7661.got.cif
#   From: 2010.03.12/outbox.cif.g09.slc.cpg/sg191_4_cif.got.tgz:7661.got - 2010.04.01 12:09:02.
