data_PCOD8328557
_publ_section_title
;
Structure prediction by ZEFSAII (Michael W. Deem and Ramdas Pophale) SiO2 
 PCOD8328557
Probable space group: P 6/M M M
;
_chemical_formula_sum "Si O2"
_cell_formula_units_Z 84
_cell_length_a 18.147853
_cell_length_b 18.147853
_cell_length_c 14.212818
_cell_angle_alpha 90.000000
_cell_angle_beta 90.000000
_cell_angle_gamma 120.000000
_cell_volume 4053.790793
_symmetry_space_group_name_H-M "P 6/M M M"
_symmetry_group_IT_number 191
_symmetry_cell_setting 'hexagonal'
loop_
_space_group_symop_operation_xyz
x,y,z
x-y,x,z
-y,x-y,z
-x,-y,z
-x+y,-x,z
y,-x+y,z
x-y,-y,-z
-x,-x+y,-z
y,x,-z
-y,-x,-z
-x+y,y,-z
x,x-y,-z
-x,-y,-z
-x+y,-x,-z
y,-x+y,-z
x,y,-z
x-y,x,-z
-y,x-y,-z
-x+y,y,z
x,x-y,z
-y,-x,z
y,x,z
x-y,-y,z
-x,-x+y,z
loop_
_atom_site_type_symbol
_atom_site_label
_atom_site_fract_x
_atom_site_fract_y
_atom_site_fract_z
Si Si1 0.100033 0.632849 0.701124
Si Si2 0.377408 0.188704 0.391188
Si Si3 0.902694 0.097307 0.294841
Si Si4 0.419061 0.323580 0.898639
Si Si5 0.136850 0.273699 0.895880
O O1 0.117209 0.558605 0.665075
O O2 0.145500 0.711584 0.631105
O O3 0.138554 0.659986 0.807628
O O4 0.000000 0.601565 0.702305
O O5 0.353360 0.176680 0.500000
O O6 0.290365 0.145183 0.333285
O O7 0.900418 0.099583 0.181234
O O8 0.000000 0.144296 0.330595
O O9 0.401167 0.401167 0.905724
O O10 0.331030 0.237467 0.881516
O O11 0.459901 0.318538 0.000000
O O12 0.115968 0.231935 0.000000
#
# Coordination Sequence:
#
# PCOD8328557 Si02
#       5
#    24  12  12  24  12
#     4  10  21  39  64  94 125 156 197 248 300 365
#     4  12  26  45  67  89 118 162 209 263 332 392
#     4  12  25  42  64  92 128 170 220 275 329 386
#     4   9  16  28  51  86 123 156 192 235 287 353
#     4  10  18  31  57  89 124 168 214 255 300 369
#
# _framework density 20.721344999999999
#
# number of rings (size 3 to 8) (size 9 to 14) (size 15 to 20)
#    0.000    1.714    2.857    1.857    0.000    5.143 
#    0.857    4.286    0.000    1.714    0.000    0.000 
#    0.000    0.000    0.000    0.000    0.000    0.000 
#
# Total GULP energy -1041065.159081 kJ/mol
# GULP energy per Si atom -12393.632846 kJ/mol
# Density = 2.067418 g / cm^3
# Si number density = 20.721345 Si / 1000 Ang^3
#
#
#
# Elastic Constant Matrix: (Units=GPa)
#
#
# Indices 1 2 3 4 5 6 
#
# 1 92.7154 42.1329 28.9045 0.0000 0.0000 0.0000
# 2 42.1329 92.7154 28.9045 0.0000 0.0000 0.0000
# 3 28.9045 28.9045 104.2364 0.0000 0.0000 0.0000
# 4 0.0000 0.0000 0.0000 12.5739 0.0000 0.0000
# 5 0.0000 0.0000 0.0000 0.0000 12.5739 0.0000
# 6 0.0000 0.0000 0.0000 0.0000 0.0000 25.2913
#
#
#
# Elastic Compliance Matrix: (Units=1/GPa)
#
#
# Indices 1 2 3 4 5 6 
#
# 1 0.014093 -0.005677 -0.002334 0.000000 0.000000 0.000000
# 2 -0.005677 0.014093 -0.002334 0.000000 0.000000 0.000000
# 3 -0.002334 -0.002334 0.010888 0.000000 0.000000 0.000000
# 4 0.000000 0.000000 0.000000 0.079530 0.000000 0.000000
# 5 0.000000 0.000000 0.000000 0.000000 0.079530 0.000000
# 6 0.000000 0.000000 0.000000 0.000000 0.000000 0.039539
#
#
# Mechanical properties :
#
#
# Convention : Reuss Voigt Hill
#
# Bulk Modulus (GPa) = 54.39170 54.39454 54.39312
# Shear Modulus (GPa) = 18.90434 22.73618 20.82026
#
# Velocity S-wave (km/s) = 3.02373 3.31605 3.17326
# Velocity P-wave (km/s) = 6.20457 6.40071 6.30340
#
# Compressibility (1/GPa) = 0.01838516
#
# Stress axis : x y z
#
# Youngs Moduli (GPa) = 70.95746 70.95746 91.84517
#
# Poissons Ratio (x) = 0.40281 0.21435
# Poissons Ratio (y) = 0.40281 0.21435
# Poissons Ratio (z) = 0.16560 0.16560
#
# Static dielectric constant tensor:
#      x y z
#    x 3.593640 0.000000 0.000000 
#    y 0.000000 3.593640 0.000000 
#    z 0.000000 0.000000 3.886910 
# 
# 
# High freq. dielectric constant tensor:
#      x y z
#    x 1.787730 0.000000 0.000000 
#    y 0.000000 1.787730 0.000000 
#    z 0.000000 0.000000 1.811230 
# 
# From -- ./inp_files/4002.got.cif
#   From: 2010.03.12/outbox.cif.g09.slc.cpg/sg191_3_cif.got.tgz:4002.got - 2010.04.01 12:09:02.
