data_PCOD8328020
_publ_section_title
;
Structure prediction by ZEFSAII (Michael W. Deem and Ramdas Pophale) SiO2 
 PCOD8328020
Probable space group: P -6 2 C
;
_chemical_formula_sum "Si O2"
_cell_formula_units_Z 72
_cell_length_a 14.998047
_cell_length_b 14.998047
_cell_length_c 18.224393
_cell_angle_alpha 90.000000
_cell_angle_beta 90.000000
_cell_angle_gamma 120.000000
_cell_volume 3550.202491
_symmetry_space_group_name_H-M "P -6 2 C"
_symmetry_group_IT_number 190
_symmetry_cell_setting 'hexagonal'
loop_
_space_group_symop_operation_xyz
x,y,z
-x+y,-x,1/2-z
-y,x-y,z
x,y,1/2-z
-x+y,-x,z
-y,x-y,1/2-z
x-y,-y,-z
-x,-x+y,-z
y,x,-z
y,x,1/2+z
x-y,-y,1/2+z
-x,-x+y,1/2+z
loop_
_atom_site_type_symbol
_atom_site_label
_atom_site_fract_x
_atom_site_fract_y
_atom_site_fract_z
Si Si1 0.793247 0.945012 0.666582
Si Si2 0.246452 0.708534 0.541291
Si Si3 0.752400 0.549034 0.891957
Si Si4 0.428634 0.333995 0.166366
Si Si5 0.059685 0.228776 0.337702
Si Si6 0.530548 0.418631 0.666744
O O1 0.821883 0.939413 0.750000
O O2 0.692554 0.953802 0.658240
O O3 0.782874 0.840497 0.632509
O O4 0.884542 0.051053 0.634268
O O5 0.218306 0.588855 0.539636
O O6 0.205475 0.744043 0.471823
O O7 0.195663 0.716770 0.616200
O O8 0.771345 0.662645 0.879228
O O9 0.815551 0.520595 0.834352
O O10 0.630266 0.470627 0.884990
O O11 0.464849 0.335271 0.250000
O O12 0.452391 0.447544 0.141698
O O13 0.070305 0.249447 0.250000
O O14 0.564391 0.455560 0.750000
#
# Coordination Sequence:
#
# PCOD8328020 Si02
#       6
#    12  12  12  12  12  12
#     4   9  18  35  57  88 125 161 208 262 314 375
#     4  10  23  44  61  83 120 162 214 258 317 389
#     4  12  21  39  60  94 130 168 208 259 328 390
#     4  10  22  40  64  90 121 163 212 271 327 380
#     4  10  19  34  60  91 126 169 213 259 317 388
#     4  11  21  36  61  94 130 165 206 262 324 384
#
# _framework density 20.280532999999998
#
# number of rings (size 3 to 8) (size 9 to 14) (size 15 to 20)
#    0.333    1.333    3.333    2.167    0.000    4.000 
#    0.000    5.833    0.000    0.000    0.000    2.333 
#    0.000    0.000    0.000    0.000    0.000    0.000 
#
# Total GULP energy -892351.228765 kJ/mol
# GULP energy per Si atom -12393.767066 kJ/mol
# Density = 2.023437 g / cm^3
# Si number density = 20.280533 Si / 1000 Ang^3
#
#
#
# Elastic Constant Matrix: (Units=GPa)
#
#
# Indices 1 2 3 4 5 6 
#
# 1 93.3274 29.6561 35.3633 0.0000 0.0000 0.0000
# 2 29.6561 93.3274 35.3633 0.0000 0.0000 0.0000
# 3 35.3633 35.3633 86.8867 0.0000 0.0000 0.0000
# 4 0.0000 0.0000 0.0000 20.0103 0.0000 0.0000
# 5 0.0000 0.0000 0.0000 0.0000 20.0103 0.0000
# 6 0.0000 0.0000 0.0000 0.0000 0.0000 31.8356
#
#
#
# Elastic Compliance Matrix: (Units=1/GPa)
#
#
# Indices 1 2 3 4 5 6 
#
# 1 0.013161 -0.002545 -0.004321 0.000000 0.000000 0.000000
# 2 -0.002545 0.013161 -0.004321 0.000000 0.000000 0.000000
# 3 -0.004321 -0.004321 0.015026 0.000000 0.000000 0.000000
# 4 0.000000 0.000000 0.000000 0.049974 0.000000 0.000000
# 5 0.000000 0.000000 0.000000 0.000000 0.049974 0.000000
# 6 0.000000 0.000000 0.000000 0.000000 0.000000 0.031411
#
#
# Mechanical properties :
#
#
# Convention : Reuss Voigt Hill
#
# Bulk Modulus (GPa) = 52.70001 52.70078 52.70040
# Shear Modulus (GPa) = 24.82549 25.91515 25.37032
#
# Velocity S-wave (km/s) = 3.50252 3.57856 3.54074
# Velocity P-wave (km/s) = 6.51143 6.56636 6.53895
#
# Compressibility (1/GPa) = 0.01897533
#
# Stress axis : x y z
#
# Youngs Moduli (GPa) = 75.98302 75.98302 66.54959
#
# Poissons Ratio (x) = 0.19336 0.28755
# Poissons Ratio (y) = 0.19336 0.28755
# Poissons Ratio (z) = 0.32830 0.32830
#
# Static dielectric constant tensor:
#      x y z
#    x 3.646430 0.000000 0.000000 
#    y 0.000000 3.646430 0.000000 
#    z 0.000000 0.000000 3.346690 
# 
# 
# High freq. dielectric constant tensor:
#      x y z
#    x 1.792030 0.000000 0.000000 
#    y 0.000000 1.792030 0.000000 
#    z 0.000000 0.000000 1.759570 
# 
# From -- ./inp_files/3743.got.cif
#   From: 2010.06.25/outbox.cif.g09.slc.cpg/sg190_2_cif.got.tgz:3743.got - 2010.06.28 13:08:06.
