data_PCOD8328607
_publ_section_title
;
Structure prediction by ZEFSAII (Michael W. Deem and Ramdas Pophale) SiO2 
 PCOD8328607
Probable space group: P 6/M M M
;
_chemical_formula_sum "Si O2"
_cell_formula_units_Z 132
_cell_length_a 27.022902
_cell_length_b 27.022902
_cell_length_c 13.458396
_cell_angle_alpha 90.000000
_cell_angle_beta 90.000000
_cell_angle_gamma 120.000000
_cell_volume 8511.143385
_symmetry_space_group_name_H-M "P 6/M M M"
_symmetry_group_IT_number 191
_symmetry_cell_setting 'hexagonal'
loop_
_space_group_symop_operation_xyz
x,y,z
x-y,x,z
-y,x-y,z
-x,-y,z
-x+y,-x,z
y,-x+y,z
x-y,-y,-z
-x,-x+y,-z
y,x,-z
-y,-x,-z
-x+y,y,-z
x,x-y,-z
-x,-y,-z
-x+y,-x,-z
y,-x+y,-z
x,y,-z
x-y,x,-z
-y,x-y,-z
-x+y,y,z
x,x-y,z
-y,-x,z
y,x,z
x-y,-y,z
-x,-x+y,z
loop_
_atom_site_type_symbol
_atom_site_label
_atom_site_fract_x
_atom_site_fract_y
_atom_site_fract_z
Si Si1 0.558693 0.558693 0.391279
Si Si2 0.885869 0.385747 0.286880
Si Si3 0.064161 0.238369 0.886293
Si Si4 0.066351 0.423150 0.886190
Si Si5 0.840633 0.273530 0.387345
Si Si6 0.764709 0.642151 0.203424
O O1 0.500000 0.500000 0.394072
O O2 0.582198 0.582198 0.500000
O O3 0.605183 0.548832 0.337386
O O4 0.870319 0.435160 0.305641
O O5 0.897479 0.381251 0.170820
O O6 0.838209 0.327191 0.337573
O O7 0.106331 0.212662 0.871567
O O8 0.081396 0.290094 0.809276
O O9 0.000000 0.188580 0.862079
O O10 0.068727 0.260568 0.000000
O O11 0.098412 0.387398 0.869723
O O12 0.000000 0.386960 0.851686
O O13 0.069690 0.440010 0.000000
O O14 0.865649 0.286547 0.500000
O O15 0.775398 0.224603 0.389732
O O16 0.878207 0.255355 0.317693
O O17 0.812571 0.625141 0.172877
#
# Coordination Sequence:
#
# PCOD8328607 Si02
#       6
#    12  24  24  24  24  24
#     4   9  16  26  41  61  83 107 136 170 207 245
#     4  10  19  31  46  65  87 113 145 179 213 254
#     4   9  16  26  42  63  86 113 145 180 215 251
#     4  10  19  29  42  61  88 120 148 177 216 260
#     4   9  18  32  48  65  86 112 141 175 218 263
#     4   9  17  28  43  63  86 113 146 181 215 254
#
# _framework density 15.509079
#
# number of rings (size 3 to 8) (size 9 to 14) (size 15 to 20)
#    0.000    2.636    0.909    1.636    0.000    4.000 
#    0.000    0.909    0.000    0.545    0.000    1.273 
#    0.000    0.000    0.000    0.545    0.000    0.727 
#
# Total GULP energy -1635762.485873 kJ/mol
# GULP energy per Si atom -12392.140044 kJ/mol
# Density = 1.547378 g / cm^3
# Si number density = 15.509079 Si / 1000 Ang^3
#
#
#
# Elastic Constant Matrix: (Units=GPa)
#
#
# Indices 1 2 3 4 5 6 
#
# 1 74.8890 38.8980 36.9463 0.0000 0.0000 0.0000
# 2 38.8980 74.8890 36.9463 0.0000 0.0000 0.0000
# 3 36.9463 36.9463 90.1277 0.0000 0.0000 0.0000
# 4 0.0000 0.0000 0.0000 18.3958 0.0000 0.0000
# 5 0.0000 0.0000 0.0000 0.0000 18.3958 0.0000
# 6 0.0000 0.0000 0.0000 0.0000 0.0000 17.9955
#
#
#
# Elastic Compliance Matrix: (Units=1/GPa)
#
#
# Indices 1 2 3 4 5 6 
#
# 1 0.019881 -0.007904 -0.004910 0.000000 0.000000 0.000000
# 2 -0.007904 0.019881 -0.004910 0.000000 0.000000 0.000000
# 3 -0.004910 -0.004910 0.015121 0.000000 0.000000 0.000000
# 4 0.000000 0.000000 0.000000 0.054360 0.000000 0.000000
# 5 0.000000 0.000000 0.000000 0.000000 0.054360 0.000000
# 6 0.000000 0.000000 0.000000 0.000000 0.000000 0.055569
#
#
# Mechanical properties :
#
#
# Convention : Reuss Voigt Hill
#
# Bulk Modulus (GPa) = 51.45255 51.72079 51.58667
# Shear Modulus (GPa) = 19.14997 19.43174 19.29086
#
# Velocity S-wave (km/s) = 3.51773 3.54351 3.53064
# Velocity P-wave (km/s) = 7.05315 7.08259 7.06789
#
# Compressibility (1/GPa) = 0.01943538
#
# Stress axis : x y z
#
# Youngs Moduli (GPa) = 50.30011 50.30011 66.13497
#
# Poissons Ratio (x) = 0.39757 0.32470
# Poissons Ratio (y) = 0.39757 0.32470
# Poissons Ratio (z) = 0.24695 0.24695
#
# Static dielectric constant tensor:
#      x y z
#    x 2.911470 0.000000 0.000000 
#    y 0.000000 2.911470 0.000000 
#    z 0.000000 0.000000 3.100250 
# 
# 
# High freq. dielectric constant tensor:
#      x y z
#    x 1.579900 0.000000 0.000000 
#    y 0.000000 1.579900 0.000000 
#    z 0.000000 0.000000 1.596710 
# 
# From -- ./inp_files/3359.got.cif
#   From: 2010.03.12/outbox.cif.g09.slc.cpg/sg191_2_cif.got.tgz:3359.got - 2010.04.01 12:09:02.
