data_PCOD8328416
_publ_section_title
;
Structure prediction by ZEFSAII (Michael W. Deem and Ramdas Pophale) SiO2 
 PCOD8328416
Probable space group: P 6/M M M
;
_chemical_formula_sum "Si O2"
_cell_formula_units_Z 168
_cell_length_a 22.660506
_cell_length_b 22.660506
_cell_length_c 20.970713
_cell_angle_alpha 90.000000
_cell_angle_beta 90.000000
_cell_angle_gamma 120.000000
_cell_volume 9325.734237
_symmetry_space_group_name_H-M "P 6/M M M"
_symmetry_group_IT_number 191
_symmetry_cell_setting 'hexagonal'
loop_
_space_group_symop_operation_xyz
x,y,z
x-y,x,z
-y,x-y,z
-x,-y,z
-x+y,-x,z
y,-x+y,z
x-y,-y,-z
-x,-x+y,-z
y,x,-z
-y,-x,-z
-x+y,y,-z
x,x-y,-z
-x,-y,-z
-x+y,-x,-z
y,-x+y,-z
x,y,-z
x-y,x,-z
-y,x-y,-z
-x+y,y,z
x,x-y,z
-y,-x,z
y,x,z
x-y,-y,z
-x,-x+y,z
loop_
_atom_site_type_symbol
_atom_site_label
_atom_site_fract_x
_atom_site_fract_y
_atom_site_fract_z
Si Si1 0.075436 0.279934 0.424180
Si Si2 0.139634 0.726842 0.778271
Si Si3 0.391991 0.920198 0.324849
Si Si4 0.790802 0.716741 0.135619
Si Si5 0.461543 0.664209 0.865522
Si Si6 0.849654 0.285119 0.425789
Si Si7 0.176733 0.492982 0.000000
Si Si8 0.241272 0.896676 0.000000
O O1 0.073105 0.277148 0.500000
O O2 0.127613 0.255225 0.399409
O O3 0.103262 0.357397 0.402621
O O4 0.000000 0.231279 0.395241
O O5 0.207725 0.792276 0.748653
O O6 0.100924 0.666963 0.727514
O O7 0.091212 0.751180 0.810089
O O8 0.159967 0.695083 0.835808
O O9 0.452506 0.905012 0.304258
O O10 0.355006 0.874485 0.387250
O O11 0.424447 0.000000 0.340300
O O12 0.870698 0.741396 0.136917
O O13 0.780258 0.780258 0.153314
O O14 0.759679 0.693371 0.064934
O O15 0.434591 0.717296 0.861561
O O16 0.405117 0.594884 0.830847
O O17 0.465821 0.643776 0.937929
O O18 0.860789 0.304011 0.500000
O O19 0.770310 0.229691 0.412540
O O20 0.109032 0.418383 0.000000
O O21 0.241228 0.482455 0.000000
O O22 0.177556 0.822445 0.000000
#
# Coordination Sequence:
#
# PCOD8328416 Si02
#       8
#    24  24  24  24  24  24  12  12
#     4   8  13  22  39  64  92 121 153 190 231 273
#     4  10  20  35  53  70  94 132 174 213 250 288
#     4  11  23  36  51  74 104 135 165 198 243 299
#     4  10  19  32  53  78 103 131 166 209 252 296
#     4  10  18  28  44  66  93 125 165 214 265 312
#     4   9  18  34  56  78  98 123 158 201 247 294
#     4   9  15  26  42  64  92 122 163 210 259 308
#     4   9  15  28  47  72  99 127 167 209 254 300
#
# _framework density 18.014668
#
# number of rings (size 3 to 8) (size 9 to 14) (size 15 to 20)
#    0.000    2.429    1.429    3.143    0.000    1.143 
#    0.000    1.429    0.000    3.429    0.000    2.000 
#    0.000    1.714    0.000    0.000    0.000   29.714 
#
# Total GULP energy -2081566.911063 kJ/mol
# GULP energy per Si atom -12390.279233 kJ/mol
# Density = 1.797367 g / cm^3
# Si number density = 18.014668 Si / 1000 Ang^3
#
#
#
# Elastic Constant Matrix: (Units=GPa)
#
#
# Indices 1 2 3 4 5 6 
#
# 1 97.6582 50.2694 28.0372 0.0000 0.0000 0.0000
# 2 50.2694 97.6582 28.0372 0.0000 0.0000 0.0000
# 3 28.0372 28.0372 68.3995 0.0000 0.0000 0.0000
# 4 0.0000 0.0000 0.0000 14.9293 0.0000 0.0000
# 5 0.0000 0.0000 0.0000 0.0000 14.9293 0.0000
# 6 0.0000 0.0000 0.0000 0.0000 0.0000 23.6944
#
#
#
# Elastic Compliance Matrix: (Units=1/GPa)
#
#
# Indices 1 2 3 4 5 6 
#
# 1 0.014553 -0.006549 -0.003281 0.000000 0.000000 0.000000
# 2 -0.006549 0.014553 -0.003281 0.000000 0.000000 0.000000
# 3 -0.003281 -0.003281 0.017310 0.000000 0.000000 0.000000
# 4 0.000000 0.000000 0.000000 0.066982 0.000000 0.000000
# 5 0.000000 0.000000 0.000000 0.000000 0.066982 0.000000
# 6 0.000000 0.000000 0.000000 0.000000 0.000000 0.042204
#
#
# Mechanical properties :
#
#
# Convention : Reuss Voigt Hill
#
# Bulk Modulus (GPa) = 49.51969 52.93370 51.22669
# Shear Modulus (GPa) = 19.56667 21.20209 20.38438
#
# Velocity S-wave (km/s) = 3.29926 3.43437 3.36749
# Velocity P-wave (km/s) = 6.48550 6.72116 6.60438
#
# Compressibility (1/GPa) = 0.02019399
#
# Stress axis : x y z
#
# Youngs Moduli (GPa) = 68.71511 68.71511 57.77153
#
# Poissons Ratio (x) = 0.45003 0.18953
# Poissons Ratio (y) = 0.45003 0.18953
# Poissons Ratio (z) = 0.22544 0.22544
#
# Static dielectric constant tensor:
#      x y z
#    x 3.313250 0.000000 0.000000 
#    y 0.000000 3.313250 0.000000 
#    z 0.000000 0.000000 3.172830 
# 
# 
# High freq. dielectric constant tensor:
#      x y z
#    x 1.684450 0.000000 0.000000 
#    y 0.000000 1.684450 0.000000 
#    z 0.000000 0.000000 1.685190 
# 
# From -- ./inp_files/8058.got.cif
#   From: 2010.03.12/outbox.cif.g09.slc.cpg/sg191_5_cif.got.tgz:8058.got - 2010.04.01 12:09:02.
