data_PCOD8328779
_publ_section_title
;
Structure prediction by ZEFSAII (Michael W. Deem and Ramdas Pophale) SiO2 
 PCOD8328779
Probable space group: P 6/M M M
;
_chemical_formula_sum "Si O2"
_cell_formula_units_Z 132
_cell_length_a 18.188622
_cell_length_b 18.188622
_cell_length_c 28.079020
_cell_angle_alpha 90.000000
_cell_angle_beta 90.000000
_cell_angle_gamma 120.000000
_cell_volume 8044.742967
_symmetry_space_group_name_H-M "P 6/M M M"
_symmetry_group_IT_number 191
_symmetry_cell_setting 'hexagonal'
loop_
_space_group_symop_operation_xyz
x,y,z
x-y,x,z
-y,x-y,z
-x,-y,z
-x+y,-x,z
y,-x+y,z
x-y,-y,-z
-x,-x+y,-z
y,x,-z
-y,-x,-z
-x+y,y,-z
x,x-y,-z
-x,-y,-z
-x+y,-x,-z
y,-x+y,-z
x,y,-z
x-y,x,-z
-y,x-y,-z
-x+y,y,z
x,x-y,z
-y,-x,z
y,x,z
x-y,-y,z
-x,-x+y,z
loop_
_atom_site_type_symbol
_atom_site_label
_atom_site_fract_x
_atom_site_fract_y
_atom_site_fract_z
Si Si1 0.468710 0.100564 0.552983
Si Si2 0.504423 0.666544 0.715986
Si Si3 0.736441 0.097911 0.636318
Si Si4 0.372113 0.903836 0.079619
Si Si5 0.739929 0.100299 0.000000
Si Si6 0.333603 0.834515 0.821763
O O1 0.461360 0.131629 0.500000
O O2 0.568242 0.136483 0.565655
O O3 0.423908 0.131470 0.590714
O O4 0.421997 0.000000 0.554441
O O5 0.478430 0.739215 0.712226
O O6 0.423212 0.576789 0.701849
O O7 0.582204 0.685803 0.681657
O O8 0.537359 0.664497 0.769490
O O9 0.838346 0.161655 0.641805
O O10 0.714745 0.000000 0.631122
O O11 0.429215 0.858430 0.070840
O O12 0.350576 0.900694 0.135857
O O13 0.429078 0.000000 0.064122
O O14 0.290273 0.868057 0.046113
O O15 0.843082 0.156919 0.000000
O O16 0.710351 0.000000 0.000000
O O17 0.401430 0.802859 0.821414
O O18 0.243760 0.756241 0.834105
#
# Coordination Sequence:
#
# PCOD8328779 Si02
#       6
#    24  24  24  24  12  24
#     4   8  14  26  45  68  92 116 141 169 202 244
#     4   9  17  28  43  64  91 122 151 178 209 248
#     4  10  20  32  46  65  88 114 146 186 230 271
#     4   9  17  28  42  61  85 113 143 174 208 246
#     4  10  19  31  47  64  83 109 142 180 221 265
#     4   9  16  26  40  59  85 116 147 174 200 234
#
# _framework density 16.408231000000001
#
# number of rings (size 3 to 8) (size 9 to 14) (size 15 to 20)
#    0.000    2.909    0.000    2.273    0.000    4.727 
#    0.000    1.818    0.000    3.182    0.000    0.000 
#    0.000    0.000    0.000    4.545    0.000   23.636 
#
# Total GULP energy -1635332.060071 kJ/mol
# GULP energy per Si atom -12388.879243 kJ/mol
# Density = 1.637088 g / cm^3
# Si number density = 16.408231 Si / 1000 Ang^3
#
#
#
# Elastic Constant Matrix: (Units=GPa)
#
#
# Indices 1 2 3 4 5 6 
#
# 1 64.7520 33.3163 30.7064 0.0000 0.0000 0.0000
# 2 33.3163 64.7520 30.7064 0.0000 0.0000 0.0000
# 3 30.7064 30.7064 102.6716 0.0000 0.0000 0.0000
# 4 0.0000 0.0000 0.0000 18.1546 0.0000 0.0000
# 5 0.0000 0.0000 0.0000 0.0000 18.1546 0.0000
# 6 0.0000 0.0000 0.0000 0.0000 0.0000 15.7178
#
#
#
# Elastic Compliance Matrix: (Units=1/GPa)
#
#
# Indices 1 2 3 4 5 6 
#
# 1 0.022179 -0.009632 -0.003752 0.000000 0.000000 0.000000
# 2 -0.009632 0.022179 -0.003752 0.000000 0.000000 0.000000
# 3 -0.003752 -0.003752 0.011984 0.000000 0.000000 0.000000
# 4 0.000000 0.000000 0.000000 0.055082 0.000000 0.000000
# 5 0.000000 0.000000 0.000000 0.000000 0.055082 0.000000
# 6 0.000000 0.000000 0.000000 0.000000 0.000000 0.063622
#
#
# Mechanical properties :
#
#
# Convention : Reuss Voigt Hill
#
# Bulk Modulus (GPa) = 45.31397 46.84820 46.08108
# Shear Modulus (GPa) = 18.39866 19.56851 18.98358
#
# Velocity S-wave (km/s) = 3.35222 3.45716 3.40509
# Velocity P-wave (km/s) = 6.53144 6.67454 6.60338
#
# Compressibility (1/GPa) = 0.02206825
#
# Stress axis : x y z
#
# Youngs Moduli (GPa) = 45.08781 45.08781 83.44255
#
# Poissons Ratio (x) = 0.43429 0.31311
# Poissons Ratio (y) = 0.43429 0.31311
# Poissons Ratio (z) = 0.16919 0.16919
#
# Static dielectric constant tensor:
#      x y z
#    x 2.825560 0.000000 0.000000 
#    y 0.000000 2.825560 0.000000 
#    z 0.000000 0.000000 3.441670 
# 
# 
# High freq. dielectric constant tensor:
#      x y z
#    x 1.598500 0.000000 0.000000 
#    y 0.000000 1.598500 0.000000 
#    z 0.000000 0.000000 1.652620 
# 
# From -- ./inp_files/10540.got.cif
#   From: 2010.03.12/outbox.cif.g09.slc.cpg/sg191_6_cif.got.tgz:10540.got - 2010.04.01 12:09:02.
