data_PCOD8328506
_publ_section_title
;
Structure prediction by ZEFSAII (Michael W. Deem and Ramdas Pophale) SiO2 
 PCOD8328506
Probable space group: P 6/M M M
;
_chemical_formula_sum "Si O2"
_cell_formula_units_Z 96
_cell_length_a 16.856858
_cell_length_b 16.856858
_cell_length_c 23.877749
_cell_angle_alpha 90.000000
_cell_angle_beta 90.000000
_cell_angle_gamma 120.000000
_cell_volume 5875.938899
_symmetry_space_group_name_H-M "P 6/M M M"
_symmetry_group_IT_number 191
_symmetry_cell_setting 'hexagonal'
loop_
_space_group_symop_operation_xyz
x,y,z
x-y,x,z
-y,x-y,z
-x,-y,z
-x+y,-x,z
y,-x+y,z
x-y,-y,-z
-x,-x+y,-z
y,x,-z
-y,-x,-z
-x+y,y,-z
x,x-y,-z
-x,-y,-z
-x+y,-x,-z
y,-x+y,-z
x,y,-z
x-y,x,-z
-y,x-y,-z
-x+y,y,z
x,x-y,z
-y,-x,z
y,x,z
x-y,-y,z
-x,-x+y,z
loop_
_atom_site_type_symbol
_atom_site_label
_atom_site_fract_x
_atom_site_fract_y
_atom_site_fract_z
Si Si1 0.107324 0.553662 0.172454
Si Si2 0.391905 0.608096 0.938075
Si Si3 0.584171 0.792086 0.566090
Si Si4 0.607090 0.714277 0.766046
Si Si5 0.795106 0.897553 0.566372
Si Si6 0.639780 0.104346 0.351650
O O1 0.138448 0.569224 0.108280
O O2 0.140280 0.650386 0.202944
O O3 0.000000 0.500000 0.174072
O O4 0.437063 0.718532 0.931732
O O5 0.414889 0.585112 0.000000
O O6 0.569754 0.784877 0.500000
O O7 0.690126 0.845063 0.584366
O O8 0.535497 0.843498 0.592614
O O9 0.642210 0.821105 0.782834
O O10 0.682632 0.682632 0.780261
O O11 0.587188 0.706445 0.699998
O O12 0.844279 0.844279 0.591618
O O13 0.803997 0.901999 0.500000
O O14 0.569170 0.138340 0.333855
O O15 0.585061 0.000000 0.369597
#
# Coordination Sequence:
#
# PCOD8328506 Si02
#       6
#    12  12  12  24  12  24
#     4  10  18  29  49  77 103 132 174 219 257 297
#     4   8  16  29  43  65 102 143 179 208 239 293
#     4  11  22  35  50  69  90 120 156 189 232 299
#     4  10  19  33  53  77 103 128 164 212 257 302
#     4   9  17  30  49  72  94 114 142 182 227 280
#     4  10  20  36  53  69  92 119 150 193 242 292
#
# _framework density 16.337814999999999
#
# number of rings (size 3 to 8) (size 9 to 14) (size 15 to 20)
#    0.250    2.000    2.500    1.625    0.000    2.750 
#    1.500    2.500    0.000    0.250    0.000    0.000 
#    0.000    0.000    0.000    0.000    0.000    0.000 
#
# Total GULP energy -1189624.616720 kJ/mol
# GULP energy per Si atom -12391.923091 kJ/mol
# Density = 1.630063 g / cm^3
# Si number density = 16.337815 Si / 1000 Ang^3
#
#
#
# Elastic Constant Matrix: (Units=GPa)
#
#
# Indices 1 2 3 4 5 6 
#
# 1 68.1633 43.5735 15.2821 0.0000 0.0000 0.0000
# 2 43.5735 68.1633 15.2821 0.0000 0.0000 0.0000
# 3 15.2821 15.2821 74.4884 0.0000 0.0000 0.0000
# 4 0.0000 0.0000 0.0000 21.7499 0.0000 0.0000
# 5 0.0000 0.0000 0.0000 0.0000 21.7499 0.0000
# 6 0.0000 0.0000 0.0000 0.0000 0.0000 12.2949
#
#
#
# Elastic Compliance Matrix: (Units=1/GPa)
#
#
# Indices 1 2 3 4 5 6 
#
# 1 0.025075 -0.015593 -0.001945 0.000000 0.000000 0.000000
# 2 -0.015593 0.025075 -0.001945 0.000000 0.000000 0.000000
# 3 -0.001945 -0.001945 0.014223 0.000000 0.000000 0.000000
# 4 0.000000 0.000000 0.000000 0.045977 0.000000 0.000000
# 5 0.000000 0.000000 0.000000 0.000000 0.045977 0.000000
# 6 0.000000 0.000000 0.000000 0.000000 0.000000 0.081335
#
#
# Mechanical properties :
#
#
# Convention : Reuss Voigt Hill
#
# Bulk Modulus (GPa) = 39.36168 39.89893 39.63030
# Shear Modulus (GPa) = 17.53791 20.27075 18.90433
#
# Velocity S-wave (km/s) = 3.27992 3.52622 3.40529
# Velocity P-wave (km/s) = 6.20391 6.40727 6.30641
#
# Compressibility (1/GPa) = 0.02540542
#
# Stress axis : x y z
#
# Youngs Moduli (GPa) = 39.88106 39.88106 70.30824
#
# Poissons Ratio (x) = 0.62186 0.13677
# Poissons Ratio (y) = 0.62186 0.13677
# Poissons Ratio (z) = 0.07758 0.07758
#
# Static dielectric constant tensor:
#      x y z
#    x 3.109730 0.000000 0.000000 
#    y 0.000000 3.109730 0.000000 
#    z 0.000000 0.000000 2.859010 
# 
# 
# High freq. dielectric constant tensor:
#      x y z
#    x 1.620400 0.000000 0.000000 
#    y 0.000000 1.620400 0.000000 
#    z 0.000000 0.000000 1.606580 
# 
# From -- ./inp_files/8291.got.cif
#   From: 2010.03.12/outbox.cif.g09.slc.cpg/sg191_5_cif.got.tgz:8291.got - 2010.04.01 12:09:02.
