data_PCOD8328232
_publ_section_title
;
Structure prediction by ZEFSAII (Michael W. Deem and Ramdas Pophale) SiO2 
 PCOD8328232
Probable space group: P 6/M M M
;
_chemical_formula_sum "Si O2"
_cell_formula_units_Z 192
_cell_length_a 24.921562
_cell_length_b 24.921562
_cell_length_c 23.125405
_cell_angle_alpha 90.000000
_cell_angle_beta 90.000000
_cell_angle_gamma 120.000000
_cell_volume 12438.571215
_symmetry_space_group_name_H-M "P 6/M M M"
_symmetry_group_IT_number 191
_symmetry_cell_setting 'hexagonal'
loop_
_space_group_symop_operation_xyz
x,y,z
x-y,x,z
-y,x-y,z
-x,-y,z
-x+y,-x,z
y,-x+y,z
x-y,-y,-z
-x,-x+y,-z
y,x,-z
-y,-x,-z
-x+y,y,-z
x,x-y,-z
-x,-y,-z
-x+y,-x,-z
y,-x+y,-z
x,y,-z
x-y,x,-z
-y,x-y,-z
-x+y,y,z
x,x-y,z
-y,-x,z
y,x,z
x-y,-y,z
-x,-x+y,z
loop_
_atom_site_type_symbol
_atom_site_label
_atom_site_fract_x
_atom_site_fract_y
_atom_site_fract_z
Si Si1 0.069288 0.357626 0.225882
Si Si2 0.545136 0.835700 0.855444
Si Si3 0.931051 0.742966 0.592961
Si Si4 0.306453 0.377065 0.564306
Si Si5 0.597052 0.070364 0.068141
Si Si6 0.667998 0.455237 0.251573
Si Si7 0.819676 0.754587 0.723998
Si Si8 0.432072 0.278593 0.329938
O O1 0.113630 0.389880 0.171685
O O2 0.063790 0.291269 0.229037
O O3 0.098860 0.392551 0.285328
O O4 0.000000 0.348279 0.218150
O O5 0.547754 0.773877 0.876209
O O6 0.533186 0.872746 0.906183
O O7 0.493242 0.816940 0.806768
O O8 0.881045 0.762089 0.571802
O O9 0.920979 0.682678 0.559573
O O10 0.920458 0.723431 0.660471
O O11 0.000000 0.800554 0.581001
O O12 0.323828 0.406773 0.500000
O O13 0.355374 0.355374 0.584278
O O14 0.305262 0.426873 0.607985
O O15 0.540433 0.080866 0.086032
O O16 0.579176 0.000000 0.088117
O O17 0.606532 0.075160 0.000000
O O18 0.713316 0.426631 0.248995
O O19 0.597706 0.402295 0.256053
O O20 0.683475 0.497125 0.308802
O O21 0.887562 0.775124 0.744826
O O22 0.817727 0.817727 0.722389
O O23 0.409913 0.204957 0.332034
#
# Coordination Sequence:
#
# PCOD8328232 Si02
#       8
#    24  24  24  24  24  24  24  24
#     4  10  17  26  41  60  87 118 143 173 214 261
#     4  10  19  29  45  71  97 119 148 186 227 266
#     4   9  16  25  37  53  74 101 132 165 202 246
#     4  10  19  29  42  61  84 109 134 162 205 262
#     4   9  18  33  51  68  90 125 165 198 227 265
#     4   9  18  31  48  68  90 115 140 170 209 255
#     4   9  15  23  36  52  73 102 133 165 203 248
#     4  10  18  28  43  64  87 109 138 175 214 253
#
# _framework density 15.435855999999999
#
# number of rings (size 3 to 8) (size 9 to 14) (size 15 to 20)
#    0.000    2.500    1.250    3.875    0.000    1.250 
#    0.000    0.000    0.000    8.375    0.000    2.625 
#    0.000    1.000    0.000    3.125    0.000    3.250 
#
# Total GULP energy -2378718.688308 kJ/mol
# GULP energy per Si atom -12389.159835 kJ/mol
# Density = 1.540072 g / cm^3
# Si number density = 15.435856 Si / 1000 Ang^3
#
#
#
# Elastic Constant Matrix: (Units=GPa)
#
#
# Indices 1 2 3 4 5 6 
#
# 1 82.8296 40.0546 32.9506 0.0000 0.0000 0.0000
# 2 40.0546 82.8296 32.9506 0.0000 0.0000 0.0000
# 3 32.9506 32.9506 59.3436 0.0000 0.0000 0.0000
# 4 0.0000 0.0000 0.0000 17.2582 0.0000 0.0000
# 5 0.0000 0.0000 0.0000 0.0000 17.2582 0.0000
# 6 0.0000 0.0000 0.0000 0.0000 0.0000 21.3875
#
#
#
# Elastic Compliance Matrix: (Units=1/GPa)
#
#
# Indices 1 2 3 4 5 6 
#
# 1 0.017483 -0.005895 -0.006435 0.000000 0.000000 0.000000
# 2 -0.005895 0.017483 -0.006435 0.000000 0.000000 0.000000
# 3 -0.006435 -0.006435 0.023997 0.000000 0.000000 0.000000
# 4 0.000000 0.000000 0.000000 0.057944 0.000000 0.000000
# 5 0.000000 0.000000 0.000000 0.000000 0.057944 0.000000
# 6 0.000000 0.000000 0.000000 0.000000 0.000000 0.046756
#
#
# Mechanical properties :
#
#
# Convention : Reuss Voigt Hill
#
# Bulk Modulus (GPa) = 46.65167 48.54604 47.59886
# Shear Modulus (GPa) = 18.77726 19.11723 18.94724
#
# Velocity S-wave (km/s) = 3.49158 3.52304 3.50735
# Velocity P-wave (km/s) = 6.82227 6.93308 6.87790
#
# Compressibility (1/GPa) = 0.02143546
#
# Stress axis : x y z
#
# Youngs Moduli (GPa) = 57.19739 57.19739 41.67262
#
# Poissons Ratio (x) = 0.33717 0.26814
# Poissons Ratio (y) = 0.33717 0.26814
# Poissons Ratio (z) = 0.36804 0.36804
#
# Static dielectric constant tensor:
#      x y z
#    x 2.967090 0.000000 0.000000 
#    y 0.000000 2.967090 0.000000 
#    z 0.000000 0.000000 2.799820 
# 
# 
# High freq. dielectric constant tensor:
#      x y z
#    x 1.583260 0.000000 0.000000 
#    y 0.000000 1.583260 0.000000 
#    z 0.000000 0.000000 1.569730 
# 
# From -- ./inp_files/9337.got.cif
#   From: 2010.03.12/outbox.cif.g09.slc.cpg/sg191_5_cif.got.tgz:9337.got - 2010.04.01 12:09:02.
