data_PCOD8328052
_publ_section_title
;
Structure prediction by ZEFSAII (Michael W. Deem and Ramdas Pophale) SiO2 
 PCOD8328052
Probable space group: P -6 2 C
;
_chemical_formula_sum "Si O2"
_cell_formula_units_Z 72
_cell_length_a 21.229634
_cell_length_b 21.229634
_cell_length_c 9.016873
_cell_angle_alpha 90.000000
_cell_angle_beta 90.000000
_cell_angle_gamma 120.000000
_cell_volume 3519.424058
_symmetry_space_group_name_H-M "P -6 2 C"
_symmetry_group_IT_number 190
_symmetry_cell_setting 'hexagonal'
loop_
_space_group_symop_operation_xyz
x,y,z
-x+y,-x,1/2-z
-y,x-y,z
x,y,1/2-z
-x+y,-x,z
-y,x-y,1/2-z
x-y,-y,-z
-x,-x+y,-z
y,x,-z
y,x,1/2+z
x-y,-y,1/2+z
-x,-x+y,1/2+z
loop_
_atom_site_type_symbol
_atom_site_label
_atom_site_fract_x
_atom_site_fract_y
_atom_site_fract_z
Si Si1 0.539867 0.701129 0.074779
Si Si2 0.780184 0.704672 0.579246
Si Si3 0.921955 0.452570 0.423238
Si Si4 0.077461 0.668896 0.922491
Si Si5 0.573923 0.286434 0.082215
Si Si6 0.287474 0.211395 0.922262
O O1 0.536940 0.695249 0.250000
O O2 0.622402 0.739966 0.016124
O O3 0.495255 0.623132 0.000469
O O4 0.496949 0.743330 0.023399
O O5 0.759925 0.701888 0.750000
O O6 0.754465 0.754465 0.500000
O O7 0.867017 0.741147 0.555964
O O8 0.931847 0.441614 0.250000
O O9 0.885074 0.504102 0.442284
O O10 0.000000 0.490032 0.500000
O O11 0.069082 0.681599 0.750000
O O12 0.115935 0.746753 0.006101
O O13 0.000000 0.626880 0.000000
O O14 0.626676 0.250923 0.056206
O O15 0.544161 0.271069 0.250000
O O16 0.293647 0.231739 0.750000
O O17 0.231684 0.231684 0.000000
#
# Coordination Sequence:
#
# PCOD8328052 Si02
#       6
#    12  12  12  12  12  12
#     4  11  22  35  54  80 110 150 196 240 292 344
#     4  10  24  42  59  85 119 152 188 232 276 335
#     4  10  20  33  49  73 108 149 195 244 291 341
#     4   9  17  30  50  78 109 142 182 227 277 328
#     4   8  18  37  56  75 105 143 191 248 298 343
#     4  10  20  37  61  89 119 146 182 229 281 337
#
# _framework density 20.457892999999999
#
# number of rings (size 3 to 8) (size 9 to 14) (size 15 to 20)
#    0.333    2.000    0.000    3.500    0.000    8.000 
#    0.000    3.333    0.000    0.333    0.000    0.000 
#    0.000    0.000    0.000    0.000    0.000    0.000 
#
# Total GULP energy -892134.381165 kJ/mol
# GULP energy per Si atom -12390.755294 kJ/mol
# Density = 2.041133 g / cm^3
# Si number density = 20.457893 Si / 1000 Ang^3
#
#
#
# Elastic Constant Matrix: (Units=GPa)
#
#
# Indices 1 2 3 4 5 6 
#
# 1 91.2061 22.4489 39.2056 0.0000 0.0000 0.0000
# 2 22.4489 91.2061 39.2056 0.0000 0.0000 0.0000
# 3 39.2056 39.2056 109.4561 0.0000 0.0000 0.0000
# 4 0.0000 0.0000 0.0000 27.4344 0.0000 0.0000
# 5 0.0000 0.0000 0.0000 0.0000 27.4344 0.0000
# 6 0.0000 0.0000 0.0000 0.0000 0.0000 34.3786
#
#
#
# Elastic Compliance Matrix: (Units=1/GPa)
#
#
# Indices 1 2 3 4 5 6 
#
# 1 0.013115 -0.001429 -0.004186 0.000000 0.000000 0.000000
# 2 -0.001429 0.013115 -0.004186 0.000000 0.000000 0.000000
# 3 -0.004186 -0.004186 0.012135 0.000000 0.000000 0.000000
# 4 0.000000 0.000000 0.000000 0.036451 0.000000 0.000000
# 5 0.000000 0.000000 0.000000 0.000000 0.036451 0.000000
# 6 0.000000 0.000000 0.000000 0.000000 0.000000 0.029088
#
#
# Mechanical properties :
#
#
# Convention : Reuss Voigt Hill
#
# Bulk Modulus (GPa) = 53.29359 54.84314 54.06836
# Shear Modulus (GPa) = 30.08245 30.58338 30.33292
#
# Velocity S-wave (km/s) = 3.83881 3.87064 3.85476
# Velocity P-wave (km/s) = 6.76429 6.84411 6.80432
#
# Compressibility (1/GPa) = 0.01876398
#
# Stress axis : x y z
#
# Youngs Moduli (GPa) = 76.24753 76.24753 82.40798
#
# Poissons Ratio (x) = 0.10894 0.34495
# Poissons Ratio (y) = 0.10894 0.34495
# Poissons Ratio (z) = 0.31917 0.31917
#
# Static dielectric constant tensor:
#      x y z
#    x 3.050890 0.000000 0.000000 
#    y 0.000000 3.050890 0.000000 
#    z 0.000000 0.000000 3.698740 
# 
# 
# High freq. dielectric constant tensor:
#      x y z
#    x 1.792850 0.000000 0.000000 
#    y 0.000000 1.792850 0.000000 
#    z 0.000000 0.000000 1.800410 
# 
# From -- ./inp_files/1232.got.cif
#   From: 2010.06.25/outbox.cif.g09.slc.cpg/sg190_1_cif.got.tgz:1232.got - 2010.06.28 13:08:06.
