data_PCOD8328787
_publ_section_title
;
Structure prediction by ZEFSAII (Michael W. Deem and Ramdas Pophale) SiO2 
 PCOD8328787
Probable space group: P 6/M M M
;
_chemical_formula_sum "Si O2"
_cell_formula_units_Z 132
_cell_length_a 17.896950
_cell_length_b 17.896950
_cell_length_c 29.657964
_cell_angle_alpha 90.000000
_cell_angle_beta 90.000000
_cell_angle_gamma 120.000000
_cell_volume 8226.782488
_symmetry_space_group_name_H-M "P 6/M M M"
_symmetry_group_IT_number 191
_symmetry_cell_setting 'hexagonal'
loop_
_space_group_symop_operation_xyz
x,y,z
x-y,x,z
-y,x-y,z
-x,-y,z
-x+y,-x,z
y,-x+y,z
x-y,-y,-z
-x,-x+y,-z
y,x,-z
-y,-x,-z
-x+y,y,-z
x,x-y,-z
-x,-y,-z
-x+y,-x,-z
y,-x+y,-z
x,y,-z
x-y,x,-z
-y,x-y,-z
-x+y,y,z
x,x-y,z
-y,-x,z
y,x,z
x-y,-y,z
-x,-x+y,z
loop_
_atom_site_type_symbol
_atom_site_label
_atom_site_fract_x
_atom_site_fract_y
_atom_site_fract_z
Si Si1 0.261414 0.903043 0.292500
Si Si2 0.841380 0.331962 0.111441
Si Si3 0.902507 0.265232 0.189978
Si Si4 0.898271 0.367132 0.370578
Si Si5 0.588553 0.588553 0.050449
Si Si6 0.737829 0.097007 0.550928
O O1 0.158431 0.841570 0.297998
O O2 0.290357 0.897993 0.241687
O O3 0.308811 0.868941 0.325750
O O4 0.284258 0.000000 0.304974
O O5 0.829549 0.414775 0.112316
O O6 0.750987 0.249013 0.097585
O O7 0.873127 0.321385 0.160544
O O8 0.913407 0.341121 0.075643
O O9 0.837146 0.162855 0.181391
O O10 0.000000 0.288135 0.177724
O O11 0.854643 0.427322 0.370388
O O12 0.869353 0.309880 0.415791
O O13 0.000000 0.426775 0.370367
O O14 0.500000 0.500000 0.049091
O O15 0.622215 0.622215 0.000000
O O16 0.707936 0.101002 0.500000
O O17 0.840783 0.159218 0.556224
O O18 0.715330 0.000000 0.563382
#
# Coordination Sequence:
#
# PCOD8328787 Si02
#       6
#    24  24  24  24  12  24
#     4   9  17  29  46  68  93 121 153 187 224 267
#     4  10  19  31  47  68  94 123 155 191 232 276
#     4   9  17  29  46  68  93 122 155 191 230 272
#     4   9  17  28  42  62  85 109 142 184 226 267
#     4   9  18  32  48  66  90 120 153 189 226 266
#     4   9  17  29  46  67  90 117 150 187 225 266
#
# _framework density 16.045155000000001
#
# number of rings (size 3 to 8) (size 9 to 14) (size 15 to 20)
#    0.000    2.818    0.909    0.727    0.000    1.455 
#    0.000    3.636    0.000    4.545    0.000    3.818 
#    0.000    4.364    0.000    0.364    0.000    8.273 
#
# Total GULP energy -1635996.750968 kJ/mol
# GULP energy per Si atom -12393.914780 kJ/mol
# Density = 1.600864 g / cm^3
# Si number density = 16.045155 Si / 1000 Ang^3
#
#
#
# Elastic Constant Matrix: (Units=GPa)
#
#
# Indices 1 2 3 4 5 6 
#
# 1 98.0950 58.4925 50.9806 0.0000 0.0000 0.0000
# 2 58.4925 98.0950 50.9806 0.0000 0.0000 0.0000
# 3 50.9806 50.9806 103.6920 0.0000 0.0000 0.0000
# 4 0.0000 0.0000 0.0000 19.8745 0.0000 0.0000
# 5 0.0000 0.0000 0.0000 0.0000 19.8745 0.0000
# 6 0.0000 0.0000 0.0000 0.0000 0.0000 19.8013
#
#
#
# Elastic Compliance Matrix: (Units=1/GPa)
#
#
# Indices 1 2 3 4 5 6 
#
# 1 0.017322 -0.007929 -0.004618 0.000000 0.000000 0.000000
# 2 -0.007929 0.017322 -0.004618 0.000000 0.000000 0.000000
# 3 -0.004618 -0.004618 0.014185 0.000000 0.000000 0.000000
# 4 0.000000 0.000000 0.000000 0.050316 0.000000 0.000000
# 5 0.000000 0.000000 0.000000 0.000000 0.050316 0.000000
# 6 0.000000 0.000000 0.000000 0.000000 0.000000 0.050502
#
#
# Mechanical properties :
#
#
# Convention : Reuss Voigt Hill
#
# Bulk Modulus (GPa) = 68.97152 68.97661 68.97406
# Shear Modulus (GPa) = 20.90942 21.20525 21.05734
#
# Velocity S-wave (km/s) = 3.61385 3.63932 3.62661
# Velocity P-wave (km/s) = 7.77769 7.79371 7.78570
#
# Compressibility (1/GPa) = 0.01449874
#
# Stress axis : x y z
#
# Youngs Moduli (GPa) = 57.72955 57.72955 70.49614
#
# Poissons Ratio (x) = 0.45772 0.32557
# Poissons Ratio (y) = 0.45772 0.32557
# Poissons Ratio (z) = 0.26661 0.26661
#
# Static dielectric constant tensor:
#      x y z
#    x 3.039210 0.000000 0.000000 
#    y 0.000000 3.039210 0.000000 
#    z 0.000000 0.000000 3.253740 
# 
# 
# High freq. dielectric constant tensor:
#      x y z
#    x 1.598900 0.000000 0.000000 
#    y 0.000000 1.598900 0.000000 
#    z 0.000000 0.000000 1.628470 
# 
# From -- ./inp_files/10496.got.cif
#   From: 2010.03.12/outbox.cif.g09.slc.cpg/sg191_6_cif.got.tgz:10496.got - 2010.04.01 12:09:02.
