data_PCOD8328384
_publ_section_title
;
Structure prediction by ZEFSAII (Michael W. Deem and Ramdas Pophale) SiO2 
 PCOD8328384
Probable space group: P 6/M M M
;
_chemical_formula_sum "Si O2"
_cell_formula_units_Z 180
_cell_length_a 21.114577
_cell_length_b 21.114577
_cell_length_c 31.478780
_cell_angle_alpha 90.000000
_cell_angle_beta 90.000000
_cell_angle_gamma 120.000000
_cell_volume 12153.833846
_symmetry_space_group_name_H-M "P 6/M M M"
_symmetry_group_IT_number 191
_symmetry_cell_setting 'hexagonal'
loop_
_space_group_symop_operation_xyz
x,y,z
x-y,x,z
-y,x-y,z
-x,-y,z
-x+y,-x,z
y,-x+y,z
x-y,-y,-z
-x,-x+y,-z
y,x,-z
-y,-x,-z
-x+y,y,-z
x,x-y,-z
-x,-y,-z
-x+y,-x,-z
y,-x+y,-z
x,y,-z
x-y,x,-z
-y,x-y,-z
-x+y,y,z
x,x-y,z
-y,-x,z
y,x,z
x-y,-y,z
-x,-x+y,z
loop_
_atom_site_type_symbol
_atom_site_label
_atom_site_fract_x
_atom_site_fract_y
_atom_site_fract_z
Si Si1 0.547240 0.847663 0.245866
Si Si2 0.383702 0.916968 0.920621
Si Si3 0.696798 0.778424 0.547745
Si Si4 0.516811 0.334379 0.842406
Si Si5 0.666143 0.484977 0.000000
Si Si6 0.083086 0.387395 0.625743
Si Si7 0.917629 0.692839 0.290571
Si Si8 0.664322 0.476640 0.330528
O O1 0.533022 0.766511 0.244424
O O2 0.519017 0.861271 0.201326
O O3 0.632680 0.904979 0.254601
O O4 0.499516 0.852167 0.284602
O O5 0.462175 0.924349 0.921840
O O6 0.340480 0.874312 0.878428
O O7 0.396392 0.000000 0.922234
O O8 0.336277 0.867322 0.959926
O O9 0.666229 0.752651 0.500000
O O10 0.730463 0.865232 0.552741
O O11 0.761945 0.761945 0.558307
O O12 0.630537 0.735891 0.580413
O O13 0.515704 0.257852 0.846867
O O14 0.600690 0.399311 0.845766
O O15 0.598367 0.401634 0.000000
O O16 0.741133 0.482265 0.000000
O O17 0.097446 0.343819 0.663036
O O18 0.131796 0.473773 0.632919
O O19 0.000000 0.368655 0.625748
O O20 0.861442 0.722883 0.283794
O O21 0.000000 0.760197 0.286310
O O22 0.744850 0.489699 0.331708
O O23 0.606947 0.393054 0.340280
#
# Coordination Sequence:
#
# PCOD8328384 Si02
#       8
#    24  24  24  24  12  24  24  24
#     4   8  16  28  40  57  81 108 136 166 199 238
#     4   9  18  30  42  56  77 107 137 164 198 243
#     4   9  16  26  42  63  84 105 130 161 197 236
#     4  10  18  28  42  61  85 110 138 171 209 249
#     4  10  18  29  45  63  80  97 126 170 217 256
#     4   9  17  29  44  61  81 104 132 167 202 236
#     4   9  16  27  43  61  81 106 136 168 202 239
#     4  10  18  28  42  60  83 109 137 168 205 249
#
# _framework density 14.810142000000001
#
# number of rings (size 3 to 8) (size 9 to 14) (size 15 to 20)
#    0.000    2.800    0.000    3.333    0.000    1.600 
#    0.000    2.667    0.000    3.067    0.000    2.800 
#    0.000    4.267    0.000    0.133    0.000    0.000 
#
# Total GULP energy -2230940.074669 kJ/mol
# GULP energy per Si atom -12394.111526 kJ/mol
# Density = 1.477643 g / cm^3
# Si number density = 14.810142 Si / 1000 Ang^3
#
#
#
# Elastic Constant Matrix: (Units=GPa)
#
#
# Indices 1 2 3 4 5 6 
#
# 1 67.6396 34.5696 38.4136 0.0000 0.0000 0.0000
# 2 34.5696 67.6396 38.4136 0.0000 0.0000 0.0000
# 3 38.4136 38.4136 104.0433 0.0000 0.0000 0.0000
# 4 0.0000 0.0000 0.0000 19.2585 0.0000 0.0000
# 5 0.0000 0.0000 0.0000 0.0000 19.2585 0.0000
# 6 0.0000 0.0000 0.0000 0.0000 0.0000 16.5350
#
#
#
# Elastic Compliance Matrix: (Units=1/GPa)
#
#
# Indices 1 2 3 4 5 6 
#
# 1 0.021890 -0.008348 -0.005000 0.000000 0.000000 0.000000
# 2 -0.008348 0.021890 -0.005000 0.000000 0.000000 0.000000
# 3 -0.005000 -0.005000 0.013303 0.000000 0.000000 0.000000
# 4 0.000000 0.000000 0.000000 0.051925 0.000000 0.000000
# 5 0.000000 0.000000 0.000000 0.000000 0.051925 0.000000
# 6 0.000000 0.000000 0.000000 0.000000 0.000000 0.060478
#
#
# Mechanical properties :
#
#
# Convention : Reuss Voigt Hill
#
# Bulk Modulus (GPa) = 49.04817 51.34625 50.19721
# Shear Modulus (GPa) = 18.87472 19.53877 19.20675
#
# Velocity S-wave (km/s) = 3.57381 3.63613 3.60511
# Velocity P-wave (km/s) = 7.08656 7.23696 7.16215
#
# Compressibility (1/GPa) = 0.02038812
#
# Stress axis : x y z
#
# Youngs Moduli (GPa) = 45.68203 45.68203 75.16899
#
# Poissons Ratio (x) = 0.38137 0.37583
# Poissons Ratio (y) = 0.38137 0.37583
# Poissons Ratio (z) = 0.22840 0.22840
#
# Static dielectric constant tensor:
#      x y z
#    x 2.756450 0.000000 0.000000 
#    y 0.000000 2.756450 0.000000 
#    z 0.000000 0.000000 3.086190 
# 
# 
# High freq. dielectric constant tensor:
#      x y z
#    x 1.546920 0.000000 0.000000 
#    y 0.000000 1.546920 0.000000 
#    z 0.000000 0.000000 1.570020 
# 
# From -- ./inp_files/10886.got.cif
#   From: 2010.03.12/outbox.cif.g09.slc.cpg/sg191_6_cif.got.tgz:10886.got - 2010.04.01 12:09:02.
