data_PCOD8328324
_publ_section_title
;
Structure prediction by ZEFSAII (Michael W. Deem and Ramdas Pophale) SiO2 
 PCOD8328324
Probable space group: P 6/M M M
;
_chemical_formula_sum "Si O2"
_cell_formula_units_Z 120
_cell_length_a 18.567272
_cell_length_b 18.567272
_cell_length_c 25.721002
_cell_angle_alpha 90.000000
_cell_angle_beta 90.000000
_cell_angle_gamma 120.000000
_cell_volume 7679.177640
_symmetry_space_group_name_H-M "P 6/M M M"
_symmetry_group_IT_number 191
_symmetry_cell_setting 'hexagonal'
loop_
_space_group_symop_operation_xyz
x,y,z
x-y,x,z
-y,x-y,z
-x,-y,z
-x+y,-x,z
y,-x+y,z
x-y,-y,-z
-x,-x+y,-z
y,x,-z
-y,-x,-z
-x+y,y,-z
x,x-y,-z
-x,-y,-z
-x+y,-x,-z
y,-x+y,-z
x,y,-z
x-y,x,-z
-y,x-y,-z
-x+y,y,z
x,x-y,z
-y,-x,z
y,x,z
x-y,-y,z
-x,-x+y,z
loop_
_atom_site_type_symbol
_atom_site_label
_atom_site_fract_x
_atom_site_fract_y
_atom_site_fract_z
Si Si1 0.096996 0.629706 0.605610
Si Si2 0.262510 0.900964 0.699422
Si Si3 0.367631 0.460232 0.000000
Si Si4 0.831346 0.499254 0.106089
Si Si5 0.497040 0.668658 0.500000
Si Si6 0.904498 0.531272 0.786339
O O1 0.132679 0.566340 0.616841
O O2 0.119162 0.695021 0.651667
O O3 0.133530 0.682869 0.552703
O O4 0.000000 0.575105 0.598095
O O5 0.161420 0.838581 0.696179
O O6 0.292516 0.871292 0.750144
O O7 0.289044 0.000000 0.700853
O O8 0.315144 0.451376 0.948156
O O9 0.383225 0.383225 0.000000
O O10 0.454068 0.545933 0.000000
O O11 0.745828 0.491657 0.122900
O O12 0.815983 0.407992 0.097405
O O13 0.894975 0.546807 0.152960
O O14 0.425831 0.574170 0.500000
O O15 0.459853 0.729926 0.500000
O O16 0.861977 0.430989 0.775569
O O17 0.000000 0.570497 0.772493
#
# Coordination Sequence:
#
# PCOD8328324 Si02
#       6
#    24  24  12  24  12  24
#     4   9  17  29  45  63  83 110 143 177 212 251
#     4  10  19  31  47  66  87 111 142 179 218 259
#     4   9  17  28  40  52  68  95 132 170 202 234
#     4  10  18  27  39  56  79 104 131 163 201 242
#     4  10  18  27  39  57  84 115 145 173 203 240
#     4   9  17  29  45  63  83 109 139 169 201 242
#
# _framework density 15.626674
#
# number of rings (size 3 to 8) (size 9 to 14) (size 15 to 20)
#    0.000    2.500    0.000    3.300    0.000    6.000 
#    0.000    1.000    0.000    5.800    0.000    0.000 
#    0.000    0.000    0.000    0.000    0.000   20.800 
#
# Total GULP energy -1486795.234563 kJ/mol
# GULP energy per Si atom -12389.960288 kJ/mol
# Density = 1.559111 g / cm^3
# Si number density = 15.626674 Si / 1000 Ang^3
#
#
#
# Elastic Constant Matrix: (Units=GPa)
#
#
# Indices 1 2 3 4 5 6 
#
# 1 55.5605 28.6925 28.3448 0.0000 0.0000 0.0000
# 2 28.6925 55.5605 28.3448 0.0000 0.0000 0.0000
# 3 28.3448 28.3448 86.5930 0.0000 0.0000 0.0000
# 4 0.0000 0.0000 0.0000 12.8898 0.0000 0.0000
# 5 0.0000 0.0000 0.0000 0.0000 12.8898 0.0000
# 6 0.0000 0.0000 0.0000 0.0000 0.0000 13.4340
#
#
#
# Elastic Compliance Matrix: (Units=1/GPa)
#
#
# Indices 1 2 3 4 5 6 
#
# 1 0.026220 -0.010999 -0.004983 0.000000 0.000000 0.000000
# 2 -0.010999 0.026220 -0.004983 0.000000 0.000000 0.000000
# 3 -0.004983 -0.004983 0.014810 0.000000 0.000000 0.000000
# 4 0.000000 0.000000 0.000000 0.077581 0.000000 0.000000
# 5 0.000000 0.000000 0.000000 0.000000 0.077581 0.000000
# 6 0.000000 0.000000 0.000000 0.000000 0.000000 0.074438
#
#
# Mechanical properties :
#
#
# Convention : Reuss Voigt Hill
#
# Bulk Modulus (GPa) = 39.48961 40.94203 40.21582
# Shear Modulus (GPa) = 14.40013 15.33150 14.86582
#
# Velocity S-wave (km/s) = 3.03893 3.13567 3.08768
# Velocity P-wave (km/s) = 6.13506 6.27430 6.20507
#
# Compressibility (1/GPa) = 0.02532311
#
# Stress axis : x y z
#
# Youngs Moduli (GPa) = 38.13851 38.13851 67.52122
#
# Poissons Ratio (x) = 0.41948 0.33642
# Poissons Ratio (y) = 0.41948 0.33642
# Poissons Ratio (z) = 0.19003 0.19003
#
# Static dielectric constant tensor:
#      x y z
#    x 2.817680 0.000000 0.000000 
#    y 0.000000 2.817680 0.000000 
#    z 0.000000 0.000000 3.319950 
# 
# 
# High freq. dielectric constant tensor:
#      x y z
#    x 1.568780 0.000000 0.000000 
#    y 0.000000 1.568780 0.000000 
#    z 0.000000 0.000000 1.622300 
# 
# From -- ./inp_files/9559.got.cif
#   From: 2010.03.12/outbox.cif.g09.slc.cpg/sg191_5_cif.got.tgz:9559.got - 2010.04.01 12:09:02.
