data_PCOD8328852
_publ_section_title
;
Structure prediction by ZEFSAII (Michael W. Deem and Ramdas Pophale) SiO2 
 PCOD8328852
Probable space group: P 6/M M M
;
_chemical_formula_sum "Si O2"
_cell_formula_units_Z 108
_cell_length_a 31.260147
_cell_length_b 31.260147
_cell_length_c 7.864105
_cell_angle_alpha 90.000000
_cell_angle_beta 90.000000
_cell_angle_gamma 120.000000
_cell_volume 6655.213114
_symmetry_space_group_name_H-M "P 6/M M M"
_symmetry_group_IT_number 191
_symmetry_cell_setting 'hexagonal'
loop_
_space_group_symop_operation_xyz
x,y,z
x-y,x,z
-y,x-y,z
-x,-y,z
-x+y,-x,z
y,-x+y,z
x-y,-y,-z
-x,-x+y,-z
y,x,-z
-y,-x,-z
-x+y,y,-z
x,x-y,-z
-x,-y,-z
-x+y,-x,-z
y,-x+y,-z
x,y,-z
x-y,x,-z
-y,x-y,-z
-x+y,y,z
x,x-y,z
-y,-x,z
y,x,z
x-y,-y,z
-x,-x+y,z
loop_
_atom_site_type_symbol
_atom_site_label
_atom_site_fract_x
_atom_site_fract_y
_atom_site_fract_z
Si Si1 0.800600 0.499758 0.310651
Si Si2 0.795723 0.850479 0.700580
Si Si3 0.148385 0.394115 0.202510
Si Si4 0.768012 0.434038 0.000000
Si Si5 0.701634 0.945753 0.803250
O O1 0.806179 0.482466 0.500000
O O2 0.750662 0.501323 0.294129
O O3 0.845464 0.555006 0.276218
O O4 0.799458 0.462114 0.168392
O O5 0.788904 0.845347 0.500000
O O6 0.811597 0.905799 0.761749
O O7 0.837697 0.837697 0.760333
O O8 0.743371 0.812774 0.782865
O O9 0.192894 0.385787 0.265110
O O10 0.096954 0.349550 0.277095
O O11 0.148318 0.396424 0.000000
O O12 0.715427 0.430853 0.000000
O O13 0.758507 0.379254 0.000000
O O14 0.720273 0.000000 0.718485
O O15 0.692314 0.949162 0.000000
#
# Coordination Sequence:
#
# PCOD8328852 Si02
#       5
#    24  24  24  12  24
#     4   9  17  29  45  65  89 118 153 190 224 261
#     4   9  17  28  40  54  75 104 137 174 217 265
#     4   9  15  25  41  59  83 117 150 179 215 259
#     4  10  19  32  48  68  95 125 155 187 222 259
#     4   9  17  27  40  61  88 114 140 172 211 259
#
# _framework density 16.227879000000001
#
# number of rings (size 3 to 8) (size 9 to 14) (size 15 to 20)
#    0.000    2.889    1.111    0.778    0.000    2.667 
#    0.000    2.222    0.000    1.556    0.000    1.556 
#    0.000    1.778    0.000    7.556    0.000    5.778 
#
# Total GULP energy -1338447.178499 kJ/mol
# GULP energy per Si atom -12393.029431 kJ/mol
# Density = 1.619094 g / cm^3
# Si number density = 16.227879 Si / 1000 Ang^3
#
#
#
# Elastic Constant Matrix: (Units=GPa)
#
#
# Indices 1 2 3 4 5 6 
#
# 1 86.8560 38.2698 30.5912 0.0000 0.0000 0.0000
# 2 38.2698 86.8560 30.5912 0.0000 0.0000 0.0000
# 3 30.5912 30.5912 59.1797 0.0000 0.0000 0.0000
# 4 0.0000 0.0000 0.0000 12.4454 0.0000 0.0000
# 5 0.0000 0.0000 0.0000 0.0000 12.4454 0.0000
# 6 0.0000 0.0000 0.0000 0.0000 0.0000 24.2931
#
#
#
# Elastic Compliance Matrix: (Units=1/GPa)
#
#
# Indices 1 2 3 4 5 6 
#
# 1 0.015639 -0.004943 -0.005529 0.000000 0.000000 0.000000
# 2 -0.004943 0.015639 -0.005529 0.000000 0.000000 0.000000
# 3 -0.005529 -0.005529 0.022613 0.000000 0.000000 0.000000
# 4 0.000000 0.000000 0.000000 0.080351 0.000000 0.000000
# 5 0.000000 0.000000 0.000000 0.000000 0.080351 0.000000
# 6 0.000000 0.000000 0.000000 0.000000 0.000000 0.041164
#
#
# Mechanical properties :
#
#
# Convention : Reuss Voigt Hill
#
# Bulk Modulus (GPa) = 45.68403 47.97736 46.83069
# Shear Modulus (GPa) = 16.94603 18.73273 17.83938
#
# Velocity S-wave (km/s) = 3.23500 3.40127 3.31917
# Velocity P-wave (km/s) = 6.49356 6.71221 6.60379
#
# Compressibility (1/GPa) = 0.02188949
#
# Stress axis : x y z
#
# Youngs Moduli (GPa) = 63.94422 63.94422 44.22162
#
# Poissons Ratio (x) = 0.31610 0.24448
# Poissons Ratio (y) = 0.31610 0.24448
# Poissons Ratio (z) = 0.35352 0.35352
#
# Static dielectric constant tensor:
#      x y z
#    x 3.066120 0.000000 0.000000 
#    y 0.000000 3.066120 0.000000 
#    z 0.000000 0.000000 3.091370 
# 
# 
# High freq. dielectric constant tensor:
#      x y z
#    x 1.597010 0.000000 0.000000 
#    y 0.000000 1.597010 0.000000 
#    z 0.000000 0.000000 1.625870 
# 
# From -- ./inp_files/1718.got.cif
#   From: 2010.03.12/outbox.cif.g09.slc.cpg/sg191_1_cif.got.tgz:1718.got - 2010.04.01 12:09:02.
