data_PCOD8328889
_publ_section_title
;
Structure prediction by ZEFSAII (Michael W. Deem and Ramdas Pophale) SiO2 
 PCOD8328889
Probable space group: P 6/M M M
;
_chemical_formula_sum "Si O2"
_cell_formula_units_Z 156
_cell_length_a 21.547863
_cell_length_b 21.547863
_cell_length_c 21.892297
_cell_angle_alpha 90.000000
_cell_angle_beta 90.000000
_cell_angle_gamma 120.000000
_cell_volume 8802.993362
_symmetry_space_group_name_H-M "P 6/M M M"
_symmetry_group_IT_number 191
_symmetry_cell_setting 'hexagonal'
loop_
_space_group_symop_operation_xyz
x,y,z
x-y,x,z
-y,x-y,z
-x,-y,z
-x+y,-x,z
y,-x+y,z
x-y,-y,-z
-x,-x+y,-z
y,x,-z
-y,-x,-z
-x+y,y,-z
x,x-y,-z
-x,-y,-z
-x+y,-x,-z
y,-x+y,-z
x,y,-z
x-y,x,-z
-y,x-y,-z
-x+y,y,z
x,x-y,z
-y,-x,z
y,x,z
x-y,-y,z
-x,-x+y,z
loop_
_atom_site_type_symbol
_atom_site_label
_atom_site_fract_x
_atom_site_fract_y
_atom_site_fract_z
Si Si1 0.711485 0.787694 0.316335
Si Si2 0.695740 0.161353 0.866027
Si Si3 0.690961 0.916272 0.180312
Si Si4 0.458501 0.917002 0.072103
Si Si5 0.740375 0.622588 0.566830
Si Si6 0.192110 0.667226 0.732458
Si Si7 0.082152 0.610984 0.630978
O O1 0.739294 0.869647 0.330461
O O2 0.782801 0.782801 0.309594
O O3 0.668043 0.761379 0.252278
O O4 0.668965 0.741574 0.375235
O O5 0.760973 0.239028 0.890180
O O6 0.726423 0.106695 0.859249
O O7 0.625636 0.125778 0.908971
O O8 0.667844 0.172386 0.802154
O O9 0.720233 0.860117 0.166334
O O10 0.750484 0.000000 0.165334
O O11 0.500000 0.000000 0.097420
O O12 0.459727 0.919453 0.000000
O O13 0.747594 0.659154 0.500000
O O14 0.799874 0.599748 0.574172
O O15 0.662509 0.552646 0.571817
O O16 0.214050 0.607025 0.723123
O O17 0.257409 0.742592 0.710990
O O18 0.124556 0.652407 0.691567
O O19 0.097318 0.548659 0.612386
O O20 0.000000 0.582452 0.646730
#
# Coordination Sequence:
#
# PCOD8328889 Si02
#       7
#    24  24  24  12  24  24  24
#     4   9  17  29  46  69  95 122 153 193 238 287
#     4  10  20  35  54  78 103 134 175 218 261 307
#     4   9  17  30  51  77 104 133 167 209 258 306
#     4  11  24  40  56  78 108 144 183 221 263 309
#     4  10  20  33  48  64  84 115 154 195 238 288
#     4  10  19  33  52  74  97 124 156 205 250 295
#     4  10  21  33  46  69  96 121 151 187 236 298
#
# _framework density 17.721243999999999
#
# number of rings (size 3 to 8) (size 9 to 14) (size 15 to 20)
#    0.000    2.231    0.769    2.462    0.000    6.769 
#    0.462    0.769    0.000    0.615    0.000    2.154 
#    0.000    0.000    0.000    3.846    0.000    4.000 
#
# Total GULP energy -1932568.339449 kJ/mol
# GULP energy per Si atom -12388.258586 kJ/mol
# Density = 1.768091 g / cm^3
# Si number density = 17.721244 Si / 1000 Ang^3
#
#
#
# Elastic Constant Matrix: (Units=GPa)
#
#
# Indices 1 2 3 4 5 6 
#
# 1 98.1734 55.1007 28.8764 0.0000 0.0000 0.0000
# 2 55.1007 98.1734 28.8764 0.0000 0.0000 0.0000
# 3 28.8764 28.8764 50.6756 0.0000 0.0000 0.0000
# 4 0.0000 0.0000 0.0000 18.0342 0.0000 0.0000
# 5 0.0000 0.0000 0.0000 0.0000 18.0342 0.0000
# 6 0.0000 0.0000 0.0000 0.0000 0.0000 21.5364
#
#
#
# Elastic Compliance Matrix: (Units=1/GPa)
#
#
# Indices 1 2 3 4 5 6 
#
# 1 0.015762 -0.007454 -0.004734 0.000000 0.000000 0.000000
# 2 -0.007454 0.015762 -0.004734 0.000000 0.000000 0.000000
# 3 -0.004734 -0.004734 0.025129 0.000000 0.000000 0.000000
# 4 0.000000 0.000000 0.000000 0.055450 0.000000 0.000000
# 5 0.000000 0.000000 0.000000 0.000000 0.055450 0.000000
# 6 0.000000 0.000000 0.000000 0.000000 0.000000 0.046433
#
#
# Mechanical properties :
#
#
# Convention : Reuss Voigt Hill
#
# Bulk Modulus (GPa) = 43.84399 52.52548 48.18473
# Shear Modulus (GPa) = 19.57445 20.46553 20.01999
#
# Velocity S-wave (km/s) = 3.32712 3.40201 3.36477
# Velocity P-wave (km/s) = 6.28922 6.71831 6.50730
#
# Compressibility (1/GPa) = 0.02280814
#
# Stress axis : x y z
#
# Youngs Moduli (GPa) = 63.44247 63.44247 39.79510
#
# Poissons Ratio (x) = 0.47292 0.18840
# Poissons Ratio (y) = 0.47292 0.18840
# Poissons Ratio (z) = 0.30035 0.30035
#
# Static dielectric constant tensor:
#      x y z
#    x 3.416940 0.000000 0.000000 
#    y 0.000000 3.416940 0.000000 
#    z 0.000000 0.000000 3.115720 
# 
# 
# High freq. dielectric constant tensor:
#      x y z
#    x 1.685660 0.000000 0.000000 
#    y 0.000000 1.685660 0.000000 
#    z 0.000000 0.000000 1.662860 
# 
# From -- ./inp_files/7757.got.cif
#   From: 2010.03.12/outbox.cif.g09.slc.cpg/sg191_4_cif.got.tgz:7757.got - 2010.04.01 12:09:02.
