data_PCOD8328638
_publ_section_title
;
Structure prediction by ZEFSAII (Michael W. Deem and Ramdas Pophale) SiO2 
 PCOD8328638
Probable space group: P 6/M M M
;
_chemical_formula_sum "Si O2"
_cell_formula_units_Z 84
_cell_length_a 24.217669
_cell_length_b 24.217669
_cell_length_c 11.584188
_cell_angle_alpha 90.000000
_cell_angle_beta 90.000000
_cell_angle_gamma 120.000000
_cell_volume 5883.840712
_symmetry_space_group_name_H-M "P 6/M M M"
_symmetry_group_IT_number 191
_symmetry_cell_setting 'hexagonal'
loop_
_space_group_symop_operation_xyz
x,y,z
x-y,x,z
-y,x-y,z
-x,-y,z
-x+y,-x,z
y,-x+y,z
x-y,-y,-z
-x,-x+y,-z
y,x,-z
-y,-x,-z
-x+y,y,-z
x,x-y,-z
-x,-y,-z
-x+y,-x,-z
y,-x+y,-z
x,y,-z
x-y,x,-z
-y,x-y,-z
-x+y,y,z
x,x-y,z
-y,-x,z
y,x,z
x-y,-y,z
-x,-x+y,z
loop_
_atom_site_type_symbol
_atom_site_label
_atom_site_fract_x
_atom_site_fract_y
_atom_site_fract_z
Si Si1 0.739723 0.260278 0.627138
Si Si2 0.463120 0.665869 0.000000
Si Si3 0.380319 0.307667 0.637705
Si Si4 0.184474 0.368947 0.374285
Si Si5 0.636435 0.488234 0.757421
O O1 0.724199 0.275802 0.500000
O O2 0.777597 0.222404 0.617795
O O3 0.783537 0.326065 0.693553
O O4 0.500084 0.659513 0.889924
O O5 0.389045 0.610956 0.000000
O O6 0.467474 0.733737 0.000000
O O7 0.393038 0.310273 0.500000
O O8 0.330471 0.330471 0.669010
O O9 0.350520 0.234052 0.684886
O O10 0.446818 0.353057 0.700569
O O11 0.168362 0.336724 0.500000
O O12 0.561410 0.438591 0.748320
#
# Coordination Sequence:
#
# PCOD8328638 Si02
#       5
#    12  12  24  12  24
#     4   9  16  27  41  57  79 104 129 168 222 268
#     4  10  19  32  47  59  75 108 151 193 229 267
#     4   9  17  29  46  67  89 113 138 167 212 265
#     4   7  12  24  41  59  81 107 133 161 192 238
#     4  10  19  30  43  59  80 106 143 184 222 263
#
# _framework density 14.276389999999999
#
# number of rings (size 3 to 8) (size 9 to 14) (size 15 to 20)
#    0.000    2.857    1.429    2.714    0.000    2.857 
#    0.857    2.143    0.000    2.571    0.000    0.000 
#    0.000    0.000    0.000    0.429    0.000   13.714 
#
# Total GULP energy -1040697.661888 kJ/mol
# GULP energy per Si atom -12389.257880 kJ/mol
# Density = 1.424390 g / cm^3
# Si number density = 14.276390 Si / 1000 Ang^3
#
#
#
# Elastic Constant Matrix: (Units=GPa)
#
#
# Indices 1 2 3 4 5 6 
#
# 1 83.5207 51.3130 25.4914 0.0000 0.0000 0.0000
# 2 51.3130 83.5207 25.4914 0.0000 0.0000 0.0000
# 3 25.4914 25.4914 76.1515 0.0000 0.0000 0.0000
# 4 0.0000 0.0000 0.0000 13.4881 0.0000 0.0000
# 5 0.0000 0.0000 0.0000 0.0000 13.4881 0.0000
# 6 0.0000 0.0000 0.0000 0.0000 0.0000 16.1038
#
#
#
# Elastic Compliance Matrix: (Units=1/GPa)
#
#
# Indices 1 2 3 4 5 6 
#
# 1 0.019770 -0.011279 -0.002842 0.000000 0.000000 0.000000
# 2 -0.011279 0.019770 -0.002842 0.000000 0.000000 0.000000
# 3 -0.002842 -0.002842 0.015035 0.000000 0.000000 0.000000
# 4 0.000000 0.000000 0.000000 0.074139 0.000000 0.000000
# 5 0.000000 0.000000 0.000000 0.000000 0.074139 0.000000
# 6 0.000000 0.000000 0.000000 0.000000 0.000000 0.062097
#
#
# Mechanical properties :
#
#
# Convention : Reuss Voigt Hill
#
# Bulk Modulus (GPa) = 48.43178 49.75383 49.09280
# Shear Modulus (GPa) = 16.35271 18.00915 17.18093
#
# Velocity S-wave (km/s) = 3.38810 3.55556 3.47284
# Velocity P-wave (km/s) = 7.02166 7.19598 7.10935
#
# Compressibility (1/GPa) = 0.02064760
#
# Stress axis : x y z
#
# Youngs Moduli (GPa) = 50.58192 50.58192 66.51282
#
# Poissons Ratio (x) = 0.57049 0.18906
# Poissons Ratio (y) = 0.57049 0.18906
# Poissons Ratio (z) = 0.14378 0.14378
#
# Static dielectric constant tensor:
#      x y z
#    x 2.759930 0.000000 0.000000 
#    y 0.000000 2.759930 0.000000 
#    z 0.000000 0.000000 2.856470 
# 
# 
# High freq. dielectric constant tensor:
#      x y z
#    x 1.519590 0.000000 0.000000 
#    y 0.000000 1.519590 0.000000 
#    z 0.000000 0.000000 1.538350 
# 
# From -- ./inp_files/2650.got.cif
#   From: 2010.03.12/outbox.cif.g09.slc.cpg/sg191_2_cif.got.tgz:2650.got - 2010.04.01 12:09:02.
