data_PCOD8328258
_publ_section_title
;
Structure prediction by ZEFSAII (Michael W. Deem and Ramdas Pophale) SiO2 
 PCOD8328258
Probable space group: P 6/M M M
;
_chemical_formula_sum "Si O2"
_cell_formula_units_Z 132
_cell_length_a 17.956808
_cell_length_b 17.956808
_cell_length_c 28.404182
_cell_angle_alpha 90.000000
_cell_angle_beta 90.000000
_cell_angle_gamma 120.000000
_cell_volume 7931.789801
_symmetry_space_group_name_H-M "P 6/M M M"
_symmetry_group_IT_number 191
_symmetry_cell_setting 'hexagonal'
loop_
_space_group_symop_operation_xyz
x,y,z
x-y,x,z
-y,x-y,z
-x,-y,z
-x+y,-x,z
y,-x+y,z
x-y,-y,-z
-x,-x+y,-z
y,x,-z
-y,-x,-z
-x+y,y,-z
x,x-y,-z
-x,-y,-z
-x+y,-x,-z
y,-x+y,-z
x,y,-z
x-y,x,-z
-y,x-y,-z
-x+y,y,z
x,x-y,z
-y,-x,z
y,x,z
x-y,-y,z
-x,-x+y,z
loop_
_atom_site_type_symbol
_atom_site_label
_atom_site_fract_x
_atom_site_fract_y
_atom_site_fract_z
Si Si1 0.735976 0.639075 0.945829
Si Si2 0.102264 0.468298 0.303966
Si Si3 0.172539 0.502958 0.500000
Si Si4 0.266241 0.901082 0.782186
Si Si5 0.492546 0.160716 0.866201
Si Si6 0.095255 0.458843 0.405807
O O1 0.836969 0.673937 0.934443
O O2 0.714614 0.714614 0.933672
O O3 0.676380 0.553701 0.915970
O O4 0.715105 0.611098 0.000000
O O5 0.138613 0.569307 0.291986
O O6 0.130468 0.424644 0.264169
O O7 0.137642 0.458135 0.355206
O O8 0.000000 0.422307 0.307132
O O9 0.275781 0.551562 0.500000
O O10 0.137701 0.568851 0.500000
O O11 0.141822 0.447584 0.451759
O O12 0.163446 0.836555 0.788837
O O13 0.318962 0.894002 0.825717
O O14 0.287592 0.000000 0.778340
O O15 0.574085 0.148170 0.861846
O O16 0.522560 0.261280 0.861743
O O17 0.095714 0.547857 0.408429
O O18 0.000000 0.378409 0.408049
#
# Coordination Sequence:
#
# PCOD8328258 Si02
#       6
#    24  24  12  24  24  24
#     4   9  18  32  49  69  93 122 156 193 232 271
#     4   8  14  26  44  64  83 103 131 168 209 254
#     4  10  18  25  33  47  70  99 130 164 201 238
#     4  10  20  32  47  67  90 116 145 179 218 259
#     4  10  20  33  49  70  96 124 152 182 218 260
#     4   8  14  25  40  55  71  95 129 166 200 236
#
# _framework density 16.641894000000001
#
# number of rings (size 3 to 8) (size 9 to 14) (size 15 to 20)
#    0.000    2.909    0.000    2.727    0.000    4.364 
#    0.000    0.909    0.000    1.818    0.000    1.273 
#    0.000    4.364    0.000    0.182    0.000    0.000 
#
# Total GULP energy -1635353.601181 kJ/mol
# GULP energy per Si atom -12389.042433 kJ/mol
# Density = 1.660402 g / cm^3
# Si number density = 16.641894 Si / 1000 Ang^3
#
#
#
# Elastic Constant Matrix: (Units=GPa)
#
#
# Indices 1 2 3 4 5 6 
#
# 1 70.9984 42.0465 33.4412 0.0000 0.0000 0.0000
# 2 42.0465 70.9984 33.4412 0.0000 0.0000 0.0000
# 3 33.4412 33.4412 109.1953 0.0000 0.0000 0.0000
# 4 0.0000 0.0000 0.0000 6.1967 0.0000 0.0000
# 5 0.0000 0.0000 0.0000 0.0000 6.1967 0.0000
# 6 0.0000 0.0000 0.0000 0.0000 0.0000 14.4759
#
#
#
# Elastic Compliance Matrix: (Units=1/GPa)
#
#
# Indices 1 2 3 4 5 6 
#
# 1 0.022672 -0.011868 -0.003309 0.000000 0.000000 0.000000
# 2 -0.011868 0.022672 -0.003309 0.000000 0.000000 0.000000
# 3 -0.003309 -0.003309 0.011184 0.000000 0.000000 0.000000
# 4 0.000000 0.000000 0.000000 0.161376 0.000000 0.000000
# 5 0.000000 0.000000 0.000000 0.000000 0.161376 0.000000
# 6 0.000000 0.000000 0.000000 0.000000 0.000000 0.069080
#
#
# Mechanical properties :
#
#
# Convention : Reuss Voigt Hill
#
# Bulk Modulus (GPa) = 51.13225 52.11667 51.62446
# Shear Modulus (GPa) = 10.16570 14.85808 12.51189
#
# Velocity S-wave (km/s) = 2.47422 2.99124 2.74493
# Velocity P-wave (km/s) = 6.24132 6.58138 6.41360
#
# Compressibility (1/GPa) = 0.01955713
#
# Stress axis : x y z
#
# Youngs Moduli (GPa) = 44.10762 44.10762 89.41003
#
# Poissons Ratio (x) = 0.52348 0.29582
# Poissons Ratio (y) = 0.52348 0.29582
# Poissons Ratio (z) = 0.14593 0.14593
#
# Static dielectric constant tensor:
#      x y z
#    x 2.885710 0.000000 0.000000 
#    y 0.000000 2.885710 0.000000 
#    z 0.000000 0.000000 3.646290 
# 
# 
# High freq. dielectric constant tensor:
#      x y z
#    x 1.606800 0.000000 0.000000 
#    y 0.000000 1.606800 0.000000 
#    z 0.000000 0.000000 1.670210 
# 
# From -- ./inp_files/10473.got.cif
#   From: 2010.03.12/outbox.cif.g09.slc.cpg/sg191_6_cif.got.tgz:10473.got - 2010.04.01 12:09:02.
