data_PCOD8328176
_publ_section_title
;
Structure prediction by ZEFSAII (Michael W. Deem and Ramdas Pophale) SiO2 
 PCOD8328176
Probable space group: P -6 2 C
;
_chemical_formula_sum "Si O2"
_cell_formula_units_Z 60
_cell_length_a 20.419551
_cell_length_b 20.419551
_cell_length_c 9.076160
_cell_angle_alpha 90.000000
_cell_angle_beta 90.000000
_cell_angle_gamma 120.000000
_cell_volume 3277.367566
_symmetry_space_group_name_H-M "P -6 2 C"
_symmetry_group_IT_number 190
_symmetry_cell_setting 'hexagonal'
loop_
_space_group_symop_operation_xyz
x,y,z
-x+y,-x,1/2-z
-y,x-y,z
x,y,1/2-z
-x+y,-x,z
-y,x-y,1/2-z
x-y,-y,-z
-x,-x+y,-z
y,x,-z
y,x,1/2+z
x-y,-y,1/2+z
-x,-x+y,1/2+z
loop_
_atom_site_type_symbol
_atom_site_label
_atom_site_fract_x
_atom_site_fract_y
_atom_site_fract_z
Si Si1 0.516457 0.435877 0.422797
Si Si2 0.081782 0.440506 0.074341
Si Si3 0.000000 0.177311 0.500000
Si Si4 0.974623 0.069089 0.750000
Si Si5 0.867900 0.207558 0.418701
Si Si6 0.078404 0.706845 0.580203
O O1 0.529788 0.456634 0.250000
O O2 0.472356 0.472356 0.500000
O O3 0.597787 0.473462 0.507069
O O4 0.462746 0.345707 0.447662
O O5 0.075918 0.441912 0.250000
O O6 0.125403 0.397159 0.028683
O O7 0.000000 0.395117 0.000000
O O8 0.959491 0.108412 0.613058
O O9 0.063004 0.254597 0.572775
O O10 0.061170 0.082974 0.750000
O O11 0.861687 0.229174 0.250000
O O12 0.791449 0.134745 0.472534
O O13 0.058794 0.704638 0.750000
O O14 0.000000 0.677631 0.500000
#
# Coordination Sequence:
#
# PCOD8328176 Si02
#       6
#    12  12   6   6  12  12
#     4   9  16  31  55  80 106 136 170 213 263 328
#     4  11  21  33  55  81 110 143 179 220 278 338
#     4  12  22  40  60  80 112 148 198 264 308 350
#     4  10  24  42  60  76 102 148 208 254 306 370
#     4  11  23  38  55  83 117 150 191 245 297 347
#     4   9  20  37  56  82 113 148 188 233 287 345
#
# _framework density 18.307375
#
# number of rings (size 3 to 8) (size 9 to 14) (size 15 to 20)
#    0.200    1.600    2.000    4.200    1.400    3.200 
#    0.000    0.000    0.000    0.800    0.000    2.800 
#    0.000    0.000    0.000    0.000    0.000    0.000 
#
# Total GULP energy -743478.467799 kJ/mol
# GULP energy per Si atom -12391.307797 kJ/mol
# Density = 1.826571 g / cm^3
# Si number density = 18.307375 Si / 1000 Ang^3
#
#
#
# Elastic Constant Matrix: (Units=GPa)
#
#
# Indices 1 2 3 4 5 6 
#
# 1 90.8493 45.3221 36.0321 0.0000 0.0000 0.0000
# 2 45.3221 90.8493 36.0321 0.0000 0.0000 0.0000
# 3 36.0321 36.0321 118.0783 0.0000 0.0000 0.0000
# 4 0.0000 0.0000 0.0000 26.7091 0.0000 0.0000
# 5 0.0000 0.0000 0.0000 0.0000 26.7091 0.0000
# 6 0.0000 0.0000 0.0000 0.0000 0.0000 22.7636
#
#
#
# Elastic Compliance Matrix: (Units=1/GPa)
#
#
# Indices 1 2 3 4 5 6 
#
# 1 0.015361 -0.006603 -0.002673 0.000000 0.000000 0.000000
# 2 -0.006603 0.015361 -0.002673 0.000000 0.000000 0.000000
# 3 -0.002673 -0.002673 0.010100 0.000000 0.000000 0.000000
# 4 0.000000 0.000000 0.000000 0.037440 0.000000 0.000000
# 5 0.000000 0.000000 0.000000 0.000000 0.037440 0.000000
# 6 0.000000 0.000000 0.000000 0.000000 0.000000 0.043930
#
#
# Mechanical properties :
#
#
# Convention : Reuss Voigt Hill
#
# Bulk Modulus (GPa) = 59.08103 59.39441 59.23772
# Shear Modulus (GPa) = 26.43089 27.39573 26.91331
#
# Velocity S-wave (km/s) = 3.80377 3.87257 3.83832
# Velocity P-wave (km/s) = 7.18563 7.24631 7.21604
#
# Compressibility (1/GPa) = 0.01692591
#
# Stress axis : x y z
#
# Youngs Moduli (GPa) = 65.09802 65.09802 99.00942
#
# Poissons Ratio (x) = 0.42987 0.26461
# Poissons Ratio (y) = 0.42987 0.26461
# Poissons Ratio (z) = 0.17398 0.17398
#
# Static dielectric constant tensor:
#      x y z
#    x 3.867760 0.000000 0.000000 
#    y 0.000000 3.867760 0.000000 
#    z 0.000000 0.000000 3.116500 
# 
# 
# High freq. dielectric constant tensor:
#      x y z
#    x 1.694600 0.000000 0.000000 
#    y 0.000000 1.694600 0.000000 
#    z 0.000000 0.000000 1.723530 
# 
# From -- ./inp_files/974.got.cif
#   From: 2010.06.25/outbox.cif.g09.slc.cpg/sg190_1_cif.got.tgz:974.got - 2010.06.28 13:08:06.
