data_PCOD8328405
_publ_section_title
;
Structure prediction by ZEFSAII (Michael W. Deem and Ramdas Pophale) SiO2 
 PCOD8328405
Probable space group: P 6/M M M
;
_chemical_formula_sum "Si O2"
_cell_formula_units_Z 192
_cell_length_a 31.593300
_cell_length_b 31.593300
_cell_length_c 13.818666
_cell_angle_alpha 90.000000
_cell_angle_beta 90.000000
_cell_angle_gamma 120.000000
_cell_volume 11945.015965
_symmetry_space_group_name_H-M "P 6/M M M"
_symmetry_group_IT_number 191
_symmetry_cell_setting 'hexagonal'
loop_
_space_group_symop_operation_xyz
x,y,z
x-y,x,z
-y,x-y,z
-x,-y,z
-x+y,-x,z
y,-x+y,z
x-y,-y,-z
-x,-x+y,-z
y,x,-z
-y,-x,-z
-x+y,y,-z
x,x-y,-z
-x,-y,-z
-x+y,-x,-z
y,-x+y,-z
x,y,-z
x-y,x,-z
-y,x-y,-z
-x+y,y,z
x,x-y,z
-y,-x,z
y,x,z
x-y,-y,z
-x,-x+y,z
loop_
_atom_site_type_symbol
_atom_site_label
_atom_site_fract_x
_atom_site_fract_y
_atom_site_fract_z
Si Si1 0.521097 0.577085 0.243152
Si Si2 0.945679 0.797803 0.610932
Si Si3 0.234465 0.290394 0.700851
Si Si4 0.142273 0.380066 0.390275
Si Si5 0.380797 0.521291 0.611337
Si Si6 0.448410 0.333306 0.888361
Si Si7 0.477900 0.288128 0.727667
Si Si8 0.721172 0.055500 0.892827
O O1 0.470519 0.529482 0.215316
O O2 0.562685 0.562685 0.264332
O O3 0.514906 0.603299 0.338196
O O4 0.535915 0.613320 0.152501
O O5 0.941574 0.780173 0.500000
O O6 0.909045 0.818089 0.632243
O O7 0.931041 0.751525 0.679094
O O8 0.000000 0.841648 0.634124
O O9 0.272125 0.272125 0.672461
O O10 0.249425 0.337817 0.636666
O O11 0.236917 0.302977 0.814729
O O12 0.142386 0.396897 0.500000
O O13 0.180035 0.360069 0.377448
O O14 0.157411 0.425643 0.321498
O O15 0.369888 0.505341 0.500000
O O16 0.422717 0.577284 0.622367
O O17 0.332770 0.517175 0.661920
O O18 0.475585 0.308296 0.833662
O O19 0.390877 0.299130 0.873847
O O20 0.463916 0.338752 0.000000
O O21 0.493228 0.246614 0.736095
O O22 0.676554 0.000000 0.882679
O O23 0.744789 0.064266 0.000000
#
# Coordination Sequence:
#
# PCOD8328405 Si02
#       8
#    24  24  24  24  24  24  24  24
#     4   9  18  31  48  73 102 130 162 196 229 269
#     4   9  17  29  46  67  90 117 149 186 230 279
#     4  10  18  28  43  63  88 120 157 194 228 266
#     4  10  19  30  44  63  89 119 150 186 229 275
#     4   9  18  33  52  73  97 125 157 192 233 283
#     4  10  19  32  49  67  92 125 160 199 239 275
#     4  10  20  34  51  70  93 121 153 191 236 286
#     4   9  17  29  44  61  85 122 163 199 235 272
#
# _framework density 16.073650000000001
#
# number of rings (size 3 to 8) (size 9 to 14) (size 15 to 20)
#    0.000    2.500    1.250    1.500    0.000    4.000 
#    0.000    1.875    0.000    3.375    0.000    0.875 
#    0.000    0.000    0.000    0.375    0.000    0.500 
#
# Total GULP energy -2380593.320976 kJ/mol
# GULP energy per Si atom -12398.923547 kJ/mol
# Density = 1.603707 g / cm^3
# Si number density = 16.073650 Si / 1000 Ang^3
#
#
#
# Elastic Constant Matrix: (Units=GPa)
#
#
# Indices 1 2 3 4 5 6 
#
# 1 82.5323 40.0913 46.4521 0.0000 0.0000 0.0000
# 2 40.0913 82.5323 46.4521 0.0000 0.0000 0.0000
# 3 46.4521 46.4521 114.1075 0.0000 0.0000 0.0000
# 4 0.0000 0.0000 0.0000 19.0259 0.0000 0.0000
# 5 0.0000 0.0000 0.0000 0.0000 19.0259 0.0000
# 6 0.0000 0.0000 0.0000 0.0000 0.0000 21.2205
#
#
#
# Elastic Compliance Matrix: (Units=1/GPa)
#
#
# Indices 1 2 3 4 5 6 
#
# 1 0.017677 -0.005885 -0.004800 0.000000 0.000000 0.000000
# 2 -0.005885 0.017677 -0.004800 0.000000 0.000000 0.000000
# 3 -0.004800 -0.004800 0.012672 0.000000 0.000000 0.000000
# 4 0.000000 0.000000 0.000000 0.052560 0.000000 0.000000
# 5 0.000000 0.000000 0.000000 0.000000 0.052560 0.000000
# 6 0.000000 0.000000 0.000000 0.000000 0.000000 0.047124
#
#
# Mechanical properties :
#
#
# Convention : Reuss Voigt Hill
#
# Bulk Modulus (GPa) = 58.63579 60.57366 59.60472
# Shear Modulus (GPa) = 21.10358 21.59959 21.35158
#
# Velocity S-wave (km/s) = 3.62737 3.66975 3.64862
# Velocity P-wave (km/s) = 7.35543 7.46478 7.41031
#
# Compressibility (1/GPa) = 0.01705443
#
# Stress axis : x y z
#
# Youngs Moduli (GPa) = 56.57049 56.57049 78.91370
#
# Poissons Ratio (x) = 0.33292 0.37882
# Poissons Ratio (y) = 0.33292 0.37882
# Poissons Ratio (z) = 0.27156 0.27156
#
# Static dielectric constant tensor:
#      x y z
#    x 3.004130 0.000000 0.000000 
#    y 0.000000 3.004130 0.000000 
#    z 0.000000 0.000000 3.140310 
# 
# 
# High freq. dielectric constant tensor:
#      x y z
#    x 1.604770 0.000000 0.000000 
#    y 0.000000 1.604770 0.000000 
#    z 0.000000 0.000000 1.620330 
# 
# From -- ./inp_files/5492.got.cif
#   From: 2010.03.12/outbox.cif.g09.slc.cpg/sg191_3_cif.got.tgz:5492.got - 2010.04.01 12:09:02.
