data_PCOD8328667
_publ_section_title
;
Structure prediction by ZEFSAII (Michael W. Deem and Ramdas Pophale) SiO2 
 PCOD8328667
Probable space group: P 6/M M M
;
_chemical_formula_sum "Si O2"
_cell_formula_units_Z 132
_cell_length_a 18.296148
_cell_length_b 18.296148
_cell_length_c 27.688483
_cell_angle_alpha 90.000000
_cell_angle_beta 90.000000
_cell_angle_gamma 120.000000
_cell_volume 8026.923487
_symmetry_space_group_name_H-M "P 6/M M M"
_symmetry_group_IT_number 191
_symmetry_cell_setting 'hexagonal'
loop_
_space_group_symop_operation_xyz
x,y,z
x-y,x,z
-y,x-y,z
-x,-y,z
-x+y,-x,z
y,-x+y,z
x-y,-y,-z
-x,-x+y,-z
y,x,-z
-y,-x,-z
-x+y,y,-z
x,x-y,-z
-x,-y,-z
-x+y,-x,-z
y,-x+y,-z
x,y,-z
x-y,x,-z
-y,x-y,-z
-x+y,y,z
x,x-y,z
-y,-x,z
y,x,z
x-y,-y,z
-x,-x+y,z
loop_
_atom_site_type_symbol
_atom_site_label
_atom_site_fract_x
_atom_site_fract_y
_atom_site_fract_z
Si Si1 0.258736 0.904170 0.284081
Si Si2 0.833359 0.331379 0.100932
Si Si3 0.906286 0.258259 0.173638
Si Si4 0.900871 0.369582 0.364332
Si Si5 0.633843 0.539621 0.000000
Si Si6 0.740782 0.095639 0.555156
O O1 0.158777 0.841224 0.293673
O O2 0.280964 0.897440 0.228708
O O3 0.311826 0.873857 0.316447
O O4 0.282105 0.000000 0.297264
O O5 0.849700 0.424850 0.106864
O O6 0.735347 0.264653 0.109979
O O7 0.891423 0.320814 0.140186
O O8 0.857897 0.314728 0.047728
O O9 0.839298 0.160703 0.161600
O O10 0.000000 0.273477 0.164211
O O11 0.858109 0.429055 0.364328
O O12 0.873439 0.311191 0.411959
O O13 0.000000 0.429492 0.364610
O O14 0.619358 0.619358 0.000000
O O15 0.545815 0.454186 0.000000
O O16 0.715561 0.099764 0.500000
O O17 0.840982 0.159019 0.563474
O O18 0.717994 0.000000 0.568702
#
# Coordination Sequence:
#
# PCOD8328667 Si02
#       6
#    24  24  24  24  12  24
#     4   9  17  30  48  69  92 118 149 183 220 263
#     4  10  19  30  44  63  89 120 152 184 220 263
#     4   9  18  31  47  67  90 117 148 184 225 266
#     4   9  17  28  43  64  87 111 143 183 222 259
#     4   9  17  28  42  60  82 111 149 189 221 252
#     4   9  17  29  46  68  93 121 153 188 225 266
#
# _framework density 16.444656999999999
#
# number of rings (size 3 to 8) (size 9 to 14) (size 15 to 20)
#    0.000    2.818    0.000    1.545    0.000    2.182 
#    0.000    4.545    0.000    3.455    0.000    3.818 
#    0.000    4.364    0.000    0.364    0.000   18.909 
#
# Total GULP energy -1636105.998806 kJ/mol
# GULP energy per Si atom -12394.742415 kJ/mol
# Density = 1.640723 g / cm^3
# Si number density = 16.444657 Si / 1000 Ang^3
#
#
#
# Elastic Constant Matrix: (Units=GPa)
#
#
# Indices 1 2 3 4 5 6 
#
# 1 91.4370 57.2826 48.4430 0.0000 0.0000 0.0000
# 2 57.2826 91.4370 48.4430 0.0000 0.0000 0.0000
# 3 48.4430 48.4430 98.7919 0.0000 0.0000 0.0000
# 4 0.0000 0.0000 0.0000 22.6118 0.0000 0.0000
# 5 0.0000 0.0000 0.0000 0.0000 22.6118 0.0000
# 6 0.0000 0.0000 0.0000 0.0000 0.0000 17.0772
#
#
#
# Elastic Compliance Matrix: (Units=1/GPa)
#
#
# Indices 1 2 3 4 5 6 
#
# 1 0.019580 -0.009699 -0.004845 0.000000 0.000000 0.000000
# 2 -0.009699 0.019580 -0.004845 0.000000 0.000000 0.000000
# 3 -0.004845 -0.004845 0.014874 0.000000 0.000000 0.000000
# 4 0.000000 0.000000 0.000000 0.044225 0.000000 0.000000
# 5 0.000000 0.000000 0.000000 0.000000 0.044225 0.000000
# 6 0.000000 0.000000 0.000000 0.000000 0.000000 0.058558
#
#
# Mechanical properties :
#
#
# Convention : Reuss Voigt Hill
#
# Bulk Modulus (GPa) = 65.55268 65.55589 65.55429
# Shear Modulus (GPa) = 20.41627 20.95998 20.68813
#
# Velocity S-wave (km/s) = 3.52733 3.57400 3.55074
# Velocity P-wave (km/s) = 7.51922 7.54867 7.53395
#
# Compressibility (1/GPa) = 0.01525491
#
# Stress axis : x y z
#
# Youngs Moduli (GPa) = 51.07358 51.07358 67.23278
#
# Poissons Ratio (x) = 0.49538 0.32573
# Poissons Ratio (y) = 0.49538 0.32573
# Poissons Ratio (z) = 0.24744 0.24744
#
# Static dielectric constant tensor:
#      x y z
#    x 3.075410 0.000000 0.000000 
#    y 0.000000 3.075410 0.000000 
#    z 0.000000 0.000000 3.317100 
# 
# 
# High freq. dielectric constant tensor:
#      x y z
#    x 1.613030 0.000000 0.000000 
#    y 0.000000 1.613030 0.000000 
#    z 0.000000 0.000000 1.649400 
# 
# From -- ./inp_files/10495.got.cif
#   From: 2010.03.12/outbox.cif.g09.slc.cpg/sg191_6_cif.got.tgz:10495.got - 2010.04.01 12:09:02.
