data_PCOD8328994
_publ_section_title
;
Structure prediction by ZEFSAII (Michael W. Deem and Ramdas Pophale) SiO2 
 PCOD8328994
Probable space group: P 6/M M M
;
_chemical_formula_sum "Si O2"
_cell_formula_units_Z 132
_cell_length_a 17.286405
_cell_length_b 17.286405
_cell_length_c 29.536837
_cell_angle_alpha 90.000000
_cell_angle_beta 90.000000
_cell_angle_gamma 120.000000
_cell_volume 7643.706197
_symmetry_space_group_name_H-M "P 6/M M M"
_symmetry_group_IT_number 191
_symmetry_cell_setting 'hexagonal'
loop_
_space_group_symop_operation_xyz
x,y,z
x-y,x,z
-y,x-y,z
-x,-y,z
-x+y,-x,z
y,-x+y,z
x-y,-y,-z
-x,-x+y,-z
y,x,-z
-y,-x,-z
-x+y,y,-z
x,x-y,-z
-x,-y,-z
-x+y,-x,-z
y,-x+y,-z
x,y,-z
x-y,x,-z
-y,x-y,-z
-x+y,y,z
x,x-y,z
-y,-x,z
y,x,z
x-y,-y,z
-x,-x+y,z
loop_
_atom_site_type_symbol
_atom_site_label
_atom_site_fract_x
_atom_site_fract_y
_atom_site_fract_z
Si Si1 0.332857 0.844757 0.949044
Si Si2 0.713373 0.104690 0.596943
Si Si3 0.900730 0.267033 0.699652
Si Si4 0.894359 0.362449 0.216189
Si Si5 0.552677 0.105353 0.449291
Si Si6 0.266927 0.365229 0.867739
O O1 0.427471 0.854942 0.938334
O O2 0.258258 0.741742 0.942366
O O3 0.318497 0.906546 0.913816
O O4 0.329794 0.877189 0.000000
O O5 0.818442 0.181559 0.585101
O O6 0.696665 0.104704 0.650421
O O7 0.647828 0.135960 0.574779
O O8 0.684438 0.000000 0.582740
O O9 0.839908 0.160093 0.701326
O O10 0.864749 0.309846 0.736444
O O11 0.000000 0.288554 0.711550
O O12 0.849950 0.424975 0.213739
O O13 0.861121 0.297277 0.173157
O O14 0.000000 0.422659 0.214135
O O15 0.572691 0.145382 0.500000
O O16 0.500000 0.000000 0.450502
O O17 0.161142 0.322283 0.874406
O O18 0.285189 0.285189 0.856053
#
# Coordination Sequence:
#
# PCOD8328994 Si02
#       6
#    24  24  24  24  12  24
#     4   9  17  29  46  68  94 123 152 182 219 266
#     4   9  18  32  51  74 101 134 171 210 252 299
#     4   9  17  29  47  70  95 126 163 201 240 282
#     4   9  17  28  45  68  91 116 147 184 225 272
#     4   9  18  32  50  72  98 128 164 206 249 295
#     4  10  20  33  48  67  91 118 151 190 232 275
#
# _framework density 17.269110000000001
#
# number of rings (size 3 to 8) (size 9 to 14) (size 15 to 20)
#    0.000    2.818    0.000    1.273    1.273    2.545 
#    0.545    0.909    0.000    4.545    0.000    2.545 
#    0.000    4.364    0.000    9.273    0.000    4.727 
#
# Total GULP energy -1635410.055747 kJ/mol
# GULP energy per Si atom -12389.470119 kJ/mol
# Density = 1.722981 g / cm^3
# Si number density = 17.269110 Si / 1000 Ang^3
#
#
#
# Elastic Constant Matrix: (Units=GPa)
#
#
# Indices 1 2 3 4 5 6 
#
# 1 84.7763 53.5075 36.5125 0.0000 0.0000 0.0000
# 2 53.5075 84.7763 36.5125 0.0000 0.0000 0.0000
# 3 36.5125 36.5125 95.2641 0.0000 0.0000 0.0000
# 4 0.0000 0.0000 0.0000 18.9584 0.0000 0.0000
# 5 0.0000 0.0000 0.0000 0.0000 18.9584 0.0000
# 6 0.0000 0.0000 0.0000 0.0000 0.0000 15.6344
#
#
#
# Elastic Compliance Matrix: (Units=1/GPa)
#
#
# Indices 1 2 3 4 5 6 
#
# 1 0.020524 -0.011457 -0.003475 0.000000 0.000000 0.000000
# 2 -0.011457 0.020524 -0.003475 0.000000 0.000000 0.000000
# 3 -0.003475 -0.003475 0.013161 0.000000 0.000000 0.000000
# 4 0.000000 0.000000 0.000000 0.052747 0.000000 0.000000
# 5 0.000000 0.000000 0.000000 0.000000 0.052747 0.000000
# 6 0.000000 0.000000 0.000000 0.000000 0.000000 0.063961
#
#
# Mechanical properties :
#
#
# Convention : Reuss Voigt Hill
#
# Bulk Modulus (GPa) = 57.49090 57.54239 57.51665
# Shear Modulus (GPa) = 18.77753 19.92922 19.35337
#
# Velocity S-wave (km/s) = 3.30107 3.40080 3.35131
# Velocity P-wave (km/s) = 6.92047 6.98670 6.95366
#
# Compressibility (1/GPa) = 0.01739406
#
# Stress axis : x y z
#
# Youngs Moduli (GPa) = 48.72429 48.72429 75.98256
#
# Poissons Ratio (x) = 0.55824 0.26404
# Poissons Ratio (y) = 0.55824 0.26404
# Poissons Ratio (z) = 0.16932 0.16932
#
# Static dielectric constant tensor:
#      x y z
#    x 3.185240 0.000000 0.000000 
#    y 0.000000 3.185240 0.000000 
#    z 0.000000 0.000000 3.451250 
# 
# 
# High freq. dielectric constant tensor:
#      x y z
#    x 1.645250 0.000000 0.000000 
#    y 0.000000 1.645250 0.000000 
#    z 0.000000 0.000000 1.680240 
# 
# From -- ./inp_files/10464.got.cif
#   From: 2010.03.12/outbox.cif.g09.slc.cpg/sg191_6_cif.got.tgz:10464.got - 2010.04.01 12:09:02.
