data_PCOD8328765
_publ_section_title
;
Structure prediction by ZEFSAII (Michael W. Deem and Ramdas Pophale) SiO2 
 PCOD8328765
Probable space group: P 6/M M M
;
_chemical_formula_sum "Si O2"
_cell_formula_units_Z 144
_cell_length_a 31.822179
_cell_length_b 31.822179
_cell_length_c 9.423077
_cell_angle_alpha 90.000000
_cell_angle_beta 90.000000
_cell_angle_gamma 120.000000
_cell_volume 8263.864742
_symmetry_space_group_name_H-M "P 6/M M M"
_symmetry_group_IT_number 191
_symmetry_cell_setting 'hexagonal'
loop_
_space_group_symop_operation_xyz
x,y,z
x-y,x,z
-y,x-y,z
-x,-y,z
-x+y,-x,z
y,-x+y,z
x-y,-y,-z
-x,-x+y,-z
y,x,-z
-y,-x,-z
-x+y,y,-z
x,x-y,-z
-x,-y,-z
-x+y,-x,-z
y,-x+y,-z
x,y,-z
x-y,x,-z
-y,x-y,-z
-x+y,y,z
x,x-y,z
-y,-x,z
y,x,z
x-y,-y,z
-x,-x+y,z
loop_
_atom_site_type_symbol
_atom_site_label
_atom_site_fract_x
_atom_site_fract_y
_atom_site_fract_z
Si Si1 0.660821 0.139912 0.333092
Si Si2 0.946267 0.148024 0.337141
Si Si3 0.196750 0.903120 0.159630
Si Si4 0.521321 0.944832 0.163236
Si Si5 0.857128 0.616083 0.662543
Si Si6 0.571364 0.333224 0.669004
O O1 0.651035 0.134736 0.500000
O O2 0.620095 0.091325 0.261532
O O3 0.712083 0.145499 0.292921
O O4 0.660782 0.187596 0.274282
O O5 0.938087 0.157515 0.500000
O O6 0.907086 0.092915 0.292659
O O7 0.941710 0.187336 0.241969
O O8 0.000000 0.155771 0.314186
O O9 0.147818 0.852183 0.159896
O O10 0.238029 0.897095 0.239913
O O11 0.214250 0.921770 0.000000
O O12 0.468591 0.937182 0.193555
O O13 0.561961 0.000000 0.200709
O O14 0.526166 0.933597 0.000000
O O15 0.873385 0.630001 0.500000
O O16 0.804075 0.608149 0.688455
O O17 0.570347 0.331591 0.500000
O O18 0.567050 0.283525 0.728540
O O19 0.621417 0.378584 0.724517
#
# Coordination Sequence:
#
# PCOD8328765 Si02
#       6
#    24  24  24  24  24  24
#     4  10  19  30  48  75 100 122 156 201 240 277
#     4   9  17  30  49  72  98 129 164 200 239 285
#     4   9  17  29  46  68  92 119 155 197 235 273
#     4   9  19  36  54  69  88 117 151 187 233 290
#     4   9  17  30  47  67  96 132 162 190 232 284
#     4   9  16  26  42  67 100 134 165 198 238 282
#
# _framework density 17.425262
#
# number of rings (size 3 to 8) (size 9 to 14) (size 15 to 20)
#    0.000    2.833    0.000    2.167    0.000    7.000 
#    0.000    1.667    0.000    2.667    0.000    1.167 
#    0.000    1.333    0.000    4.167    0.000    4.333 
#
# Total GULP energy -1785385.779982 kJ/mol
# GULP energy per Si atom -12398.512361 kJ/mol
# Density = 1.738560 g / cm^3
# Si number density = 17.425262 Si / 1000 Ang^3
#
#
#
# Elastic Constant Matrix: (Units=GPa)
#
#
# Indices 1 2 3 4 5 6 
#
# 1 112.1480 64.0869 45.3711 0.0000 0.0000 0.0000
# 2 64.0869 112.1480 45.3711 0.0000 0.0000 0.0000
# 3 45.3711 45.3711 61.2962 0.0000 0.0000 0.0000
# 4 0.0000 0.0000 0.0000 17.9878 0.0000 0.0000
# 5 0.0000 0.0000 0.0000 0.0000 17.9878 0.0000
# 6 0.0000 0.0000 0.0000 0.0000 0.0000 24.0306
#
#
#
# Elastic Compliance Matrix: (Units=1/GPa)
#
#
# Indices 1 2 3 4 5 6 
#
# 1 0.014988 -0.005819 -0.006787 0.000000 0.000000 0.000000
# 2 -0.005819 0.014988 -0.006787 0.000000 0.000000 0.000000
# 3 -0.006787 -0.006787 0.026361 0.000000 0.000000 0.000000
# 4 0.000000 0.000000 0.000000 0.055593 0.000000 0.000000
# 5 0.000000 0.000000 0.000000 0.000000 0.055593 0.000000
# 6 0.000000 0.000000 0.000000 0.000000 0.000000 0.041614
#
#
# Mechanical properties :
#
#
# Convention : Reuss Voigt Hill
#
# Bulk Modulus (GPa) = 56.97368 66.13892 61.55630
# Shear Modulus (GPa) = 19.70279 20.71880 20.21079
#
# Velocity S-wave (km/s) = 3.36624 3.45194 3.40936
# Velocity P-wave (km/s) = 6.91923 7.34344 7.13449
#
# Compressibility (1/GPa) = 0.01755196
#
# Stress axis : x y z
#
# Youngs Moduli (GPa) = 66.72138 66.72138 37.93497
#
# Poissons Ratio (x) = 0.38826 0.25745
# Poissons Ratio (y) = 0.38826 0.25745
# Poissons Ratio (z) = 0.45281 0.45281
#
# Static dielectric constant tensor:
#      x y z
#    x 3.245350 0.000000 0.000000 
#    y 0.000000 3.245350 0.000000 
#    z 0.000000 0.000000 3.126820 
# 
# 
# High freq. dielectric constant tensor:
#      x y z
#    x 1.668000 0.000000 0.000000 
#    y 0.000000 1.668000 0.000000 
#    z 0.000000 0.000000 1.652270 
# 
# From -- ./inp_files/1989.got.cif
#   From: 2010.03.12/outbox.cif.g09.slc.cpg/sg191_1_cif.got.tgz:1989.got - 2010.04.01 12:09:02.
