data_PCOD8328535
_publ_section_title
;
Structure prediction by ZEFSAII (Michael W. Deem and Ramdas Pophale) SiO2 
 PCOD8328535
Probable space group: P 6/M M M
;
_chemical_formula_sum "Si O2"
_cell_formula_units_Z 84
_cell_length_a 22.502894
_cell_length_b 22.502894
_cell_length_c 11.894170
_cell_angle_alpha 90.000000
_cell_angle_beta 90.000000
_cell_angle_gamma 120.000000
_cell_volume 5216.047312
_symmetry_space_group_name_H-M "P 6/M M M"
_symmetry_group_IT_number 191
_symmetry_cell_setting 'hexagonal'
loop_
_space_group_symop_operation_xyz
x,y,z
x-y,x,z
-y,x-y,z
-x,-y,z
-x+y,-x,z
y,-x+y,z
x-y,-y,-z
-x,-x+y,-z
y,x,-z
-y,-x,-z
-x+y,y,-z
x,x-y,-z
-x,-y,-z
-x+y,-x,-z
y,-x+y,-z
x,y,-z
x-y,x,-z
-y,x-y,-z
-x+y,y,z
x,x-y,z
-y,-x,z
y,x,z
x-y,-y,z
-x,-x+y,z
loop_
_atom_site_type_symbol
_atom_site_label
_atom_site_fract_x
_atom_site_fract_y
_atom_site_fract_z
Si Si1 0.919697 0.526352 0.629290
Si Si2 0.866041 0.866041 0.133867
Si Si3 0.285914 0.076696 0.500000
Si Si4 0.625071 0.881183 0.278600
Si Si5 0.000000 0.730969 0.133148
O O1 0.896944 0.520593 0.500000
O O2 0.903583 0.451792 0.673266
O O3 0.877271 0.551934 0.704660
O O4 0.000000 0.580803 0.641131
O O5 0.865421 0.932711 0.181482
O O6 0.798735 0.798735 0.178003
O O7 0.867647 0.867647 0.000000
O O8 0.255211 0.127606 0.500000
O O9 0.332261 0.088278 0.391918
O O10 0.221836 0.000000 0.500000
O O11 0.611509 0.805755 0.250376
O O12 0.664864 0.931257 0.175659
O O13 0.000000 0.728094 0.000000
#
# Coordination Sequence:
#
# PCOD8328535 Si02
#       5
#    24  12  12  24  12
#     4   9  16  28  49  75 101 125 154 194 240 297
#     4   9  17  30  46  62  82 114 161 211 257 303
#     4  10  18  30  49  72  95 123 163 213 263 312
#     4  11  20  31  51  75 103 132 164 208 256 307
#     4  11  22  34  48  67  99 138 174 216 260 301
#
# _framework density 16.104149
#
# number of rings (size 3 to 8) (size 9 to 14) (size 15 to 20)
#    0.000    2.000    4.286    1.857    0.000    2.286 
#    0.000    0.000    0.000    2.429    0.000    0.000 
#    0.000    0.000    0.000    0.000    0.000    0.000 
#
# Total GULP energy -1041642.433049 kJ/mol
# GULP energy per Si atom -12400.505155 kJ/mol
# Density = 1.606750 g / cm^3
# Si number density = 16.104149 Si / 1000 Ang^3
#
#
#
# Elastic Constant Matrix: (Units=GPa)
#
#
# Indices 1 2 3 4 5 6 
#
# 1 120.8063 61.4303 29.1440 0.0000 0.0000 0.0000
# 2 61.4303 120.8063 29.1440 0.0000 0.0000 0.0000
# 3 29.1440 29.1440 53.0672 0.0000 0.0000 0.0000
# 4 0.0000 0.0000 0.0000 15.7967 0.0000 0.0000
# 5 0.0000 0.0000 0.0000 0.0000 15.7967 0.0000
# 6 0.0000 0.0000 0.0000 0.0000 0.0000 29.6880
#
#
#
# Elastic Compliance Matrix: (Units=1/GPa)
#
#
# Indices 1 2 3 4 5 6 
#
# 1 0.011749 -0.005093 -0.003656 0.000000 0.000000 0.000000
# 2 -0.005093 0.011749 -0.003656 0.000000 0.000000 0.000000
# 3 -0.003656 -0.003656 0.022859 0.000000 0.000000 0.000000
# 4 0.000000 0.000000 0.000000 0.063304 0.000000 0.000000
# 5 0.000000 0.000000 0.000000 0.000000 0.063304 0.000000
# 6 0.000000 0.000000 0.000000 0.000000 0.000000 0.033684
#
#
# Mechanical properties :
#
#
# Convention : Reuss Voigt Hill
#
# Bulk Modulus (GPa) = 46.40439 59.34625 52.87532
# Shear Modulus (GPa) = 20.95194 23.92041 22.43618
#
# Velocity S-wave (km/s) = 3.61089 3.85821 3.73660
# Velocity P-wave (km/s) = 6.80165 7.53520 7.17780
#
# Compressibility (1/GPa) = 0.02154969
#
# Stress axis : x y z
#
# Youngs Moduli (GPa) = 85.11192 85.11192 43.74559
#
# Poissons Ratio (x) = 0.43344 0.15992
# Poissons Ratio (y) = 0.43344 0.15992
# Poissons Ratio (z) = 0.31115 0.31115
#
# Static dielectric constant tensor:
#      x y z
#    x 3.066840 0.000000 0.000000 
#    y 0.000000 3.066840 0.000000 
#    z 0.000000 0.000000 2.779500 
# 
# 
# High freq. dielectric constant tensor:
#      x y z
#    x 1.610070 0.000000 0.000000 
#    y 0.000000 1.610070 0.000000 
#    z 0.000000 0.000000 1.589270 
# 
# From -- ./inp_files/2675.got.cif
#   From: 2010.03.12/outbox.cif.g09.slc.cpg/sg191_2_cif.got.tgz:2675.got - 2010.04.01 12:09:02.
