data_PCOD8328451
_publ_section_title
;
Structure prediction by ZEFSAII (Michael W. Deem and Ramdas Pophale) SiO2 
 PCOD8328451
Probable space group: P 6/M M M
;
_chemical_formula_sum "Si O2"
_cell_formula_units_Z 168
_cell_length_a 22.266624
_cell_length_b 22.266624
_cell_length_c 25.824327
_cell_angle_alpha 90.000000
_cell_angle_beta 90.000000
_cell_angle_gamma 120.000000
_cell_volume 11088.387515
_symmetry_space_group_name_H-M "P 6/M M M"
_symmetry_group_IT_number 191
_symmetry_cell_setting 'hexagonal'
loop_
_space_group_symop_operation_xyz
x,y,z
x-y,x,z
-y,x-y,z
-x,-y,z
-x+y,-x,z
y,-x+y,z
x-y,-y,-z
-x,-x+y,-z
y,x,-z
-y,-x,-z
-x+y,y,-z
x,x-y,-z
-x,-y,-z
-x+y,-x,-z
y,-x+y,-z
x,y,-z
x-y,x,-z
-y,x-y,-z
-x+y,y,z
x,x-y,z
-y,-x,z
y,x,z
x-y,-y,z
-x,-x+y,z
loop_
_atom_site_type_symbol
_atom_site_label
_atom_site_fract_x
_atom_site_fract_y
_atom_site_fract_z
Si Si1 0.381702 0.120663 0.602069
Si Si2 0.876943 0.613789 0.792341
Si Si3 0.219286 0.922025 0.500000
Si Si4 0.704141 0.782949 0.112718
Si Si5 0.074880 0.784846 0.698414
Si Si6 0.793410 0.717627 0.000000
Si Si7 0.470541 0.666340 0.368302
Si Si8 0.196091 0.666209 0.754087
O O1 0.391103 0.195552 0.607992
O O2 0.344171 0.084638 0.549019
O O3 0.335856 0.076055 0.650035
O O4 0.460100 0.133819 0.604633
O O5 0.801410 0.602819 0.785407
O O6 0.908166 0.641442 0.849322
O O7 0.924712 0.669472 0.749883
O O8 0.866807 0.537776 0.782113
O O9 0.137003 0.862998 0.500000
O O10 0.229536 0.000000 0.500000
O O11 0.728670 0.864335 0.124176
O O12 0.768393 0.768393 0.120658
O O13 0.674342 0.762348 0.053493
O O14 0.134874 0.865127 0.696591
O O15 0.000000 0.780682 0.697218
O O16 0.783810 0.783810 0.000000
O O17 0.875671 0.751342 0.000000
O O18 0.456266 0.728133 0.384501
O O19 0.405701 0.594300 0.387219
O O20 0.481355 0.667313 0.307062
O O21 0.190211 0.595105 0.773028
O O22 0.271583 0.728417 0.770354
#
# Coordination Sequence:
#
# PCOD8328451 Si02
#       8
#    24  24  12  24  24  12  24  24
#     4   9  17  30  46  65  87 113 143 175 209 246
#     4   9  16  26  40  61  86 111 137 169 206 243
#     4  10  20  34  53  72  87 107 139 177 213 251
#     4   9  16  26  41  60  82 108 138 172 209 247
#     4  10  18  29  45  63  83 106 134 168 206 249
#     4   8  14  24  38  57  79 103 133 169 207 245
#     4   9  15  25  43  66  91 117 147 180 214 248
#     4   9  15  24  40  63  90 116 142 172 210 252
#
# _framework density 15.150985
#
# number of rings (size 3 to 8) (size 9 to 14) (size 15 to 20)
#    0.000    2.857    1.429    1.143    0.000    1.143 
#    0.000    0.357    0.000    5.143    0.000    3.500 
#    0.000    8.571    0.000    2.143    0.000    1.429 
#
# Total GULP energy -2081237.807284 kJ/mol
# GULP energy per Si atom -12388.320281 kJ/mol
# Density = 1.511650 g / cm^3
# Si number density = 15.150985 Si / 1000 Ang^3
#
#
#
# Elastic Constant Matrix: (Units=GPa)
#
#
# Indices 1 2 3 4 5 6 
#
# 1 87.3538 51.6133 34.7386 0.0000 0.0000 0.0000
# 2 51.6133 87.3538 34.7386 0.0000 0.0000 0.0000
# 3 34.7386 34.7386 92.1842 0.0000 0.0000 0.0000
# 4 0.0000 0.0000 0.0000 11.3364 0.0000 0.0000
# 5 0.0000 0.0000 0.0000 0.0000 11.3364 0.0000
# 6 0.0000 0.0000 0.0000 0.0000 0.0000 17.8702
#
#
#
# Elastic Compliance Matrix: (Units=1/GPa)
#
#
# Indices 1 2 3 4 5 6 
#
# 1 0.018423 -0.009557 -0.003341 0.000000 0.000000 0.000000
# 2 -0.009557 0.018423 -0.003341 0.000000 0.000000 0.000000
# 3 -0.003341 -0.003341 0.013366 0.000000 0.000000 0.000000
# 4 0.000000 0.000000 0.000000 0.088212 0.000000 0.000000
# 5 0.000000 0.000000 0.000000 0.000000 0.088212 0.000000
# 6 0.000000 0.000000 0.000000 0.000000 0.000000 0.055959
#
#
# Mechanical properties :
#
#
# Convention : Reuss Voigt Hill
#
# Bulk Modulus (GPa) = 56.38882 56.56366 56.47624
# Shear Modulus (GPa) = 15.57714 17.82868 16.70291
#
# Velocity S-wave (km/s) = 3.20992 3.43408 3.32389
# Velocity P-wave (km/s) = 7.14401 7.28960 7.21717
#
# Compressibility (1/GPa) = 0.01773401
#
# Stress axis : x y z
#
# Youngs Moduli (GPa) = 54.28013 54.28013 74.81646
#
# Poissons Ratio (x) = 0.51873 0.24998
# Poissons Ratio (y) = 0.51873 0.24998
# Poissons Ratio (z) = 0.18136 0.18136
#
# Static dielectric constant tensor:
#      x y z
#    x 2.869630 0.000000 0.000000 
#    y 0.000000 2.869630 0.000000 
#    z 0.000000 0.000000 3.047090 
# 
# 
# High freq. dielectric constant tensor:
#      x y z
#    x 1.561820 0.000000 0.000000 
#    y 0.000000 1.561820 0.000000 
#    z 0.000000 0.000000 1.576100 
# 
# From -- ./inp_files/8067.got.cif
#   From: 2010.03.12/outbox.cif.g09.slc.cpg/sg191_5_cif.got.tgz:8067.got - 2010.04.01 12:09:02.
