data_PCOD8328242
_publ_section_title
;
Structure prediction by ZEFSAII (Michael W. Deem and Ramdas Pophale) SiO2 
 PCOD8328242
Probable space group: P 6/M M M
;
_chemical_formula_sum "Si O2"
_cell_formula_units_Z 120
_cell_length_a 28.382279
_cell_length_b 28.382279
_cell_length_c 11.925909
_cell_angle_alpha 90.000000
_cell_angle_beta 90.000000
_cell_angle_gamma 120.000000
_cell_volume 8319.872150
_symmetry_space_group_name_H-M "P 6/M M M"
_symmetry_group_IT_number 191
_symmetry_cell_setting 'hexagonal'
loop_
_space_group_symop_operation_xyz
x,y,z
x-y,x,z
-y,x-y,z
-x,-y,z
-x+y,-x,z
y,-x+y,z
x-y,-y,-z
-x,-x+y,-z
y,x,-z
-y,-x,-z
-x+y,y,-z
x,x-y,-z
-x,-y,-z
-x+y,-x,-z
y,-x+y,-z
x,y,-z
x-y,x,-z
-y,x-y,-z
-x+y,y,z
x,x-y,z
-y,-x,z
y,x,z
x-y,-y,z
-x,-x+y,z
loop_
_atom_site_type_symbol
_atom_site_label
_atom_site_fract_x
_atom_site_fract_y
_atom_site_fract_z
Si Si1 0.730157 0.565905 0.500000
Si Si2 0.757356 0.061834 0.737195
Si Si3 0.899710 0.205237 0.500000
Si Si4 0.063327 0.585828 0.126973
Si Si5 0.848251 0.696501 0.874505
Si Si6 0.566561 0.873528 0.262070
Si Si7 0.567305 0.783653 0.125556
O O1 0.770148 0.540296 0.500000
O O2 0.768296 0.630135 0.500000
O O3 0.692121 0.547935 0.390233
O O4 0.775713 0.062554 0.609332
O O5 0.811582 0.094751 0.811535
O O6 0.717927 0.086848 0.748824
O O7 0.724890 0.000000 0.780441
O O8 0.860123 0.139878 0.500000
O O9 0.080453 0.540227 0.141246
O O10 0.096359 0.632121 0.217145
O O11 0.000000 0.560749 0.152484
O O12 0.076208 0.609272 0.000000
O O13 0.815964 0.631928 0.875369
O O14 0.860204 0.720408 0.000000
O O15 0.546255 0.819067 0.189777
O O16 0.543486 0.771743 0.000000
#
# Coordination Sequence:
#
# PCOD8328242 Si02
#       7
#    12  24  12  24  12  24  12
#     4   9  16  27  42  63  88 119 139 169 218 263
#     4  10  18  27  42  61  81 110 146 180 211 246
#     4   9  15  27  43  57  79 109 141 176 211 243
#     4   9  18  32  47  62  85 119 154 187 223 260
#     4   9  18  29  37  53  83 112 138 172 213 250
#     4  10  17  28  44  64  89 114 147 180 219 260
#     4   9  16  25  41  63  85 108 139 182 220 253
#
# _framework density 14.423298000000001
#
# number of rings (size 3 to 8) (size 9 to 14) (size 15 to 20)
#    0.000    2.600    2.000    2.100    0.000    1.200 
#    0.000    2.000    0.000    1.200    0.000    0.000 
#    1.000    0.000    1.200    0.300    0.000    2.600 
#
# Total GULP energy -1487726.511071 kJ/mol
# GULP energy per Si atom -12397.720926 kJ/mol
# Density = 1.439047 g / cm^3
# Si number density = 14.423298 Si / 1000 Ang^3
#
#
#
# Elastic Constant Matrix: (Units=GPa)
#
#
# Indices 1 2 3 4 5 6 
#
# 1 69.9334 28.5870 44.6665 0.0000 0.0000 0.0000
# 2 28.5870 69.9334 44.6665 0.0000 0.0000 0.0000
# 3 44.6665 44.6665 130.8473 0.0000 0.0000 0.0000
# 4 0.0000 0.0000 0.0000 18.7859 0.0000 0.0000
# 5 0.0000 0.0000 0.0000 0.0000 18.7859 0.0000
# 6 0.0000 0.0000 0.0000 0.0000 0.0000 20.6732
#
#
#
# Elastic Compliance Matrix: (Units=1/GPa)
#
#
# Indices 1 2 3 4 5 6 
#
# 1 0.019443 -0.004743 -0.005018 0.000000 0.000000 0.000000
# 2 -0.004743 0.019443 -0.005018 0.000000 0.000000 0.000000
# 3 -0.005018 -0.005018 0.011069 0.000000 0.000000 0.000000
# 4 0.000000 0.000000 0.000000 0.053231 0.000000 0.000000
# 5 0.000000 0.000000 0.000000 0.000000 0.053231 0.000000
# 6 0.000000 0.000000 0.000000 0.000000 0.000000 0.048372
#
#
# Mechanical properties :
#
#
# Convention : Reuss Voigt Hill
#
# Bulk Modulus (GPa) = 49.02772 56.28377 52.65574
# Shear Modulus (GPa) = 20.73428 21.83529 21.28478
#
# Velocity S-wave (km/s) = 3.79562 3.89509 3.84568
# Velocity P-wave (km/s) = 7.29896 7.70302 7.50371
#
# Compressibility (1/GPa) = 0.02039662
#
# Stress axis : x y z
#
# Youngs Moduli (GPa) = 51.43206 51.43206 90.34624
#
# Poissons Ratio (x) = 0.24393 0.45337
# Poissons Ratio (y) = 0.24393 0.45337
# Poissons Ratio (z) = 0.25809 0.25809
#
# Static dielectric constant tensor:
#      x y z
#    x 2.561280 0.000000 0.000000 
#    y 0.000000 2.561280 0.000000 
#    z 0.000000 0.000000 3.063040 
# 
# 
# High freq. dielectric constant tensor:
#      x y z
#    x 1.520770 0.000000 0.000000 
#    y 0.000000 1.520770 0.000000 
#    z 0.000000 0.000000 1.566430 
# 
# From -- ./inp_files/3303.got.cif
#   From: 2010.03.12/outbox.cif.g09.slc.cpg/sg191_2_cif.got.tgz:3303.got - 2010.04.01 12:09:02.
