data_PCOD8328734
_publ_section_title
;
Structure prediction by ZEFSAII (Michael W. Deem and Ramdas Pophale) SiO2 
 PCOD8328734
Probable space group: P 6/M M M
;
_chemical_formula_sum "Si O2"
_cell_formula_units_Z 132
_cell_length_a 17.985145
_cell_length_b 17.985145
_cell_length_c 27.808944
_cell_angle_alpha 90.000000
_cell_angle_beta 90.000000
_cell_angle_gamma 120.000000
_cell_volume 7790.099707
_symmetry_space_group_name_H-M "P 6/M M M"
_symmetry_group_IT_number 191
_symmetry_cell_setting 'hexagonal'
loop_
_space_group_symop_operation_xyz
x,y,z
x-y,x,z
-y,x-y,z
-x,-y,z
-x+y,-x,z
y,-x+y,z
x-y,-y,-z
-x,-x+y,-z
y,x,-z
-y,-x,-z
-x+y,y,-z
x,x-y,-z
-x,-y,-z
-x+y,-x,-z
y,-x+y,-z
x,y,-z
x-y,x,-z
-y,x-y,-z
-x+y,y,z
x,x-y,z
-y,-x,z
y,x,z
x-y,-y,z
-x,-x+y,z
loop_
_atom_site_type_symbol
_atom_site_label
_atom_site_fract_x
_atom_site_fract_y
_atom_site_fract_z
Si Si1 0.903256 0.640870 0.054678
Si Si2 0.734383 0.638824 0.500000
Si Si3 0.365380 0.265225 0.773455
Si Si4 0.632811 0.098866 0.682709
Si Si5 0.668538 0.502575 0.579980
Si Si6 0.531751 0.632585 0.138390
O O1 0.839556 0.679111 0.062252
O O2 0.873166 0.558239 0.088492
O O3 0.000000 0.715925 0.067742
O O4 0.898682 0.609236 0.000000
O O5 0.721277 0.721277 0.500000
O O6 0.836025 0.672049 0.500000
O O7 0.688429 0.583302 0.547178
O O8 0.322787 0.161394 0.774210
O O9 0.291153 0.291153 0.777641
O O10 0.419433 0.299805 0.724897
O O11 0.433144 0.302744 0.816955
O O12 0.561647 0.123293 0.700046
O O13 0.681809 0.151752 0.635647
O O14 0.586741 0.000000 0.668102
O O15 0.735016 0.470031 0.567215
O O16 0.572494 0.427507 0.569184
O O17 0.427986 0.572015 0.140403
O O18 0.572014 0.572014 0.141411
#
# Coordination Sequence:
#
# PCOD8328734 Si02
#       6
#    24  12  24  24  24  24
#     4   9  17  29  46  68  93 122 157 195 232 270
#     4  10  21  35  51  70  91 117 150 190 233 275
#     4  10  19  31  48  69  93 121 155 193 231 272
#     4   9  17  29  46  67  90 119 156 196 234 271
#     4  10  19  30  45  67  97 130 161 190 221 260
#     4   9  17  29  46  67  88 111 142 181 224 270
#
# _framework density 16.944585
#
# number of rings (size 3 to 8) (size 9 to 14) (size 15 to 20)
#    0.000    2.545    0.000    2.636    0.000    4.000 
#    0.000    2.727    0.000    8.091    0.000    1.273 
#    0.000    4.364    0.000    6.000    0.000    0.000 
#
# Total GULP energy -1636284.043912 kJ/mol
# GULP energy per Si atom -12396.091242 kJ/mol
# Density = 1.690602 g / cm^3
# Si number density = 16.944585 Si / 1000 Ang^3
#
#
#
# Elastic Constant Matrix: (Units=GPa)
#
#
# Indices 1 2 3 4 5 6 
#
# 1 93.3093 53.7874 39.6454 0.0000 0.0000 0.0000
# 2 53.7874 93.3093 39.6454 0.0000 0.0000 0.0000
# 3 39.6454 39.6454 83.8253 0.0000 0.0000 0.0000
# 4 0.0000 0.0000 0.0000 18.8182 0.0000 0.0000
# 5 0.0000 0.0000 0.0000 0.0000 18.8182 0.0000
# 6 0.0000 0.0000 0.0000 0.0000 0.0000 19.7610
#
#
#
# Elastic Compliance Matrix: (Units=1/GPa)
#
#
# Indices 1 2 3 4 5 6 
#
# 1 0.017213 -0.008089 -0.004315 0.000000 0.000000 0.000000
# 2 -0.008089 0.017213 -0.004315 0.000000 0.000000 0.000000
# 3 -0.004315 -0.004315 0.016012 0.000000 0.000000 0.000000
# 4 0.000000 0.000000 0.000000 0.053140 0.000000 0.000000
# 5 0.000000 0.000000 0.000000 0.000000 0.053140 0.000000
# 6 0.000000 0.000000 0.000000 0.000000 0.000000 0.050605
#
#
# Mechanical properties :
#
#
# Convention : Reuss Voigt Hill
#
# Bulk Modulus (GPa) = 58.82796 59.62226 59.22511
# Shear Modulus (GPa) = 20.28980 20.63719 20.46350
#
# Velocity S-wave (km/s) = 3.46413 3.49366 3.47893
# Velocity P-wave (km/s) = 7.12696 7.17894 7.15300
#
# Compressibility (1/GPa) = 0.01699872
#
# Stress axis : x y z
#
# Youngs Moduli (GPa) = 58.09422 58.09422 62.45486
#
# Poissons Ratio (x) = 0.46992 0.26952
# Poissons Ratio (y) = 0.46992 0.26952
# Poissons Ratio (z) = 0.25070 0.25070
#
# Static dielectric constant tensor:
#      x y z
#    x 3.059550 0.000000 0.000000 
#    y 0.000000 3.059550 0.000000 
#    z 0.000000 0.000000 3.343630 
# 
# 
# High freq. dielectric constant tensor:
#      x y z
#    x 1.631470 0.000000 0.000000 
#    y 0.000000 1.631470 0.000000 
#    z 0.000000 0.000000 1.671710 
# 
# From -- ./inp_files/9743.got.cif
#   From: 2010.03.12/outbox.cif.g09.slc.cpg/sg191_5_cif.got.tgz:9743.got - 2010.04.01 12:09:02.
