data_PCOD8328174
_publ_section_title
;
Structure prediction by ZEFSAII (Michael W. Deem and Ramdas Pophale) SiO2 
 PCOD8328174
Probable space group: P -6 2 C
;
_chemical_formula_sum "Si O2"
_cell_formula_units_Z 68
_cell_length_a 11.607230
_cell_length_b 11.607230
_cell_length_c 27.249398
_cell_angle_alpha 90.000000
_cell_angle_beta 90.000000
_cell_angle_gamma 120.000000
_cell_volume 3179.396737
_symmetry_space_group_name_H-M "P -6 2 C"
_symmetry_group_IT_number 190
_symmetry_cell_setting 'hexagonal'
loop_
_space_group_symop_operation_xyz
x,y,z
-x+y,-x,1/2-z
-y,x-y,z
x,y,1/2-z
-x+y,-x,z
-y,x-y,1/2-z
x-y,-y,-z
-x,-x+y,-z
y,x,-z
y,x,1/2+z
x-y,-y,1/2+z
-x,-x+y,1/2+z
loop_
_atom_site_type_symbol
_atom_site_label
_atom_site_fract_x
_atom_site_fract_y
_atom_site_fract_z
Si Si1 0.333334 0.666667 0.646964
Si Si2 0.736842 0.738454 0.153860
Si Si3 0.478853 0.531451 0.806756
Si Si4 0.001369 0.752479 0.307822
Si Si5 0.885511 0.539004 0.530315
Si Si6 0.674591 0.614671 0.946673
Si Si7 0.333334 0.666667 0.532393
O O1 0.187013 0.563851 0.664376
O O2 0.333334 0.666667 0.589434
O O3 0.596882 0.635688 0.180747
O O4 0.857556 0.723756 0.174770
O O5 0.722510 0.703307 0.095682
O O6 0.764706 0.886587 0.162967
O O7 0.457491 0.546455 0.750000
O O8 0.391596 0.375932 0.821141
O O9 0.017367 0.783503 0.250000
O O10 0.943016 0.464859 0.565122
O O11 0.794444 0.582245 0.558965
O O12 0.813457 0.427414 0.488121
O O13 0.000000 0.663819 0.500000
O O14 0.676864 0.676864 0.000000
#
# Coordination Sequence:
#
# PCOD8328174 Si02
#       7
#     4  12  12  12  12  12   4
#     4  12  22  34  72 102 132 156 228 289 352 394
#     4  12  26  44  72  99 137 182 238 272 352 418
#     4  11  24  42  66  98 132 168 222 292 347 400
#     4  11  25  46  71  99 136 183 229 285 348 417
#     4   9  20  39  63  83 138 175 209 272 333 386
#     4  10  24  41  62 100 132 175 231 276 338 412
#     4   9  21  34  55  99 120 171 214 253 333 412
#
# _framework density 21.387705
#
# number of rings (size 3 to 8) (size 9 to 14) (size 15 to 20)
#    0.000    1.412    1.765    2.824    9.882    1.412 
#    1.059    0.000    0.000    0.353    0.000    0.000 
#    0.000    0.000    0.000    0.000    0.000    0.000 
#
# Total GULP energy -843014.318390 kJ/mol
# GULP energy per Si atom -12397.269388 kJ/mol
# Density = 2.133903 g / cm^3
# Si number density = 21.387705 Si / 1000 Ang^3
#
#
#
# Elastic Constant Matrix: (Units=GPa)
#
#
# Indices 1 2 3 4 5 6 
#
# 1 131.9745 -27.5609 21.1054 -0.0004 -0.0003 0.0140
# 2 -27.5609 131.9770 21.1030 0.0004 0.0002 -0.0128
# 3 21.1054 21.1030 93.0701 0.0000 0.0000 -0.0010
# 4 -0.0004 0.0004 0.0000 26.7024 0.0000 -0.0003
# 5 -0.0003 0.0002 0.0000 0.0000 26.7023 0.0004
# 6 0.0140 -0.0128 -0.0010 -0.0003 0.0004 79.7466
#
#
#
# Elastic Compliance Matrix: (Units=1/GPa)
#
#
# Indices 1 2 3 4 5 6 
#
# 1 0.008406 0.002138 -0.002391 0.000000 0.000000 -0.000001
# 2 0.002138 0.008406 -0.002391 0.000000 0.000000 0.000001
# 3 -0.002391 -0.002391 0.011829 0.000000 0.000000 0.000000
# 4 0.000000 0.000000 0.000000 0.037450 0.000000 0.000000
# 5 0.000000 0.000000 0.000000 0.000000 0.037450 0.000000
# 6 -0.000001 0.000001 0.000000 0.000000 0.000000 0.012540
#
#
# Mechanical properties :
#
#
# Convention : Reuss Voigt Hill
#
# Bulk Modulus (GPa) = 42.82140 42.92408 42.87274
# Shear Modulus (GPa) = 38.71400 49.45519 44.08460
#
# Velocity S-wave (km/s) = 4.25915 4.81387 4.54498
# Velocity P-wave (km/s) = 6.65223 7.14219 6.90156
#
# Compressibility (1/GPa) = 0.02335281
#
# Stress axis : x y z
#
# Youngs Moduli (GPa) = 118.96242 118.96572 84.53899
#
# Poissons Ratio (x) = -0.25432 0.20213
# Poissons Ratio (y) = -0.25431 0.20211
# Poissons Ratio (z) = 0.28443 0.28441
#
# Static dielectric constant tensor:
#      x y z
#    x 3.716300 0.000090 0.000000 
#    y 0.000090 3.716660 0.000000 
#    z 0.000000 0.000000 3.743490 
# 
# 
# High freq. dielectric constant tensor:
#      x y z
#    x 1.839580 0.000000 0.000000 
#    y 0.000000 1.839580 0.000000 
#    z 0.000000 0.000000 1.837380 
# 
# From -- ./inp_files/5156.got.cif
#   From: 2010.06.25/outbox.cif.g09.slc.cpg/sg190_3_cif.got.tgz:5156.got - 2010.06.28 13:08:06.
