data_PCOD8328218
_publ_section_title
;
Structure prediction by ZEFSAII (Michael W. Deem and Ramdas Pophale) SiO2 
 PCOD8328218
Probable space group: P 6/M M M
;
_chemical_formula_sum "Si O2"
_cell_formula_units_Z 120
_cell_length_a 27.084020
_cell_length_b 27.084020
_cell_length_c 11.552522
_cell_angle_alpha 90.000000
_cell_angle_beta 90.000000
_cell_angle_gamma 120.000000
_cell_volume 7338.945923
_symmetry_space_group_name_H-M "P 6/M M M"
_symmetry_group_IT_number 191
_symmetry_cell_setting 'hexagonal'
loop_
_space_group_symop_operation_xyz
x,y,z
x-y,x,z
-y,x-y,z
-x,-y,z
-x+y,-x,z
y,-x+y,z
x-y,-y,-z
-x,-x+y,-z
y,x,-z
-y,-x,-z
-x+y,y,-z
x,x-y,-z
-x,-y,-z
-x+y,-x,-z
y,-x+y,-z
x,y,-z
x-y,x,-z
-y,x-y,-z
-x+y,y,z
x,x-y,z
-y,-x,z
y,x,z
x-y,-y,z
-x,-x+y,z
loop_
_atom_site_type_symbol
_atom_site_label
_atom_site_fract_x
_atom_site_fract_y
_atom_site_fract_z
Si Si1 0.564196 0.840315 0.235972
Si Si2 0.738292 0.938741 0.000000
Si Si3 0.234304 0.171297 0.746447
Si Si4 0.725218 0.064647 0.633580
Si Si5 0.141005 0.390976 0.000000
Si Si6 0.220280 0.666867 0.132543
O O1 0.577895 0.788948 0.254044
O O2 0.595033 0.888167 0.335348
O O3 0.589401 0.875586 0.116858
O O4 0.496328 0.815417 0.226565
O O5 0.769702 0.934822 0.114630
O O6 0.675907 0.886804 0.000000
O O7 0.740707 0.000000 0.000000
O O8 0.220860 0.110430 0.693712
O O9 0.188250 0.188250 0.699410
O O10 0.297654 0.219919 0.709965
O O11 0.743077 0.071956 0.500000
O O12 0.673669 0.000000 0.657504
O O13 0.209923 0.419845 0.000000
O O14 0.211183 0.605592 0.165519
O O15 0.286896 0.713105 0.143630
O O16 0.199978 0.667536 0.000000
#
# Coordination Sequence:
#
# PCOD8328218 Si02
#       6
#    24  12  24  24  12  24
#     4  10  18  28  46  70  96 125 154 186 225 268
#     4  10  18  26  41  65  90 119 150 178 221 275
#     4  10  19  30  45  65  90 118 148 184 226 273
#     4  10  21  34  47  66  91 119 152 190 231 275
#     4  10  16  24  39  63  93 118 143 178 221 269
#     4   9  16  27  45  72 103 131 155 182 220 265
#
# _framework density 16.351122
#
# number of rings (size 3 to 8) (size 9 to 14) (size 15 to 20)
#    0.000    2.200    3.000    1.700    0.000    2.400 
#    0.000    0.000    0.000    1.400    0.000    2.800 
#    0.000    4.000    0.000    5.000    0.000    0.000 
#
# Total GULP energy -1486918.434858 kJ/mol
# GULP energy per Si atom -12390.986957 kJ/mol
# Density = 1.631391 g / cm^3
# Si number density = 16.351122 Si / 1000 Ang^3
#
#
#
# Elastic Constant Matrix: (Units=GPa)
#
#
# Indices 1 2 3 4 5 6 
#
# 1 95.9194 46.8409 24.8885 0.0000 0.0000 0.0000
# 2 46.8409 95.9194 24.8885 0.0000 0.0000 0.0000
# 3 24.8885 24.8885 55.0905 0.0000 0.0000 0.0000
# 4 0.0000 0.0000 0.0000 15.4080 0.0000 0.0000
# 5 0.0000 0.0000 0.0000 0.0000 15.4080 0.0000
# 6 0.0000 0.0000 0.0000 0.0000 0.0000 24.5392
#
#
#
# Elastic Compliance Matrix: (Units=1/GPa)
#
#
# Indices 1 2 3 4 5 6 
#
# 1 0.014345 -0.006031 -0.003756 0.000000 0.000000 0.000000
# 2 -0.006031 0.014345 -0.003756 0.000000 0.000000 0.000000
# 3 -0.003756 -0.003756 0.021546 0.000000 0.000000 0.000000
# 4 0.000000 0.000000 0.000000 0.064901 0.000000 0.000000
# 5 0.000000 0.000000 0.000000 0.000000 0.064901 0.000000
# 6 0.000000 0.000000 0.000000 0.000000 0.000000 0.040751
#
#
# Mechanical properties :
#
#
# Convention : Reuss Voigt Hill
#
# Bulk Modulus (GPa) = 43.19692 48.90722 46.05207
# Shear Modulus (GPa) = 19.56241 21.09181 20.32711
#
# Velocity S-wave (km/s) = 3.46265 3.59546 3.52968
# Velocity P-wave (km/s) = 6.51631 6.87110 6.69605
#
# Compressibility (1/GPa) = 0.02314980
#
# Stress axis : x y z
#
# Youngs Moduli (GPa) = 69.71067 69.71067 46.41251
#
# Poissons Ratio (x) = 0.42039 0.17434
# Poissons Ratio (y) = 0.42039 0.17434
# Poissons Ratio (z) = 0.26185 0.26185
#
# Static dielectric constant tensor:
#      x y z
#    x 2.994970 0.000000 0.000000 
#    y 0.000000 2.994970 0.000000 
#    z 0.000000 0.000000 2.990390 
# 
# 
# High freq. dielectric constant tensor:
#      x y z
#    x 1.609310 0.000000 0.000000 
#    y 0.000000 1.609310 0.000000 
#    z 0.000000 0.000000 1.613860 
# 
# From -- ./inp_files/3203.got.cif
#   From: 2010.03.12/outbox.cif.g09.slc.cpg/sg191_2_cif.got.tgz:3203.got - 2010.04.01 12:09:02.
