data_PCOD8328122
_publ_section_title
;
Structure prediction by ZEFSAII (Michael W. Deem and Ramdas Pophale) SiO2 
 PCOD8328122
Probable space group: P -6 2 C
;
_chemical_formula_sum "Si O2"
_cell_formula_units_Z 52
_cell_length_a 12.573560
_cell_length_b 12.573560
_cell_length_c 18.730428
_cell_angle_alpha 90.000000
_cell_angle_beta 90.000000
_cell_angle_gamma 120.000000
_cell_volume 2564.453627
_symmetry_space_group_name_H-M "P -6 2 C"
_symmetry_group_IT_number 190
_symmetry_cell_setting 'hexagonal'
loop_
_space_group_symop_operation_xyz
x,y,z
-x+y,-x,1/2-z
-y,x-y,z
x,y,1/2-z
-x+y,-x,z
-y,x-y,1/2-z
x-y,-y,-z
-x,-x+y,-z
y,x,-z
y,x,1/2+z
x-y,-y,1/2+z
-x,-x+y,1/2+z
loop_
_atom_site_type_symbol
_atom_site_label
_atom_site_fract_x
_atom_site_fract_y
_atom_site_fract_z
Si Si1 0.060761 0.610985 0.750000
Si Si2 0.324035 0.191513 0.518157
Si Si3 0.421508 0.499106 0.389678
Si Si4 0.666668 0.333334 0.665727
Si Si5 0.304445 0.967996 0.597268
Si Si6 0.882221 0.280099 0.250000
O O1 0.123845 0.527758 0.750000
O O2 0.166473 0.748632 0.750000
O O3 0.980223 0.589035 0.678869
O O4 0.206297 0.206297 0.500000
O O5 0.430390 0.321508 0.548712
O O6 0.369618 0.157016 0.445252
O O7 0.285533 0.080409 0.573239
O O8 0.423363 0.621518 0.363571
O O9 0.559020 0.549934 0.419480
O O10 0.666667 0.333334 0.750000
O O11 0.274879 0.954319 0.680853
#
# Coordination Sequence:
#
# PCOD8328122 Si02
#       6
#     6  12  12   4  12   6
#     4  10  21  37  67  97 133 176 216 270 344 400
#     4  11  24  41  64  94 132 177 221 275 340 399
#     4  11  22  38  67  99 136 172 221 278 341 406
#     4  12  21  36  63 108 135 172 215 283 342 393
#     4  10  24  44  64  98 132 175 226 279 331 409
#     4  10  21  43  65  95 135 170 220 278 328 402
#
# _framework density 20.277225000000001
#
# number of rings (size 3 to 8) (size 9 to 14) (size 15 to 20)
#    0.000    1.385    3.462    1.615    3.231    0.923 
#    5.538    1.154    5.077    0.000    0.000    0.000 
#    0.000    0.000    0.000    0.000    0.000    0.000 
#
# Total GULP energy -644807.668105 kJ/mol
# GULP energy per Si atom -12400.147464 kJ/mol
# Density = 2.023107 g / cm^3
# Si number density = 20.277225 Si / 1000 Ang^3
#
#
#
# Elastic Constant Matrix: (Units=GPa)
#
#
# Indices 1 2 3 4 5 6 
#
# 1 48.2929 111.4914 68.5195 0.0048 0.0031 0.1710
# 2 111.4914 48.3068 68.5247 -0.0050 -0.0030 -0.1712
# 3 68.5195 68.5247 160.3275 0.0000 0.0001 0.0025
# 4 0.0048 -0.0050 0.0000 35.9804 -0.0001 0.0031
# 5 0.0031 -0.0030 0.0001 -0.0001 35.9808 -0.0050
# 6 0.1710 -0.1712 0.0025 0.0031 -0.0050 -32.2352
#
#
#
# Elastic Compliance Matrix: (Units=1/GPa)
#
#
# Indices 1 2 3 4 5 6 
#
# 1 -0.002974 0.012852 -0.004222 0.000002 0.000001 -0.000084
# 2 0.012852 -0.002972 -0.004222 -0.000002 -0.000001 0.000084
# 3 -0.004222 -0.004222 0.009846 0.000000 0.000000 0.000001
# 4 0.000002 -0.000002 0.000000 0.027793 0.000000 0.000003
# 5 0.000001 -0.000001 0.000000 0.000000 0.027793 -0.000004
# 6 -0.000084 0.000084 0.000001 0.000003 -0.000004 -0.031023
#
#
# Mechanical properties :
#
#
# Convention : Reuss Voigt Hill
#
# Bulk Modulus (GPa) = 78.64192 83.77761 81.20976
# Shear Modulus (GPa) = 209.32348 8.50462 108.91405
#
# Velocity S-wave (km/s) = 10.17128 2.05019 7.33683
# Velocity P-wave (km/s) = 13.29690 6.85640 10.57870
#
# Compressibility (1/GPa) = 0.01271586
#
# Stress axis : x y z
#
# Youngs Moduli (GPa) = -336.28215 -336.44969 101.55989
#
# Poissons Ratio (x) = 4.32419 0.42882
# Poissons Ratio (y) = 4.32203 0.42883
# Poissons Ratio (z) = -1.41989 -1.42063
#
# Static dielectric constant tensor:
#      x y z
#    x 4.198200 0.001220 -0.000050 
#    y 0.001220 4.202140 -0.000050 
#    z -0.000050 -0.000050 3.968690 
# 
# 
# High freq. dielectric constant tensor:
#      x y z
#    x 1.786250 0.000000 0.000000 
#    y 0.000000 1.786250 0.000000 
#    z 0.000000 0.000000 1.809040 
# 
# From -- ./inp_files/4229.got.cif
#   From: 2010.06.25/outbox.cif.g09.slc.cpg/sg190_3_cif.got.tgz:4229.got - 2010.06.28 13:08:06.
