data_PCOD8328785
_publ_section_title
;
Structure prediction by ZEFSAII (Michael W. Deem and Ramdas Pophale) SiO2 
 PCOD8328785
Probable space group: P 6/M M M
;
_chemical_formula_sum "Si O2"
_cell_formula_units_Z 108
_cell_length_a 17.953167
_cell_length_b 17.953167
_cell_length_c 24.630180
_cell_angle_alpha 90.000000
_cell_angle_beta 90.000000
_cell_angle_gamma 120.000000
_cell_volume 6875.121203
_symmetry_space_group_name_H-M "P 6/M M M"
_symmetry_group_IT_number 191
_symmetry_cell_setting 'hexagonal'
loop_
_space_group_symop_operation_xyz
x,y,z
x-y,x,z
-y,x-y,z
-x,-y,z
-x+y,-x,z
y,-x+y,z
x-y,-y,-z
-x,-x+y,-z
y,x,-z
-y,-x,-z
-x+y,y,-z
x,x-y,-z
-x,-y,-z
-x+y,-x,-z
y,-x+y,-z
x,y,-z
x-y,x,-z
-y,x-y,-z
-x+y,y,z
x,x-y,z
-y,-x,z
y,x,z
x-y,-y,z
-x,-x+y,z
loop_
_atom_site_type_symbol
_atom_site_label
_atom_site_fract_x
_atom_site_fract_y
_atom_site_fract_z
Si Si1 0.646442 0.742604 0.350427
Si Si2 0.898068 0.531493 0.559880
Si Si3 0.490941 0.331988 0.866218
Si Si4 0.588250 0.000000 0.939253
Si Si5 0.637857 0.735095 0.227500
O O1 0.691685 0.845843 0.353284
O O2 0.718536 0.718536 0.366458
O O3 0.567263 0.703559 0.392559
O O4 0.609775 0.709998 0.290059
O O5 0.870628 0.547523 0.500000
O O6 0.859290 0.429645 0.568825
O O7 0.000000 0.578188 0.563787
O O8 0.498184 0.249092 0.882982
O O9 0.585456 0.414545 0.864987
O O10 0.428259 0.341647 0.909101
O O11 0.448332 0.321038 0.807164
O O12 0.500000 0.000000 0.940842
O O13 0.621796 0.000000 0.000000
O O14 0.674270 0.837135 0.217078
O O15 0.711825 0.711825 0.212042
#
# Coordination Sequence:
#
# PCOD8328785 Si02
#       5
#    24  24  24  12  24
#     4   9  17  28  43  64  88 115 148 185 224 265
#     4   8  14  25  40  58  80 106 138 177 219 262
#     4  10  19  31  47  68  94 123 153 186 225 268
#     4   9  18  32  48  66  90 120 152 186 220 254
#     4   9  17  29  45  65  89 117 149 186 228 271
#
# _framework density 15.708812999999999
#
# number of rings (size 3 to 8) (size 9 to 14) (size 15 to 20)
#    0.000    3.000    1.111    0.889    0.000    1.778 
#    0.000    2.222    0.000    2.222    0.000    3.111 
#    0.000    0.000    0.000    5.556    0.000   15.889 
#
# Total GULP energy -1338287.344002 kJ/mol
# GULP energy per Si atom -12391.549481 kJ/mol
# Density = 1.567306 g / cm^3
# Si number density = 15.708813 Si / 1000 Ang^3
#
#
#
# Elastic Constant Matrix: (Units=GPa)
#
#
# Indices 1 2 3 4 5 6 
#
# 1 88.4653 51.2197 49.3231 0.0000 0.0000 0.0000
# 2 51.2197 88.4653 49.3231 0.0000 0.0000 0.0000
# 3 49.3231 49.3231 99.1015 0.0000 0.0000 0.0000
# 4 0.0000 0.0000 0.0000 18.1778 0.0000 0.0000
# 5 0.0000 0.0000 0.0000 0.0000 18.1778 0.0000
# 6 0.0000 0.0000 0.0000 0.0000 0.0000 18.6228
#
#
#
# Elastic Compliance Matrix: (Units=1/GPa)
#
#
# Indices 1 2 3 4 5 6 
#
# 1 0.018944 -0.007905 -0.005494 0.000000 0.000000 0.000000
# 2 -0.007905 0.018944 -0.005494 0.000000 0.000000 0.000000
# 3 -0.005494 -0.005494 0.015560 0.000000 0.000000 0.000000
# 4 0.000000 0.000000 0.000000 0.055012 0.000000 0.000000
# 5 0.000000 0.000000 0.000000 0.000000 0.055012 0.000000
# 6 0.000000 0.000000 0.000000 0.000000 0.000000 0.053698
#
#
# Mechanical properties :
#
#
# Convention : Reuss Voigt Hill
#
# Bulk Modulus (GPa) = 63.85304 63.97377 63.91340
# Shear Modulus (GPa) = 19.21778 19.40676 19.31227
#
# Velocity S-wave (km/s) = 3.50147 3.51865 3.51007
# Velocity P-wave (km/s) = 7.55535 7.57106 7.56321
#
# Compressibility (1/GPa) = 0.01566096
#
# Stress axis : x y z
#
# Youngs Moduli (GPa) = 52.78748 52.78748 64.26922
#
# Poissons Ratio (x) = 0.41728 0.35310
# Poissons Ratio (y) = 0.41728 0.35310
# Poissons Ratio (z) = 0.29002 0.29002
#
# Static dielectric constant tensor:
#      x y z
#    x 2.951650 0.000000 0.000000 
#    y 0.000000 2.951650 0.000000 
#    z 0.000000 0.000000 3.236460 
# 
# 
# High freq. dielectric constant tensor:
#      x y z
#    x 1.584440 0.000000 0.000000 
#    y 0.000000 1.584440 0.000000 
#    z 0.000000 0.000000 1.611520 
# 
# From -- ./inp_files/8334.got.cif
#   From: 2010.03.12/outbox.cif.g09.slc.cpg/sg191_5_cif.got.tgz:8334.got - 2010.04.01 12:09:02.
