data_PCOD8328570
_publ_section_title
;
Structure prediction by ZEFSAII (Michael W. Deem and Ramdas Pophale) SiO2 
 PCOD8328570
Probable space group: P 6/M M M
;
_chemical_formula_sum "Si O2"
_cell_formula_units_Z 108
_cell_length_a 31.677129
_cell_length_b 31.677129
_cell_length_c 9.023742
_cell_angle_alpha 90.000000
_cell_angle_beta 90.000000
_cell_angle_gamma 120.000000
_cell_volume 7841.676607
_symmetry_space_group_name_H-M "P 6/M M M"
_symmetry_group_IT_number 191
_symmetry_cell_setting 'hexagonal'
loop_
_space_group_symop_operation_xyz
x,y,z
x-y,x,z
-y,x-y,z
-x,-y,z
-x+y,-x,z
y,-x+y,z
x-y,-y,-z
-x,-x+y,-z
y,x,-z
-y,-x,-z
-x+y,y,-z
x,x-y,-z
-x,-y,-z
-x+y,-x,-z
y,-x+y,-z
x,y,-z
x-y,x,-z
-y,x-y,-z
-x+y,y,z
x,x-y,z
-y,-x,z
y,x,z
x-y,-y,z
-x,-x+y,z
loop_
_atom_site_type_symbol
_atom_site_label
_atom_site_fract_x
_atom_site_fract_y
_atom_site_fract_z
Si Si1 0.470900 0.941800 0.667366
Si Si2 0.946400 0.800858 0.176310
Si Si3 0.057859 0.611355 0.833476
Si Si4 0.796658 0.106516 0.171872
Si Si5 0.304564 0.944016 0.674609
O O1 0.460957 0.921914 0.500000
O O2 0.501918 0.921137 0.750174
O O3 0.500000 0.000000 0.668195
O O4 0.909132 0.818263 0.234916
O O5 0.927303 0.745631 0.226049
O O6 0.000000 0.835949 0.244181
O O7 0.947869 0.802889 0.000000
O O8 0.074626 0.661472 0.747287
O O9 0.000000 0.579788 0.836441
O O10 0.078943 0.623095 0.000000
O O11 0.836825 0.163176 0.197218
O O12 0.749735 0.092171 0.270205
O O13 0.781427 0.096696 0.000000
O O14 0.307109 0.939448 0.500000
O O15 0.322542 0.000000 0.721071
#
# Coordination Sequence:
#
# PCOD8328570 Si02
#       5
#    12  24  24  24  24
#     4   9  15  23  35  51  73  97 121 153 189 219
#     4   8  13  21  34  51  68  86 110 141 177 218
#     4   9  16  25  37  52  70  95 126 156 184 214
#     4   9  17  28  41  55  69  89 120 155 189 227
#     4  10  19  28  38  54  75  97 121 151 190 231
#
# _framework density 13.772563999999999
#
# number of rings (size 3 to 8) (size 9 to 14) (size 15 to 20)
#    0.000    3.000    0.000    3.667    0.000    6.667 
#    0.000    0.000    0.000    0.222    0.000    1.556 
#    0.000    0.000    0.000    0.000    0.000    0.000 
#
# Total GULP energy -1338779.885965 kJ/mol
# GULP energy per Si atom -12396.110055 kJ/mol
# Density = 1.374122 g / cm^3
# Si number density = 13.772564 Si / 1000 Ang^3
#
#
#
# Elastic Constant Matrix: (Units=GPa)
#
#
# Indices 1 2 3 4 5 6 
#
# 1 85.2986 44.0858 36.9471 0.0000 0.0000 0.0000
# 2 44.0858 85.2986 36.9471 0.0000 0.0000 0.0000
# 3 36.9471 36.9471 75.0157 0.0000 0.0000 0.0000
# 4 0.0000 0.0000 0.0000 15.1241 0.0000 0.0000
# 5 0.0000 0.0000 0.0000 0.0000 15.1241 0.0000
# 6 0.0000 0.0000 0.0000 0.0000 0.0000 20.6064
#
#
#
# Elastic Compliance Matrix: (Units=1/GPa)
#
#
# Indices 1 2 3 4 5 6 
#
# 1 0.017509 -0.006755 -0.005297 0.000000 0.000000 0.000000
# 2 -0.006755 0.017509 -0.005297 0.000000 0.000000 0.000000
# 3 -0.005297 -0.005297 0.018548 0.000000 0.000000 0.000000
# 4 0.000000 0.000000 0.000000 0.066120 0.000000 0.000000
# 5 0.000000 0.000000 0.000000 0.000000 0.066120 0.000000
# 6 0.000000 0.000000 0.000000 0.000000 0.000000 0.048529
#
#
# Mechanical properties :
#
#
# Convention : Reuss Voigt Hill
#
# Bulk Modulus (GPa) = 52.99570 53.50811 53.25190
# Shear Modulus (GPa) = 18.16067 18.67979 18.42023
#
# Velocity S-wave (km/s) = 3.63521 3.68680 3.66110
# Velocity P-wave (km/s) = 7.49549 7.55373 7.52467
#
# Compressibility (1/GPa) = 0.01886946
#
# Stress axis : x y z
#
# Youngs Moduli (GPa) = 57.11316 57.11316 53.91448
#
# Poissons Ratio (x) = 0.38581 0.28556
# Poissons Ratio (y) = 0.38581 0.28556
# Poissons Ratio (z) = 0.30250 0.30250
#
# Static dielectric constant tensor:
#      x y z
#    x 2.659030 0.000000 0.000000 
#    y 0.000000 2.659030 0.000000 
#    z 0.000000 0.000000 2.657660 
# 
# 
# High freq. dielectric constant tensor:
#      x y z
#    x 1.498280 0.000000 0.000000 
#    y 0.000000 1.498280 0.000000 
#    z 0.000000 0.000000 1.520920 
# 
# From -- ./inp_files/1724.got.cif
#   From: 2010.03.12/outbox.cif.g09.slc.cpg/sg191_1_cif.got.tgz:1724.got - 2010.04.01 12:09:02.
