data_PCOD8328251
_publ_section_title
;
Structure prediction by ZEFSAII (Michael W. Deem and Ramdas Pophale) SiO2 
 PCOD8328251
Probable space group: P 6/M M M
;
_chemical_formula_sum "Si O2"
_cell_formula_units_Z 108
_cell_length_a 30.067025
_cell_length_b 30.067025
_cell_length_c 7.892217
_cell_angle_alpha 90.000000
_cell_angle_beta 90.000000
_cell_angle_gamma 120.000000
_cell_volume 6178.891469
_symmetry_space_group_name_H-M "P 6/M M M"
_symmetry_group_IT_number 191
_symmetry_cell_setting 'hexagonal'
loop_
_space_group_symop_operation_xyz
x,y,z
x-y,x,z
-y,x-y,z
-x,-y,z
-x+y,-x,z
y,-x+y,z
x-y,-y,-z
-x,-x+y,-z
y,x,-z
-y,-x,-z
-x+y,y,-z
x,x-y,-z
-x,-y,-z
-x+y,-x,-z
y,-x+y,-z
x,y,-z
x-y,x,-z
-y,x-y,-z
-x+y,y,z
x,x-y,z
-y,-x,z
y,x,z
x-y,-y,z
-x,-x+y,z
loop_
_atom_site_type_symbol
_atom_site_label
_atom_site_fract_x
_atom_site_fract_y
_atom_site_fract_z
Si Si1 0.511343 0.704500 0.808302
Si Si2 0.000000 0.805817 0.806107
Si Si3 0.786001 0.893001 0.699788
Si Si4 0.000000 0.703347 0.302207
Si Si5 0.437636 0.770433 0.500000
Si Si6 0.836176 0.672352 0.700972
Si Si7 0.385085 0.106500 0.298239
O O1 0.529048 0.764524 0.775096
O O2 0.468552 0.670241 0.670620
O O3 0.558604 0.693740 0.785046
O O4 0.489607 0.688330 0.000000
O O5 0.951746 0.813018 0.760280
O O6 0.000000 0.756975 0.719551
O O7 0.000000 0.793978 0.000000
O O8 0.785084 0.892542 0.500000
O O9 0.729097 0.864549 0.778681
O O10 0.049010 0.701194 0.228160
O O11 0.000000 0.696016 0.500000
O O12 0.386926 0.773852 0.500000
O O13 0.422626 0.711313 0.500000
O O14 0.837953 0.675905 0.500000
O O15 0.863641 0.642693 0.768798
O O16 0.391299 0.108548 0.500000
#
# Coordination Sequence:
#
# PCOD8328251 Si02
#       7
#    24  12  12  12  12  12  24
#     4  10  20  33  53  81 110 144 186 227 272 327
#     4  12  24  36  50  77 109 134 171 227 282 328
#     4  11  21  39  57  72  96 141 187 217 263 335
#     4  10  20  32  50  76 109 150 189 222 267 329
#     4  10  21  38  60  85 115 147 181 220 267 319
#     4   9  16  25  51  75  98 137 182 222 257 307
#     4  10  17  30  49  75 109 146 186 227 266 315
#
# _framework density 17.478864000000002
#
# number of rings (size 3 to 8) (size 9 to 14) (size 15 to 20)
#    0.000    1.778    4.444    1.444    0.000    1.333 
#    0.000    0.000    0.000    1.556    0.000    3.111 
#    0.000    1.778    0.000    0.000    0.000    0.000 
#
# Total GULP energy -1338432.992028 kJ/mol
# GULP energy per Si atom -12392.898074 kJ/mol
# Density = 1.743908 g / cm^3
# Si number density = 17.478864 Si / 1000 Ang^3
#
#
#
# Elastic Constant Matrix: (Units=GPa)
#
#
# Indices 1 2 3 4 5 6 
#
# 1 124.4337 55.3751 37.0041 0.0000 0.0000 0.0000
# 2 55.3751 124.4337 37.0041 0.0000 0.0000 0.0000
# 3 37.0041 37.0041 78.4402 0.0000 0.0000 0.0000
# 4 0.0000 0.0000 0.0000 9.9014 0.0000 0.0000
# 5 0.0000 0.0000 0.0000 0.0000 9.9014 0.0000
# 6 0.0000 0.0000 0.0000 0.0000 0.0000 34.5293
#
#
#
# Elastic Compliance Matrix: (Units=1/GPa)
#
#
# Indices 1 2 3 4 5 6 
#
# 1 0.010691 -0.003789 -0.003256 0.000000 0.000000 0.000000
# 2 -0.003789 0.010691 -0.003256 0.000000 0.000000 0.000000
# 3 -0.003256 -0.003256 0.015820 0.000000 0.000000 0.000000
# 4 0.000000 0.000000 0.000000 0.100996 0.000000 0.000000
# 5 0.000000 0.000000 0.000000 0.000000 0.100996 0.000000
# 6 0.000000 0.000000 0.000000 0.000000 0.000000 0.028961
#
#
# Mechanical properties :
#
#
# Convention : Reuss Voigt Hill
#
# Bulk Modulus (GPa) = 60.23991 65.11937 62.67964
# Shear Modulus (GPa) = 16.98999 24.06136 20.52567
#
# Velocity S-wave (km/s) = 3.12112 3.71428 3.43054
# Velocity P-wave (km/s) = 6.89404 7.46535 7.18537
#
# Compressibility (1/GPa) = 0.01660029
#
# Stress axis : x y z
#
# Youngs Moduli (GPa) = 93.53668 93.53668 63.20947
#
# Poissons Ratio (x) = 0.35445 0.20580
# Poissons Ratio (y) = 0.35445 0.20580
# Poissons Ratio (z) = 0.30454 0.30454
#
# Static dielectric constant tensor:
#      x y z
#    x 3.191120 0.000000 0.000000 
#    y 0.000000 3.191120 0.000000 
#    z 0.000000 0.000000 3.190970 
# 
# 
# High freq. dielectric constant tensor:
#      x y z
#    x 1.653760 0.000000 0.000000 
#    y 0.000000 1.653760 0.000000 
#    z 0.000000 0.000000 1.677260 
# 
# From -- ./inp_files/1807.got.cif
#   From: 2010.03.12/outbox.cif.g09.slc.cpg/sg191_1_cif.got.tgz:1807.got - 2010.04.01 12:09:02.
