data_PCOD8328758
_publ_section_title
;
Structure prediction by ZEFSAII (Michael W. Deem and Ramdas Pophale) SiO2 
 PCOD8328758
Probable space group: P 6/M M M
;
_chemical_formula_sum "Si O2"
_cell_formula_units_Z 144
_cell_length_a 32.518414
_cell_length_b 32.518414
_cell_length_c 8.973199
_cell_angle_alpha 90.000000
_cell_angle_beta 90.000000
_cell_angle_gamma 120.000000
_cell_volume 8217.441910
_symmetry_space_group_name_H-M "P 6/M M M"
_symmetry_group_IT_number 191
_symmetry_cell_setting 'hexagonal'
loop_
_space_group_symop_operation_xyz
x,y,z
x-y,x,z
-y,x-y,z
-x,-y,z
-x+y,-x,z
y,-x+y,z
x-y,-y,-z
-x,-x+y,-z
y,x,-z
-y,-x,-z
-x+y,y,-z
x,x-y,-z
-x,-y,-z
-x+y,-x,-z
y,-x+y,-z
x,y,-z
x-y,x,-z
-y,x-y,-z
-x+y,y,z
x,x-y,z
-y,-x,z
y,x,z
x-y,-y,z
-x,-x+y,z
loop_
_atom_site_type_symbol
_atom_site_label
_atom_site_fract_x
_atom_site_fract_y
_atom_site_fract_z
Si Si1 0.100078 0.295539 0.327396
Si Si2 0.275150 0.890062 0.174492
Si Si3 0.948117 0.565060 0.174424
Si Si4 0.144185 0.525381 0.823424
Si Si5 0.809684 0.525400 0.327633
Si Si6 0.053077 0.198293 0.172099
O O1 0.090258 0.298801 0.500000
O O2 0.153354 0.306708 0.298536
O O3 0.091918 0.333087 0.237640
O O4 0.062699 0.243346 0.269896
O O5 0.328480 0.931453 0.209518
O O6 0.265049 0.841468 0.251774
O O7 0.266191 0.879892 0.000000
O O8 0.908604 0.513315 0.234811
O O9 0.000000 0.583355 0.249332
O O10 0.953175 0.560831 0.000000
O O11 0.154932 0.577466 0.777248
O O12 0.182894 0.515467 0.746800
O O13 0.147529 0.520295 0.000000
O O14 0.823953 0.530296 0.500000
O O15 0.754732 0.509463 0.306258
O O16 0.090363 0.180725 0.213294
O O17 0.000000 0.155478 0.206683
O O18 0.058515 0.213741 0.000000
#
# Coordination Sequence:
#
# PCOD8328758 Si02
#       6
#    24  24  24  24  24  24
#     4  10  20  32  46  67  96 128 162 199 239 285
#     4  10  19  30  47  71  98 130 167 204 241 280
#     4   8  15  28  45  67  95 125 158 195 231 268
#     4   9  18  32  51  75  98 122 157 199 242 289
#     4  10  20  33  50  72  97 127 162 198 241 293
#     4   9  18  33  52  72  94 123 160 199 239 287
#
# _framework density 17.523702
#
# number of rings (size 3 to 8) (size 9 to 14) (size 15 to 20)
#    0.000    2.667    0.000    3.000    0.000    6.000 
#    0.000    3.333    0.000   12.500    0.000    5.833 
#    0.000    0.000    0.000    4.167    0.000    4.333 
#
# Total GULP energy -1785389.964777 kJ/mol
# GULP energy per Si atom -12398.541422 kJ/mol
# Density = 1.748382 g / cm^3
# Si number density = 17.523702 Si / 1000 Ang^3
#
#
#
# Elastic Constant Matrix: (Units=GPa)
#
#
# Indices 1 2 3 4 5 6 
#
# 1 103.2538 68.6529 43.7161 0.0000 0.0000 0.0000
# 2 68.6529 103.2538 43.7161 0.0000 0.0000 0.0000
# 3 43.7161 43.7161 69.8545 0.0000 0.0000 0.0000
# 4 0.0000 0.0000 0.0000 16.3502 0.0000 0.0000
# 5 0.0000 0.0000 0.0000 0.0000 16.3502 0.0000
# 6 0.0000 0.0000 0.0000 0.0000 0.0000 17.3005
#
#
#
# Elastic Compliance Matrix: (Units=1/GPa)
#
#
# Indices 1 2 3 4 5 6 
#
# 1 0.018717 -0.010184 -0.005340 0.000000 0.000000 0.000000
# 2 -0.010184 0.018717 -0.005340 0.000000 0.000000 0.000000
# 3 -0.005340 -0.005340 0.020999 0.000000 0.000000 0.000000
# 4 0.000000 0.000000 0.000000 0.061161 0.000000 0.000000
# 5 0.000000 0.000000 0.000000 0.000000 0.061161 0.000000
# 6 0.000000 0.000000 0.000000 0.000000 0.000000 0.057802
#
#
# Mechanical properties :
#
#
# Convention : Reuss Voigt Hill
#
# Bulk Modulus (GPa) = 59.86238 65.39246 62.62742
# Shear Modulus (GPa) = 17.49137 18.01863 17.75500
#
# Velocity S-wave (km/s) = 3.16279 3.21010 3.18653
# Velocity P-wave (km/s) = 6.89729 7.15103 7.02531
#
# Compressibility (1/GPa) = 0.01670498
#
# Stress axis : x y z
#
# Youngs Moduli (GPa) = 53.42722 53.42722 47.62032
#
# Poissons Ratio (x) = 0.54410 0.25430
# Poissons Ratio (y) = 0.54410 0.25430
# Poissons Ratio (z) = 0.28531 0.28531
#
# Static dielectric constant tensor:
#      x y z
#    x 3.265050 0.000000 0.000000 
#    y 0.000000 3.265050 0.000000 
#    z 0.000000 0.000000 3.185810 
# 
# 
# High freq. dielectric constant tensor:
#      x y z
#    x 1.668790 0.000000 0.000000 
#    y 0.000000 1.668790 0.000000 
#    z 0.000000 0.000000 1.668010 
# 
# From -- ./inp_files/1979.got.cif
#   From: 2010.03.12/outbox.cif.g09.slc.cpg/sg191_1_cif.got.tgz:1979.got - 2010.04.01 12:09:02.
