data_PCOD8328189
_publ_section_title
;
Structure prediction by ZEFSAII (Michael W. Deem and Ramdas Pophale) SiO2 
 PCOD8328189
Probable space group: P -6 2 C
;
_chemical_formula_sum "Si O2"
_cell_formula_units_Z 72
_cell_length_a 23.944355
_cell_length_b 23.944355
_cell_length_c 8.586218
_cell_angle_alpha 90.000000
_cell_angle_beta 90.000000
_cell_angle_gamma 120.000000
_cell_volume 4263.230635
_symmetry_space_group_name_H-M "P -6 2 C"
_symmetry_group_IT_number 190
_symmetry_cell_setting 'hexagonal'
loop_
_space_group_symop_operation_xyz
x,y,z
-x+y,-x,1/2-z
-y,x-y,z
x,y,1/2-z
-x+y,-x,z
-y,x-y,1/2-z
x-y,-y,-z
-x,-x+y,-z
y,x,-z
y,x,1/2+z
x-y,-y,1/2+z
-x,-x+y,1/2+z
loop_
_atom_site_type_symbol
_atom_site_label
_atom_site_fract_x
_atom_site_fract_y
_atom_site_fract_z
Si Si1 0.069843 0.138751 0.065410
Si Si2 0.931265 0.189149 0.433351
Si Si3 0.522591 0.263466 0.565128
Si Si4 0.931068 0.400956 0.566628
Si Si5 0.859110 0.254256 0.933873
Si Si6 0.594190 0.190855 0.564406
O O1 0.067954 0.135114 0.250000
O O2 0.122879 0.122879 0.000000
O O3 0.090038 0.210514 0.010964
O O4 0.000000 0.087166 0.000000
O O5 0.937526 0.183620 0.250000
O O6 0.877317 0.207894 0.472602
O O7 0.000000 0.243771 0.500000
O O8 0.526188 0.265328 0.750000
O O9 0.448838 0.213636 0.516108
O O10 0.570801 0.239596 0.502561
O O11 0.546518 0.334944 0.496724
O O12 0.934619 0.403833 0.750000
O O13 0.907337 0.327876 0.513643
O O14 0.881054 0.423347 0.507076
O O15 0.000000 0.450463 0.500000
O O16 0.864113 0.245465 0.750000
O O17 0.596163 0.192961 0.750000
#
# Coordination Sequence:
#
# PCOD8328189 Si02
#       6
#    12  12  12  12  12  12
#     4  11  21  35  53  75 101 128 157 190 228 272
#     4  11  21  33  49  70  94 123 156 193 233 276
#     4   8  13  22  40  64  91 117 146 185 232 276
#     4   9  17  27  41  62  89 116 147 181 220 268
#     4   9  17  29  44  66  92 120 151 188 231 278
#     4   8  13  22  38  63  88 112 142 181 223 268
#
# _framework density 16.8886
#
# number of rings (size 3 to 8) (size 9 to 14) (size 15 to 20)
#    0.000    2.667    0.000    7.000    0.000    3.333 
#    0.000    0.000    0.000    2.000    0.000    2.333 
#    0.000    2.667    0.000    0.000    0.000    0.000 
#
# Total GULP energy -892501.817838 kJ/mol
# GULP energy per Si atom -12395.858581 kJ/mol
# Density = 1.685016 g / cm^3
# Si number density = 16.888600 Si / 1000 Ang^3
#
#
#
# Elastic Constant Matrix: (Units=GPa)
#
#
# Indices 1 2 3 4 5 6 
#
# 1 132.6783 76.1366 31.1484 0.0000 0.0000 0.0000
# 2 76.1366 132.6783 31.1484 0.0000 0.0000 0.0000
# 3 31.1484 31.1484 69.2138 0.0000 0.0000 0.0000
# 4 0.0000 0.0000 0.0000 18.0112 0.0000 0.0000
# 5 0.0000 0.0000 0.0000 0.0000 18.0112 0.0000
# 6 0.0000 0.0000 0.0000 0.0000 0.0000 28.2708
#
#
#
# Elastic Compliance Matrix: (Units=1/GPa)
#
#
# Indices 1 2 3 4 5 6 
#
# 1 0.011609 -0.006077 -0.002489 0.000000 0.000000 0.000000
# 2 -0.006077 0.011609 -0.002489 0.000000 0.000000 0.000000
# 3 -0.002489 -0.002489 0.016689 0.000000 0.000000 0.000000
# 4 0.000000 0.000000 0.000000 0.055521 0.000000 0.000000
# 5 0.000000 0.000000 0.000000 0.000000 0.055521 0.000000
# 6 0.000000 0.000000 0.000000 0.000000 0.000000 0.035372
#
#
# Mechanical properties :
#
#
# Convention : Reuss Voigt Hill
#
# Bulk Modulus (GPa) = 56.19798 67.93745 62.06772
# Shear Modulus (GPa) = 23.32479 25.93443 24.62961
#
# Velocity S-wave (km/s) = 3.72034 3.92295 3.82299
# Velocity P-wave (km/s) = 7.19740 7.79958 7.50453
#
# Compressibility (1/GPa) = 0.01779423
#
# Stress axis : x y z
#
# Youngs Moduli (GPa) = 86.14127 86.14127 59.92113
#
# Poissons Ratio (x) = 0.52350 0.14917
# Poissons Ratio (y) = 0.52350 0.14917
# Poissons Ratio (z) = 0.21444 0.21444
#
# Static dielectric constant tensor:
#      x y z
#    x 2.718480 0.000000 0.000000 
#    y 0.000000 2.718480 0.000000 
#    z 0.000000 0.000000 2.867080 
# 
# 
# High freq. dielectric constant tensor:
#      x y z
#    x 1.644600 0.000000 0.000000 
#    y 0.000000 1.644600 0.000000 
#    z 0.000000 0.000000 1.626730 
# 
# From -- ./inp_files/1244.got.cif
#   From: 2010.06.25/outbox.cif.g09.slc.cpg/sg190_1_cif.got.tgz:1244.got - 2010.06.28 13:08:06.
