data_PCOD8328526
_publ_section_title
;
Structure prediction by ZEFSAII (Michael W. Deem and Ramdas Pophale) SiO2 
 PCOD8328526
Probable space group: P 6/M M M
;
_chemical_formula_sum "Si O2"
_cell_formula_units_Z 180
_cell_length_a 21.318497
_cell_length_b 21.318497
_cell_length_c 31.279693
_cell_angle_alpha 90.000000
_cell_angle_beta 90.000000
_cell_angle_gamma 120.000000
_cell_volume 12311.367039
_symmetry_space_group_name_H-M "P 6/M M M"
_symmetry_group_IT_number 191
_symmetry_cell_setting 'hexagonal'
loop_
_space_group_symop_operation_xyz
x,y,z
x-y,x,z
-y,x-y,z
-x,-y,z
-x+y,-x,z
y,-x+y,z
x-y,-y,-z
-x,-x+y,-z
y,x,-z
-y,-x,-z
-x+y,y,-z
x,x-y,-z
-x,-y,-z
-x+y,-x,-z
y,-x+y,-z
x,y,-z
x-y,x,-z
-y,x-y,-z
-x+y,y,z
x,x-y,z
-y,-x,z
y,x,z
x-y,-y,z
-x,-x+y,z
loop_
_atom_site_type_symbol
_atom_site_label
_atom_site_fract_x
_atom_site_fract_y
_atom_site_fract_z
Si Si1 0.081656 0.466713 0.800130
Si Si2 0.916876 0.693189 0.500000
Si Si3 0.706191 0.555943 0.716593
Si Si4 0.379679 0.297848 0.585807
Si Si5 0.479356 0.665906 0.629558
Si Si6 0.700865 0.919155 0.668865
Si Si7 0.517112 0.333237 0.122788
Si Si8 0.385180 0.465940 0.047790
O O1 0.078743 0.539372 0.800312
O O2 0.113614 0.460956 0.755404
O O3 0.134501 0.469845 0.837680
O O4 0.000000 0.399329 0.806892
O O5 0.863196 0.726391 0.500000
O O6 0.899837 0.641881 0.540682
O O7 0.000000 0.759309 0.500000
O O8 0.769647 0.539293 0.729434
O O9 0.660601 0.506152 0.676850
O O10 0.739320 0.639489 0.704142
O O11 0.364572 0.364572 0.586984
O O12 0.464326 0.329436 0.593826
O O13 0.333299 0.239680 0.621930
O O14 0.469495 0.734748 0.625767
O O15 0.404158 0.595843 0.619348
O O16 0.735062 0.867531 0.674359
O O17 0.765509 0.000000 0.676016
O O18 0.522672 0.261336 0.125227
O O19 0.598071 0.401930 0.122823
O O20 0.472171 0.330467 0.080473
O O21 0.460543 0.539458 0.049592
O O22 0.400810 0.400810 0.060189
O O23 0.351983 0.453237 0.000000
#
# Coordination Sequence:
#
# PCOD8328526 Si02
#       8
#    24  12  24  24  24  24  24  24
#     4  10  19  29  41  57  77 102 133 166 200 240
#     4  10  18  30  49  70  91 113 139 171 208 248
#     4   9  17  29  44  61  81 103 130 167 205 241
#     4   9  18  31  47  66  85 107 137 174 209 238
#     4  10  19  31  46  64  87 113 140 168 203 249
#     4   9  16  27  43  62  83 105 130 160 195 234
#     4  10  19  29  40  55  77 104 132 163 200 241
#     4   8  14  26  43  59  74  95 125 160 197 236
#
# _framework density 14.620634000000001
#
# number of rings (size 3 to 8) (size 9 to 14) (size 15 to 20)
#    0.000    2.667    0.000    4.267    0.000    2.667 
#    0.000    0.333    0.000    6.467    0.000    0.933 
#    0.000    3.200    0.000    0.000    0.000    0.267 
#
# Total GULP energy -2231513.013939 kJ/mol
# GULP energy per Si atom -12397.294522 kJ/mol
# Density = 1.458736 g / cm^3
# Si number density = 14.620634 Si / 1000 Ang^3
#
#
#
# Elastic Constant Matrix: (Units=GPa)
#
#
# Indices 1 2 3 4 5 6 
#
# 1 63.3184 52.2964 25.6655 0.0000 0.0000 0.0000
# 2 52.2964 63.3184 25.6655 0.0000 0.0000 0.0000
# 3 25.6655 25.6655 67.5381 0.0000 0.0000 0.0000
# 4 0.0000 0.0000 0.0000 17.2568 0.0000 0.0000
# 5 0.0000 0.0000 0.0000 0.0000 17.2568 0.0000
# 6 0.0000 0.0000 0.0000 0.0000 0.0000 5.5110
#
#
#
# Elastic Compliance Matrix: (Units=1/GPa)
#
#
# Indices 1 2 3 4 5 6 
#
# 1 0.050567 -0.040162 -0.003954 0.000000 0.000000 0.000000
# 2 -0.040162 0.050567 -0.003954 0.000000 0.000000 0.000000
# 3 -0.003954 -0.003954 0.017812 0.000000 0.000000 0.000000
# 4 0.000000 0.000000 0.000000 0.057948 0.000000 0.000000
# 5 0.000000 0.000000 0.000000 0.000000 0.057948 0.000000
# 6 0.000000 0.000000 0.000000 0.000000 0.000000 0.181456
#
#
# Mechanical properties :
#
#
# Convention : Reuss Voigt Hill
#
# Bulk Modulus (GPa) = 43.84931 44.60331 44.22631
# Shear Modulus (GPa) = 9.61468 14.04141 11.82804
#
# Velocity S-wave (km/s) = 2.56717 3.10237 2.84737
# Velocity P-wave (km/s) = 6.23247 6.58834 6.41287
#
# Compressibility (1/GPa) = 0.02280537
#
# Stress axis : x y z
#
# Youngs Moduli (GPa) = 19.77593 19.77593 56.14300
#
# Poissons Ratio (x) = 0.79423 0.22199
# Poissons Ratio (y) = 0.79423 0.22199
# Poissons Ratio (z) = 0.07819 0.07819
#
# Static dielectric constant tensor:
#      x y z
#    x 2.779930 0.000000 0.000000 
#    y 0.000000 2.779930 0.000000 
#    z 0.000000 0.000000 3.042060 
# 
# 
# High freq. dielectric constant tensor:
#      x y z
#    x 1.543560 0.000000 0.000000 
#    y 0.000000 1.543560 0.000000 
#    z 0.000000 0.000000 1.562510 
# 
# From -- ./inp_files/10874.got.cif
#   From: 2010.03.12/outbox.cif.g09.slc.cpg/sg191_6_cif.got.tgz:10874.got - 2010.04.01 12:09:02.
