data_PCOD8328809
_publ_section_title
;
Structure prediction by ZEFSAII (Michael W. Deem and Ramdas Pophale) SiO2 
 PCOD8328809
Probable space group: P 6/M M M
;
_chemical_formula_sum "Si O2"
_cell_formula_units_Z 144
_cell_length_a 22.140363
_cell_length_b 22.140363
_cell_length_c 20.298042
_cell_angle_alpha 90.000000
_cell_angle_beta 90.000000
_cell_angle_gamma 120.000000
_cell_volume 8616.963484
_symmetry_space_group_name_H-M "P 6/M M M"
_symmetry_group_IT_number 191
_symmetry_cell_setting 'hexagonal'
loop_
_space_group_symop_operation_xyz
x,y,z
x-y,x,z
-y,x-y,z
-x,-y,z
-x+y,-x,z
y,-x+y,z
x-y,-y,-z
-x,-x+y,-z
y,x,-z
-y,-x,-z
-x+y,y,-z
x,x-y,-z
-x,-y,-z
-x+y,-x,-z
y,-x+y,-z
x,y,-z
x-y,x,-z
-y,x-y,-z
-x+y,y,z
x,x-y,z
-y,-x,z
y,x,z
x-y,-y,z
-x,-x+y,z
loop_
_atom_site_type_symbol
_atom_site_label
_atom_site_fract_x
_atom_site_fract_y
_atom_site_fract_z
Si Si1 0.195335 0.528892 0.880366
Si Si2 0.666410 0.195189 0.275457
Si Si3 0.302511 0.920441 0.688959
Si Si4 0.290406 0.077748 0.424852
Si Si5 0.785213 0.079957 0.189617
Si Si6 0.384641 0.078935 0.925533
O O1 0.263898 0.527796 0.904169
O O2 0.201755 0.600878 0.904302
O O3 0.186785 0.520833 0.802478
O O4 0.127915 0.466475 0.914156
O O5 0.599523 0.199045 0.299764
O O6 0.734921 0.265080 0.298812
O O7 0.663741 0.128529 0.309149
O O8 0.260899 0.904938 0.620705
O O9 0.249659 0.903254 0.749266
O O10 0.364834 0.000000 0.693086
O O11 0.316138 0.084058 0.500000
O O12 0.262644 0.131322 0.410470
O O13 0.226699 0.000000 0.409483
O O14 0.868689 0.131311 0.193396
O O15 0.758517 0.097960 0.122874
O O16 0.768243 0.000000 0.191155
O O17 0.367049 0.000000 0.911787
O O18 0.365133 0.087780 0.000000
#
# Coordination Sequence:
#
# PCOD8328809 Si02
#       6
#    24  24  24  24  24  24
#     4  10  20  33  49  68  92 123 158 194 233 281
#     4  10  19  31  48  70  97 127 160 197 237 283
#     4  10  19  31  50  75  99 123 156 199 241 280
#     4   9  17  29  47  72 101 131 161 195 237 284
#     4  10  19  32  50  72  96 122 154 192 233 276
#     4  10  21  35  50  69  92 120 155 196 241 283
#
# _framework density 16.711221999999999
#
# number of rings (size 3 to 8) (size 9 to 14) (size 15 to 20)
#    0.000    2.167    1.667    2.333    0.000    3.667 
#    0.000    2.500    0.000    1.833    0.000    3.500 
#    0.000    5.333    0.000    4.333    0.000    0.000 
#
# Total GULP energy -1785771.851938 kJ/mol
# GULP energy per Si atom -12401.193416 kJ/mol
# Density = 1.667319 g / cm^3
# Si number density = 16.711222 Si / 1000 Ang^3
#
#
#
# Elastic Constant Matrix: (Units=GPa)
#
#
# Indices 1 2 3 4 5 6 
#
# 1 117.2694 74.0801 36.6400 0.0000 0.0000 0.0000
# 2 74.0801 117.2694 36.6400 0.0000 0.0000 0.0000
# 3 36.6400 36.6400 68.1193 0.0000 0.0000 0.0000
# 4 0.0000 0.0000 0.0000 17.0662 0.0000 0.0000
# 5 0.0000 0.0000 0.0000 0.0000 17.0662 0.0000
# 6 0.0000 0.0000 0.0000 0.0000 0.0000 21.5947
#
#
#
# Elastic Compliance Matrix: (Units=1/GPa)
#
#
# Indices 1 2 3 4 5 6 
#
# 1 0.014868 -0.008286 -0.003540 0.000000 0.000000 0.000000
# 2 -0.008286 0.014868 -0.003540 0.000000 0.000000 0.000000
# 3 -0.003540 -0.003540 0.018489 0.000000 0.000000 0.000000
# 4 0.000000 0.000000 0.000000 0.058595 0.000000 0.000000
# 5 0.000000 0.000000 0.000000 0.000000 0.058595 0.000000
# 6 0.000000 0.000000 0.000000 0.000000 0.000000 0.046308
#
#
# Mechanical properties :
#
#
# Convention : Reuss Voigt Hill
#
# Bulk Modulus (GPa) = 57.17131 66.37537 61.77334
# Shear Modulus (GPa) = 20.13806 21.49861 20.81833
#
# Velocity S-wave (km/s) = 3.47517 3.59064 3.53338
# Velocity P-wave (km/s) = 7.09845 7.54954 7.32747
#
# Compressibility (1/GPa) = 0.01749129
#
# Stress axis : x y z
#
# Youngs Moduli (GPa) = 67.25925 67.25925 54.08745
#
# Poissons Ratio (x) = 0.55731 0.19148
# Poissons Ratio (y) = 0.55731 0.19148
# Poissons Ratio (z) = 0.23811 0.23811
#
# Static dielectric constant tensor:
#      x y z
#    x 3.136770 0.000000 0.000000 
#    y 0.000000 3.136770 0.000000 
#    z 0.000000 0.000000 3.169380 
# 
# 
# High freq. dielectric constant tensor:
#      x y z
#    x 1.638210 0.000000 0.000000 
#    y 0.000000 1.638210 0.000000 
#    z 0.000000 0.000000 1.637390 
# 
# From -- ./inp_files/6559.got.cif
#   From: 2010.03.12/outbox.cif.g09.slc.cpg/sg191_4_cif.got.tgz:6559.got - 2010.04.01 12:09:02.
