data_PCOD8328106
_publ_section_title
;
Structure prediction by ZEFSAII (Michael W. Deem and Ramdas Pophale) SiO2 
 PCOD8328106
Probable space group: P -6 2 C
;
_chemical_formula_sum "Si O2"
_cell_formula_units_Z 42
_cell_length_a 8.643429
_cell_length_b 8.643429
_cell_length_c 32.604624
_cell_angle_alpha 90.000000
_cell_angle_beta 90.000000
_cell_angle_gamma 120.000000
_cell_volume 2109.511833
_symmetry_space_group_name_H-M "P -6 2 C"
_symmetry_group_IT_number 190
_symmetry_cell_setting 'hexagonal'
loop_
_space_group_symop_operation_xyz
x,y,z
-x+y,-x,1/2-z
-y,x-y,z
x,y,1/2-z
-x+y,-x,z
-y,x-y,1/2-z
x-y,-y,-z
-x,-x+y,-z
y,x,-z
y,x,1/2+z
x-y,-y,1/2+z
-x,-x+y,1/2+z
loop_
_atom_site_type_symbol
_atom_site_label
_atom_site_fract_x
_atom_site_fract_y
_atom_site_fract_z
Si Si1 0.000000 0.800573 0.000000
Si Si2 0.662921 0.659307 0.879822
Si Si3 0.670569 0.997529 0.912109
Si Si4 0.872578 0.348975 0.295105
O O1 0.997833 0.687883 0.961016
O O2 0.824194 0.824194 0.000000
O O3 0.725004 0.860180 0.893282
O O4 0.472998 0.531315 0.901224
O O5 0.647011 0.641298 0.830433
O O6 0.807803 0.606859 0.893341
O O7 0.834401 0.514738 0.299450
O O8 0.955608 0.355117 0.250000
#
# Coordination Sequence:
#
# PCOD8328106 Si02
#       4
#     6  12  12  12
#     4  10  20  42  62  92 122 166 206 260 318 366
#     4  12  22  42  60 101 118 173 204 257 311 375
#     4  12  24  39  68  86 134 160 213 257 309 373
#     4   8  15  33  63  91 122 160 202 253 312 374
#
# _framework density 19.90982
#
# number of rings (size 3 to 8) (size 9 to 14) (size 15 to 20)
#    0.857    0.571    5.714    1.714    0.000    2.286 
#    0.000    2.857    0.000    0.000    0.000    0.000 
#    0.000    0.000    0.000    0.000    0.000    0.000 
#
# Total GULP energy -520721.767759 kJ/mol
# GULP energy per Si atom -12398.137328 kJ/mol
# Density = 1.986450 g / cm^3
# Si number density = 19.909820 Si / 1000 Ang^3
#
#
#
# Elastic Constant Matrix: (Units=GPa)
#
#
# Indices 1 2 3 4 5 6 
#
# 1 59.2918 8.2414 38.4223 0.0000 0.0000 0.0000
# 2 8.2414 59.2918 38.4223 0.0000 0.0000 0.0000
# 3 38.4223 38.4223 215.2658 0.0000 0.0000 0.0000
# 4 0.0000 0.0000 0.0000 22.6316 0.0000 0.0000
# 5 0.0000 0.0000 0.0000 0.0000 22.6316 0.0000
# 6 0.0000 0.0000 0.0000 0.0000 0.0000 25.5252
#
#
#
# Elastic Compliance Matrix: (Units=1/GPa)
#
#
# Indices 1 2 3 4 5 6 
#
# 1 0.019085 -0.000504 -0.003317 0.000000 0.000000 0.000000
# 2 -0.000504 0.019085 -0.003317 0.000000 0.000000 0.000000
# 3 -0.003317 -0.003317 0.005829 0.000000 0.000000 0.000000
# 4 0.000000 0.000000 0.000000 0.044186 0.000000 0.000000
# 5 0.000000 0.000000 0.000000 0.000000 0.044186 0.000000
# 6 0.000000 0.000000 0.000000 0.000000 0.000000 0.039177
#
#
# Mechanical properties :
#
#
# Convention : Reuss Voigt Hill
#
# Bulk Modulus (GPa) = 33.64072 56.00237 44.82154
# Shear Modulus (GPa) = 25.54539 30.74191 28.14365
#
# Velocity S-wave (km/s) = 3.58586 3.93371 3.76381
# Velocity P-wave (km/s) = 5.83762 6.98722 6.43813
#
# Compressibility (1/GPa) = 0.02972588
#
# Stress axis : x y z
#
# Youngs Moduli (GPa) = 52.39742 52.39742 171.54586
#
# Poissons Ratio (x) = 0.02638 0.56894
# Poissons Ratio (y) = 0.02638 0.56894
# Poissons Ratio (z) = 0.17378 0.17378
#
# Static dielectric constant tensor:
#      x y z
#    x 3.263750 0.000000 0.000000 
#    y 0.000000 3.263750 0.000000 
#    z 0.000000 0.000000 3.687300 
# 
# 
# High freq. dielectric constant tensor:
#      x y z
#    x 1.750640 0.000000 0.000000 
#    y 0.000000 1.750640 0.000000 
#    z 0.000000 0.000000 1.794440 
# 
# From -- ./inp_files/5075.got.cif
#   From: 2010.06.25/outbox.cif.g09.slc.cpg/sg190_3_cif.got.tgz:5075.got - 2010.06.28 13:08:06.
