data_PCOD8328205
_publ_section_title
;
Structure prediction by ZEFSAII (Michael W. Deem and Ramdas Pophale) SiO2 
 PCOD8328205
Probable space group: P -6 2 C
;
_chemical_formula_sum "Si O2"
_cell_formula_units_Z 40
_cell_length_a 11.448149
_cell_length_b 11.448149
_cell_length_c 16.888962
_cell_angle_alpha 90.000000
_cell_angle_beta 90.000000
_cell_angle_gamma 120.000000
_cell_volume 1916.920654
_symmetry_space_group_name_H-M "P -6 2 C"
_symmetry_group_IT_number 190
_symmetry_cell_setting 'hexagonal'
loop_
_space_group_symop_operation_xyz
x,y,z
-x+y,-x,1/2-z
-y,x-y,z
x,y,1/2-z
-x+y,-x,z
-y,x-y,1/2-z
x-y,-y,-z
-x,-x+y,-z
y,x,-z
y,x,1/2+z
x-y,-y,1/2+z
-x,-x+y,1/2+z
loop_
_atom_site_type_symbol
_atom_site_label
_atom_site_fract_x
_atom_site_fract_y
_atom_site_fract_z
Si Si1 0.990122 0.742348 0.906859
Si Si2 0.008341 0.256213 0.841401
Si Si3 0.503447 0.033861 0.907791
Si Si4 0.666668 0.333334 0.847128
O O1 0.842043 0.712318 0.885844
O O2 0.011888 0.620044 0.877751
O O3 0.099784 0.877118 0.865019
O O4 0.000000 0.756640 0.000000
O O5 0.979273 0.229543 0.750000
O O6 0.050727 0.409978 0.863885
O O7 0.561849 0.189159 0.883876
O O8 0.473119 0.000000 0.000000
O O9 0.666667 0.333334 0.750000
#
# Coordination Sequence:
#
# PCOD8328205 Si02
#       4
#    12  12  12   4
#     4  11  24  44  68  95 130 174 224 275 332 410
#     4  12  25  42  67  98 134 171 220 280 342 399
#     4  11  25  43  71  98 135 177 230 278 342 409
#     4  12  24  45  78 105 133 182 244 294 336 417
#
# _framework density 20.866799
#
# number of rings (size 3 to 8) (size 9 to 14) (size 15 to 20)
#    0.000    0.600    3.000    5.100    4.200    3.600 
#    1.800    0.000    0.000    0.000    0.000    0.000 
#    0.000    0.000    0.000    0.000    0.000    0.000 
#
# Total GULP energy -496044.230775 kJ/mol
# GULP energy per Si atom -12401.105769 kJ/mol
# Density = 2.081931 g / cm^3
# Si number density = 20.866799 Si / 1000 Ang^3
#
#
#
# Elastic Constant Matrix: (Units=GPa)
#
#
# Indices 1 2 3 4 5 6 
#
# 1 100.0778 35.0928 55.1704 0.0001 -0.0002 0.0001
# 2 35.0928 100.0777 55.1698 -0.0001 0.0000 0.0000
# 3 55.1704 55.1698 99.4195 0.0006 -0.0005 -0.0002
# 4 0.0001 -0.0001 0.0006 3.9070 0.0002 -0.0001
# 5 -0.0002 0.0000 -0.0005 0.0002 3.9048 -0.0001
# 6 0.0001 0.0000 -0.0002 -0.0001 -0.0001 32.4924
#
#
#
# Elastic Compliance Matrix: (Units=1/GPa)
#
#
# Indices 1 2 3 4 5 6 
#
# 1 0.014456 -0.000932 -0.007505 0.000001 0.000000 0.000000
# 2 -0.000932 0.014456 -0.007505 0.000001 -0.000001 0.000000
# 3 -0.007505 -0.007505 0.018388 -0.000003 0.000002 0.000000
# 4 0.000001 0.000001 -0.000003 0.255948 -0.000013 0.000001
# 5 0.000000 -0.000001 0.000002 -0.000013 0.256092 0.000001
# 6 0.000000 0.000000 0.000000 0.000001 0.000001 0.030776
#
#
# Mechanical properties :
#
#
# Convention : Reuss Voigt Hill
#
# Bulk Modulus (GPa) = 64.86512 65.60456 65.23484
# Shear Modulus (GPa) = 7.97270 18.33699 13.15485
#
# Velocity S-wave (km/s) = 1.95680 2.96761 2.51354
# Velocity P-wave (km/s) = 6.02148 6.57649 6.30509
#
# Compressibility (1/GPa) = 0.01541661
#
# Stress axis : x y z
#
# Youngs Moduli (GPa) = 69.17365 69.17422 54.38387
#
# Poissons Ratio (x) = 0.06446 0.40816
# Poissons Ratio (y) = 0.06446 0.40815
# Poissons Ratio (z) = 0.51916 0.51915
#
# Static dielectric constant tensor:
#      x y z
#    x 3.908200 0.000000 -0.000020 
#    y 0.000000 3.908220 0.000000 
#    z -0.000020 0.000000 3.575520 
# 
# 
# High freq. dielectric constant tensor:
#      x y z
#    x 1.827350 0.000000 0.000000 
#    y 0.000000 1.827350 0.000000 
#    z 0.000000 0.000000 1.822850 
# 
# From -- ./inp_files/3415.got.cif
#   From: 2010.06.25/outbox.cif.g09.slc.cpg/sg190_2_cif.got.tgz:3415.got - 2010.06.28 13:08:06.
