data_PCOD8328603
_publ_section_title
;
Structure prediction by ZEFSAII (Michael W. Deem and Ramdas Pophale) SiO2 
 PCOD8328603
Probable space group: P 6/M M M
;
_chemical_formula_sum "Si O2"
_cell_formula_units_Z 60
_cell_length_a 17.206482
_cell_length_b 17.206482
_cell_length_c 13.126442
_cell_angle_alpha 90.000000
_cell_angle_beta 90.000000
_cell_angle_gamma 120.000000
_cell_volume 3365.594774
_symmetry_space_group_name_H-M "P 6/M M M"
_symmetry_group_IT_number 191
_symmetry_cell_setting 'hexagonal'
loop_
_space_group_symop_operation_xyz
x,y,z
x-y,x,z
-y,x-y,z
-x,-y,z
-x+y,-x,z
y,-x+y,z
x-y,-y,-z
-x,-x+y,-z
y,x,-z
-y,-x,-z
-x+y,y,-z
x,x-y,-z
-x,-y,-z
-x+y,-x,-z
y,-x+y,-z
x,y,-z
x-y,x,-z
-y,x-y,-z
-x+y,y,z
x,x-y,z
-y,-x,z
y,x,z
x-y,-y,z
-x,-x+y,z
loop_
_atom_site_type_symbol
_atom_site_label
_atom_site_fract_x
_atom_site_fract_y
_atom_site_fract_z
Si Si1 0.000000 0.166527 0.885344
Si Si2 0.683215 0.000000 0.786452
Si Si3 0.815582 0.815582 0.615634
Si Si4 0.333221 0.847630 0.883370
O O1 0.087879 0.175757 0.829107
O O2 0.000000 0.258800 0.882336
O O3 0.000000 0.138877 0.000000
O O4 0.737315 0.000000 0.685433
O O5 0.674367 0.088070 0.799393
O O6 0.911714 0.823427 0.636695
O O7 0.785100 0.785100 0.500000
O O8 0.423497 0.846994 0.858865
O O9 0.251782 0.748219 0.867292
O O10 0.334566 0.880222 0.000000
#
# Coordination Sequence:
#
# PCOD8328603 Si02
#       4
#    12  12  12  24
#     4  10  19  29  41  61  93 130 161 188 227 288
#     4  12  21  31  50  76 101 126 163 213 265 303
#     4  10  21  37  56  77 102 134 172 214 261 314
#     4  10  20  34  52  75 105 141 177 210 247 297
#
# _framework density 17.827459000000001
#
# number of rings (size 3 to 8) (size 9 to 14) (size 15 to 20)
#    0.000    1.600    0.000    6.800    0.000    8.000 
#    0.000    2.000    0.000    2.400    0.000    0.000 
#    0.000    3.200    0.000    0.000    0.000    0.000 
#
# Total GULP energy -743339.924362 kJ/mol
# GULP energy per Si atom -12388.998739 kJ/mol
# Density = 1.778688 g / cm^3
# Si number density = 17.827459 Si / 1000 Ang^3
#
#
#
# Elastic Constant Matrix: (Units=GPa)
#
#
# Indices 1 2 3 4 5 6 
#
# 1 141.9981 70.3403 48.6690 0.0000 0.0000 0.0000
# 2 70.3403 141.9981 48.6690 0.0000 0.0000 0.0000
# 3 48.6690 48.6690 107.1578 0.0000 0.0000 0.0000
# 4 0.0000 0.0000 0.0000 45.4340 0.0000 0.0000
# 5 0.0000 0.0000 0.0000 0.0000 45.4340 0.0000
# 6 0.0000 0.0000 0.0000 0.0000 0.0000 35.8289
#
#
#
# Elastic Compliance Matrix: (Units=1/GPa)
#
#
# Indices 1 2 3 4 5 6 
#
# 1 0.009952 -0.004004 -0.002701 0.000000 0.000000 0.000000
# 2 -0.004004 0.009952 -0.002701 0.000000 0.000000 0.000000
# 3 -0.002701 -0.002701 0.011786 0.000000 0.000000 0.000000
# 4 0.000000 0.000000 0.000000 0.022010 0.000000 0.000000
# 5 0.000000 0.000000 0.000000 0.000000 0.022010 0.000000
# 6 0.000000 0.000000 0.000000 0.000000 0.000000 0.027910
#
#
# Mechanical properties :
#
#
# Convention : Reuss Voigt Hill
#
# Bulk Modulus (GPa) = 77.66415 80.72340 79.19378
# Shear Modulus (GPa) = 39.45580 40.23777 39.84678
#
# Velocity S-wave (km/s) = 4.70957 4.75601 4.73285
# Velocity P-wave (km/s) = 8.55759 8.69127 8.62469
#
# Compressibility (1/GPa) = 0.01287595
#
# Stress axis : x y z
#
# Youngs Moduli (GPa) = 100.48725 100.48725 84.84745
#
# Poissons Ratio (x) = 0.40232 0.22921
# Poissons Ratio (y) = 0.40232 0.22921
# Poissons Ratio (z) = 0.27145 0.27145
#
# Static dielectric constant tensor:
#      x y z
#    x 3.427010 0.000000 0.000000 
#    y 0.000000 3.427010 0.000000 
#    z 0.000000 0.000000 3.120060 
# 
# 
# High freq. dielectric constant tensor:
#      x y z
#    x 1.699980 0.000000 0.000000 
#    y 0.000000 1.699980 0.000000 
#    z 0.000000 0.000000 1.655140 
# 
# From -- ./inp_files/3739.got.cif
#   From: 2010.03.12/outbox.cif.g09.slc.cpg/sg191_2_cif.got.tgz:3739.got - 2010.04.01 12:09:02.
