data_PCOD8328197
_publ_section_title
;
Structure prediction by ZEFSAII (Michael W. Deem and Ramdas Pophale) SiO2 
 PCOD8328197
Probable space group: P -6 2 C
;
_chemical_formula_sum "Si O2"
_cell_formula_units_Z 84
_cell_length_a 17.804344
_cell_length_b 17.804344
_cell_length_c 14.439050
_cell_angle_alpha 90.000000
_cell_angle_beta 90.000000
_cell_angle_gamma 120.000000
_cell_volume 3963.886453
_symmetry_space_group_name_H-M "P -6 2 C"
_symmetry_group_IT_number 190
_symmetry_cell_setting 'hexagonal'
loop_
_space_group_symop_operation_xyz
x,y,z
-x+y,-x,1/2-z
-y,x-y,z
x,y,1/2-z
-x+y,-x,z
-y,x-y,1/2-z
x-y,-y,-z
-x,-x+y,-z
y,x,-z
y,x,1/2+z
x-y,-y,1/2+z
-x,-x+y,1/2+z
loop_
_atom_site_type_symbol
_atom_site_label
_atom_site_fract_x
_atom_site_fract_y
_atom_site_fract_z
Si Si1 0.796195 0.674922 0.645473
Si Si2 0.815336 0.319716 0.590846
Si Si3 0.038114 0.610052 0.642341
Si Si4 0.699100 0.770252 0.644367
Si Si5 0.348581 0.506634 0.147293
Si Si6 0.468776 0.076327 0.425857
Si Si7 0.095002 0.776448 0.521911
O O1 0.832917 0.689595 0.750000
O O2 0.703259 0.587554 0.636513
O O3 0.776702 0.751201 0.616296
O O4 0.859751 0.658116 0.579340
O O5 0.824795 0.396420 0.655447
O O6 0.721214 0.234695 0.584511
O O7 0.834994 0.349515 0.484394
O O8 0.045858 0.638773 0.750000
O O9 0.074163 0.543241 0.635378
O O10 0.089905 0.693700 0.575593
O O11 0.937770 0.559901 0.607125
O O12 0.710043 0.800488 0.750000
O O13 0.605774 0.683693 0.634820
O O14 0.712107 0.850274 0.582887
O O15 0.309628 0.475699 0.250000
O O16 0.430297 0.000000 0.500000
O O17 0.000000 0.761596 0.500000
#
# Coordination Sequence:
#
# PCOD8328197 Si02
#       7
#    12  12  12  12  12  12  12
#     4  11  23  42  69  98 129 167 218 277 339 399
#     4  12  23  37  61  92 131 172 217 267 333 384
#     4  11  25  43  64  93 133 185 232 278 334 400
#     4  11  23  43  70  99 129 172 223 279 334 403
#     4  11  23  39  59  92 134 175 218 270 330 391
#     4  12  21  39  65  92 129 173 226 276 324 387
#     4  12  25  42  67  97 135 171 218 276 339 402
#
# _framework density 21.191323000000001
#
# number of rings (size 3 to 8) (size 9 to 14) (size 15 to 20)
#    0.000    0.571    4.286    4.143    2.000    4.571 
#    0.000    0.000    0.000    2.286    0.000    2.000 
#    0.000    0.000    0.000    0.000    0.000    0.000 
#
# Total GULP energy -1041125.184455 kJ/mol
# GULP energy per Si atom -12394.347434 kJ/mol
# Density = 2.114309 g / cm^3
# Si number density = 21.191323 Si / 1000 Ang^3
#
#
#
# Elastic Constant Matrix: (Units=GPa)
#
#
# Indices 1 2 3 4 5 6 
#
# 1 117.0745 51.5272 47.0609 0.0000 0.0000 0.0000
# 2 51.5272 117.0745 47.0609 0.0000 0.0000 0.0000
# 3 47.0609 47.0609 111.3896 0.0000 0.0000 0.0000
# 4 0.0000 0.0000 0.0000 31.3429 0.0000 0.0000
# 5 0.0000 0.0000 0.0000 0.0000 31.3429 0.0000
# 6 0.0000 0.0000 0.0000 0.0000 0.0000 32.7737
#
#
#
# Elastic Compliance Matrix: (Units=1/GPa)
#
#
# Indices 1 2 3 4 5 6 
#
# 1 0.011509 -0.003747 -0.003279 0.000000 0.000000 0.000000
# 2 -0.003747 0.011509 -0.003279 0.000000 0.000000 0.000000
# 3 -0.003279 -0.003279 0.011748 0.000000 0.000000 0.000000
# 4 0.000000 0.000000 0.000000 0.031905 0.000000 0.000000
# 5 0.000000 0.000000 0.000000 0.000000 0.031905 0.000000
# 6 0.000000 0.000000 0.000000 0.000000 0.000000 0.030512
#
#
# Mechanical properties :
#
#
# Convention : Reuss Voigt Hill
#
# Bulk Modulus (GPa) = 70.64690 70.75963 70.70326
# Shear Modulus (GPa) = 32.37949 32.41786 32.39867
#
# Velocity S-wave (km/s) = 3.91315 3.91547 3.91431
# Velocity P-wave (km/s) = 7.33669 7.34197 7.33933
#
# Compressibility (1/GPa) = 0.01415490
#
# Stress axis : x y z
#
# Youngs Moduli (GPa) = 86.88875 86.88875 85.11793
#
# Poissons Ratio (x) = 0.32559 0.27912
# Poissons Ratio (y) = 0.32559 0.27912
# Poissons Ratio (z) = 0.28493 0.28493
#
# Static dielectric constant tensor:
#      x y z
#    x 3.858730 0.000000 0.000000 
#    y 0.000000 3.858730 0.000000 
#    z 0.000000 0.000000 3.894720 
# 
# 
# High freq. dielectric constant tensor:
#      x y z
#    x 1.822460 0.000000 0.000000 
#    y 0.000000 1.822460 0.000000 
#    z 0.000000 0.000000 1.839060 
# 
# From -- ./inp_files/3180.got.cif
#   From: 2010.06.25/outbox.cif.g09.slc.cpg/sg190_2_cif.got.tgz:3180.got - 2010.06.28 13:08:06.
