data_PCOD8328964
_publ_section_title
;
Structure prediction by ZEFSAII (Michael W. Deem and Ramdas Pophale) SiO2 
 PCOD8328964
Probable space group: P 6/M M M
;
_chemical_formula_sum "Si O2"
_cell_formula_units_Z 120
_cell_length_a 17.666445
_cell_length_b 17.666445
_cell_length_c 25.433823
_cell_angle_alpha 90.000000
_cell_angle_beta 90.000000
_cell_angle_gamma 120.000000
_cell_volume 6874.491949
_symmetry_space_group_name_H-M "P 6/M M M"
_symmetry_group_IT_number 191
_symmetry_cell_setting 'hexagonal'
loop_
_space_group_symop_operation_xyz
x,y,z
x-y,x,z
-y,x-y,z
-x,-y,z
-x+y,-x,z
y,-x+y,z
x-y,-y,-z
-x,-x+y,-z
y,x,-z
-y,-x,-z
-x+y,y,-z
x,x-y,-z
-x,-y,-z
-x+y,-x,-z
y,-x+y,-z
x,y,-z
x-y,x,-z
-y,x-y,-z
-x+y,y,z
x,x-y,z
-y,-x,z
y,x,z
x-y,-y,z
-x,-x+y,z
loop_
_atom_site_type_symbol
_atom_site_label
_atom_site_fract_x
_atom_site_fract_y
_atom_site_fract_z
Si Si1 0.160632 0.493814 0.559915
Si Si2 0.632422 0.902098 0.347392
Si Si3 0.841929 0.510110 0.750592
Si Si4 0.266613 0.365797 0.154170
Si Si5 0.896493 0.364263 0.058138
O O1 0.130332 0.465523 0.500000
O O2 0.262879 0.525758 0.566982
O O3 0.146501 0.573251 0.576996
O O4 0.102752 0.410414 0.596096
O O5 0.668686 0.834343 0.343370
O O6 0.558531 0.880005 0.304186
O O7 0.713488 0.000000 0.339431
O O8 0.740076 0.480151 0.756208
O O9 0.853900 0.426950 0.753231
O O10 0.897550 0.574764 0.797426
O O11 0.162951 0.325902 0.164434
O O12 0.286497 0.286497 0.147425
O O13 0.290060 0.425972 0.102235
O O14 0.857829 0.428915 0.069175
O O15 0.000000 0.420824 0.060725
O O16 0.866425 0.321632 0.000000
#
# Coordination Sequence:
#
# PCOD8328964 Si02
#       5
#    24  24  24  24  24
#     4   9  17  29  46  69  98 131 163 192 223 264
#     4  10  21  35  50  69  93 122 156 195 238 279
#     4  10  20  33  50  73 101 130 156 182 216 263
#     4  10  20  32  47  68  93 122 157 198 241 280
#     4   8  14  26  45  68  92 117 146 181 222 271
#
# _framework density 17.455836000000001
#
# number of rings (size 3 to 8) (size 9 to 14) (size 15 to 20)
#    0.000    2.600    0.000    2.800    0.000    5.200 
#    0.000    3.000    0.000    0.800    0.000    0.000 
#    0.000    4.800    0.000   10.000    0.000    0.000 
#
# Total GULP energy -1487697.185772 kJ/mol
# GULP energy per Si atom -12397.476548 kJ/mol
# Density = 1.741611 g / cm^3
# Si number density = 17.455836 Si / 1000 Ang^3
#
#
#
# Elastic Constant Matrix: (Units=GPa)
#
#
# Indices 1 2 3 4 5 6 
#
# 1 83.5805 56.1094 27.6375 0.0000 0.0000 0.0000
# 2 56.1094 83.5805 27.6375 0.0000 0.0000 0.0000
# 3 27.6375 27.6375 91.3787 0.0000 0.0000 0.0000
# 4 0.0000 0.0000 0.0000 19.8186 0.0000 0.0000
# 5 0.0000 0.0000 0.0000 0.0000 19.8186 0.0000
# 6 0.0000 0.0000 0.0000 0.0000 0.0000 13.7356
#
#
#
# Elastic Compliance Matrix: (Units=1/GPa)
#
#
# Indices 1 2 3 4 5 6 
#
# 1 0.022267 -0.014135 -0.002460 0.000000 0.000000 0.000000
# 2 -0.014135 0.022267 -0.002460 0.000000 0.000000 0.000000
# 3 -0.002460 -0.002460 0.012431 0.000000 0.000000 0.000000
# 4 0.000000 0.000000 0.000000 0.050458 0.000000 0.000000
# 5 0.000000 0.000000 0.000000 0.000000 0.050458 0.000000
# 6 0.000000 0.000000 0.000000 0.000000 0.000000 0.072804
#
#
# Mechanical properties :
#
#
# Convention : Reuss Voigt Hill
#
# Bulk Modulus (GPa) = 53.03053 53.47876 53.25464
# Shear Modulus (GPa) = 18.17669 20.48492 19.33080
#
# Velocity S-wave (km/s) = 3.23041 3.42940 3.33139
# Velocity P-wave (km/s) = 6.66032 6.81059 6.73587
#
# Compressibility (1/GPa) = 0.01885706
#
# Stress axis : x y z
#
# Youngs Moduli (GPa) = 44.90972 44.90972 80.44259
#
# Poissons Ratio (x) = 0.63480 0.19785
# Poissons Ratio (y) = 0.63480 0.19785
# Poissons Ratio (z) = 0.11046 0.11046
#
# Static dielectric constant tensor:
#      x y z
#    x 3.031390 0.000000 0.000000 
#    y 0.000000 3.031390 0.000000 
#    z 0.000000 0.000000 3.575890 
# 
# 
# High freq. dielectric constant tensor:
#      x y z
#    x 1.648250 0.000000 0.000000 
#    y 0.000000 1.648250 0.000000 
#    z 0.000000 0.000000 1.696050 
# 
# From -- ./inp_files/10272.got.cif
#   From: 2010.03.12/outbox.cif.g09.slc.cpg/sg191_6_cif.got.tgz:10272.got - 2010.04.01 12:09:02.
