data_PCOD8328179
_publ_section_title
;
Structure prediction by ZEFSAII (Michael W. Deem and Ramdas Pophale) SiO2 
 PCOD8328179
Probable space group: P -6 2 C
;
_chemical_formula_sum "Si O2"
_cell_formula_units_Z 44
_cell_length_a 11.225586
_cell_length_b 11.225586
_cell_length_c 18.678633
_cell_angle_alpha 90.000000
_cell_angle_beta 90.000000
_cell_angle_gamma 120.000000
_cell_volume 2038.420431
_symmetry_space_group_name_H-M "P -6 2 C"
_symmetry_group_IT_number 190
_symmetry_cell_setting 'hexagonal'
loop_
_space_group_symop_operation_xyz
x,y,z
-x+y,-x,1/2-z
-y,x-y,z
x,y,1/2-z
-x+y,-x,z
-y,x-y,1/2-z
x-y,-y,-z
-x,-x+y,-z
y,x,-z
y,x,1/2+z
x-y,-y,1/2+z
-x,-x+y,1/2+z
loop_
_atom_site_type_symbol
_atom_site_label
_atom_site_fract_x
_atom_site_fract_y
_atom_site_fract_z
Si Si1 0.000000 0.000000 0.163893
Si Si2 0.426469 0.581602 0.750000
Si Si3 0.666667 0.333333 0.667667
Si Si4 0.082462 0.247110 0.566737
Si Si5 0.000000 0.630113 0.000000
Si Si6 0.528381 0.572820 0.380383
O O1 0.920694 0.077107 0.134563
O O2 0.000000 0.000000 0.250000
O O3 0.258868 0.510311 0.750000
O O4 0.474133 0.533124 0.680512
O O5 0.666667 0.333334 0.750000
O O6 0.801631 0.325974 0.646153
O O7 0.235473 0.350627 0.540369
O O8 0.000000 0.147684 0.500000
O O9 0.012661 0.335181 0.587234
O O10 0.068631 0.582559 0.059481
#
# Coordination Sequence:
#
# PCOD8328179 Si02
#       6
#     4   6   4  12   6  12
#     4  12  28  47  79 111 142 197 244 306 379 431
#     4  10  24  48  70 108 150 188 244 304 360 428
#     4  12  27  48  72 102 150 193 242 298 372 444
#     4  12  24  51  74 106 150 186 248 307 363 438
#     4  12  26  46  78 102 142 196 240 306 366 436
#     4  12  26  48  73 109 144 197 243 300 372 443
#
# _framework density 21.585343000000002
#
# number of rings (size 3 to 8) (size 9 to 14) (size 15 to 20)
#    0.273    0.000    5.455    3.273    1.909    0.000 
#    4.091    0.000    0.000    0.000    0.000    0.000 
#    0.000    0.000    0.000    0.000    0.000    0.000 
#
# Total GULP energy -545610.226534 kJ/mol
# GULP energy per Si atom -12400.232421 kJ/mol
# Density = 2.153621 g / cm^3
# Si number density = 21.585343 Si / 1000 Ang^3
#
#
#
# Elastic Constant Matrix: (Units=GPa)
#
#
# Indices 1 2 3 4 5 6 
#
# 1 130.7209 55.9257 59.9318 0.0000 0.0001 -0.0001
# 2 55.9257 130.7207 59.9317 0.0001 0.0000 0.0000
# 3 59.9318 59.9317 166.4742 0.0001 0.0000 0.0000
# 4 0.0000 0.0001 0.0001 24.1403 0.0000 0.0000
# 5 0.0001 0.0000 0.0000 0.0000 24.1404 0.0000
# 6 -0.0001 0.0000 0.0000 0.0000 0.0000 37.3972
#
#
#
# Elastic Compliance Matrix: (Units=1/GPa)
#
#
# Indices 1 2 3 4 5 6 
#
# 1 0.010169 -0.003200 -0.002509 0.000000 0.000000 0.000000
# 2 -0.003200 0.010169 -0.002509 0.000000 0.000000 0.000000
# 3 -0.002509 -0.002509 0.007813 0.000000 0.000000 0.000000
# 4 0.000000 0.000000 0.000000 0.041424 0.000000 0.000000
# 5 0.000000 0.000000 0.000000 0.000000 0.041424 0.000000
# 6 0.000000 0.000000 0.000000 0.000000 0.000000 0.026740
#
#
# Mechanical properties :
#
#
# Convention : Reuss Voigt Hill
#
# Bulk Modulus (GPa) = 85.35525 86.61046 85.98285
# Shear Modulus (GPa) = 31.62907 33.94403 32.78655
#
# Velocity S-wave (km/s) = 3.83208 3.96984 3.90157
# Velocity P-wave (km/s) = 7.69472 7.82462 7.75994
#
# Compressibility (1/GPa) = 0.01171574
#
# Stress axis : x y z
#
# Youngs Moduli (GPa) = 98.33452 98.33442 127.98637
#
# Poissons Ratio (x) = 0.31472 0.32110
# Poissons Ratio (y) = 0.31472 0.32110
# Poissons Ratio (z) = 0.24671 0.24671
#
# Static dielectric constant tensor:
#      x y z
#    x 4.271200 -0.000010 0.000000 
#    y -0.000010 4.271190 0.000000 
#    z 0.000000 0.000000 4.126020 
# 
# 
# High freq. dielectric constant tensor:
#      x y z
#    x 1.852790 0.000000 0.000000 
#    y 0.000000 1.852790 0.000000 
#    z 0.000000 0.000000 1.862000 
# 
# From -- ./inp_files/3539.got.cif
#   From: 2010.06.25/outbox.cif.g09.slc.cpg/sg190_2_cif.got.tgz:3539.got - 2010.06.28 13:08:06.
