data_PCOD8328458
_publ_section_title
;
Structure prediction by ZEFSAII (Michael W. Deem and Ramdas Pophale) SiO2 
 PCOD8328458
Probable space group: P 6/M M M
;
_chemical_formula_sum "Si O2"
_cell_formula_units_Z 132
_cell_length_a 18.488954
_cell_length_b 18.488954
_cell_length_c 28.856677
_cell_angle_alpha 90.000000
_cell_angle_beta 90.000000
_cell_angle_gamma 120.000000
_cell_volume 8542.827439
_symmetry_space_group_name_H-M "P 6/M M M"
_symmetry_group_IT_number 191
_symmetry_cell_setting 'hexagonal'
loop_
_space_group_symop_operation_xyz
x,y,z
x-y,x,z
-y,x-y,z
-x,-y,z
-x+y,-x,z
y,-x+y,z
x-y,-y,-z
-x,-x+y,-z
y,x,-z
-y,-x,-z
-x+y,y,-z
x,x-y,-z
-x,-y,-z
-x+y,-x,-z
y,-x+y,-z
x,y,-z
x-y,x,-z
-y,x-y,-z
-x+y,y,z
x,x-y,z
-y,-x,z
y,x,z
x-y,-y,z
-x,-x+y,z
loop_
_atom_site_type_symbol
_atom_site_label
_atom_site_fract_x
_atom_site_fract_y
_atom_site_fract_z
Si Si1 0.167101 0.500674 0.053220
Si Si2 0.092517 0.744735 0.116890
Si Si3 0.906266 0.652767 0.777206
Si Si4 0.501811 0.834091 0.604284
Si Si5 0.000000 0.585796 0.552756
Si Si6 0.903992 0.533364 0.297001
O O1 0.262314 0.524627 0.061594
O O2 0.158309 0.579155 0.067937
O O3 0.104910 0.423753 0.084943
O O4 0.140943 0.475615 0.000000
O O5 0.159325 0.840676 0.104395
O O6 0.102091 0.723898 0.169959
O O7 0.000000 0.730433 0.108045
O O8 0.844769 0.689538 0.767761
O O9 0.879007 0.572550 0.745155
O O10 0.000000 0.726184 0.765948
O O11 0.409778 0.819556 0.593775
O O12 0.505670 0.752835 0.587647
O O13 0.521824 0.846935 0.658814
O O14 0.572475 0.915551 0.577168
O O15 0.000000 0.500000 0.556720
O O16 0.000000 0.612982 0.500000
O O17 0.888358 0.444179 0.279434
O O18 0.000000 0.591782 0.312201
#
# Coordination Sequence:
#
# PCOD8328458 Si02
#       6
#    24  24  24  24  12  24
#     4   9  17  29  45  64  87 115 145 175 208 249
#     4   9  18  31  45  62  85 112 142 177 218 260
#     4   9  17  29  45  64  86 113 144 177 214 258
#     4  10  18  29  45  65  88 115 149 185 218 255
#     4   9  18  32  46  60  84 116 145 177 220 262
#     4   9  16  27  43  63  87 116 146 174 208 251
#
# _framework density 15.451560000000001
#
# number of rings (size 3 to 8) (size 9 to 14) (size 15 to 20)
#    0.000    2.818    0.909    0.909    0.000    2.545 
#    0.000    2.727    0.000    1.818    0.000    2.545 
#    0.000    0.000    0.000    4.818    0.000    5.909 
#
# Total GULP energy -1636479.463340 kJ/mol
# GULP energy per Si atom -12397.571692 kJ/mol
# Density = 1.541639 g / cm^3
# Si number density = 15.451560 Si / 1000 Ang^3
#
#
#
# Elastic Constant Matrix: (Units=GPa)
#
#
# Indices 1 2 3 4 5 6 
#
# 1 95.5645 55.7283 46.4900 0.0000 0.0000 0.0000
# 2 55.7283 95.5645 46.4900 0.0000 0.0000 0.0000
# 3 46.4900 46.4900 68.3110 0.0000 0.0000 0.0000
# 4 0.0000 0.0000 0.0000 17.6449 0.0000 0.0000
# 5 0.0000 0.0000 0.0000 0.0000 17.6449 0.0000
# 6 0.0000 0.0000 0.0000 0.0000 0.0000 19.9181
#
#
#
# Elastic Compliance Matrix: (Units=1/GPa)
#
#
# Indices 1 2 3 4 5 6 
#
# 1 0.018232 -0.006870 -0.007732 0.000000 0.000000 0.000000
# 2 -0.006870 0.018232 -0.007732 0.000000 0.000000 0.000000
# 3 -0.007732 -0.007732 0.025164 0.000000 0.000000 0.000000
# 4 0.000000 0.000000 0.000000 0.056673 0.000000 0.000000
# 5 0.000000 0.000000 0.000000 0.000000 0.056673 0.000000
# 6 0.000000 0.000000 0.000000 0.000000 0.000000 0.050206
#
#
# Mechanical properties :
#
#
# Convention : Reuss Voigt Hill
#
# Bulk Modulus (GPa) = 58.97047 61.87296 60.42171
# Shear Modulus (GPa) = 18.14854 18.42372 18.28613
#
# Velocity S-wave (km/s) = 3.43088 3.45679 3.44386
# Velocity P-wave (km/s) = 7.34453 7.48750 7.41636
#
# Compressibility (1/GPa) = 0.01695764
#
# Stress axis : x y z
#
# Youngs Moduli (GPa) = 54.84771 54.84771 39.73958
#
# Poissons Ratio (x) = 0.37683 0.30729
# Poissons Ratio (y) = 0.37683 0.30729
# Poissons Ratio (z) = 0.42411 0.42411
#
# Static dielectric constant tensor:
#      x y z
#    x 2.895680 0.000000 0.000000 
#    y 0.000000 2.895680 0.000000 
#    z 0.000000 0.000000 2.991130 
# 
# 
# High freq. dielectric constant tensor:
#      x y z
#    x 1.577470 0.000000 0.000000 
#    y 0.000000 1.577470 0.000000 
#    z 0.000000 0.000000 1.594810 
# 
# From -- ./inp_files/10458.got.cif
#   From: 2010.03.12/outbox.cif.g09.slc.cpg/sg191_6_cif.got.tgz:10458.got - 2010.04.01 12:09:02.
