data_PCOD8328857
_publ_section_title
;
Structure prediction by ZEFSAII (Michael W. Deem and Ramdas Pophale) SiO2 
 PCOD8328857
Probable space group: P 6/M M M
;
_chemical_formula_sum "Si O2"
_cell_formula_units_Z 132
_cell_length_a 27.454853
_cell_length_b 27.454853
_cell_length_c 12.795226
_cell_angle_alpha 90.000000
_cell_angle_beta 90.000000
_cell_angle_gamma 120.000000
_cell_volume 8352.506809
_symmetry_space_group_name_H-M "P 6/M M M"
_symmetry_group_IT_number 191
_symmetry_cell_setting 'hexagonal'
loop_
_space_group_symop_operation_xyz
x,y,z
x-y,x,z
-y,x-y,z
-x,-y,z
-x+y,-x,z
y,-x+y,z
x-y,-y,-z
-x,-x+y,-z
y,x,-z
-y,-x,-z
-x+y,y,-z
x,x-y,-z
-x,-y,-z
-x+y,-x,-z
y,-x+y,-z
x,y,-z
x-y,x,-z
-y,x-y,-z
-x+y,y,z
x,x-y,z
-y,-x,z
y,x,z
x-y,-y,z
-x,-x+y,z
loop_
_atom_site_type_symbol
_atom_site_label
_atom_site_fract_x
_atom_site_fract_y
_atom_site_fract_z
Si Si1 0.177351 0.709543 0.382116
Si Si2 0.331747 0.935031 0.121683
Si Si3 0.879176 0.232451 0.271022
Si Si4 0.554759 0.220519 0.000000
Si Si5 0.826934 0.763654 0.622349
Si Si6 0.142849 0.514997 0.198013
O O1 0.163856 0.685989 0.500000
O O2 0.241341 0.758660 0.371537
O O3 0.135239 0.732686 0.354480
O O4 0.169951 0.659786 0.306053
O O5 0.269035 0.904838 0.167461
O O6 0.370915 0.913884 0.174909
O O7 0.360138 0.000000 0.147649
O O8 0.326657 0.921878 0.000000
O O9 0.823299 0.176702 0.235273
O O10 0.923310 0.217069 0.320921
O O11 0.525956 0.185293 0.896472
O O12 0.620787 0.241574 0.000000
O O13 0.545061 0.272531 0.000000
O O14 0.818677 0.750994 0.500000
O O15 0.891512 0.783023 0.654530
O O16 0.812462 0.812462 0.653039
O O17 0.127180 0.563590 0.208198
#
# Coordination Sequence:
#
# PCOD8328857 Si02
#       6
#    24  24  24  12  24  24
#     4   9  17  30  48  70  94 118 145 182 232 284
#     4  10  20  33  47  66  92 122 154 189 229 271
#     4   9  17  29  46  69  92 117 148 185 229 276
#     4  10  19  32  49  69  91 113 142 183 232 278
#     4   9  16  26  42  64  90 120 153 188 224 264
#     4  10  20  33  48  68  90 118 155 192 225 266
#
# _framework density 15.803639
#
# number of rings (size 3 to 8) (size 9 to 14) (size 15 to 20)
#    0.000    2.545    0.909    1.727    0.000    4.000 
#    0.000    0.909    0.000    5.455    0.000    6.364 
#    0.000    0.000    0.000    0.000    0.000    0.000 
#
# Total GULP energy -1636718.625594 kJ/mol
# GULP energy per Si atom -12399.383527 kJ/mol
# Density = 1.576767 g / cm^3
# Si number density = 15.803639 Si / 1000 Ang^3
#
#
#
# Elastic Constant Matrix: (Units=GPa)
#
#
# Indices 1 2 3 4 5 6 
#
# 1 88.9589 52.2457 46.5085 0.0000 0.0000 0.0000
# 2 52.2457 88.9589 46.5085 0.0000 0.0000 0.0000
# 3 46.5085 46.5085 101.4292 0.0000 0.0000 0.0000
# 4 0.0000 0.0000 0.0000 21.4496 0.0000 0.0000
# 5 0.0000 0.0000 0.0000 0.0000 21.4496 0.0000
# 6 0.0000 0.0000 0.0000 0.0000 0.0000 18.3566
#
#
#
# Elastic Compliance Matrix: (Units=1/GPa)
#
#
# Indices 1 2 3 4 5 6 
#
# 1 0.018692 -0.008546 -0.004653 0.000000 0.000000 0.000000
# 2 -0.008546 0.018692 -0.004653 0.000000 0.000000 0.000000
# 3 -0.004653 -0.004653 0.014126 0.000000 0.000000 0.000000
# 4 0.000000 0.000000 0.000000 0.046621 0.000000 0.000000
# 5 0.000000 0.000000 0.000000 0.000000 0.046621 0.000000
# 6 0.000000 0.000000 0.000000 0.000000 0.000000 0.054476
#
#
# Mechanical properties :
#
#
# Convention : Reuss Voigt Hill
#
# Bulk Modulus (GPa) = 63.25539 63.31914 63.28727
# Shear Modulus (GPa) = 20.81595 21.19011 21.00303
#
# Velocity S-wave (km/s) = 3.63321 3.66572 3.64950
# Velocity P-wave (km/s) = 7.59691 7.62035 7.60864
#
# Compressibility (1/GPa) = 0.01580893
#
# Stress axis : x y z
#
# Youngs Moduli (GPa) = 53.49753 53.49753 70.79226
#
# Poissons Ratio (x) = 0.45717 0.32937
# Poissons Ratio (y) = 0.45717 0.32937
# Poissons Ratio (z) = 0.24890 0.24890
#
# Static dielectric constant tensor:
#      x y z
#    x 3.004250 0.000000 0.000000 
#    y 0.000000 3.004250 0.000000 
#    z 0.000000 0.000000 3.021980 
# 
# 
# High freq. dielectric constant tensor:
#      x y z
#    x 1.601730 0.000000 0.000000 
#    y 0.000000 1.601730 0.000000 
#    z 0.000000 0.000000 1.604150 
# 
# From -- ./inp_files/3336.got.cif
#   From: 2010.03.12/outbox.cif.g09.slc.cpg/sg191_2_cif.got.tgz:3336.got - 2010.04.01 12:09:02.
