data_PCOD8328515
_publ_section_title
;
Structure prediction by ZEFSAII (Michael W. Deem and Ramdas Pophale) SiO2 
 PCOD8328515
Probable space group: P 6/M M M
;
_chemical_formula_sum "Si O2"
_cell_formula_units_Z 168
_cell_length_a 22.115399
_cell_length_b 22.115399
_cell_length_c 25.231622
_cell_angle_alpha 90.000000
_cell_angle_beta 90.000000
_cell_angle_gamma 120.000000
_cell_volume 10687.235018
_symmetry_space_group_name_H-M "P 6/M M M"
_symmetry_group_IT_number 191
_symmetry_cell_setting 'hexagonal'
loop_
_space_group_symop_operation_xyz
x,y,z
x-y,x,z
-y,x-y,z
-x,-y,z
-x+y,-x,z
y,-x+y,z
x-y,-y,-z
-x,-x+y,-z
y,x,-z
-y,-x,-z
-x+y,y,-z
x,x-y,-z
-x,-y,-z
-x+y,-x,-z
y,-x+y,-z
x,y,-z
x-y,x,-z
-y,x-y,-z
-x+y,y,z
x,x-y,z
-y,-x,z
y,x,z
x-y,-y,z
-x,-x+y,z
loop_
_atom_site_type_symbol
_atom_site_label
_atom_site_fract_x
_atom_site_fract_y
_atom_site_fract_z
Si Si1 0.710247 0.786986 0.759785
Si Si2 0.474798 0.082723 0.156420
Si Si3 0.657489 0.576570 0.731910
Si Si4 0.716937 0.793509 0.119061
Si Si5 0.680175 0.597265 0.058536
Si Si6 0.922224 0.389390 0.440379
Si Si7 0.187740 0.522271 0.353754
O O1 0.731429 0.865715 0.744550
O O2 0.776528 0.776528 0.748185
O O3 0.645194 0.732992 0.723910
O O4 0.688050 0.769019 0.821370
O O5 0.556878 0.113755 0.163190
O O6 0.448024 0.103996 0.208025
O O7 0.464272 0.115185 0.102089
O O8 0.433824 0.000000 0.150766
O O9 0.595934 0.595934 0.720859
O O10 0.650822 0.513904 0.696039
O O11 0.752285 0.876143 0.113422
O O12 0.777674 0.777674 0.104699
O O13 0.654075 0.756995 0.077625
O O14 0.631938 0.631938 0.056761
O O15 0.683521 0.568900 0.000000
O O16 0.907717 0.358905 0.500000
O O17 0.922904 0.461452 0.438828
O O18 0.858627 0.334454 0.403670
O O19 0.000000 0.405408 0.421801
O O20 0.260114 0.520227 0.350687
O O21 0.205916 0.602958 0.357321
#
# Coordination Sequence:
#
# PCOD8328515 Si02
#       7
#    24  24  24  24  24  24  24
#     4   9  16  27  44  64  86 111 141 178 220 265
#     4   9  16  26  40  59  82 105 131 166 212 266
#     4  10  18  30  48  67  86 112 150 194 233 267
#     4   9  16  27  42  59  80 106 136 170 210 257
#     4   9  16  26  39  56  79 104 130 163 207 261
#     4   8  15  30  51  71  89 112 147 189 226 259
#     4  11  22  33  45  64  93 126 157 188 225 270
#
# _framework density 15.719688
#
# number of rings (size 3 to 8) (size 9 to 14) (size 15 to 20)
#    0.000    2.714    1.429    1.857    0.000    2.286 
#    0.000    1.429    0.000    1.143    0.000    2.000 
#    0.000    0.000    0.000    3.571    0.000    5.857 
#
# Total GULP energy -2081262.542938 kJ/mol
# GULP energy per Si atom -12388.467517 kJ/mol
# Density = 1.568391 g / cm^3
# Si number density = 15.719688 Si / 1000 Ang^3
#
#
#
# Elastic Constant Matrix: (Units=GPa)
#
#
# Indices 1 2 3 4 5 6 
#
# 1 74.6134 44.6910 30.9179 0.0000 0.0000 0.0000
# 2 44.6910 74.6134 30.9179 0.0000 0.0000 0.0000
# 3 30.9179 30.9179 64.7824 0.0000 0.0000 0.0000
# 4 0.0000 0.0000 0.0000 16.2286 0.0000 0.0000
# 5 0.0000 0.0000 0.0000 0.0000 16.2286 0.0000
# 6 0.0000 0.0000 0.0000 0.0000 0.0000 14.9612
#
#
#
# Elastic Compliance Matrix: (Units=1/GPa)
#
#
# Indices 1 2 3 4 5 6 
#
# 1 0.022278 -0.011142 -0.005315 0.000000 0.000000 0.000000
# 2 -0.011142 0.022278 -0.005315 0.000000 0.000000 0.000000
# 3 -0.005315 -0.005315 0.020510 0.000000 0.000000 0.000000
# 4 0.000000 0.000000 0.000000 0.061619 0.000000 0.000000
# 5 0.000000 0.000000 0.000000 0.000000 0.061619 0.000000
# 6 0.000000 0.000000 0.000000 0.000000 0.000000 0.066840
#
#
# Mechanical properties :
#
#
# Convention : Reuss Voigt Hill
#
# Bulk Modulus (GPa) = 46.46250 47.45143 46.95696
# Shear Modulus (GPa) = 16.34722 16.64918 16.49820
#
# Velocity S-wave (km/s) = 3.22828 3.25796 3.24315
# Velocity P-wave (km/s) = 6.59672 6.66362 6.63026
#
# Compressibility (1/GPa) = 0.02152273
#
# Stress axis : x y z
#
# Youngs Moduli (GPa) = 44.88675 44.88675 48.75755
#
# Poissons Ratio (x) = 0.50011 0.25915
# Poissons Ratio (y) = 0.50011 0.25915
# Poissons Ratio (z) = 0.23858 0.23858
#
# Static dielectric constant tensor:
#      x y z
#    x 2.864780 0.000000 0.000000 
#    y 0.000000 2.864780 0.000000 
#    z 0.000000 0.000000 3.143690 
# 
# 
# High freq. dielectric constant tensor:
#      x y z
#    x 1.577530 0.000000 0.000000 
#    y 0.000000 1.577530 0.000000 
#    z 0.000000 0.000000 1.598120 
# 
# From -- ./inp_files/9209.got.cif
#   From: 2010.03.12/outbox.cif.g09.slc.cpg/sg191_5_cif.got.tgz:9209.got - 2010.04.01 12:09:02.
