data_PCOD8328411
_publ_section_title
;
Structure prediction by ZEFSAII (Michael W. Deem and Ramdas Pophale) SiO2 
 PCOD8328411
Probable space group: P 6/M M M
;
_chemical_formula_sum "Si O2"
_cell_formula_units_Z 192
_cell_length_a 21.900511
_cell_length_b 21.900511
_cell_length_c 28.442229
_cell_angle_alpha 90.000000
_cell_angle_beta 90.000000
_cell_angle_gamma 120.000000
_cell_volume 11814.157518
_symmetry_space_group_name_H-M "P 6/M M M"
_symmetry_group_IT_number 191
_symmetry_cell_setting 'hexagonal'
loop_
_space_group_symop_operation_xyz
x,y,z
x-y,x,z
-y,x-y,z
-x,-y,z
-x+y,-x,z
y,-x+y,z
x-y,-y,-z
-x,-x+y,-z
y,x,-z
-y,-x,-z
-x+y,y,-z
x,x-y,-z
-x,-y,-z
-x+y,-x,-z
y,-x+y,-z
x,y,-z
x-y,x,-z
-y,x-y,-z
-x+y,y,z
x,x-y,z
-y,-x,z
y,x,z
x-y,-y,z
-x,-x+y,z
loop_
_atom_site_type_symbol
_atom_site_label
_atom_site_fract_x
_atom_site_fract_y
_atom_site_fract_z
Si Si1 0.279268 0.856583 0.368697
Si Si2 0.916963 0.390944 0.447690
Si Si3 0.563470 0.850962 0.140441
Si Si4 0.467977 0.077866 0.219028
Si Si5 0.299532 0.079753 0.296353
Si Si6 0.921165 0.214234 0.810771
Si Si7 0.333168 0.526040 0.946895
Si Si8 0.805866 0.474492 0.710020
O O1 0.202865 0.797136 0.387016
O O2 0.325812 0.896574 0.413342
O O3 0.269434 0.907248 0.331915
O O4 0.318427 0.819727 0.343382
O O5 0.887280 0.361889 0.500000
O O6 0.889640 0.444820 0.431430
O O7 0.000000 0.434495 0.449348
O O8 0.541860 0.770930 0.154245
O O9 0.521785 0.878969 0.171447
O O10 0.646426 0.901923 0.150297
O O11 0.541531 0.853564 0.086521
O O12 0.532841 0.065681 0.224311
O O13 0.468286 0.125566 0.261763
O O14 0.396899 0.000000 0.219660
O O15 0.274233 0.137117 0.305585
O O16 0.325737 0.086993 0.241886
O O17 0.234597 0.000000 0.304798
O O18 0.869595 0.130406 0.816374
O O19 0.000000 0.230030 0.820148
O O20 0.275296 0.550592 0.942902
O O21 0.407911 0.592090 0.931619
O O22 0.336662 0.502126 0.000000
O O23 0.737292 0.474584 0.730453
O O24 0.792441 0.396221 0.713574
#
# Coordination Sequence:
#
# PCOD8328411 Si02
#       8
#    24  24  24  24  24  24  24  24
#     4  10  19  29  44  66  89 114 144 177 216 263
#     4   9  18  32  48  64  82 107 141 180 220 260
#     4  10  18  28  44  64  86 113 145 179 216 259
#     4  10  20  31  43  61  85 113 145 180 217 257
#     4   9  17  29  46  69  96 124 153 185 221 262
#     4   9  17  29  46  67  90 116 144 174 209 252
#     4   9  17  29  45  64  86 114 150 191 230 264
#     4  10  20  33  47  64  87 114 144 178 218 263
#
# _framework density 16.251687
#
# number of rings (size 3 to 8) (size 9 to 14) (size 15 to 20)
#    0.000    2.500    0.000    3.250    0.000    4.750 
#    0.000    1.250    0.000    6.000    0.000    6.125 
#    0.000    0.000    0.000    0.000    0.000    0.000 
#
# Total GULP energy -2379224.524014 kJ/mol
# GULP energy per Si atom -12391.794396 kJ/mol
# Density = 1.621470 g / cm^3
# Si number density = 16.251687 Si / 1000 Ang^3
#
#
#
# Elastic Constant Matrix: (Units=GPa)
#
#
# Indices 1 2 3 4 5 6 
#
# 1 86.5574 46.5247 47.9249 0.0000 0.0000 0.0000
# 2 46.5247 86.5574 47.9249 0.0000 0.0000 0.0000
# 3 47.9249 47.9249 85.4457 0.0000 0.0000 0.0000
# 4 0.0000 0.0000 0.0000 21.1703 0.0000 0.0000
# 5 0.0000 0.0000 0.0000 0.0000 21.1703 0.0000
# 6 0.0000 0.0000 0.0000 0.0000 0.0000 20.0164
#
#
#
# Elastic Compliance Matrix: (Units=1/GPa)
#
#
# Indices 1 2 3 4 5 6 
#
# 1 0.018793 -0.006186 -0.007071 0.000000 0.000000 0.000000
# 2 -0.006186 0.018793 -0.007071 0.000000 0.000000 0.000000
# 3 -0.007071 -0.007071 0.019635 0.000000 0.000000 0.000000
# 4 0.000000 0.000000 0.000000 0.047236 0.000000 0.000000
# 5 0.000000 0.000000 0.000000 0.000000 0.047236 0.000000
# 6 0.000000 0.000000 0.000000 0.000000 0.000000 0.049959
#
#
# Mechanical properties :
#
#
# Convention : Reuss Voigt Hill
#
# Bulk Modulus (GPa) = 60.36754 60.36771 60.36763
# Shear Modulus (GPa) = 20.17503 20.21713 20.19608
#
# Velocity S-wave (km/s) = 3.52719 3.53087 3.52903
# Velocity P-wave (km/s) = 7.33581 7.33818 7.33699
#
# Compressibility (1/GPa) = 0.01656519
#
# Stress axis : x y z
#
# Youngs Moduli (GPa) = 53.21065 53.21065 50.92873
#
# Poissons Ratio (x) = 0.32918 0.36012
# Poissons Ratio (y) = 0.32918 0.36012
# Poissons Ratio (z) = 0.37625 0.37625
#
# Static dielectric constant tensor:
#      x y z
#    x 3.059610 0.000000 0.000000 
#    y 0.000000 3.059610 0.000000 
#    z 0.000000 0.000000 3.043330 
# 
# 
# High freq. dielectric constant tensor:
#      x y z
#    x 1.615610 0.000000 0.000000 
#    y 0.000000 1.615610 0.000000 
#    z 0.000000 0.000000 1.609320 
# 
# From -- ./inp_files/10167.got.cif
#   From: 2010.03.12/outbox.cif.g09.slc.cpg/sg191_6_cif.got.tgz:10167.got - 2010.04.01 12:09:02.
