data_PCOD8328998
_publ_section_title
;
Structure prediction by ZEFSAII (Michael W. Deem and Ramdas Pophale) SiO2 
 PCOD8328998
Probable space group: P 6/M M M
;
_chemical_formula_sum "Si O2"
_cell_formula_units_Z 72
_cell_length_a 18.072109
_cell_length_b 18.072109
_cell_length_c 15.094818
_cell_angle_alpha 90.000000
_cell_angle_beta 90.000000
_cell_angle_gamma 120.000000
_cell_volume 4269.491835
_symmetry_space_group_name_H-M "P 6/M M M"
_symmetry_group_IT_number 191
_symmetry_cell_setting 'hexagonal'
loop_
_space_group_symop_operation_xyz
x,y,z
x-y,x,z
-y,x-y,z
-x,-y,z
-x+y,-x,z
y,-x+y,z
x-y,-y,-z
-x,-x+y,-z
y,x,-z
-y,-x,-z
-x+y,y,-z
x,x-y,-z
-x,-y,-z
-x+y,-x,-z
y,-x+y,-z
x,y,-z
x-y,x,-z
-y,x-y,-z
-x+y,y,z
x,x-y,z
-y,-x,z
y,x,z
x-y,-y,z
-x,-x+y,z
loop_
_atom_site_type_symbol
_atom_site_label
_atom_site_fract_x
_atom_site_fract_y
_atom_site_fract_z
Si Si1 0.494257 0.162315 0.500000
Si Si2 0.531196 0.899420 0.000000
Si Si3 0.095718 0.358110 0.647146
Si Si4 0.260273 0.356783 0.150861
O O1 0.574571 0.149141 0.500000
O O2 0.525051 0.262525 0.500000
O O3 0.439160 0.116943 0.412926
O O4 0.560821 0.871130 0.911917
O O5 0.428074 0.856148 0.000000
O O6 0.572035 0.000000 0.000000
O O7 0.162409 0.324817 0.626946
O O8 0.102649 0.388723 0.748512
O O9 0.000000 0.280904 0.626668
O O10 0.158581 0.317162 0.136889
O O11 0.283431 0.283431 0.126693
#
# Coordination Sequence:
#
# PCOD8328998 Si02
#       4
#    12  12  24  24
#     4  10  20  33  48  67  92 120 149 182 224 273
#     4   9  17  28  43  64  88 114 146 185 225 262
#     4   9  18  31  47  68  93 121 152 187 226 266
#     4   9  17  30  48  69  93 121 153 187 224 267
#
# _framework density 16.863834000000001
#
# number of rings (size 3 to 8) (size 9 to 14) (size 15 to 20)
#    0.000    2.833    0.000    1.167    0.000    2.667 
#    0.000    3.333    0.000    3.333    0.000    4.667 
#    0.000    8.000    0.000    0.667    0.000    0.000 
#
# Total GULP energy -892436.599920 kJ/mol
# GULP energy per Si atom -12394.952777 kJ/mol
# Density = 1.682545 g / cm^3
# Si number density = 16.863834 Si / 1000 Ang^3
#
#
#
# Elastic Constant Matrix: (Units=GPa)
#
#
# Indices 1 2 3 4 5 6 
#
# 1 111.1300 76.0892 55.7295 0.0000 0.0000 0.0000
# 2 76.0892 111.1300 55.7295 0.0000 0.0000 0.0000
# 3 55.7295 55.7295 102.3077 0.0000 0.0000 0.0000
# 4 0.0000 0.0000 0.0000 22.8626 0.0000 0.0000
# 5 0.0000 0.0000 0.0000 0.0000 22.8626 0.0000
# 6 0.0000 0.0000 0.0000 0.0000 0.0000 17.5204
#
#
#
# Elastic Compliance Matrix: (Units=1/GPa)
#
#
# Indices 1 2 3 4 5 6 
#
# 1 0.018221 -0.010317 -0.004306 0.000000 0.000000 0.000000
# 2 -0.010317 0.018221 -0.004306 0.000000 0.000000 0.000000
# 3 -0.004306 -0.004306 0.014466 0.000000 0.000000 0.000000
# 4 0.000000 0.000000 0.000000 0.043740 0.000000 0.000000
# 5 0.000000 0.000000 0.000000 0.000000 0.043740 0.000000
# 6 0.000000 0.000000 0.000000 0.000000 0.000000 0.057076
#
#
# Mechanical properties :
#
#
# Convention : Reuss Voigt Hill
#
# Bulk Modulus (GPa) = 76.62013 77.74046 77.18029
# Shear Modulus (GPa) = 21.03744 21.78375 21.41059
#
# Velocity S-wave (km/s) = 3.53581 3.59798 3.56703
# Velocity P-wave (km/s) = 7.88686 7.96616 7.92661
#
# Compressibility (1/GPa) = 0.01305140
#
# Stress axis : x y z
#
# Youngs Moduli (GPa) = 54.88029 54.88029 69.12969
#
# Poissons Ratio (x) = 0.56618 0.29767
# Poissons Ratio (y) = 0.56618 0.29767
# Poissons Ratio (z) = 0.23631 0.23631
#
# Static dielectric constant tensor:
#      x y z
#    x 3.153560 0.000000 0.000000 
#    y 0.000000 3.153560 0.000000 
#    z 0.000000 0.000000 3.404660 
# 
# 
# High freq. dielectric constant tensor:
#      x y z
#    x 1.631860 0.000000 0.000000 
#    y 0.000000 1.631860 0.000000 
#    z 0.000000 0.000000 1.670530 
# 
# From -- ./inp_files/3933.got.cif
#   From: 2010.03.12/outbox.cif.g09.slc.cpg/sg191_2_cif.got.tgz:3933.got - 2010.04.01 12:09:02.
