data_PCOD8328445
_publ_section_title
;
Structure prediction by ZEFSAII (Michael W. Deem and Ramdas Pophale) SiO2 
 PCOD8328445
Probable space group: P 6/M M M
;
_chemical_formula_sum "Si O2"
_cell_formula_units_Z 192
_cell_length_a 23.488917
_cell_length_b 23.488917
_cell_length_c 24.372553
_cell_angle_alpha 90.000000
_cell_angle_beta 90.000000
_cell_angle_gamma 120.000000
_cell_volume 11645.486647
_symmetry_space_group_name_H-M "P 6/M M M"
_symmetry_group_IT_number 191
_symmetry_cell_setting 'hexagonal'
loop_
_space_group_symop_operation_xyz
x,y,z
x-y,x,z
-y,x-y,z
-x,-y,z
-x+y,-x,z
y,-x+y,z
x-y,-y,-z
-x,-x+y,-z
y,x,-z
-y,-x,-z
-x+y,y,-z
x,x-y,-z
-x,-y,-z
-x+y,-x,-z
y,-x+y,-z
x,y,-z
x-y,x,-z
-y,x-y,-z
-x+y,y,z
x,x-y,z
-y,-x,z
y,x,z
x-y,-y,z
-x,-x+y,z
loop_
_atom_site_type_symbol
_atom_site_label
_atom_site_fract_x
_atom_site_fract_y
_atom_site_fract_z
Si Si1 0.074088 0.275940 0.062716
Si Si2 0.078304 0.603491 0.339396
Si Si3 0.317123 0.924142 0.242517
Si Si4 0.195826 0.928916 0.713430
Si Si5 0.861853 0.591760 0.127143
Si Si6 0.729776 0.802715 0.415756
Si Si7 0.077891 0.400268 0.439296
Si Si8 0.601273 0.074125 0.935559
O O1 0.124171 0.248342 0.072355
O O2 0.090820 0.335226 0.104050
O O3 0.000000 0.217503 0.074745
O O4 0.080326 0.301591 0.000000
O O5 0.105720 0.552860 0.339091
O O6 0.100668 0.645648 0.283349
O O7 0.107848 0.650953 0.392737
O O8 0.000000 0.565036 0.342567
O O9 0.253109 0.913499 0.273986
O O10 0.294038 0.879099 0.189223
O O11 0.364518 0.000000 0.225697
O O12 0.127192 0.872809 0.739509
O O13 0.190659 0.930699 0.648770
O O14 0.213348 0.000000 0.738253
O O15 0.786176 0.572351 0.122527
O O16 0.871773 0.539956 0.092046
O O17 0.748667 0.874334 0.440281
O O18 0.776612 0.776612 0.441325
O O19 0.653557 0.753495 0.429390
O O20 0.101542 0.431928 0.500000
O O21 0.000000 0.363804 0.435054
O O22 0.542970 0.085940 0.914804
O O23 0.583631 0.000000 0.919620
O O24 0.609685 0.083766 0.000000
#
# Coordination Sequence:
#
# PCOD8328445 Si02
#       8
#    24  24  24  24  24  24  24  24
#     4   9  17  29  45  66  94 127 160 197 244 294
#     4   9  17  29  44  64  90 119 149 178 214 263
#     4  10  18  29  44  63  91 125 158 191 224 268
#     4   9  16  27  43  60  82 115 155 196 237 282
#     4  11  21  30  45  71  98 122 154 195 238 281
#     4   9  16  27  43  62  86 119 159 201 243 287
#     4   9  16  27  43  64  90 117 147 183 224 275
#     4   9  18  33  52  72  95 124 156 189 226 272
#
# _framework density 16.487074
#
# number of rings (size 3 to 8) (size 9 to 14) (size 15 to 20)
#    0.000    2.625    1.250    2.250    0.000    2.750 
#    0.000    2.500    0.000    0.625    0.000    2.625 
#    0.000    0.000    0.000    8.875    0.000   14.875 
#
# Total GULP energy -2379765.994412 kJ/mol
# GULP energy per Si atom -12394.614554 kJ/mol
# Density = 1.644955 g / cm^3
# Si number density = 16.487074 Si / 1000 Ang^3
#
#
#
# Elastic Constant Matrix: (Units=GPa)
#
#
# Indices 1 2 3 4 5 6 
#
# 1 96.8532 58.8618 41.9702 0.0000 0.0000 0.0000
# 2 58.8618 96.8532 41.9702 0.0000 0.0000 0.0000
# 3 41.9702 41.9702 71.2093 0.0000 0.0000 0.0000
# 4 0.0000 0.0000 0.0000 -1.4550 0.0000 0.0000
# 5 0.0000 0.0000 0.0000 0.0000 -1.4550 0.0000
# 6 0.0000 0.0000 0.0000 0.0000 0.0000 18.9957
#
#
#
# Elastic Compliance Matrix: (Units=1/GPa)
#
#
# Indices 1 2 3 4 5 6 
#
# 1 0.017867 -0.008455 -0.005548 0.000000 0.000000 0.000000
# 2 -0.008455 0.017867 -0.005548 0.000000 0.000000 0.000000
# 3 -0.005548 -0.005548 0.020583 0.000000 0.000000 0.000000
# 4 0.000000 0.000000 0.000000 -0.687287 0.000000 0.000000
# 5 0.000000 0.000000 0.000000 0.000000 -0.687287 0.000000
# 6 0.000000 0.000000 0.000000 0.000000 0.000000 0.052643
#
#
# Mechanical properties :
#
#
# Convention : Reuss Voigt Hill
#
# Bulk Modulus (GPa) = 58.08212 61.16889 59.62550
# Shear Modulus (GPa) = -4.09576 11.35805 3.63115
#
# Velocity S-wave (km/s) = -1.57785 2.62755 1.48567
# Velocity P-wave (km/s) = 5.65561 6.81080 6.25991
#
# Compressibility (1/GPa) = 0.01721700
#
# Stress axis : x y z
#
# Youngs Moduli (GPa) = 55.96870 55.96870 48.58470
#
# Poissons Ratio (x) = 0.47319 0.26953
# Poissons Ratio (y) = 0.47319 0.26953
# Poissons Ratio (z) = 0.31050 0.31050
#
# Static dielectric constant tensor:
#      x y z
#    x 3.185440 0.000000 0.000000 
#    y 0.000000 3.185440 0.000000 
#    z 0.000000 0.000000 3.718690 
# 
# 
# High freq. dielectric constant tensor:
#      x y z
#    x 1.607750 0.000000 0.000000 
#    y 0.000000 1.607750 0.000000 
#    z 0.000000 0.000000 1.641930 
# 
# From -- ./inp_files/9378.got.cif
#   From: 2010.03.12/outbox.cif.g09.slc.cpg/sg191_5_cif.got.tgz:9378.got - 2010.04.01 12:09:02.
