data_PCOD8328513
_publ_section_title
;
Structure prediction by ZEFSAII (Michael W. Deem and Ramdas Pophale) SiO2 
 PCOD8328513
Probable space group: P 6/M M M
;
_chemical_formula_sum "Si O2"
_cell_formula_units_Z 168
_cell_length_a 22.122129
_cell_length_b 22.122129
_cell_length_c 25.306304
_cell_angle_alpha 90.000000
_cell_angle_beta 90.000000
_cell_angle_gamma 120.000000
_cell_volume 10725.392480
_symmetry_space_group_name_H-M "P 6/M M M"
_symmetry_group_IT_number 191
_symmetry_cell_setting 'hexagonal'
loop_
_space_group_symop_operation_xyz
x,y,z
x-y,x,z
-y,x-y,z
-x,-y,z
-x+y,-x,z
y,-x+y,z
x-y,-y,-z
-x,-x+y,-z
y,x,-z
-y,-x,-z
-x+y,y,-z
x,x-y,-z
-x,-y,-z
-x+y,-x,-z
y,-x+y,-z
x,y,-z
x-y,x,-z
-y,x-y,-z
-x+y,y,z
x,x-y,z
-y,-x,z
y,x,z
x-y,-y,z
-x,-x+y,z
loop_
_atom_site_type_symbol
_atom_site_label
_atom_site_fract_x
_atom_site_fract_y
_atom_site_fract_z
Si Si1 0.147526 0.438369 0.441661
Si Si2 0.525139 0.191468 0.656509
Si Si3 0.473161 0.806296 0.938850
Si Si4 0.922393 0.712767 0.720316
Si Si5 0.920883 0.531811 0.856127
Si Si6 0.922826 0.213016 0.597434
Si Si7 0.711634 0.561541 0.240155
O O1 0.137670 0.462510 0.500000
O O2 0.219937 0.439874 0.437139
O O3 0.147297 0.490166 0.397071
O O4 0.087270 0.358736 0.432369
O O5 0.598200 0.196400 0.666155
O O6 0.538272 0.269136 0.651567
O O7 0.475123 0.150652 0.705155
O O8 0.394180 0.788360 0.927585
O O9 0.479125 0.739562 0.921118
O O10 0.528530 0.874750 0.906663
O O11 0.492534 0.823854 0.000000
O O12 0.872107 0.744213 0.733199
O O13 0.915540 0.691522 0.659192
O O14 0.899797 0.644077 0.754341
O O15 0.000000 0.771455 0.736170
O O16 0.924307 0.462154 0.851602
O O17 0.882351 0.535934 0.804295
O O18 0.000000 0.597285 0.861708
O O19 0.865606 0.134395 0.579690
O O20 0.000000 0.226260 0.583838
O O21 0.771546 0.543092 0.224712
#
# Coordination Sequence:
#
# PCOD8328513 Si02
#       7
#    24  24  24  24  24  24  24
#     4   9  17  30  46  63  84 110 141 176 213 255
#     4  10  19  31  46  65  87 112 142 179 224 270
#     4   9  17  30  48  68  89 115 149 187 224 262
#     4   9  16  27  45  66  86 109 138 172 207 246
#     4  10  20  31  43  63  91 120 149 183 224 269
#     4   9  16  28  46  67  87 108 137 171 208 248
#     4  10  18  30  47  64  86 116 151 187 219 254
#
# _framework density 15.663762999999999
#
# number of rings (size 3 to 8) (size 9 to 14) (size 15 to 20)
#    0.000    2.571    1.429    1.571    0.000    1.429 
#    0.000    1.429    0.000    7.000    0.000    3.000 
#    0.000    0.000    0.000    3.571    0.000    3.714 
#
# Total GULP energy -2082632.457313 kJ/mol
# GULP energy per Si atom -12396.621770 kJ/mol
# Density = 1.562811 g / cm^3
# Si number density = 15.663763 Si / 1000 Ang^3
#
#
#
# Elastic Constant Matrix: (Units=GPa)
#
#
# Indices 1 2 3 4 5 6 
#
# 1 72.9756 37.2601 35.0315 0.0000 0.0000 0.0000
# 2 37.2601 72.9756 35.0315 0.0000 0.0000 0.0000
# 3 35.0315 35.0315 68.5409 0.0000 0.0000 0.0000
# 4 0.0000 0.0000 0.0000 18.0681 0.0000 0.0000
# 5 0.0000 0.0000 0.0000 0.0000 18.0681 0.0000
# 6 0.0000 0.0000 0.0000 0.0000 0.0000 17.8578
#
#
#
# Elastic Compliance Matrix: (Units=1/GPa)
#
#
# Indices 1 2 3 4 5 6 
#
# 1 0.020718 -0.007281 -0.006867 0.000000 0.000000 0.000000
# 2 -0.007281 0.020718 -0.006867 0.000000 0.000000 0.000000
# 3 -0.006867 -0.006867 0.021610 0.000000 0.000000 0.000000
# 4 0.000000 0.000000 0.000000 0.055346 0.000000 0.000000
# 5 0.000000 0.000000 0.000000 0.000000 0.055346 0.000000
# 6 0.000000 0.000000 0.000000 0.000000 0.000000 0.055998
#
#
# Mechanical properties :
#
#
# Convention : Reuss Voigt Hill
#
# Bulk Modulus (GPa) = 47.58998 47.68203 47.63600
# Shear Modulus (GPa) = 17.93586 17.94341 17.93964
#
# Velocity S-wave (km/s) = 3.38754 3.38825 3.38789
# Velocity P-wave (km/s) = 6.76378 6.76861 6.76619
#
# Compressibility (1/GPa) = 0.02101283
#
# Stress axis : x y z
#
# Youngs Moduli (GPa) = 48.26824 48.26824 46.27583
#
# Poissons Ratio (x) = 0.35146 0.31779
# Poissons Ratio (y) = 0.35146 0.31779
# Poissons Ratio (z) = 0.33147 0.33147
#
# Static dielectric constant tensor:
#      x y z
#    x 2.955340 0.000000 0.000000 
#    y 0.000000 2.955340 0.000000 
#    z 0.000000 0.000000 2.972350 
# 
# 
# High freq. dielectric constant tensor:
#      x y z
#    x 1.587060 0.000000 0.000000 
#    y 0.000000 1.587060 0.000000 
#    z 0.000000 0.000000 1.594710 
# 
# From -- ./inp_files/9155.got.cif
#   From: 2010.03.12/outbox.cif.g09.slc.cpg/sg191_5_cif.got.tgz:9155.got - 2010.04.01 12:09:02.
