data_PCOD8328061
_publ_section_title
;
Structure prediction by ZEFSAII (Michael W. Deem and Ramdas Pophale) SiO2 
 PCOD8328061
Probable space group: P -6 2 C
;
_chemical_formula_sum "Si O2"
_cell_formula_units_Z 72
_cell_length_a 23.386036
_cell_length_b 23.386036
_cell_length_c 8.936393
_cell_angle_alpha 90.000000
_cell_angle_beta 90.000000
_cell_angle_gamma 120.000000
_cell_volume 4232.589197
_symmetry_space_group_name_H-M "P -6 2 C"
_symmetry_group_IT_number 190
_symmetry_cell_setting 'hexagonal'
loop_
_space_group_symop_operation_xyz
x,y,z
-x+y,-x,1/2-z
-y,x-y,z
x,y,1/2-z
-x+y,-x,z
-y,x-y,1/2-z
x-y,-y,-z
-x,-x+y,-z
y,x,-z
y,x,1/2+z
x-y,-y,1/2+z
-x,-x+y,1/2+z
loop_
_atom_site_type_symbol
_atom_site_label
_atom_site_fract_x
_atom_site_fract_y
_atom_site_fract_z
Si Si1 0.396301 0.135256 0.575750
Si Si2 0.540418 0.207274 0.574854
Si Si3 0.737242 0.933039 0.579315
Si Si4 0.852434 0.591619 0.076288
Si Si5 0.265317 0.066656 0.426781
Si Si6 0.335119 0.535886 0.428562
O O1 0.378734 0.121015 0.750000
O O2 0.468251 0.143350 0.539431
O O3 0.404315 0.204848 0.532065
O O4 0.336579 0.077767 0.481333
O O5 0.552077 0.217542 0.750000
O O6 0.597325 0.194943 0.509099
O O7 0.546716 0.275340 0.514491
O O8 0.758597 0.942981 0.750000
O O9 0.662289 0.919625 0.559688
O O10 0.743166 0.871004 0.517577
O O11 0.789129 0.000000 0.500000
O O12 0.829617 0.581202 0.250000
O O13 0.857544 0.529533 0.012156
O O14 0.262177 0.060045 0.250000
O O15 0.207414 0.000000 0.500000
O O16 0.335271 0.526767 0.250000
#
# Coordination Sequence:
#
# PCOD8328061 Si02
#       6
#    12  12  12  12  12  12
#     4   9  16  28  46  67  90 122 159 196 237 280
#     4   8  14  23  39  62  87 116 157 201 241 286
#     4   9  19  33  51  74  99 122 149 184 222 261
#     4   9  17  29  42  63  93 121 153 196 237 278
#     4  10  20  34  52  77 103 126 151 185 224 267
#     4   9  15  25  41  61  86 121 160 200 245 294
#
# _framework density 17.010864000000002
#
# number of rings (size 3 to 8) (size 9 to 14) (size 15 to 20)
#    0.000    3.000    0.000    3.833    0.000    5.333 
#    0.000    4.167    0.000    1.333    0.000    2.333 
#    0.000    0.000    0.000    0.000    0.000    0.000 
#
# Total GULP energy -891973.132342 kJ/mol
# GULP energy per Si atom -12388.515727 kJ/mol
# Density = 1.697215 g / cm^3
# Si number density = 17.010864 Si / 1000 Ang^3
#
#
#
# Elastic Constant Matrix: (Units=GPa)
#
#
# Indices 1 2 3 4 5 6 
#
# 1 94.1697 52.9192 36.0908 0.0000 0.0000 0.0000
# 2 52.9192 94.1697 36.0908 0.0000 0.0000 0.0000
# 3 36.0908 36.0908 52.5395 0.0000 0.0000 0.0000
# 4 0.0000 0.0000 0.0000 24.3795 0.0000 0.0000
# 5 0.0000 0.0000 0.0000 0.0000 24.3795 0.0000
# 6 0.0000 0.0000 0.0000 0.0000 0.0000 20.6252
#
#
#
# Elastic Compliance Matrix: (Units=1/GPa)
#
#
# Indices 1 2 3 4 5 6 
#
# 1 0.017249 -0.006993 -0.007045 0.000000 0.000000 0.000000
# 2 -0.006993 0.017249 -0.007045 0.000000 0.000000 0.000000
# 3 -0.007045 -0.007045 0.028712 0.000000 0.000000 0.000000
# 4 0.000000 0.000000 0.000000 0.041018 0.000000 0.000000
# 5 0.000000 0.000000 0.000000 0.000000 0.041018 0.000000
# 6 0.000000 0.000000 0.000000 0.000000 0.000000 0.048484
#
#
# Mechanical properties :
#
#
# Convention : Reuss Voigt Hill
#
# Bulk Modulus (GPa) = 47.52007 54.56449 51.04228
# Shear Modulus (GPa) = 20.58363 21.59538 21.08951
#
# Velocity S-wave (km/s) = 3.48232 3.56688 3.52485
# Velocity P-wave (km/s) = 6.64564 7.00781 6.82912
#
# Compressibility (1/GPa) = 0.02104374
#
# Stress axis : x y z
#
# Youngs Moduli (GPa) = 57.97439 57.97439 34.82853
#
# Poissons Ratio (x) = 0.40542 0.24537
# Poissons Ratio (y) = 0.40542 0.24537
# Poissons Ratio (z) = 0.40843 0.40843
#
# Static dielectric constant tensor:
#      x y z
#    x 3.250250 0.000000 0.000000 
#    y 0.000000 3.250250 0.000000 
#    z 0.000000 0.000000 3.064650 
# 
# 
# High freq. dielectric constant tensor:
#      x y z
#    x 1.634700 0.000000 0.000000 
#    y 0.000000 1.634700 0.000000 
#    z 0.000000 0.000000 1.647830 
# 
# From -- ./inp_files/1227.got.cif
#   From: 2010.06.25/outbox.cif.g09.slc.cpg/sg190_1_cif.got.tgz:1227.got - 2010.06.28 13:08:06.
