data_PCOD8328248
_publ_section_title
;
Structure prediction by ZEFSAII (Michael W. Deem and Ramdas Pophale) SiO2 
 PCOD8328248
Probable space group: P 6/M M M
;
_chemical_formula_sum "Si O2"
_cell_formula_units_Z 96
_cell_length_a 28.054703
_cell_length_b 28.054703
_cell_length_c 8.629278
_cell_angle_alpha 90.000000
_cell_angle_beta 90.000000
_cell_angle_gamma 120.000000
_cell_volume 5881.883833
_symmetry_space_group_name_H-M "P 6/M M M"
_symmetry_group_IT_number 191
_symmetry_cell_setting 'hexagonal'
loop_
_space_group_symop_operation_xyz
x,y,z
x-y,x,z
-y,x-y,z
-x,-y,z
-x+y,-x,z
y,-x+y,z
x-y,-y,-z
-x,-x+y,-z
y,x,-z
-y,-x,-z
-x+y,y,-z
x,x-y,-z
-x,-y,-z
-x+y,-x,-z
y,-x+y,-z
x,y,-z
x-y,x,-z
-y,x-y,-z
-x+y,y,z
x,x-y,z
-y,-x,z
y,x,z
x-y,-y,z
-x,-x+y,z
loop_
_atom_site_type_symbol
_atom_site_label
_atom_site_fract_x
_atom_site_fract_y
_atom_site_fract_z
Si Si1 0.521391 0.583332 0.684051
Si Si2 0.805334 0.805334 0.315119
Si Si3 0.882554 0.765107 0.184434
Si Si4 0.698354 0.698354 0.683147
Si Si5 0.181103 0.362206 0.818593
Si Si6 0.703261 0.108928 0.683652
O O1 0.524404 0.583114 0.500000
O O2 0.458866 0.541134 0.740980
O O3 0.562303 0.562303 0.747434
O O4 0.540533 0.645839 0.737629
O O5 0.810043 0.810043 0.500000
O O6 0.855777 0.800431 0.246906
O O7 0.751541 0.751541 0.253758
O O8 0.850540 0.701080 0.248866
O O9 0.882457 0.764913 0.000000
O O10 0.697326 0.697326 0.500000
O O11 0.645396 0.698526 0.746726
O O12 0.156779 0.400470 0.765253
O O13 0.178252 0.356504 0.000000
O O14 0.711767 0.116363 0.500000
#
# Coordination Sequence:
#
# PCOD8328248 Si02
#       6
#    24  12  12  12  12  24
#     4   8  13  22  41  70  98 121 149 187 228 271
#     4  11  21  35  55  75  96 125 166 208 239 287
#     4  11  23  37  51  72 102 131 159 199 253 301
#     4   9  16  25  44  71  95 122 159 197 228 269
#     4  11  23  33  43  65  98 132 165 199 241 287
#     4  10  17  29  47  68  95 128 162 194 232 280
#
# _framework density 16.321301999999999
#
# number of rings (size 3 to 8) (size 9 to 14) (size 15 to 20)
#    0.000    2.250    3.750    1.875    0.000    1.000 
#    0.000    0.625    0.000    1.000    0.000    3.500 
#    1.250    0.000    2.250    0.000    0.750    0.000 
#
# Total GULP energy -1189417.955739 kJ/mol
# GULP energy per Si atom -12389.770372 kJ/mol
# Density = 1.628415 g / cm^3
# Si number density = 16.321302 Si / 1000 Ang^3
#
#
#
# Elastic Constant Matrix: (Units=GPa)
#
#
# Indices 1 2 3 4 5 6 
#
# 1 126.6139 71.3570 25.0990 0.0000 0.0000 0.0000
# 2 71.3570 126.6139 25.0990 0.0000 0.0000 0.0000
# 3 25.0990 25.0990 38.5791 0.0000 0.0000 0.0000
# 4 0.0000 0.0000 0.0000 11.0938 0.0000 0.0000
# 5 0.0000 0.0000 0.0000 0.0000 11.0938 0.0000
# 6 0.0000 0.0000 0.0000 0.0000 0.0000 27.6285
#
#
#
# Elastic Compliance Matrix: (Units=1/GPa)
#
#
# Indices 1 2 3 4 5 6 
#
# 1 0.012073 -0.006024 -0.003935 0.000000 0.000000 0.000000
# 2 -0.006024 0.012073 -0.003935 0.000000 0.000000 0.000000
# 3 -0.003935 -0.003935 0.031042 0.000000 0.000000 0.000000
# 4 0.000000 0.000000 0.000000 0.090140 0.000000 0.000000
# 5 0.000000 0.000000 0.000000 0.000000 0.090140 0.000000
# 6 0.000000 0.000000 0.000000 0.000000 0.000000 0.036195
#
#
# Mechanical properties :
#
#
# Convention : Reuss Voigt Hill
#
# Bulk Modulus (GPa) = 36.49923 59.43523 47.96723
# Shear Modulus (GPa) = 16.20295 21.31334 18.75815
#
# Velocity S-wave (km/s) = 3.15421 3.61759 3.39382
# Velocity P-wave (km/s) = 5.97301 7.34466 6.69406
#
# Compressibility (1/GPa) = 0.02739784
#
# Stress axis : x y z
#
# Youngs Moduli (GPa) = 82.82802 82.82802 32.21492
#
# Poissons Ratio (x) = 0.49896 0.12678
# Poissons Ratio (y) = 0.49896 0.12678
# Poissons Ratio (z) = 0.32597 0.32597
#
# Static dielectric constant tensor:
#      x y z
#    x 3.256330 0.000000 0.000000 
#    y 0.000000 3.256330 0.000000 
#    z 0.000000 0.000000 2.737480 
# 
# 
# High freq. dielectric constant tensor:
#      x y z
#    x 1.616220 0.000000 0.000000 
#    y 0.000000 1.616220 0.000000 
#    z 0.000000 0.000000 1.597970 
# 
# From -- ./inp_files/1616.got.cif
#   From: 2010.03.12/outbox.cif.g09.slc.cpg/sg191_1_cif.got.tgz:1616.got - 2010.04.01 12:09:02.
