data_PCOD8328956
_publ_section_title
;
Structure prediction by ZEFSAII (Michael W. Deem and Ramdas Pophale) SiO2 
 PCOD8328956
Probable space group: P 6/M M M
;
_chemical_formula_sum "Si O2"
_cell_formula_units_Z 132
_cell_length_a 17.922727
_cell_length_b 17.922727
_cell_length_c 29.628952
_cell_angle_alpha 90.000000
_cell_angle_beta 90.000000
_cell_angle_gamma 120.000000
_cell_volume 8242.426847
_symmetry_space_group_name_H-M "P 6/M M M"
_symmetry_group_IT_number 191
_symmetry_cell_setting 'hexagonal'
loop_
_space_group_symop_operation_xyz
x,y,z
x-y,x,z
-y,x-y,z
-x,-y,z
-x+y,-x,z
y,-x+y,z
x-y,-y,-z
-x,-x+y,-z
y,x,-z
-y,-x,-z
-x+y,y,-z
x,x-y,-z
-x,-y,-z
-x+y,-x,-z
y,-x+y,-z
x,y,-z
x-y,x,-z
-y,x-y,-z
-x+y,y,z
x,x-y,z
-y,-x,z
y,x,z
x-y,-y,z
-x,-x+y,z
loop_
_atom_site_type_symbol
_atom_site_label
_atom_site_fract_x
_atom_site_fract_y
_atom_site_fract_z
Si Si1 0.494072 0.333097 0.107618
Si Si2 0.666514 0.504017 0.211069
Si Si3 0.639851 0.902980 0.551248
Si Si4 0.098350 0.364056 0.287408
Si Si5 0.588761 0.588761 0.949123
Si Si6 0.531821 0.898689 0.630588
O O1 0.490036 0.245018 0.094504
O O2 0.590355 0.409646 0.097841
O O3 0.469285 0.335539 0.159559
O O4 0.424121 0.339704 0.076653
O O5 0.737230 0.474459 0.217218
O O6 0.574571 0.425430 0.226078
O O7 0.688702 0.586331 0.241527
O O8 0.607489 0.898051 0.500000
O O9 0.678337 0.839169 0.558256
O O10 0.557417 0.873106 0.583305
O O11 0.715408 0.000000 0.563242
O O12 0.162188 0.324376 0.284784
O O13 0.132822 0.433321 0.327963
O O14 0.000000 0.287106 0.294796
O O15 0.500000 0.500000 0.948413
O O16 0.620103 0.620103 0.000000
O O17 0.427821 0.855642 0.632749
O O18 0.573426 0.000000 0.634104
#
# Coordination Sequence:
#
# PCOD8328956 Si02
#       6
#    24  24  24  24  12  24
#     4   9  17  29  45  64  87 117 152 188 224 265
#     4   9  17  28  44  66  91 118 148 182 220 263
#     4   9  17  29  46  67  90 118 154 195 236 276
#     4  10  20  32  47  68  93 121 152 186 224 266
#     4   9  18  30  42  60  86 114 147 187 226 262
#     4   9  17  29  45  66  89 112 142 180 221 267
#
# _framework density 16.014700000000001
#
# number of rings (size 3 to 8) (size 9 to 14) (size 15 to 20)
#    0.000    2.818    0.000    1.455    1.273    3.273 
#    0.000    1.818    0.000    5.455    0.000    1.273 
#    0.000    4.364    0.000    0.455    0.000    1.182 
#
# Total GULP energy -1636439.922720 kJ/mol
# GULP energy per Si atom -12397.272142 kJ/mol
# Density = 1.597825 g / cm^3
# Si number density = 16.014700 Si / 1000 Ang^3
#
#
#
# Elastic Constant Matrix: (Units=GPa)
#
#
# Indices 1 2 3 4 5 6 
#
# 1 82.8628 48.0570 42.2842 0.0000 0.0000 0.0000
# 2 48.0570 82.8628 42.2842 0.0000 0.0000 0.0000
# 3 42.2842 42.2842 93.9811 0.0000 0.0000 0.0000
# 4 0.0000 0.0000 0.0000 20.4367 0.0000 0.0000
# 5 0.0000 0.0000 0.0000 0.0000 20.4367 0.0000
# 6 0.0000 0.0000 0.0000 0.0000 0.0000 17.4029
#
#
#
# Elastic Compliance Matrix: (Units=1/GPa)
#
#
# Indices 1 2 3 4 5 6 
#
# 1 0.019749 -0.008982 -0.004845 0.000000 0.000000 0.000000
# 2 -0.008982 0.019749 -0.004845 0.000000 0.000000 0.000000
# 3 -0.004845 -0.004845 0.015000 0.000000 0.000000 0.000000
# 4 0.000000 0.000000 0.000000 0.048932 0.000000 0.000000
# 5 0.000000 0.000000 0.000000 0.000000 0.048932 0.000000
# 6 0.000000 0.000000 0.000000 0.000000 0.000000 0.057462
#
#
# Mechanical properties :
#
#
# Convention : Reuss Voigt Hill
#
# Bulk Modulus (GPa) = 58.28620 58.32860 58.30740
# Shear Modulus (GPa) = 19.77195 20.12737 19.94966
#
# Velocity S-wave (km/s) = 3.51752 3.54899 3.53329
# Velocity P-wave (km/s) = 7.27817 7.30033 7.28925
#
# Compressibility (1/GPa) = 0.01715672
#
# Stress axis : x y z
#
# Youngs Moduli (GPa) = 50.63487 50.63487 66.66735
#
# Poissons Ratio (x) = 0.45478 0.32298
# Poissons Ratio (y) = 0.45478 0.32298
# Poissons Ratio (z) = 0.24531 0.24531
#
# Static dielectric constant tensor:
#      x y z
#    x 2.903430 0.000000 0.000000 
#    y 0.000000 2.903430 0.000000 
#    z 0.000000 0.000000 3.210020 
# 
# 
# High freq. dielectric constant tensor:
#      x y z
#    x 1.591330 0.000000 0.000000 
#    y 0.000000 1.591330 0.000000 
#    z 0.000000 0.000000 1.627630 
# 
# From -- ./inp_files/10486.got.cif
#   From: 2010.03.12/outbox.cif.g09.slc.cpg/sg191_6_cif.got.tgz:10486.got - 2010.04.01 12:09:02.
