data_PCOD8328753
_publ_section_title
;
Structure prediction by ZEFSAII (Michael W. Deem and Ramdas Pophale) SiO2 
 PCOD8328753
Probable space group: P 6/M M M
;
_chemical_formula_sum "Si O2"
_cell_formula_units_Z 120
_cell_length_a 18.075982
_cell_length_b 18.075982
_cell_length_c 24.325222
_cell_angle_alpha 90.000000
_cell_angle_beta 90.000000
_cell_angle_gamma 120.000000
_cell_volume 6883.213564
_symmetry_space_group_name_H-M "P 6/M M M"
_symmetry_group_IT_number 191
_symmetry_cell_setting 'hexagonal'
loop_
_space_group_symop_operation_xyz
x,y,z
x-y,x,z
-y,x-y,z
-x,-y,z
-x+y,-x,z
y,-x+y,z
x-y,-y,-z
-x,-x+y,-z
y,x,-z
-y,-x,-z
-x+y,y,-z
x,x-y,-z
-x,-y,-z
-x+y,-x,-z
y,-x+y,-z
x,y,-z
x-y,x,-z
-y,x-y,-z
-x+y,y,z
x,x-y,z
-y,-x,z
y,x,z
x-y,-y,z
-x,-x+y,z
loop_
_atom_site_type_symbol
_atom_site_label
_atom_site_fract_x
_atom_site_fract_y
_atom_site_fract_z
Si Si1 0.164572 0.668654 0.851235
Si Si2 0.354285 0.259755 0.062479
Si Si3 0.662381 0.000000 0.434895
Si Si4 0.493336 0.162319 0.380630
Si Si5 0.168570 0.168570 0.434581
Si Si6 0.905182 0.539962 0.263914
O O1 0.149099 0.574550 0.855766
O O2 0.263779 0.736221 0.861020
O O3 0.107006 0.676630 0.898080
O O4 0.137460 0.686941 0.791645
O O5 0.322947 0.161474 0.077335
O O6 0.273949 0.273949 0.071056
O O7 0.388532 0.281020 0.000000
O O8 0.661942 0.083882 0.414885
O O9 0.661575 0.000000 0.500000
O O10 0.746937 0.000000 0.412908
O O11 0.583339 0.166678 0.389887
O O12 0.500758 0.250379 0.401490
O O13 0.466676 0.151002 0.316605
O O14 0.168891 0.084446 0.412130
O O15 0.167409 0.167409 0.500000
O O16 0.911928 0.455964 0.259526
O O17 0.000000 0.621489 0.270651
#
# Coordination Sequence:
#
# PCOD8328753 Si02
#       6
#    24  24  12  24  12  24
#     4  10  19  30  46  70 102 139 177 215 252 291
#     4   9  18  32  49  70  97 130 167 208 256 308
#     4  11  23  39  57  77 105 139 170 205 255 311
#     4  11  22  37  56  78 104 136 174 216 259 306
#     4   9  17  31  53  81 109 135 165 202 245 295
#     4   9  17  31  50  72  98 129 166 209 256 300
#
# _framework density 17.433717000000001
#
# number of rings (size 3 to 8) (size 9 to 14) (size 15 to 20)
#    0.000    2.200    1.000    2.600    0.000    4.000 
#    0.000    3.000    0.000    2.600    0.000    1.400 
#    0.000    0.000    0.000    0.000    0.000    0.000 
#
# Total GULP energy -1487806.669958 kJ/mol
# GULP energy per Si atom -12398.388916 kJ/mol
# Density = 1.739404 g / cm^3
# Si number density = 17.433717 Si / 1000 Ang^3
#
#
#
# Elastic Constant Matrix: (Units=GPa)
#
#
# Indices 1 2 3 4 5 6 
#
# 1 113.1983 70.0334 40.2859 0.0000 0.0000 0.0000
# 2 70.0334 113.1983 40.2859 0.0000 0.0000 0.0000
# 3 40.2859 40.2859 78.3420 0.0000 0.0000 0.0000
# 4 0.0000 0.0000 0.0000 22.8149 0.0000 0.0000
# 5 0.0000 0.0000 0.0000 0.0000 22.8149 0.0000
# 6 0.0000 0.0000 0.0000 0.0000 0.0000 21.5825
#
#
#
# Elastic Compliance Matrix: (Units=1/GPa)
#
#
# Indices 1 2 3 4 5 6 
#
# 1 0.015110 -0.008057 -0.003626 0.000000 0.000000 0.000000
# 2 -0.008057 0.015110 -0.003626 0.000000 0.000000 0.000000
# 3 -0.003626 -0.003626 0.016494 0.000000 0.000000 0.000000
# 4 0.000000 0.000000 0.000000 0.043831 0.000000 0.000000
# 5 0.000000 0.000000 0.000000 0.000000 0.043831 0.000000
# 6 0.000000 0.000000 0.000000 0.000000 0.000000 0.046334
#
#
# Mechanical properties :
#
#
# Convention : Reuss Voigt Hill
#
# Bulk Modulus (GPa) = 62.13963 67.32767 64.73365
# Shear Modulus (GPa) = 23.07400 23.71803 23.39602
#
# Velocity S-wave (km/s) = 3.64198 3.69245 3.66730
# Velocity P-wave (km/s) = 7.30795 7.54202 7.42590
#
# Compressibility (1/GPa) = 0.01609279
#
# Stress axis : x y z
#
# Youngs Moduli (GPa) = 66.18312 66.18312 60.62729
#
# Poissons Ratio (x) = 0.53326 0.21986
# Poissons Ratio (y) = 0.53326 0.21986
# Poissons Ratio (z) = 0.24001 0.24001
#
# Static dielectric constant tensor:
#      x y z
#    x 3.245110 0.000000 0.000000 
#    y 0.000000 3.245110 0.000000 
#    z 0.000000 0.000000 3.323450 
# 
# 
# High freq. dielectric constant tensor:
#      x y z
#    x 1.668110 0.000000 0.000000 
#    y 0.000000 1.668110 0.000000 
#    z 0.000000 0.000000 1.669430 
# 
# From -- ./inp_files/8628.got.cif
#   From: 2010.03.12/outbox.cif.g09.slc.cpg/sg191_5_cif.got.tgz:8628.got - 2010.04.01 12:09:02.
