data_PCOD8328674
_publ_section_title
;
Structure prediction by ZEFSAII (Michael W. Deem and Ramdas Pophale) SiO2 
 PCOD8328674
Probable space group: P 6/M M M
;
_chemical_formula_sum "Si O2"
_cell_formula_units_Z 120
_cell_length_a 18.030802
_cell_length_b 18.030802
_cell_length_c 27.122630
_cell_angle_alpha 90.000000
_cell_angle_beta 90.000000
_cell_angle_gamma 120.000000
_cell_volume 7636.467712
_symmetry_space_group_name_H-M "P 6/M M M"
_symmetry_group_IT_number 191
_symmetry_cell_setting 'hexagonal'
loop_
_space_group_symop_operation_xyz
x,y,z
x-y,x,z
-y,x-y,z
-x,-y,z
-x+y,-x,z
y,-x+y,z
x-y,-y,-z
-x,-x+y,-z
y,x,-z
-y,-x,-z
-x+y,y,-z
x,x-y,-z
-x,-y,-z
-x+y,-x,-z
y,-x+y,-z
x,y,-z
x-y,x,-z
-y,x-y,-z
-x+y,y,z
x,x-y,z
-y,-x,z
y,x,z
x-y,-y,z
-x,-x+y,z
loop_
_atom_site_type_symbol
_atom_site_label
_atom_site_fract_x
_atom_site_fract_y
_atom_site_fract_z
Si Si1 0.504914 0.666807 0.616305
Si Si2 0.588203 0.000000 0.555634
Si Si3 0.904897 0.540254 0.000000
Si Si4 0.333356 0.497662 0.270494
Si Si5 0.330980 0.834872 0.896064
Si Si6 0.637930 0.903999 0.187874
O O1 0.509699 0.754850 0.601779
O O2 0.409213 0.590788 0.605065
O O3 0.575150 0.659526 0.583459
O O4 0.528393 0.664190 0.673224
O O5 0.500000 0.000000 0.556747
O O6 0.619035 0.000000 0.500000
O O7 0.855700 0.542216 0.951205
O O8 0.909972 0.454986 0.000000
O O9 0.000000 0.622231 0.000000
O O10 0.264558 0.529116 0.263988
O O11 0.424975 0.575026 0.253493
O O12 0.308393 0.415348 0.237382
O O13 0.426883 0.853766 0.888602
O O14 0.264842 0.735158 0.885210
O O15 0.314979 0.893726 0.858675
O O16 0.670955 0.835478 0.185925
O O17 0.719436 0.000000 0.187247
#
# Coordination Sequence:
#
# PCOD8328674 Si02
#       6
#    24  12  12  24  24  24
#     4   9  17  29  45  64  87 118 154 189 223 262
#     4   9  18  30  42  60  86 114 147 188 230 264
#     4   9  17  28  42  58  80 115 161 205 235 258
#     4   9  17  28  44  66  92 121 151 182 214 253
#     4  10  19  30  44  64  91 124 158 191 225 265
#     4  10  21  34  48  67  90 116 146 182 226 272
#
# _framework density 15.714072
#
# number of rings (size 3 to 8) (size 9 to 14) (size 15 to 20)
#    0.000    2.600    0.000    2.100    1.400    4.400 
#    0.000    3.000    0.000    1.400    0.000    0.000 
#    0.000    0.000    0.000    0.300    0.000   22.100 
#
# Total GULP energy -1487942.476792 kJ/mol
# GULP energy per Si atom -12399.520640 kJ/mol
# Density = 1.567831 g / cm^3
# Si number density = 15.714072 Si / 1000 Ang^3
#
#
#
# Elastic Constant Matrix: (Units=GPa)
#
#
# Indices 1 2 3 4 5 6 
#
# 1 82.9861 52.4147 41.5336 0.0000 0.0000 0.0000
# 2 52.4147 82.9861 41.5336 0.0000 0.0000 0.0000
# 3 41.5336 41.5336 96.3316 0.0000 0.0000 0.0000
# 4 0.0000 0.0000 0.0000 20.1988 0.0000 0.0000
# 5 0.0000 0.0000 0.0000 0.0000 20.1988 0.0000
# 6 0.0000 0.0000 0.0000 0.0000 0.0000 15.2857
#
#
#
# Elastic Compliance Matrix: (Units=1/GPa)
#
#
# Indices 1 2 3 4 5 6 
#
# 1 0.021376 -0.011334 -0.004329 0.000000 0.000000 0.000000
# 2 -0.011334 0.021376 -0.004329 0.000000 0.000000 0.000000
# 3 -0.004329 -0.004329 0.014114 0.000000 0.000000 0.000000
# 4 0.000000 0.000000 0.000000 0.049508 0.000000 0.000000
# 5 0.000000 0.000000 0.000000 0.000000 0.049508 0.000000
# 6 0.000000 0.000000 0.000000 0.000000 0.000000 0.065421
#
#
# Mechanical properties :
#
#
# Convention : Reuss Voigt Hill
#
# Bulk Modulus (GPa) = 59.24362 59.25196 59.24779
# Shear Modulus (GPa) = 18.73249 19.59142 19.16196
#
# Velocity S-wave (km/s) = 3.45640 3.53476 3.49580
# Velocity P-wave (km/s) = 7.32883 7.37885 7.35389
#
# Compressibility (1/GPa) = 0.01687945
#
# Stress axis : x y z
#
# Youngs Moduli (GPa) = 46.78150 46.78150 70.85114
#
# Poissons Ratio (x) = 0.53024 0.30675
# Poissons Ratio (y) = 0.53024 0.30675
# Poissons Ratio (z) = 0.20254 0.20254
#
# Static dielectric constant tensor:
#      x y z
#    x 2.791280 0.000000 0.000000 
#    y 0.000000 2.791280 0.000000 
#    z 0.000000 0.000000 3.220980 
# 
# 
# High freq. dielectric constant tensor:
#      x y z
#    x 1.575860 0.000000 0.000000 
#    y 0.000000 1.575860 0.000000 
#    z 0.000000 0.000000 1.617860 
# 
# From -- ./inp_files/8622.got.cif
#   From: 2010.03.12/outbox.cif.g09.slc.cpg/sg191_5_cif.got.tgz:8622.got - 2010.04.01 12:09:02.
