data_PCOD8328573
_publ_section_title
;
Structure prediction by ZEFSAII (Michael W. Deem and Ramdas Pophale) SiO2 
 PCOD8328573
Probable space group: P 6/M M M
;
_chemical_formula_sum "Si O2"
_cell_formula_units_Z 168
_cell_length_a 21.556743
_cell_length_b 21.556743
_cell_length_c 28.872273
_cell_angle_alpha 90.000000
_cell_angle_beta 90.000000
_cell_angle_gamma 120.000000
_cell_volume 11619.244630
_symmetry_space_group_name_H-M "P 6/M M M"
_symmetry_group_IT_number 191
_symmetry_cell_setting 'hexagonal'
loop_
_space_group_symop_operation_xyz
x,y,z
x-y,x,z
-y,x-y,z
-x,-y,z
-x+y,-x,z
y,-x+y,z
x-y,-y,-z
-x,-x+y,-z
y,x,-z
-y,-x,-z
-x+y,y,-z
x,x-y,-z
-x,-y,-z
-x+y,-x,-z
y,-x+y,-z
x,y,-z
x-y,x,-z
-y,x-y,-z
-x+y,y,z
x,x-y,z
-y,-x,z
y,x,z
x-y,-y,z
-x,-x+y,z
loop_
_atom_site_type_symbol
_atom_site_label
_atom_site_fract_x
_atom_site_fract_y
_atom_site_fract_z
Si Si1 0.333018 0.523958 0.552475
Si Si2 0.223344 0.304717 0.790342
Si Si3 0.611369 0.529512 0.631441
Si Si4 0.084752 0.472711 0.949383
Si Si5 0.526759 0.332861 0.792603
Si Si6 0.917205 0.584639 0.143957
Si Si7 0.858980 0.280032 0.287255
O O1 0.329818 0.496816 0.500000
O O2 0.258963 0.517925 0.567576
O O3 0.393591 0.606410 0.557316
O O4 0.347491 0.473902 0.586240
O O5 0.138129 0.276257 0.789805
O O6 0.237658 0.237658 0.790040
O O7 0.256427 0.352301 0.836908
O O8 0.262467 0.353759 0.745734
O O9 0.550185 0.449816 0.647803
O O10 0.575151 0.575151 0.616363
O O11 0.668080 0.572723 0.671553
O O12 0.112796 0.556398 0.937706
O O13 0.108399 0.435519 0.909584
O O14 0.000000 0.432022 0.951987
O O15 0.114912 0.466789 0.000000
O O16 0.517263 0.258632 0.812282
O O17 0.609868 0.390133 0.789412
O O18 0.487046 0.360476 0.826420
O O19 0.494216 0.321113 0.741446
O O20 0.000000 0.607515 0.149518
O O21 0.794147 0.205854 0.307345
#
# Coordination Sequence:
#
# PCOD8328573 Si02
#       7
#    24  24  24  24  24  24  24
#     4   9  17  29  44  59  74  96 129 166 199 229
#     4   9  17  29  45  63  83 106 130 158 192 232
#     4  10  19  28  39  57  81 105 127 155 194 238
#     4   8  13  21  34  54  79 103 127 158 196 234
#     4  10  19  29  40  54  75 102 131 162 195 232
#     4   9  16  26  41  60  79  99 127 162 197 233
#     4   9  17  29  43  58  77 101 131 164 193 224
#
# _framework density 14.458771
#
# number of rings (size 3 to 8) (size 9 to 14) (size 15 to 20)
#    0.000    2.857    0.000    3.714    0.000    2.286 
#    0.000    1.429    0.000    6.429    0.000    0.000 
#    0.000    1.143    0.000    0.000    0.000    0.000 
#
# Total GULP energy -2082171.068038 kJ/mol
# GULP energy per Si atom -12393.875405 kJ/mol
# Density = 1.442586 g / cm^3
# Si number density = 14.458771 Si / 1000 Ang^3
#
#
#
# Elastic Constant Matrix: (Units=GPa)
#
#
# Indices 1 2 3 4 5 6 
#
# 1 72.0816 37.2597 40.8699 0.0000 0.0000 0.0000
# 2 37.2597 72.0816 40.8699 0.0000 0.0000 0.0000
# 3 40.8699 40.8699 86.5832 0.0000 0.0000 0.0000
# 4 0.0000 0.0000 0.0000 17.1227 0.0000 0.0000
# 5 0.0000 0.0000 0.0000 0.0000 17.1227 0.0000
# 6 0.0000 0.0000 0.0000 0.0000 0.0000 17.4110
#
#
#
# Elastic Compliance Matrix: (Units=1/GPa)
#
#
# Indices 1 2 3 4 5 6 
#
# 1 0.021425 -0.007292 -0.006671 0.000000 0.000000 0.000000
# 2 -0.007292 0.021425 -0.006671 0.000000 0.000000 0.000000
# 3 -0.006671 -0.006671 0.017847 0.000000 0.000000 0.000000
# 4 0.000000 0.000000 0.000000 0.058402 0.000000 0.000000
# 5 0.000000 0.000000 0.000000 0.000000 0.058402 0.000000
# 6 0.000000 0.000000 0.000000 0.000000 0.000000 0.057435
#
#
# Mechanical properties :
#
#
# Convention : Reuss Voigt Hill
#
# Bulk Modulus (GPa) = 51.47038 52.08281 51.77659
# Shear Modulus (GPa) = 17.68771 17.78108 17.73439
#
# Velocity S-wave (km/s) = 3.50139 3.51062 3.50601
# Velocity P-wave (km/s) = 7.21260 7.24793 7.23029
#
# Compressibility (1/GPa) = 0.01942865
#
# Stress axis : x y z
#
# Youngs Moduli (GPa) = 46.67418 46.67418 56.03032
#
# Poissons Ratio (x) = 0.34037 0.37378
# Poissons Ratio (y) = 0.34037 0.37378
# Poissons Ratio (z) = 0.31137 0.31137
#
# Static dielectric constant tensor:
#      x y z
#    x 2.658060 0.000000 0.000000 
#    y 0.000000 2.658060 0.000000 
#    z 0.000000 0.000000 2.952830 
# 
# 
# High freq. dielectric constant tensor:
#      x y z
#    x 1.531530 0.000000 0.000000 
#    y 0.000000 1.531530 0.000000 
#    z 0.000000 0.000000 1.551690 
# 
# From -- ./inp_files/10067.got.cif
#   From: 2010.03.12/outbox.cif.g09.slc.cpg/sg191_6_cif.got.tgz:10067.got - 2010.04.01 12:09:02.
