data_PCOD8328546
_publ_section_title
;
Structure prediction by ZEFSAII (Michael W. Deem and Ramdas Pophale) SiO2 
 PCOD8328546
Probable space group: P 6/M M M
;
_chemical_formula_sum "Si O2"
_cell_formula_units_Z 168
_cell_length_a 29.327729
_cell_length_b 29.327729
_cell_length_c 12.927701
_cell_angle_alpha 90.000000
_cell_angle_beta 90.000000
_cell_angle_gamma 120.000000
_cell_volume 9629.612245
_symmetry_space_group_name_H-M "P 6/M M M"
_symmetry_group_IT_number 191
_symmetry_cell_setting 'hexagonal'
loop_
_space_group_symop_operation_xyz
x,y,z
x-y,x,z
-y,x-y,z
-x,-y,z
-x+y,-x,z
y,-x+y,z
x-y,-y,-z
-x,-x+y,-z
y,x,-z
-y,-x,-z
-x+y,y,-z
x,x-y,-z
-x,-y,-z
-x+y,-x,-z
y,-x+y,-z
x,y,-z
x-y,x,-z
-y,x-y,-z
-x+y,y,z
x,x-y,z
-y,-x,z
y,x,z
x-y,-y,z
-x,-x+y,z
loop_
_atom_site_type_symbol
_atom_site_label
_atom_site_fract_x
_atom_site_fract_y
_atom_site_fract_z
Si Si1 0.063169 0.531585 0.123895
Si Si2 0.845277 0.587723 0.878305
Si Si3 0.869075 0.510088 0.759713
Si Si4 0.937556 0.235911 0.612084
Si Si5 0.228596 0.665803 0.381819
Si Si6 0.398291 0.057906 0.617473
Si Si7 0.901809 0.201399 0.826462
Si Si8 0.056913 0.835966 0.000000
O O1 0.094497 0.589809 0.171915
O O2 0.000000 0.500000 0.152050
O O3 0.069579 0.534790 0.000000
O O4 0.792165 0.584330 0.833803
O O5 0.848903 0.539216 0.834772
O O6 0.896988 0.643514 0.845374
O O7 0.843025 0.583084 0.000000
O O8 0.818803 0.463620 0.701383
O O9 0.905375 0.547231 0.670353
O O10 0.918764 0.206883 0.500000
O O11 0.917139 0.277372 0.624256
O O12 0.914703 0.195460 0.707177
O O13 0.000000 0.266779 0.616652
O O14 0.209501 0.667231 0.500000
O O15 0.250343 0.625172 0.377197
O O16 0.276190 0.723811 0.351205
O O17 0.411424 0.053022 0.500000
O O18 0.369680 0.000000 0.669545
O O19 0.846074 0.153927 0.860741
O O20 0.943312 0.197290 0.900225
O O21 0.102974 0.897027 0.000000
O O22 0.000000 0.832732 0.000000
#
# Coordination Sequence:
#
# PCOD8328546 Si02
#       8
#    12  24  24  24  24  24  24  12
#     4  11  26  44  57  77 109 143 182 230 277 323
#     4  10  20  34  52  76 104 132 169 218 270 319
#     4  12  20  37  59  78 101 140 176 222 265 330
#     4   9  17  30  46  66  97 135 173 212 250 296
#     4  10  21  38  60  87 113 137 170 218 278 346
#     4   9  18  31  48  72 102 133 168 209 250 301
#     4  10  18  31  49  73 106 135 169 217 261 309
#     4  10  20  34  54  79 110 145 181 227 275 315
#
# _framework density 17.446186000000001
#
# number of rings (size 3 to 8) (size 9 to 14) (size 15 to 20)
#    0.000    1.929    2.857    3.143    0.000    0.857 
#    0.000    0.000    0.000    1.786    0.000    0.000 
#    0.000    0.000    0.000    0.000    0.000    0.000 
#
# Total GULP energy -2081691.189157 kJ/mol
# GULP energy per Si atom -12391.018983 kJ/mol
# Density = 1.740648 g / cm^3
# Si number density = 17.446186 Si / 1000 Ang^3
#
#
#
# Elastic Constant Matrix: (Units=GPa)
#
#
# Indices 1 2 3 4 5 6 
#
# 1 77.5364 37.4362 40.1473 0.0000 0.0000 0.0000
# 2 37.4362 77.5364 40.1473 0.0000 0.0000 0.0000
# 3 40.1473 40.1473 107.5084 0.0000 0.0000 0.0000
# 4 0.0000 0.0000 0.0000 -23.0442 0.0000 0.0000
# 5 0.0000 0.0000 0.0000 0.0000 -23.0442 0.0000
# 6 0.0000 0.0000 0.0000 0.0000 0.0000 20.0501
#
#
#
# Elastic Compliance Matrix: (Units=1/GPa)
#
#
# Indices 1 2 3 4 5 6 
#
# 1 0.018352 -0.006586 -0.004394 0.000000 0.000000 0.000000
# 2 -0.006586 0.018352 -0.004394 0.000000 0.000000 0.000000
# 3 -0.004394 -0.004394 0.012583 0.000000 0.000000 0.000000
# 4 0.000000 0.000000 0.000000 -0.043395 0.000000 0.000000
# 5 0.000000 0.000000 0.000000 0.000000 -0.043395 0.000000
# 6 0.000000 0.000000 0.000000 0.000000 0.000000 0.049875
#
#
# Mechanical properties :
#
#
# Convention : Reuss Voigt Hill
#
# Bulk Modulus (GPa) = 53.93684 55.33810 54.63747
# Shear Modulus (GPa) = 101.42065 4.44904 52.93485
#
# Velocity S-wave (km/s) = 7.63280 1.59865 5.51431
# Velocity P-wave (km/s) = 10.42414 5.93260 8.48111
#
# Compressibility (1/GPa) = 0.01854020
#
# Stress axis : x y z
#
# Youngs Moduli (GPa) = 54.49009 54.49009 79.47034
#
# Poissons Ratio (x) = 0.35885 0.34919
# Poissons Ratio (y) = 0.35885 0.34919
# Poissons Ratio (z) = 0.23943 0.23943
#
# Static dielectric constant tensor:
#      x y z
#    x 3.172970 0.000000 0.000000 
#    y 0.000000 3.172970 0.000000 
#    z 0.000000 0.000000 3.712220 
# 
# 
# High freq. dielectric constant tensor:
#      x y z
#    x 1.659150 0.000000 0.000000 
#    y 0.000000 1.659150 0.000000 
#    z 0.000000 0.000000 1.686350 
# 
# From -- ./inp_files/3661.got.cif
#   From: 2010.03.12/outbox.cif.g09.slc.cpg/sg191_2_cif.got.tgz:3661.got - 2010.04.01 12:09:02.
