data_PCOD8328175
_publ_section_title
;
Structure prediction by ZEFSAII (Michael W. Deem and Ramdas Pophale) SiO2 
 PCOD8328175
Probable space group: P -6 2 C
;
_chemical_formula_sum "Si O2"
_cell_formula_units_Z 66
_cell_length_a 20.677539
_cell_length_b 20.677539
_cell_length_c 8.054861
_cell_angle_alpha 90.000000
_cell_angle_beta 90.000000
_cell_angle_gamma 120.000000
_cell_volume 2982.540703
_symmetry_space_group_name_H-M "P -6 2 C"
_symmetry_group_IT_number 190
_symmetry_cell_setting 'hexagonal'
loop_
_space_group_symop_operation_xyz
x,y,z
-x+y,-x,1/2-z
-y,x-y,z
x,y,1/2-z
-x+y,-x,z
-y,x-y,1/2-z
x-y,-y,-z
-x,-x+y,-z
y,x,-z
y,x,1/2+z
x-y,-y,1/2+z
-x,-x+y,1/2+z
loop_
_atom_site_type_symbol
_atom_site_label
_atom_site_fract_x
_atom_site_fract_y
_atom_site_fract_z
Si Si1 0.248320 0.589806 0.750000
Si Si2 0.168808 0.084908 0.445315
Si Si3 0.398407 0.077170 0.440059
Si Si4 0.430168 0.346623 0.555405
Si Si5 0.847206 0.400516 0.939121
Si Si6 0.158212 0.821162 0.055970
O O1 0.263194 0.674502 0.750000
O O2 0.209064 0.552018 0.576461
O O3 0.179151 0.090974 0.250000
O O4 0.109866 0.109866 0.500000
O O5 0.248621 0.139903 0.526942
O O6 0.138614 0.000000 0.500000
O O7 0.419778 0.075349 0.250000
O O8 0.467223 0.087179 0.555608
O O9 0.374581 0.139047 0.459574
O O10 0.327575 0.000000 0.500000
O O11 0.427722 0.341199 0.750000
O O12 0.397595 0.397595 0.500000
O O13 0.516421 0.388235 0.498185
O O14 0.379691 0.263300 0.483039
O O15 0.814426 0.386635 0.750000
O O16 0.174679 0.822141 0.250000
#
# Coordination Sequence:
#
# PCOD8328175 Si02
#       6
#     6  12  12  12  12  12
#     4  10  26  44  66 102 136 172 224 270 338 400
#     4  12  25  44  67  97 131 174 217 271 327 395
#     4  12  25  43  67  98 132 175 225 277 335 400
#     4  10  24  41  65  96 128 171 219 270 332 392
#     4  11  24  44  69  99 134 177 225 279 333 400
#     4  11  24  43  66  97 134 172 221 273 333 396
#
# _framework density 22.128786000000002
#
# number of rings (size 3 to 8) (size 9 to 14) (size 15 to 20)
#    0.182    0.727    0.909    5.636    3.818    5.091 
#    0.000    0.000    0.000    0.000    0.000    0.000 
#    0.000    0.000    0.000    0.000    0.000    0.000 
#
# Total GULP energy -818322.788716 kJ/mol
# GULP energy per Si atom -12398.830132 kJ/mol
# Density = 2.207842 g / cm^3
# Si number density = 22.128786 Si / 1000 Ang^3
#
#
#
# Elastic Constant Matrix: (Units=GPa)
#
#
# Indices 1 2 3 4 5 6 
#
# 1 84.5002 -4.5271 18.2838 0.0000 0.0000 0.0000
# 2 -4.5271 84.5002 18.2838 0.0000 0.0000 0.0000
# 3 18.2838 18.2838 104.6799 0.0000 0.0000 0.0000
# 4 0.0000 0.0000 0.0000 30.6480 0.0000 0.0000
# 5 0.0000 0.0000 0.0000 0.0000 30.6480 0.0000
# 6 0.0000 0.0000 0.0000 0.0000 0.0000 44.5137
#
#
#
# Elastic Compliance Matrix: (Units=1/GPa)
#
#
# Indices 1 2 3 4 5 6 
#
# 1 0.012411 0.001179 -0.002374 0.000000 0.000000 0.000000
# 2 0.001179 0.012411 -0.002374 0.000000 0.000000 0.000000
# 3 -0.002374 -0.002374 0.010382 0.000000 0.000000 0.000000
# 4 0.000000 0.000000 0.000000 0.032629 0.000000 0.000000
# 5 0.000000 0.000000 0.000000 0.000000 0.032629 0.000000
# 6 0.000000 0.000000 0.000000 0.000000 0.000000 0.022465
#
#
# Mechanical properties :
#
#
# Convention : Reuss Voigt Hill
#
# Bulk Modulus (GPa) = 35.62935 37.52905 36.57920
# Shear Modulus (GPa) = 35.86307 37.27126 36.56716
#
# Velocity S-wave (km/s) = 4.03010 4.10846 4.06947
# Velocity P-wave (km/s) = 6.14748 6.28507 6.21665
#
# Compressibility (1/GPa) = 0.02806675
#
# Stress axis : x y z
#
# Youngs Moduli (GPa) = 80.57356 80.57356 96.31960
#
# Poissons Ratio (x) = -0.09496 0.22862
# Poissons Ratio (y) = -0.09496 0.22862
# Poissons Ratio (z) = 0.19125 0.19125
#
# Static dielectric constant tensor:
#      x y z
#    x 4.093400 0.000000 0.000000 
#    y 0.000000 4.093400 0.000000 
#    z 0.000000 0.000000 4.020310 
# 
# 
# High freq. dielectric constant tensor:
#      x y z
#    x 1.877510 0.000000 0.000000 
#    y 0.000000 1.877510 0.000000 
#    z 0.000000 0.000000 1.879680 
# 
# From -- ./inp_files/1062.got.cif
#   From: 2010.06.25/outbox.cif.g09.slc.cpg/sg190_1_cif.got.tgz:1062.got - 2010.06.28 13:08:06.
