data_PCOD8328153
_publ_section_title
;
Structure prediction by ZEFSAII (Michael W. Deem and Ramdas Pophale) SiO2 
 PCOD8328153
Probable space group: P -6 2 C
;
_chemical_formula_sum "Si O2"
_cell_formula_units_Z 58
_cell_length_a 15.857539
_cell_length_b 15.857539
_cell_length_c 14.278717
_cell_angle_alpha 90.000000
_cell_angle_beta 90.000000
_cell_angle_gamma 120.000000
_cell_volume 3109.505964
_symmetry_space_group_name_H-M "P -6 2 C"
_symmetry_group_IT_number 190
_symmetry_cell_setting 'hexagonal'
loop_
_space_group_symop_operation_xyz
x,y,z
-x+y,-x,1/2-z
-y,x-y,z
x,y,1/2-z
-x+y,-x,z
-y,x-y,1/2-z
x-y,-y,-z
-x,-x+y,-z
y,x,-z
y,x,1/2+z
x-y,-y,1/2+z
-x,-x+y,1/2+z
loop_
_atom_site_type_symbol
_atom_site_label
_atom_site_fract_x
_atom_site_fract_y
_atom_site_fract_z
Si Si1 0.783328 0.156607 0.250000
Si Si2 0.494463 0.114528 0.750000
Si Si3 0.000000 0.000000 0.385728
Si Si4 0.885472 0.379934 0.250000
Si Si5 0.113984 0.623399 0.602660
Si Si6 0.623399 0.113984 0.602660
Si Si7 0.151879 0.151879 0.750000
Si Si8 0.216672 0.373278 0.250000
O O1 0.861607 0.270195 0.250000
O O2 0.719400 0.132223 0.343110
O O3 0.840106 0.096939 0.250000
O O4 0.565111 0.157895 0.659136
O O5 0.408588 0.138393 0.750000
O O6 0.449008 0.000000 0.750000
O O7 0.095177 0.095177 0.344448
O O8 0.000000 0.000000 0.500000
O O9 0.842105 0.407216 0.340864
O O10 0.163380 0.652369 0.500000
O O11 0.000000 0.553813 0.591278
O O12 0.719399 0.132223 0.656890
O O13 0.256833 0.159895 0.750000
#
# Coordination Sequence:
#
# PCOD8328153 Si02
#       8
#     6   6   4   6  12  12   6   6
#     4  11  19  35  62  88 109 148 194 240 287 347
#     4   9  20  34  54  77 112 146 179 230 285 336
#     4  10  26  46  58  83 130 160 188 253 310 344
#     4   9  20  34  54  77 112 146 179 230 285 336
#     4   9  18  36  56  78 109 143 182 228 278 336
#     4   9  18  36  56  78 109 143 182 228 278 336
#     4  10  22  40  66  88 112 154 208 254 298 348
#     4  11  19  35  62  88 109 148 194 240 287 347
#
# _framework density 18.652480000000001
#
# number of rings (size 3 to 8) (size 9 to 14) (size 15 to 20)
#    0.000    2.483    2.069    1.241    2.897    3.310 
#    9.931    0.000    0.000    0.000    0.000    0.000 
#    0.000    0.000    0.000    0.000    0.000    0.000 
#
# Total GULP energy -718838.681090 kJ/mol
# GULP energy per Si atom -12393.770364 kJ/mol
# Density = 1.861003 g / cm^3
# Si number density = 18.652480 Si / 1000 Ang^3
#
#
#
# Elastic Constant Matrix: (Units=GPa)
#
#
# Indices 1 2 3 4 5 6 
#
# 1 96.0749 36.2042 53.3991 0.0000 0.0000 0.0000
# 2 36.2042 96.0749 53.3991 0.0000 0.0000 0.0000
# 3 53.3991 53.3991 194.9478 0.0000 0.0000 0.0000
# 4 0.0000 0.0000 0.0000 18.9298 0.0000 0.0000
# 5 0.0000 0.0000 0.0000 0.0000 18.9298 0.0000
# 6 0.0000 0.0000 0.0000 0.0000 0.0000 29.9353
#
#
#
# Elastic Compliance Matrix: (Units=1/GPa)
#
#
# Indices 1 2 3 4 5 6 
#
# 1 0.013204 -0.003498 -0.002659 0.000000 0.000000 0.000000
# 2 -0.003498 0.013204 -0.002659 0.000000 0.000000 0.000000
# 3 -0.002659 -0.002659 0.006586 0.000000 0.000000 0.000000
# 4 0.000000 0.000000 0.000000 0.052827 0.000000 0.000000
# 5 0.000000 0.000000 0.000000 0.000000 0.052827 0.000000
# 6 0.000000 0.000000 0.000000 0.000000 0.000000 0.033405
#
#
# Mechanical properties :
#
#
# Convention : Reuss Voigt Hill
#
# Bulk Modulus (GPa) = 65.08754 74.78918 69.93836
# Shear Modulus (GPa) = 25.66650 29.83200 27.74925
#
# Velocity S-wave (km/s) = 3.71352 4.00354 3.86125
# Velocity P-wave (km/s) = 7.30463 7.84565 7.57997
#
# Compressibility (1/GPa) = 0.01536392
#
# Stress axis : x y z
#
# Youngs Moduli (GPa) = 75.73177 75.73177 151.83498
#
# Poissons Ratio (x) = 0.26492 0.40368
# Poissons Ratio (y) = 0.26492 0.40368
# Poissons Ratio (z) = 0.20135 0.20135
#
# Static dielectric constant tensor:
#      x y z
#    x 3.278760 0.000000 0.000000 
#    y 0.000000 3.278760 0.000000 
#    z 0.000000 0.000000 3.918470 
# 
# 
# High freq. dielectric constant tensor:
#      x y z
#    x 1.712400 0.000000 0.000000 
#    y 0.000000 1.712400 0.000000 
#    z 0.000000 0.000000 1.731970 
# 
# From -- ./inp_files/2907.got.cif
#   From: 2010.06.25/outbox.cif.g09.slc.cpg/sg190_2_cif.got.tgz:2907.got - 2010.06.28 13:08:06.
