data_PCOD8328724
_publ_section_title
;
Structure prediction by ZEFSAII (Michael W. Deem and Ramdas Pophale) SiO2 
 PCOD8328724
Probable space group: P 6/M M M
;
_chemical_formula_sum "Si O2"
_cell_formula_units_Z 132
_cell_length_a 17.697084
_cell_length_b 17.697084
_cell_length_c 28.164771
_cell_angle_alpha 90.000000
_cell_angle_beta 90.000000
_cell_angle_gamma 120.000000
_cell_volume 7639.066325
_symmetry_space_group_name_H-M "P 6/M M M"
_symmetry_group_IT_number 191
_symmetry_cell_setting 'hexagonal'
loop_
_space_group_symop_operation_xyz
x,y,z
x-y,x,z
-y,x-y,z
-x,-y,z
-x+y,-x,z
y,-x+y,z
x-y,-y,-z
-x,-x+y,-z
y,x,-z
-y,-x,-z
-x+y,y,-z
x,x-y,-z
-x,-y,-z
-x+y,-x,-z
y,-x+y,-z
x,y,-z
x-y,x,-z
-y,x-y,-z
-x+y,y,z
x,x-y,z
-y,-x,z
y,x,z
x-y,-y,z
-x,-x+y,z
loop_
_atom_site_type_symbol
_atom_site_label
_atom_site_fract_x
_atom_site_fract_y
_atom_site_fract_z
Si Si1 0.635486 0.532167 0.947476
Si Si2 0.489910 0.158154 0.225408
Si Si3 0.270597 0.368745 0.314648
Si Si4 0.836686 0.505977 0.399173
Si Si5 0.366076 0.099279 0.860716
Si Si6 0.458856 0.362359 0.500000
O O1 0.570912 0.429089 0.937209
O O2 0.579000 0.579000 0.945305
O O3 0.709939 0.574553 0.907880
O O4 0.677798 0.544188 0.000000
O O5 0.573322 0.146643 0.223794
O O6 0.519772 0.259886 0.220740
O O7 0.440026 0.118991 0.274319
O O8 0.426510 0.103265 0.182590
O O9 0.166571 0.333141 0.312148
O O10 0.287393 0.287393 0.308542
O O11 0.311436 0.414690 0.364622
O O12 0.734990 0.469980 0.387370
O O13 0.858831 0.429416 0.391793
O O14 0.853802 0.542769 0.452758
O O15 0.326515 0.163258 0.851407
O O16 0.286875 0.000000 0.866258
O O17 0.374978 0.374978 0.500000
O O18 0.545376 0.454625 0.500000
#
# Coordination Sequence:
#
# PCOD8328724 Si02
#       6
#    24  24  24  24  24  12
#     4   8  14  26  45  68  92 117 146 181 222 271
#     4  10  20  33  50  73 101 130 157 185 220 265
#     4  10  21  35  51  71  94 122 155 193 235 276
#     4  10  19  30  45  66  94 127 161 195 231 273
#     4  10  20  32  47  68  93 122 157 198 241 281
#     4   9  17  28  42  60  84 119 163 205 237 266
#
# _framework density 17.279599000000001
#
# number of rings (size 3 to 8) (size 9 to 14) (size 15 to 20)
#    0.000    2.455    0.000    3.364    0.000    4.364 
#    0.000    2.727    0.000    0.727    0.000    0.000 
#    0.000    4.364    0.000    4.545    0.000   18.909 
#
# Total GULP energy -1636372.564027 kJ/mol
# GULP energy per Si atom -12396.761849 kJ/mol
# Density = 1.724027 g / cm^3
# Si number density = 17.279599 Si / 1000 Ang^3
#
#
#
# Elastic Constant Matrix: (Units=GPa)
#
#
# Indices 1 2 3 4 5 6 
#
# 1 81.8197 52.6863 25.6761 0.0000 0.0000 0.0000
# 2 52.6863 81.8197 25.6761 0.0000 0.0000 0.0000
# 3 25.6761 25.6761 103.8186 0.0000 0.0000 0.0000
# 4 0.0000 0.0000 0.0000 20.1685 0.0000 0.0000
# 5 0.0000 0.0000 0.0000 0.0000 20.1685 0.0000
# 6 0.0000 0.0000 0.0000 0.0000 0.0000 14.5667
#
#
#
# Elastic Compliance Matrix: (Units=1/GPa)
#
#
# Indices 1 2 3 4 5 6 
#
# 1 0.021267 -0.013058 -0.002030 0.000000 0.000000 0.000000
# 2 -0.013058 0.021267 -0.002030 0.000000 0.000000 0.000000
# 3 -0.002030 -0.002030 0.010636 0.000000 0.000000 0.000000
# 4 0.000000 0.000000 0.000000 0.049582 0.000000 0.000000
# 5 0.000000 0.000000 0.000000 0.000000 0.049582 0.000000
# 6 0.000000 0.000000 0.000000 0.000000 0.000000 0.068650
#
#
# Mechanical properties :
#
#
# Convention : Reuss Voigt Hill
#
# Bulk Modulus (GPa) = 52.81392 52.83723 52.82557
# Shear Modulus (GPa) = 19.11801 21.87538 20.49670
#
# Velocity S-wave (km/s) = 3.32986 3.56190 3.44783
# Velocity P-wave (km/s) = 6.73903 6.89640 6.81817
#
# Compressibility (1/GPa) = 0.01893440
#
# Stress axis : x y z
#
# Youngs Moduli (GPa) = 47.02050 47.02050 94.01590
#
# Poissons Ratio (x) = 0.61397 0.19089
# Poissons Ratio (y) = 0.61397 0.19089
# Poissons Ratio (z) = 0.09547 0.09547
#
# Static dielectric constant tensor:
#      x y z
#    x 3.007830 0.000000 0.000000 
#    y 0.000000 3.007830 0.000000 
#    z 0.000000 0.000000 3.583850 
# 
# 
# High freq. dielectric constant tensor:
#      x y z
#    x 1.640980 0.000000 0.000000 
#    y 0.000000 1.640980 0.000000 
#    z 0.000000 0.000000 1.690780 
# 
# From -- ./inp_files/9767.got.cif
#   From: 2010.03.12/outbox.cif.g09.slc.cpg/sg191_5_cif.got.tgz:9767.got - 2010.04.01 12:09:02.
