data_PCOD8328168
_publ_section_title
;
Structure prediction by ZEFSAII (Michael W. Deem and Ramdas Pophale) SiO2 
 PCOD8328168
Probable space group: P -6 2 C
;
_chemical_formula_sum "Si O2"
_cell_formula_units_Z 64
_cell_length_a 14.167259
_cell_length_b 14.167259
_cell_length_c 18.262120
_cell_angle_alpha 90.000000
_cell_angle_beta 90.000000
_cell_angle_gamma 120.000000
_cell_volume 3174.340361
_symmetry_space_group_name_H-M "P -6 2 C"
_symmetry_group_IT_number 190
_symmetry_cell_setting 'hexagonal'
loop_
_space_group_symop_operation_xyz
x,y,z
-x+y,-x,1/2-z
-y,x-y,z
x,y,1/2-z
-x+y,-x,z
-y,x-y,1/2-z
x-y,-y,-z
-x,-x+y,-z
y,x,-z
y,x,1/2+z
x-y,-y,1/2+z
-x,-x+y,1/2+z
loop_
_atom_site_type_symbol
_atom_site_label
_atom_site_fract_x
_atom_site_fract_y
_atom_site_fract_z
Si Si1 0.501294 0.582628 0.431356
Si Si2 0.892009 0.398433 0.166148
Si Si3 0.000000 0.000000 0.662416
Si Si4 0.565250 0.828188 0.056807
Si Si5 0.004582 0.804778 0.086733
Si Si6 0.834618 0.570014 0.108767
O O1 0.529039 0.529039 0.500000
O O2 0.569961 0.581647 0.361543
O O3 0.375528 0.519881 0.404974
O O4 0.531155 0.703765 0.447971
O O5 0.878507 0.362787 0.250000
O O6 0.875779 0.502553 0.156634
O O7 0.806245 0.294532 0.119823
O O8 0.000000 0.000000 0.750000
O O9 0.972743 0.882776 0.632273
O O10 0.679847 0.893096 0.098200
O O11 0.565842 0.868057 0.974325
O O12 0.897921 0.700763 0.123317
O O13 0.000000 0.827146 0.000000
#
# Coordination Sequence:
#
# PCOD8328168 Si02
#       6
#    12  12   4  12  12  12
#     4  12  22  41  66 100 134 170 223 267 324 395
#     4  12  25  40  63 100 139 173 210 264 340 405
#     4  12  28  44  61  93 130 170 214 267 343 407
#     4  11  21  40  70  99 127 166 222 277 318 379
#     4  10  23  43  68  93 127 168 223 274 319 377
#     4  11  21  41  67  97 132 169 213 275 327 383
#
# _framework density 20.161669
#
# number of rings (size 3 to 8) (size 9 to 14) (size 15 to 20)
#    0.000    0.750    5.625    2.438    2.625    1.500 
#    0.000    0.938    0.000    0.000    0.000    0.000 
#    0.000    0.000    0.000    0.000    0.000    0.000 
#
# Total GULP energy -793390.371824 kJ/mol
# GULP energy per Si atom -12396.724560 kJ/mol
# Density = 2.011578 g / cm^3
# Si number density = 20.161669 Si / 1000 Ang^3
#
#
#
# Elastic Constant Matrix: (Units=GPa)
#
#
# Indices 1 2 3 4 5 6 
#
# 1 109.4676 46.4433 27.2479 0.0000 0.0000 0.0000
# 2 46.4433 109.4676 27.2479 0.0000 0.0000 0.0000
# 3 27.2479 27.2479 70.8461 0.0000 0.0000 0.0000
# 4 0.0000 0.0000 0.0000 19.9823 0.0000 0.0000
# 5 0.0000 0.0000 0.0000 0.0000 19.9823 0.0000
# 6 0.0000 0.0000 0.0000 0.0000 0.0000 31.5121
#
#
#
# Elastic Compliance Matrix: (Units=1/GPa)
#
#
# Indices 1 2 3 4 5 6 
#
# 1 0.011638 -0.004228 -0.002850 0.000000 0.000000 0.000000
# 2 -0.004228 0.011638 -0.002850 0.000000 0.000000 0.000000
# 3 -0.002850 -0.002850 0.016307 0.000000 0.000000 0.000000
# 4 0.000000 0.000000 0.000000 0.050044 0.000000 0.000000
# 5 0.000000 0.000000 0.000000 0.000000 0.050044 0.000000
# 6 0.000000 0.000000 0.000000 0.000000 0.000000 0.031734
#
#
# Mechanical properties :
#
#
# Convention : Reuss Voigt Hill
#
# Bulk Modulus (GPa) = 50.69039 54.62887 52.65963
# Shear Modulus (GPa) = 25.27302 26.88481 26.07892
#
# Velocity S-wave (km/s) = 3.54435 3.65562 3.60041
# Velocity P-wave (km/s) = 6.47660 6.70614 6.59237
#
# Compressibility (1/GPa) = 0.01972760
#
# Stress axis : x y z
#
# Youngs Moduli (GPa) = 85.92181 85.92181 61.32211
#
# Poissons Ratio (x) = 0.36331 0.17477
# Poissons Ratio (y) = 0.36331 0.17477
# Poissons Ratio (z) = 0.24487 0.24487
#
# Static dielectric constant tensor:
#      x y z
#    x 3.725360 0.000000 0.000000 
#    y 0.000000 3.725360 0.000000 
#    z 0.000000 0.000000 3.460060 
# 
# 
# High freq. dielectric constant tensor:
#      x y z
#    x 1.798570 0.000000 0.000000 
#    y 0.000000 1.798570 0.000000 
#    z 0.000000 0.000000 1.755430 
# 
# From -- ./inp_files/3649.got.cif
#   From: 2010.06.25/outbox.cif.g09.slc.cpg/sg190_2_cif.got.tgz:3649.got - 2010.06.28 13:08:06.
