data_PCOD8328082
_publ_section_title
;
Structure prediction by ZEFSAII (Michael W. Deem and Ramdas Pophale) SiO2 
 PCOD8328082
Probable space group: P -6 2 C
;
_chemical_formula_sum "Si O2"
_cell_formula_units_Z 52
_cell_length_a 12.745045
_cell_length_b 12.745045
_cell_length_c 18.287158
_cell_angle_alpha 90.000000
_cell_angle_beta 90.000000
_cell_angle_gamma 120.000000
_cell_volume 2572.524949
_symmetry_space_group_name_H-M "P -6 2 C"
_symmetry_group_IT_number 190
_symmetry_cell_setting 'hexagonal'
loop_
_space_group_symop_operation_xyz
x,y,z
-x+y,-x,1/2-z
-y,x-y,z
x,y,1/2-z
-x+y,-x,z
-y,x-y,1/2-z
x-y,-y,-z
-x,-x+y,-z
y,x,-z
y,x,1/2+z
x-y,-y,1/2+z
-x,-x+y,1/2+z
loop_
_atom_site_type_symbol
_atom_site_label
_atom_site_fract_x
_atom_site_fract_y
_atom_site_fract_z
Si Si1 0.303444 0.323217 0.831406
Si Si2 0.884321 0.744191 0.547140
Si Si3 0.059383 0.486793 0.167014
Si Si4 0.333334 0.666668 0.336725
Si Si5 0.233149 0.909875 0.907722
O O1 0.283150 0.267026 0.750000
O O2 0.317440 0.235286 0.887911
O O3 0.427876 0.448561 0.834570
O O4 0.192867 0.346423 0.849065
O O5 0.821192 0.813983 0.584341
O O6 0.789245 0.640253 0.489815
O O7 0.000000 0.836537 0.500000
O O8 0.065625 0.445527 0.250000
O O9 0.196043 0.573381 0.136414
O O10 0.984997 0.372545 0.114741
O O11 0.333334 0.666668 0.250000
#
# Coordination Sequence:
#
# PCOD8328082 Si02
#       5
#    12  12  12   4  12
#     4  10  21  38  61  92 128 165 210 267 317 372
#     4   9  20  40  61  84 121 164 204 261 315 372
#     4  10  20  36  63  94 126 163 213 265 317 376
#     4   9  18  33  60  90 120 165 208 272 325 360
#     4  10  20  39  60  88 124 172 204 254 314 386
#
# _framework density 20.213604
#
# number of rings (size 3 to 8) (size 9 to 14) (size 15 to 20)
#    0.000    2.308    0.000    2.077    0.000    3.692 
#   49.846    0.000    5.077    0.000    0.000    0.000 
#    0.000    0.000    0.000    0.000    0.000    0.000 
#
# Total GULP energy -644207.270059 kJ/mol
# GULP energy per Si atom -12388.601347 kJ/mol
# Density = 2.016760 g / cm^3
# Si number density = 20.213604 Si / 1000 Ang^3
#
#
#
# Elastic Constant Matrix: (Units=GPa)
#
#
# Indices 1 2 3 4 5 6 
#
# 1 113.7422 59.7174 67.7775 0.0000 0.0000 0.0000
# 2 59.7174 113.7423 67.7777 0.0000 0.0000 -0.0001
# 3 67.7775 67.7777 131.5828 0.0000 0.0000 0.0000
# 4 0.0000 0.0000 0.0000 36.3814 0.0000 0.0000
# 5 0.0000 0.0000 0.0000 0.0000 36.3813 0.0000
# 6 0.0000 -0.0001 0.0000 0.0000 0.0000 27.0123
#
#
#
# Elastic Compliance Matrix: (Units=1/GPa)
#
#
# Indices 1 2 3 4 5 6 
#
# 1 0.014080 -0.004430 -0.004970 0.000000 0.000000 0.000000
# 2 -0.004430 0.014080 -0.004970 0.000000 0.000000 0.000000
# 3 -0.004970 -0.004970 0.012720 0.000000 0.000000 0.000000
# 4 0.000000 0.000000 0.000000 0.027487 0.000000 0.000000
# 5 0.000000 0.000000 0.000000 0.000000 0.027487 0.000000
# 6 0.000000 0.000000 0.000000 0.000000 0.000000 0.037020
#
#
# Mechanical properties :
#
#
# Convention : Reuss Voigt Hill
#
# Bulk Modulus (GPa) = 82.38957 83.29026 82.83992
# Shear Modulus (GPa) = 30.18226 30.87465 30.52846
#
# Velocity S-wave (km/s) = 3.86834 3.91246 3.89046
# Velocity P-wave (km/s) = 7.79744 7.85521 7.82638
#
# Compressibility (1/GPa) = 0.01213746
#
# Stress axis : x y z
#
# Youngs Moduli (GPa) = 71.02493 71.02477 78.61598
#
# Poissons Ratio (x) = 0.31467 0.39074
# Poissons Ratio (y) = 0.31467 0.39074
# Poissons Ratio (z) = 0.35301 0.35301
#
# Static dielectric constant tensor:
#      x y z
#    x 3.646650 0.000000 0.000000 
#    y 0.000000 3.646650 0.000000 
#    z 0.000000 0.000000 3.976060 
# 
# 
# High freq. dielectric constant tensor:
#      x y z
#    x 1.779030 0.000000 0.000000 
#    y 0.000000 1.779030 0.000000 
#    z 0.000000 0.000000 1.794570 
# 
# From -- ./inp_files/4196.got.cif
#   From: 2010.06.25/outbox.cif.g09.slc.cpg/sg190_3_cif.got.tgz:4196.got - 2010.06.28 13:08:06.
