data_PCOD8328274
_publ_section_title
;
Structure prediction by ZEFSAII (Michael W. Deem and Ramdas Pophale) SiO2 
 PCOD8328274
Probable space group: P 6/M M M
;
_chemical_formula_sum "Si O2"
_cell_formula_units_Z 120
_cell_length_a 18.310202
_cell_length_b 18.310202
_cell_length_c 25.857375
_cell_angle_alpha 90.000000
_cell_angle_beta 90.000000
_cell_angle_gamma 120.000000
_cell_volume 7507.603647
_symmetry_space_group_name_H-M "P 6/M M M"
_symmetry_group_IT_number 191
_symmetry_cell_setting 'hexagonal'
loop_
_space_group_symop_operation_xyz
x,y,z
x-y,x,z
-y,x-y,z
-x,-y,z
-x+y,-x,z
y,-x+y,z
x-y,-y,-z
-x,-x+y,-z
y,x,-z
-y,-x,-z
-x+y,y,-z
x,x-y,-z
-x,-y,-z
-x+y,-x,-z
y,-x+y,-z
x,y,-z
x-y,x,-z
-y,x-y,-z
-x+y,y,z
x,x-y,z
-y,-x,z
y,x,z
x-y,-y,z
-x,-x+y,z
loop_
_atom_site_type_symbol
_atom_site_label
_atom_site_fract_x
_atom_site_fract_y
_atom_site_fract_z
Si Si1 0.499582 0.333608 0.440327
Si Si2 0.498298 0.669130 0.840406
Si Si3 0.637880 0.902171 0.357600
Si Si4 0.901074 0.368607 0.734592
Si Si5 0.538254 0.634797 0.944267
O O1 0.478286 0.337793 0.500000
O O2 0.526567 0.263284 0.431296
O O3 0.576709 0.423292 0.421796
O O4 0.415414 0.310750 0.408654
O O5 0.458435 0.729218 0.835079
O O6 0.427346 0.572655 0.842640
O O7 0.554036 0.680097 0.789682
O O8 0.551149 0.692891 0.894172
O O9 0.674865 0.837433 0.360689
O O10 0.572164 0.871108 0.310027
O O11 0.713575 0.000000 0.352122
O O12 0.861670 0.430835 0.726992
O O13 0.000000 0.425038 0.732990
O O14 0.446017 0.553984 0.942886
O O15 0.609233 0.609233 0.940396
O O16 0.548390 0.681346 0.000000
#
# Coordination Sequence:
#
# PCOD8328274 Si02
#       5
#    24  24  24  24  24
#     4   9  17  29  46  69  97 127 155 181 210 246
#     4  10  18  26  36  52  76 103 129 157 191 232
#     4  10  20  33  48  66  88 113 143 180 221 262
#     4   9  17  29  45  63  82 106 136 168 201 240
#     4   8  14  25  39  51  63  85 121 162 199 233
#
# _framework density 15.983795000000001
#
# number of rings (size 3 to 8) (size 9 to 14) (size 15 to 20)
#    0.000    2.800    0.000    2.800    0.000    5.200 
#    0.000    1.000    0.000    7.800    0.000    0.000 
#    0.000    0.000    0.000    5.000    0.000    0.000 
#
# Total GULP energy -1486740.889545 kJ/mol
# GULP energy per Si atom -12389.507413 kJ/mol
# Density = 1.594742 g / cm^3
# Si number density = 15.983795 Si / 1000 Ang^3
#
#
#
# Elastic Constant Matrix: (Units=GPa)
#
#
# Indices 1 2 3 4 5 6 
#
# 1 50.7022 25.5828 27.8377 0.0000 0.0000 0.0000
# 2 25.5828 50.7022 27.8377 0.0000 0.0000 0.0000
# 3 27.8377 27.8377 105.4131 0.0000 0.0000 0.0000
# 4 0.0000 0.0000 0.0000 8.5083 0.0000 0.0000
# 5 0.0000 0.0000 0.0000 0.0000 8.5083 0.0000
# 6 0.0000 0.0000 0.0000 0.0000 0.0000 12.5597
#
#
#
# Elastic Compliance Matrix: (Units=1/GPa)
#
#
# Indices 1 2 3 4 5 6 
#
# 1 0.028024 -0.011786 -0.004288 0.000000 0.000000 0.000000
# 2 -0.011786 0.028024 -0.004288 0.000000 0.000000 0.000000
# 3 -0.004288 -0.004288 0.011751 0.000000 0.000000 0.000000
# 4 0.000000 0.000000 0.000000 0.117532 0.000000 0.000000
# 5 0.000000 0.000000 0.000000 0.000000 0.117532 0.000000
# 6 0.000000 0.000000 0.000000 0.000000 0.000000 0.079620
#
#
# Mechanical properties :
#
#
# Convention : Reuss Voigt Hill
#
# Bulk Modulus (GPa) = 36.93414 41.03709 38.98561
# Shear Modulus (GPa) = 11.56782 14.28588 12.92685
#
# Velocity S-wave (km/s) = 2.69313 2.99285 2.84693
# Velocity P-wave (km/s) = 5.72957 6.13781 5.93720
#
# Compressibility (1/GPa) = 0.02707522
#
# Stress axis : x y z
#
# Youngs Moduli (GPa) = 35.68346 35.68346 85.09621
#
# Poissons Ratio (x) = 0.42055 0.36492
# Poissons Ratio (y) = 0.42055 0.36492
# Poissons Ratio (z) = 0.15302 0.15302
#
# Static dielectric constant tensor:
#      x y z
#    x 2.770300 0.000000 0.000000 
#    y 0.000000 2.770300 0.000000 
#    z 0.000000 0.000000 0.526510 
# 
# 
# High freq. dielectric constant tensor:
#      x y z
#    x 1.574940 0.000000 0.000000 
#    y 0.000000 1.574940 0.000000 
#    z 0.000000 0.000000 1.642630 
# 
# From -- ./inp_files/10230.got.cif
#   From: 2010.03.12/outbox.cif.g09.slc.cpg/sg191_6_cif.got.tgz:10230.got - 2010.04.01 12:09:02.
