data_PCOD8328558
_publ_section_title
;
Structure prediction by ZEFSAII (Michael W. Deem and Ramdas Pophale) SiO2 
 PCOD8328558
Probable space group: P 6/M M M
;
_chemical_formula_sum "Si O2"
_cell_formula_units_Z 108
_cell_length_a 30.048886
_cell_length_b 30.048886
_cell_length_c 7.856923
_cell_angle_alpha 90.000000
_cell_angle_beta 90.000000
_cell_angle_gamma 120.000000
_cell_volume 6143.839769
_symmetry_space_group_name_H-M "P 6/M M M"
_symmetry_group_IT_number 191
_symmetry_cell_setting 'hexagonal'
loop_
_space_group_symop_operation_xyz
x,y,z
x-y,x,z
-y,x-y,z
-x,-y,z
-x+y,-x,z
y,-x+y,z
x-y,-y,-z
-x,-x+y,-z
y,x,-z
-y,-x,-z
-x+y,y,-z
x,x-y,-z
-x,-y,-z
-x+y,-x,-z
y,-x+y,-z
x,y,-z
x-y,x,-z
-y,x-y,-z
-x+y,y,z
x,x-y,z
-y,-x,z
y,x,z
x-y,-y,z
-x,-x+y,z
loop_
_atom_site_type_symbol
_atom_site_label
_atom_site_fract_x
_atom_site_fract_y
_atom_site_fract_z
Si Si1 0.511680 0.704706 0.808187
Si Si2 0.000000 0.805252 0.799180
Si Si3 0.781812 0.890906 0.799232
Si Si4 0.000000 0.703456 0.199323
Si Si5 0.437735 0.770549 0.500000
Si Si6 0.834262 0.668523 0.693763
Si Si7 0.384819 0.106817 0.300131
O O1 0.529760 0.764880 0.774415
O O2 0.468778 0.670126 0.670812
O O3 0.559428 0.694595 0.788008
O O4 0.489441 0.688559 0.000000
O O5 0.950660 0.810067 0.741137
O O6 0.000000 0.754336 0.722320
O O7 0.000000 0.800074 0.000000
O O8 0.728962 0.864481 0.702032
O O9 0.772068 0.886034 0.000000
O O10 0.952944 0.649373 0.259184
O O11 0.000000 0.708518 0.000000
O O12 0.386872 0.773744 0.500000
O O13 0.422880 0.711440 0.500000
O O14 0.825238 0.650476 0.500000
O O15 0.867232 0.646274 0.781016
O O16 0.393645 0.115100 0.500000
#
# Coordination Sequence:
#
# PCOD8328558 Si02
#       7
#    24  12  12  12  12  12  24
#     4  10  20  34  56  83 112 149 190 230 274 327
#     4   9  18  29  45  64  89 122 164 212 260 323
#     4  10  18  32  46  63  88 124 168 208 260 324
#     4  11  21  31  45  73 104 138 180 219 268 328
#     4  10  21  38  60  87 121 153 189 228 271 317
#     4  10  20  28  46  70  99 135 171 214 260 316
#     4  11  20  33  49  73 108 146 182 221 268 323
#
# _framework density 17.578582000000001
#
# number of rings (size 3 to 8) (size 9 to 14) (size 15 to 20)
#    0.000    1.778    4.444    1.111    0.000    1.333 
#    0.000    0.556    0.000    1.556    0.000    3.111 
#    0.000    2.667    0.000    1.000    0.000    1.111 
#
# Total GULP energy -1338546.292810 kJ/mol
# GULP energy per Si atom -12393.947156 kJ/mol
# Density = 1.753857 g / cm^3
# Si number density = 17.578582 Si / 1000 Ang^3
#
#
#
# Elastic Constant Matrix: (Units=GPa)
#
#
# Indices 1 2 3 4 5 6 
#
# 1 120.5579 56.1517 34.2375 0.0000 0.0000 0.0000
# 2 56.1517 120.5579 34.2375 0.0000 0.0000 0.0000
# 3 34.2375 34.2375 83.6979 0.0000 0.0000 0.0000
# 4 0.0000 0.0000 0.0000 19.1732 0.0000 0.0000
# 5 0.0000 0.0000 0.0000 0.0000 19.1732 0.0000
# 6 0.0000 0.0000 0.0000 0.0000 0.0000 32.2031
#
#
#
# Elastic Compliance Matrix: (Units=1/GPa)
#
#
# Indices 1 2 3 4 5 6 
#
# 1 0.011126 -0.004401 -0.002751 0.000000 0.000000 0.000000
# 2 -0.004401 0.011126 -0.002751 0.000000 0.000000 0.000000
# 3 -0.002751 -0.002751 0.014198 0.000000 0.000000 0.000000
# 4 0.000000 0.000000 0.000000 0.052156 0.000000 0.000000
# 5 0.000000 0.000000 0.000000 0.000000 0.052156 0.000000
# 6 0.000000 0.000000 0.000000 0.000000 0.000000 0.031053
#
#
# Mechanical properties :
#
#
# Convention : Reuss Voigt Hill
#
# Bulk Modulus (GPa) = 60.07959 63.78524 61.93242
# Shear Modulus (GPa) = 25.35905 27.45570 26.40737
#
# Velocity S-wave (km/s) = 3.80229 3.95635 3.88009
# Velocity P-wave (km/s) = 7.31632 7.56537 7.44189
#
# Compressibility (1/GPa) = 0.01664459
#
# Stress axis : x y z
#
# Youngs Moduli (GPa) = 89.88181 89.88181 70.43091
#
# Poissons Ratio (x) = 0.39555 0.19375
# Poissons Ratio (y) = 0.39555 0.19375
# Poissons Ratio (z) = 0.24726 0.24726
#
# Static dielectric constant tensor:
#      x y z
#    x 3.163520 0.000000 0.000000 
#    y 0.000000 3.163520 0.000000 
#    z 0.000000 0.000000 3.226190 
# 
# 
# High freq. dielectric constant tensor:
#      x y z
#    x 1.656180 0.000000 0.000000 
#    y 0.000000 1.656180 0.000000 
#    z 0.000000 0.000000 1.683100 
# 
# From -- ./inp_files/1806.got.cif
#   From: 2010.03.12/outbox.cif.g09.slc.cpg/sg191_1_cif.got.tgz:1806.got - 2010.04.01 12:09:02.
