data_PCOD8328940
_publ_section_title
;
Structure prediction by ZEFSAII (Michael W. Deem and Ramdas Pophale) SiO2 
 PCOD8328940
Probable space group: P 6/M M M
;
_chemical_formula_sum "Si O2"
_cell_formula_units_Z 120
_cell_length_a 22.118079
_cell_length_b 22.118079
_cell_length_c 17.950816
_cell_angle_alpha 90.000000
_cell_angle_beta 90.000000
_cell_angle_gamma 120.000000
_cell_volume 7605.182441
_symmetry_space_group_name_H-M "P 6/M M M"
_symmetry_group_IT_number 191
_symmetry_cell_setting 'hexagonal'
loop_
_space_group_symop_operation_xyz
x,y,z
x-y,x,z
-y,x-y,z
-x,-y,z
-x+y,-x,z
y,-x+y,z
x-y,-y,-z
-x,-x+y,-z
y,x,-z
-y,-x,-z
-x+y,y,-z
x,x-y,-z
-x,-y,-z
-x+y,-x,-z
y,-x+y,-z
x,y,-z
x-y,x,-z
-y,x-y,-z
-x+y,y,z
x,x-y,z
-y,-x,z
y,x,z
x-y,-y,z
-x,-x+y,z
loop_
_atom_site_type_symbol
_atom_site_label
_atom_site_fract_x
_atom_site_fract_y
_atom_site_fract_z
Si Si1 0.417062 0.079925 0.689843
Si Si2 0.724056 0.082378 0.081336
Si Si3 0.666842 0.472342 0.587992
Si Si4 0.708959 0.788096 0.230004
Si Si5 0.475584 0.082921 0.843037
O O1 0.457545 0.130472 0.621712
O O2 0.351159 0.087560 0.714005
O O3 0.470901 0.103301 0.758253
O O4 0.390192 0.000000 0.665876
O O5 0.780643 0.101060 0.145816
O O6 0.673929 0.114245 0.101879
O O7 0.676167 0.000000 0.078188
O O8 0.758876 0.111622 0.000000
O O9 0.667354 0.480818 0.500000
O O10 0.732325 0.464650 0.614414
O O11 0.596155 0.403846 0.614484
O O12 0.735633 0.867817 0.254648
O O13 0.773508 0.773508 0.232474
O O14 0.556695 0.113390 0.864638
O O15 0.433779 0.000000 0.849257
#
# Coordination Sequence:
#
# PCOD8328940 Si02
#       5
#    24  24  24  24  24
#     4   9  17  29  45  64  84 106 136 175 216 255
#     4   8  14  23  34  52  78 105 134 167 201 238
#     4  10  20  32  45  61  84 115 148 180 212 246
#     4   9  17  29  45  63  83 108 136 167 205 249
#     4   8  13  21  34  53  77 104 132 164 204 247
#
# _framework density 15.778714000000001
#
# number of rings (size 3 to 8) (size 9 to 14) (size 15 to 20)
#    0.000    3.200    0.000    3.800    0.000    3.200 
#    0.000    3.000    0.000    0.200    0.000    0.000 
#    0.000    0.000    0.000    5.000    0.000   59.600 
#
# Total GULP energy -1486871.945914 kJ/mol
# GULP energy per Si atom -12390.599549 kJ/mol
# Density = 1.574280 g / cm^3
# Si number density = 15.778714 Si / 1000 Ang^3
#
#
#
# Elastic Constant Matrix: (Units=GPa)
#
#
# Indices 1 2 3 4 5 6 
#
# 1 77.7864 44.2064 26.8325 0.0000 0.0000 0.0000
# 2 44.2064 77.7864 26.8325 0.0000 0.0000 0.0000
# 3 26.8325 26.8325 44.0088 0.0000 0.0000 0.0000
# 4 0.0000 0.0000 0.0000 8.7668 0.0000 0.0000
# 5 0.0000 0.0000 0.0000 0.0000 8.7668 0.0000
# 6 0.0000 0.0000 0.0000 0.0000 0.0000 16.7900
#
#
#
# Elastic Compliance Matrix: (Units=1/GPa)
#
#
# Indices 1 2 3 4 5 6 
#
# 1 0.020491 -0.009289 -0.006830 0.000000 0.000000 0.000000
# 2 -0.009289 0.020491 -0.006830 0.000000 0.000000 0.000000
# 3 -0.006830 -0.006830 0.031051 0.000000 0.000000 0.000000
# 4 0.000000 0.000000 0.000000 0.114067 0.000000 0.000000
# 5 0.000000 0.000000 0.000000 0.000000 0.114067 0.000000
# 6 0.000000 0.000000 0.000000 0.000000 0.000000 0.059559
#
#
# Mechanical properties :
#
#
# Convention : Reuss Voigt Hill
#
# Bulk Modulus (GPa) = 38.26234 43.92495 41.09365
# Shear Modulus (GPa) = 12.06758 13.64540 12.85649
#
# Velocity S-wave (km/s) = 2.76850 2.94394 2.85757
# Velocity P-wave (km/s) = 5.87550 6.28126 6.08176
#
# Compressibility (1/GPa) = 0.02613536
#
# Stress axis : x y z
#
# Youngs Moduli (GPa) = 48.80282 48.80282 32.20505
#
# Poissons Ratio (x) = 0.45333 0.21995
# Poissons Ratio (y) = 0.45333 0.21995
# Poissons Ratio (z) = 0.33331 0.33331
#
# Static dielectric constant tensor:
#      x y z
#    x 2.850400 0.000000 0.000000 
#    y 0.000000 2.850400 0.000000 
#    z 0.000000 0.000000 3.039360 
# 
# 
# High freq. dielectric constant tensor:
#      x y z
#    x 1.585070 0.000000 0.000000 
#    y 0.000000 1.585070 0.000000 
#    z 0.000000 0.000000 1.594870 
# 
# From -- ./inp_files/4738.got.cif
#   From: 2010.03.12/outbox.cif.g09.slc.cpg/sg191_3_cif.got.tgz:4738.got - 2010.04.01 12:09:02.
