data_PCOD8328423
_publ_section_title
;
Structure prediction by ZEFSAII (Michael W. Deem and Ramdas Pophale) SiO2 
 PCOD8328423
Probable space group: P 6/M M M
;
_chemical_formula_sum "Si O2"
_cell_formula_units_Z 168
_cell_length_a 25.588174
_cell_length_b 25.588174
_cell_length_c 19.083543
_cell_angle_alpha 90.000000
_cell_angle_beta 90.000000
_cell_angle_gamma 120.000000
_cell_volume 10821.020755
_symmetry_space_group_name_H-M "P 6/M M M"
_symmetry_group_IT_number 191
_symmetry_cell_setting 'hexagonal'
loop_
_space_group_symop_operation_xyz
x,y,z
x-y,x,z
-y,x-y,z
-x,-y,z
-x+y,-x,z
y,-x+y,z
x-y,-y,-z
-x,-x+y,-z
y,x,-z
-y,-x,-z
-x+y,y,-z
x,x-y,-z
-x,-y,-z
-x+y,-x,-z
y,-x+y,-z
x,y,-z
x-y,x,-z
-y,x-y,-z
-x+y,y,z
x,x-y,z
-y,-x,z
y,x,z
x-y,-y,z
-x,-x+y,z
loop_
_atom_site_type_symbol
_atom_site_label
_atom_site_fract_x
_atom_site_fract_y
_atom_site_fract_z
Si Si1 0.637571 0.930847 0.080309
Si Si2 0.333475 0.787693 0.287549
Si Si3 0.823755 0.296060 0.421684
Si Si4 0.067000 0.817680 0.146962
Si Si5 0.931748 0.246439 0.723518
Si Si6 0.430933 0.276271 0.803167
Si Si7 0.068548 0.725373 0.576088
O O1 0.693787 0.922499 0.101171
O O2 0.580078 0.885788 0.127295
O O3 0.654762 0.000000 0.093159
O O4 0.620677 0.912206 0.000000
O O5 0.396603 0.793205 0.268864
O O6 0.282050 0.717951 0.287091
O O7 0.337501 0.815762 0.364537
O O8 0.320850 0.824145 0.227532
O O9 0.815844 0.315830 0.500000
O O10 0.774056 0.225945 0.407826
O O11 0.889564 0.303961 0.413407
O O12 0.114382 0.885619 0.123656
O O13 0.078296 0.809832 0.229071
O O14 0.000000 0.806779 0.134568
O O15 0.885393 0.268609 0.743866
O O16 0.921580 0.229001 0.640634
O O17 0.000000 0.301034 0.737513
O O18 0.423001 0.211501 0.822430
O O19 0.082475 0.759115 0.500000
O O20 0.000000 0.670263 0.577661
#
# Coordination Sequence:
#
# PCOD8328423 Si02
#       7
#    24  24  24  24  24  24  24
#     4   9  17  29  47  72  99 121 138 165 209 256
#     4  10  20  33  48  66  87 112 144 184 227 263
#     4   9  17  29  45  64  85 112 149 189 226 263
#     4   9  17  27  41  62  89 120 150 182 219 257
#     4   9  15  24  40  61  86 113 141 176 215 256
#     4  10  18  28  45  66  87 114 146 176 208 253
#     4   9  16  25  39  60  87 117 145 175 214 260
#
# _framework density 15.525338
#
# number of rings (size 3 to 8) (size 9 to 14) (size 15 to 20)
#    0.000    2.714    1.429    3.143    0.000    2.000 
#    0.000    0.000    0.000    5.286    0.000    3.000 
#    0.000    1.143    0.000    3.571    0.000    0.000 
#
# Total GULP energy -2081869.080817 kJ/mol
# GULP energy per Si atom -12392.077862 kJ/mol
# Density = 1.549000 g / cm^3
# Si number density = 15.525338 Si / 1000 Ang^3
#
#
#
# Elastic Constant Matrix: (Units=GPa)
#
#
# Indices 1 2 3 4 5 6 
#
# 1 67.5804 30.8955 32.1781 0.0000 0.0000 0.0000
# 2 30.8955 67.5804 32.1781 0.0000 0.0000 0.0000
# 3 32.1781 32.1781 118.6266 0.0000 0.0000 0.0000
# 4 0.0000 0.0000 0.0000 15.8702 0.0000 0.0000
# 5 0.0000 0.0000 0.0000 0.0000 15.8702 0.0000
# 6 0.0000 0.0000 0.0000 0.0000 0.0000 18.3425
#
#
#
# Elastic Compliance Matrix: (Units=1/GPa)
#
#
# Indices 1 2 3 4 5 6 
#
# 1 0.019801 -0.007458 -0.003348 0.000000 0.000000 0.000000
# 2 -0.007458 0.019801 -0.003348 0.000000 0.000000 0.000000
# 3 -0.003348 -0.003348 0.010246 0.000000 0.000000 0.000000
# 4 0.000000 0.000000 0.000000 0.063011 0.000000 0.000000
# 5 0.000000 0.000000 0.000000 0.000000 0.063011 0.000000
# 6 0.000000 0.000000 0.000000 0.000000 0.000000 0.054518
#
#
# Mechanical properties :
#
#
# Convention : Reuss Voigt Hill
#
# Bulk Modulus (GPa) = 46.42620 49.36564 47.89592
# Shear Modulus (GPa) = 18.80566 20.58561 19.69564
#
# Velocity S-wave (km/s) = 3.48413 3.64529 3.56562
# Velocity P-wave (km/s) = 6.79367 7.04155 6.91872
#
# Compressibility (1/GPa) = 0.02153956
#
# Stress axis : x y z
#
# Youngs Moduli (GPa) = 50.50253 50.50253 97.59748
#
# Poissons Ratio (x) = 0.37666 0.32676
# Poissons Ratio (y) = 0.37666 0.32676
# Poissons Ratio (z) = 0.16909 0.16909
#
# Static dielectric constant tensor:
#      x y z
#    x 2.768590 0.000000 0.000000 
#    y 0.000000 2.768590 0.000000 
#    z 0.000000 0.000000 3.266870 
# 
# 
# High freq. dielectric constant tensor:
#      x y z
#    x 1.567750 0.000000 0.000000 
#    y 0.000000 1.567750 0.000000 
#    z 0.000000 0.000000 1.609000 
# 
# From -- ./inp_files/7978.got.cif
#   From: 2010.03.12/outbox.cif.g09.slc.cpg/sg191_4_cif.got.tgz:7978.got - 2010.04.01 12:09:02.
