data_PCOD8328620
_publ_section_title
;
Structure prediction by ZEFSAII (Michael W. Deem and Ramdas Pophale) SiO2 
 PCOD8328620
Probable space group: P 6/M M M
;
_chemical_formula_sum "Si O2"
_cell_formula_units_Z 132
_cell_length_a 17.846317
_cell_length_b 17.846317
_cell_length_c 28.327693
_cell_angle_alpha 90.000000
_cell_angle_beta 90.000000
_cell_angle_gamma 120.000000
_cell_volume 7813.381768
_symmetry_space_group_name_H-M "P 6/M M M"
_symmetry_group_IT_number 191
_symmetry_cell_setting 'hexagonal'
loop_
_space_group_symop_operation_xyz
x,y,z
x-y,x,z
-y,x-y,z
-x,-y,z
-x+y,-x,z
y,-x+y,z
x-y,-y,-z
-x,-x+y,-z
y,x,-z
-y,-x,-z
-x+y,y,-z
x,x-y,-z
-x,-y,-z
-x+y,-x,-z
y,-x+y,-z
x,y,-z
x-y,x,-z
-y,x-y,-z
-x+y,y,z
x,x-y,z
-y,-x,z
y,x,z
x-y,-y,z
-x,-x+y,z
loop_
_atom_site_type_symbol
_atom_site_label
_atom_site_fract_x
_atom_site_fract_y
_atom_site_fract_z
Si Si1 0.099938 0.367479 0.413373
Si Si2 0.468045 0.365659 0.326891
Si Si3 0.737833 0.101165 0.862689
Si Si4 0.102330 0.468169 0.947852
Si Si5 0.331931 0.489954 0.500000
Si Si6 0.531722 0.634050 0.222436
O O1 0.164298 0.328595 0.422150
O O2 0.132876 0.423335 0.365382
O O3 0.109052 0.432721 0.454638
O O4 0.000000 0.289545 0.410704
O O5 0.570141 0.429860 0.338035
O O6 0.421955 0.421955 0.328440
O O7 0.457722 0.324246 0.274621
O O8 0.842675 0.157326 0.862730
O O9 0.706982 0.132163 0.908298
O O10 0.707150 0.131973 0.816944
O O11 0.707976 0.000000 0.862770
O O12 0.140287 0.570144 0.937128
O O13 0.000000 0.422347 0.946466
O O14 0.133202 0.456809 0.000000
O O15 0.425323 0.574678 0.500000
O O16 0.258741 0.517482 0.500000
O O17 0.429905 0.570096 0.211277
O O18 0.577578 0.577578 0.221278
#
# Coordination Sequence:
#
# PCOD8328620 Si02
#       6
#    24  24  24  24  12  24
#     4  10  20  32  47  68  93 122 157 197 236 270
#     4   8  14  26  45  68  91 113 139 173 215 267
#     4  10  19  29  43  64  89 117 152 194 234 269
#     4   8  14  26  45  67  87 106 131 166 211 265
#     4  10  20  33  50  73 100 126 149 176 216 269
#     4   8  14  26  45  67  88 110 138 174 218 269
#
# _framework density 16.894093000000002
#
# number of rings (size 3 to 8) (size 9 to 14) (size 15 to 20)
#    0.000    3.091    0.000    3.091    0.000    4.727 
#    0.000    0.000    0.000    3.636    0.000    0.000 
#    0.000    2.182    0.000   13.636    0.000    0.000 
#
# Total GULP energy -1635384.708075 kJ/mol
# GULP energy per Si atom -12389.278091 kJ/mol
# Density = 1.685564 g / cm^3
# Si number density = 16.894093 Si / 1000 Ang^3
#
#
#
# Elastic Constant Matrix: (Units=GPa)
#
#
# Indices 1 2 3 4 5 6 
#
# 1 75.2670 43.3643 38.4144 0.0000 0.0000 0.0000
# 2 43.3643 75.2670 38.4144 0.0000 0.0000 0.0000
# 3 38.4144 38.4144 118.9340 0.0000 0.0000 0.0000
# 4 0.0000 0.0000 0.0000 3.6322 0.0000 0.0000
# 5 0.0000 0.0000 0.0000 0.0000 3.6322 0.0000
# 6 0.0000 0.0000 0.0000 0.0000 0.0000 15.9514
#
#
#
# Elastic Compliance Matrix: (Units=1/GPa)
#
#
# Indices 1 2 3 4 5 6 
#
# 1 0.021002 -0.010343 -0.003443 0.000000 0.000000 0.000000
# 2 -0.010343 0.021002 -0.003443 0.000000 0.000000 0.000000
# 3 -0.003443 -0.003443 0.010632 0.000000 0.000000 0.000000
# 4 0.000000 0.000000 0.000000 0.275315 0.000000 0.000000
# 5 0.000000 0.000000 0.000000 0.000000 0.275315 0.000000
# 6 0.000000 0.000000 0.000000 0.000000 0.000000 0.062691
#
#
# Mechanical properties :
#
#
# Convention : Reuss Voigt Hill
#
# Bulk Modulus (GPa) = 55.00820 56.65044 55.82932
# Shear Modulus (GPa) = 7.07740 14.59482 10.83611
#
# Velocity S-wave (km/s) = 2.04899 2.94241 2.53536
# Velocity P-wave (km/s) = 6.18297 6.71931 6.45671
#
# Compressibility (1/GPa) = 0.01817911
#
# Stress axis : x y z
#
# Youngs Moduli (GPa) = 47.61405 47.61405 94.05583
#
# Poissons Ratio (x) = 0.49248 0.32381
# Poissons Ratio (y) = 0.49248 0.32381
# Poissons Ratio (z) = 0.16392 0.16392
#
# Static dielectric constant tensor:
#      x y z
#    x 2.873580 0.000000 0.000000 
#    y 0.000000 2.873580 0.000000 
#    z 0.000000 0.000000 3.710420 
# 
# 
# High freq. dielectric constant tensor:
#      x y z
#    x 1.617550 0.000000 0.000000 
#    y 0.000000 1.617550 0.000000 
#    z 0.000000 0.000000 1.674670 
# 
# From -- ./inp_files/10506.got.cif
#   From: 2010.03.12/outbox.cif.g09.slc.cpg/sg191_6_cif.got.tgz:10506.got - 2010.04.01 12:09:02.
