data_PCOD8328343
_publ_section_title
;
Structure prediction by ZEFSAII (Michael W. Deem and Ramdas Pophale) SiO2 
 PCOD8328343
Probable space group: P 6/M M M
;
_chemical_formula_sum "Si O2"
_cell_formula_units_Z 120
_cell_length_a 17.560005
_cell_length_b 17.560005
_cell_length_c 25.887702
_cell_angle_alpha 90.000000
_cell_angle_beta 90.000000
_cell_angle_gamma 120.000000
_cell_volume 6913.108973
_symmetry_space_group_name_H-M "P 6/M M M"
_symmetry_group_IT_number 191
_symmetry_cell_setting 'hexagonal'
loop_
_space_group_symop_operation_xyz
x,y,z
x-y,x,z
-y,x-y,z
-x,-y,z
-x+y,-x,z
y,-x+y,z
x-y,-y,-z
-x,-x+y,-z
y,x,-z
-y,-x,-z
-x+y,y,-z
x,x-y,-z
-x,-y,-z
-x+y,-x,-z
y,-x+y,-z
x,y,-z
x-y,x,-z
-y,x-y,-z
-x+y,y,z
x,x-y,z
-y,-x,z
y,x,z
x-y,-y,z
-x,-x+y,z
loop_
_atom_site_type_symbol
_atom_site_label
_atom_site_fract_x
_atom_site_fract_y
_atom_site_fract_z
Si Si1 0.100559 0.730277 0.705019
Si Si2 0.532751 0.896409 0.000000
Si Si3 0.163280 0.668856 0.500000
Si Si4 0.897561 0.364196 0.391974
Si Si5 0.271065 0.371467 0.099332
Si Si6 0.332096 0.844268 0.802249
O O1 0.165135 0.834866 0.714971
O O2 0.136536 0.706649 0.653616
O O3 0.106822 0.673629 0.751474
O O4 0.000000 0.709265 0.699681
O O5 0.563150 0.866302 0.050595
O O6 0.426574 0.853147 0.000000
O O7 0.575613 0.000000 0.000000
O O8 0.267986 0.732015 0.500000
O O9 0.135495 0.567748 0.500000
O O10 0.123821 0.685534 0.447512
O O11 0.853314 0.426657 0.388200
O O12 0.000000 0.424969 0.385119
O O13 0.165694 0.331387 0.105229
O O14 0.291728 0.291728 0.092559
O O15 0.322273 0.427806 0.148959
O O16 0.426525 0.853050 0.804220
O O17 0.257956 0.742045 0.802206
#
# Coordination Sequence:
#
# PCOD8328343 Si02
#       6
#    24  12  12  24  24  24
#     4  10  20  33  49  69  92 119 152 190 231 274
#     4   9  17  30  49  72  96 122 154 191 231 280
#     4  10  18  27  39  57  84 117 151 183 215 254
#     4   9  17  29  45  64  86 114 148 185 225 269
#     4  10  20  33  50  72  97 127 163 202 242 282
#     4  10  20  33  50  73 100 128 156 188 227 271
#
# _framework density 17.358325000000001
#
# number of rings (size 3 to 8) (size 9 to 14) (size 15 to 20)
#    0.000    2.300    0.000    3.300    0.000    4.400 
#    0.000    0.000    0.000    9.600    0.000    0.000 
#    0.000    7.200    0.000    0.000    0.000   21.600 
#
# Total GULP energy -1487565.104319 kJ/mol
# GULP energy per Si atom -12396.375869 kJ/mol
# Density = 1.731882 g / cm^3
# Si number density = 17.358325 Si / 1000 Ang^3
#
#
#
# Elastic Constant Matrix: (Units=GPa)
#
#
# Indices 1 2 3 4 5 6 
#
# 1 78.2907 47.9868 28.3718 0.0000 0.0000 0.0000
# 2 47.9868 78.2907 28.3718 0.0000 0.0000 0.0000
# 3 28.3718 28.3718 140.9286 0.0000 0.0000 0.0000
# 4 0.0000 0.0000 0.0000 24.5954 0.0000 0.0000
# 5 0.0000 0.0000 0.0000 0.0000 24.5954 0.0000
# 6 0.0000 0.0000 0.0000 0.0000 0.0000 15.1520
#
#
#
# Elastic Compliance Matrix: (Units=1/GPa)
#
#
# Indices 1 2 3 4 5 6 
#
# 1 0.020853 -0.012146 -0.001753 0.000000 0.000000 0.000000
# 2 -0.012146 0.020853 -0.001753 0.000000 0.000000 0.000000
# 3 -0.001753 -0.001753 0.007802 0.000000 0.000000 0.000000
# 4 0.000000 0.000000 0.000000 0.040658 0.000000 0.000000
# 5 0.000000 0.000000 0.000000 0.000000 0.040658 0.000000
# 6 0.000000 0.000000 0.000000 0.000000 0.000000 0.065998
#
#
# Mechanical properties :
#
#
# Convention : Reuss Voigt Hill
#
# Bulk Modulus (GPa) = 54.93408 56.33007 55.63208
# Shear Modulus (GPa) = 21.34992 25.72054 23.53523
#
# Velocity S-wave (km/s) = 3.51087 3.85351 3.68618
# Velocity P-wave (km/s) = 6.93908 7.23334 7.08774
#
# Compressibility (1/GPa) = 0.01820364
#
# Stress axis : x y z
#
# Youngs Moduli (GPa) = 47.95500 47.95500 128.17954
#
# Poissons Ratio (x) = 0.58247 0.22468
# Poissons Ratio (y) = 0.58247 0.22468
# Poissons Ratio (z) = 0.08406 0.08406
#
# Static dielectric constant tensor:
#      x y z
#    x 3.049230 0.000000 0.000000 
#    y 0.000000 3.049230 0.000000 
#    z 0.000000 0.000000 3.570300 
# 
# 
# High freq. dielectric constant tensor:
#      x y z
#    x 1.646490 0.000000 0.000000 
#    y 0.000000 1.646490 0.000000 
#    z 0.000000 0.000000 1.697100 
# 
# From -- ./inp_files/8590.got.cif
#   From: 2010.03.12/outbox.cif.g09.slc.cpg/sg191_5_cif.got.tgz:8590.got - 2010.04.01 12:09:02.
