data_PCOD8328599
_publ_section_title
;
Structure prediction by ZEFSAII (Michael W. Deem and Ramdas Pophale) SiO2 
 PCOD8328599
Probable space group: P 6/M M M
;
_chemical_formula_sum "Si O2"
_cell_formula_units_Z 120
_cell_length_a 17.707545
_cell_length_b 17.707545
_cell_length_c 25.956664
_cell_angle_alpha 90.000000
_cell_angle_beta 90.000000
_cell_angle_gamma 120.000000
_cell_volume 7048.492068
_symmetry_space_group_name_H-M "P 6/M M M"
_symmetry_group_IT_number 191
_symmetry_cell_setting 'hexagonal'
loop_
_space_group_symop_operation_xyz
x,y,z
x-y,x,z
-y,x-y,z
-x,-y,z
-x+y,-x,z
y,-x+y,z
x-y,-y,-z
-x,-x+y,-z
y,x,-z
-y,-x,-z
-x+y,y,-z
x,x-y,-z
-x,-y,-z
-x+y,-x,-z
y,-x+y,-z
x,y,-z
x-y,x,-z
-y,x-y,-z
-x+y,y,z
x,x-y,z
-y,-x,z
y,x,z
x-y,-y,z
-x,-x+y,z
loop_
_atom_site_type_symbol
_atom_site_label
_atom_site_fract_x
_atom_site_fract_y
_atom_site_fract_z
Si Si1 0.902031 0.270427 0.692408
Si Si2 0.104226 0.468822 0.000000
Si Si3 0.729242 0.631210 0.500000
Si Si4 0.504568 0.669521 0.782473
Si Si5 0.638268 0.541341 0.890571
Si Si6 0.490834 0.331526 0.596520
O O1 0.833381 0.166620 0.688741
O O2 0.896687 0.310056 0.747120
O O3 0.881967 0.322380 0.649198
O O4 0.000000 0.286967 0.685817
O O5 0.133108 0.443229 0.054265
O O6 0.146042 0.573021 0.000000
O O7 0.000000 0.422019 0.000000
O O8 0.714077 0.714077 0.500000
O O9 0.833086 0.666171 0.500000
O O10 0.683246 0.573398 0.450274
O O11 0.468584 0.734292 0.766986
O O12 0.429940 0.570061 0.774180
O O13 0.535665 0.690607 0.841829
O O14 0.547210 0.452791 0.896476
O O15 0.620878 0.620878 0.879921
O O16 0.524282 0.262141 0.594151
O O17 0.572430 0.427571 0.592870
#
# Coordination Sequence:
#
# PCOD8328599 Si02
#       6
#    24  12  12  24  24  24
#     4  10  21  35  51  71  93 118 148 185 228 271
#     4   7  10  18  33  52  70  90 126 179 231 269
#     4  10  21  35  51  72  97 127 162 202 247 289
#     4  10  19  29  41  59  86 119 153 187 222 260
#     4   8  13  22  37  54  71  96 135 183 229 269
#     4  10  20  33  50  73 102 134 165 195 227 264
#
# _framework density 17.024918
#
# number of rings (size 3 to 8) (size 9 to 14) (size 15 to 20)
#    0.000    2.700    0.000    3.700    0.000    4.000 
#    0.000    3.500    0.000    0.300    0.000    1.400 
#    0.000    4.800    0.000    0.000    0.000    0.400 
#
# Total GULP energy -1486821.658520 kJ/mol
# GULP energy per Si atom -12390.180488 kJ/mol
# Density = 1.698617 g / cm^3
# Si number density = 17.024918 Si / 1000 Ang^3
#
#
#
# Elastic Constant Matrix: (Units=GPa)
#
#
# Indices 1 2 3 4 5 6 
#
# 1 77.4885 53.0949 26.5806 0.0000 0.0000 0.0000
# 2 53.0949 77.4885 26.5806 0.0000 0.0000 0.0000
# 3 26.5806 26.5806 112.9031 0.0000 0.0000 0.0000
# 4 0.0000 0.0000 0.0000 17.2855 0.0000 0.0000
# 5 0.0000 0.0000 0.0000 0.0000 17.2855 0.0000
# 6 0.0000 0.0000 0.0000 0.0000 0.0000 12.1968
#
#
#
# Elastic Compliance Matrix: (Units=1/GPa)
#
#
# Indices 1 2 3 4 5 6 
#
# 1 0.024732 -0.016262 -0.001994 0.000000 0.000000 0.000000
# 2 -0.016262 0.024732 -0.001994 0.000000 0.000000 0.000000
# 3 -0.001994 -0.001994 0.009796 0.000000 0.000000 0.000000
# 4 0.000000 0.000000 0.000000 0.057852 0.000000 0.000000
# 5 0.000000 0.000000 0.000000 0.000000 0.057852 0.000000
# 6 0.000000 0.000000 0.000000 0.000000 0.000000 0.081989
#
#
# Mechanical properties :
#
#
# Convention : Reuss Voigt Hill
#
# Bulk Modulus (GPa) = 53.30651 53.37690 53.34170
# Shear Modulus (GPa) = 16.46327 20.12850 18.29588
#
# Velocity S-wave (km/s) = 3.11305 3.44218 3.28175
# Velocity P-wave (km/s) = 6.65585 6.87157 6.76457
#
# Compressibility (1/GPa) = 0.01875944
#
# Stress axis : x y z
#
# Youngs Moduli (GPa) = 40.43344 40.43344 102.08206
#
# Poissons Ratio (x) = 0.65754 0.20355
# Poissons Ratio (y) = 0.65754 0.20355
# Poissons Ratio (z) = 0.08062 0.08062
#
# Static dielectric constant tensor:
#      x y z
#    x 2.887510 0.000000 0.000000 
#    y 0.000000 2.887510 0.000000 
#    z 0.000000 0.000000 3.718160 
# 
# 
# High freq. dielectric constant tensor:
#      x y z
#    x 1.618870 0.000000 0.000000 
#    y 0.000000 1.618870 0.000000 
#    z 0.000000 0.000000 1.690150 
# 
# From -- ./inp_files/8603.got.cif
#   From: 2010.03.12/outbox.cif.g09.slc.cpg/sg191_5_cif.got.tgz:8603.got - 2010.04.01 12:09:02.
