data_PCOD8328768
_publ_section_title
;
Structure prediction by ZEFSAII (Michael W. Deem and Ramdas Pophale) SiO2 
 PCOD8328768
Probable space group: P 6/M M M
;
_chemical_formula_sum "Si O2"
_cell_formula_units_Z 108
_cell_length_a 21.827755
_cell_length_b 21.827755
_cell_length_c 17.734724
_cell_angle_alpha 90.000000
_cell_angle_beta 90.000000
_cell_angle_gamma 120.000000
_cell_volume 7317.676509
_symmetry_space_group_name_H-M "P 6/M M M"
_symmetry_group_IT_number 191
_symmetry_cell_setting 'hexagonal'
loop_
_space_group_symop_operation_xyz
x,y,z
x-y,x,z
-y,x-y,z
-x,-y,z
-x+y,-x,z
y,-x+y,z
x-y,-y,-z
-x,-x+y,-z
y,x,-z
-y,-x,-z
-x+y,y,-z
x,x-y,-z
-x,-y,-z
-x+y,-x,-z
y,-x+y,-z
x,y,-z
x-y,x,-z
-y,x-y,-z
-x+y,y,z
x,x-y,z
-y,-x,z
y,x,z
x-y,-y,z
-x,-x+y,z
loop_
_atom_site_type_symbol
_atom_site_label
_atom_site_fract_x
_atom_site_fract_y
_atom_site_fract_z
Si Si1 0.610120 0.531801 0.000000
Si Si2 0.478790 0.667251 0.708857
Si Si3 0.847054 0.292395 0.863883
Si Si4 0.921201 0.387889 0.584264
Si Si5 0.293220 0.214198 0.086594
O O1 0.647864 0.524521 0.073481
O O2 0.603252 0.603252 0.000000
O O3 0.532480 0.467521 0.000000
O O4 0.469166 0.734583 0.696882
O O5 0.401831 0.598170 0.710289
O O6 0.519936 0.671642 0.785173
O O7 0.528250 0.666050 0.641936
O O8 0.767520 0.232481 0.885561
O O9 0.897013 0.257418 0.859205
O O10 0.902136 0.355166 0.500000
O O11 0.921239 0.460620 0.585970
O O12 0.000000 0.403752 0.606915
O O13 0.260277 0.130139 0.098470
O O14 0.232445 0.232445 0.107035
O O15 0.319929 0.235334 0.000000
#
# Coordination Sequence:
#
# PCOD8328768 Si02
#       5
#    12  24  24  24  24
#     4  11  21  30  42  60  80 101 131 175 220 258
#     4  10  20  32  46  64  87 114 144 179 220 266
#     4  10  19  31  44  58  80 110 142 176 213 252
#     4   8  15  29  47  65  85 109 137 170 210 256
#     4   9  16  27  44  63  83 108 138 173 212 253
#
# _framework density 14.758782999999999
#
# number of rings (size 3 to 8) (size 9 to 14) (size 15 to 20)
#    0.000    2.556    1.111    2.556    0.000    2.222 
#    0.000    2.222    0.000    4.667    0.000    1.556 
#    0.000    0.000    0.000    0.000    0.000    0.000 
#
# Total GULP energy -1338753.536924 kJ/mol
# GULP energy per Si atom -12395.866083 kJ/mol
# Density = 1.472519 g / cm^3
# Si number density = 14.758783 Si / 1000 Ang^3
#
#
#
# Elastic Constant Matrix: (Units=GPa)
#
#
# Indices 1 2 3 4 5 6 
#
# 1 82.8707 45.7703 55.6999 0.0000 0.0000 0.0000
# 2 45.7703 82.8707 55.6999 0.0000 0.0000 0.0000
# 3 55.6999 55.6999 105.1664 0.0000 0.0000 0.0000
# 4 0.0000 0.0000 0.0000 17.4368 0.0000 0.0000
# 5 0.0000 0.0000 0.0000 0.0000 17.4368 0.0000
# 6 0.0000 0.0000 0.0000 0.0000 0.0000 18.5502
#
#
#
# Elastic Compliance Matrix: (Units=1/GPa)
#
#
# Indices 1 2 3 4 5 6 
#
# 1 0.020657 -0.006297 -0.007605 0.000000 0.000000 0.000000
# 2 -0.006297 0.020657 -0.007605 0.000000 0.000000 0.000000
# 3 -0.007605 -0.007605 0.017565 0.000000 0.000000 0.000000
# 4 0.000000 0.000000 0.000000 0.057350 0.000000 0.000000
# 5 0.000000 0.000000 0.000000 0.000000 0.057350 0.000000
# 6 0.000000 0.000000 0.000000 0.000000 0.000000 0.053908
#
#
# Mechanical properties :
#
#
# Convention : Reuss Voigt Hill
#
# Bulk Modulus (GPa) = 63.04112 65.02755 64.03434
# Shear Modulus (GPa) = 18.12976 18.26726 18.19851
#
# Velocity S-wave (km/s) = 3.50866 3.52194 3.51531
# Velocity P-wave (km/s) = 7.69554 7.79068 7.74326
#
# Compressibility (1/GPa) = 0.01586266
#
# Stress axis : x y z
#
# Youngs Moduli (GPa) = 48.41024 48.41024 56.93157
#
# Poissons Ratio (x) = 0.30484 0.43299
# Poissons Ratio (y) = 0.30484 0.43299
# Poissons Ratio (z) = 0.36818 0.36818
#
# Static dielectric constant tensor:
#      x y z
#    x 2.848320 0.000000 0.000000 
#    y 0.000000 2.848320 0.000000 
#    z 0.000000 0.000000 2.915960 
# 
# 
# High freq. dielectric constant tensor:
#      x y z
#    x 1.555080 0.000000 0.000000 
#    y 0.000000 1.555080 0.000000 
#    z 0.000000 0.000000 1.553330 
# 
# From -- ./inp_files/6108.got.cif
#   From: 2010.03.12/outbox.cif.g09.slc.cpg/sg191_4_cif.got.tgz:6108.got - 2010.04.01 12:09:02.
