data_PCOD8328131
_publ_section_title
;
Structure prediction by ZEFSAII (Michael W. Deem and Ramdas Pophale) SiO2 
 PCOD8328131
Probable space group: P -6 2 C
;
_chemical_formula_sum "Si O2"
_cell_formula_units_Z 60
_cell_length_a 12.043446
_cell_length_b 12.043446
_cell_length_c 23.238090
_cell_angle_alpha 90.000000
_cell_angle_beta 90.000000
_cell_angle_gamma 120.000000
_cell_volume 2918.989955
_symmetry_space_group_name_H-M "P -6 2 C"
_symmetry_group_IT_number 190
_symmetry_cell_setting 'hexagonal'
loop_
_space_group_symop_operation_xyz
x,y,z
-x+y,-x,1/2-z
-y,x-y,z
x,y,1/2-z
-x+y,-x,z
-y,x-y,1/2-z
x-y,-y,-z
-x,-x+y,-z
y,x,-z
y,x,1/2+z
x-y,-y,1/2+z
-x,-x+y,1/2+z
loop_
_atom_site_type_symbol
_atom_site_label
_atom_site_fract_x
_atom_site_fract_y
_atom_site_fract_z
Si Si1 0.952839 0.481691 0.250000
Si Si2 0.333334 0.666667 0.970912
Si Si3 0.647744 0.577471 0.057891
Si Si4 0.638947 0.819561 0.750000
Si Si5 0.471886 0.404712 0.631555
Si Si6 0.175035 0.266568 0.625304
Si Si7 0.000000 0.000000 0.070595
Si Si8 0.333334 0.666667 0.105290
O O1 0.907195 0.332519 0.250000
O O2 0.838574 0.515019 0.250000
O O3 0.040961 0.547180 0.303997
O O4 0.195147 0.560761 0.948657
O O5 0.333334 0.666667 0.037908
O O6 0.523049 0.557266 0.090389
O O7 0.773227 0.665101 0.094042
O O8 0.653092 0.653092 0.000000
O O9 0.729658 0.883642 0.694197
O O10 0.325275 0.335023 0.611464
O O11 0.529244 0.309687 0.627198
O O12 0.118158 0.126581 0.597862
O O13 0.000000 0.000000 0.000000
#
# Coordination Sequence:
#
# PCOD8328131 Si02
#       8
#     6   4  12   6  12  12   4   4
#     4  10  21  40  66 104 135 176 220 282 346 398
#     4  12  24  39  64 101 136 177 225 286 329 400
#     4  12  23  40  67 100 133 174 227 284 338 402
#     4  10  21  40  72 102 137 178 226 292 338 410
#     4  11  25  42  68  98 135 173 225 279 343 410
#     4  11  26  45  70 102 135 177 235 284 347 408
#     4  12  30  49  71  97 141 192 232 293 355 429
#     4  12  27  43  64  96 136 184 219 265 344 415
#
# _framework density 20.555056
#
# number of rings (size 3 to 8) (size 9 to 14) (size 15 to 20)
#    0.000    0.800    6.000    0.800    2.800    4.000 
#    0.000    2.000    0.000    0.000    0.000    0.000 
#    0.000    0.000    0.000    0.000    0.000    0.000 
#
# Total GULP energy -744029.434935 kJ/mol
# GULP energy per Si atom -12400.490582 kJ/mol
# Density = 2.050827 g / cm^3
# Si number density = 20.555056 Si / 1000 Ang^3
#
#
#
# Elastic Constant Matrix: (Units=GPa)
#
#
# Indices 1 2 3 4 5 6 
#
# 1 94.7502 18.7404 36.2400 -0.0001 0.0000 -0.0001
# 2 18.7404 94.7487 36.2394 0.0000 0.0001 -0.0003
# 3 36.2400 36.2394 139.3441 0.0000 0.0000 -0.0001
# 4 -0.0001 0.0000 0.0000 37.3262 0.0001 0.0000
# 5 0.0000 0.0001 0.0000 0.0001 37.3260 0.0001
# 6 -0.0001 -0.0003 -0.0001 0.0000 0.0001 38.0040
#
#
#
# Elastic Compliance Matrix: (Units=1/GPa)
#
#
# Indices 1 2 3 4 5 6 
#
# 1 0.011861 -0.001295 -0.002748 0.000000 0.000000 0.000000
# 2 -0.001295 0.011861 -0.002748 0.000000 0.000000 0.000000
# 3 -0.002748 -0.002748 0.008606 0.000000 0.000000 0.000000
# 4 0.000000 0.000000 0.000000 0.026791 0.000000 0.000000
# 5 0.000000 0.000000 0.000000 0.000000 0.026791 0.000000
# 6 0.000000 0.000000 0.000000 0.000000 0.000000 0.026313
#
#
# Mechanical properties :
#
#
# Convention : Reuss Voigt Hill
#
# Bulk Modulus (GPa) = 53.34335 56.80915 55.07625
# Shear Modulus (GPa) = 37.86321 38.37278 38.11799
#
# Velocity S-wave (km/s) = 4.29655 4.32537 4.31099
# Velocity P-wave (km/s) = 7.11489 7.25553 7.18555
#
# Compressibility (1/GPa) = 0.01874648
#
# Stress axis : x y z
#
# Youngs Moduli (GPa) = 84.30800 84.30684 116.19988
#
# Poissons Ratio (x) = 0.10918 0.31932
# Poissons Ratio (y) = 0.10918 0.31932
# Poissons Ratio (z) = 0.23168 0.23168
#
# Static dielectric constant tensor:
#      x y z
#    x 3.520900 0.000000 0.000000 
#    y 0.000000 3.520900 0.000000 
#    z 0.000000 0.000000 3.943170 
# 
# 
# High freq. dielectric constant tensor:
#      x y z
#    x 1.808250 0.000000 0.000000 
#    y 0.000000 1.808250 0.000000 
#    z 0.000000 0.000000 1.820020 
# 
# From -- ./inp_files/4926.got.cif
#   From: 2010.06.25/outbox.cif.g09.slc.cpg/sg190_3_cif.got.tgz:4926.got - 2010.06.28 13:08:06.
