data_PCOD8328614
_publ_section_title
;
Structure prediction by ZEFSAII (Michael W. Deem and Ramdas Pophale) SiO2 
 PCOD8328614
Probable space group: P 6/M M M
;
_chemical_formula_sum "Si O2"
_cell_formula_units_Z 84
_cell_length_a 17.819447
_cell_length_b 17.819447
_cell_length_c 18.077866
_cell_angle_alpha 90.000000
_cell_angle_beta 90.000000
_cell_angle_gamma 120.000000
_cell_volume 4971.257269
_symmetry_space_group_name_H-M "P 6/M M M"
_symmetry_group_IT_number 191
_symmetry_cell_setting 'hexagonal'
loop_
_space_group_symop_operation_xyz
x,y,z
x-y,x,z
-y,x-y,z
-x,-y,z
-x+y,-x,z
y,-x+y,z
x-y,-y,-z
-x,-x+y,-z
y,x,-z
-y,-x,-z
-x+y,y,-z
x,x-y,-z
-x,-y,-z
-x+y,-x,-z
y,-x+y,-z
x,y,-z
x-y,x,-z
-y,x-y,-z
-x+y,y,z
x,x-y,z
-y,-x,z
y,x,z
x-y,-y,z
-x,-x+y,z
loop_
_atom_site_type_symbol
_atom_site_label
_atom_site_fract_x
_atom_site_fract_y
_atom_site_fract_z
Si Si1 0.459563 0.097015 0.079893
Si Si2 0.495637 0.330342 0.234277
Si Si3 0.902449 0.269717 0.363150
Si Si4 0.668569 0.160046 0.500000
O O1 0.547303 0.094606 0.079845
O O2 0.460754 0.152775 0.149926
O O3 0.379309 0.000000 0.088936
O O4 0.451145 0.135398 0.000000
O O5 0.531235 0.265618 0.255447
O O6 0.571177 0.428824 0.245129
O O7 0.415818 0.311742 0.286528
O O8 0.833474 0.166527 0.366629
O O9 0.885348 0.319837 0.428297
O O10 0.000000 0.285602 0.369844
O O11 0.737809 0.262192 0.500000
O O12 0.573109 0.146217 0.500000
#
# Coordination Sequence:
#
# PCOD8328614 Si02
#       4
#    24  24  24  12
#     4   8  14  25  40  56  75 105 149 197 237 269
#     4  10  19  29  42  62  90 123 157 191 226 265
#     4  10  21  35  51  71  93 119 151 189 233 277
#     4  10  20  33  50  73 102 134 165 194 222 253
#
# _framework density 16.897133
#
# number of rings (size 3 to 8) (size 9 to 14) (size 15 to 20)
#    0.000    2.571    0.000    3.429    0.000    4.571 
#    0.000    2.857    0.000    2.000    0.000    0.000 
#    0.000    3.429    0.000    0.000    0.000    0.000 
#
# Total GULP energy -1040951.177165 kJ/mol
# GULP energy per Si atom -12392.275919 kJ/mol
# Density = 1.685867 g / cm^3
# Si number density = 16.897133 Si / 1000 Ang^3
#
#
#
# Elastic Constant Matrix: (Units=GPa)
#
#
# Indices 1 2 3 4 5 6 
#
# 1 79.9406 53.2034 32.4062 0.0000 0.0000 0.0000
# 2 53.2034 79.9406 32.4062 0.0000 0.0000 0.0000
# 3 32.4062 32.4062 114.4182 0.0000 0.0000 0.0000
# 4 0.0000 0.0000 0.0000 18.2269 0.0000 0.0000
# 5 0.0000 0.0000 0.0000 0.0000 18.2269 0.0000
# 6 0.0000 0.0000 0.0000 0.0000 0.0000 13.3686
#
#
#
# Elastic Compliance Matrix: (Units=1/GPa)
#
#
# Indices 1 2 3 4 5 6 
#
# 1 0.023056 -0.014345 -0.002467 0.000000 0.000000 0.000000
# 2 -0.014345 0.023056 -0.002467 0.000000 0.000000 0.000000
# 3 -0.002467 -0.002467 0.010138 0.000000 0.000000 0.000000
# 4 0.000000 0.000000 0.000000 0.054864 0.000000 0.000000
# 5 0.000000 0.000000 0.000000 0.000000 0.054864 0.000000
# 6 0.000000 0.000000 0.000000 0.000000 0.000000 0.074802
#
#
# Mechanical properties :
#
#
# Convention : Reuss Voigt Hill
#
# Bulk Modulus (GPa) = 56.52447 56.70347 56.61397
# Shear Modulus (GPa) = 17.52930 20.38337 18.95634
#
# Velocity S-wave (km/s) = 3.22438 3.47698 3.35306
# Velocity P-wave (km/s) = 6.88382 7.05337 6.96911
#
# Compressibility (1/GPa) = 0.01769145
#
# Stress axis : x y z
#
# Youngs Moduli (GPa) = 43.37190 43.37190 98.64338
#
# Poissons Ratio (x) = 0.62215 0.24339
# Poissons Ratio (y) = 0.62215 0.24339
# Poissons Ratio (z) = 0.10702 0.10702
#
# Static dielectric constant tensor:
#      x y z
#    x 2.907290 0.000000 0.000000 
#    y 0.000000 2.907290 0.000000 
#    z 0.000000 0.000000 3.761880 
# 
# 
# High freq. dielectric constant tensor:
#      x y z
#    x 1.617620 0.000000 0.000000 
#    y 0.000000 1.617620 0.000000 
#    z 0.000000 0.000000 1.680810 
# 
# From -- ./inp_files/6987.got.cif
#   From: 2010.03.12/outbox.cif.g09.slc.cpg/sg191_4_cif.got.tgz:6987.got - 2010.04.01 12:09:02.
