data_PCOD8328378
_publ_section_title
;
Structure prediction by ZEFSAII (Michael W. Deem and Ramdas Pophale) SiO2 
 PCOD8328378
Probable space group: P 6/M M M
;
_chemical_formula_sum "Si O2"
_cell_formula_units_Z 168
_cell_length_a 22.342761
_cell_length_b 22.342761
_cell_length_c 28.527015
_cell_angle_alpha 90.000000
_cell_angle_beta 90.000000
_cell_angle_gamma 120.000000
_cell_volume 12332.770278
_symmetry_space_group_name_H-M "P 6/M M M"
_symmetry_group_IT_number 191
_symmetry_cell_setting 'hexagonal'
loop_
_space_group_symop_operation_xyz
x,y,z
x-y,x,z
-y,x-y,z
-x,-y,z
-x+y,-x,z
y,-x+y,z
x-y,-y,-z
-x,-x+y,-z
y,x,-z
-y,-x,-z
-x+y,y,-z
x,x-y,-z
-x,-y,-z
-x+y,-x,-z
y,-x+y,-z
x,y,-z
x-y,x,-z
-y,x-y,-z
-x+y,y,z
x,x-y,z
-y,-x,z
y,x,z
x-y,-y,z
-x,-x+y,z
loop_
_atom_site_type_symbol
_atom_site_label
_atom_site_fract_x
_atom_site_fract_y
_atom_site_fract_z
Si Si1 0.712463 0.923402 0.052704
Si Si2 0.200449 0.665325 0.946964
Si Si3 0.609413 0.532744 0.552535
Si Si4 0.666724 0.196459 0.271975
Si Si5 0.920173 0.391452 0.802287
Si Si6 0.527700 0.332572 0.620213
Si Si7 0.726365 0.589172 0.120927
O O1 0.739944 0.869972 0.059984
O O2 0.659750 0.913761 0.094280
O O3 0.777603 0.000000 0.057838
O O4 0.679594 0.913333 0.000000
O O5 0.186843 0.593422 0.924927
O O6 0.281929 0.718072 0.944148
O O7 0.157941 0.691911 0.919279
O O8 0.173929 0.654788 0.000000
O O9 0.640324 0.543442 0.500000
O O10 0.537896 0.462105 0.555154
O O11 0.595358 0.595358 0.565433
O O12 0.662571 0.530350 0.589441
O O13 0.610398 0.220796 0.265894
O O14 0.740200 0.259801 0.254852
O O15 0.645664 0.127755 0.242439
O O16 0.670612 0.177355 0.325654
O O17 0.907746 0.453873 0.820484
O O18 0.902026 0.331486 0.839959
O O19 0.000000 0.423516 0.787410
O O20 0.528465 0.264233 0.604763
O O21 0.603451 0.396550 0.610307
O O22 0.795005 0.590010 0.141251
#
# Coordination Sequence:
#
# PCOD8328378 Si02
#       7
#    24  24  24  24  24  24  24
#     4   9  17  29  45  63  80  97 117 140 166 200
#     4   9  16  25  37  53  73  96 122 151 181 212
#     4   8  14  24  36  50  70  97 126 151 175 208
#     4   9  17  29  43  57  72  92 119 150 185 224
#     4  10  20  31  41  54  73  95 120 152 187 220
#     4   9  16  25  38  55  74  94 117 149 189 229
#     4  10  18  28  42  57  74  96 121 148 178 212
#
# _framework density 13.622244
#
# number of rings (size 3 to 8) (size 9 to 14) (size 15 to 20)
#    0.000    2.857    0.000    2.571    0.000    4.286 
#    0.000    2.857    0.000    5.571    0.000    7.000 
#    0.000    0.000    0.000    0.000    0.000    0.000 
#
# Total GULP energy -2081863.114581 kJ/mol
# GULP energy per Si atom -12392.042349 kJ/mol
# Density = 1.359124 g / cm^3
# Si number density = 13.622244 Si / 1000 Ang^3
#
#
#
# Elastic Constant Matrix: (Units=GPa)
#
#
# Indices 1 2 3 4 5 6 
#
# 1 78.4164 46.1367 44.5713 0.0000 0.0000 0.0000
# 2 46.1367 78.4164 44.5713 0.0000 0.0000 0.0000
# 3 44.5713 44.5713 69.0116 0.0000 0.0000 0.0000
# 4 0.0000 0.0000 0.0000 19.5115 0.0000 0.0000
# 5 0.0000 0.0000 0.0000 0.0000 19.5115 0.0000
# 6 0.0000 0.0000 0.0000 0.0000 0.0000 16.1398
#
#
#
# Elastic Compliance Matrix: (Units=1/GPa)
#
#
# Indices 1 2 3 4 5 6 
#
# 1 0.022955 -0.008025 -0.009642 0.000000 0.000000 0.000000
# 2 -0.008025 0.022955 -0.009642 0.000000 0.000000 0.000000
# 3 -0.009642 -0.009642 0.026946 0.000000 0.000000 0.000000
# 4 0.000000 0.000000 0.000000 0.051252 0.000000 0.000000
# 5 0.000000 0.000000 0.000000 0.000000 0.051252 0.000000
# 6 0.000000 0.000000 0.000000 0.000000 0.000000 0.061959
#
#
# Mechanical properties :
#
#
# Convention : Reuss Voigt Hill
#
# Bulk Modulus (GPa) = 54.83863 55.15591 54.99727
# Shear Modulus (GPa) = 16.77770 17.07023 16.92396
#
# Velocity S-wave (km/s) = 3.51328 3.54378 3.52856
# Velocity P-wave (km/s) = 7.53668 7.57113 7.55392
#
# Compressibility (1/GPa) = 0.01823532
#
# Stress axis : x y z
#
# Youngs Moduli (GPa) = 43.56437 43.56437 37.11186
#
# Poissons Ratio (x) = 0.34959 0.35785
# Poissons Ratio (y) = 0.34959 0.35785
# Poissons Ratio (z) = 0.42007 0.42007
#
# Static dielectric constant tensor:
#      x y z
#    x 2.675980 0.000000 0.000000 
#    y 0.000000 2.675980 0.000000 
#    z 0.000000 0.000000 2.791750 
# 
# 
# High freq. dielectric constant tensor:
#      x y z
#    x 1.501890 0.000000 0.000000 
#    y 0.000000 1.501890 0.000000 
#    z 0.000000 0.000000 1.512980 
# 
# From -- ./inp_files/10078.got.cif
#   From: 2010.03.12/outbox.cif.g09.slc.cpg/sg191_6_cif.got.tgz:10078.got - 2010.04.01 12:09:02.
