data_PCOD8328400
_publ_section_title
;
Structure prediction by ZEFSAII (Michael W. Deem and Ramdas Pophale) SiO2 
 PCOD8328400
Probable space group: P 6/M M M
;
_chemical_formula_sum "Si O2"
_cell_formula_units_Z 84
_cell_length_a 22.372246
_cell_length_b 22.372246
_cell_length_c 12.682369
_cell_angle_alpha 90.000000
_cell_angle_beta 90.000000
_cell_angle_gamma 120.000000
_cell_volume 5497.309505
_symmetry_space_group_name_H-M "P 6/M M M"
_symmetry_group_IT_number 191
_symmetry_cell_setting 'hexagonal'
loop_
_space_group_symop_operation_xyz
x,y,z
x-y,x,z
-y,x-y,z
-x,-y,z
-x+y,-x,z
y,-x+y,z
x-y,-y,-z
-x,-x+y,-z
y,x,-z
-y,-x,-z
-x+y,y,-z
x,x-y,-z
-x,-y,-z
-x+y,-x,-z
y,-x+y,-z
x,y,-z
x-y,x,-z
-y,x-y,-z
-x+y,y,z
x,x-y,z
-y,-x,z
y,x,z
x-y,-y,z
-x,-x+y,z
loop_
_atom_site_type_symbol
_atom_site_label
_atom_site_fract_x
_atom_site_fract_y
_atom_site_fract_z
Si Si1 0.333730 0.530475 0.875268
Si Si2 0.215062 0.925023 0.000000
Si Si3 0.077272 0.787735 0.379998
Si Si4 0.122826 0.385132 0.192465
O O1 0.271915 0.543830 0.841282
O O2 0.404964 0.595037 0.836188
O O3 0.327914 0.461906 0.820779
O O4 0.332736 0.520408 0.000000
O O5 0.257255 0.924003 0.898278
O O6 0.134945 0.865056 0.000000
O O7 0.219982 0.000000 0.000000
O O8 0.086759 0.770559 0.500000
O O9 0.132089 0.867912 0.352598
O O10 0.090400 0.736744 0.306375
O O11 0.000000 0.774612 0.361683
O O12 0.197819 0.395638 0.177591
#
# Coordination Sequence:
#
# PCOD8328400 Si02
#       4
#    24  12  24  24
#     4   9  15  24  40  63  90 116 142 173 212 255
#     4  10  18  28  43  62  83 107 135 167 205 247
#     4   9  17  29  46  66  85 107 138 175 211 247
#     4   9  16  27  42  62  86 112 140 171 206 245
#
# _framework density 15.280201999999999
#
# number of rings (size 3 to 8) (size 9 to 14) (size 15 to 20)
#    0.000    2.857    1.429    1.143    0.000    1.143 
#    0.000    0.000    0.000    5.571    0.000    4.000 
#    0.000    9.143    0.000    0.286    0.000    0.571 
#
# Total GULP energy -1040959.297012 kJ/mol
# GULP energy per Si atom -12392.372583 kJ/mol
# Density = 1.524542 g / cm^3
# Si number density = 15.280202 Si / 1000 Ang^3
#
#
#
# Elastic Constant Matrix: (Units=GPa)
#
#
# Indices 1 2 3 4 5 6 
#
# 1 98.0753 59.4495 39.3248 0.0000 0.0000 0.0000
# 2 59.4495 98.0753 39.3248 0.0000 0.0000 0.0000
# 3 39.3248 39.3248 75.6176 0.0000 0.0000 0.0000
# 4 0.0000 0.0000 0.0000 16.8236 0.0000 0.0000
# 5 0.0000 0.0000 0.0000 0.0000 16.8236 0.0000
# 6 0.0000 0.0000 0.0000 0.0000 0.0000 19.3129
#
#
#
# Elastic Compliance Matrix: (Units=1/GPa)
#
#
# Indices 1 2 3 4 5 6 
#
# 1 0.017232 -0.008657 -0.004459 0.000000 0.000000 0.000000
# 2 -0.008657 0.017232 -0.004459 0.000000 0.000000 0.000000
# 3 -0.004459 -0.004459 0.017862 0.000000 0.000000 0.000000
# 4 0.000000 0.000000 0.000000 0.059440 0.000000 0.000000
# 5 0.000000 0.000000 0.000000 0.000000 0.059440 0.000000
# 6 0.000000 0.000000 0.000000 0.000000 0.000000 0.051779
#
#
# Mechanical properties :
#
#
# Convention : Reuss Voigt Hill
#
# Bulk Modulus (GPa) = 58.22477 60.88516 59.55496
# Shear Modulus (GPa) = 18.94927 19.50330 19.22628
#
# Velocity S-wave (km/s) = 3.52535 3.57652 3.55103
# Velocity P-wave (km/s) = 7.39988 7.54901 7.47482
#
# Compressibility (1/GPa) = 0.01717482
#
# Stress axis : x y z
#
# Youngs Moduli (GPa) = 58.03143 58.03143 55.98332
#
# Poissons Ratio (x) = 0.50240 0.24964
# Poissons Ratio (y) = 0.50240 0.24964
# Poissons Ratio (z) = 0.25878 0.25878
#
# Static dielectric constant tensor:
#      x y z
#    x 2.923710 0.000000 0.000000 
#    y 0.000000 2.923710 0.000000 
#    z 0.000000 0.000000 2.921660 
# 
# 
# High freq. dielectric constant tensor:
#      x y z
#    x 1.570460 0.000000 0.000000 
#    y 0.000000 1.570460 0.000000 
#    z 0.000000 0.000000 1.574870 
# 
# From -- ./inp_files/2438.got.cif
#   From: 2010.03.12/outbox.cif.g09.slc.cpg/sg191_2_cif.got.tgz:2438.got - 2010.04.01 12:09:02.
