data_PCOD8328858
_publ_section_title
;
Structure prediction by ZEFSAII (Michael W. Deem and Ramdas Pophale) SiO2 
 PCOD8328858
Probable space group: P 6/M M M
;
_chemical_formula_sum "Si O2"
_cell_formula_units_Z 144
_cell_length_a 20.966040
_cell_length_b 20.966040
_cell_length_c 22.321740
_cell_angle_alpha 90.000000
_cell_angle_beta 90.000000
_cell_angle_gamma 120.000000
_cell_volume 8497.506334
_symmetry_space_group_name_H-M "P 6/M M M"
_symmetry_group_IT_number 191
_symmetry_cell_setting 'hexagonal'
loop_
_space_group_symop_operation_xyz
x,y,z
x-y,x,z
-y,x-y,z
-x,-y,z
-x+y,-x,z
y,-x+y,z
x-y,-y,-z
-x,-x+y,-z
y,x,-z
-y,-x,-z
-x+y,y,-z
x,x-y,-z
-x,-y,-z
-x+y,-x,-z
y,-x+y,-z
x,y,-z
x-y,x,-z
-y,x-y,-z
-x+y,y,z
x,x-y,z
-y,-x,z
y,x,z
x-y,-y,z
-x,-x+y,z
loop_
_atom_site_type_symbol
_atom_site_label
_atom_site_fract_x
_atom_site_fract_y
_atom_site_fract_z
Si Si1 0.541342 0.082683 0.929565
Si Si2 0.226767 0.915611 0.697171
Si Si3 0.556881 0.708104 0.932929
Si Si4 0.333655 0.809531 0.765952
Si Si5 0.467007 0.305394 0.637591
Si Si6 0.542160 0.457841 0.429178
Si Si7 0.621491 0.916426 0.181348
O O1 0.626691 0.129261 0.910267
O O2 0.500000 0.000000 0.901298
O O3 0.537253 0.074505 0.000000
O O4 0.140848 0.859153 0.681063
O O5 0.279253 0.895941 0.657918
O O6 0.235199 0.904678 0.768028
O O7 0.248742 0.000000 0.683212
O O8 0.520384 0.760192 0.933658
O O9 0.622625 0.741131 0.883400
O O10 0.587096 0.706893 0.000000
O O11 0.397613 0.795226 0.788073
O O12 0.255985 0.744016 0.789544
O O13 0.334900 0.814219 0.694316
O O14 0.345137 0.883891 0.794819
O O15 0.469873 0.234937 0.609692
O O16 0.497068 0.372679 0.591315
O O17 0.500000 0.500000 0.405203
O O18 0.543050 0.456951 0.500000
O O19 0.648766 0.000000 0.169060
#
# Coordination Sequence:
#
# PCOD8328858 Si02
#       7
#    12  24  24  24  24  12  24
#     4   9  18  32  47  63  83 111 148 186 227 283
#     4   9  17  31  52  75  99 126 158 200 246 292
#     4  10  20  34  49  65  87 116 151 195 245 295
#     4  10  19  32  49  69  91 118 150 200 252 296
#     4   9  18  34  51  70  96 129 170 211 249 293
#     4  11  22  34  49  73 105 139 175 215 255 291
#     4  10  20  32  47  68  92 118 155 197 237 288
#
# _framework density 16.946148000000001
#
# number of rings (size 3 to 8) (size 9 to 14) (size 15 to 20)
#    0.000    2.333    0.833    3.667    1.167    2.333 
#    1.000    0.000    0.000    0.167    0.000    0.000 
#    0.000    0.000    0.000    0.000    0.000    0.000 
#
# Total GULP energy -1784292.918090 kJ/mol
# GULP energy per Si atom -12390.923042 kJ/mol
# Density = 1.690758 g / cm^3
# Si number density = 16.946148 Si / 1000 Ang^3
#
#
#
# Elastic Constant Matrix: (Units=GPa)
#
#
# Indices 1 2 3 4 5 6 
#
# 1 103.1144 57.1586 23.7250 0.0000 0.0000 0.0000
# 2 57.1586 103.1144 23.7250 0.0000 0.0000 0.0000
# 3 23.7250 23.7250 58.6284 0.0000 0.0000 0.0000
# 4 0.0000 0.0000 0.0000 17.6343 0.0000 0.0000
# 5 0.0000 0.0000 0.0000 0.0000 17.6343 0.0000
# 6 0.0000 0.0000 0.0000 0.0000 0.0000 22.9779
#
#
#
# Elastic Compliance Matrix: (Units=1/GPa)
#
#
# Indices 1 2 3 4 5 6 
#
# 1 0.014424 -0.007336 -0.002869 0.000000 0.000000 0.000000
# 2 -0.007336 0.014424 -0.002869 0.000000 0.000000 0.000000
# 3 -0.002869 -0.002869 0.019378 0.000000 0.000000 0.000000
# 4 0.000000 0.000000 0.000000 0.056708 0.000000 0.000000
# 5 0.000000 0.000000 0.000000 0.000000 0.056708 0.000000
# 6 0.000000 0.000000 0.000000 0.000000 0.000000 0.043520
#
#
# Mechanical properties :
#
#
# Convention : Reuss Voigt Hill
#
# Bulk Modulus (GPa) = 45.28726 52.67495 48.98111
# Shear Modulus (GPa) = 20.94956 22.33252 21.64104
#
# Velocity S-wave (km/s) = 3.51984 3.63416 3.57746
# Velocity P-wave (km/s) = 6.58037 6.98289 6.78461
#
# Compressibility (1/GPa) = 0.02208127
#
# Stress axis : x y z
#
# Youngs Moduli (GPa) = 69.32730 69.32730 51.60442
#
# Poissons Ratio (x) = 0.50857 0.14803
# Poissons Ratio (y) = 0.50857 0.14803
# Poissons Ratio (z) = 0.19887 0.19887
#
# Static dielectric constant tensor:
#      x y z
#    x 3.126880 0.000000 0.000000 
#    y 0.000000 3.126880 0.000000 
#    z 0.000000 0.000000 3.112880 
# 
# 
# High freq. dielectric constant tensor:
#      x y z
#    x 1.637020 0.000000 0.000000 
#    y 0.000000 1.637020 0.000000 
#    z 0.000000 0.000000 1.646890 
# 
# From -- ./inp_files/8938.got.cif
#   From: 2010.03.12/outbox.cif.g09.slc.cpg/sg191_5_cif.got.tgz:8938.got - 2010.04.01 12:09:02.
