data_PCOD8328432
_publ_section_title
;
Structure prediction by ZEFSAII (Michael W. Deem and Ramdas Pophale) SiO2 
 PCOD8328432
Probable space group: P 6/M M M
;
_chemical_formula_sum "Si O2"
_cell_formula_units_Z 168
_cell_length_a 23.460514
_cell_length_b 23.460514
_cell_length_c 20.373932
_cell_angle_alpha 90.000000
_cell_angle_beta 90.000000
_cell_angle_gamma 120.000000
_cell_volume 9711.370647
_symmetry_space_group_name_H-M "P 6/M M M"
_symmetry_group_IT_number 191
_symmetry_cell_setting 'hexagonal'
loop_
_space_group_symop_operation_xyz
x,y,z
x-y,x,z
-y,x-y,z
-x,-y,z
-x+y,-x,z
y,-x+y,z
x-y,-y,-z
-x,-x+y,-z
y,x,-z
-y,-x,-z
-x+y,y,-z
x,x-y,-z
-x,-y,-z
-x+y,-x,-z
y,-x+y,-z
x,y,-z
x-y,x,-z
-y,x-y,-z
-x+y,y,z
x,x-y,z
-y,-x,z
y,x,z
x-y,-y,z
-x,-x+y,z
loop_
_atom_site_type_symbol
_atom_site_label
_atom_site_fract_x
_atom_site_fract_y
_atom_site_fract_z
Si Si1 0.605660 0.735529 0.926830
Si Si2 0.718099 0.924709 0.825614
Si Si3 0.334660 0.794732 0.400308
Si Si4 0.605425 0.869838 0.571900
Si Si5 0.073687 0.360625 0.291036
Si Si6 0.814569 0.312314 0.740884
Si Si7 0.335109 0.797880 0.116527
O O1 0.601079 0.800540 0.922210
O O2 0.661596 0.743288 0.876074
O O3 0.532526 0.675557 0.910022
O O4 0.625324 0.724928 0.000000
O O5 0.740973 0.870487 0.840124
O O6 0.688096 0.911322 0.752227
O O7 0.779700 0.000000 0.832034
O O8 0.402235 0.804469 0.430819
O O9 0.274951 0.725050 0.424598
O O10 0.323976 0.854057 0.424550
O O11 0.341210 0.796068 0.321465
O O12 0.634605 0.901436 0.500000
O O13 0.604388 0.802194 0.581856
O O14 0.648190 0.916224 0.631545
O O15 0.113739 0.435056 0.266451
O O16 0.000000 0.343446 0.279684
O O17 0.766390 0.233611 0.745211
O O18 0.807032 0.346396 0.805394
O O19 0.401736 0.803472 0.086320
O O20 0.273512 0.726489 0.098163
#
# Coordination Sequence:
#
# PCOD8328432 Si02
#       7
#    24  24  24  24  24  24  24
#     4   9  18  32  49  70  99 135 170 204 245 291
#     4  10  19  33  56  83 107 131 164 203 239 279
#     4   9  16  25  40  61  84 109 143 190 244 299
#     4   9  18  31  45  62  88 121 152 184 231 290
#     4  10  18  29  50  73  92 117 154 198 239 279
#     4   9  16  28  44  62  88 120 154 194 243 298
#     4  10  18  28  45  68  96 128 166 212 263 314
#
# _framework density 17.299308
#
# number of rings (size 3 to 8) (size 9 to 14) (size 15 to 20)
#    0.000    2.571    1.429    2.857    0.000    1.143 
#    0.000    1.429    0.000   13.857    0.000    5.000 
#    0.000    0.000    0.000    3.571    0.000    0.000 
#
# Total GULP energy -2081862.962141 kJ/mol
# GULP energy per Si atom -12392.041441 kJ/mol
# Density = 1.725993 g / cm^3
# Si number density = 17.299308 Si / 1000 Ang^3
#
#
#
# Elastic Constant Matrix: (Units=GPa)
#
#
# Indices 1 2 3 4 5 6 
#
# 1 73.7436 36.7245 19.6468 0.0000 0.0000 0.0000
# 2 36.7245 73.7436 19.6468 0.0000 0.0000 0.0000
# 3 19.6468 19.6468 91.9167 0.0000 0.0000 0.0000
# 4 0.0000 0.0000 0.0000 9.9733 0.0000 0.0000
# 5 0.0000 0.0000 0.0000 0.0000 9.9733 0.0000
# 6 0.0000 0.0000 0.0000 0.0000 0.0000 18.5096
#
#
#
# Elastic Compliance Matrix: (Units=1/GPa)
#
#
# Indices 1 2 3 4 5 6 
#
# 1 0.018405 -0.008608 -0.002094 0.000000 0.000000 0.000000
# 2 -0.008608 0.018405 -0.002094 0.000000 0.000000 0.000000
# 3 -0.002094 -0.002094 0.011775 0.000000 0.000000 0.000000
# 4 0.000000 0.000000 0.000000 0.100268 0.000000 0.000000
# 5 0.000000 0.000000 0.000000 0.000000 0.100268 0.000000
# 6 0.000000 0.000000 0.000000 0.000000 0.000000 0.054026
#
#
# Mechanical properties :
#
#
# Convention : Reuss Voigt Hill
#
# Bulk Modulus (GPa) = 43.49209 43.49333 43.49271
# Shear Modulus (GPa) = 14.86309 18.58361 16.72335
#
# Velocity S-wave (km/s) = 2.93434 3.28112 3.11256
# Velocity P-wave (km/s) = 6.05607 6.28892 6.17360
#
# Compressibility (1/GPa) = 0.02299269
#
# Stress axis : x y z
#
# Youngs Moduli (GPa) = 54.33255 54.33255 84.92837
#
# Poissons Ratio (x) = 0.46769 0.17785
# Poissons Ratio (y) = 0.46769 0.17785
# Poissons Ratio (z) = 0.11378 0.11378
#
# Static dielectric constant tensor:
#      x y z
#    x 2.930810 0.000000 0.000000 
#    y 0.000000 2.930810 0.000000 
#    z 0.000000 0.000000 3.495550 
# 
# 
# High freq. dielectric constant tensor:
#      x y z
#    x 1.633160 0.000000 0.000000 
#    y 0.000000 1.633160 0.000000 
#    z 0.000000 0.000000 1.683660 
# 
# From -- ./inp_files/7911.got.cif
#   From: 2010.03.12/outbox.cif.g09.slc.cpg/sg191_4_cif.got.tgz:7911.got - 2010.04.01 12:09:02.
