data_PCOD8328864
_publ_section_title
;
Structure prediction by ZEFSAII (Michael W. Deem and Ramdas Pophale) SiO2 
 PCOD8328864
Probable space group: P 6/M M M
;
_chemical_formula_sum "Si O2"
_cell_formula_units_Z 108
_cell_length_a 30.181385
_cell_length_b 30.181385
_cell_length_c 7.765136
_cell_angle_alpha 90.000000
_cell_angle_beta 90.000000
_cell_angle_gamma 120.000000
_cell_volume 6125.732511
_symmetry_space_group_name_H-M "P 6/M M M"
_symmetry_group_IT_number 191
_symmetry_cell_setting 'hexagonal'
loop_
_space_group_symop_operation_xyz
x,y,z
x-y,x,z
-y,x-y,z
-x,-y,z
-x+y,-x,z
y,-x+y,z
x-y,-y,-z
-x,-x+y,-z
y,x,-z
-y,-x,-z
-x+y,y,-z
x,x-y,-z
-x,-y,-z
-x+y,-x,-z
y,-x+y,-z
x,y,-z
x-y,x,-z
-y,x-y,-z
-x+y,y,z
x,x-y,z
-y,-x,z
y,x,z
x-y,-y,z
-x,-x+y,z
loop_
_atom_site_type_symbol
_atom_site_label
_atom_site_fract_x
_atom_site_fract_y
_atom_site_fract_z
Si Si1 0.514408 0.705545 0.799584
Si Si2 0.000000 0.812256 0.300272
Si Si3 0.779915 0.889958 0.806667
Si Si4 0.000000 0.708710 0.206838
Si Si5 0.437366 0.770253 0.500000
Si Si6 0.835197 0.670394 0.693569
Si Si7 0.379805 0.103339 0.194448
O O1 0.528777 0.764389 0.780861
O O2 0.467779 0.669872 0.674425
O O3 0.563185 0.701712 0.728677
O O4 0.500638 0.688030 0.000000
O O5 0.950814 0.812546 0.221894
O O6 0.000000 0.759403 0.267809
O O7 0.000000 0.821169 0.500000
O O8 0.731623 0.865812 0.679380
O O9 0.758651 0.879326 0.000000
O O10 0.951567 0.656889 0.283591
O O11 0.000000 0.709692 0.000000
O O12 0.386468 0.772936 0.500000
O O13 0.423121 0.711561 0.500000
O O14 0.823929 0.647858 0.500000
O O15 0.867372 0.651572 0.800075
O O16 0.388487 0.093096 0.000000
#
# Coordination Sequence:
#
# PCOD8328864 Si02
#       7
#    24  12  12  12  12  12  24
#     4   9  18  32  52  77 105 140 180 221 266 319
#     4  12  24  38  54  79 105 132 177 229 271 319
#     4  12  24  40  56  73 103 146 182 214 270 338
#     4  10  20  32  50  74 107 146 178 211 259 322
#     4  10  21  36  56  81 111 141 175 216 263 317
#     4  12  22  28  48  76 105 141 180 222 262 308
#     4  10  19  32  49  73 106 144 181 216 260 315
#
# _framework density 17.630545000000001
#
# number of rings (size 3 to 8) (size 9 to 14) (size 15 to 20)
#    0.000    1.556    3.333    3.111    1.556    0.444 
#    0.000    0.000    0.000    1.556    0.000    3.111 
#    0.000    4.444    0.000    0.000    0.000    0.000 
#
# Total GULP energy -1338427.177919 kJ/mol
# GULP energy per Si atom -12392.844240 kJ/mol
# Density = 1.759042 g / cm^3
# Si number density = 17.630545 Si / 1000 Ang^3
#
#
#
# Elastic Constant Matrix: (Units=GPa)
#
#
# Indices 1 2 3 4 5 6 
#
# 1 127.3159 65.8978 30.6547 0.0000 0.0000 0.0000
# 2 65.8978 127.3159 30.6547 0.0000 0.0000 0.0000
# 3 30.6547 30.6547 73.2434 0.0000 0.0000 0.0000
# 4 0.0000 0.0000 0.0000 18.0600 0.0000 0.0000
# 5 0.0000 0.0000 0.0000 0.0000 18.0600 0.0000
# 6 0.0000 0.0000 0.0000 0.0000 0.0000 30.7091
#
#
#
# Elastic Compliance Matrix: (Units=1/GPa)
#
#
# Indices 1 2 3 4 5 6 
#
# 1 0.011125 -0.005157 -0.002498 0.000000 0.000000 0.000000
# 2 -0.005157 0.011125 -0.002498 0.000000 0.000000 0.000000
# 3 -0.002498 -0.002498 0.015744 0.000000 0.000000 0.000000
# 4 0.000000 0.000000 0.000000 0.055371 0.000000 0.000000
# 5 0.000000 0.000000 0.000000 0.000000 0.055371 0.000000
# 6 0.000000 0.000000 0.000000 0.000000 0.000000 0.032564
#
#
# Mechanical properties :
#
#
# Convention : Reuss Voigt Hill
#
# Bulk Modulus (GPa) = 56.53266 64.69884 60.61575
# Shear Modulus (GPa) = 24.09626 26.74370 25.41998
#
# Velocity S-wave (km/s) = 3.70095 3.89896 3.80124
# Velocity P-wave (km/s) = 7.09912 7.55287 7.32951
#
# Compressibility (1/GPa) = 0.01768889
#
# Stress axis : x y z
#
# Youngs Moduli (GPa) = 89.88741 89.88741 63.51620
#
# Poissons Ratio (x) = 0.46353 0.15866
# Poissons Ratio (y) = 0.46353 0.15866
# Poissons Ratio (z) = 0.22453 0.22453
#
# Static dielectric constant tensor:
#      x y z
#    x 3.293380 0.000000 0.000000 
#    y 0.000000 3.293380 0.000000 
#    z 0.000000 0.000000 3.313840 
# 
# 
# High freq. dielectric constant tensor:
#      x y z
#    x 1.659530 0.000000 0.000000 
#    y 0.000000 1.659530 0.000000 
#    z 0.000000 0.000000 1.688770 
# 
# From -- ./inp_files/1810.got.cif
#   From: 2010.03.12/outbox.cif.g09.slc.cpg/sg191_1_cif.got.tgz:1810.got - 2010.04.01 12:09:02.
