data_PCOD8328157
_publ_section_title
;
Structure prediction by ZEFSAII (Michael W. Deem and Ramdas Pophale) SiO2 
 PCOD8328157
Probable space group: P -6 2 C
;
_chemical_formula_sum "Si O2"
_cell_formula_units_Z 58
_cell_length_a 15.566042
_cell_length_b 15.566042
_cell_length_c 13.356865
_cell_angle_alpha 90.000000
_cell_angle_beta 90.000000
_cell_angle_gamma 120.000000
_cell_volume 2802.796484
_symmetry_space_group_name_H-M "P -6 2 C"
_symmetry_group_IT_number 190
_symmetry_cell_setting 'hexagonal'
loop_
_space_group_symop_operation_xyz
x,y,z
-x+y,-x,1/2-z
-y,x-y,z
x,y,1/2-z
-x+y,-x,z
-y,x-y,1/2-z
x-y,-y,-z
-x,-x+y,-z
y,x,-z
y,x,1/2+z
x-y,-y,1/2+z
-x,-x+y,1/2+z
loop_
_atom_site_type_symbol
_atom_site_label
_atom_site_fract_x
_atom_site_fract_y
_atom_site_fract_z
Si Si1 0.887207 0.116990 0.358095
Si Si2 0.000000 0.000000 0.385244
Si Si3 0.855325 0.344439 0.562857
Si Si4 0.394226 0.064595 0.136829
Si Si5 0.677887 0.149034 0.633403
Si Si6 0.000000 0.705911 0.500000
O O1 0.833091 0.096075 0.250000
O O2 0.951617 0.235202 0.375954
O O3 0.806407 0.074689 0.444148
O O4 0.961169 0.073114 0.350854
O O5 0.000000 0.000000 0.500000
O O6 0.854531 0.323337 0.443568
O O7 0.785757 0.243866 0.621618
O O8 0.821682 0.425066 0.580418
O O9 0.962535 0.389474 0.612403
O O10 0.434950 0.099152 0.250000
O O11 0.652386 0.123380 0.750000
O O12 0.673279 0.054943 0.579379
#
# Coordination Sequence:
#
# PCOD8328157 Si02
#       6
#    12   4  12  12  12   6
#     4  11  24  41  63  93 135 181 223 268 321 381
#     4  12  25  38  61  97 143 187 229 272 322 370
#     4  11  24  43  68  97 128 166 216 269 323 393
#     4  10  22  43  68  93 127 174 218 262 322 388
#     4  12  25  43  68  97 129 165 213 273 333 390
#     4  12  24  42  62 100 130 166 214 274 324 394
#
# _framework density 20.693619000000002
#
# number of rings (size 3 to 8) (size 9 to 14) (size 15 to 20)
#    0.000    0.828    3.103    4.759    5.793    0.000 
#    0.000    2.069    0.000    0.000    0.000    0.000 
#    0.000    0.000    0.000    0.000    0.000    0.000 
#
# Total GULP energy -719188.533088 kJ/mol
# GULP energy per Si atom -12399.802295 kJ/mol
# Density = 2.064652 g / cm^3
# Si number density = 20.693619 Si / 1000 Ang^3
#
#
#
# Elastic Constant Matrix: (Units=GPa)
#
#
# Indices 1 2 3 4 5 6 
#
# 1 73.7571 5.1326 34.1428 0.0000 0.0000 0.0000
# 2 5.1326 73.7571 34.1428 0.0000 0.0000 0.0000
# 3 34.1428 34.1428 171.4551 0.0000 0.0000 0.0000
# 4 0.0000 0.0000 0.0000 17.9319 0.0000 0.0000
# 5 0.0000 0.0000 0.0000 0.0000 17.9319 0.0000
# 6 0.0000 0.0000 0.0000 0.0000 0.0000 34.3123
#
#
#
# Elastic Compliance Matrix: (Units=1/GPa)
#
#
# Indices 1 2 3 4 5 6 
#
# 1 0.014944 0.000372 -0.003050 0.000000 0.000000 0.000000
# 2 0.000372 0.014944 -0.003050 0.000000 0.000000 0.000000
# 3 -0.003050 -0.003050 0.007047 0.000000 0.000000 0.000000
# 4 0.000000 0.000000 0.000000 0.055766 0.000000 0.000000
# 5 0.000000 0.000000 0.000000 0.000000 0.055766 0.000000
# 6 0.000000 0.000000 0.000000 0.000000 0.000000 0.029144
#
#
# Mechanical properties :
#
#
# Convention : Reuss Voigt Hill
#
# Bulk Modulus (GPa) = 39.24775 51.75619 45.50197
# Shear Modulus (GPa) = 25.30864 30.40530 27.85697
#
# Velocity S-wave (km/s) = 3.50096 3.83731 3.67299
# Velocity P-wave (km/s) = 5.94555 6.68568 6.32645
#
# Compressibility (1/GPa) = 0.02547917
#
# Stress axis : x y z
#
# Youngs Moduli (GPa) = 66.91661 66.91661 141.90169
#
# Poissons Ratio (x) = -0.02489 0.43279
# Poissons Ratio (y) = -0.02489 0.43279
# Poissons Ratio (z) = 0.20409 0.20409
#
# Static dielectric constant tensor:
#      x y z
#    x 3.647000 0.000000 0.000000 
#    y 0.000000 3.647000 0.000000 
#    z 0.000000 0.000000 4.179060 
# 
# 
# High freq. dielectric constant tensor:
#      x y z
#    x 1.803800 0.000000 0.000000 
#    y 0.000000 1.803800 0.000000 
#    z 0.000000 0.000000 1.834620 
# 
# From -- ./inp_files/2881.got.cif
#   From: 2010.06.25/outbox.cif.g09.slc.cpg/sg190_2_cif.got.tgz:2881.got - 2010.06.28 13:08:06.
