data_PCOD8328625
_publ_section_title
;
Structure prediction by ZEFSAII (Michael W. Deem and Ramdas Pophale) SiO2 
 PCOD8328625
Probable space group: P 6/M M M
;
_chemical_formula_sum "Si O2"
_cell_formula_units_Z 192
_cell_length_a 22.437669
_cell_length_b 22.437669
_cell_length_c 28.524782
_cell_angle_alpha 90.000000
_cell_angle_beta 90.000000
_cell_angle_gamma 120.000000
_cell_volume 12436.793969
_symmetry_space_group_name_H-M "P 6/M M M"
_symmetry_group_IT_number 191
_symmetry_cell_setting 'hexagonal'
loop_
_space_group_symop_operation_xyz
x,y,z
x-y,x,z
-y,x-y,z
-x,-y,z
-x+y,-x,z
y,-x+y,z
x-y,-y,-z
-x,-x+y,-z
y,x,-z
-y,-x,-z
-x+y,y,-z
x,x-y,-z
-x,-y,-z
-x+y,-x,-z
y,-x+y,-z
x,y,-z
x-y,x,-z
-y,x-y,-z
-x+y,y,z
x,x-y,z
-y,-x,z
y,x,z
x-y,-y,z
-x,-x+y,z
loop_
_atom_site_type_symbol
_atom_site_label
_atom_site_fract_x
_atom_site_fract_y
_atom_site_fract_z
Si Si1 0.921062 0.391942 0.446907
Si Si2 0.290077 0.078717 0.052764
Si Si3 0.807513 0.333912 0.275545
Si Si4 0.077594 0.786291 0.324768
Si Si5 0.919610 0.633382 0.862180
Si Si6 0.712138 0.150129 0.365764
Si Si7 0.279375 0.203263 0.218488
Si Si8 0.392430 0.920561 0.803192
O O1 0.910024 0.363727 0.500000
O O2 0.899482 0.449741 0.442995
O O3 0.873295 0.330518 0.413084
O O4 0.000000 0.423181 0.431734
O O5 0.257568 0.128784 0.058406
O O6 0.356230 0.107527 0.087714
O O7 0.230907 0.000000 0.064073
O O8 0.318299 0.083585 0.000000
O O9 0.788127 0.394064 0.276565
O O10 0.738799 0.261202 0.263907
O O11 0.840039 0.331759 0.325141
O O12 0.867262 0.350492 0.237920
O O13 0.133635 0.866366 0.336479
O O14 0.094509 0.734290 0.351992
O O15 0.080892 0.770327 0.269997
O O16 0.000000 0.769292 0.338154
O O17 0.892336 0.658180 0.818311
O O18 0.899856 0.555377 0.849885
O O19 0.000000 0.680919 0.864707
O O20 0.778087 0.221914 0.377458
O O21 0.241705 0.120853 0.216377
O O22 0.221238 0.221238 0.205039
O O23 0.457129 0.914257 0.818893
O O24 0.417258 0.000000 0.787369
#
# Coordination Sequence:
#
# PCOD8328625 Si02
#       8
#    24  24  24  24  24  24  24  24
#     4   9  18  32  48  64  82 106 137 173 211 249
#     4   9  17  28  42  61  85 113 145 181 219 256
#     4  10  20  32  45  63  89 120 150 178 210 251
#     4   9  17  28  42  62  88 114 140 173 213 256
#     4   9  16  26  41  59  80 106 133 166 209 253
#     4  10  19  29  44  65  86 111 142 175 212 251
#     4   9  16  25  38  57  81 109 140 173 208 246
#     4   9  18  31  46  66  90 113 139 173 212 252
#
# _framework density 15.438062
#
# number of rings (size 3 to 8) (size 9 to 14) (size 15 to 20)
#    0.000    2.750    0.000    2.375    0.000    4.250 
#    0.000    1.250    0.000    1.000    0.000    5.250 
#    0.000    3.000    0.000    0.250    0.000    0.000 
#
# Total GULP energy -2378977.669990 kJ/mol
# GULP energy per Si atom -12390.508698 kJ/mol
# Density = 1.540292 g / cm^3
# Si number density = 15.438062 Si / 1000 Ang^3
#
#
#
# Elastic Constant Matrix: (Units=GPa)
#
#
# Indices 1 2 3 4 5 6 
#
# 1 82.4430 47.4392 47.4639 0.0000 0.0000 0.0000
# 2 47.4392 82.4430 47.4639 0.0000 0.0000 0.0000
# 3 47.4639 47.4639 87.7311 0.0000 0.0000 0.0000
# 4 0.0000 0.0000 0.0000 20.7393 0.0000 0.0000
# 5 0.0000 0.0000 0.0000 0.0000 20.7393 0.0000
# 6 0.0000 0.0000 0.0000 0.0000 0.0000 17.5019
#
#
#
# Elastic Compliance Matrix: (Units=1/GPa)
#
#
# Indices 1 2 3 4 5 6 
#
# 1 0.020652 -0.007917 -0.006890 0.000000 0.000000 0.000000
# 2 -0.007917 0.020652 -0.006890 0.000000 0.000000 0.000000
# 3 -0.006890 -0.006890 0.018853 0.000000 0.000000 0.000000
# 4 0.000000 0.000000 0.000000 0.048218 0.000000 0.000000
# 5 0.000000 0.000000 0.000000 0.000000 0.048218 0.000000
# 6 0.000000 0.000000 0.000000 0.000000 0.000000 0.057137
#
#
# Mechanical properties :
#
#
# Convention : Reuss Voigt Hill
#
# Bulk Modulus (GPa) = 59.65136 59.70568 59.67852
# Shear Modulus (GPa) = 19.03247 19.14611 19.08929
#
# Velocity S-wave (km/s) = 3.51497 3.52545 3.52022
# Velocity P-wave (km/s) = 7.42943 7.43842 7.43392
#
# Compressibility (1/GPa) = 0.01676408
#
# Stress axis : x y z
#
# Youngs Moduli (GPa) = 48.42238 48.42238 53.04091
#
# Poissons Ratio (x) = 0.38335 0.36544
# Poissons Ratio (y) = 0.38335 0.36544
# Poissons Ratio (z) = 0.33362 0.33362
#
# Static dielectric constant tensor:
#      x y z
#    x 2.975260 0.000000 0.000000 
#    y 0.000000 2.975260 0.000000 
#    z 0.000000 0.000000 3.046560 
# 
# 
# High freq. dielectric constant tensor:
#      x y z
#    x 1.585110 0.000000 0.000000 
#    y 0.000000 1.585110 0.000000 
#    z 0.000000 0.000000 1.581620 
# 
# From -- ./inp_files/10165.got.cif
#   From: 2010.03.12/outbox.cif.g09.slc.cpg/sg191_6_cif.got.tgz:10165.got - 2010.04.01 12:09:02.
