data_PCOD8328000
_publ_section_title
;
Structure prediction by ZEFSAII (Michael W. Deem and Ramdas Pophale) SiO2 
 PCOD8328000
Probable space group: P -6 2 C
;
_chemical_formula_sum "Si O2"
_cell_formula_units_Z 60
_cell_length_a 20.885382
_cell_length_b 20.885382
_cell_length_c 8.900122
_cell_angle_alpha 90.000000
_cell_angle_beta 90.000000
_cell_angle_gamma 120.000000
_cell_volume 3362.106278
_symmetry_space_group_name_H-M "P -6 2 C"
_symmetry_group_IT_number 190
_symmetry_cell_setting 'hexagonal'
loop_
_space_group_symop_operation_xyz
x,y,z
-x+y,-x,1/2-z
-y,x-y,z
x,y,1/2-z
-x+y,-x,z
-y,x-y,1/2-z
x-y,-y,-z
-x,-x+y,-z
y,x,-z
y,x,1/2+z
x-y,-y,1/2+z
-x,-x+y,1/2+z
loop_
_atom_site_type_symbol
_atom_site_label
_atom_site_fract_x
_atom_site_fract_y
_atom_site_fract_z
Si Si1 0.460490 0.540064 0.925294
Si Si2 0.919417 0.079756 0.571686
Si Si3 0.398984 0.320216 0.075790
Si Si4 0.834952 0.166974 0.924833
Si Si5 0.662947 0.583135 0.926799
O O1 0.479246 0.551798 0.750000
O O2 0.372357 0.487840 0.953083
O O3 0.620809 0.498805 0.994369
O O4 0.497095 0.497095 0.000000
O O5 0.925271 0.072486 0.750000
O O6 0.883931 0.130286 0.529701
O O7 0.000000 0.115688 0.500000
O O8 0.867627 0.000000 0.500000
O O9 0.380811 0.315592 0.250000
O O10 0.351839 0.351839 0.000000
O O11 0.373214 0.239915 0.015837
O O12 0.815723 0.155492 0.750000
O O13 0.877591 0.251988 0.972177
O O14 0.651659 0.579157 0.750000
O O15 0.628632 0.628632 0.000000
#
# Coordination Sequence:
#
# PCOD8328000 Si02
#       5
#    12  12  12  12  12
#     4   9  17  30  49  74  99 126 159 195 237 289
#     4  11  23  39  56  75 101 137 180 227 275 326
#     4  10  20  33  52  76 103 134 168 206 252 303
#     4  10  22  36  52  77 107 136 172 216 263 312
#     4  10  19  32  51  76 103 133 167 206 251 302
#
# _framework density 17.845956000000001
#
# number of rings (size 3 to 8) (size 9 to 14) (size 15 to 20)
#    0.000    2.000    0.000    5.000    0.000    7.200 
#    0.000    0.000    0.000    0.800    0.000    0.000 
#    0.000    0.000    0.000    0.000    0.000    0.000 
#
# Total GULP energy -743718.088796 kJ/mol
# GULP energy per Si atom -12395.301480 kJ/mol
# Density = 1.780534 g / cm^3
# Si number density = 17.845956 Si / 1000 Ang^3
#
#
#
# Elastic Constant Matrix: (Units=GPa)
#
#
# Indices 1 2 3 4 5 6 
#
# 1 99.2766 43.4267 52.3411 0.0000 0.0000 0.0000
# 2 43.4267 99.2766 52.3411 0.0000 0.0000 0.0000
# 3 52.3411 52.3411 87.0589 0.0000 0.0000 0.0000
# 4 0.0000 0.0000 0.0000 31.3311 0.0000 0.0000
# 5 0.0000 0.0000 0.0000 0.0000 31.3311 0.0000
# 6 0.0000 0.0000 0.0000 0.0000 0.0000 27.9250
#
#
#
# Elastic Compliance Matrix: (Units=1/GPa)
#
#
# Indices 1 2 3 4 5 6 
#
# 1 0.015221 -0.002684 -0.007537 0.000000 0.000000 0.000000
# 2 -0.002684 0.015221 -0.007537 0.000000 0.000000 0.000000
# 3 -0.007537 -0.007537 0.020549 0.000000 0.000000 0.000000
# 4 0.000000 0.000000 0.000000 0.031917 0.000000 0.000000
# 5 0.000000 0.000000 0.000000 0.000000 0.031917 0.000000
# 6 0.000000 0.000000 0.000000 0.000000 0.000000 0.035810
#
#
# Mechanical properties :
#
#
# Convention : Reuss Voigt Hill
#
# Bulk Modulus (GPa) = 64.62523 64.64779 64.63651
# Shear Modulus (GPa) = 26.13549 27.28433 26.70991
#
# Velocity S-wave (km/s) = 3.83104 3.91433 3.87291
# Velocity P-wave (km/s) = 7.47399 7.53216 7.50313
#
# Compressibility (1/GPa) = 0.01547383
#
# Stress axis : x y z
#
# Youngs Moduli (GPa) = 65.69941 65.69941 48.66324
#
# Poissons Ratio (x) = 0.17636 0.36678
# Poissons Ratio (y) = 0.17636 0.36678
# Poissons Ratio (z) = 0.49519 0.49519
#
# Static dielectric constant tensor:
#      x y z
#    x 3.689500 0.000000 0.000000 
#    y 0.000000 3.689500 0.000000 
#    z 0.000000 0.000000 3.441580 
# 
# 
# High freq. dielectric constant tensor:
#      x y z
#    x 1.684880 0.000000 0.000000 
#    y 0.000000 1.684880 0.000000 
#    z 0.000000 0.000000 1.707970 
# 
# From -- ./inp_files/2005.got.cif
#   From: 2010.06.25/outbox.cif.g09.slc.cpg/sg190_2_cif.got.tgz:2005.got - 2010.06.28 13:08:06.
