data_PCOD8328492
_publ_section_title
;
Structure prediction by ZEFSAII (Michael W. Deem and Ramdas Pophale) SiO2 
 PCOD8328492
Probable space group: P 6/M M M
;
_chemical_formula_sum "Si O2"
_cell_formula_units_Z 120
_cell_length_a 26.934911
_cell_length_b 26.934911
_cell_length_c 12.110259
_cell_angle_alpha 90.000000
_cell_angle_beta 90.000000
_cell_angle_gamma 120.000000
_cell_volume 7608.782203
_symmetry_space_group_name_H-M "P 6/M M M"
_symmetry_group_IT_number 191
_symmetry_cell_setting 'hexagonal'
loop_
_space_group_symop_operation_xyz
x,y,z
x-y,x,z
-y,x-y,z
-x,-y,z
-x+y,-x,z
y,-x+y,z
x-y,-y,-z
-x,-x+y,-z
y,x,-z
-y,-x,-z
-x+y,y,-z
x,x-y,-z
-x,-y,-z
-x+y,-x,-z
y,-x+y,-z
x,y,-z
x-y,x,-z
-y,x-y,-z
-x+y,y,z
x,x-y,z
-y,-x,z
y,x,z
x-y,-y,z
-x,-x+y,z
loop_
_atom_site_type_symbol
_atom_site_label
_atom_site_fract_x
_atom_site_fract_y
_atom_site_fract_z
Si Si1 0.449897 0.783347 0.774130
Si Si2 0.674985 0.068874 0.000000
Si Si3 0.634266 0.154422 0.000000
Si Si4 0.936292 0.172726 0.872964
Si Si5 0.123148 0.359886 0.804667
Si Si6 0.552862 0.834836 0.622095
O O1 0.391150 0.782300 0.749455
O O2 0.438389 0.719195 0.764214
O O3 0.496569 0.826165 0.685835
O O4 0.474705 0.807144 0.894851
O O5 0.713959 0.093886 0.106533
O O6 0.631719 0.093532 0.000000
O O7 0.640300 0.000000 0.000000
O O8 0.568542 0.137084 0.000000
O O9 0.895495 0.104506 0.857557
O O10 0.915226 0.206436 0.793634
O O11 0.000000 0.188111 0.839475
O O12 0.933641 0.190587 0.000000
O O13 0.188541 0.377081 0.838408
O O14 0.122813 0.389184 0.688911
O O15 0.556164 0.860974 0.500000
O O16 0.547461 0.773731 0.610385
#
# Coordination Sequence:
#
# PCOD8328492 Si02
#       6
#    24  12  12  24  24  24
#     4  10  19  31  49  72  99 125 156 195 240 291
#     4  12  21  30  49  73  94 116 151 197 243 290
#     4  10  21  34  47  67  91 124 158 190 244 297
#     4   9  16  26  42  67  98 127 156 193 239 287
#     4  10  18  29  47  71  98 124 154 191 239 289
#     4   9  18  31  47  67  92 126 164 197 230 278
#
# _framework density 15.771248999999999
#
# number of rings (size 3 to 8) (size 9 to 14) (size 15 to 20)
#    0.000    2.200    3.000    1.400    0.000    1.400 
#    0.000    1.000    0.000    3.800    0.000    1.400 
#    0.000    3.200    0.000    0.000    0.000    0.000 
#
# Total GULP energy -1487487.738172 kJ/mol
# GULP energy per Si atom -12395.731151 kJ/mol
# Density = 1.573535 g / cm^3
# Si number density = 15.771249 Si / 1000 Ang^3
#
#
#
# Elastic Constant Matrix: (Units=GPa)
#
#
# Indices 1 2 3 4 5 6 
#
# 1 96.7057 57.6166 47.3908 0.0000 0.0000 0.0000
# 2 57.6166 96.7057 47.3908 0.0000 0.0000 0.0000
# 3 47.3908 47.3908 109.7212 0.0000 0.0000 0.0000
# 4 0.0000 0.0000 0.0000 5.4697 0.0000 0.0000
# 5 0.0000 0.0000 0.0000 0.0000 5.4697 0.0000
# 6 0.0000 0.0000 0.0000 0.0000 0.0000 19.5445
#
#
#
# Elastic Compliance Matrix: (Units=1/GPa)
#
#
# Indices 1 2 3 4 5 6 
#
# 1 0.017201 -0.008382 -0.003809 0.000000 0.000000 0.000000
# 2 -0.008382 0.017201 -0.003809 0.000000 0.000000 0.000000
# 3 -0.003809 -0.003809 0.012405 0.000000 0.000000 0.000000
# 4 0.000000 0.000000 0.000000 0.182825 0.000000 0.000000
# 5 0.000000 0.000000 0.000000 0.000000 0.182825 0.000000
# 6 0.000000 0.000000 0.000000 0.000000 0.000000 0.051165
#
#
# Mechanical properties :
#
#
# Convention : Reuss Voigt Hill
#
# Bulk Modulus (GPa) = 67.53829 67.54768 67.54299
# Shear Modulus (GPa) = 9.98887 16.14574 13.06730
#
# Velocity S-wave (km/s) = 2.51939 3.20307 2.88158
# Velocity P-wave (km/s) = 7.16797 7.52344 7.34786
#
# Compressibility (1/GPa) = 0.01480642
#
# Stress axis : x y z
#
# Youngs Moduli (GPa) = 58.13584 58.13584 80.61466
#
# Poissons Ratio (x) = 0.48727 0.30709
# Poissons Ratio (y) = 0.48727 0.30709
# Poissons Ratio (z) = 0.22146 0.22146
#
# Static dielectric constant tensor:
#      x y z
#    x 2.958530 0.000000 0.000000 
#    y 0.000000 2.958530 0.000000 
#    z 0.000000 0.000000 3.170080 
# 
# 
# High freq. dielectric constant tensor:
#      x y z
#    x 1.594650 0.000000 0.000000 
#    y 0.000000 1.594650 0.000000 
#    z 0.000000 0.000000 1.587370 
# 
# From -- ./inp_files/3244.got.cif
#   From: 2010.03.12/outbox.cif.g09.slc.cpg/sg191_2_cif.got.tgz:3244.got - 2010.04.01 12:09:02.
