data_PCOD8328236
_publ_section_title
;
Structure prediction by ZEFSAII (Michael W. Deem and Ramdas Pophale) SiO2 
 PCOD8328236
Probable space group: P 6/M M M
;
_chemical_formula_sum "Si O2"
_cell_formula_units_Z 180
_cell_length_a 21.362252
_cell_length_b 21.362252
_cell_length_c 29.150379
_cell_angle_alpha 90.000000
_cell_angle_beta 90.000000
_cell_angle_gamma 120.000000
_cell_volume 11520.435723
_symmetry_space_group_name_H-M "P 6/M M M"
_symmetry_group_IT_number 191
_symmetry_cell_setting 'hexagonal'
loop_
_space_group_symop_operation_xyz
x,y,z
x-y,x,z
-y,x-y,z
-x,-y,z
-x+y,-x,z
y,-x+y,z
x-y,-y,-z
-x,-x+y,-z
y,x,-z
-y,-x,-z
-x+y,y,-z
x,x-y,-z
-x,-y,-z
-x+y,-x,-z
y,-x+y,-z
x,y,-z
x-y,x,-z
-y,x-y,-z
-x+y,y,z
x,x-y,z
-y,-x,z
y,x,z
x-y,-y,z
-x,-x+y,z
loop_
_atom_site_type_symbol
_atom_site_label
_atom_site_fract_x
_atom_site_fract_y
_atom_site_fract_z
Si Si1 0.081135 0.779272 0.626285
Si Si2 0.541646 0.083291 0.554205
Si Si3 0.703771 0.147974 0.775990
Si Si4 0.806897 0.333545 0.689707
Si Si5 0.298444 0.842482 0.595313
Si Si6 0.815427 0.482194 0.869110
Si Si7 0.533995 0.919384 0.051132
Si Si8 0.780536 0.701569 0.267904
O O1 0.135598 0.864403 0.616944
O O2 0.102138 0.732161 0.592563
O O3 0.087578 0.761966 0.679587
O O4 0.000000 0.760489 0.614158
O O5 0.540857 0.081714 0.500000
O O6 0.625397 0.126391 0.569563
O O7 0.500000 0.000000 0.573081
O O8 0.775891 0.224110 0.772764
O O9 0.651049 0.145576 0.735658
O O10 0.665371 0.138580 0.824815
O O11 0.724891 0.086806 0.766052
O O12 0.813209 0.406605 0.671857
O O13 0.723627 0.276374 0.700395
O O14 0.837355 0.306246 0.649479
O O15 0.237559 0.762442 0.576202
O O16 0.736474 0.472948 0.870283
O O17 0.806079 0.403040 0.868782
O O18 0.860516 0.529685 0.912818
O O19 0.460192 0.920384 0.052903
O O20 0.599252 0.000000 0.063324
O O21 0.545713 0.897375 0.000000
O O22 0.862977 0.725954 0.255716
O O23 0.770450 0.770450 0.259519
#
# Coordination Sequence:
#
# PCOD8328236 Si02
#       8
#    24  12  24  24  24  24  24  24
#     4   9  16  28  48  71  93 119 151 188 226 268
#     4  11  24  40  54  70  96 128 158 194 247 297
#     4   9  17  28  40  58  86 118 147 176 212 258
#     4  10  17  27  43  62  86 114 147 187 225 268
#     4  10  19  33  52  71  91 117 156 198 233 273
#     4  10  19  29  42  61  88 117 144 178 222 275
#     4   8  15  29  46  59  73 101 142 184 224 265
#     4   9  16  27  43  63  87 114 145 180 220 262
#
# _framework density 15.624409
#
# number of rings (size 3 to 8) (size 9 to 14) (size 15 to 20)
#    0.000    2.600    2.000    1.467    0.000    1.067 
#    0.400    1.333    0.000    1.867    0.000    1.867 
#    0.000    0.000    0.000    0.000    0.000    0.000 
#
# Total GULP energy -2230462.718111 kJ/mol
# GULP energy per Si atom -12391.459545 kJ/mol
# Density = 1.558885 g / cm^3
# Si number density = 15.624409 Si / 1000 Ang^3
#
#
#
# Elastic Constant Matrix: (Units=GPa)
#
#
# Indices 1 2 3 4 5 6 
#
# 1 89.7964 53.9404 28.8450 0.0000 0.0000 0.0000
# 2 53.9404 89.7964 28.8450 0.0000 0.0000 0.0000
# 3 28.8450 28.8450 60.0163 0.0000 0.0000 0.0000
# 4 0.0000 0.0000 0.0000 17.3681 0.0000 0.0000
# 5 0.0000 0.0000 0.0000 0.0000 17.3681 0.0000
# 6 0.0000 0.0000 0.0000 0.0000 0.0000 17.9280
#
#
#
# Elastic Compliance Matrix: (Units=1/GPa)
#
#
# Indices 1 2 3 4 5 6 
#
# 1 0.018255 -0.009635 -0.004143 0.000000 0.000000 0.000000
# 2 -0.009635 0.018255 -0.004143 0.000000 0.000000 0.000000
# 3 -0.004143 -0.004143 0.020644 0.000000 0.000000 0.000000
# 4 0.000000 0.000000 0.000000 0.057577 0.000000 0.000000
# 5 0.000000 0.000000 0.000000 0.000000 0.057577 0.000000
# 6 0.000000 0.000000 0.000000 0.000000 0.000000 0.055779
#
#
# Mechanical properties :
#
#
# Convention : Reuss Voigt Hill
#
# Bulk Modulus (GPa) = 46.92035 51.42999 49.17517
# Shear Modulus (GPa) = 18.44804 19.06474 18.75639
#
# Velocity S-wave (km/s) = 3.43989 3.49691 3.46852
# Velocity P-wave (km/s) = 6.77292 7.02086 6.89800
#
# Compressibility (1/GPa) = 0.02131271
#
# Stress axis : x y z
#
# Youngs Moduli (GPa) = 54.78059 54.78059 48.43914
#
# Poissons Ratio (x) = 0.52779 0.20068
# Poissons Ratio (y) = 0.52779 0.20068
# Poissons Ratio (z) = 0.22695 0.22695
#
# Static dielectric constant tensor:
#      x y z
#    x 2.923850 0.000000 0.000000 
#    y 0.000000 2.923850 0.000000 
#    z 0.000000 0.000000 2.997700 
# 
# 
# High freq. dielectric constant tensor:
#      x y z
#    x 1.584400 0.000000 0.000000 
#    y 0.000000 1.584400 0.000000 
#    z 0.000000 0.000000 1.584060 
# 
# From -- ./inp_files/10865.got.cif
#   From: 2010.03.12/outbox.cif.g09.slc.cpg/sg191_6_cif.got.tgz:10865.got - 2010.04.01 12:09:02.
