data_PCOD8328326
_publ_section_title
;
Structure prediction by ZEFSAII (Michael W. Deem and Ramdas Pophale) SiO2 
 PCOD8328326
Probable space group: P 6/M M M
;
_chemical_formula_sum "Si O2"
_cell_formula_units_Z 120
_cell_length_a 17.926877
_cell_length_b 17.926877
_cell_length_c 26.160486
_cell_angle_alpha 90.000000
_cell_angle_beta 90.000000
_cell_angle_gamma 120.000000
_cell_volume 7280.910910
_symmetry_space_group_name_H-M "P 6/M M M"
_symmetry_group_IT_number 191
_symmetry_cell_setting 'hexagonal'
loop_
_space_group_symop_operation_xyz
x,y,z
x-y,x,z
-y,x-y,z
-x,-y,z
-x+y,-x,z
y,-x+y,z
x-y,-y,-z
-x,-x+y,-z
y,x,-z
-y,-x,-z
-x+y,y,-z
x,x-y,-z
-x,-y,-z
-x+y,-x,-z
y,-x+y,-z
x,y,-z
x-y,x,-z
-y,x-y,-z
-x+y,y,z
x,x-y,z
-y,-x,z
y,x,z
x-y,-y,z
-x,-x+y,z
loop_
_atom_site_type_symbol
_atom_site_label
_atom_site_fract_x
_atom_site_fract_y
_atom_site_fract_z
Si Si1 0.100751 0.633310 0.597329
Si Si2 0.267440 0.898468 0.694274
Si Si3 0.365201 0.465936 0.000000
Si Si4 0.832610 0.501716 0.104350
Si Si5 0.629253 0.731241 0.500000
Si Si6 0.899370 0.532813 0.789870
O O1 0.144035 0.572018 0.596753
O O2 0.126386 0.690212 0.648195
O O3 0.128602 0.695243 0.548579
O O4 0.000000 0.571091 0.595730
O O5 0.163007 0.836994 0.690626
O O6 0.296947 0.870270 0.745206
O O7 0.294748 0.000000 0.693420
O O8 0.308837 0.441799 0.052165
O O9 0.414747 0.414747 0.000000
O O10 0.431011 0.568990 0.000000
O O11 0.729955 0.459911 0.106552
O O12 0.860702 0.430351 0.103158
O O13 0.873599 0.557203 0.155713
O O14 0.703584 0.703584 0.500000
O O15 0.672236 0.836118 0.500000
O O16 0.857185 0.428593 0.783545
O O17 0.000000 0.573349 0.787069
#
# Coordination Sequence:
#
# PCOD8328326 Si02
#       6
#    24  24  12  24  12  24
#     4   9  17  30  49  70  90 115 148 185 225 271
#     4  10  19  31  48  69  92 119 153 190 226 266
#     4   9  17  28  40  52  68  95 132 170 202 236
#     4  10  18  27  39  56  79 104 131 164 205 251
#     4  10  19  31  49  72  97 127 164 202 237 275
#     4   9  17  29  45  63  83 110 143 177 213 257
#
# _framework density 16.481455
#
# number of rings (size 3 to 8) (size 9 to 14) (size 15 to 20)
#    0.000    2.500    0.000    3.200    0.000    6.000 
#    0.000    1.000    0.000   11.100    0.000    0.000 
#    0.000    4.800    0.000    0.000    0.000    0.400 
#
# Total GULP energy -1486717.671508 kJ/mol
# GULP energy per Si atom -12389.313929 kJ/mol
# Density = 1.644394 g / cm^3
# Si number density = 16.481455 Si / 1000 Ang^3
#
#
#
# Elastic Constant Matrix: (Units=GPa)
#
#
# Indices 1 2 3 4 5 6 
#
# 1 64.2853 34.4838 32.4454 0.0000 0.0000 0.0000
# 2 34.4838 64.2853 32.4454 0.0000 0.0000 0.0000
# 3 32.4454 32.4454 151.9949 0.0000 0.0000 0.0000
# 4 0.0000 0.0000 0.0000 -1.6028 0.0000 0.0000
# 5 0.0000 0.0000 0.0000 0.0000 -1.6028 0.0000
# 6 0.0000 0.0000 0.0000 0.0000 0.0000 14.9007
#
#
#
# Elastic Compliance Matrix: (Units=1/GPa)
#
#
# Indices 1 2 3 4 5 6 
#
# 1 0.022666 -0.010890 -0.002514 0.000000 0.000000 0.000000
# 2 -0.010890 0.022666 -0.002514 0.000000 0.000000 0.000000
# 3 -0.002514 -0.002514 0.007652 0.000000 0.000000 0.000000
# 4 0.000000 0.000000 0.000000 -0.623915 0.000000 0.000000
# 5 0.000000 0.000000 0.000000 0.000000 -0.623914 0.000000
# 6 0.000000 0.000000 0.000000 0.000000 0.000000 0.067111
#
#
# Mechanical properties :
#
#
# Convention : Reuss Voigt Hill
#
# Bulk Modulus (GPa) = 47.28228 53.25718 50.26973
# Shear Modulus (GPa) = -4.59200 14.41842 4.91321
#
# Velocity S-wave (km/s) = -1.67099 2.96096 1.72845
# Velocity P-wave (km/s) = 5.00275 6.63877 5.87796
#
# Compressibility (1/GPa) = 0.02114957
#
# Stress axis : x y z
#
# Youngs Moduli (GPa) = 44.11935 44.11935 130.67844
#
# Poissons Ratio (x) = 0.48044 0.32850
# Poissons Ratio (y) = 0.48044 0.32850
# Poissons Ratio (z) = 0.11091 0.11091
#
# Static dielectric constant tensor:
#      x y z
#    x 2.883910 0.000000 0.000000 
#    y 0.000000 2.883910 0.000000 
#    z 0.000000 0.000000 3.622990 
# 
# 
# High freq. dielectric constant tensor:
#      x y z
#    x 1.599300 0.000000 0.000000 
#    y 0.000000 1.599300 0.000000 
#    z 0.000000 0.000000 1.666030 
# 
# From -- ./inp_files/9558.got.cif
#   From: 2010.03.12/outbox.cif.g09.slc.cpg/sg191_5_cif.got.tgz:9558.got - 2010.04.01 12:09:02.
