data_PCOD8328605
_publ_section_title
;
Structure prediction by ZEFSAII (Michael W. Deem and Ramdas Pophale) SiO2 
 PCOD8328605
Probable space group: P 6/M M M
;
_chemical_formula_sum "Si O2"
_cell_formula_units_Z 96
_cell_length_a 22.050854
_cell_length_b 22.050854
_cell_length_c 15.283301
_cell_angle_alpha 90.000000
_cell_angle_beta 90.000000
_cell_angle_gamma 120.000000
_cell_volume 6435.742003
_symmetry_space_group_name_H-M "P 6/M M M"
_symmetry_group_IT_number 191
_symmetry_cell_setting 'hexagonal'
loop_
_space_group_symop_operation_xyz
x,y,z
x-y,x,z
-y,x-y,z
-x,-y,z
-x+y,-x,z
y,-x+y,z
x-y,-y,-z
-x,-x+y,-z
y,x,-z
-y,-x,-z
-x+y,y,-z
x,x-y,-z
-x,-y,-z
-x+y,-x,-z
y,-x+y,-z
x,y,-z
x-y,x,-z
-y,x-y,-z
-x+y,y,z
x,x-y,z
-y,-x,z
y,x,z
x-y,-y,z
-x,-x+y,z
loop_
_atom_site_type_symbol
_atom_site_label
_atom_site_fract_x
_atom_site_fract_y
_atom_site_fract_z
Si Si1 0.809543 0.475178 0.736471
Si Si2 0.287269 0.076811 0.103874
Si Si3 0.389057 0.922111 0.598073
Si Si4 0.293412 0.849890 0.096119
O O1 0.738639 0.477278 0.726406
O O2 0.792574 0.396287 0.721714
O O3 0.864037 0.528806 0.665173
O O4 0.844512 0.500617 0.832278
O O5 0.270792 0.135396 0.143823
O O6 0.365473 0.093646 0.128033
O O7 0.232010 0.000000 0.141637
O O8 0.281634 0.077734 0.000000
O O9 0.357682 0.902290 0.500000
O O10 0.461455 0.922910 0.602824
O O11 0.403763 0.000000 0.622793
O O12 0.223661 0.776340 0.087424
O O13 0.330497 0.869922 0.000000
#
# Coordination Sequence:
#
# PCOD8328605 Si02
#       4
#    24  24  24  24
#     4  10  19  29  42  61  84 107 131 163 206 253
#     4   8  13  22  37  55  74  98 129 165 203 240
#     4   8  15  29  46  60  75  99 131 162 192 233
#     4   8  15  27  39  52  74 105 139 169 194 226
#
# _framework density 14.916695000000001
#
# number of rings (size 3 to 8) (size 9 to 14) (size 15 to 20)
#    0.000    3.500    0.000    2.500    0.000    2.000 
#    0.000    0.000    0.000    3.250    0.000    8.750 
#    0.000    0.000    0.000    0.000    0.000    0.000 
#
# Total GULP energy -1189368.086167 kJ/mol
# GULP energy per Si atom -12389.250898 kJ/mol
# Density = 1.488274 g / cm^3
# Si number density = 14.916695 Si / 1000 Ang^3
#
#
#
# Elastic Constant Matrix: (Units=GPa)
#
#
# Indices 1 2 3 4 5 6 
#
# 1 66.3237 35.1458 39.7505 0.0000 0.0000 0.0000
# 2 35.1458 66.3237 39.7505 0.0000 0.0000 0.0000
# 3 39.7505 39.7505 85.2613 0.0000 0.0000 0.0000
# 4 0.0000 0.0000 0.0000 17.1209 0.0000 0.0000
# 5 0.0000 0.0000 0.0000 0.0000 17.1209 0.0000
# 6 0.0000 0.0000 0.0000 0.0000 0.0000 15.5890
#
#
#
# Elastic Compliance Matrix: (Units=1/GPa)
#
#
# Indices 1 2 3 4 5 6 
#
# 1 0.023800 -0.008274 -0.007239 0.000000 0.000000 0.000000
# 2 -0.008274 0.023800 -0.007239 0.000000 0.000000 0.000000
# 3 -0.007239 -0.007239 0.018479 0.000000 0.000000 0.000000
# 4 0.000000 0.000000 0.000000 0.058408 0.000000 0.000000
# 5 0.000000 0.000000 0.000000 0.000000 0.058408 0.000000
# 6 0.000000 0.000000 0.000000 0.000000 0.000000 0.064148
#
#
# Mechanical properties :
#
#
# Convention : Reuss Voigt Hill
#
# Bulk Modulus (GPa) = 48.59910 49.68916 49.14413
# Shear Modulus (GPa) = 16.69979 16.85030 16.77504
#
# Velocity S-wave (km/s) = 3.34958 3.36464 3.35712
# Velocity P-wave (km/s) = 6.90005 6.96260 6.93139
#
# Compressibility (1/GPa) = 0.02057651
#
# Stress axis : x y z
#
# Youngs Moduli (GPa) = 42.01607 42.01607 54.11686
#
# Poissons Ratio (x) = 0.34762 0.39175
# Poissons Ratio (y) = 0.34762 0.39175
# Poissons Ratio (z) = 0.30415 0.30415
#
# Static dielectric constant tensor:
#      x y z
#    x 2.905430 0.000000 0.000000 
#    y 0.000000 2.905430 0.000000 
#    z 0.000000 0.000000 3.105490 
# 
# 
# High freq. dielectric constant tensor:
#      x y z
#    x 1.551060 0.000000 0.000000 
#    y 0.000000 1.551060 0.000000 
#    z 0.000000 0.000000 1.550880 
# 
# From -- ./inp_files/2737.got.cif
#   From: 2010.03.12/outbox.cif.g09.slc.cpg/sg191_2_cif.got.tgz:2737.got - 2010.04.01 12:09:02.
