data_PCOD8328617
_publ_section_title
;
Structure prediction by ZEFSAII (Michael W. Deem and Ramdas Pophale) SiO2 
 PCOD8328617
Probable space group: P 6/M M M
;
_chemical_formula_sum "Si O2"
_cell_formula_units_Z 192
_cell_length_a 22.347903
_cell_length_b 22.347903
_cell_length_c 27.865312
_cell_angle_alpha 90.000000
_cell_angle_beta 90.000000
_cell_angle_gamma 120.000000
_cell_volume 12052.249041
_symmetry_space_group_name_H-M "P 6/M M M"
_symmetry_group_IT_number 191
_symmetry_cell_setting 'hexagonal'
loop_
_space_group_symop_operation_xyz
x,y,z
x-y,x,z
-y,x-y,z
-x,-y,z
-x+y,-x,z
y,-x+y,z
x-y,-y,-z
-x,-x+y,-z
y,x,-z
-y,-x,-z
-x+y,y,-z
x,x-y,-z
-x,-y,-z
-x+y,-x,-z
y,-x+y,-z
x,y,-z
x-y,x,-z
-y,x-y,-z
-x+y,y,z
x,x-y,z
-y,-x,z
y,x,z
x-y,-y,z
-x,-x+y,z
loop_
_atom_site_type_symbol
_atom_site_label
_atom_site_fract_x
_atom_site_fract_y
_atom_site_fract_z
Si Si1 0.609336 0.076830 0.553892
Si Si2 0.709284 0.786823 0.755832
Si Si3 0.665877 0.195219 0.084669
Si Si4 0.529977 0.195864 0.195113
Si Si5 0.925016 0.716033 0.134731
Si Si6 0.189408 0.522912 0.369439
Si Si7 0.564125 0.852653 0.722323
Si Si8 0.878604 0.262856 0.947492
O O1 0.640072 0.091247 0.500000
O O2 0.538091 0.076182 0.554577
O O3 0.663163 0.139919 0.587080
O O4 0.593466 0.000000 0.570765
O O5 0.733371 0.866686 0.742838
O O6 0.772720 0.772720 0.746593
O O7 0.684554 0.772933 0.811608
O O8 0.644855 0.732903 0.722907
O O9 0.595338 0.190675 0.067658
O O10 0.727260 0.272741 0.074452
O O11 0.664077 0.175303 0.140140
O O12 0.674554 0.137542 0.056097
O O13 0.598855 0.197710 0.210950
O O14 0.542860 0.271430 0.205729
O O15 0.469529 0.139449 0.228628
O O16 0.869102 0.738203 0.120542
O O17 0.925763 0.662078 0.096266
O O18 0.000000 0.784742 0.132418
O O19 0.264250 0.528499 0.374289
O O20 0.200269 0.600135 0.367774
O O21 0.146320 0.479829 0.322904
O O22 0.562020 0.781010 0.722585
O O23 0.806420 0.193581 0.942068
O O24 0.912519 0.267374 0.000000
#
# Coordination Sequence:
#
# PCOD8328617 Si02
#       8
#    24  24  24  24  24  24  24  24
#     4   8  15  29  46  60  76 105 148 193 233 275
#     4   9  17  30  48  68  89 112 138 168 203 245
#     4   9  16  25  38  56  77 102 134 173 215 255
#     4   9  15  23  36  53  75 104 139 176 212 251
#     4   9  17  30  49  70  89 109 133 162 197 238
#     4  10  19  29  42  63  92 122 151 186 231 280
#     4   9  17  27  39  58  84 114 145 174 206 245
#     4   9  17  28  41  58  80 105 134 167 201 238
#
# _framework density 15.930638
#
# number of rings (size 3 to 8) (size 9 to 14) (size 15 to 20)
#    0.000    3.000    0.000    1.875    0.000    5.250 
#    0.000    1.250    0.000    3.250    0.000    7.875 
#    0.000    0.000    0.000    3.125    0.000    3.250 
#
# Total GULP energy -2378745.345585 kJ/mol
# GULP energy per Si atom -12389.298675 kJ/mol
# Density = 1.589438 g / cm^3
# Si number density = 15.930638 Si / 1000 Ang^3
#
#
#
# Elastic Constant Matrix: (Units=GPa)
#
#
# Indices 1 2 3 4 5 6 
#
# 1 71.2527 38.3352 31.6309 0.0000 0.0000 0.0000
# 2 38.3352 71.2527 31.6309 0.0000 0.0000 0.0000
# 3 31.6309 31.6309 52.9768 0.0000 0.0000 0.0000
# 4 0.0000 0.0000 0.0000 16.3797 0.0000 0.0000
# 5 0.0000 0.0000 0.0000 0.0000 16.3797 0.0000
# 6 0.0000 0.0000 0.0000 0.0000 0.0000 16.4587
#
#
#
# Elastic Compliance Matrix: (Units=1/GPa)
#
#
# Indices 1 2 3 4 5 6 
#
# 1 0.022152 -0.008227 -0.008314 0.000000 0.000000 0.000000
# 2 -0.008227 0.022152 -0.008314 0.000000 0.000000 0.000000
# 3 -0.008314 -0.008314 0.028804 0.000000 0.000000 0.000000
# 4 0.000000 0.000000 0.000000 0.061051 0.000000 0.000000
# 5 0.000000 0.000000 0.000000 0.000000 0.061051 0.000000
# 6 0.000000 0.000000 0.000000 0.000000 0.000000 0.060758
#
#
# Mechanical properties :
#
#
# Convention : Reuss Voigt Hill
#
# Bulk Modulus (GPa) = 42.73962 44.29737 43.51850
# Shear Modulus (GPa) = 15.95010 16.10262 16.02636
#
# Velocity S-wave (km/s) = 3.16764 3.18275 3.17520
# Velocity P-wave (km/s) = 6.34550 6.43221 6.38900
#
# Compressibility (1/GPa) = 0.02339749
#
# Stress axis : x y z
#
# Youngs Moduli (GPa) = 45.14319 45.14319 34.71722
#
# Poissons Ratio (x) = 0.37140 0.28864
# Poissons Ratio (y) = 0.37140 0.28864
# Poissons Ratio (z) = 0.37532 0.37532
#
# Static dielectric constant tensor:
#      x y z
#    x 2.945170 0.000000 0.000000 
#    y 0.000000 2.945170 0.000000 
#    z 0.000000 0.000000 3.196480 
# 
# 
# High freq. dielectric constant tensor:
#      x y z
#    x 1.588720 0.000000 0.000000 
#    y 0.000000 1.588720 0.000000 
#    z 0.000000 0.000000 1.606390 
# 
# From -- ./inp_files/9339.got.cif
#   From: 2010.03.12/outbox.cif.g09.slc.cpg/sg191_5_cif.got.tgz:9339.got - 2010.04.01 12:09:02.
