data_PCOD8328926
_publ_section_title
;
Structure prediction by ZEFSAII (Michael W. Deem and Ramdas Pophale) SiO2 
 PCOD8328926
Probable space group: P 6/M M M
;
_chemical_formula_sum "Si O2"
_cell_formula_units_Z 108
_cell_length_a 18.008216
_cell_length_b 18.008216
_cell_length_c 24.535988
_cell_angle_alpha 90.000000
_cell_angle_beta 90.000000
_cell_angle_gamma 120.000000
_cell_volume 6890.893925
_symmetry_space_group_name_H-M "P 6/M M M"
_symmetry_group_IT_number 191
_symmetry_cell_setting 'hexagonal'
loop_
_space_group_symop_operation_xyz
x,y,z
x-y,x,z
-y,x-y,z
-x,-y,z
-x+y,-x,z
y,-x+y,z
x-y,-y,-z
-x,-x+y,-z
y,x,-z
-y,-x,-z
-x+y,y,-z
x,x-y,-z
-x,-y,-z
-x+y,-x,-z
y,-x+y,-z
x,y,-z
x-y,x,-z
-y,x-y,-z
-x+y,y,z
x,x-y,z
-y,-x,z
y,x,z
x-y,-y,z
-x,-x+y,z
loop_
_atom_site_type_symbol
_atom_site_label
_atom_site_fract_x
_atom_site_fract_y
_atom_site_fract_z
Si Si1 0.505158 0.666912 0.628837
Si Si2 0.736890 0.097765 0.156301
Si Si3 0.411681 0.000000 0.561484
Si Si4 0.366765 0.468370 0.939495
Si Si5 0.333498 0.496632 0.245894
O O1 0.509478 0.754739 0.612557
O O2 0.409364 0.590637 0.616731
O O3 0.575319 0.659684 0.592331
O O4 0.529144 0.664961 0.691698
O O5 0.839522 0.160479 0.162673
O O6 0.707984 0.133572 0.104953
O O7 0.687075 0.101736 0.209563
O O8 0.715906 0.000000 0.148486
O O9 0.500000 0.000000 0.562618
O O10 0.380731 0.000000 0.500000
O O11 0.430767 0.569234 0.926485
O O12 0.421257 0.421257 0.937149
O O13 0.326634 0.458542 0.000000
O O14 0.262439 0.524877 0.237410
O O15 0.424841 0.575160 0.227957
#
# Coordination Sequence:
#
# PCOD8328926 Si02
#       5
#    24  24  12  24  24
#     4   9  17  29  45  64  87 117 150 183 217 257
#     4  10  20  31  44  64  88 115 148 187 229 270
#     4   9  18  30  42  60  86 114 146 184 220 250
#     4   8  14  26  44  65  88 113 141 173 210 256
#     4   9  17  28  44  66  91 116 142 173 211 257
#
# _framework density 15.672857
#
# number of rings (size 3 to 8) (size 9 to 14) (size 15 to 20)
#    0.000    3.000    0.000    1.778    1.556    4.000 
#    0.000    0.000    0.000    2.000    0.000    0.000 
#    0.000    0.000    0.000    5.889    0.000    1.444 
#
# Total GULP energy -1338844.840747 kJ/mol
# GULP energy per Si atom -12396.711488 kJ/mol
# Density = 1.563719 g / cm^3
# Si number density = 15.672857 Si / 1000 Ang^3
#
#
#
# Elastic Constant Matrix: (Units=GPa)
#
#
# Indices 1 2 3 4 5 6 
#
# 1 74.1540 42.6696 40.2535 0.0000 0.0000 0.0000
# 2 42.6696 74.1540 40.2535 0.0000 0.0000 0.0000
# 3 40.2535 40.2535 89.2199 0.0000 0.0000 0.0000
# 4 0.0000 0.0000 0.0000 18.2181 0.0000 0.0000
# 5 0.0000 0.0000 0.0000 0.0000 18.2181 0.0000
# 6 0.0000 0.0000 0.0000 0.0000 0.0000 15.7422
#
#
#
# Elastic Compliance Matrix: (Units=1/GPa)
#
#
# Indices 1 2 3 4 5 6 
#
# 1 0.022092 -0.009670 -0.005605 0.000000 0.000000 0.000000
# 2 -0.009670 0.022092 -0.005605 0.000000 0.000000 0.000000
# 3 -0.005605 -0.005605 0.016265 0.000000 0.000000 0.000000
# 4 0.000000 0.000000 0.000000 0.054890 0.000000 0.000000
# 5 0.000000 0.000000 0.000000 0.000000 0.054890 0.000000
# 6 0.000000 0.000000 0.000000 0.000000 0.000000 0.063523
#
#
# Mechanical properties :
#
#
# Convention : Reuss Voigt Hill
#
# Bulk Modulus (GPa) = 53.49966 53.76454 53.63210
# Shear Modulus (GPa) = 17.74675 18.05913 17.90294
#
# Velocity S-wave (km/s) = 3.36865 3.39817 3.38344
# Velocity P-wave (km/s) = 7.02423 7.05517 7.03972
#
# Compressibility (1/GPa) = 0.01869171
#
# Stress axis : x y z
#
# Youngs Moduli (GPa) = 45.26538 45.26538 61.47992
#
# Poissons Ratio (x) = 0.43771 0.34457
# Poissons Ratio (y) = 0.43771 0.34457
# Poissons Ratio (z) = 0.25369 0.25369
#
# Static dielectric constant tensor:
#      x y z
#    x 2.751600 0.000000 0.000000 
#    y 0.000000 2.751600 0.000000 
#    z 0.000000 0.000000 3.213420 
# 
# 
# High freq. dielectric constant tensor:
#      x y z
#    x 1.572890 0.000000 0.000000 
#    y 0.000000 1.572890 0.000000 
#    z 0.000000 0.000000 1.612570 
# 
# From -- ./inp_files/8335.got.cif
#   From: 2010.03.12/outbox.cif.g09.slc.cpg/sg191_5_cif.got.tgz:8335.got - 2010.04.01 12:09:02.
