data_PCOD8328418
_publ_section_title
;
Structure prediction by ZEFSAII (Michael W. Deem and Ramdas Pophale) SiO2 
 PCOD8328418
Probable space group: P 6/M M M
;
_chemical_formula_sum "Si O2"
_cell_formula_units_Z 132
_cell_length_a 17.157612
_cell_length_b 17.157612
_cell_length_c 29.684576
_cell_angle_alpha 90.000000
_cell_angle_beta 90.000000
_cell_angle_gamma 120.000000
_cell_volume 7567.896201
_symmetry_space_group_name_H-M "P 6/M M M"
_symmetry_group_IT_number 191
_symmetry_cell_setting 'hexagonal'
loop_
_space_group_symop_operation_xyz
x,y,z
x-y,x,z
-y,x-y,z
-x,-y,z
-x+y,-x,z
y,-x+y,z
x-y,-y,-z
-x,-x+y,-z
y,x,-z
-y,-x,-z
-x+y,y,-z
x,x-y,-z
-x,-y,-z
-x+y,-x,-z
y,-x+y,-z
x,y,-z
x-y,x,-z
-y,x-y,-z
-x+y,y,z
x,x-y,z
-y,-x,z
y,x,z
x-y,-y,z
-x,-x+y,z
loop_
_atom_site_type_symbol
_atom_site_label
_atom_site_fract_x
_atom_site_fract_y
_atom_site_fract_z
Si Si1 0.332619 0.846449 0.949559
Si Si2 0.712779 0.104781 0.598906
Si Si3 0.841714 0.330574 0.688023
Si Si4 0.894291 0.361430 0.214429
Si Si5 0.553102 0.106203 0.550417
Si Si6 0.266291 0.364500 0.868321
O O1 0.427611 0.855222 0.940799
O O2 0.256874 0.743127 0.942360
O O3 0.321856 0.909038 0.913200
O O4 0.327200 0.879297 0.000000
O O5 0.818862 0.181139 0.587979
O O6 0.694117 0.103862 0.652083
O O7 0.648668 0.137134 0.574714
O O8 0.684622 0.000000 0.585504
O O9 0.867916 0.433958 0.681973
O O10 0.734873 0.265128 0.681029
O O11 0.869151 0.312365 0.737251
O O12 0.849485 0.424743 0.210935
O O13 0.858083 0.291975 0.173223
O O14 0.000000 0.421620 0.209511
O O15 0.573401 0.146801 0.500000
O O16 0.500000 0.000000 0.548993
O O17 0.160582 0.321163 0.877597
O O18 0.283686 0.283686 0.855941
#
# Coordination Sequence:
#
# PCOD8328418 Si02
#       6
#    24  24  24  24  12  24
#     4   9  17  29  46  68  94 123 151 177 207 249
#     4  10  20  34  53  75 102 136 174 215 258 305
#     4  10  18  28  44  67  97 131 167 202 237 279
#     4   9  17  28  44  66  92 122 153 186 226 275
#     4   9  18  34  54  76 104 136 168 204 247 295
#     4  10  20  33  47  64  87 114 148 189 233 277
#
# _framework density 17.4421
#
# number of rings (size 3 to 8) (size 9 to 14) (size 15 to 20)
#    0.000    2.455    0.909    2.000    0.000    3.273 
#    0.545    0.909    0.000    6.182    0.000    0.000 
#    0.000    0.000    0.000   14.909    0.000    0.000 
#
# Total GULP energy -1635609.772996 kJ/mol
# GULP energy per Si atom -12390.983129 kJ/mol
# Density = 1.740240 g / cm^3
# Si number density = 17.442100 Si / 1000 Ang^3
#
#
#
# Elastic Constant Matrix: (Units=GPa)
#
#
# Indices 1 2 3 4 5 6 
#
# 1 68.2985 40.0229 25.3946 0.0000 0.0000 0.0000
# 2 40.0229 68.2985 25.3946 0.0000 0.0000 0.0000
# 3 25.3946 25.3946 101.2344 0.0000 0.0000 0.0000
# 4 0.0000 0.0000 0.0000 15.5509 0.0000 0.0000
# 5 0.0000 0.0000 0.0000 0.0000 15.5509 0.0000
# 6 0.0000 0.0000 0.0000 0.0000 0.0000 14.1378
#
#
#
# Elastic Compliance Matrix: (Units=1/GPa)
#
#
# Indices 1 2 3 4 5 6 
#
# 1 0.022914 -0.012452 -0.002624 0.000000 0.000000 0.000000
# 2 -0.012452 0.022914 -0.002624 0.000000 0.000000 0.000000
# 3 -0.002624 -0.002624 0.011195 0.000000 0.000000 0.000000
# 4 0.000000 0.000000 0.000000 0.064305 0.000000 0.000000
# 5 0.000000 0.000000 0.000000 0.000000 0.064305 0.000000
# 6 0.000000 0.000000 0.000000 0.000000 0.000000 0.070732
#
#
# Mechanical properties :
#
#
# Convention : Reuss Voigt Hill
#
# Bulk Modulus (GPa) = 46.25015 46.60616 46.42816
# Shear Modulus (GPa) = 16.72384 18.84921 17.78653
#
# Velocity S-wave (km/s) = 3.09984 3.29093 3.19681
# Velocity P-wave (km/s) = 6.27583 6.42018 6.34841
#
# Compressibility (1/GPa) = 0.02162155
#
# Stress axis : x y z
#
# Youngs Moduli (GPa) = 43.64102 43.64102 89.32750
#
# Poissons Ratio (x) = 0.54341 0.23444
# Poissons Ratio (y) = 0.54341 0.23444
# Poissons Ratio (z) = 0.11453 0.11453
#
# Static dielectric constant tensor:
#      x y z
#    x 3.086890 0.000000 0.000000 
#    y 0.000000 3.086890 0.000000 
#    z 0.000000 0.000000 3.529890 
# 
# 
# High freq. dielectric constant tensor:
#      x y z
#    x 1.646330 0.000000 0.000000 
#    y 0.000000 1.646330 0.000000 
#    z 0.000000 0.000000 1.689640 
# 
# From -- ./inp_files/10462.got.cif
#   From: 2010.03.12/outbox.cif.g09.slc.cpg/sg191_6_cif.got.tgz:10462.got - 2010.04.01 12:09:02.
