data_PCOD8328849
_publ_section_title
;
Structure prediction by ZEFSAII (Michael W. Deem and Ramdas Pophale) SiO2 
 PCOD8328849
Probable space group: P 6/M M M
;
_chemical_formula_sum "Si O2"
_cell_formula_units_Z 138
_cell_length_a 31.048658
_cell_length_b 31.048658
_cell_length_c 7.982408
_cell_angle_alpha 90.000000
_cell_angle_beta 90.000000
_cell_angle_gamma 120.000000
_cell_volume 6664.233737
_symmetry_space_group_name_H-M "P 6/M M M"
_symmetry_group_IT_number 191
_symmetry_cell_setting 'hexagonal'
loop_
_space_group_symop_operation_xyz
x,y,z
x-y,x,z
-y,x-y,z
-x,-y,z
-x+y,-x,z
y,-x+y,z
x-y,-y,-z
-x,-x+y,-z
y,x,-z
-y,-x,-z
-x+y,y,-z
x,x-y,-z
-x,-y,-z
-x+y,-x,-z
y,-x+y,-z
x,y,-z
x-y,x,-z
-y,x-y,-z
-x+y,y,z
x,x-y,z
-y,-x,z
y,x,z
x-y,-y,z
-x,-x+y,z
loop_
_atom_site_type_symbol
_atom_site_label
_atom_site_fract_x
_atom_site_fract_y
_atom_site_fract_z
Si Si1 0.763798 0.430450 0.800605
Si Si2 0.134384 0.769253 0.694099
Si Si3 0.206206 0.944141 0.191026
Si Si4 0.143871 0.676963 0.800707
Si Si5 0.880281 0.940141 0.000000
Si Si6 0.195804 0.097902 0.311661
Si Si7 0.945188 0.424642 0.800983
O O1 0.711549 0.423097 0.734350
O O2 0.770852 0.385426 0.730804
O O3 0.807761 0.483321 0.734817
O O4 0.764512 0.429862 0.000000
O O5 0.127585 0.775053 0.500000
O O6 0.182764 0.817237 0.766486
O O7 0.086843 0.765382 0.786614
O O8 0.141694 0.722807 0.724433
O O9 0.157027 0.925345 0.300712
O O10 0.245679 0.000000 0.244218
O O11 0.189180 0.940907 0.000000
O O12 0.095736 0.628153 0.729063
O O13 0.144031 0.680100 0.000000
O O14 0.914732 0.914732 0.000000
O O15 0.846902 0.923451 0.169244
O O16 0.171981 0.085991 0.500000
O O17 0.934571 0.467286 0.731781
O O18 0.000000 0.436565 0.743151
O O19 0.942012 0.424091 0.000000
#
# Coordination Sequence:
#
# PCOD8328849 Si02
#       7
#    24  24  24  24   6  12  24
#     4   9  16  26  43  70 102 135 176 233 302 371
#     4  11  24  40  56  79 114 156 197 238 291 354
#     4  11  23  41  67  97 126 159 205 259 312 369
#     4  10  19  31  51  77 105 140 185 236 293 358
#     4  12  27  48  72 104 144 188 236 284 334 390
#     4  12  24  43  71 103 138 176 222 276 332 390
#     4   8  14  26  46  73 104 137 177 228 282 339
#
# _framework density 20.707557999999999
#
# number of rings (size 3 to 8) (size 9 to 14) (size 15 to 20)
#    0.000    1.913    1.739    3.348    0.000    7.652 
#    0.000    1.739    0.000    2.609    0.000    1.217 
#    0.000    1.391    0.000    0.000    0.000    0.000 
#
# Total GULP energy -1711055.827467 kJ/mol
# GULP energy per Si atom -12398.955272 kJ/mol
# Density = 2.066043 g / cm^3
# Si number density = 20.707558 Si / 1000 Ang^3
#
#
#
# Elastic Constant Matrix: (Units=GPa)
#
#
# Indices 1 2 3 4 5 6 
#
# 1 170.3295 92.6021 24.9414 0.0000 0.0000 0.0000
# 2 92.6021 170.3295 24.9414 0.0000 0.0000 0.0000
# 3 24.9414 24.9414 53.8615 0.0000 0.0000 0.0000
# 4 0.0000 0.0000 0.0000 -4.4460 0.0000 0.0000
# 5 0.0000 0.0000 0.0000 0.0000 -4.4460 0.0000
# 6 0.0000 0.0000 0.0000 0.0000 0.0000 38.8637
#
#
#
# Elastic Compliance Matrix: (Units=1/GPa)
#
#
# Indices 1 2 3 4 5 6 
#
# 1 0.008518 -0.004348 -0.001931 0.000000 0.000000 0.000000
# 2 -0.004348 0.008518 -0.001931 0.000000 0.000000 0.000000
# 3 -0.001931 -0.001931 0.020354 0.000000 0.000000 0.000000
# 4 0.000000 0.000000 0.000000 -0.224919 0.000000 0.000000
# 5 0.000000 0.000000 0.000000 0.000000 -0.224919 0.000000
# 6 0.000000 0.000000 0.000000 0.000000 0.000000 0.025731
#
#
# Mechanical properties :
#
#
# Convention : Reuss Voigt Hill
#
# Bulk Modulus (GPa) = 47.68648 75.49894 61.59271
# Shear Modulus (GPa) = -13.76238 22.79668 4.51715
#
# Velocity S-wave (km/s) = -2.58079 3.32156 1.47856
# Velocity P-wave (km/s) = 3.76801 7.15885 5.72045
#
# Compressibility (1/GPa) = 0.02097031
#
# Stress axis : x y z
#
# Youngs Moduli (GPa) = 117.40495 117.40495 49.12962
#
# Poissons Ratio (x) = 0.51047 0.09486
# Poissons Ratio (y) = 0.51047 0.09486
# Poissons Ratio (z) = 0.22668 0.22668
#
# Static dielectric constant tensor:
#      x y z
#    x 3.942290 0.000000 0.000000 
#    y 0.000000 3.942290 0.000000 
#    z 0.000000 0.000000 3.369430 
# 
# 
# High freq. dielectric constant tensor:
#      x y z
#    x 1.818710 0.000000 0.000000 
#    y 0.000000 1.818710 0.000000 
#    z 0.000000 0.000000 1.778500 
# 
# From -- ./inp_files/2044.got.cif
#   From: 2010.03.12/outbox.cif.g09.slc.cpg/sg191_2_cif.got.tgz:2044.got - 2010.04.01 12:09:02.
