data_PCOD8328161
_publ_section_title
;
Structure prediction by ZEFSAII (Michael W. Deem and Ramdas Pophale) SiO2 
 PCOD8328161
Probable space group: P -6 2 C
;
_chemical_formula_sum "Si O2"
_cell_formula_units_Z 30
_cell_length_a 8.562712
_cell_length_b 8.562712
_cell_length_c 22.038978
_cell_angle_alpha 90.000000
_cell_angle_beta 90.000000
_cell_angle_gamma 120.000000
_cell_volume 1399.409305
_symmetry_space_group_name_H-M "P -6 2 C"
_symmetry_group_IT_number 190
_symmetry_cell_setting 'hexagonal'
loop_
_space_group_symop_operation_xyz
x,y,z
-x+y,-x,1/2-z
-y,x-y,z
x,y,1/2-z
-x+y,-x,z
-y,x-y,1/2-z
x-y,-y,-z
-x,-x+y,-z
y,x,-z
y,x,1/2+z
x-y,-y,1/2+z
-x,-x+y,1/2+z
loop_
_atom_site_type_symbol
_atom_site_label
_atom_site_fract_x
_atom_site_fract_y
_atom_site_fract_z
Si Si1 0.666668 0.333335 0.437400
Si Si2 0.000000 0.000000 0.071026
Si Si3 0.335235 0.010621 0.378941
Si Si4 0.666668 0.333334 0.917981
Si Si5 0.813890 0.785229 0.250000
O O1 0.726748 0.531674 0.413133
O O2 0.666668 0.333334 0.509641
O O3 0.064430 0.198795 0.095727
O O4 0.000000 0.000000 0.000000
O O5 0.394880 0.864310 0.392411
O O6 0.337615 0.046060 0.307335
O O7 0.024919 0.836557 0.250000
#
# Coordination Sequence:
#
# PCOD8328161 Si02
#       5
#     4   4  12   4   6
#     4  12  27  46  68 106 141 180 235 281 340 414
#     4  12  21  40  68  97 132 183 223 278 346 396
#     4  12  25  44  72  97 141 183 224 288 340 398
#     4  12  27  46  68 106 141 180 235 281 340 414
#     4  10  22  46  72 100 136 174 238 278 338 424
#
# _framework density 21.437615000000001
#
# number of rings (size 3 to 8) (size 9 to 14) (size 15 to 20)
#    0.400    0.000    4.000    6.000    0.000    3.200 
#    0.000    0.000    0.000    0.000    0.000    0.000 
#    0.000    0.000    0.000    0.000    0.000    0.000 
#
# Total GULP energy -372220.772973 kJ/mol
# GULP energy per Si atom -12407.359099 kJ/mol
# Density = 2.138882 g / cm^3
# Si number density = 21.437615 Si / 1000 Ang^3
#
#
#
# Elastic Constant Matrix: (Units=GPa)
#
#
# Indices 1 2 3 4 5 6 
#
# 1 143.7930 -53.9260 21.3844 -0.0156 0.0050 0.0071
# 2 -53.9260 143.7862 21.3976 0.0155 -0.0058 -0.0084
# 3 21.3844 21.3976 150.2481 -0.0004 0.0001 0.0080
# 4 -0.0156 0.0155 -0.0004 21.5572 -0.0001 0.0054
# 5 0.0050 -0.0058 0.0001 -0.0001 21.5554 0.0155
# 6 0.0071 -0.0084 0.0080 0.0054 0.0155 98.7036
#
#
#
# Elastic Compliance Matrix: (Units=1/GPa)
#
#
# Indices 1 2 3 4 5 6 
#
# 1 0.008497 0.003440 -0.001699 0.000004 -0.000001 0.000000
# 2 0.003440 0.008498 -0.001700 -0.000004 0.000002 0.000001
# 3 -0.001699 -0.001700 0.007140 0.000000 0.000000 -0.000001
# 4 0.000004 -0.000004 0.000000 0.046388 0.000000 -0.000003
# 5 -0.000001 0.000002 0.000000 0.000000 0.046392 -0.000007
# 6 0.000000 0.000001 -0.000001 -0.000003 -0.000007 0.010131
#
#
# Mechanical properties :
#
#
# Convention : Reuss Voigt Hill
#
# Bulk Modulus (GPa) = 41.29547 46.17102 43.73325
# Shear Modulus (GPa) = 37.02697 58.29466 47.66081
#
# Velocity S-wave (km/s) = 4.16046 5.22032 4.72023
# Velocity P-wave (km/s) = 6.51031 7.61050 7.08181
#
# Compressibility (1/GPa) = 0.02421573
#
# Stress axis : x y z
#
# Youngs Moduli (GPa) = 117.68728 117.67842 140.06433
#
# Poissons Ratio (x) = -0.40477 0.23800
# Poissons Ratio (y) = -0.40480 0.23808
# Poissons Ratio (z) = 0.19998 0.20002
#
# Static dielectric constant tensor:
#      x y z
#    x 1.423720 0.000640 -0.000010 
#    y 0.000640 1.429620 0.000200 
#    z -0.000010 0.000200 3.967620 
# 
# 
# High freq. dielectric constant tensor:
#      x y z
#    x 1.837820 0.000000 0.000000 
#    y 0.000000 1.837820 0.000000 
#    z 0.000000 0.000000 1.859140 
# 
# From -- ./inp_files/4502.got.cif
#   From: 2010.06.25/outbox.cif.g09.slc.cpg/sg190_3_cif.got.tgz:4502.got - 2010.06.28 13:08:06.
