data_PCOD8328727
_publ_section_title
;
Structure prediction by ZEFSAII (Michael W. Deem and Ramdas Pophale) SiO2 
 PCOD8328727
Probable space group: P 6/M M M
;
_chemical_formula_sum "Si O2"
_cell_formula_units_Z 132
_cell_length_a 18.132601
_cell_length_b 18.132601
_cell_length_c 28.101905
_cell_angle_alpha 90.000000
_cell_angle_beta 90.000000
_cell_angle_gamma 120.000000
_cell_volume 8001.779938
_symmetry_space_group_name_H-M "P 6/M M M"
_symmetry_group_IT_number 191
_symmetry_cell_setting 'hexagonal'
loop_
_space_group_symop_operation_xyz
x,y,z
x-y,x,z
-y,x-y,z
-x,-y,z
-x+y,-x,z
y,-x+y,z
x-y,-y,-z
-x,-x+y,-z
y,x,-z
-y,-x,-z
-x+y,y,-z
x,x-y,-z
-x,-y,-z
-x+y,-x,-z
y,-x+y,-z
x,y,-z
x-y,x,-z
-y,x-y,-z
-x+y,y,z
x,x-y,z
-y,-x,z
y,x,z
x-y,-y,z
-x,-x+y,z
loop_
_atom_site_type_symbol
_atom_site_label
_atom_site_fract_x
_atom_site_fract_y
_atom_site_fract_z
Si Si1 0.901843 0.264266 0.733328
Si Si2 0.631299 0.532804 0.649689
Si Si3 0.466154 0.368081 0.087351
Si Si4 0.833793 0.331823 0.189175
Si Si5 0.361523 0.262904 0.000000
Si Si6 0.164255 0.495656 0.448704
O O1 0.838227 0.161774 0.737713
O O2 0.866614 0.295179 0.689136
O O3 0.897059 0.312613 0.780193
O O4 0.000000 0.286340 0.726895
O O5 0.570645 0.429356 0.654297
O O6 0.572815 0.572815 0.658973
O O7 0.673967 0.560384 0.597079
O O8 0.559452 0.440549 0.069516
O O9 0.410655 0.410655 0.101828
O O10 0.473490 0.321266 0.133768
O O11 0.421366 0.300241 0.045797
O O12 0.852744 0.426372 0.201220
O O13 0.736245 0.263756 0.201826
O O14 0.286228 0.286228 0.000000
O O15 0.320732 0.160366 0.000000
O O16 0.130285 0.446920 0.500000
O O17 0.263073 0.526146 0.442404
O O18 0.152697 0.576349 0.449747
#
# Coordination Sequence:
#
# PCOD8328727 Si02
#       6
#    24  24  24  24  12  24
#     4  10  20  33  49  67  87 112 143 180 221 265
#     4   9  17  28  42  61  84 110 140 172 208 253
#     4   9  17  29  46  67  90 118 151 185 221 261
#     4  10  19  30  45  67  96 127 156 183 211 245
#     4  10  19  31  47  66  89 117 152 192 231 271
#     4   9  16  25  37  53  75 105 141 178 211 241
#
# _framework density 16.496331000000001
#
# number of rings (size 3 to 8) (size 9 to 14) (size 15 to 20)
#    0.000    2.545    0.000    2.818    0.000    4.000 
#    0.000    1.818    0.000    8.636    0.000    0.000 
#    0.000    0.000    0.000    5.818    0.000    0.000 
#
# Total GULP energy -1635822.990990 kJ/mol
# GULP energy per Si atom -12392.598417 kJ/mol
# Density = 1.645878 g / cm^3
# Si number density = 16.496331 Si / 1000 Ang^3
#
#
#
# Elastic Constant Matrix: (Units=GPa)
#
#
# Indices 1 2 3 4 5 6 
#
# 1 66.6758 34.4914 30.8718 0.0000 0.0000 0.0000
# 2 34.4914 66.6758 30.8718 0.0000 0.0000 0.0000
# 3 30.8718 30.8718 84.9156 0.0000 0.0000 0.0000
# 4 0.0000 0.0000 0.0000 0.2923 0.0000 0.0000
# 5 0.0000 0.0000 0.0000 0.0000 0.2923 0.0000
# 6 0.0000 0.0000 0.0000 0.0000 0.0000 16.0922
#
#
#
# Elastic Compliance Matrix: (Units=1/GPa)
#
#
# Indices 1 2 3 4 5 6 
#
# 1 0.021887 -0.009184 -0.004618 0.000000 0.000000 0.000000
# 2 -0.009184 0.021887 -0.004618 0.000000 0.000000 0.000000
# 3 -0.004618 -0.004618 0.015135 0.000000 0.000000 0.000000
# 4 0.000000 0.000000 0.000000 3.421324 -0.000008 0.000000
# 5 0.000000 0.000000 0.000000 -0.000008 3.421334 0.000000
# 6 0.000000 0.000000 0.000000 0.000000 0.000000 0.062142
#
#
# Mechanical properties :
#
#
# Convention : Reuss Voigt Hill
#
# Bulk Modulus (GPa) = 45.31545 45.63746 45.47645
# Shear Modulus (GPa) = 0.71348 11.47083 6.09216
#
# Velocity S-wave (km/s) = 0.65837 2.63982 1.92381
# Velocity P-wave (km/s) = 5.30166 6.08415 5.70633
#
# Compressibility (1/GPa) = 0.02206753
#
# Stress axis : x y z
#
# Youngs Moduli (GPa) = 45.68896 45.68896 66.07416
#
# Poissons Ratio (x) = 0.41960 0.30516
# Poissons Ratio (y) = 0.41960 0.30516
# Poissons Ratio (z) = 0.21101 0.21101
#
# Static dielectric constant tensor:
#      x y z
#    x 2.896060 0.000000 0.000000 
#    y 0.000000 2.896060 0.000000 
#    z 0.000000 0.000000 3.854480 
# 
# 
# High freq. dielectric constant tensor:
#      x y z
#    x 1.605650 0.000000 0.000000 
#    y 0.000000 1.605650 0.000000 
#    z 0.000000 0.000000 1.656720 
# 
# From -- ./inp_files/9759.got.cif
#   From: 2010.03.12/outbox.cif.g09.slc.cpg/sg191_5_cif.got.tgz:9759.got - 2010.04.01 12:09:02.
