data_PCOD8328071
_publ_section_title
;
Structure prediction by ZEFSAII (Michael W. Deem and Ramdas Pophale) SiO2 
 PCOD8328071
Probable space group: P -6 2 C
;
_chemical_formula_sum "Si O2"
_cell_formula_units_Z 72
_cell_length_a 23.226188
_cell_length_b 23.226188
_cell_length_c 8.836293
_cell_angle_alpha 90.000000
_cell_angle_beta 90.000000
_cell_angle_gamma 120.000000
_cell_volume 4128.160879
_symmetry_space_group_name_H-M "P -6 2 C"
_symmetry_group_IT_number 190
_symmetry_cell_setting 'hexagonal'
loop_
_space_group_symop_operation_xyz
x,y,z
-x+y,-x,1/2-z
-y,x-y,z
x,y,1/2-z
-x+y,-x,z
-y,x-y,1/2-z
x-y,-y,-z
-x,-x+y,-z
y,x,-z
y,x,1/2+z
x-y,-y,1/2+z
-x,-x+y,1/2+z
loop_
_atom_site_type_symbol
_atom_site_label
_atom_site_fract_x
_atom_site_fract_y
_atom_site_fract_z
Si Si1 0.402199 0.132137 0.419705
Si Si2 0.535706 0.201239 0.570066
Si Si3 0.738972 0.930386 0.569208
Si Si4 0.864176 0.592986 0.083002
Si Si5 0.266115 0.069401 0.569741
Si Si6 0.333452 0.537885 0.427768
O O1 0.395069 0.103352 0.250000
O O2 0.469058 0.141127 0.497290
O O3 0.406945 0.202692 0.414519
O O4 0.338380 0.082361 0.517978
O O5 0.528800 0.194981 0.750000
O O6 0.597745 0.195312 0.507468
O O7 0.546866 0.272518 0.515056
O O8 0.745629 0.928144 0.750000
O O9 0.666006 0.919340 0.524489
O O10 0.750042 0.874164 0.494624
O O11 0.794150 0.000000 0.500000
O O12 0.882530 0.579963 0.250000
O O13 0.857303 0.533333 0.977944
O O14 0.262424 0.068266 0.750000
O O15 0.210501 0.000000 0.500000
O O16 0.336695 0.541103 0.250000
#
# Coordination Sequence:
#
# PCOD8328071 Si02
#       6
#    12  12  12  12  12  12
#     4   9  17  30  46  67  94 126 164 207 249 293
#     4   9  16  26  40  62  91 126 166 212 261 308
#     4  10  20  35  55  81 108 134 164 199 237 281
#     4   8  16  29  44  64  93 124 159 202 247 290
#     4  11  21  35  56  81 107 134 162 197 237 281
#     4   9  16  25  40  61  89 124 165 209 257 307
#
# _framework density 17.441181
#
# number of rings (size 3 to 8) (size 9 to 14) (size 15 to 20)
#    0.000    2.667    0.000    3.833    0.000    6.667 
#    0.000    0.000    0.000    3.333    0.000    4.667 
#    0.000    0.000    0.000    0.000    0.000    0.000 
#
# Total GULP energy -892492.344556 kJ/mol
# GULP energy per Si atom -12395.727008 kJ/mol
# Density = 1.740148 g / cm^3
# Si number density = 17.441181 Si / 1000 Ang^3
#
#
#
# Elastic Constant Matrix: (Units=GPa)
#
#
# Indices 1 2 3 4 5 6 
#
# 1 95.0335 52.9515 44.6154 0.0000 0.0000 0.0000
# 2 52.9515 95.0335 44.6154 0.0000 0.0000 0.0000
# 3 44.6154 44.6154 91.4183 0.0000 0.0000 0.0000
# 4 0.0000 0.0000 0.0000 25.1343 0.0000 0.0000
# 5 0.0000 0.0000 0.0000 0.0000 25.1343 0.0000
# 6 0.0000 0.0000 0.0000 0.0000 0.0000 21.0410
#
#
#
# Elastic Compliance Matrix: (Units=1/GPa)
#
#
# Indices 1 2 3 4 5 6 
#
# 1 0.016669 -0.007094 -0.004673 0.000000 0.000000 0.000000
# 2 -0.007094 0.016669 -0.004673 0.000000 0.000000 0.000000
# 3 -0.004673 -0.004673 0.015500 0.000000 0.000000 0.000000
# 4 0.000000 0.000000 0.000000 0.039786 0.000000 0.000000
# 5 0.000000 0.000000 0.000000 0.000000 0.039786 0.000000
# 6 0.000000 0.000000 0.000000 0.000000 0.000000 0.047526
#
#
# Mechanical properties :
#
#
# Convention : Reuss Voigt Hill
#
# Bulk Modulus (GPa) = 62.66390 62.87222 62.76806
# Shear Modulus (GPa) = 23.34962 23.54880 23.44921
#
# Velocity S-wave (km/s) = 3.66288 3.67847 3.67068
# Velocity P-wave (km/s) = 7.34136 7.35989 7.35063
#
# Compressibility (1/GPa) = 0.01595815
#
# Stress axis : x y z
#
# Youngs Moduli (GPa) = 59.99113 59.99113 64.51646
#
# Poissons Ratio (x) = 0.42558 0.30149
# Poissons Ratio (y) = 0.42558 0.30149
# Poissons Ratio (z) = 0.28034 0.28034
#
# Static dielectric constant tensor:
#      x y z
#    x 3.220930 0.000000 0.000000 
#    y 0.000000 3.220930 0.000000 
#    z 0.000000 0.000000 3.288910 
# 
# 
# High freq. dielectric constant tensor:
#      x y z
#    x 1.653550 0.000000 0.000000 
#    y 0.000000 1.653550 0.000000 
#    z 0.000000 0.000000 1.677520 
# 
# From -- ./inp_files/1225.got.cif
#   From: 2010.06.25/outbox.cif.g09.slc.cpg/sg190_1_cif.got.tgz:1225.got - 2010.06.28 13:08:06.
