data_PCOD8328873
_publ_section_title
;
Structure prediction by ZEFSAII (Michael W. Deem and Ramdas Pophale) SiO2 
 PCOD8328873
Probable space group: P 6/M M M
;
_chemical_formula_sum "Si O2"
_cell_formula_units_Z 156
_cell_length_a 22.315081
_cell_length_b 22.315081
_cell_length_c 20.331910
_cell_angle_alpha 90.000000
_cell_angle_beta 90.000000
_cell_angle_gamma 120.000000
_cell_volume 8768.105072
_symmetry_space_group_name_H-M "P 6/M M M"
_symmetry_group_IT_number 191
_symmetry_cell_setting 'hexagonal'
loop_
_space_group_symop_operation_xyz
x,y,z
x-y,x,z
-y,x-y,z
-x,-y,z
-x+y,-x,z
y,-x+y,z
x-y,-y,-z
-x,-x+y,-z
y,x,-z
-y,-x,-z
-x+y,y,-z
x,x-y,-z
-x,-y,-z
-x+y,-x,-z
y,-x+y,-z
x,y,-z
x-y,x,-z
-y,x-y,-z
-x+y,y,z
x,x-y,z
-y,-x,z
y,x,z
x-y,-y,z
-x,-x+y,z
loop_
_atom_site_type_symbol
_atom_site_label
_atom_site_fract_x
_atom_site_fract_y
_atom_site_fract_z
Si Si1 0.615727 0.921254 0.878231
Si Si2 0.781663 0.080082 0.000000
Si Si3 0.528537 0.334480 0.683632
Si Si4 0.714019 0.923255 0.773152
Si Si5 0.807978 0.334165 0.166125
Si Si6 0.791419 0.715695 0.620804
Si Si7 0.429298 0.285783 0.572226
O O1 0.645088 0.908723 0.810680
O O2 0.533602 0.867249 0.879311
O O3 0.630338 0.000000 0.883041
O O4 0.653344 0.905680 0.937105
O O5 0.864638 0.135363 0.000000
O O6 0.765701 0.000000 0.000000
O O7 0.533842 0.266921 0.673642
O O8 0.602580 0.397421 0.666194
O O9 0.506917 0.339071 0.758198
O O10 0.475193 0.336614 0.630973
O O11 0.738023 0.869012 0.795282
O O12 0.694018 0.914187 0.697001
O O13 0.777061 0.000000 0.789745
O O14 0.801071 0.400536 0.146790
O O15 0.734289 0.265712 0.153514
O O16 0.869123 0.738246 0.598434
O O17 0.780490 0.780490 0.606703
O O18 0.734132 0.650090 0.580838
O O19 0.455055 0.320367 0.500000
O O20 0.432459 0.216230 0.577528
#
# Coordination Sequence:
#
# PCOD8328873 Si02
#       7
#    24  12  24  24  24  24  24
#     4  10  20  33  51  74  98 127 162 201 243 284
#     4  10  20  34  53  78 107 137 169 203 242 288
#     4   9  17  29  46  68  93 123 158 196 236 277
#     4   9  16  27  45  68  92 118 151 190 231 275
#     4  10  19  32  51  73  98 127 162 203 246 293
#     4   9  17  29  46  67  89 114 146 185 227 272
#     4   9  17  28  42  62  88 117 149 185 227 274
#
# _framework density 17.791758000000002
#
# number of rings (size 3 to 8) (size 9 to 14) (size 15 to 20)
#    0.000    2.615    0.000    2.615    0.000    4.615 
#    0.000    0.385    0.000    4.077    0.000    4.308 
#    0.000    3.692    0.000    4.000    0.000    4.308 
#
# Total GULP energy -1933628.620885 kJ/mol
# GULP energy per Si atom -12395.055262 kJ/mol
# Density = 1.775126 g / cm^3
# Si number density = 17.791758 Si / 1000 Ang^3
#
#
#
# Elastic Constant Matrix: (Units=GPa)
#
#
# Indices 1 2 3 4 5 6 
#
# 1 93.8877 46.9354 28.9084 0.0000 0.0000 0.0000
# 2 46.9354 93.8877 28.9084 0.0000 0.0000 0.0000
# 3 28.9084 28.9084 45.4904 0.0000 0.0000 0.0000
# 4 0.0000 0.0000 0.0000 18.3095 0.0000 0.0000
# 5 0.0000 0.0000 0.0000 0.0000 18.3095 0.0000
# 6 0.0000 0.0000 0.0000 0.0000 0.0000 23.4761
#
#
#
# Elastic Compliance Matrix: (Units=1/GPa)
#
#
# Indices 1 2 3 4 5 6 
#
# 1 0.015453 -0.005845 -0.006106 0.000000 0.000000 0.000000
# 2 -0.005845 0.015453 -0.006106 0.000000 0.000000 0.000000
# 3 -0.006106 -0.006106 0.029743 0.000000 0.000000 0.000000
# 4 0.000000 0.000000 0.000000 0.054616 0.000000 0.000000
# 5 0.000000 0.000000 0.000000 0.000000 0.054616 0.000000
# 6 0.000000 0.000000 0.000000 0.000000 0.000000 0.042596
#
#
# Mechanical properties :
#
#
# Convention : Reuss Voigt Hill
#
# Bulk Modulus (GPa) = 40.75659 49.19666 44.97662
# Shear Modulus (GPa) = 19.47270 20.58660 20.02965
#
# Velocity S-wave (km/s) = 3.31188 3.40529 3.35891
# Velocity P-wave (km/s) = 6.13042 6.57059 6.35432
#
# Compressibility (1/GPa) = 0.02453591
#
# Stress axis : x y z
#
# Youngs Moduli (GPa) = 64.71217 64.71217 33.62168
#
# Poissons Ratio (x) = 0.37825 0.20528
# Poissons Ratio (y) = 0.37825 0.20528
# Poissons Ratio (z) = 0.39511 0.39511
#
# Static dielectric constant tensor:
#      x y z
#    x 3.238060 0.000000 0.000000 
#    y 0.000000 3.238060 0.000000 
#    z 0.000000 0.000000 3.399500 
# 
# 
# High freq. dielectric constant tensor:
#      x y z
#    x 1.671410 0.000000 0.000000 
#    y 0.000000 1.671410 0.000000 
#    z 0.000000 0.000000 1.689410 
# 
# From -- ./inp_files/7740.got.cif
#   From: 2010.03.12/outbox.cif.g09.slc.cpg/sg191_4_cif.got.tgz:7740.got - 2010.04.01 12:09:02.
