data_PCOD8328470
_publ_section_title
;
Structure prediction by ZEFSAII (Michael W. Deem and Ramdas Pophale) SiO2 
 PCOD8328470
Probable space group: P 6/M M M
;
_chemical_formula_sum "Si O2"
_cell_formula_units_Z 132
_cell_length_a 18.038652
_cell_length_b 18.038652
_cell_length_c 29.148598
_cell_angle_alpha 90.000000
_cell_angle_beta 90.000000
_cell_angle_gamma 120.000000
_cell_volume 8214.033372
_symmetry_space_group_name_H-M "P 6/M M M"
_symmetry_group_IT_number 191
_symmetry_cell_setting 'hexagonal'
loop_
_space_group_symop_operation_xyz
x,y,z
x-y,x,z
-y,x-y,z
-x,-y,z
-x+y,-x,z
y,-x+y,z
x-y,-y,-z
-x,-x+y,-z
y,x,-z
-y,-x,-z
-x+y,y,-z
x,x-y,-z
-x,-y,-z
-x+y,-x,-z
y,-x+y,-z
x,y,-z
x-y,x,-z
-y,x-y,-z
-x+y,y,z
x,x-y,z
-y,-x,z
y,x,z
x-y,-y,z
-x,-x+y,z
loop_
_atom_site_type_symbol
_atom_site_label
_atom_site_fract_x
_atom_site_fract_y
_atom_site_fract_z
Si Si1 0.364562 0.459210 0.703047
Si Si2 0.000000 0.661591 0.945688
Si Si3 0.490620 0.159018 0.897317
Si Si4 0.000000 0.169029 0.945404
Si Si5 0.501186 0.832672 0.204188
Si Si6 0.411853 0.000000 0.551739
Si Si7 0.494450 0.164237 0.392803
O O1 0.452371 0.547630 0.706962
O O2 0.382283 0.382283 0.692740
O O3 0.312832 0.437902 0.751460
O O4 0.311817 0.465558 0.660433
O O5 0.915354 0.576448 0.929747
O O6 0.000000 0.746252 0.927261
O O7 0.000000 0.661035 0.000000
O O8 0.583990 0.167980 0.901769
O O9 0.498786 0.249393 0.911669
O O10 0.453594 0.133043 0.845176
O O11 0.084665 0.169330 0.926748
O O12 0.000000 0.168045 0.000000
O O13 0.427526 0.855051 0.208403
O O14 0.461670 0.730835 0.205984
O O15 0.424794 0.084076 0.577856
O O16 0.500000 0.000000 0.552405
O O17 0.380860 0.000000 0.500000
O O18 0.587429 0.174858 0.398094
O O19 0.497819 0.248910 0.412316
#
# Coordination Sequence:
#
# PCOD8328470 Si02
#       7
#    24  12  24  12  24  12  24
#     4   9  16  26  41  62  90 121 150 183 228 280
#     4  11  23  37  52  72  98 126 157 196 241 285
#     4  10  21  36  53  72  95 125 161 199 239 284
#     4   9  17  31  53  78 100 120 143 176 222 277
#     4   9  17  28  44  65  89 116 149 190 233 275
#     4   9  18  32  45  58  84 120 155 197 248 287
#     4  10  18  29  45  66  90 120 159 199 236 276
#
# _framework density 16.070058
#
# number of rings (size 3 to 8) (size 9 to 14) (size 15 to 20)
#    0.000    2.455    0.909    2.000    1.273    4.000 
#    0.000    1.818    0.000    2.182    0.000    0.000 
#    0.000    0.000    0.000    0.273    0.000    1.182 
#
# Total GULP energy -1635775.921320 kJ/mol
# GULP energy per Si atom -12392.241828 kJ/mol
# Density = 1.603348 g / cm^3
# Si number density = 16.070058 Si / 1000 Ang^3
#
#
#
# Elastic Constant Matrix: (Units=GPa)
#
#
# Indices 1 2 3 4 5 6 
#
# 1 86.8625 42.6154 37.7284 0.0000 0.0000 0.0000
# 2 42.6154 86.8625 37.7284 0.0000 0.0000 0.0000
# 3 37.7284 37.7284 90.7012 0.0000 0.0000 0.0000
# 4 0.0000 0.0000 0.0000 16.7808 0.0000 0.0000
# 5 0.0000 0.0000 0.0000 0.0000 16.7808 0.0000
# 6 0.0000 0.0000 0.0000 0.0000 0.0000 22.1235
#
#
#
# Elastic Compliance Matrix: (Units=1/GPa)
#
#
# Indices 1 2 3 4 5 6 
#
# 1 0.016398 -0.006203 -0.004241 0.000000 0.000000 0.000000
# 2 -0.006203 0.016398 -0.004241 0.000000 0.000000 0.000000
# 3 -0.004241 -0.004241 0.014553 0.000000 0.000000 0.000000
# 4 0.000000 0.000000 0.000000 0.059592 0.000000 0.000000
# 5 0.000000 0.000000 0.000000 0.000000 0.059592 0.000000
# 6 0.000000 0.000000 0.000000 0.000000 0.000000 0.045201
#
#
# Mechanical properties :
#
#
# Convention : Reuss Voigt Hill
#
# Bulk Modulus (GPa) = 55.61745 55.61897 55.61821
# Shear Modulus (GPa) = 20.23518 20.89394 20.56456
#
# Velocity S-wave (km/s) = 3.55235 3.60971 3.58114
# Velocity P-wave (km/s) = 7.17705 7.21518 7.19614
#
# Compressibility (1/GPa) = 0.01797997
#
# Stress axis : x y z
#
# Youngs Moduli (GPa) = 60.98485 60.98485 68.71390
#
# Poissons Ratio (x) = 0.37828 0.29139
# Poissons Ratio (y) = 0.37828 0.29139
# Poissons Ratio (z) = 0.25861 0.25861
#
# Static dielectric constant tensor:
#      x y z
#    x 2.924350 0.000000 0.000000 
#    y 0.000000 2.924350 0.000000 
#    z 0.000000 0.000000 3.261260 
# 
# 
# High freq. dielectric constant tensor:
#      x y z
#    x 1.594790 0.000000 0.000000 
#    y 0.000000 1.594790 0.000000 
#    z 0.000000 0.000000 1.620360 
# 
# From -- ./inp_files/10585.got.cif
#   From: 2010.03.12/outbox.cif.g09.slc.cpg/sg191_6_cif.got.tgz:10585.got - 2010.04.01 12:09:02.
