data_PCOD8328322
_publ_section_title
;
Structure prediction by ZEFSAII (Michael W. Deem and Ramdas Pophale) SiO2 
 PCOD8328322
Probable space group: P 6/M M M
;
_chemical_formula_sum "Si O2"
_cell_formula_units_Z 120
_cell_length_a 18.164705
_cell_length_b 18.164705
_cell_length_c 27.127456
_cell_angle_alpha 90.000000
_cell_angle_beta 90.000000
_cell_angle_gamma 120.000000
_cell_volume 7751.690025
_symmetry_space_group_name_H-M "P 6/M M M"
_symmetry_group_IT_number 191
_symmetry_cell_setting 'hexagonal'
loop_
_space_group_symop_operation_xyz
x,y,z
x-y,x,z
-y,x-y,z
-x,-y,z
-x+y,-x,z
y,-x+y,z
x-y,-y,-z
-x,-x+y,-z
y,x,-z
-y,-x,-z
-x+y,y,-z
x,x-y,-z
-x,-y,-z
-x+y,-x,-z
y,-x+y,-z
x,y,-z
x-y,x,-z
-y,x-y,-z
-x+y,y,z
x,x-y,z
-y,-x,z
y,x,z
x-y,-y,z
-x,-x+y,z
loop_
_atom_site_type_symbol
_atom_site_label
_atom_site_fract_x
_atom_site_fract_y
_atom_site_fract_z
Si Si1 0.532453 0.632174 0.398070
Si Si2 0.496637 0.331730 0.112696
Si Si3 0.637334 0.900833 0.309502
Si Si4 0.587552 0.587552 0.055895
Si Si5 0.501307 0.832648 0.500000
Si Si6 0.533798 0.631000 0.781793
O O1 0.430017 0.569984 0.391416
O O2 0.574567 0.574567 0.396525
O O3 0.571204 0.700442 0.354623
O O4 0.555341 0.682552 0.450199
O O5 0.493933 0.246967 0.093761
O O6 0.589054 0.410947 0.101208
O O7 0.424357 0.340495 0.083287
O O8 0.477915 0.323291 0.170989
O O9 0.678442 0.839221 0.308880
O O10 0.582564 0.883257 0.260333
O O11 0.711384 0.000000 0.313679
O O12 0.500000 0.500000 0.058439
O O13 0.616637 0.616637 0.000000
O O14 0.427689 0.855378 0.500000
O O15 0.464188 0.732094 0.500000
O O16 0.442060 0.557940 0.761383
O O17 0.587515 0.587515 0.799360
#
# Coordination Sequence:
#
# PCOD8328322 Si02
#       6
#    24  24  24  12  12  24
#     4   9  17  29  44  61  80 107 142 179 217 258
#     4  10  18  29  45  66  90 117 151 187 222 258
#     4  10  19  30  45  65  88 113 144 181 221 263
#     4   9  18  32  46  60  84 118 151 182 220 262
#     4  10  18  27  39  55  80 111 143 173 205 246
#     4   9  16  28  46  66  88 116 145 173 209 257
#
# _framework density 15.480494999999999
#
# number of rings (size 3 to 8) (size 9 to 14) (size 15 to 20)
#    0.000    2.500    1.000    2.400    0.000    4.000 
#    0.000    0.000    0.000    7.000    0.000    0.000 
#    0.000    0.000    0.000    0.300    0.000   22.100 
#
# Total GULP energy -1487506.322823 kJ/mol
# GULP energy per Si atom -12395.886024 kJ/mol
# Density = 1.544526 g / cm^3
# Si number density = 15.480495 Si / 1000 Ang^3
#
#
#
# Elastic Constant Matrix: (Units=GPa)
#
#
# Indices 1 2 3 4 5 6 
#
# 1 72.6146 40.9492 34.8052 0.0000 0.0000 0.0000
# 2 40.9492 72.6146 34.8052 0.0000 0.0000 0.0000
# 3 34.8052 34.8052 84.1374 0.0000 0.0000 0.0000
# 4 0.0000 0.0000 0.0000 4.5154 0.0000 0.0000
# 5 0.0000 0.0000 0.0000 0.0000 4.5154 0.0000
# 6 0.0000 0.0000 0.0000 0.0000 0.0000 15.8327
#
#
#
# Elastic Compliance Matrix: (Units=1/GPa)
#
#
# Indices 1 2 3 4 5 6 
#
# 1 0.021689 -0.009892 -0.004880 0.000000 0.000000 0.000000
# 2 -0.009892 0.021689 -0.004880 0.000000 0.000000 0.000000
# 3 -0.004880 -0.004880 0.015923 0.000000 0.000000 0.000000
# 4 0.000000 0.000000 0.000000 0.221464 0.000000 0.000000
# 5 0.000000 0.000000 0.000000 0.000000 0.221464 0.000000
# 6 0.000000 0.000000 0.000000 0.000000 0.000000 0.063160
#
#
# Mechanical properties :
#
#
# Convention : Reuss Voigt Hill
#
# Bulk Modulus (GPa) = 50.00892 50.05400 50.03146
# Shear Modulus (GPa) = 8.17853 12.89317 10.53585
#
# Velocity S-wave (km/s) = 2.30100 2.88907 2.61164
# Velocity P-wave (km/s) = 6.27965 6.59794 6.44076
#
# Compressibility (1/GPa) = 0.01999643
#
# Stress axis : x y z
#
# Youngs Moduli (GPa) = 46.10723 46.10723 62.80314
#
# Poissons Ratio (x) = 0.45608 0.30648
# Poissons Ratio (y) = 0.45608 0.30648
# Poissons Ratio (z) = 0.22500 0.22500
#
# Static dielectric constant tensor:
#      x y z
#    x 3.138990 0.000000 0.000000 
#    y 0.000000 3.138990 0.000000 
#    z 0.000000 0.000000 3.120620 
# 
# 
# High freq. dielectric constant tensor:
#      x y z
#    x 1.567170 0.000000 0.000000 
#    y 0.000000 1.567170 0.000000 
#    z 0.000000 0.000000 1.607240 
# 
# From -- ./inp_files/9569.got.cif
#   From: 2010.03.12/outbox.cif.g09.slc.cpg/sg191_5_cif.got.tgz:9569.got - 2010.04.01 12:09:02.
