data_PCOD8328887
_publ_section_title
;
Structure prediction by ZEFSAII (Michael W. Deem and Ramdas Pophale) SiO2 
 PCOD8328887
Probable space group: P 6/M M M
;
_chemical_formula_sum "Si O2"
_cell_formula_units_Z 132
_cell_length_a 18.029389
_cell_length_b 18.029389
_cell_length_c 27.665619
_cell_angle_alpha 90.000000
_cell_angle_beta 90.000000
_cell_angle_gamma 120.000000
_cell_volume 7788.127300
_symmetry_space_group_name_H-M "P 6/M M M"
_symmetry_group_IT_number 191
_symmetry_cell_setting 'hexagonal'
loop_
_space_group_symop_operation_xyz
x,y,z
x-y,x,z
-y,x-y,z
-x,-y,z
-x+y,-x,z
y,-x+y,z
x-y,-y,-z
-x,-x+y,-z
y,x,-z
-y,-x,-z
-x+y,y,-z
x,x-y,-z
-x,-y,-z
-x+y,-x,-z
y,-x+y,-z
x,y,-z
x-y,x,-z
-y,x-y,-z
-x+y,y,z
x,x-y,z
-y,-x,z
y,x,z
x-y,-y,z
-x,-x+y,z
loop_
_atom_site_type_symbol
_atom_site_label
_atom_site_fract_x
_atom_site_fract_y
_atom_site_fract_z
Si Si1 0.500022 0.166612 0.557066
Si Si2 0.095560 0.741655 0.945620
Si Si3 0.668804 0.164261 0.759603
Si Si4 0.000000 0.413641 0.695698
Si Si5 0.663195 0.000000 0.405121
Si Si6 0.533118 0.899621 0.862863
Si Si7 0.000000 0.826118 0.443685
O O1 0.508560 0.174227 0.500000
O O2 0.580340 0.160680 0.578992
O O3 0.501681 0.250841 0.578596
O O4 0.411855 0.083524 0.569953
O O5 0.156402 0.843599 0.940527
O O6 0.127887 0.695122 0.908988
O O7 0.000000 0.720761 0.932928
O O8 0.100086 0.710918 0.000000
O O9 0.592686 0.185371 0.757561
O O10 0.754796 0.245205 0.739550
O O11 0.647255 0.083239 0.726760
O O12 0.685206 0.146698 0.814613
O O13 0.000000 0.500000 0.679453
O O14 0.000000 0.358253 0.650801
O O15 0.751897 0.000000 0.411400
O O16 0.435467 0.870934 0.874859
O O17 0.587438 0.000000 0.852776
O O18 0.916486 0.832971 0.431035
O O19 0.000000 0.803212 0.500000
#
# Coordination Sequence:
#
# PCOD8328887 Si02
#       7
#    24  24  24  12  12  24  12
#     4  10  20  34  52  75 104 137 170 203 242 290
#     4   9  17  28  43  66  96 128 162 198 239 289
#     4  10  19  33  52  72  93 122 162 205 246 291
#     4  10  22  38  51  68  99 134 164 202 255 298
#     4  12  22  34  54  78 103 131 170 213 249 291
#     4   9  16  28  47  69  94 123 155 193 239 290
#     4  10  21  38  60  85 112 139 166 199 243 295
#
# _framework density 16.948875000000001
#
# number of rings (size 3 to 8) (size 9 to 14) (size 15 to 20)
#    0.000    2.182    0.909    3.182    0.000    5.091 
#    0.000    1.818    0.000    2.727    0.000    1.273 
#    0.000    0.000    0.000    0.000    0.000    0.000 
#
# Total GULP energy -1636631.031651 kJ/mol
# GULP energy per Si atom -12398.719937 kJ/mol
# Density = 1.691030 g / cm^3
# Si number density = 16.948875 Si / 1000 Ang^3
#
#
#
# Elastic Constant Matrix: (Units=GPa)
#
#
# Indices 1 2 3 4 5 6 
#
# 1 116.7995 59.2851 44.7675 0.0000 0.0000 0.0000
# 2 59.2851 116.7995 44.7675 0.0000 0.0000 0.0000
# 3 44.7675 44.7675 76.6081 0.0000 0.0000 0.0000
# 4 0.0000 0.0000 0.0000 20.6275 0.0000 0.0000
# 5 0.0000 0.0000 0.0000 0.0000 20.6275 0.0000
# 6 0.0000 0.0000 0.0000 0.0000 0.0000 28.7572
#
#
#
# Elastic Compliance Matrix: (Units=1/GPa)
#
#
# Indices 1 2 3 4 5 6 
#
# 1 0.012733 -0.004653 -0.004722 0.000000 0.000000 0.000000
# 2 -0.004653 0.012733 -0.004722 0.000000 0.000000 0.000000
# 3 -0.004722 -0.004722 0.018572 0.000000 0.000000 0.000000
# 4 0.000000 0.000000 0.000000 0.048479 0.000000 0.000000
# 5 0.000000 0.000000 0.000000 0.000000 0.048479 0.000000
# 6 0.000000 0.000000 0.000000 0.000000 0.000000 0.034774
#
#
# Mechanical properties :
#
#
# Convention : Reuss Voigt Hill
#
# Bulk Modulus (GPa) = 63.11122 67.53859 65.32490
# Shear Modulus (GPa) = 23.89532 24.76158 24.32845
#
# Velocity S-wave (km/s) = 3.75887 3.82639 3.79278
# Velocity P-wave (km/s) = 7.49372 7.71081 7.60304
#
# Compressibility (1/GPa) = 0.01584504
#
# Stress axis : x y z
#
# Youngs Moduli (GPa) = 78.53328 78.53328 53.84486
#
# Poissons Ratio (x) = 0.36545 0.25424
# Poissons Ratio (y) = 0.36545 0.25424
# Poissons Ratio (z) = 0.37081 0.37081
#
# Static dielectric constant tensor:
#      x y z
#    x 3.234410 0.000000 0.000000 
#    y 0.000000 3.234410 0.000000 
#    z 0.000000 0.000000 3.150370 
# 
# 
# High freq. dielectric constant tensor:
#      x y z
#    x 1.651670 0.000000 0.000000 
#    y 0.000000 1.651670 0.000000 
#    z 0.000000 0.000000 1.646520 
# 
# From -- ./inp_files/9855.got.cif
#   From: 2010.03.12/outbox.cif.g09.slc.cpg/sg191_5_cif.got.tgz:9855.got - 2010.04.01 12:09:02.
