data_PCOD8328520
_publ_section_title
;
Structure prediction by ZEFSAII (Michael W. Deem and Ramdas Pophale) SiO2 
 PCOD8328520
Probable space group: P 6/M M M
;
_chemical_formula_sum "Si O2"
_cell_formula_units_Z 120
_cell_length_a 22.727047
_cell_length_b 22.727047
_cell_length_c 15.434857
_cell_angle_alpha 90.000000
_cell_angle_beta 90.000000
_cell_angle_gamma 120.000000
_cell_volume 6904.293773
_symmetry_space_group_name_H-M "P 6/M M M"
_symmetry_group_IT_number 191
_symmetry_cell_setting 'hexagonal'
loop_
_space_group_symop_operation_xyz
x,y,z
x-y,x,z
-y,x-y,z
-x,-y,z
-x+y,-x,z
y,-x+y,z
x-y,-y,-z
-x,-x+y,-z
y,x,-z
-y,-x,-z
-x+y,y,-z
x,x-y,-z
-x,-y,-z
-x+y,-x,-z
y,-x+y,-z
x,y,-z
x-y,x,-z
-y,x-y,-z
-x+y,y,z
x,x-y,z
-y,-x,z
y,x,z
x-y,-y,z
-x,-x+y,z
loop_
_atom_site_type_symbol
_atom_site_label
_atom_site_fract_x
_atom_site_fract_y
_atom_site_fract_z
Si Si1 0.851810 0.566478 0.658814
Si Si2 0.666745 0.472807 0.500000
Si Si3 0.078478 0.669233 0.829570
Si Si4 0.919294 0.526493 0.000000
Si Si5 0.206146 0.281720 0.602743
Si Si6 0.206488 0.281522 0.900524
O O1 0.778461 0.556922 0.677252
O O2 0.847053 0.515158 0.584233
O O3 0.879170 0.548987 0.745889
O O4 0.905011 0.643159 0.631474
O O5 0.598840 0.401161 0.500000
O O6 0.730402 0.460804 0.500000
O O7 0.109635 0.652542 0.913674
O O8 0.087455 0.743788 0.839831
O O9 0.000000 0.612531 0.816958
O O10 0.894664 0.447332 0.000000
O O11 0.000000 0.573439 0.000000
O O12 0.204508 0.280386 0.500000
O O13 0.130983 0.261966 0.638217
O O14 0.228546 0.228546 0.638637
O O15 0.129028 0.258056 0.876662
O O16 0.217578 0.217578 0.884150
O O17 0.223803 0.306097 0.000000
#
# Coordination Sequence:
#
# PCOD8328520 Si02
#       6
#    24  12  24  12  24  24
#     4  10  19  32  50  75 100 126 161 206 252 292
#     4  10  21  38  57  75  98 127 162 200 243 297
#     4  10  18  30  48  71  97 129 165 200 243 293
#     4   9  18  32  47  64  93 130 162 189 226 288
#     4   9  16  28  47  69  96 131 168 205 247 293
#     4   9  16  27  44  67  95 127 165 209 253 295
#
# _framework density 17.380489000000001
#
# number of rings (size 3 to 8) (size 9 to 14) (size 15 to 20)
#    0.000    2.500    2.000    1.300    0.000    0.800 
#    0.000    0.000    0.000    4.600    0.000    2.800 
#    0.000    0.000    0.000    6.800    0.000    9.200 
#
# Total GULP energy -1487765.884717 kJ/mol
# GULP energy per Si atom -12398.049039 kJ/mol
# Density = 1.734093 g / cm^3
# Si number density = 17.380489 Si / 1000 Ang^3
#
#
#
# Elastic Constant Matrix: (Units=GPa)
#
#
# Indices 1 2 3 4 5 6 
#
# 1 85.6034 45.1233 52.6916 0.0000 0.0000 0.0000
# 2 45.1233 85.6034 52.6916 0.0000 0.0000 0.0000
# 3 52.6916 52.6916 114.1380 0.0000 0.0000 0.0000
# 4 0.0000 0.0000 0.0000 13.8281 0.0000 0.0000
# 5 0.0000 0.0000 0.0000 0.0000 13.8281 0.0000
# 6 0.0000 0.0000 0.0000 0.0000 0.0000 20.2401
#
#
#
# Elastic Compliance Matrix: (Units=1/GPa)
#
#
# Indices 1 2 3 4 5 6 
#
# 1 0.018444 -0.006260 -0.005625 0.000000 0.000000 0.000000
# 2 -0.006260 0.018444 -0.005625 0.000000 0.000000 0.000000
# 3 -0.005625 -0.005625 0.013954 0.000000 0.000000 0.000000
# 4 0.000000 0.000000 0.000000 0.072316 0.000000 0.000000
# 5 0.000000 0.000000 0.000000 0.000000 0.072316 0.000000
# 6 0.000000 0.000000 0.000000 0.000000 0.000000 0.049407
#
#
# Mechanical properties :
#
#
# Convention : Reuss Voigt Hill
#
# Bulk Modulus (GPa) = 63.19689 65.15086 64.17388
# Shear Modulus (GPa) = 17.53315 18.56849 18.05082
#
# Velocity S-wave (km/s) = 3.17958 3.27211 3.22618
# Velocity P-wave (km/s) = 7.06537 7.20014 7.13307
#
# Compressibility (1/GPa) = 0.01582356
#
# Stress axis : x y z
#
# Youngs Moduli (GPa) = 54.21936 54.21936 71.66157
#
# Poissons Ratio (x) = 0.33941 0.40307
# Poissons Ratio (y) = 0.33941 0.40307
# Poissons Ratio (z) = 0.30496 0.30496
#
# Static dielectric constant tensor:
#      x y z
#    x 3.131030 0.000000 0.000000 
#    y 0.000000 3.131030 0.000000 
#    z 0.000000 0.000000 3.350950 
# 
# 
# High freq. dielectric constant tensor:
#      x y z
#    x 1.646770 0.000000 0.000000 
#    y 0.000000 1.646770 0.000000 
#    z 0.000000 0.000000 1.682830 
# 
# From -- ./inp_files/4813.got.cif
#   From: 2010.03.12/outbox.cif.g09.slc.cpg/sg191_3_cif.got.tgz:4813.got - 2010.04.01 12:09:02.
