data_PCOD8328474
_publ_section_title
;
Structure prediction by ZEFSAII (Michael W. Deem and Ramdas Pophale) SiO2 
 PCOD8328474
Probable space group: P 6/M M M
;
_chemical_formula_sum "Si O2"
_cell_formula_units_Z 132
_cell_length_a 17.822009
_cell_length_b 17.822009
_cell_length_c 28.881922
_cell_angle_alpha 90.000000
_cell_angle_beta 90.000000
_cell_angle_gamma 120.000000
_cell_volume 7944.563484
_symmetry_space_group_name_H-M "P 6/M M M"
_symmetry_group_IT_number 191
_symmetry_cell_setting 'hexagonal'
loop_
_space_group_symop_operation_xyz
x,y,z
x-y,x,z
-y,x-y,z
-x,-y,z
-x+y,-x,z
y,-x+y,z
x-y,-y,-z
-x,-x+y,-z
y,x,-z
-y,-x,-z
-x+y,y,-z
x,x-y,-z
-x,-y,-z
-x+y,-x,-z
y,-x+y,-z
x,y,-z
x-y,x,-z
-y,x-y,-z
-x+y,y,z
x,x-y,z
-y,-x,z
y,x,z
x-y,-y,z
-x,-x+y,z
loop_
_atom_site_type_symbol
_atom_site_label
_atom_site_fract_x
_atom_site_fract_y
_atom_site_fract_z
Si Si1 0.000000 0.589389 0.447730
Si Si2 0.535257 0.899814 0.887548
Si Si3 0.100671 0.634388 0.709642
Si Si4 0.732539 0.633106 0.797762
Si Si5 0.492933 0.162403 0.609707
Si Si6 0.901308 0.098693 0.055122
Si Si7 0.197769 0.802232 0.945194
O O1 0.083944 0.662211 0.420997
O O2 0.000000 0.500000 0.446941
O O3 0.000000 0.620471 0.500000
O O4 0.432708 0.865416 0.885201
O O5 0.565040 0.883226 0.838210
O O6 0.554171 0.849987 0.927686
O O7 0.586999 0.000000 0.900923
O O8 0.128347 0.564173 0.724984
O O9 0.123060 0.702766 0.750348
O O10 0.150446 0.684120 0.663578
O O11 0.000000 0.585039 0.697362
O O12 0.835872 0.671744 0.803501
O O13 0.711839 0.711839 0.798423
O O14 0.585759 0.171518 0.603042
O O15 0.497083 0.248542 0.590877
O O16 0.851907 0.148094 0.073537
O O17 0.000000 0.148406 0.074016
O O18 0.901841 0.098160 0.000000
O O19 0.198477 0.801524 0.000000
#
# Coordination Sequence:
#
# PCOD8328474 Si02
#       7
#    12  24  24  24  24  12  12
#     4   9  18  32  46  60  88 132 173 207 248 294
#     4  10  21  38  57  76 100 131 167 206 249 298
#     4   9  16  28  48  73 100 131 164 199 243 296
#     4  10  19  33  54  78 103 132 165 201 246 301
#     4  10  18  29  45  68  97 128 166 210 253 296
#     4   9  17  30  51  80 110 136 162 199 248 300
#     4  11  22  37  56  77 102 134 173 212 250 297
#
# _framework density 16.615134999999999
#
# number of rings (size 3 to 8) (size 9 to 14) (size 15 to 20)
#    0.000    2.273    1.818    1.909    0.000    4.364 
#    0.545    0.909    0.000    2.727    0.000    0.000 
#    0.000    0.000    0.000    0.273    0.000    1.182 
#
# Total GULP energy -1636774.246774 kJ/mol
# GULP energy per Si atom -12399.804900 kJ/mol
# Density = 1.657732 g / cm^3
# Si number density = 16.615135 Si / 1000 Ang^3
#
#
#
# Elastic Constant Matrix: (Units=GPa)
#
#
# Indices 1 2 3 4 5 6 
#
# 1 104.5394 56.8922 47.0067 0.0000 0.0000 0.0000
# 2 56.8922 104.5394 47.0067 0.0000 0.0000 0.0000
# 3 47.0067 47.0067 81.4082 0.0000 0.0000 0.0000
# 4 0.0000 0.0000 0.0000 15.5547 0.0000 0.0000
# 5 0.0000 0.0000 0.0000 0.0000 15.5547 0.0000
# 6 0.0000 0.0000 0.0000 0.0000 0.0000 23.8236
#
#
#
# Elastic Compliance Matrix: (Units=1/GPa)
#
#
# Indices 1 2 3 4 5 6 
#
# 1 0.015160 -0.005827 -0.005389 0.000000 0.000000 0.000000
# 2 -0.005827 0.015160 -0.005389 0.000000 0.000000 0.000000
# 3 -0.005389 -0.005389 0.018507 0.000000 0.000000 0.000000
# 4 0.000000 0.000000 0.000000 0.064289 0.000000 0.000000
# 5 0.000000 0.000000 0.000000 0.000000 0.064289 0.000000
# 6 0.000000 0.000000 0.000000 0.000000 0.000000 0.041975
#
#
# Mechanical properties :
#
#
# Convention : Reuss Voigt Hill
#
# Bulk Modulus (GPa) = 64.03259 65.81091 64.92175
# Shear Modulus (GPa) = 19.39503 20.29203 19.84353
#
# Velocity S-wave (km/s) = 3.42030 3.49850 3.45962
# Velocity P-wave (km/s) = 7.36344 7.48427 7.42410
#
# Compressibility (1/GPa) = 0.01561705
#
# Stress axis : x y z
#
# Youngs Moduli (GPa) = 65.96167 65.96167 54.03279
#
# Poissons Ratio (x) = 0.38438 0.29119
# Poissons Ratio (y) = 0.38438 0.29119
# Poissons Ratio (z) = 0.35547 0.35547
#
# Static dielectric constant tensor:
#      x y z
#    x 3.082880 0.000000 0.000000 
#    y 0.000000 3.082880 0.000000 
#    z 0.000000 0.000000 3.089020 
# 
# 
# High freq. dielectric constant tensor:
#      x y z
#    x 1.627850 0.000000 0.000000 
#    y 0.000000 1.627850 0.000000 
#    z 0.000000 0.000000 1.638400 
# 
# From -- ./inp_files/9884.got.cif
#   From: 2010.03.12/outbox.cif.g09.slc.cpg/sg191_5_cif.got.tgz:9884.got - 2010.04.01 12:09:02.
