data_PCOD8328332
_publ_section_title
;
Structure prediction by ZEFSAII (Michael W. Deem and Ramdas Pophale) SiO2 
 PCOD8328332
Probable space group: P 6/M M M
;
_chemical_formula_sum "Si O2"
_cell_formula_units_Z 168
_cell_length_a 22.381196
_cell_length_b 22.381196
_cell_length_c 25.519070
_cell_angle_alpha 90.000000
_cell_angle_beta 90.000000
_cell_angle_gamma 120.000000
_cell_volume 11070.367950
_symmetry_space_group_name_H-M "P 6/M M M"
_symmetry_group_IT_number 191
_symmetry_cell_setting 'hexagonal'
loop_
_space_group_symop_operation_xyz
x,y,z
x-y,x,z
-y,x-y,z
-x,-y,z
-x+y,-x,z
y,-x+y,z
x-y,-y,-z
-x,-x+y,-z
y,x,-z
-y,-x,-z
-x+y,y,-z
x,x-y,-z
-x,-y,-z
-x+y,-x,-z
y,-x+y,-z
x,y,-z
x-y,x,-z
-y,x-y,-z
-x+y,y,z
x,x-y,z
-y,-x,z
y,x,z
x-y,-y,z
-x,-x+y,z
loop_
_atom_site_type_symbol
_atom_site_label
_atom_site_fract_x
_atom_site_fract_y
_atom_site_fract_z
Si Si1 0.563424 0.711206 0.845717
Si Si2 0.079201 0.608305 0.559578
Si Si3 0.287999 0.076732 0.184755
Si Si4 0.805519 0.472175 0.059268
Si Si5 0.525209 0.333753 0.748428
Si Si6 0.286787 0.077016 0.307539
Si Si7 0.564782 0.712696 0.650105
O O1 0.564597 0.782299 0.839323
O O2 0.642627 0.729215 0.842867
O O3 0.532434 0.675491 0.901637
O O4 0.516474 0.662029 0.798773
O O5 0.090120 0.635451 0.500000
O O6 0.101077 0.550539 0.565052
O O7 0.127427 0.671363 0.596363
O O8 0.000000 0.577058 0.576460
O O9 0.267689 0.133845 0.166105
O O10 0.303726 0.084615 0.246238
O O11 0.225589 0.000000 0.170688
O O12 0.727376 0.454751 0.067690
O O13 0.807267 0.403634 0.072962
O O14 0.830515 0.497183 0.000000
O O15 0.533200 0.266600 0.750522
O O16 0.600387 0.399614 0.747877
O O17 0.483875 0.334290 0.697076
O O18 0.261772 0.130886 0.324301
O O19 0.356102 0.093126 0.337265
O O20 0.226585 0.000000 0.322203
O O21 0.554163 0.777082 0.641620
#
# Coordination Sequence:
#
# PCOD8328332 Si02
#       7
#    24  24  24  24  24  24  24
#     4   9  16  27  41  59  84 112 144 180 216 254
#     4   9  18  32  47  61  79 106 141 180 220 260
#     4   9  16  28  46  66  88 112 138 169 205 248
#     4   9  16  25  39  59  83 113 151 194 233 264
#     4  10  18  27  39  57  82 112 144 180 221 260
#     4   9  16  27  44  65  88 112 137 166 203 247
#     4  10  18  28  43  63  86 111 140 174 213 257
#
# _framework density 15.175647
#
# number of rings (size 3 to 8) (size 9 to 14) (size 15 to 20)
#    0.000    2.714    1.429    2.000    0.000    0.857 
#    0.000    1.429    0.000    3.571    0.000    3.000 
#    0.000    0.000    0.000    0.000    0.000    0.000 
#
# Total GULP energy -2082710.779541 kJ/mol
# GULP energy per Si atom -12397.087973 kJ/mol
# Density = 1.514111 g / cm^3
# Si number density = 15.175647 Si / 1000 Ang^3
#
#
#
# Elastic Constant Matrix: (Units=GPa)
#
#
# Indices 1 2 3 4 5 6 
#
# 1 76.0397 41.4804 37.5008 0.0000 0.0000 0.0000
# 2 41.4804 76.0397 37.5008 0.0000 0.0000 0.0000
# 3 37.5008 37.5008 75.7055 0.0000 0.0000 0.0000
# 4 0.0000 0.0000 0.0000 18.3905 0.0000 0.0000
# 5 0.0000 0.0000 0.0000 0.0000 18.3905 0.0000
# 6 0.0000 0.0000 0.0000 0.0000 0.0000 17.2796
#
#
#
# Elastic Compliance Matrix: (Units=1/GPa)
#
#
# Indices 1 2 3 4 5 6 
#
# 1 0.020689 -0.008247 -0.006164 0.000000 0.000000 0.000000
# 2 -0.008247 0.020689 -0.006164 0.000000 0.000000 0.000000
# 3 -0.006164 -0.006164 0.019315 0.000000 0.000000 0.000000
# 4 0.000000 0.000000 0.000000 0.054376 0.000000 0.000000
# 5 0.000000 0.000000 0.000000 0.000000 0.054376 0.000000
# 6 0.000000 0.000000 0.000000 0.000000 0.000000 0.057872
#
#
# Mechanical properties :
#
#
# Convention : Reuss Voigt Hill
#
# Bulk Modulus (GPa) = 51.15955 51.19432 51.17694
# Shear Modulus (GPa) = 18.18312 18.23230 18.20771
#
# Velocity S-wave (km/s) = 3.46523 3.46991 3.46757
# Velocity P-wave (km/s) = 7.05657 7.06126 7.05892
#
# Compressibility (1/GPa) = 0.01954669
#
# Stress axis : x y z
#
# Youngs Moduli (GPa) = 48.33417 48.33417 51.77244
#
# Poissons Ratio (x) = 0.39859 0.31910
# Poissons Ratio (y) = 0.39859 0.31910
# Poissons Ratio (z) = 0.29791 0.29791
#
# Static dielectric constant tensor:
#      x y z
#    x 2.835250 0.000000 0.000000 
#    y 0.000000 2.835250 0.000000 
#    z 0.000000 0.000000 2.887330 
# 
# 
# High freq. dielectric constant tensor:
#      x y z
#    x 1.566680 0.000000 0.000000 
#    y 0.000000 1.566680 0.000000 
#    z 0.000000 0.000000 1.571670 
# 
# From -- ./inp_files/7949.got.cif
#   From: 2010.03.12/outbox.cif.g09.slc.cpg/sg191_4_cif.got.tgz:7949.got - 2010.04.01 12:09:02.
