data_PCOD8328057
_publ_section_title
;
Structure prediction by ZEFSAII (Michael W. Deem and Ramdas Pophale) SiO2 
 PCOD8328057
Probable space group: P -6 2 C
;
_chemical_formula_sum "Si O2"
_cell_formula_units_Z 90
_cell_length_a 24.938425
_cell_length_b 24.938425
_cell_length_c 9.438010
_cell_angle_alpha 90.000000
_cell_angle_beta 90.000000
_cell_angle_gamma 120.000000
_cell_volume 5083.339416
_symmetry_space_group_name_H-M "P -6 2 C"
_symmetry_group_IT_number 190
_symmetry_cell_setting 'hexagonal'
loop_
_space_group_symop_operation_xyz
x,y,z
-x+y,-x,1/2-z
-y,x-y,z
x,y,1/2-z
-x+y,-x,z
-y,x-y,1/2-z
x-y,-y,-z
-x,-x+y,-z
y,x,-z
y,x,1/2+z
x-y,-y,1/2+z
-x,-x+y,1/2+z
loop_
_atom_site_type_symbol
_atom_site_label
_atom_site_fract_x
_atom_site_fract_y
_atom_site_fract_z
Si Si1 0.134252 0.632835 0.094157
Si Si2 0.700982 0.287532 0.250000
Si Si3 0.477576 0.625323 0.408943
Si Si4 0.746910 0.495153 0.523177
Si Si5 0.054916 0.419145 0.907038
Si Si6 0.635315 0.815873 0.082825
Si Si7 0.304154 0.365241 0.084833
Si Si8 0.705296 0.763443 0.911461
O O1 0.107951 0.609588 0.250000
O O2 0.137925 0.576371 0.020524
O O3 0.202902 0.691120 0.114182
O O4 0.088534 0.653264 0.020330
O O5 0.626623 0.263334 0.250000
O O6 0.720157 0.259011 0.376986
O O7 0.494496 0.614740 0.250000
O O8 0.459729 0.679400 0.402570
O O9 0.535040 0.653104 0.514739
O O10 0.771703 0.568790 0.510146
O O11 0.053576 0.443694 0.750000
O O12 0.047777 0.352482 0.898300
O O13 0.000000 0.417665 0.000000
O O14 0.632585 0.798460 0.250000
O O15 0.655365 0.887771 0.065028
O O16 0.686875 0.807268 0.999555
O O17 0.318888 0.363698 0.250000
O O18 0.318131 0.318131 0.000000
O O19 0.727539 0.788866 0.750000
O O20 0.758990 0.758990 0.000000
#
# Coordination Sequence:
#
# PCOD8328057 Si02
#       8
#    12   6  12  12  12  12  12  12
#     4   9  20  37  52  73  97 124 167 216 270 330
#     4  10  24  38  48  68 100 132 158 222 282 336
#     4  11  21  33  55  75  95 126 166 210 262 325
#     4  11  20  35  54  68  97 129 169 208 270 330
#     4  10  21  35  51  72 102 129 161 199 245 301
#     4  10  20  34  57  83 109 139 178 225 274 326
#     4   9  19  37  56  76 104 136 173 225 272 320
#     4  10  20  33  52  78 112 144 177 211 255 311
#
# _framework density 17.704896000000002
#
# number of rings (size 3 to 8) (size 9 to 14) (size 15 to 20)
#    0.133    1.867    1.333    3.600    1.867    2.133 
#    5.600    1.333    0.000    0.000    0.000    0.000 
#    0.000    0.000    0.000    0.400    0.000    6.400 
#
# Total GULP energy -1115064.984497 kJ/mol
# GULP energy per Si atom -12389.610939 kJ/mol
# Density = 1.766460 g / cm^3
# Si number density = 17.704896 Si / 1000 Ang^3
#
#
#
# Elastic Constant Matrix: (Units=GPa)
#
#
# Indices 1 2 3 4 5 6 
#
# 1 67.8660 33.6431 36.2445 0.0000 0.0000 0.0000
# 2 33.6431 67.8660 36.2445 0.0000 0.0000 0.0000
# 3 36.2445 36.2445 100.5951 0.0000 0.0000 0.0000
# 4 0.0000 0.0000 0.0000 18.7303 0.0000 0.0000
# 5 0.0000 0.0000 0.0000 0.0000 18.7303 0.0000
# 6 0.0000 0.0000 0.0000 0.0000 0.0000 17.1114
#
#
#
# Elastic Compliance Matrix: (Units=1/GPa)
#
#
# Indices 1 2 3 4 5 6 
#
# 1 0.021242 -0.007978 -0.004779 0.000000 0.000000 0.000000
# 2 -0.007978 0.021242 -0.004779 0.000000 0.000000 0.000000
# 3 -0.004779 -0.004779 0.013385 0.000000 0.000000 0.000000
# 4 0.000000 0.000000 0.000000 0.053390 0.000000 0.000000
# 5 0.000000 0.000000 0.000000 0.000000 0.053390 0.000000
# 6 0.000000 0.000000 0.000000 0.000000 0.000000 0.058440
#
#
# Mechanical properties :
#
#
# Convention : Reuss Voigt Hill
#
# Bulk Modulus (GPa) = 48.08480 49.84352 48.96416
# Shear Modulus (GPa) = 19.00468 19.59406 19.29937
#
# Velocity S-wave (km/s) = 3.27985 3.33032 3.30518
# Velocity P-wave (km/s) = 6.44680 6.55756 6.50242
#
# Compressibility (1/GPa) = 0.02079659
#
# Stress axis : x y z
#
# Youngs Moduli (GPa) = 47.07617 47.07617 74.71242
#
# Poissons Ratio (x) = 0.37558 0.35706
# Poissons Ratio (y) = 0.37558 0.35706
# Poissons Ratio (z) = 0.22498 0.22498
#
# Static dielectric constant tensor:
#      x y z
#    x 3.133840 0.000000 0.000000 
#    y 0.000000 3.133840 0.000000 
#    z 0.000000 0.000000 3.340750 
# 
# 
# High freq. dielectric constant tensor:
#      x y z
#    x 1.659100 0.000000 0.000000 
#    y 0.000000 1.659100 0.000000 
#    z 0.000000 0.000000 1.684800 
# 
# From -- ./inp_files/1466.got.cif
#   From: 2010.06.25/outbox.cif.g09.slc.cpg/sg190_1_cif.got.tgz:1466.got - 2010.06.28 13:08:06.
