data_PCOD8328490
_publ_section_title
;
Structure prediction by ZEFSAII (Michael W. Deem and Ramdas Pophale) SiO2 
 PCOD8328490
Probable space group: P 6/M M M
;
_chemical_formula_sum "Si O2"
_cell_formula_units_Z 144
_cell_length_a 21.375865
_cell_length_b 21.375865
_cell_length_c 21.580444
_cell_angle_alpha 90.000000
_cell_angle_beta 90.000000
_cell_angle_gamma 120.000000
_cell_volume 8539.617202
_symmetry_space_group_name_H-M "P 6/M M M"
_symmetry_group_IT_number 191
_symmetry_cell_setting 'hexagonal'
loop_
_space_group_symop_operation_xyz
x,y,z
x-y,x,z
-y,x-y,z
-x,-y,z
-x+y,-x,z
y,-x+y,z
x-y,-y,-z
-x,-x+y,-z
y,x,-z
-y,-x,-z
-x+y,y,-z
x,x-y,-z
-x,-y,-z
-x+y,-x,-z
y,-x+y,-z
x,y,-z
x-y,x,-z
-y,x-y,-z
-x+y,y,z
x,x-y,z
-y,-x,z
y,x,z
x-y,-y,z
-x,-x+y,z
loop_
_atom_site_type_symbol
_atom_site_label
_atom_site_fract_x
_atom_site_fract_y
_atom_site_fract_z
Si Si1 0.540615 0.081230 0.927093
Si Si2 0.594932 0.726372 0.762510
Si Si3 0.299752 0.219767 0.651265
Si Si4 0.591107 0.918087 0.104796
Si Si5 0.337941 0.420773 0.428315
Si Si6 0.811923 0.476766 0.333490
Si Si7 0.913065 0.228868 0.000000
O O1 0.624889 0.121303 0.904503
O O2 0.500000 0.000000 0.899562
O O3 0.540517 0.081033 0.000000
O O4 0.584801 0.792401 0.783592
O O5 0.663345 0.752190 0.717894
O O6 0.608608 0.693491 0.823624
O O7 0.523099 0.667786 0.726534
O O8 0.270103 0.135052 0.643204
O O9 0.231443 0.231443 0.645994
O O10 0.357288 0.262076 0.597392
O O11 0.621877 0.000000 0.083757
O O12 0.631856 0.889494 0.060248
O O13 0.328198 0.432086 0.500000
O O14 0.400492 0.400492 0.417770
O O15 0.359239 0.494757 0.392939
O O16 0.742627 0.485253 0.346454
O O17 0.787434 0.393717 0.321495
O O18 0.859462 0.140539 0.000000
O O19 0.000000 0.253740 0.000000
#
# Coordination Sequence:
#
# PCOD8328490 Si02
#       7
#    12  24  24  24  24  24  12
#     4   9  16  28  42  64  96 126 151 179 227 285
#     4   9  18  31  47  67  90 119 159 200 236 272
#     4   9  17  30  48  70  96 124 155 192 235 284
#     4  10  18  29  47  70  98 126 154 193 240 288
#     4   9  18  33  52  72  93 117 148 193 245 286
#     4  10  21  35  49  66  92 127 163 195 230 278
#     4  10  20  33  51  74 101 131 165 207 252 300
#
# _framework density 16.862582
#
# number of rings (size 3 to 8) (size 9 to 14) (size 15 to 20)
#    0.000    2.583    0.833    2.667    1.167    2.667 
#    0.000    0.833    0.000    1.250    0.000    0.000 
#    5.833    0.000    0.000    9.500    0.000    0.000 
#
# Total GULP energy -1784817.302967 kJ/mol
# GULP energy per Si atom -12394.564604 kJ/mol
# Density = 1.682420 g / cm^3
# Si number density = 16.862582 Si / 1000 Ang^3
#
#
#
# Elastic Constant Matrix: (Units=GPa)
#
#
# Indices 1 2 3 4 5 6 
#
# 1 70.0516 31.6983 18.9862 0.0000 0.0000 0.0000
# 2 31.6983 70.0516 18.9862 0.0000 0.0000 0.0000
# 3 18.9862 18.9862 91.7105 0.0000 0.0000 0.0000
# 4 0.0000 0.0000 0.0000 15.3894 0.0000 0.0000
# 5 0.0000 0.0000 0.0000 0.0000 15.3894 0.0000
# 6 0.0000 0.0000 0.0000 0.0000 0.0000 19.1767
#
#
#
# Elastic Compliance Matrix: (Units=1/GPa)
#
#
# Indices 1 2 3 4 5 6 
#
# 1 0.018362 -0.007711 -0.002205 0.000000 0.000000 0.000000
# 2 -0.007711 0.018362 -0.002205 0.000000 0.000000 0.000000
# 3 -0.002205 -0.002205 0.011817 0.000000 0.000000 0.000000
# 4 0.000000 0.000000 0.000000 0.064980 0.000000 0.000000
# 5 0.000000 0.000000 0.000000 0.000000 0.064980 0.000000
# 6 0.000000 0.000000 0.000000 0.000000 0.000000 0.052147
#
#
# Mechanical properties :
#
#
# Convention : Reuss Voigt Hill
#
# Bulk Modulus (GPa) = 41.15445 41.23946 41.19696
# Shear Modulus (GPa) = 19.01218 20.80063 19.90640
#
# Velocity S-wave (km/s) = 3.36144 3.51599 3.43958
# Velocity P-wave (km/s) = 6.28685 6.40251 6.34494
#
# Compressibility (1/GPa) = 0.02429871
#
# Stress axis : x y z
#
# Youngs Moduli (GPa) = 54.45994 54.45994 84.62494
#
# Poissons Ratio (x) = 0.41995 0.18660
# Poissons Ratio (y) = 0.41995 0.18660
# Poissons Ratio (z) = 0.12008 0.12008
#
# Static dielectric constant tensor:
#      x y z
#    x 3.063460 0.000000 0.000000 
#    y 0.000000 3.063460 0.000000 
#    z 0.000000 0.000000 3.107660 
# 
# 
# High freq. dielectric constant tensor:
#      x y z
#    x 1.631070 0.000000 0.000000 
#    y 0.000000 1.631070 0.000000 
#    z 0.000000 0.000000 1.655750 
# 
# From -- ./inp_files/7639.got.cif
#   From: 2010.03.12/outbox.cif.g09.slc.cpg/sg191_4_cif.got.tgz:7639.got - 2010.04.01 12:09:02.
