data_PCOD8328092
_publ_section_title
;
Structure prediction by ZEFSAII (Michael W. Deem and Ramdas Pophale) SiO2 
 PCOD8328092
Probable space group: P -6 2 C
;
_chemical_formula_sum "Si O2"
_cell_formula_units_Z 76
_cell_length_a 16.863906
_cell_length_b 16.863906
_cell_length_c 13.684011
_cell_angle_alpha 90.000000
_cell_angle_beta 90.000000
_cell_angle_gamma 120.000000
_cell_volume 3370.236610
_symmetry_space_group_name_H-M "P -6 2 C"
_symmetry_group_IT_number 190
_symmetry_cell_setting 'hexagonal'
loop_
_space_group_symop_operation_xyz
x,y,z
-x+y,-x,1/2-z
-y,x-y,z
x,y,1/2-z
-x+y,-x,z
-y,x-y,1/2-z
x-y,-y,-z
-x,-x+y,-z
y,x,-z
y,x,1/2+z
x-y,-y,1/2+z
-x,-x+y,1/2+z
loop_
_atom_site_type_symbol
_atom_site_label
_atom_site_fract_x
_atom_site_fract_y
_atom_site_fract_z
Si Si1 0.515023 0.045161 0.644015
Si Si2 0.342913 0.341271 0.393254
Si Si3 0.816058 0.206514 0.141172
Si Si4 0.666667 0.333334 0.131587
Si Si5 0.048219 0.190328 0.863909
Si Si6 0.470706 0.618468 0.547306
Si Si7 0.853524 0.051237 0.634016
O O1 0.485842 0.066911 0.750000
O O2 0.533445 0.125737 0.567183
O O3 0.607606 0.041602 0.668327
O O4 0.437566 0.944881 0.608872
O O5 0.380457 0.380457 0.500000
O O6 0.371926 0.268379 0.360552
O O7 0.232830 0.295912 0.393770
O O8 0.817259 0.245058 0.250000
O O9 0.911014 0.208518 0.120626
O O10 0.812210 0.272791 0.060453
O O11 0.666667 0.333334 0.250000
O O12 0.603175 0.373877 0.089791
O O13 0.039001 0.165070 0.750000
O O14 0.116226 0.159212 0.911726
O O15 0.946411 0.135437 0.911209
O O16 0.856974 0.047579 0.750000
#
# Coordination Sequence:
#
# PCOD8328092 Si02
#       7
#    12  12  12   4  12  12  12
#     4  11  23  45  68  92 131 173 212 271 342 408
#     4  11  21  38  61  92 125 170 219 270 319 392
#     4  10  20  38  64  93 129 169 217 276 327 377
#     4  12  24  42  73 104 130 165 219 282 328 386
#     4   8  15  28  51  84 122 165 212 259 308 364
#     4  11  24  42  68 102 128 164 219 274 336 401
#     4   9  16  30  53  83 119 167 218 260 310 372
#
# _framework density 22.550346000000001
#
# number of rings (size 3 to 8) (size 9 to 14) (size 15 to 20)
#    0.000    1.895    1.579    5.053    0.000    1.263 
#    5.684    3.158    0.000    0.000    0.000    0.000 
#    0.000    0.000    0.000    0.000    0.000    0.000 
#
# Total GULP energy -941903.664721 kJ/mol
# GULP energy per Si atom -12393.469273 kJ/mol
# Density = 2.249902 g / cm^3
# Si number density = 22.550346 Si / 1000 Ang^3
#
#
#
# Elastic Constant Matrix: (Units=GPa)
#
#
# Indices 1 2 3 4 5 6 
#
# 1 88.9835 27.5646 35.4235 -0.0001 0.0000 0.0000
# 2 27.5646 88.9833 35.4235 -0.0001 0.0000 0.0000
# 3 35.4235 35.4235 124.9032 0.0000 0.0000 0.0001
# 4 -0.0001 -0.0001 0.0000 27.1161 0.0000 0.0000
# 5 0.0000 0.0000 0.0000 0.0000 27.1161 0.0000
# 6 0.0000 0.0000 0.0001 0.0000 0.0000 30.7095
#
#
#
# Elastic Compliance Matrix: (Units=1/GPa)
#
#
# Indices 1 2 3 4 5 6 
#
# 1 0.013325 -0.002957 -0.002940 0.000000 0.000000 0.000000
# 2 -0.002957 0.013325 -0.002940 0.000000 0.000000 0.000000
# 3 -0.002940 -0.002940 0.009674 0.000000 0.000000 0.000000
# 4 0.000000 0.000000 0.000000 0.036878 0.000000 0.000000
# 5 0.000000 0.000000 0.000000 0.000000 0.036878 0.000000
# 6 0.000000 0.000000 0.000000 0.000000 0.000000 0.032563
#
#
# Mechanical properties :
#
#
# Convention : Reuss Voigt Hill
#
# Bulk Modulus (GPa) = 53.62568 55.52147 54.57358
# Shear Modulus (GPa) = 30.02379 30.61889 30.32134
#
# Velocity S-wave (km/s) = 3.65281 3.68883 3.67087
# Velocity P-wave (km/s) = 6.45157 6.54354 6.49772
#
# Compressibility (1/GPa) = 0.01864778
#
# Stress axis : x y z
#
# Youngs Moduli (GPa) = 75.04934 75.04918 103.37006
#
# Poissons Ratio (x) = 0.22193 0.30394
# Poissons Ratio (y) = 0.22193 0.30394
# Poissons Ratio (z) = 0.22067 0.22067
#
# Static dielectric constant tensor:
#      x y z
#    x 4.100380 0.000000 0.000000 
#    y 0.000000 4.100390 0.000000 
#    z 0.000000 0.000000 4.187950 
# 
# 
# High freq. dielectric constant tensor:
#      x y z
#    x 1.877740 0.000000 0.000000 
#    y 0.000000 1.877740 0.000000 
#    z 0.000000 0.000000 1.895340 
# 
# From -- ./inp_files/3059.got.cif
#   From: 2010.06.25/outbox.cif.g09.slc.cpg/sg190_2_cif.got.tgz:3059.got - 2010.06.28 13:08:06.
