data_PCOD8328287
_publ_section_title
;
Structure prediction by ZEFSAII (Michael W. Deem and Ramdas Pophale) SiO2 
 PCOD8328287
Probable space group: P 6/M M M
;
_chemical_formula_sum "Si O2"
_cell_formula_units_Z 96
_cell_length_a 27.459131
_cell_length_b 27.459131
_cell_length_c 10.436743
_cell_angle_alpha 90.000000
_cell_angle_beta 90.000000
_cell_angle_gamma 120.000000
_cell_volume 6815.052393
_symmetry_space_group_name_H-M "P 6/M M M"
_symmetry_group_IT_number 191
_symmetry_cell_setting 'hexagonal'
loop_
_space_group_symop_operation_xyz
x,y,z
x-y,x,z
-y,x-y,z
-x,-y,z
-x+y,-x,z
y,-x+y,z
x-y,-y,-z
-x,-x+y,-z
y,x,-z
-y,-x,-z
-x+y,y,-z
x,x-y,-z
-x,-y,-z
-x+y,-x,-z
y,-x+y,-z
x,y,-z
x-y,x,-z
-y,x-y,-z
-x+y,y,z
x,x-y,z
-y,-x,z
y,x,z
x-y,-y,z
-x,-x+y,z
loop_
_atom_site_type_symbol
_atom_site_label
_atom_site_fract_x
_atom_site_fract_y
_atom_site_fract_z
Si Si1 0.825737 0.762602 0.000000
Si Si2 0.067653 0.656127 0.772429
Si Si3 0.216090 0.323237 0.225079
Si Si4 0.762085 0.700319 0.500000
Si Si5 0.646566 0.061110 0.500000
Si Si6 0.412226 0.478976 0.000000
O O1 0.796625 0.726386 0.873305
O O2 0.815746 0.815746 0.000000
O O3 0.892490 0.784980 0.000000
O O4 0.095468 0.721628 0.803758
O O5 0.090817 0.647305 0.634507
O O6 0.000000 0.629023 0.769061
O O7 0.088056 0.627137 0.875474
O O8 0.173106 0.346212 0.200333
O O9 0.206254 0.299711 0.370401
O O10 0.755509 0.755509 0.500000
O O11 0.701174 0.646258 0.500000
O O12 0.590772 0.000000 0.500000
O O13 0.447981 0.447981 0.000000
O O14 0.453829 0.546172 0.000000
#
# Coordination Sequence:
#
# PCOD8328287 Si02
#       6
#    12  24  24  12  12  12
#     4  10  19  29  40  55  75  97 125 161 201 243
#     4   9  15  25  39  52  73 102 127 153 188 227
#     4  10  18  26  39  60  82 105 133 162 193 235
#     4   9  15  25  39  54  78 108 137 163 187 222
#     4   7  12  21  34  51  67  93 127 149 173 213
#     4   9  17  27  39  54  68  88 124 164 193 220
#
# _framework density 14.086466
#
# number of rings (size 3 to 8) (size 9 to 14) (size 15 to 20)
#    0.000    2.875    0.000    4.875    0.000    1.000 
#    0.000    0.625    0.000    3.875    0.000    0.000 
#    0.000    0.000    0.000    3.000    0.000   26.000 
#
# Total GULP energy -1189340.770383 kJ/mol
# GULP energy per Si atom -12388.966358 kJ/mol
# Density = 1.405440 g / cm^3
# Si number density = 14.086466 Si / 1000 Ang^3
#
#
#
# Elastic Constant Matrix: (Units=GPa)
#
#
# Indices 1 2 3 4 5 6 
#
# 1 65.5634 31.9962 39.1132 0.0000 0.0000 0.0000
# 2 31.9962 65.5634 39.1132 0.0000 0.0000 0.0000
# 3 39.1132 39.1132 128.8356 0.0000 0.0000 0.0000
# 4 0.0000 0.0000 0.0000 12.7936 0.0000 0.0000
# 5 0.0000 0.0000 0.0000 0.0000 12.7936 0.0000
# 6 0.0000 0.0000 0.0000 0.0000 0.0000 16.7836
#
#
#
# Elastic Compliance Matrix: (Units=1/GPa)
#
#
# Indices 1 2 3 4 5 6 
#
# 1 0.021670 -0.008121 -0.004113 0.000000 0.000000 0.000000
# 2 -0.008121 0.021670 -0.004113 0.000000 0.000000 0.000000
# 3 -0.004113 -0.004113 0.010259 0.000000 0.000000 0.000000
# 4 0.000000 0.000000 0.000000 0.078164 0.000000 0.000000
# 5 0.000000 0.000000 0.000000 0.000000 0.078164 0.000000
# 6 0.000000 0.000000 0.000000 0.000000 0.000000 0.059582
#
#
# Mechanical properties :
#
#
# Convention : Reuss Voigt Hill
#
# Bulk Modulus (GPa) = 47.83962 53.37861 50.60911
# Shear Modulus (GPa) = 16.17224 18.45680 17.31452
#
# Velocity S-wave (km/s) = 3.39199 3.62366 3.50974
# Velocity P-wave (km/s) = 7.02680 7.44874 7.24085
#
# Compressibility (1/GPa) = 0.02090318
#
# Stress axis : x y z
#
# Youngs Moduli (GPa) = 46.14760 46.14760 97.47346
#
# Poissons Ratio (x) = 0.37479 0.40092
# Poissons Ratio (y) = 0.37479 0.40092
# Poissons Ratio (z) = 0.18981 0.18981
#
# Static dielectric constant tensor:
#      x y z
#    x 2.499720 0.000000 0.000000 
#    y 0.000000 2.499720 0.000000 
#    z 0.000000 0.000000 3.327140 
# 
# 
# High freq. dielectric constant tensor:
#      x y z
#    x 1.494830 0.000000 0.000000 
#    y 0.000000 1.494830 0.000000 
#    z 0.000000 0.000000 1.569850 
# 
# From -- ./inp_files/2885.got.cif
#   From: 2010.03.12/outbox.cif.g09.slc.cpg/sg191_2_cif.got.tgz:2885.got - 2010.04.01 12:09:02.
