data_PCOD8328635
_publ_section_title
;
Structure prediction by ZEFSAII (Michael W. Deem and Ramdas Pophale) SiO2 
 PCOD8328635
Probable space group: P 6/M M M
;
_chemical_formula_sum "Si O2"
_cell_formula_units_Z 192
_cell_length_a 22.816771
_cell_length_b 22.816771
_cell_length_c 24.706232
_cell_angle_alpha 90.000000
_cell_angle_beta 90.000000
_cell_angle_gamma 120.000000
_cell_volume 11138.982310
_symmetry_space_group_name_H-M "P 6/M M M"
_symmetry_group_IT_number 191
_symmetry_cell_setting 'hexagonal'
loop_
_space_group_symop_operation_xyz
x,y,z
x-y,x,z
-y,x-y,z
-x,-y,z
-x+y,-x,z
y,-x+y,z
x-y,-y,-z
-x,-x+y,-z
y,x,-z
-y,-x,-z
-x+y,y,-z
x,x-y,-z
-x,-y,-z
-x+y,-x,-z
y,-x+y,-z
x,y,-z
x-y,x,-z
-y,x-y,-z
-x+y,y,z
x,x-y,z
-y,-x,z
y,x,z
x-y,-y,z
-x,-x+y,z
loop_
_atom_site_type_symbol
_atom_site_label
_atom_site_fract_x
_atom_site_fract_y
_atom_site_fract_z
Si Si1 0.395547 0.924655 0.938320
Si Si2 0.276053 0.202526 0.707699
Si Si3 0.586727 0.860949 0.867695
Si Si4 0.806758 0.473188 0.657682
Si Si5 0.420329 0.140901 0.254275
Si Si6 0.147193 0.714381 0.439843
Si Si7 0.075875 0.793008 0.938639
Si Si8 0.719765 0.794602 0.418747
O O1 0.462921 0.925841 0.920341
O O2 0.336343 0.868485 0.902341
O O3 0.406223 0.000000 0.929702
O O4 0.377454 0.902248 0.000000
O O5 0.264848 0.132424 0.734625
O O6 0.221513 0.221513 0.731834
O O7 0.350915 0.265161 0.717954
O O8 0.266621 0.192670 0.644241
O O9 0.566275 0.783138 0.869589
O O10 0.581117 0.883723 0.807010
O O11 0.660035 0.908316 0.894088
O O12 0.731605 0.463209 0.656653
O O13 0.800615 0.400308 0.658857
O O14 0.848688 0.515233 0.710863
O O15 0.850404 0.514526 0.604931
O O16 0.421830 0.210915 0.253774
O O17 0.137853 0.682198 0.500000
O O18 0.216764 0.783237 0.435118
O O19 0.088394 0.732485 0.429113
O O20 0.126936 0.873065 0.930833
O O21 0.000000 0.778478 0.929038
O O22 0.083499 0.770946 0.000000
O O23 0.730530 0.865265 0.445023
O O24 0.772086 0.772086 0.443058
#
# Coordination Sequence:
#
# PCOD8328635 Si02
#       8
#    24  24  24  24  24  24  24  24
#     4   9  18  32  48  65  88 120 154 186 225 279
#     4   9  16  28  47  68  91 121 156 192 229 271
#     4  10  19  29  46  71  94 118 153 198 243 281
#     4  10  19  33  52  73  97 125 157 194 238 288
#     4   9  18  32  47  66  94 127 160 193 231 278
#     4   9  17  30  49  72  97 126 160 197 237 280
#     4   9  17  29  46  70 100 131 162 199 244 290
#     4   9  16  28  48  72  96 124 160 199 236 275
#
# _framework density 17.236763
#
# number of rings (size 3 to 8) (size 9 to 14) (size 15 to 20)
#    0.000    2.750    1.250    1.250    0.000    3.750 
#    0.000    0.000    0.000    2.875    0.000    3.500 
#    0.000    0.000    0.000    9.375    0.000    9.750 
#
# Total GULP energy -2379047.902701 kJ/mol
# GULP energy per Si atom -12390.874493 kJ/mol
# Density = 1.719753 g / cm^3
# Si number density = 17.236763 Si / 1000 Ang^3
#
#
#
# Elastic Constant Matrix: (Units=GPa)
#
#
# Indices 1 2 3 4 5 6 
#
# 1 94.0394 46.8703 45.2899 0.0000 0.0000 0.0000
# 2 46.8703 94.0394 45.2899 0.0000 0.0000 0.0000
# 3 45.2899 45.2899 92.7295 0.0000 0.0000 0.0000
# 4 0.0000 0.0000 0.0000 6.4955 0.0000 0.0000
# 5 0.0000 0.0000 0.0000 0.0000 6.4955 0.0000
# 6 0.0000 0.0000 0.0000 0.0000 0.0000 23.5846
#
#
#
# Elastic Compliance Matrix: (Units=1/GPa)
#
#
# Indices 1 2 3 4 5 6 
#
# 1 0.015772 -0.005428 -0.005052 0.000000 0.000000 0.000000
# 2 -0.005428 0.015772 -0.005052 0.000000 0.000000 0.000000
# 3 -0.005052 -0.005052 0.015719 0.000000 0.000000 0.000000
# 4 0.000000 0.000000 0.000000 0.153952 0.000000 0.000000
# 5 0.000000 0.000000 0.000000 0.000000 0.153952 0.000000
# 6 0.000000 0.000000 0.000000 0.000000 0.000000 0.042401
#
#
# Mechanical properties :
#
#
# Convention : Reuss Voigt Hill
#
# Bulk Modulus (GPa) = 61.73258 61.74536 61.73897
# Shear Modulus (GPa) = 11.51986 16.87235 14.19611
#
# Velocity S-wave (km/s) = 2.58801 3.13207 2.87295
# Velocity P-wave (km/s) = 6.69497 6.99853 6.84843
#
# Compressibility (1/GPa) = 0.01619890
#
# Stress axis : x y z
#
# Youngs Moduli (GPa) = 63.40192 63.40192 63.61620
#
# Poissons Ratio (x) = 0.34414 0.32141
# Poissons Ratio (y) = 0.34414 0.32141
# Poissons Ratio (z) = 0.32033 0.32033
#
# Static dielectric constant tensor:
#      x y z
#    x 3.259320 0.000000 0.000000 
#    y 0.000000 3.259320 0.000000 
#    z 0.000000 0.000000 3.432540 
# 
# 
# High freq. dielectric constant tensor:
#      x y z
#    x 1.643960 0.000000 0.000000 
#    y 0.000000 1.643960 0.000000 
#    z 0.000000 0.000000 1.670300 
# 
# From -- ./inp_files/8128.got.cif
#   From: 2010.03.12/outbox.cif.g09.slc.cpg/sg191_5_cif.got.tgz:8128.got - 2010.04.01 12:09:02.
