data_PCOD8328238
_publ_section_title
;
Structure prediction by ZEFSAII (Michael W. Deem and Ramdas Pophale) SiO2 
 PCOD8328238
Probable space group: P 6/M M M
;
_chemical_formula_sum "Si O2"
_cell_formula_units_Z 144
_cell_length_a 21.393296
_cell_length_b 21.393296
_cell_length_c 21.464958
_cell_angle_alpha 90.000000
_cell_angle_beta 90.000000
_cell_angle_gamma 120.000000
_cell_volume 8507.776551
_symmetry_space_group_name_H-M "P 6/M M M"
_symmetry_group_IT_number 191
_symmetry_cell_setting 'hexagonal'
loop_
_space_group_symop_operation_xyz
x,y,z
x-y,x,z
-y,x-y,z
-x,-y,z
-x+y,-x,z
y,-x+y,z
x-y,-y,-z
-x,-x+y,-z
y,x,-z
-y,-x,-z
-x+y,y,-z
x,x-y,-z
-x,-y,-z
-x+y,-x,-z
y,-x+y,-z
x,y,-z
x-y,x,-z
-y,x-y,-z
-x+y,y,z
x,x-y,z
-y,-x,z
y,x,z
x-y,-y,z
-x,-x+y,z
loop_
_atom_site_type_symbol
_atom_site_label
_atom_site_fract_x
_atom_site_fract_y
_atom_site_fract_z
Si Si1 0.157616 0.701565 0.370850
Si Si2 0.458381 0.916761 0.426393
Si Si3 0.918872 0.698247 0.329455
Si Si4 0.701937 0.921135 0.814319
Si Si5 0.704175 0.147704 0.125857
Si Si6 0.666505 0.473261 0.242660
Si Si7 0.482053 0.815587 0.000000
O O1 0.237592 0.762409 0.396785
O O2 0.126380 0.625331 0.405622
O O3 0.102336 0.732155 0.374798
O O4 0.162834 0.693761 0.297309
O O5 0.459218 0.918435 0.500000
O O6 0.500000 0.000000 0.400775
O O7 0.864390 0.728779 0.342337
O O8 0.912510 0.674894 0.257004
O O9 0.000000 0.760308 0.346104
O O10 0.726166 0.863083 0.830997
O O11 0.638512 0.913468 0.860315
O O12 0.770743 0.000000 0.825681
O O13 0.776502 0.223499 0.130136
O O14 0.651440 0.145830 0.180290
O O15 0.666018 0.138045 0.059375
O O16 0.723552 0.447104 0.228245
O O17 0.593385 0.406615 0.266644
O O18 0.403704 0.807408 0.000000
O O19 0.471280 0.735640 0.000000
#
# Coordination Sequence:
#
# PCOD8328238 Si02
#       7
#    24  12  24  24  24  24  12
#     4  10  19  33  52  73  97 126 166 211 251 292
#     4  11  24  40  54  72 102 137 171 209 257 308
#     4   9  16  28  49  75 100 125 157 201 246 290
#     4   9  16  28  47  70  93 117 150 190 234 280
#     4   9  17  29  44  64  90 123 158 196 238 278
#     4  10  17  27  44  66  93 120 155 205 251 287
#     4  10  19  30  45  63  90 125 162 198 235 285
#
# _framework density 16.925691
#
# number of rings (size 3 to 8) (size 9 to 14) (size 15 to 20)
#    0.000    2.417    2.500    1.250    0.000    0.333 
#    0.500    2.083    0.000    2.333    0.000    2.333 
#    0.000    0.000    0.000    0.000    0.000    9.833 
#
# Total GULP energy -1784382.212886 kJ/mol
# GULP energy per Si atom -12391.543145 kJ/mol
# Density = 1.688717 g / cm^3
# Si number density = 16.925691 Si / 1000 Ang^3
#
#
#
# Elastic Constant Matrix: (Units=GPa)
#
#
# Indices 1 2 3 4 5 6 
#
# 1 108.0686 63.8433 25.8010 0.0000 0.0000 0.0000
# 2 63.8433 108.0686 25.8010 0.0000 0.0000 0.0000
# 3 25.8010 25.8010 52.6177 0.0000 0.0000 0.0000
# 4 0.0000 0.0000 0.0000 15.6871 0.0000 0.0000
# 5 0.0000 0.0000 0.0000 0.0000 15.6871 0.0000
# 6 0.0000 0.0000 0.0000 0.0000 0.0000 22.1126
#
#
#
# Elastic Compliance Matrix: (Units=1/GPa)
#
#
# Indices 1 2 3 4 5 6 
#
# 1 0.014716 -0.007895 -0.003345 0.000000 0.000000 0.000000
# 2 -0.007895 0.014716 -0.003345 0.000000 0.000000 0.000000
# 3 -0.003345 -0.003345 0.022285 0.000000 0.000000 0.000000
# 4 0.000000 0.000000 0.000000 0.063747 0.000000 0.000000
# 5 0.000000 0.000000 0.000000 0.000000 0.063747 0.000000
# 6 0.000000 0.000000 0.000000 0.000000 0.000000 0.045223
#
#
# Mechanical properties :
#
#
# Convention : Reuss Voigt Hill
#
# Bulk Modulus (GPa) = 44.34909 55.51617 49.93263
# Shear Modulus (GPa) = 19.14839 20.91802 20.03320
#
# Velocity S-wave (km/s) = 3.36716 3.51931 3.44408
# Velocity P-wave (km/s) = 6.43243 7.02746 6.73652
#
# Compressibility (1/GPa) = 0.02254838
#
# Stress axis : x y z
#
# Youngs Moduli (GPa) = 67.95237 67.95237 44.87314
#
# Poissons Ratio (x) = 0.53651 0.15008
# Poissons Ratio (y) = 0.53651 0.15008
# Poissons Ratio (z) = 0.22727 0.22727
#
# Static dielectric constant tensor:
#      x y z
#    x 3.116780 0.000000 0.000000 
#    y 0.000000 3.116780 0.000000 
#    z 0.000000 0.000000 3.088940 
# 
# 
# High freq. dielectric constant tensor:
#      x y z
#    x 1.639880 0.000000 0.000000 
#    y 0.000000 1.639880 0.000000 
#    z 0.000000 0.000000 1.630180 
# 
# From -- ./inp_files/7641.got.cif
#   From: 2010.03.12/outbox.cif.g09.slc.cpg/sg191_4_cif.got.tgz:7641.got - 2010.04.01 12:09:02.
