data_PCOD8328648
_publ_section_title
;
Structure prediction by ZEFSAII (Michael W. Deem and Ramdas Pophale) SiO2 
 PCOD8328648
Probable space group: P 6/M M M
;
_chemical_formula_sum "Si O2"
_cell_formula_units_Z 144
_cell_length_a 23.191354
_cell_length_b 23.191354
_cell_length_c 20.569020
_cell_angle_alpha 90.000000
_cell_angle_beta 90.000000
_cell_angle_gamma 120.000000
_cell_volume 9580.682376
_symmetry_space_group_name_H-M "P 6/M M M"
_symmetry_group_IT_number 191
_symmetry_cell_setting 'hexagonal'
loop_
_space_group_symop_operation_xyz
x,y,z
x-y,x,z
-y,x-y,z
-x,-y,z
-x+y,-x,z
y,-x+y,z
x-y,-y,-z
-x,-x+y,-z
y,x,-z
-y,-x,-z
-x+y,y,-z
x,x-y,-z
-x,-y,-z
-x+y,-x,-z
y,-x+y,-z
x,y,-z
x-y,x,-z
-y,x-y,-z
-x+y,y,z
x,x-y,z
-y,-x,z
y,x,z
x-y,-y,z
-x,-x+y,z
loop_
_atom_site_type_symbol
_atom_site_label
_atom_site_fract_x
_atom_site_fract_y
_atom_site_fract_z
Si Si1 0.743370 0.617683 0.427126
Si Si2 0.398541 0.477355 0.768325
Si Si3 0.076153 0.282370 0.686099
Si Si4 0.925058 0.202434 0.926668
Si Si5 0.642785 0.721190 0.810120
Si Si6 0.525472 0.603091 0.618420
O O1 0.751404 0.646792 0.500000
O O2 0.797751 0.595501 0.413136
O O3 0.753002 0.674508 0.376234
O O4 0.671207 0.551997 0.420983
O O5 0.446404 0.553597 0.794063
O O6 0.439232 0.439232 0.776006
O O7 0.327994 0.437536 0.806519
O O8 0.381620 0.479369 0.693394
O O9 0.126695 0.253390 0.677323
O O10 0.101139 0.329737 0.749464
O O11 0.000000 0.221741 0.693826
O O12 0.877046 0.122955 0.919160
O O13 0.899716 0.239647 0.878277
O O14 0.000000 0.219637 0.909146
O O15 0.921607 0.225515 0.000000
O O16 0.675717 0.675717 0.806283
O O17 0.452619 0.547382 0.592493
O O18 0.577367 0.577367 0.608499
#
# Coordination Sequence:
#
# PCOD8328648 Si02
#       6
#    24  24  24  24  24  24
#     4  10  20  31  42  59  86 116 142 172 212 257
#     4   8  13  22  38  60  84 108 133 161 196 237
#     4  10  19  30  44  62  83 109 142 178 217 263
#     4   9  17  28  42  61  85 113 145 182 224 268
#     4   9  15  25  42  61  82 109 138 168 203 247
#     4   9  16  27  44  64  84 106 134 170 210 248
#
# _framework density 15.030245000000001
#
# number of rings (size 3 to 8) (size 9 to 14) (size 15 to 20)
#    0.000    2.833    1.667    2.000    0.000    1.667 
#    0.000    0.833    0.000    1.167    0.000    4.667 
#    0.000    4.000    0.000    5.000    0.000    4.667 
#
# Total GULP energy -1784263.010418 kJ/mol
# GULP energy per Si atom -12390.715350 kJ/mol
# Density = 1.499604 g / cm^3
# Si number density = 15.030245 Si / 1000 Ang^3
#
#
#
# Elastic Constant Matrix: (Units=GPa)
#
#
# Indices 1 2 3 4 5 6 
#
# 1 74.6866 38.3953 33.8081 0.0000 0.0000 0.0000
# 2 38.3953 74.6866 33.8081 0.0000 0.0000 0.0000
# 3 33.8081 33.8081 81.6054 0.0000 0.0000 0.0000
# 4 0.0000 0.0000 0.0000 19.8512 0.0000 0.0000
# 5 0.0000 0.0000 0.0000 0.0000 19.8512 0.0000
# 6 0.0000 0.0000 0.0000 0.0000 0.0000 18.1456
#
#
#
# Elastic Compliance Matrix: (Units=1/GPa)
#
#
# Indices 1 2 3 4 5 6 
#
# 1 0.019655 -0.007900 -0.004870 0.000000 0.000000 0.000000
# 2 -0.007900 0.019655 -0.004870 0.000000 0.000000 0.000000
# 3 -0.004870 -0.004870 0.016289 0.000000 0.000000 0.000000
# 4 0.000000 0.000000 0.000000 0.050375 0.000000 0.000000
# 5 0.000000 0.000000 0.000000 0.000000 0.050375 0.000000
# 6 0.000000 0.000000 0.000000 0.000000 0.000000 0.055110
#
#
# Mechanical properties :
#
#
# Convention : Reuss Voigt Hill
#
# Bulk Modulus (GPa) = 49.21384 49.22241 49.21812
# Shear Modulus (GPa) = 19.72300 19.90076 19.81188
#
# Velocity S-wave (km/s) = 3.62639 3.64269 3.63455
# Velocity P-wave (km/s) = 7.09567 7.10720 7.10144
#
# Compressibility (1/GPa) = 0.02031949
#
# Stress axis : x y z
#
# Youngs Moduli (GPa) = 50.87773 50.87773 61.39022
#
# Poissons Ratio (x) = 0.40193 0.29897
# Poissons Ratio (y) = 0.40193 0.29897
# Poissons Ratio (z) = 0.24777 0.24777
#
# Static dielectric constant tensor:
#      x y z
#    x 2.966100 0.000000 0.000000 
#    y 0.000000 2.966100 0.000000 
#    z 0.000000 0.000000 2.976240 
# 
# 
# High freq. dielectric constant tensor:
#      x y z
#    x 1.552720 0.000000 0.000000 
#    y 0.000000 1.552720 0.000000 
#    z 0.000000 0.000000 1.571930 
# 
# From -- ./inp_files/6548.got.cif
#   From: 2010.03.12/outbox.cif.g09.slc.cpg/sg191_4_cif.got.tgz:6548.got - 2010.04.01 12:09:02.
