data_PCOD8328780
_publ_section_title
;
Structure prediction by ZEFSAII (Michael W. Deem and Ramdas Pophale) SiO2 
 PCOD8328780
Probable space group: P 6/M M M
;
_chemical_formula_sum "Si O2"
_cell_formula_units_Z 168
_cell_length_a 22.351990
_cell_length_b 22.351990
_cell_length_c 23.022016
_cell_angle_alpha 90.000000
_cell_angle_beta 90.000000
_cell_angle_gamma 120.000000
_cell_volume 9961.078716
_symmetry_space_group_name_H-M "P 6/M M M"
_symmetry_group_IT_number 191
_symmetry_cell_setting 'hexagonal'
loop_
_space_group_symop_operation_xyz
x,y,z
x-y,x,z
-y,x-y,z
-x,-y,z
-x+y,-x,z
y,-x+y,z
x-y,-y,-z
-x,-x+y,-z
y,x,-z
-y,-x,-z
-x+y,y,-z
x,x-y,-z
-x,-y,-z
-x+y,-x,-z
y,-x+y,-z
x,y,-z
x-y,x,-z
-y,x-y,-z
-x+y,y,z
x,x-y,z
-y,-x,z
y,x,z
x-y,-y,z
-x,-x+y,z
loop_
_atom_site_type_symbol
_atom_site_label
_atom_site_fract_x
_atom_site_fract_y
_atom_site_fract_z
Si Si1 0.535087 0.333704 0.067782
Si Si2 0.078024 0.689100 0.064425
Si Si3 0.392986 0.473689 0.764678
Si Si4 0.744165 0.120190 0.181048
Si Si5 0.666833 0.470728 0.568802
Si Si6 0.079387 0.415105 0.643727
Si Si7 0.785547 0.708483 0.294075
O O1 0.523546 0.261773 0.095053
O O2 0.601534 0.398467 0.097115
O O3 0.469129 0.342332 0.078565
O O4 0.548522 0.333520 0.000000
O O5 0.090220 0.743366 0.116265
O O6 0.000000 0.626266 0.066123
O O7 0.094590 0.724862 0.000000
O O8 0.445780 0.554221 0.777358
O O9 0.427935 0.427935 0.777311
O O10 0.327886 0.446069 0.807238
O O11 0.369735 0.465880 0.697971
O O12 0.800404 0.199597 0.184710
O O13 0.759449 0.077048 0.228630
O O14 0.667429 0.476154 0.500000
O O15 0.732977 0.465953 0.590826
O O16 0.597528 0.402473 0.590244
O O17 0.670591 0.540145 0.592560
O O18 0.093108 0.352916 0.660994
O O19 0.000000 0.383698 0.623216
O O20 0.866250 0.732499 0.302373
O O21 0.773270 0.773270 0.305154
#
# Coordination Sequence:
#
# PCOD8328780 Si02
#       7
#    24  24  24  24  24  24  24
#     4   9  17  29  44  60  78 102 132 164 200 245
#     4  10  20  32  45  61  83 110 140 177 219 262
#     4   9  17  30  48  67  88 114 144 182 225 268
#     4  10  19  31  47  65  86 112 143 178 217 264
#     4  10  20  32  45  62  89 127 167 203 239 282
#     4   9  17  30  48  70  93 117 152 196 239 278
#     4   9  17  30  50  73  95 119 147 181 219 263
#
# _framework density 16.865642999999999
#
# number of rings (size 3 to 8) (size 9 to 14) (size 15 to 20)
#    0.000    2.571    0.000    3.714    0.000    4.571 
#    0.000    2.143    0.000    0.429    0.000    0.000 
#    0.000    0.000    0.000    0.000    0.000    0.000 
#
# Total GULP energy -2082264.807272 kJ/mol
# GULP energy per Si atom -12394.433377 kJ/mol
# Density = 1.682726 g / cm^3
# Si number density = 16.865643 Si / 1000 Ang^3
#
#
#
# Elastic Constant Matrix: (Units=GPa)
#
#
# Indices 1 2 3 4 5 6 
#
# 1 97.2178 50.4242 27.2011 0.0000 0.0000 0.0000
# 2 50.4242 97.2178 27.2011 0.0000 0.0000 0.0000
# 3 27.2011 27.2011 46.0748 0.0000 0.0000 0.0000
# 4 0.0000 0.0000 0.0000 17.6812 0.0000 0.0000
# 5 0.0000 0.0000 0.0000 0.0000 17.6812 0.0000
# 6 0.0000 0.0000 0.0000 0.0000 0.0000 23.3968
#
#
#
# Elastic Compliance Matrix: (Units=1/GPa)
#
#
# Indices 1 2 3 4 5 6 
#
# 1 0.015013 -0.006357 -0.005110 0.000000 0.000000 0.000000
# 2 -0.006357 0.015013 -0.005110 0.000000 0.000000 0.000000
# 3 -0.005110 -0.005110 0.027738 0.000000 0.000000 0.000000
# 4 0.000000 0.000000 0.000000 0.056557 0.000000 0.000000
# 5 0.000000 0.000000 0.000000 0.000000 0.056557 0.000000
# 6 0.000000 0.000000 0.000000 0.000000 0.000000 0.042741
#
#
# Mechanical properties :
#
#
# Convention : Reuss Voigt Hill
#
# Bulk Modulus (GPa) = 40.63584 50.01814 45.32699
# Shear Modulus (GPa) = 19.60953 20.79745 20.20349
#
# Velocity S-wave (km/s) = 3.41352 3.51540 3.46484
# Velocity P-wave (km/s) = 6.29939 6.79695 6.55290
#
# Compressibility (1/GPa) = 0.02460882
#
# Stress axis : x y z
#
# Youngs Moduli (GPa) = 66.60761 66.60761 36.05186
#
# Poissons Ratio (x) = 0.42343 0.18424
# Poissons Ratio (y) = 0.42343 0.18424
# Poissons Ratio (z) = 0.34039 0.34039
#
# Static dielectric constant tensor:
#      x y z
#    x 3.094970 0.000000 0.000000 
#    y 0.000000 3.094970 0.000000 
#    z 0.000000 0.000000 3.137400 
# 
# 
# High freq. dielectric constant tensor:
#      x y z
#    x 1.635520 0.000000 0.000000 
#    y 0.000000 1.635520 0.000000 
#    z 0.000000 0.000000 1.641450 
# 
# From -- ./inp_files/7985.got.cif
#   From: 2010.03.12/outbox.cif.g09.slc.cpg/sg191_4_cif.got.tgz:7985.got - 2010.04.01 12:09:02.
