data_PCOD8328604
_publ_section_title
;
Structure prediction by ZEFSAII (Michael W. Deem and Ramdas Pophale) SiO2 
 PCOD8328604
Probable space group: P 6/M M M
;
_chemical_formula_sum "Si O2"
_cell_formula_units_Z 120
_cell_length_a 26.807052
_cell_length_b 26.807052
_cell_length_c 12.928353
_cell_angle_alpha 90.000000
_cell_angle_beta 90.000000
_cell_angle_gamma 120.000000
_cell_volume 8045.850283
_symmetry_space_group_name_H-M "P 6/M M M"
_symmetry_group_IT_number 191
_symmetry_cell_setting 'hexagonal'
loop_
_space_group_symop_operation_xyz
x,y,z
x-y,x,z
-y,x-y,z
-x,-y,z
-x+y,-x,z
y,-x+y,z
x-y,-y,-z
-x,-x+y,-z
y,x,-z
-y,-x,-z
-x+y,y,-z
x,x-y,-z
-x,-y,-z
-x+y,-x,-z
y,-x+y,-z
x,y,-z
x-y,x,-z
-y,x-y,-z
-x+y,y,z
x,x-y,z
-y,-x,z
y,x,z
x-y,-y,z
-x,-x+y,z
loop_
_atom_site_type_symbol
_atom_site_label
_atom_site_fract_x
_atom_site_fract_y
_atom_site_fract_z
Si Si1 0.486040 0.622670 0.804960
Si Si2 0.755705 0.133073 0.000000
Si Si3 0.798752 0.311792 0.000000
Si Si4 0.688368 0.200805 0.385773
Si Si5 0.622059 0.932396 0.194681
Si Si6 0.624027 0.756487 0.384988
O O1 0.447250 0.552751 0.813495
O O2 0.465614 0.639187 0.699754
O O3 0.553671 0.644039 0.806334
O O4 0.467517 0.649294 0.898283
O O5 0.735415 0.093635 0.898132
O O6 0.825314 0.174687 0.000000
O O7 0.727795 0.172864 0.000000
O O8 0.729484 0.270517 0.000000
O O9 0.660359 0.192406 0.500000
O O10 0.731376 0.268625 0.363886
O O11 0.725413 0.169509 0.380287
O O12 0.644454 0.917830 0.300218
O O13 0.652718 0.000000 0.180713
O O14 0.644374 0.749750 0.500000
O O15 0.648625 0.824313 0.360159
#
# Coordination Sequence:
#
# PCOD8328604 Si02
#       6
#    24  12  12  24  24  24
#     4  10  19  29  42  59  79 106 134 155 189 253
#     4   9  17  30  47  63  77  97 130 167 200 235
#     4   9  17  30  47  61  70  85 118 165 204 232
#     4   8  14  26  44  61  73  89 121 166 204 230
#     4  10  19  29  42  62  87 110 133 166 207 245
#     4   8  14  26  44  63  80 101 133 168 199 232
#
# _framework density 14.914521000000001
#
# number of rings (size 3 to 8) (size 9 to 14) (size 15 to 20)
#    0.000    3.000    0.000    3.000    0.000    6.000 
#    0.000    0.000    0.000    9.200    0.000    5.600 
#    0.000    0.000    0.000    0.000    0.000    0.000 
#
# Total GULP energy -1486944.650801 kJ/mol
# GULP energy per Si atom -12391.205423 kJ/mol
# Density = 1.488057 g / cm^3
# Si number density = 14.914521 Si / 1000 Ang^3
#
#
#
# Elastic Constant Matrix: (Units=GPa)
#
#
# Indices 1 2 3 4 5 6 
#
# 1 60.2382 39.5591 42.5366 0.0000 0.0000 0.0000
# 2 39.5591 60.2382 42.5366 0.0000 0.0000 0.0000
# 3 42.5366 42.5366 124.4008 0.0000 0.0000 0.0000
# 4 0.0000 0.0000 0.0000 28.5283 0.0000 0.0000
# 5 0.0000 0.0000 0.0000 0.0000 28.5283 0.0000
# 6 0.0000 0.0000 0.0000 0.0000 0.0000 10.3396
#
#
#
# Elastic Compliance Matrix: (Units=1/GPa)
#
#
# Indices 1 2 3 4 5 6 
#
# 1 0.031250 -0.017108 -0.004836 0.000000 0.000000 0.000000
# 2 -0.017108 0.031250 -0.004836 0.000000 0.000000 0.000000
# 3 -0.004836 -0.004836 0.011346 0.000000 0.000000 0.000000
# 4 0.000000 0.000000 0.000000 0.035053 0.000000 0.000000
# 5 0.000000 0.000000 0.000000 0.000000 0.035053 0.000000
# 6 0.000000 0.000000 0.000000 0.000000 0.000000 0.096716
#
#
# Mechanical properties :
#
#
# Convention : Reuss Voigt Hill
#
# Bulk Modulus (GPa) = 49.29121 54.90464 52.09793
# Shear Modulus (GPa) = 16.61192 21.49558 19.05375
#
# Velocity S-wave (km/s) = 3.34100 3.80050 3.57813
# Velocity P-wave (km/s) = 6.92849 7.49341 7.21648
#
# Compressibility (1/GPa) = 0.02028759
#
# Stress axis : x y z
#
# Youngs Moduli (GPa) = 31.99973 31.99973 88.14010
#
# Poissons Ratio (x) = 0.54744 0.42623
# Poissons Ratio (y) = 0.54744 0.42623
# Poissons Ratio (z) = 0.15474 0.15474
#
# Static dielectric constant tensor:
#      x y z
#    x 2.609760 0.000000 0.000000 
#    y 0.000000 2.609760 0.000000 
#    z 0.000000 0.000000 3.326220 
# 
# 
# High freq. dielectric constant tensor:
#      x y z
#    x 1.529440 0.000000 0.000000 
#    y 0.000000 1.529440 0.000000 
#    z 0.000000 0.000000 1.595650 
# 
# From -- ./inp_files/3219.got.cif
#   From: 2010.03.12/outbox.cif.g09.slc.cpg/sg191_2_cif.got.tgz:3219.got - 2010.04.01 12:09:02.
