data_PCOD8328680
_publ_section_title
;
Structure prediction by ZEFSAII (Michael W. Deem and Ramdas Pophale) SiO2 
 PCOD8328680
Probable space group: P 6/M M M
;
_chemical_formula_sum "Si O2"
_cell_formula_units_Z 132
_cell_length_a 18.189680
_cell_length_b 18.189680
_cell_length_c 27.937590
_cell_angle_alpha 90.000000
_cell_angle_beta 90.000000
_cell_angle_gamma 120.000000
_cell_volume 8005.153960
_symmetry_space_group_name_H-M "P 6/M M M"
_symmetry_group_IT_number 191
_symmetry_cell_setting 'hexagonal'
loop_
_space_group_symop_operation_xyz
x,y,z
x-y,x,z
-y,x-y,z
-x,-y,z
-x+y,-x,z
y,-x+y,z
x-y,-y,-z
-x,-x+y,-z
y,x,-z
-y,-x,-z
-x+y,y,-z
x,x-y,-z
-x,-y,-z
-x+y,-x,-z
y,-x+y,-z
x,y,-z
x-y,x,-z
-y,x-y,-z
-x+y,y,z
x,x-y,z
-y,-x,z
y,x,z
x-y,-y,z
-x,-x+y,z
loop_
_atom_site_type_symbol
_atom_site_label
_atom_site_fract_x
_atom_site_fract_y
_atom_site_fract_z
Si Si1 0.257886 0.351711 0.945591
Si Si2 0.466807 0.367514 0.771781
Si Si3 0.902616 0.264663 0.684321
Si Si4 0.839093 0.334943 0.603859
Si Si5 0.665550 0.497276 0.500000
Si Si6 0.497910 0.331737 0.126202
O O1 0.160263 0.320525 0.932571
O O2 0.271635 0.271635 0.938194
O O3 0.321178 0.426557 0.910960
O O4 0.278881 0.385769 0.000000
O O5 0.564265 0.435736 0.757965
O O6 0.415494 0.415494 0.781680
O O7 0.424238 0.299522 0.729738
O O8 0.462865 0.317614 0.819829
O O9 0.837010 0.162991 0.680718
O O10 0.896161 0.313600 0.638165
O O11 0.000000 0.284372 0.688201
O O12 0.840913 0.420457 0.621529
O O13 0.741474 0.258527 0.603404
O O14 0.881866 0.350042 0.550414
O O15 0.604837 0.395163 0.500000
O O16 0.762298 0.524596 0.500000
O O17 0.527580 0.263790 0.115261
O O18 0.574613 0.425388 0.118611
#
# Coordination Sequence:
#
# PCOD8328680 Si02
#       6
#    24  24  24  24  12  24
#     4   9  18  32  49  68  89 114 145 182 225 272
#     4   9  17  29  46  68  92 117 145 177 213 255
#     4  10  20  33  48  65  86 113 145 182 224 268
#     4   9  16  26  42  65  93 124 154 181 208 243
#     4   8  13  22  37  59  88 121 154 182 207 238
#     4  10  19  30  44  64  92 125 159 191 219 246
#
# _framework density 16.489377000000001
#
# number of rings (size 3 to 8) (size 9 to 14) (size 15 to 20)
#    0.000    2.727    0.000    2.091    0.000    4.000 
#    0.000    1.364    0.000    8.909    0.000    1.273 
#    0.000    0.000    0.000    5.818    0.000   14.727 
#
# Total GULP energy -1635908.623454 kJ/mol
# GULP energy per Si atom -12393.247147 kJ/mol
# Density = 1.645185 g / cm^3
# Si number density = 16.489377 Si / 1000 Ang^3
#
#
#
# Elastic Constant Matrix: (Units=GPa)
#
#
# Indices 1 2 3 4 5 6 
#
# 1 73.1289 42.0389 44.0774 0.0000 0.0000 0.0000
# 2 42.0389 73.1289 44.0774 0.0000 0.0000 0.0000
# 3 44.0774 44.0774 92.2424 0.0000 0.0000 0.0000
# 4 0.0000 0.0000 0.0000 19.6998 0.0000 0.0000
# 5 0.0000 0.0000 0.0000 0.0000 19.6998 0.0000
# 6 0.0000 0.0000 0.0000 0.0000 0.0000 15.5450
#
#
#
# Elastic Compliance Matrix: (Units=1/GPa)
#
#
# Indices 1 2 3 4 5 6 
#
# 1 0.022928 -0.009237 -0.006542 0.000000 0.000000 0.000000
# 2 -0.009237 0.022928 -0.006542 0.000000 0.000000 0.000000
# 3 -0.006542 -0.006542 0.017093 0.000000 0.000000 0.000000
# 4 0.000000 0.000000 0.000000 0.050762 0.000000 0.000000
# 5 0.000000 0.000000 0.000000 0.000000 0.050762 0.000000
# 6 0.000000 0.000000 0.000000 0.000000 0.000000 0.064330
#
#
# Mechanical properties :
#
#
# Convention : Reuss Voigt Hill
#
# Bulk Modulus (GPa) = 54.62587 55.43195 55.02891
# Shear Modulus (GPa) = 17.88617 18.20934 18.04776
#
# Velocity S-wave (km/s) = 3.29706 3.32672 3.31192
# Velocity P-wave (km/s) = 6.90609 6.96030 6.93325
#
# Compressibility (1/GPa) = 0.01830634
#
# Stress axis : x y z
#
# Youngs Moduli (GPa) = 43.61555 43.61555 58.50354
#
# Poissons Ratio (x) = 0.40288 0.38272
# Poissons Ratio (y) = 0.40288 0.38272
# Poissons Ratio (z) = 0.28533 0.28533
#
# Static dielectric constant tensor:
#      x y z
#    x 2.895090 0.000000 0.000000 
#    y 0.000000 2.895090 0.000000 
#    z 0.000000 0.000000 3.398030 
# 
# 
# High freq. dielectric constant tensor:
#      x y z
#    x 1.610630 0.000000 0.000000 
#    y 0.000000 1.610630 0.000000 
#    z 0.000000 0.000000 1.653320 
# 
# From -- ./inp_files/10419.got.cif
#   From: 2010.03.12/outbox.cif.g09.slc.cpg/sg191_6_cif.got.tgz:10419.got - 2010.04.01 12:09:02.
