data_PCOD8328653
_publ_section_title
;
Structure prediction by ZEFSAII (Michael W. Deem and Ramdas Pophale) SiO2 
 PCOD8328653
Probable space group: P 6/M M M
;
_chemical_formula_sum "Si O2"
_cell_formula_units_Z 132
_cell_length_a 19.082055
_cell_length_b 19.082055
_cell_length_c 28.084105
_cell_angle_alpha 90.000000
_cell_angle_beta 90.000000
_cell_angle_gamma 120.000000
_cell_volume 8856.079497
_symmetry_space_group_name_H-M "P 6/M M M"
_symmetry_group_IT_number 191
_symmetry_cell_setting 'hexagonal'
loop_
_space_group_symop_operation_xyz
x,y,z
x-y,x,z
-y,x-y,z
-x,-y,z
-x+y,-x,z
y,-x+y,z
x-y,-y,-z
-x,-x+y,-z
y,x,-z
-y,-x,-z
-x+y,y,-z
x,x-y,-z
-x,-y,-z
-x+y,-x,-z
y,-x+y,-z
x,y,-z
x-y,x,-z
-y,x-y,-z
-x+y,y,z
x,x-y,z
-y,-x,z
y,x,z
x-y,-y,z
-x,-x+y,z
loop_
_atom_site_type_symbol
_atom_site_label
_atom_site_fract_x
_atom_site_fract_y
_atom_site_fract_z
Si Si1 0.502689 0.331308 0.803100
Si Si2 0.088902 0.627263 0.709694
Si Si3 0.370909 0.909005 0.000000
Si Si4 0.331651 0.503672 0.386695
Si Si5 0.494841 0.668559 0.906722
Si Si6 0.907915 0.251413 0.443969
O O1 0.525798 0.262899 0.794386
O O2 0.584909 0.415092 0.801639
O O3 0.443888 0.326389 0.760368
O O4 0.460681 0.320788 0.855358
O O5 0.084805 0.542403 0.714536
O O6 0.149552 0.677890 0.667382
O O7 0.000000 0.613402 0.698239
O O8 0.318391 0.870267 0.952062
O O9 0.449721 0.899441 0.000000
O O10 0.391301 0.000000 0.000000
O O11 0.265979 0.531957 0.395036
O O12 0.421053 0.578948 0.397245
O O13 0.314870 0.429666 0.421089
O O14 0.462465 0.731233 0.910280
O O15 0.420424 0.579577 0.909582
O O16 0.903913 0.260753 0.500000
O O17 0.841534 0.158467 0.428511
O O18 0.000000 0.275394 0.428809
#
# Coordination Sequence:
#
# PCOD8328653 Si02
#       6
#    24  24  12  24  24  24
#     4   9  16  25  37  52  69  89 114 146 185 228
#     4   9  17  27  38  53  73  98 128 161 197 237
#     4   9  17  26  34  46  64  85 108 136 174 218
#     4  10  19  30  44  62  85 113 145 180 215 249
#     4   9  16  25  37  51  66  85 111 144 181 221
#     4   9  18  32  49  68  89 114 143 174 210 252
#
# _framework density 14.905015000000001
#
# number of rings (size 3 to 8) (size 9 to 14) (size 15 to 20)
#    0.000    2.818    0.000    1.909    0.000    3.636 
#    0.000    7.273    0.000    1.273    0.000    1.273 
#    0.000    0.000    0.000    0.000    0.000    0.000 
#
# Total GULP energy -1635352.965481 kJ/mol
# GULP energy per Si atom -12389.037617 kJ/mol
# Density = 1.487109 g / cm^3
# Si number density = 14.905015 Si / 1000 Ang^3
#
#
#
# Elastic Constant Matrix: (Units=GPa)
#
#
# Indices 1 2 3 4 5 6 
#
# 1 54.2751 34.4096 31.1040 0.0000 0.0000 0.0000
# 2 34.4096 54.2751 31.1040 0.0000 0.0000 0.0000
# 3 31.1040 31.1040 69.4286 0.0000 0.0000 0.0000
# 4 0.0000 0.0000 0.0000 17.4144 0.0000 0.0000
# 5 0.0000 0.0000 0.0000 0.0000 17.4144 0.0000
# 6 0.0000 0.0000 0.0000 0.0000 0.0000 9.9328
#
#
#
# Elastic Compliance Matrix: (Units=1/GPa)
#
#
# Indices 1 2 3 4 5 6 
#
# 1 0.033391 -0.016948 -0.007367 0.000000 0.000000 0.000000
# 2 -0.016948 0.033391 -0.007367 0.000000 0.000000 0.000000
# 3 -0.007367 -0.007367 0.021004 0.000000 0.000000 0.000000
# 4 0.000000 0.000000 0.000000 0.057424 0.000000 0.000000
# 5 0.000000 0.000000 0.000000 0.000000 0.057424 0.000000
# 6 0.000000 0.000000 0.000000 0.000000 0.000000 0.100677
#
#
# Mechanical properties :
#
#
# Convention : Reuss Voigt Hill
#
# Bulk Modulus (GPa) = 40.94351 41.24599 41.09475
# Shear Modulus (GPa) = 13.33999 14.37638 13.85818
#
# Velocity S-wave (km/s) = 2.99490 3.10906 3.05252
# Velocity P-wave (km/s) = 6.28399 6.37346 6.32888
#
# Compressibility (1/GPa) = 0.02442389
#
# Stress axis : x y z
#
# Youngs Moduli (GPa) = 29.94834 29.94834 47.61068
#
# Poissons Ratio (x) = 0.50756 0.35073
# Poissons Ratio (y) = 0.50756 0.35073
# Poissons Ratio (z) = 0.22062 0.22062
#
# Static dielectric constant tensor:
#      x y z
#    x 2.736880 0.000000 0.000000 
#    y 0.000000 2.736880 0.000000 
#    z 0.000000 0.000000 3.359580 
# 
# 
# High freq. dielectric constant tensor:
#      x y z
#    x 1.535090 0.000000 0.000000 
#    y 0.000000 1.535090 0.000000 
#    z 0.000000 0.000000 1.592790 
# 
# From -- ./inp_files/10439.got.cif
#   From: 2010.03.12/outbox.cif.g09.slc.cpg/sg191_6_cif.got.tgz:10439.got - 2010.04.01 12:09:02.
