data_PCOD8328358
_publ_section_title
;
Structure prediction by ZEFSAII (Michael W. Deem and Ramdas Pophale) SiO2 
 PCOD8328358
Probable space group: P 6/M M M
;
_chemical_formula_sum "Si O2"
_cell_formula_units_Z 144
_cell_length_a 22.931500
_cell_length_b 22.931500
_cell_length_c 19.586161
_cell_angle_alpha 90.000000
_cell_angle_beta 90.000000
_cell_angle_gamma 120.000000
_cell_volume 8919.589743
_symmetry_space_group_name_H-M "P 6/M M M"
_symmetry_group_IT_number 191
_symmetry_cell_setting 'hexagonal'
loop_
_space_group_symop_operation_xyz
x,y,z
x-y,x,z
-y,x-y,z
-x,-y,z
-x+y,-x,z
y,-x+y,z
x-y,-y,-z
-x,-x+y,-z
y,x,-z
-y,-x,-z
-x+y,y,-z
x,x-y,-z
-x,-y,-z
-x+y,-x,-z
y,-x+y,-z
x,y,-z
x-y,x,-z
-y,x-y,-z
-x+y,y,z
x,x-y,z
-y,-x,z
y,x,z
x-y,-y,z
-x,-x+y,z
loop_
_atom_site_type_symbol
_atom_site_label
_atom_site_fract_x
_atom_site_fract_y
_atom_site_fract_z
Si Si1 0.333676 0.538429 0.171714
Si Si2 0.719230 0.924867 0.578764
Si Si3 0.201558 0.666324 0.666435
Si Si4 0.204149 0.925739 0.922576
Si Si5 0.923177 0.606968 0.669506
Si Si6 0.608405 0.872629 0.816029
O O1 0.276645 0.553290 0.142069
O O2 0.406073 0.593928 0.141824
O O3 0.333393 0.542502 0.252948
O O4 0.317732 0.463830 0.151337
O O5 0.697829 0.919281 0.500000
O O6 0.744414 0.872207 0.596482
O O7 0.653970 0.907044 0.622610
O O8 0.780025 0.000000 0.595945
O O9 0.202809 0.601405 0.635292
O O10 0.264528 0.735473 0.636665
O O11 0.129936 0.660325 0.648305
O O12 0.126631 0.873370 0.904778
O O13 0.253870 0.916268 0.872858
O O14 0.214852 0.000000 0.912076
O O15 0.221401 0.915443 0.000000
O O16 0.915978 0.623016 0.747941
O O17 0.000000 0.623044 0.658175
O O18 0.608299 0.804150 0.797122
#
# Coordination Sequence:
#
# PCOD8328358 Si02
#       6
#    24  24  24  24  24  24
#     4   8  13  21  35  56  81 108 137 170 207 243
#     4   9  17  29  45  64  86 113 143 172 204 245
#     4   9  16  26  40  58  81 109 141 175 210 248
#     4   9  17  29  45  63  82 105 132 161 194 235
#     4  10  18  27  42  64  89 112 134 168 212 252
#     4   9  16  26  41  62  86 109 136 170 204 238
#
# _framework density 16.14424
#
# number of rings (size 3 to 8) (size 9 to 14) (size 15 to 20)
#    0.000    3.000    0.000    3.333    0.000    1.667 
#    0.000    0.000    0.000    2.833    0.000    5.833 
#    0.000    2.667    0.000    5.333    0.000    7.333 
#
# Total GULP energy -1784690.317982 kJ/mol
# GULP energy per Si atom -12393.682764 kJ/mol
# Density = 1.610749 g / cm^3
# Si number density = 16.144240 Si / 1000 Ang^3
#
#
#
# Elastic Constant Matrix: (Units=GPa)
#
#
# Indices 1 2 3 4 5 6 
#
# 1 118.2403 75.3665 31.5324 0.0000 0.0000 0.0000
# 2 75.3665 118.2403 31.5324 0.0000 0.0000 0.0000
# 3 31.5324 31.5324 34.8086 0.0000 0.0000 0.0000
# 4 0.0000 0.0000 0.0000 13.8365 0.0000 0.0000
# 5 0.0000 0.0000 0.0000 0.0000 13.8365 0.0000
# 6 0.0000 0.0000 0.0000 0.0000 0.0000 21.4369
#
#
#
# Elastic Compliance Matrix: (Units=1/GPa)
#
#
# Indices 1 2 3 4 5 6 
#
# 1 0.015326 -0.007999 -0.006638 0.000000 0.000000 0.000000
# 2 -0.007999 0.015326 -0.006638 0.000000 0.000000 0.000000
# 3 -0.006638 -0.006638 0.040754 0.000000 0.000000 0.000000
# 4 0.000000 0.000000 0.000000 0.072273 0.000000 0.000000
# 5 0.000000 0.000000 0.000000 0.000000 0.072273 0.000000
# 6 0.000000 0.000000 0.000000 0.000000 0.000000 0.046649
#
#
# Mechanical properties :
#
#
# Convention : Reuss Voigt Hill
#
# Bulk Modulus (GPa) = 34.65198 60.90577 47.77888
# Shear Modulus (GPa) = 15.88480 18.67917 17.28198
#
# Velocity S-wave (km/s) = 3.14017 3.40519 3.27536
# Velocity P-wave (km/s) = 5.88712 7.29851 6.63048
#
# Compressibility (1/GPa) = 0.02885838
#
# Stress axis : x y z
#
# Youngs Moduli (GPa) = 65.24972 65.24972 24.53732
#
# Poissons Ratio (x) = 0.52190 0.16287
# Poissons Ratio (y) = 0.52190 0.16287
# Poissons Ratio (z) = 0.43310 0.43310
#
# Static dielectric constant tensor:
#      x y z
#    x 3.243930 0.000000 0.000000 
#    y 0.000000 3.243930 0.000000 
#    z 0.000000 0.000000 2.764960 
# 
# 
# High freq. dielectric constant tensor:
#      x y z
#    x 1.619190 0.000000 0.000000 
#    y 0.000000 1.619190 0.000000 
#    z 0.000000 0.000000 1.584200 
# 
# From -- ./inp_files/6561.got.cif
#   From: 2010.03.12/outbox.cif.g09.slc.cpg/sg191_4_cif.got.tgz:6561.got - 2010.04.01 12:09:02.
