data_PCOD8328568
_publ_section_title
;
Structure prediction by ZEFSAII (Michael W. Deem and Ramdas Pophale) SiO2 
 PCOD8328568
Probable space group: P 6/M M M
;
_chemical_formula_sum "Si O2"
_cell_formula_units_Z 180
_cell_length_a 21.575961
_cell_length_b 21.575961
_cell_length_c 31.565408
_cell_angle_alpha 90.000000
_cell_angle_beta 90.000000
_cell_angle_gamma 120.000000
_cell_volume 12725.719191
_symmetry_space_group_name_H-M "P 6/M M M"
_symmetry_group_IT_number 191
_symmetry_cell_setting 'hexagonal'
loop_
_space_group_symop_operation_xyz
x,y,z
x-y,x,z
-y,x-y,z
-x,-y,z
-x+y,-x,z
y,-x+y,z
x-y,-y,-z
-x,-x+y,-z
y,x,-z
-y,-x,-z
-x+y,y,-z
x,x-y,-z
-x,-y,-z
-x+y,-x,-z
y,-x+y,-z
x,y,-z
x-y,x,-z
-y,x-y,-z
-x+y,y,z
x,x-y,z
-y,-x,z
y,x,z
x-y,-y,z
-x,-x+y,z
loop_
_atom_site_type_symbol
_atom_site_label
_atom_site_fract_x
_atom_site_fract_y
_atom_site_fract_z
Si Si1 0.562404 0.851962 0.246607
Si Si2 0.333640 0.813450 0.908251
Si Si3 0.699875 0.780285 0.548368
Si Si4 0.468086 0.386289 0.834422
Si Si5 0.666224 0.476656 0.000000
Si Si6 0.081000 0.387242 0.623473
Si Si7 0.919452 0.701293 0.298523
Si Si8 0.666134 0.478639 0.330270
O O1 0.546653 0.773327 0.233394
O O2 0.550346 0.889874 0.207286
O O3 0.643908 0.901009 0.261379
O O4 0.509149 0.845726 0.284201
O O5 0.398719 0.797437 0.903519
O O6 0.260116 0.739885 0.900373
O O7 0.340490 0.871966 0.874475
O O8 0.335307 0.848076 0.955064
O O9 0.674006 0.760607 0.500000
O O10 0.727863 0.863932 0.557455
O O11 0.764730 0.764730 0.558436
O O12 0.631312 0.729647 0.577130
O O13 0.544714 0.455287 0.827553
O O14 0.407978 0.407978 0.842886
O O15 0.602734 0.397267 0.000000
O O16 0.734487 0.468974 0.000000
O O17 0.093024 0.337843 0.656631
O O18 0.133923 0.470351 0.633291
O O19 0.000000 0.372034 0.626251
O O20 0.867180 0.734359 0.295963
O O21 0.000000 0.765830 0.292884
O O22 0.737449 0.474897 0.335964
O O23 0.599396 0.400605 0.336207
#
# Coordination Sequence:
#
# PCOD8328568 Si02
#       8
#    24  24  24  24  12  24  24  24
#     4   9  17  29  43  57  74  98 129 162 190 218
#     4   9  16  26  40  56  72  92 120 155 191 224
#     4   9  16  26  42  63  85 108 134 166 203 239
#     4  10  19  28  37  52  76 102 125 149 182 226
#     4   8  13  22  37  55  71  87 114 153 192 224
#     4   9  17  29  44  62  82 103 132 167 197 226
#     4   9  16  26  41  59  78 100 126 157 190 222
#     4  10  19  30  44  62  84 107 130 158 195 239
#
# _framework density 14.144584
#
# number of rings (size 3 to 8) (size 9 to 14) (size 15 to 20)
#    0.000    2.800    0.000    3.533    0.000    1.867 
#    0.000    0.333    0.000    6.933    0.000    2.800 
#    0.000    4.267    0.000    0.133    0.000    0.000 
#
# Total GULP energy -2231019.119829 kJ/mol
# GULP energy per Si atom -12394.550666 kJ/mol
# Density = 1.411239 g / cm^3
# Si number density = 14.144584 Si / 1000 Ang^3
#
#
#
# Elastic Constant Matrix: (Units=GPa)
#
#
# Indices 1 2 3 4 5 6 
#
# 1 70.9114 38.7410 41.2762 0.0000 0.0000 0.0000
# 2 38.7410 70.9114 41.2762 0.0000 0.0000 0.0000
# 3 41.2762 41.2762 95.7931 0.0000 0.0000 0.0000
# 4 0.0000 0.0000 0.0000 17.8960 0.0000 0.0000
# 5 0.0000 0.0000 0.0000 0.0000 17.8960 0.0000
# 6 0.0000 0.0000 0.0000 0.0000 0.0000 16.0852
#
#
#
# Elastic Compliance Matrix: (Units=1/GPa)
#
#
# Indices 1 2 3 4 5 6 
#
# 1 0.022292 -0.008793 -0.005816 0.000000 0.000000 0.000000
# 2 -0.008793 0.022292 -0.005816 0.000000 0.000000 0.000000
# 3 -0.005816 -0.005816 0.015452 0.000000 0.000000 0.000000
# 4 0.000000 0.000000 0.000000 0.055878 0.000000 0.000000
# 5 0.000000 0.000000 0.000000 0.000000 0.055878 0.000000
# 6 0.000000 0.000000 0.000000 0.000000 0.000000 0.062169
#
#
# Mechanical properties :
#
#
# Convention : Reuss Voigt Hill
#
# Bulk Modulus (GPa) = 52.12883 53.35587 52.74235
# Shear Modulus (GPa) = 17.78051 18.13025 17.95538
#
# Velocity S-wave (km/s) = 3.54934 3.58408 3.56675
# Velocity P-wave (km/s) = 7.33017 7.41156 7.37098
#
# Compressibility (1/GPa) = 0.01918324
#
# Stress axis : x y z
#
# Youngs Moduli (GPa) = 44.85995 44.85995 64.71803
#
# Poissons Ratio (x) = 0.39445 0.37643
# Poissons Ratio (y) = 0.39445 0.37643
# Poissons Ratio (z) = 0.26092 0.26092
#
# Static dielectric constant tensor:
#      x y z
#    x 2.700410 0.000000 0.000000 
#    y 0.000000 2.700410 0.000000 
#    z 0.000000 0.000000 3.018570 
# 
# 
# High freq. dielectric constant tensor:
#      x y z
#    x 1.523560 0.000000 0.000000 
#    y 0.000000 1.523560 0.000000 
#    z 0.000000 0.000000 1.544240 
# 
# From -- ./inp_files/10885.got.cif
#   From: 2010.03.12/outbox.cif.g09.slc.cpg/sg191_6_cif.got.tgz:10885.got - 2010.04.01 12:09:02.
