data_PCOD8328698
_publ_section_title
;
Structure prediction by ZEFSAII (Michael W. Deem and Ramdas Pophale) SiO2 
 PCOD8328698
Probable space group: P 6/M M M
;
_chemical_formula_sum "Si O2"
_cell_formula_units_Z 108
_cell_length_a 18.083959
_cell_length_b 18.083959
_cell_length_c 22.747866
_cell_angle_alpha 90.000000
_cell_angle_beta 90.000000
_cell_angle_gamma 120.000000
_cell_volume 6442.557754
_symmetry_space_group_name_H-M "P 6/M M M"
_symmetry_group_IT_number 191
_symmetry_cell_setting 'hexagonal'
loop_
_space_group_symop_operation_xyz
x,y,z
x-y,x,z
-y,x-y,z
-x,-y,z
-x+y,-x,z
y,-x+y,z
x-y,-y,-z
-x,-x+y,-z
y,x,-z
-y,-x,-z
-x+y,y,-z
x,x-y,-z
-x,-y,-z
-x+y,-x,-z
y,-x+y,-z
x,y,-z
x-y,x,-z
-y,x-y,-z
-x+y,y,z
x,x-y,z
-y,-x,z
y,x,z
x-y,-y,z
-x,-x+y,z
loop_
_atom_site_type_symbol
_atom_site_label
_atom_site_fract_x
_atom_site_fract_y
_atom_site_fract_z
Si Si1 0.101063 0.468560 0.934672
Si Si2 0.166584 0.668454 0.597026
Si Si3 0.265539 0.361269 0.500000
Si Si4 0.737721 0.099427 0.168871
Si Si5 0.367960 0.466021 0.722282
O O1 0.138201 0.569101 0.920489
O O2 0.131662 0.424545 0.887167
O O3 0.000000 0.422948 0.931746
O O4 0.130794 0.458525 0.000000
O O5 0.146267 0.573134 0.583150
O O6 0.265038 0.734963 0.581637
O O7 0.105885 0.688849 0.557531
O O8 0.152184 0.680615 0.665204
O O9 0.279769 0.279769 0.500000
O O10 0.164117 0.328234 0.500000
O O11 0.840860 0.159141 0.171828
O O12 0.698492 0.118715 0.225807
O O13 0.711852 0.000000 0.164761
O O14 0.439680 0.560321 0.743915
O O15 0.412263 0.412263 0.703563
#
# Coordination Sequence:
#
# PCOD8328698 Si02
#       5
#    24  24  12  24  24
#     4   8  14  26  45  67  88 110 137 170 211 261
#     4  10  19  30  45  67  97 130 160 186 213 250
#     4  10  21  35  51  70  91 117 150 190 233 273
#     4  10  19  30  45  65  89 117 152 193 233 272
#     4   9  17  29  46  67  89 115 149 188 228 270
#
# _framework density 16.763528000000001
#
# number of rings (size 3 to 8) (size 9 to 14) (size 15 to 20)
#    0.000    2.667    0.000    3.222    0.000    4.889 
#    0.000    1.111    0.000    5.222    0.000    0.000 
#    0.000    0.000    0.000   12.667    0.000    0.000 
#
# Total GULP energy -1338686.632029 kJ/mol
# GULP energy per Si atom -12395.246593 kJ/mol
# Density = 1.672537 g / cm^3
# Si number density = 16.763528 Si / 1000 Ang^3
#
#
#
# Elastic Constant Matrix: (Units=GPa)
#
#
# Indices 1 2 3 4 5 6 
#
# 1 86.1467 47.7843 36.7237 0.0000 0.0000 0.0000
# 2 47.7843 86.1467 36.7237 0.0000 0.0000 0.0000
# 3 36.7237 36.7237 81.6282 0.0000 0.0000 0.0000
# 4 0.0000 0.0000 0.0000 16.4520 0.0000 0.0000
# 5 0.0000 0.0000 0.0000 0.0000 16.4520 0.0000
# 6 0.0000 0.0000 0.0000 0.0000 0.0000 19.1812
#
#
#
# Elastic Compliance Matrix: (Units=1/GPa)
#
#
# Indices 1 2 3 4 5 6 
#
# 1 0.017990 -0.008078 -0.004459 0.000000 0.000000 0.000000
# 2 -0.008078 0.017990 -0.004459 0.000000 0.000000 0.000000
# 3 -0.004459 -0.004459 0.016263 0.000000 0.000000 0.000000
# 4 0.000000 0.000000 0.000000 0.060783 0.000000 0.000000
# 5 0.000000 0.000000 0.000000 0.000000 0.060783 0.000000
# 6 0.000000 0.000000 0.000000 0.000000 0.000000 0.052134
#
#
# Mechanical properties :
#
#
# Convention : Reuss Voigt Hill
#
# Bulk Modulus (GPa) = 54.79504 55.15391 54.97447
# Shear Modulus (GPa) = 18.79572 19.26304 19.02938
#
# Velocity S-wave (km/s) = 3.35211 3.39352 3.37288
# Velocity P-wave (km/s) = 6.90943 6.95178 6.93063
#
# Compressibility (1/GPa) = 0.01824983
#
# Stress axis : x y z
#
# Youngs Moduli (GPa) = 55.58766 55.58766 61.48897
#
# Poissons Ratio (x) = 0.44901 0.27420
# Poissons Ratio (y) = 0.44901 0.27420
# Poissons Ratio (z) = 0.24788 0.24788
#
# Static dielectric constant tensor:
#      x y z
#    x 2.930620 0.000000 0.000000 
#    y 0.000000 2.930620 0.000000 
#    z 0.000000 0.000000 3.385620 
# 
# 
# High freq. dielectric constant tensor:
#      x y z
#    x 1.619630 0.000000 0.000000 
#    y 0.000000 1.619630 0.000000 
#    z 0.000000 0.000000 1.663670 
# 
# From -- ./inp_files/7305.got.cif
#   From: 2010.03.12/outbox.cif.g09.slc.cpg/sg191_4_cif.got.tgz:7305.got - 2010.04.01 12:09:02.
