data_PCOD8328944
_publ_section_title
;
Structure prediction by ZEFSAII (Michael W. Deem and Ramdas Pophale) SiO2 
 PCOD8328944
Probable space group: P 6/M M M
;
_chemical_formula_sum "Si O2"
_cell_formula_units_Z 168
_cell_length_a 18.352538
_cell_length_b 18.352538
_cell_length_c 34.704540
_cell_angle_alpha 90.000000
_cell_angle_beta 90.000000
_cell_angle_gamma 120.000000
_cell_volume 10122.998860
_symmetry_space_group_name_H-M "P 6/M M M"
_symmetry_group_IT_number 191
_symmetry_cell_setting 'hexagonal'
loop_
_space_group_symop_operation_xyz
x,y,z
x-y,x,z
-y,x-y,z
-x,-y,z
-x+y,-x,z
y,-x+y,z
x-y,-y,-z
-x,-x+y,-z
y,x,-z
-y,-x,-z
-x+y,y,-z
x,x-y,-z
-x,-y,-z
-x+y,-x,-z
y,-x+y,-z
x,y,-z
x-y,x,-z
-y,x-y,-z
-x+y,y,z
x,x-y,z
-y,-x,z
y,x,z
x-y,-y,z
-x,-x+y,z
loop_
_atom_site_type_symbol
_atom_site_label
_atom_site_fract_x
_atom_site_fract_y
_atom_site_fract_z
Si Si1 0.500181 0.834007 0.259483
Si Si2 0.630677 0.531023 0.042918
Si Si3 0.255620 0.907089 0.313449
Si Si4 0.262974 0.360624 0.109579
Si Si5 0.165817 0.666633 0.170865
Si Si6 0.165655 0.666497 0.544072
Si Si7 0.906987 0.651194 0.401311
O O1 0.420896 0.841792 0.272120
O O2 0.477100 0.738550 0.266548
O O3 0.577053 0.897093 0.286031
O O4 0.524418 0.860312 0.215185
O O5 0.567339 0.432662 0.053794
O O6 0.577638 0.577638 0.043819
O O7 0.706677 0.576727 0.072925
O O8 0.667913 0.536840 0.000000
O O9 0.159387 0.840614 0.302311
O O10 0.275065 0.893706 0.357358
O O11 0.268910 0.000000 0.307495
O O12 0.161616 0.323232 0.113241
O O13 0.285212 0.285212 0.105864
O O14 0.312065 0.416452 0.146584
O O15 0.154053 0.577027 0.157964
O O16 0.262868 0.737133 0.164191
O O17 0.138206 0.666128 0.500000
O O18 0.157836 0.578918 0.555667
O O19 0.261499 0.738502 0.550813
O O20 0.103414 0.679738 0.571473
O O21 0.840449 0.680898 0.412468
O O22 0.000000 0.730611 0.407378
#
# Coordination Sequence:
#
# PCOD8328944 Si02
#       7
#    24  24  24  24  24  24  24
#     4   9  17  29  45  66  93 124 154 180 207 244
#     4   8  14  26  45  68  92 116 141 170 207 254
#     4   9  18  32  48  65  86 113 145 181 222 265
#     4  10  20  32  46  65  89 117 150 189 231 272
#     4   9  17  29  46  68  94 122 149 177 211 254
#     4   9  17  29  45  65  90 120 152 183 213 246
#     4   9  18  32  48  65  86 113 144 179 221 267
#
# _framework density 16.595873999999998
#
# number of rings (size 3 to 8) (size 9 to 14) (size 15 to 20)
#    0.000    3.000    0.000    1.286    0.000    4.857 
#    0.000    3.571    0.000    2.429    0.000    2.000 
#    0.000    0.000    0.000   14.286    0.000    7.429 
#
# Total GULP energy -2082531.738018 kJ/mol
# GULP energy per Si atom -12396.022250 kJ/mol
# Density = 1.655810 g / cm^3
# Si number density = 16.595874 Si / 1000 Ang^3
#
#
#
# Elastic Constant Matrix: (Units=GPa)
#
#
# Indices 1 2 3 4 5 6 
#
# 1 84.8457 55.4443 41.3652 0.0000 0.0000 0.0000
# 2 55.4443 84.8457 41.3652 0.0000 0.0000 0.0000
# 3 41.3652 41.3652 68.5952 0.0000 0.0000 0.0000
# 4 0.0000 0.0000 0.0000 21.3207 0.0000 0.0000
# 5 0.0000 0.0000 0.0000 0.0000 21.3207 0.0000
# 6 0.0000 0.0000 0.0000 0.0000 0.0000 14.7007
#
#
#
# Elastic Compliance Matrix: (Units=1/GPa)
#
#
# Indices 1 2 3 4 5 6 
#
# 1 0.022537 -0.011475 -0.006671 0.000000 0.000000 0.000000
# 2 -0.011475 0.022537 -0.006671 0.000000 0.000000 0.000000
# 3 -0.006671 -0.006671 0.022624 0.000000 0.000000 0.000000
# 4 0.000000 0.000000 0.000000 0.046903 0.000000 0.000000
# 5 0.000000 0.000000 0.000000 0.000000 0.046903 0.000000
# 6 0.000000 0.000000 0.000000 0.000000 0.000000 0.068024
#
#
# Mechanical properties :
#
#
# Convention : Reuss Voigt Hill
#
# Bulk Modulus (GPa) = 55.35693 57.18177 56.26935
# Shear Modulus (GPa) = 17.53271 18.14255 17.83763
#
# Velocity S-wave (km/s) = 3.25383 3.30994 3.28201
# Velocity P-wave (km/s) = 6.89528 7.00984 6.95279
#
# Compressibility (1/GPa) = 0.01806459
#
# Stress axis : x y z
#
# Youngs Moduli (GPa) = 44.37166 44.37166 44.20174
#
# Poissons Ratio (x) = 0.50917 0.29486
# Poissons Ratio (y) = 0.50917 0.29486
# Poissons Ratio (z) = 0.29599 0.29599
#
# Static dielectric constant tensor:
#      x y z
#    x 2.997610 0.000000 0.000000 
#    y 0.000000 2.997610 0.000000 
#    z 0.000000 0.000000 3.324440 
# 
# 
# High freq. dielectric constant tensor:
#      x y z
#    x 1.619090 0.000000 0.000000 
#    y 0.000000 1.619090 0.000000 
#    z 0.000000 0.000000 1.648580 
# 
# From -- ./inp_files/10757.got.cif
#   From: 2010.03.12/outbox.cif.g09.slc.cpg/sg191_6_cif.got.tgz:10757.got - 2010.04.01 12:09:02.
