data_PCOD8328643
_publ_section_title
;
Structure prediction by ZEFSAII (Michael W. Deem and Ramdas Pophale) SiO2 
 PCOD8328643
Probable space group: P 6/M M M
;
_chemical_formula_sum "Si O2"
_cell_formula_units_Z 108
_cell_length_a 31.247253
_cell_length_b 31.247253
_cell_length_c 9.318996
_cell_angle_alpha 90.000000
_cell_angle_beta 90.000000
_cell_angle_gamma 120.000000
_cell_volume 7879.949687
_symmetry_space_group_name_H-M "P 6/M M M"
_symmetry_group_IT_number 191
_symmetry_cell_setting 'hexagonal'
loop_
_space_group_symop_operation_xyz
x,y,z
x-y,x,z
-y,x-y,z
-x,-y,z
-x+y,-x,z
y,-x+y,z
x-y,-y,-z
-x,-x+y,-z
y,x,-z
-y,-x,-z
-x+y,y,-z
x,x-y,-z
-x,-y,-z
-x+y,-x,-z
y,-x+y,-z
x,y,-z
x-y,x,-z
-y,x-y,-z
-x+y,y,z
x,x-y,z
-y,-x,z
y,x,z
x-y,-y,z
-x,-x+y,z
loop_
_atom_site_type_symbol
_atom_site_label
_atom_site_fract_x
_atom_site_fract_y
_atom_site_fract_z
Si Si1 0.470886 0.941771 0.330285
Si Si2 0.631665 0.521005 0.166717
Si Si3 0.692601 0.637497 0.164575
Si Si4 0.637287 0.772009 0.339051
Si Si5 0.192576 0.480171 0.661767
O O1 0.465611 0.931222 0.500000
O O2 0.499788 0.917415 0.258313
O O3 0.500000 0.000000 0.297698
O O4 0.658398 0.579413 0.186940
O O5 0.666034 0.499816 0.229458
O O6 0.620214 0.505481 0.000000
O O7 0.663818 0.663818 0.229461
O O8 0.745345 0.659347 0.242312
O O9 0.705008 0.651006 0.000000
O O10 0.656582 0.774672 0.500000
O O11 0.654973 0.827487 0.281857
O O12 0.578522 0.741147 0.335566
O O13 0.192007 0.498819 0.500000
O O14 0.249409 0.498817 0.709534
#
# Coordination Sequence:
#
# PCOD8328643 Si02
#       5
#    12  24  24  24  24
#     4  11  23  35  45  57  77 109 145 173 197 233
#     4  10  19  30  44  60  80 104 130 162 196 231
#     4   9  17  27  38  54  75  98 125 156 190 228
#     4   8  14  24  37  53  72  94 120 150 183 218
#     4   8  14  26  43  61  81 101 121 149 185 223
#
# _framework density 13.705671000000001
#
# number of rings (size 3 to 8) (size 9 to 14) (size 15 to 20)
#    0.000    3.000    0.000    3.000    0.000    4.000 
#    0.000    4.444    0.000    0.000    0.000    0.000 
#    1.111    0.000    2.000    0.000    2.000    0.000 
#
# Total GULP energy -1338401.122805 kJ/mol
# GULP energy per Si atom -12392.602989 kJ/mol
# Density = 1.367448 g / cm^3
# Si number density = 13.705671 Si / 1000 Ang^3
#
#
#
# Elastic Constant Matrix: (Units=GPa)
#
#
# Indices 1 2 3 4 5 6 
#
# 1 67.4732 36.2388 48.6926 0.0000 0.0000 0.0000
# 2 36.2388 67.4732 48.6926 0.0000 0.0000 0.0000
# 3 48.6926 48.6926 86.0958 0.0000 0.0000 0.0000
# 4 0.0000 0.0000 0.0000 21.5000 0.0000 0.0000
# 5 0.0000 0.0000 0.0000 0.0000 21.5000 0.0000
# 6 0.0000 0.0000 0.0000 0.0000 0.0000 15.6172
#
#
#
# Elastic Compliance Matrix: (Units=1/GPa)
#
#
# Indices 1 2 3 4 5 6 
#
# 1 0.026289 -0.005727 -0.011629 0.000000 0.000000 0.000000
# 2 -0.005727 0.026289 -0.011629 0.000000 0.000000 0.000000
# 3 -0.011629 -0.011629 0.024769 0.000000 0.000000 0.000000
# 4 0.000000 0.000000 0.000000 0.046512 0.000000 0.000000
# 5 0.000000 0.000000 0.000000 0.000000 0.046512 0.000000
# 6 0.000000 0.000000 0.000000 0.000000 0.000000 0.064032
#
#
# Mechanical properties :
#
#
# Convention : Reuss Voigt Hill
#
# Bulk Modulus (GPa) = 51.60929 54.25445 52.93187
# Shear Modulus (GPa) = 16.73193 17.55134 17.14164
#
# Velocity S-wave (km/s) = 3.49779 3.58241 3.54036
# Velocity P-wave (km/s) = 7.35186 7.53545 7.44422
#
# Compressibility (1/GPa) = 0.01937636
#
# Stress axis : x y z
#
# Youngs Moduli (GPa) = 38.03908 38.03908 40.37359
#
# Poissons Ratio (x) = 0.21786 0.46950
# Poissons Ratio (y) = 0.21786 0.46950
# Poissons Ratio (z) = 0.44235 0.44235
#
# Static dielectric constant tensor:
#      x y z
#    x 2.716440 0.000000 0.000000 
#    y 0.000000 2.716440 0.000000 
#    z 0.000000 0.000000 2.881160 
# 
# 
# High freq. dielectric constant tensor:
#      x y z
#    x 1.493630 0.000000 0.000000 
#    y 0.000000 1.493630 0.000000 
#    z 0.000000 0.000000 1.531270 
# 
# From -- ./inp_files/1725.got.cif
#   From: 2010.03.12/outbox.cif.g09.slc.cpg/sg191_1_cif.got.tgz:1725.got - 2010.04.01 12:09:02.
