data_PCOD8328107
_publ_section_title
;
Structure prediction by ZEFSAII (Michael W. Deem and Ramdas Pophale) SiO2 
 PCOD8328107
Probable space group: P -6 2 C
;
_chemical_formula_sum "Si O2"
_cell_formula_units_Z 60
_cell_length_a 13.850763
_cell_length_b 13.850763
_cell_length_c 16.423622
_cell_angle_alpha 90.000000
_cell_angle_beta 90.000000
_cell_angle_gamma 120.000000
_cell_volume 2728.644571
_symmetry_space_group_name_H-M "P -6 2 C"
_symmetry_group_IT_number 190
_symmetry_cell_setting 'hexagonal'
loop_
_space_group_symop_operation_xyz
x,y,z
-x+y,-x,1/2-z
-y,x-y,z
x,y,1/2-z
-x+y,-x,z
-y,x-y,1/2-z
x-y,-y,-z
-x,-x+y,-z
y,x,-z
y,x,1/2+z
x-y,-y,1/2+z
-x,-x+y,1/2+z
loop_
_atom_site_type_symbol
_atom_site_label
_atom_site_fract_x
_atom_site_fract_y
_atom_site_fract_z
Si Si1 0.206554 0.062769 0.080527
Si Si2 0.766842 0.540813 0.421384
Si Si3 0.907661 0.572319 0.937515
Si Si4 0.085264 0.558117 0.844302
Si Si5 0.155334 0.237178 0.341776
O O1 0.336598 0.126532 0.061315
O O2 0.163534 0.144844 0.106295
O O3 0.182911 0.971465 0.150781
O O4 0.140681 0.000000 0.000000
O O5 0.797633 0.496519 0.505954
O O6 0.639689 0.470521 0.392669
O O7 0.849336 0.542665 0.349854
O O8 0.877061 0.638019 0.872022
O O9 0.964273 0.508157 0.890273
O O10 0.000000 0.660979 0.000000
O O11 0.067610 0.519266 0.750000
O O12 0.186811 0.229519 0.250000
#
# Coordination Sequence:
#
# PCOD8328107 Si02
#       5
#    12  12  12  12  12
#     4  12  23  41  65  93 138 181 225 268 334 426
#     4  11  24  43  68  99 136 180 237 292 358 421
#     4  10  20  42  63  94 134 181 217 275 356 427
#     4  11  23  41  72 104 137 177 238 305 362 410
#     4  12  23  38  61  97 138 179 220 272 339 408
#
# _framework density 21.988938000000001
#
# number of rings (size 3 to 8) (size 9 to 14) (size 15 to 20)
#    0.000    0.800    6.000    3.200    0.000    4.800 
#    0.000    0.000    0.000    0.000    0.000    0.000 
#    0.000    0.000    0.000    0.000    0.000    0.000 
#
# Total GULP energy -743466.105294 kJ/mol
# GULP energy per Si atom -12391.101755 kJ/mol
# Density = 2.193889 g / cm^3
# Si number density = 21.988938 Si / 1000 Ang^3
#
#
#
# Elastic Constant Matrix: (Units=GPa)
#
#
# Indices 1 2 3 4 5 6 
#
# 1 68.4466 24.0643 50.4271 0.0000 0.0000 0.0000
# 2 24.0643 68.4466 50.4271 0.0000 0.0000 0.0000
# 3 50.4271 50.4271 159.6097 0.0000 0.0000 0.0000
# 4 0.0000 0.0000 0.0000 30.0053 0.0000 0.0000
# 5 0.0000 0.0000 0.0000 0.0000 30.0053 0.0000
# 6 0.0000 0.0000 0.0000 0.0000 0.0000 22.1911
#
#
#
# Elastic Compliance Matrix: (Units=1/GPa)
#
#
# Indices 1 2 3 4 5 6 
#
# 1 0.019510 -0.003021 -0.005210 0.000000 0.000000 0.000000
# 2 -0.003021 0.019510 -0.005210 0.000000 0.000000 0.000000
# 3 -0.005210 -0.005210 0.009557 0.000000 0.000000 0.000000
# 4 0.000000 0.000000 0.000000 0.033327 0.000000 0.000000
# 5 0.000000 0.000000 0.000000 0.000000 0.033327 0.000000
# 6 0.000000 0.000000 0.000000 0.000000 0.000000 0.045063
#
#
# Mechanical properties :
#
#
# Convention : Reuss Voigt Hill
#
# Bulk Modulus (GPa) = 46.08970 60.70444 53.39707
# Shear Modulus (GPa) = 25.71908 27.87931 26.79919
#
# Velocity S-wave (km/s) = 3.42371 3.56459 3.49486
# Velocity P-wave (km/s) = 6.05268 6.67896 6.37352
#
# Compressibility (1/GPa) = 0.02169682
#
# Stress axis : x y z
#
# Youngs Moduli (GPa) = 51.25524 51.25524 104.63456
#
# Poissons Ratio (x) = 0.15486 0.54509
# Poissons Ratio (y) = 0.15486 0.54509
# Poissons Ratio (z) = 0.26701 0.26701
#
# Static dielectric constant tensor:
#      x y z
#    x 3.999280 0.000000 0.000000 
#    y 0.000000 3.999280 0.000000 
#    z 0.000000 0.000000 4.062810 
# 
# 
# High freq. dielectric constant tensor:
#      x y z
#    x 1.848370 0.000000 0.000000 
#    y 0.000000 1.848370 0.000000 
#    z 0.000000 0.000000 1.867420 
# 
# From -- ./inp_files/2815.got.cif
#   From: 2010.06.25/outbox.cif.g09.slc.cpg/sg190_2_cif.got.tgz:2815.got - 2010.06.28 13:08:06.
