data_PCOD8328909
_publ_section_title
;
Structure prediction by ZEFSAII (Michael W. Deem and Ramdas Pophale) SiO2 
 PCOD8328909
Probable space group: P 6/M M M
;
_chemical_formula_sum "Si O2"
_cell_formula_units_Z 90
_cell_length_a 26.336305
_cell_length_b 26.336305
_cell_length_c 8.240066
_cell_angle_alpha 90.000000
_cell_angle_beta 90.000000
_cell_angle_gamma 120.000000
_cell_volume 4949.610316
_symmetry_space_group_name_H-M "P 6/M M M"
_symmetry_group_IT_number 191
_symmetry_cell_setting 'hexagonal'
loop_
_space_group_symop_operation_xyz
x,y,z
x-y,x,z
-y,x-y,z
-x,-y,z
-x+y,-x,z
y,-x+y,z
x-y,-y,-z
-x,-x+y,-z
y,x,-z
-y,-x,-z
-x+y,y,-z
x,x-y,-z
-x,-y,-z
-x+y,-x,-z
y,-x+y,-z
x,y,-z
x-y,x,-z
-y,x-y,-z
-x+y,y,z
x,x-y,z
-y,-x,z
y,x,z
x-y,-y,z
-x,-x+y,z
loop_
_atom_site_type_symbol
_atom_site_label
_atom_site_fract_x
_atom_site_fract_y
_atom_site_fract_z
Si Si1 0.553453 0.219793 0.308917
Si Si2 0.569072 0.844935 0.816992
Si Si3 0.000000 0.878719 0.500000
Si Si4 0.194784 0.000000 0.815281
Si Si5 0.215014 0.310676 0.678921
O O1 0.559206 0.225334 0.500000
O O2 0.605420 0.210839 0.235802
O O3 0.559442 0.279721 0.235639
O O4 0.490488 0.164060 0.264400
O O5 0.570210 0.785105 0.802824
O O6 0.626931 0.897099 0.731579
O O7 0.570104 0.864476 0.000000
O O8 0.942392 0.884783 0.500000
O O9 0.000000 0.846426 0.668410
O O10 0.202777 0.943678 0.802641
O O11 0.170773 0.000000 0.000000
O O12 0.227643 0.294460 0.500000
O O13 0.158854 0.317707 0.676257
#
# Coordination Sequence:
#
# PCOD8328909 Si02
#       5
#    24  24   6  12  24
#     4   9  16  26  40  60  89 130 179 227 273 326
#     4   9  17  28  43  66  96 130 169 215 272 331
#     4  12  27  48  68  92 124 162 199 228 260 304
#     4  12  24  39  63  93 121 149 187 231 272 314
#     4  10  19  34  55  79 108 139 172 215 268 322
#
# _framework density 18.183250000000001
#
# number of rings (size 3 to 8) (size 9 to 14) (size 15 to 20)
#    0.000    2.133    1.333    2.733    0.000    8.000 
#    0.000    0.000    0.000    2.400    0.000    0.933 
#    0.000    7.467    0.000    0.000    0.000    0.000 
#
# Total GULP energy -1115354.316689 kJ/mol
# GULP energy per Si atom -12392.825741 kJ/mol
# Density = 1.814186 g / cm^3
# Si number density = 18.183250 Si / 1000 Ang^3
#
#
#
# Elastic Constant Matrix: (Units=GPa)
#
#
# Indices 1 2 3 4 5 6 
#
# 1 84.5266 50.4577 34.9829 0.0000 0.0000 0.0000
# 2 50.4577 84.5266 34.9829 0.0000 0.0000 0.0000
# 3 34.9829 34.9829 97.6329 0.0000 0.0000 0.0000
# 4 0.0000 0.0000 0.0000 19.9482 0.0000 0.0000
# 5 0.0000 0.0000 0.0000 0.0000 19.9482 0.0000
# 6 0.0000 0.0000 0.0000 0.0000 0.0000 17.0344
#
#
#
# Elastic Compliance Matrix: (Units=1/GPa)
#
#
# Indices 1 2 3 4 5 6 
#
# 1 0.019225 -0.010127 -0.003260 0.000000 0.000000 0.000000
# 2 -0.010127 0.019225 -0.003260 0.000000 0.000000 0.000000
# 3 -0.003260 -0.003260 0.012579 0.000000 0.000000 0.000000
# 4 0.000000 0.000000 0.000000 0.050130 0.000000 0.000000
# 5 0.000000 0.000000 0.000000 0.000000 0.050130 0.000000
# 6 0.000000 0.000000 0.000000 0.000000 0.000000 0.058705
#
#
# Mechanical properties :
#
#
# Convention : Reuss Voigt Hill
#
# Bulk Modulus (GPa) = 56.38602 56.39257 56.38929
# Shear Modulus (GPa) = 20.06432 21.13700 20.60066
#
# Velocity S-wave (km/s) = 3.32543 3.41316 3.36958
# Velocity P-wave (km/s) = 6.76918 6.82742 6.79836
#
# Compressibility (1/GPa) = 0.01773489
#
# Stress axis : x y z
#
# Youngs Moduli (GPa) = 52.01526 52.01526 79.50029
#
# Poissons Ratio (x) = 0.52677 0.25916
# Poissons Ratio (y) = 0.52677 0.25916
# Poissons Ratio (z) = 0.16956 0.16956
#
# Static dielectric constant tensor:
#      x y z
#    x 3.358820 0.000000 0.000000 
#    y 0.000000 3.358820 0.000000 
#    z 0.000000 0.000000 3.474100 
# 
# 
# High freq. dielectric constant tensor:
#      x y z
#    x 1.682170 0.000000 0.000000 
#    y 0.000000 1.682170 0.000000 
#    z 0.000000 0.000000 1.709450 
# 
# From -- ./inp_files/1261.got.cif
#   From: 2010.03.12/outbox.cif.g09.slc.cpg/sg191_1_cif.got.tgz:1261.got - 2010.04.01 12:09:02.
