data_PCOD8328663
_publ_section_title
;
Structure prediction by ZEFSAII (Michael W. Deem and Ramdas Pophale) SiO2 
 PCOD8328663
Probable space group: P 6/M M M
;
_chemical_formula_sum "Si O2"
_cell_formula_units_Z 168
_cell_length_a 18.557706
_cell_length_b 18.557706
_cell_length_c 34.964065
_cell_angle_alpha 90.000000
_cell_angle_beta 90.000000
_cell_angle_gamma 120.000000
_cell_volume 10428.002603
_symmetry_space_group_name_H-M "P 6/M M M"
_symmetry_group_IT_number 191
_symmetry_cell_setting 'hexagonal'
loop_
_space_group_symop_operation_xyz
x,y,z
x-y,x,z
-y,x-y,z
-x,-y,z
-x+y,-x,z
y,-x+y,z
x-y,-y,-z
-x,-x+y,-z
y,x,-z
-y,-x,-z
-x+y,y,-z
x,x-y,-z
-x,-y,-z
-x+y,-x,-z
y,-x+y,-z
x,y,-z
x-y,x,-z
-y,x-y,-z
-x+y,y,z
x,x-y,z
-y,-x,z
y,x,z
x-y,-y,z
-x,-x+y,z
loop_
_atom_site_type_symbol
_atom_site_label
_atom_site_fract_x
_atom_site_fract_y
_atom_site_fract_z
Si Si1 0.093102 0.349424 0.187632
Si Si2 0.744585 0.093305 0.455739
Si Si3 0.168053 0.668468 0.598440
Si Si4 0.530376 0.901318 0.957402
Si Si5 0.368267 0.907177 0.678068
Si Si6 0.331534 0.831917 0.242341
Si Si7 0.906078 0.252147 0.099803
O O1 0.159928 0.319856 0.197463
O O2 0.111810 0.430517 0.211502
O O3 0.098477 0.375106 0.143399
O O4 0.000000 0.274420 0.197308
O O5 0.727905 0.101834 0.500000
O O6 0.840550 0.159450 0.444767
O O7 0.681321 0.111623 0.432309
O O8 0.725858 0.000000 0.446429
O O9 0.153406 0.576703 0.592503
O O10 0.264973 0.735028 0.592447
O O11 0.141445 0.682123 0.640505
O O12 0.432987 0.865973 0.947577
O O13 0.571445 0.869416 0.926296
O O14 0.577014 0.000000 0.955990
O O15 0.538577 0.871703 0.000000
O O16 0.456062 0.912124 0.678134
O O17 0.317805 0.858813 0.715666
O O18 0.381530 0.000000 0.677975
O O19 0.423356 0.846711 0.236523
O O20 0.265022 0.734979 0.236493
O O21 0.847112 0.152889 0.093904
O O22 0.000000 0.276906 0.088206
#
# Coordination Sequence:
#
# PCOD8328663 Si02
#       7
#    24  24  24  24  24  24  24
#     4   9  18  31  46  64  86 113 144 180 222 264
#     4   9  18  32  49  68  89 114 144 179 221 267
#     4  10  19  30  44  63  89 121 155 188 221 257
#     4   8  14  25  41  61  84 109 138 173 211 249
#     4   9  17  28  42  60  82 111 149 190 224 252
#     4  10  19  30  44  63  89 120 151 180 212 254
#     4   9  17  29  45  65  88 114 145 180 218 260
#
# _framework density 16.110468000000001
#
# number of rings (size 3 to 8) (size 9 to 14) (size 15 to 20)
#    0.000    2.857    0.000    2.000    0.000    2.857 
#    0.000    3.571    0.000    1.571    0.000    3.000 
#    0.000    0.000    0.000    3.571    0.000   33.429 
#
# Total GULP energy -2082504.694588 kJ/mol
# GULP energy per Si atom -12395.861277 kJ/mol
# Density = 1.607380 g / cm^3
# Si number density = 16.110468 Si / 1000 Ang^3
#
#
#
# Elastic Constant Matrix: (Units=GPa)
#
#
# Indices 1 2 3 4 5 6 
#
# 1 87.1966 56.4067 46.4911 0.0000 0.0000 0.0000
# 2 56.4067 87.1966 46.4911 0.0000 0.0000 0.0000
# 3 46.4911 46.4911 80.3462 0.0000 0.0000 0.0000
# 4 0.0000 0.0000 0.0000 21.7768 0.0000 0.0000
# 5 0.0000 0.0000 0.0000 0.0000 21.7768 0.0000
# 6 0.0000 0.0000 0.0000 0.0000 0.0000 15.3950
#
#
#
# Elastic Compliance Matrix: (Units=1/GPa)
#
#
# Indices 1 2 3 4 5 6 
#
# 1 0.021807 -0.010671 -0.006444 0.000000 0.000000 0.000000
# 2 -0.010671 0.021807 -0.006444 0.000000 0.000000 0.000000
# 3 -0.006444 -0.006444 0.019903 0.000000 0.000000 0.000000
# 4 0.000000 0.000000 0.000000 0.045920 0.000000 0.000000
# 5 0.000000 0.000000 0.000000 0.000000 0.045920 0.000000
# 6 0.000000 0.000000 0.000000 0.000000 0.000000 0.064956
#
#
# Mechanical properties :
#
#
# Convention : Reuss Voigt Hill
#
# Bulk Modulus (GPa) = 60.97400 61.50189 61.23795
# Shear Modulus (GPa) = 18.32192 18.81311 18.56752
#
# Velocity S-wave (km/s) = 3.37600 3.42095 3.39855
# Velocity P-wave (km/s) = 7.28877 7.33907 7.31396
#
# Compressibility (1/GPa) = 0.01640043
#
# Stress axis : x y z
#
# Youngs Moduli (GPa) = 45.85698 45.85698 50.24359
#
# Poissons Ratio (x) = 0.48935 0.32375
# Poissons Ratio (y) = 0.48935 0.32375
# Poissons Ratio (z) = 0.29548 0.29548
#
# Static dielectric constant tensor:
#      x y z
#    x 3.004250 0.000000 0.000000 
#    y 0.000000 3.004250 0.000000 
#    z 0.000000 0.000000 3.246130 
# 
# 
# High freq. dielectric constant tensor:
#      x y z
#    x 1.602150 0.000000 0.000000 
#    y 0.000000 1.602150 0.000000 
#    z 0.000000 0.000000 1.628790 
# 
# From -- ./inp_files/10758.got.cif
#   From: 2010.03.12/outbox.cif.g09.slc.cpg/sg191_6_cif.got.tgz:10758.got - 2010.04.01 12:09:02.
