data_PCOD8328328
_publ_section_title
;
Structure prediction by ZEFSAII (Michael W. Deem and Ramdas Pophale) SiO2 
 PCOD8328328
Probable space group: P 6/M M M
;
_chemical_formula_sum "Si O2"
_cell_formula_units_Z 120
_cell_length_a 18.211685
_cell_length_b 18.211685
_cell_length_c 25.930485
_cell_angle_alpha 90.000000
_cell_angle_beta 90.000000
_cell_angle_gamma 120.000000
_cell_volume 7448.031955
_symmetry_space_group_name_H-M "P 6/M M M"
_symmetry_group_IT_number 191
_symmetry_cell_setting 'hexagonal'
loop_
_space_group_symop_operation_xyz
x,y,z
x-y,x,z
-y,x-y,z
-x,-y,z
-x+y,-x,z
y,-x+y,z
x-y,-y,-z
-x,-x+y,-z
y,x,-z
-y,-x,-z
-x+y,y,-z
x,x-y,-z
-x,-y,-z
-x+y,-x,-z
y,-x+y,-z
x,y,-z
x-y,x,-z
-y,x-y,-z
-x+y,y,z
x,x-y,z
-y,-x,z
y,x,z
x-y,-y,z
-x,-x+y,z
loop_
_atom_site_type_symbol
_atom_site_label
_atom_site_fract_x
_atom_site_fract_y
_atom_site_fract_z
Si Si1 0.496705 0.331179 0.608714
Si Si2 0.331021 0.830812 0.104767
Si Si3 0.539638 0.633590 0.500000
Si Si4 0.364064 0.265760 0.304493
Si Si5 0.901234 0.365833 0.000000
Si Si6 0.532588 0.900490 0.788978
O O1 0.527611 0.263806 0.619871
O O2 0.574428 0.425573 0.618021
O O3 0.460631 0.316291 0.550709
O O4 0.419709 0.315058 0.645873
O O5 0.428232 0.856464 0.103640
O O6 0.270024 0.729977 0.106777
O O7 0.310420 0.865851 0.052355
O O8 0.317861 0.871928 0.156494
O O9 0.622064 0.622064 0.500000
O O10 0.457243 0.542758 0.500000
O O11 0.327428 0.163714 0.308924
O O12 0.287623 0.287623 0.299517
O O13 0.427750 0.298719 0.255927
O O14 0.872179 0.436090 0.000000
O O15 0.000000 0.405330 0.000000
O O16 0.430488 0.860975 0.781146
O O17 0.575239 0.000000 0.788436
#
# Coordination Sequence:
#
# PCOD8328328 Si02
#       6
#    24  24  12  24  12  24
#     4  10  19  30  45  66  93 124 156 189 223 260
#     4  10  18  27  39  56  79 105 134 168 206 246
#     4   9  17  28  42  60  84 119 161 197 225 254
#     4  10  20  33  49  68  89 114 145 182 223 266
#     4   9  17  28  40  52  68  95 132 172 210 246
#     4   9  17  29  45  64  86 113 143 172 203 245
#
# _framework density 16.111639
#
# number of rings (size 3 to 8) (size 9 to 14) (size 15 to 20)
#    0.000    2.400    0.000    3.400    0.000    4.400 
#    0.000    2.000    0.000    6.600    0.000    0.000 
#    0.000    0.000    0.000    0.000    0.000   20.800 
#
# Total GULP energy -1487245.645237 kJ/mol
# GULP energy per Si atom -12393.713710 kJ/mol
# Density = 1.607497 g / cm^3
# Si number density = 16.111639 Si / 1000 Ang^3
#
#
#
# Elastic Constant Matrix: (Units=GPa)
#
#
# Indices 1 2 3 4 5 6 
#
# 1 43.3433 33.5221 26.5113 0.0000 0.0000 0.0000
# 2 33.5221 43.3433 26.5113 0.0000 0.0000 0.0000
# 3 26.5113 26.5113 126.5903 0.0000 0.0000 0.0000
# 4 0.0000 0.0000 0.0000 10.8315 0.0000 0.0000
# 5 0.0000 0.0000 0.0000 0.0000 10.8315 0.0000
# 6 0.0000 0.0000 0.0000 0.0000 0.0000 4.9106
#
#
#
# Elastic Compliance Matrix: (Units=1/GPa)
#
#
# Indices 1 2 3 4 5 6 
#
# 1 0.058514 -0.043307 -0.003185 0.000000 0.000000 0.000000
# 2 -0.043307 0.058514 -0.003185 0.000000 0.000000 0.000000
# 3 -0.003185 -0.003185 0.009233 0.000000 0.000000 0.000000
# 4 0.000000 0.000000 0.000000 0.092323 0.000000 0.000000
# 5 0.000000 0.000000 0.000000 0.000000 0.092323 0.000000
# 6 0.000000 0.000000 0.000000 0.000000 0.000000 0.203643
#
#
# Mechanical properties :
#
#
# Convention : Reuss Voigt Hill
#
# Bulk Modulus (GPa) = 37.16378 42.92959 40.04669
# Shear Modulus (GPa) = 8.02730 13.76351 10.89541
#
# Velocity S-wave (km/s) = 2.23453 2.92594 2.60329
# Velocity P-wave (km/s) = 5.45655 6.17396 5.82631
#
# Compressibility (1/GPa) = 0.02690792
#
# Stress axis : x y z
#
# Youngs Moduli (GPa) = 17.08992 17.08992 108.30254
#
# Poissons Ratio (x) = 0.74012 0.34491
# Poissons Ratio (y) = 0.74012 0.34491
# Poissons Ratio (z) = 0.05443 0.05443
#
# Static dielectric constant tensor:
#      x y z
#    x 2.803810 0.000000 0.000000 
#    y 0.000000 2.803810 0.000000 
#    z 0.000000 0.000000 3.518530 
# 
# 
# High freq. dielectric constant tensor:
#      x y z
#    x 1.585490 0.000000 0.000000 
#    y 0.000000 1.585490 0.000000 
#    z 0.000000 0.000000 1.647330 
# 
# From -- ./inp_files/9659.got.cif
#   From: 2010.03.12/outbox.cif.g09.slc.cpg/sg191_5_cif.got.tgz:9659.got - 2010.04.01 12:09:02.
