data_PCOD8328207
_publ_section_title
;
Structure prediction by ZEFSAII (Michael W. Deem and Ramdas Pophale) SiO2 
 PCOD8328207
Probable space group: P -6 2 C
;
_chemical_formula_sum "Si O2"
_cell_formula_units_Z 72
_cell_length_a 15.230553
_cell_length_b 15.230553
_cell_length_c 17.022180
_cell_angle_alpha 90.000000
_cell_angle_beta 90.000000
_cell_angle_gamma 120.000000
_cell_volume 3419.614538
_symmetry_space_group_name_H-M "P -6 2 C"
_symmetry_group_IT_number 190
_symmetry_cell_setting 'hexagonal'
loop_
_space_group_symop_operation_xyz
x,y,z
-x+y,-x,1/2-z
-y,x-y,z
x,y,1/2-z
-x+y,-x,z
-y,x-y,1/2-z
x-y,-y,-z
-x,-x+y,-z
y,x,-z
y,x,1/2+z
x-y,-y,1/2+z
-x,-x+y,1/2+z
loop_
_atom_site_type_symbol
_atom_site_label
_atom_site_fract_x
_atom_site_fract_y
_atom_site_fract_z
Si Si1 0.998513 0.716192 0.090072
Si Si2 0.097589 0.121220 0.837575
Si Si3 0.711093 0.184647 0.157953
Si Si4 0.185294 0.730620 0.158761
Si Si5 0.503263 0.122174 0.410946
Si Si6 0.511161 0.111928 0.904770
O O1 0.959541 0.796637 0.096882
O O2 0.926962 0.617390 0.139682
O O3 0.109727 0.768396 0.128494
O O4 0.000000 0.686127 0.000000
O O5 0.134785 0.166798 0.750000
O O6 0.108452 0.020689 0.847906
O O7 0.708819 0.201624 0.250000
O O8 0.619040 0.190485 0.117388
O O9 0.820504 0.267083 0.123260
O O10 0.170482 0.702963 0.250000
O O11 0.298169 0.821598 0.144819
O O12 0.157201 0.629826 0.110116
O O13 0.495757 0.123079 0.504085
O O14 0.451202 0.006321 0.379042
#
# Coordination Sequence:
#
# PCOD8328207 Si02
#       6
#    12  12  12  12  12  12
#     4  12  24  40  64  93 128 169 214 264 324 385
#     4   8  18  38  62  87 120 159 204 256 314 377
#     4  12  25  42  67  96 132 173 219 272 331 394
#     4  12  25  42  67  96 132 173 219 272 331 394
#     4  11  24  44  69  97 133 175 224 277 334 400
#     4  11  24  44  69  97 133 175 224 277 334 400
#
# _framework density 21.055005999999999
#
# number of rings (size 3 to 8) (size 9 to 14) (size 15 to 20)
#    0.333    0.667    1.667    6.167    0.000    4.000 
#    0.000    0.000    0.000    0.000    0.000    0.000 
#    0.000    0.000    0.000    0.000    0.000    0.000 
#
# Total GULP energy -892900.000282 kJ/mol
# GULP energy per Si atom -12401.388893 kJ/mol
# Density = 2.100708 g / cm^3
# Si number density = 21.055006 Si / 1000 Ang^3
#
#
#
# Elastic Constant Matrix: (Units=GPa)
#
#
# Indices 1 2 3 4 5 6 
#
# 1 84.7390 19.9984 22.8267 0.0000 0.0000 0.0000
# 2 19.9984 84.7390 22.8267 0.0000 0.0000 0.0000
# 3 22.8267 22.8267 82.6978 0.0000 0.0000 0.0000
# 4 0.0000 0.0000 0.0000 30.9846 0.0000 0.0000
# 5 0.0000 0.0000 0.0000 0.0000 30.9846 0.0000
# 6 0.0000 0.0000 0.0000 0.0000 0.0000 32.3703
#
#
#
# Elastic Compliance Matrix: (Units=1/GPa)
#
#
# Indices 1 2 3 4 5 6 
#
# 1 0.013150 -0.002296 -0.002996 0.000000 0.000000 0.000000
# 2 -0.002296 0.013150 -0.002996 0.000000 0.000000 0.000000
# 3 -0.002996 -0.002996 0.013746 0.000000 0.000000 0.000000
# 4 0.000000 0.000000 0.000000 0.032274 0.000000 0.000000
# 5 0.000000 0.000000 0.000000 0.000000 0.032274 0.000000
# 6 0.000000 0.000000 0.000000 0.000000 0.000000 0.030893
#
#
# Mechanical properties :
#
#
# Convention : Reuss Voigt Hill
#
# Bulk Modulus (GPa) = 42.60804 42.60881 42.60843
# Shear Modulus (GPa) = 31.27229 31.30283 31.28756
#
# Velocity S-wave (km/s) = 3.85810 3.85998 3.85904
# Velocity P-wave (km/s) = 6.33459 6.33615 6.33537
#
# Compressibility (1/GPa) = 0.02346975
#
# Stress axis : x y z
#
# Youngs Moduli (GPa) = 76.04628 76.04628 72.74806
#
# Poissons Ratio (x) = 0.17463 0.21794
# Poissons Ratio (y) = 0.17463 0.21794
# Poissons Ratio (z) = 0.22782 0.22782
#
# Static dielectric constant tensor:
#      x y z
#    x 3.810890 0.000000 0.000000 
#    y 0.000000 3.810890 0.000000 
#    z 0.000000 0.000000 3.717560 
# 
# 
# High freq. dielectric constant tensor:
#      x y z
#    x 1.825980 0.000000 0.000000 
#    y 0.000000 1.825980 0.000000 
#    z 0.000000 0.000000 1.829570 
# 
# From -- ./inp_files/3753.got.cif
#   From: 2010.06.25/outbox.cif.g09.slc.cpg/sg190_2_cif.got.tgz:3753.got - 2010.06.28 13:08:06.
