data_PCOD8328373
_publ_section_title
;
Structure prediction by ZEFSAII (Michael W. Deem and Ramdas Pophale) SiO2 
 PCOD8328373
Probable space group: P 6/M M M
;
_chemical_formula_sum "Si O2"
_cell_formula_units_Z 180
_cell_length_a 22.410705
_cell_length_b 22.410705
_cell_length_c 32.601930
_cell_angle_alpha 90.000000
_cell_angle_beta 90.000000
_cell_angle_gamma 120.000000
_cell_volume 14180.285669
_symmetry_space_group_name_H-M "P 6/M M M"
_symmetry_group_IT_number 191
_symmetry_cell_setting 'hexagonal'
loop_
_space_group_symop_operation_xyz
x,y,z
x-y,x,z
-y,x-y,z
-x,-y,z
-x+y,-x,z
y,-x+y,z
x-y,-y,-z
-x,-x+y,-z
y,x,-z
-y,-x,-z
-x+y,y,-z
x,x-y,-z
-x,-y,-z
-x+y,-x,-z
y,-x+y,-z
x,y,-z
x-y,x,-z
-y,x-y,-z
-x+y,y,z
x,x-y,z
-y,-x,z
y,x,z
x-y,-y,z
-x,-x+y,z
loop_
_atom_site_type_symbol
_atom_site_label
_atom_site_fract_x
_atom_site_fract_y
_atom_site_fract_z
Si Si1 0.076443 0.467365 0.953984
Si Si2 0.924018 0.532980 0.258492
Si Si3 0.804808 0.471862 0.199573
Si Si4 0.528067 0.332949 0.105050
Si Si5 0.470854 0.391343 0.350674
Si Si6 0.191619 0.666577 0.500000
Si Si7 0.287949 0.436808 0.422146
Si Si8 0.923108 0.209646 0.451954
O O1 0.075687 0.537844 0.951707
O O2 0.132569 0.470369 0.922057
O O3 0.000000 0.405140 0.942343
O O4 0.095971 0.456262 0.000000
O O5 0.925483 0.462742 0.257499
O O6 0.867373 0.529186 0.226738
O O7 0.906356 0.545549 0.304536
O O8 0.000000 0.594936 0.245732
O O9 0.736284 0.472567 0.212095
O O10 0.791445 0.395723 0.208555
O O11 0.824346 0.492079 0.152316
O O12 0.527648 0.263824 0.092548
O O13 0.604157 0.395844 0.095965
O O14 0.549836 0.450165 0.354144
O O15 0.421340 0.421340 0.362700
O O16 0.459566 0.331090 0.380809
O O17 0.267547 0.732454 0.500000
O O18 0.197807 0.598904 0.500000
O O19 0.148892 0.666365 0.460228
O O20 0.224547 0.449094 0.415664
O O21 0.262353 0.356886 0.429608
O O22 0.917142 0.219421 0.500000
O O23 0.869298 0.130703 0.439054
O O24 0.000000 0.227298 0.439497
#
# Coordination Sequence:
#
# PCOD8328373 Si02
#       8
#    24  24  24  24  24  12  24  24
#     4   8  14  24  35  46  62  85 113 143 172 203
#     4   8  15  27  40  52  67  88 113 141 173 209
#     4   9  16  25  37  52  70  89 111 140 175 212
#     4   9  16  24  34  49  68  89 111 139 176 216
#     4   9  17  29  42  55  72  92 114 143 178 209
#     4  10  19  30  41  53  72  97 124 150 175 201
#     4  10  18  28  41  57  75  95 118 144 171 202
#     4   9  16  27  42  58  76  95 114 136 162 192
#
# _framework density 12.693678999999999
#
# number of rings (size 3 to 8) (size 9 to 14) (size 15 to 20)
#    0.000    3.067    0.667    2.333    0.000    2.400 
#    0.000    2.667    0.000    2.800    0.000    0.933 
#    0.000    0.000    0.000    0.000    0.000    0.000 
#
# Total GULP energy -2231286.973478 kJ/mol
# GULP energy per Si atom -12396.038742 kJ/mol
# Density = 1.266479 g / cm^3
# Si number density = 12.693679 Si / 1000 Ang^3
#
#
#
# Elastic Constant Matrix: (Units=GPa)
#
#
# Indices 1 2 3 4 5 6 
#
# 1 62.1081 38.2899 44.1587 0.0000 0.0000 0.0000
# 2 38.2899 62.1081 44.1587 0.0000 0.0000 0.0000
# 3 44.1587 44.1587 77.6823 0.0000 0.0000 0.0000
# 4 0.0000 0.0000 0.0000 19.6444 0.0000 0.0000
# 5 0.0000 0.0000 0.0000 0.0000 19.6444 0.0000
# 6 0.0000 0.0000 0.0000 0.0000 0.0000 11.9091
#
#
#
# Elastic Compliance Matrix: (Units=1/GPa)
#
#
# Indices 1 2 3 4 5 6 
#
# 1 0.030954 -0.011031 -0.011325 0.000000 0.000000 0.000000
# 2 -0.011031 0.030954 -0.011325 0.000000 0.000000 0.000000
# 3 -0.011325 -0.011325 0.025749 0.000000 0.000000 0.000000
# 4 0.000000 0.000000 0.000000 0.050905 0.000000 0.000000
# 5 0.000000 0.000000 0.000000 0.000000 0.050905 0.000000
# 6 0.000000 0.000000 0.000000 0.000000 0.000000 0.083970
#
#
# Mechanical properties :
#
#
# Convention : Reuss Voigt Hill
#
# Bulk Modulus (GPa) = 49.27682 50.56812 49.92247
# Shear Modulus (GPa) = 14.38587 15.25898 14.82243
#
# Velocity S-wave (km/s) = 3.37012 3.47088 3.42087
# Velocity P-wave (km/s) = 7.35172 7.48241 7.41735
#
# Compressibility (1/GPa) = 0.02029352
#
# Stress axis : x y z
#
# Youngs Moduli (GPa) = 32.30620 32.30620 38.83711
#
# Poissons Ratio (x) = 0.35637 0.43984
# Poissons Ratio (y) = 0.35637 0.43984
# Poissons Ratio (z) = 0.36587 0.36587
#
# Static dielectric constant tensor:
#      x y z
#    x 2.516470 0.000000 0.000000 
#    y 0.000000 2.516470 0.000000 
#    z 0.000000 0.000000 2.621930 
# 
# 
# High freq. dielectric constant tensor:
#      x y z
#    x 1.461470 0.000000 0.000000 
#    y 0.000000 1.461470 0.000000 
#    z 0.000000 0.000000 1.481150 
# 
# From -- ./inp_files/10933.got.cif
#   From: 2010.03.12/outbox.cif.g09.slc.cpg/sg191_6_cif.got.tgz:10933.got - 2010.04.01 12:09:02.
