data_PCOD8328886
_publ_section_title
;
Structure prediction by ZEFSAII (Michael W. Deem and Ramdas Pophale) SiO2 
 PCOD8328886
Probable space group: P 6/M M M
;
_chemical_formula_sum "Si O2"
_cell_formula_units_Z 90
_cell_length_a 17.346575
_cell_length_b 17.346575
_cell_length_c 19.593307
_cell_angle_alpha 90.000000
_cell_angle_beta 90.000000
_cell_angle_gamma 120.000000
_cell_volume 5105.824129
_symmetry_space_group_name_H-M "P 6/M M M"
_symmetry_group_IT_number 191
_symmetry_cell_setting 'hexagonal'
loop_
_space_group_symop_operation_xyz
x,y,z
x-y,x,z
-y,x-y,z
-x,-y,z
-x+y,-x,z
y,-x+y,z
x-y,-y,-z
-x,-x+y,-z
y,x,-z
-y,-x,-z
-x+y,y,-z
x,x-y,-z
-x,-y,-z
-x+y,-x,-z
y,-x+y,-z
x,y,-z
x-y,x,-z
-y,x-y,-z
-x+y,y,z
x,x-y,z
-y,-x,z
y,x,z
x-y,-y,z
-x,-x+y,z
loop_
_atom_site_type_symbol
_atom_site_label
_atom_site_fract_x
_atom_site_fract_y
_atom_site_fract_z
Si Si1 0.204945 0.102473 0.580693
Si Si2 0.638189 0.534016 0.273164
Si Si3 0.331404 0.840904 0.874934
Si Si4 0.275069 0.724932 0.500000
Si Si5 0.731311 0.096037 0.000000
Si Si6 0.588284 0.794142 0.376067
O O1 0.154756 0.154756 0.608809
O O2 0.199188 0.099594 0.500000
O O3 0.309095 0.154548 0.600532
O O4 0.572830 0.427171 0.280911
O O5 0.581863 0.581863 0.281396
O O6 0.684689 0.555392 0.199079
O O7 0.710390 0.571283 0.331876
O O8 0.431401 0.862801 0.882524
O O9 0.263948 0.736053 0.885279
O O10 0.316214 0.896026 0.932765
O O11 0.232555 0.616278 0.500000
O O12 0.242023 0.757978 0.436083
O O13 0.835291 0.164710 0.000000
O O14 0.722749 0.000000 0.000000
#
# Coordination Sequence:
#
# PCOD8328886 Si02
#       6
#    12  24  24   6  12  12
#     4  10  21  38  62  88 113 139 173 225 285 349
#     4  10  21  35  53  79 111 146 186 232 272 319
#     4  10  19  33  51  79 112 148 188 222 261 316
#     4  10  24  40  56  82 112 146 186 232 266 320
#     4  10  21  35  55  78 107 145 182 230 281 327
#     4  12  20  39  58  81 110 144 190 223 276 334
#
# _framework density 17.626927999999999
#
# number of rings (size 3 to 8) (size 9 to 14) (size 15 to 20)
#    0.133    1.600    2.000    3.200    0.000    2.667 
#    0.800    1.333    0.000    3.333    0.000    0.000 
#    0.000    0.000    0.000    0.000    0.000    0.000 
#
# Total GULP energy -1115714.445279 kJ/mol
# GULP energy per Si atom -12396.827170 kJ/mol
# Density = 1.758681 g / cm^3
# Si number density = 17.626928 Si / 1000 Ang^3
#
#
#
# Elastic Constant Matrix: (Units=GPa)
#
#
# Indices 1 2 3 4 5 6 
#
# 1 81.3649 86.6556 47.2483 0.0000 0.0000 0.0000
# 2 86.6556 81.3649 47.2483 0.0000 0.0000 0.0000
# 3 47.2483 47.2483 103.7139 0.0000 0.0000 0.0000
# 4 0.0000 0.0000 0.0000 26.6687 0.0000 0.0000
# 5 0.0000 0.0000 0.0000 0.0000 26.6687 0.0000
# 6 0.0000 0.0000 0.0000 0.0000 0.0000 -2.6453
#
#
#
# Elastic Compliance Matrix: (Units=1/GPa)
#
#
# Indices 1 2 3 4 5 6 
#
# 1 -0.090505 0.098506 -0.003645 0.000000 0.000000 0.000000
# 2 0.098506 -0.090505 -0.003645 0.000000 0.000000 0.000000
# 3 -0.003645 -0.003645 0.012963 0.000000 0.000000 0.000000
# 4 0.000000 0.000000 0.000000 0.037497 0.000000 0.000000
# 5 0.000000 0.000000 0.000000 0.000000 0.037497 0.000000
# 6 0.000000 0.000000 0.000000 0.000000 0.000000 -0.378022
#
#
# Mechanical properties :
#
#
# Convention : Reuss Voigt Hill
#
# Bulk Modulus (GPa) = 69.51408 69.86088 69.68748
# Shear Modulus (GPa) = -7.70761 15.82450 4.05845
#
# Velocity S-wave (km/s) = -2.09335 2.99949 1.51902
# Velocity P-wave (km/s) = 5.80337 7.19131 6.53430
#
# Compressibility (1/GPa) = 0.01438557
#
# Stress axis : x y z
#
# Youngs Moduli (GPa) = -11.04916 -11.04916 77.14095
#
# Poissons Ratio (x) = 1.08841 0.28121
# Poissons Ratio (y) = 1.08841 0.28121
# Poissons Ratio (z) = -0.04028 -0.04028
#
# Static dielectric constant tensor:
#      x y z
#    x 3.323620 0.000000 0.000000 
#    y 0.000000 3.323620 0.000000 
#    z 0.000000 0.000000 3.408290 
# 
# 
# High freq. dielectric constant tensor:
#      x y z
#    x 1.679090 0.000000 0.000000 
#    y 0.000000 1.679090 0.000000 
#    z 0.000000 0.000000 1.688370 
# 
# From -- ./inp_files/5868.got.cif
#   From: 2010.03.12/outbox.cif.g09.slc.cpg/sg191_3_cif.got.tgz:5868.got - 2010.04.01 12:09:02.
