data_PCOD8328171
_publ_section_title
;
Structure prediction by ZEFSAII (Michael W. Deem and Ramdas Pophale) SiO2 
 PCOD8328171
Probable space group: P -6 2 C
;
_chemical_formula_sum "Si O2"
_cell_formula_units_Z 52
_cell_length_a 13.993325
_cell_length_b 13.993325
_cell_length_c 13.556103
_cell_angle_alpha 90.000000
_cell_angle_beta 90.000000
_cell_angle_gamma 120.000000
_cell_volume 2298.832527
_symmetry_space_group_name_H-M "P -6 2 C"
_symmetry_group_IT_number 190
_symmetry_cell_setting 'hexagonal'
loop_
_space_group_symop_operation_xyz
x,y,z
-x+y,-x,1/2-z
-y,x-y,z
x,y,1/2-z
-x+y,-x,z
-y,x-y,1/2-z
x-y,-y,-z
-x,-x+y,-z
y,x,-z
y,x,1/2+z
x-y,-y,1/2+z
-x,-x+y,1/2+z
loop_
_atom_site_type_symbol
_atom_site_label
_atom_site_fract_x
_atom_site_fract_y
_atom_site_fract_z
Si Si1 0.000000 0.000000 0.885917
Si Si2 0.247156 0.171414 0.857973
Si Si3 0.565412 0.586889 0.135679
Si Si4 0.251034 0.848640 0.992365
Si Si5 0.330855 0.424907 0.862173
O O1 0.980414 0.883601 0.848019
O O2 0.000000 0.000000 0.000000
O O3 0.297804 0.168386 0.750000
O O4 0.276856 0.295638 0.880024
O O5 0.294321 0.131708 0.947118
O O6 0.570830 0.614486 0.250000
O O7 0.689213 0.629489 0.093913
O O8 0.485781 0.459158 0.112052
O O9 0.520194 0.656195 0.073789
O O10 0.196478 0.729941 0.938374
O O11 0.313602 0.452592 0.750000
#
# Coordination Sequence:
#
# PCOD8328171 Si02
#       5
#     4  12  12  12  12
#     4  12  25  41  64 108 142 188 227 269 346 427
#     4  11  25  42  67 101 146 182 222 284 345 417
#     4  10  24  44  68 101 138 184 234 291 352 411
#     4  11  23  39  72  99 131 180 231 283 335 415
#     4  10  23  46  71  99 138 182 231 285 350 414
#
# _framework density 22.620179
#
# number of rings (size 3 to 8) (size 9 to 14) (size 15 to 20)
#    0.000    1.385    0.000    4.154   16.154    0.000 
#    1.385    0.000    0.000    0.000    0.000    0.000 
#    0.000    0.000    0.000    0.000    0.000    0.000 
#
# Total GULP energy -644377.354624 kJ/mol
# GULP energy per Si atom -12391.872204 kJ/mol
# Density = 2.256869 g / cm^3
# Si number density = 22.620179 Si / 1000 Ang^3
#
#
#
# Elastic Constant Matrix: (Units=GPa)
#
#
# Indices 1 2 3 4 5 6 
#
# 1 115.8822 57.9841 73.6950 0.0000 0.0000 0.0000
# 2 57.9841 115.8822 73.6950 0.0000 0.0000 0.0000
# 3 73.6950 73.6950 184.1363 0.0000 0.0000 0.0000
# 4 0.0000 0.0000 0.0000 42.3960 0.0000 0.0000
# 5 0.0000 0.0000 0.0000 0.0000 42.3960 0.0000
# 6 0.0000 0.0000 0.0000 0.0000 0.0000 28.9490
#
#
#
# Elastic Compliance Matrix: (Units=1/GPa)
#
#
# Indices 1 2 3 4 5 6 
#
# 1 0.012988 -0.004283 -0.003484 0.000000 0.000000 0.000000
# 2 -0.004283 0.012988 -0.003484 0.000000 0.000000 0.000000
# 3 -0.003484 -0.003484 0.008219 0.000000 0.000000 0.000000
# 4 0.000000 0.000000 0.000000 0.023587 0.000000 0.000000
# 5 0.000000 0.000000 0.000000 0.000000 0.023587 0.000000
# 6 0.000000 0.000000 0.000000 0.000000 0.000000 0.034543
#
#
# Mechanical properties :
#
#
# Convention : Reuss Voigt Hill
#
# Bulk Modulus (GPa) = 85.51618 91.84986 88.68302
# Shear Modulus (GPa) = 35.13359 36.78331 35.95845
#
# Velocity S-wave (km/s) = 3.94534 4.03690 3.99138
# Velocity P-wave (km/s) = 7.65778 7.90077 7.78022
#
# Compressibility (1/GPa) = 0.01169369
#
# Stress axis : x y z
#
# Youngs Moduli (GPa) = 76.99231 76.99231 121.66365
#
# Poissons Ratio (x) = 0.32979 0.42386
# Poissons Ratio (y) = 0.32979 0.42386
# Poissons Ratio (z) = 0.26823 0.26823
#
# Static dielectric constant tensor:
#      x y z
#    x 3.928430 0.000000 0.000000 
#    y 0.000000 3.928430 0.000000 
#    z 0.000000 0.000000 4.768820 
# 
# 
# High freq. dielectric constant tensor:
#      x y z
#    x 1.872300 0.000000 0.000000 
#    y 0.000000 1.872300 0.000000 
#    z 0.000000 0.000000 1.930950 
# 
# From -- ./inp_files/2725.got.cif
#   From: 2010.06.25/outbox.cif.g09.slc.cpg/sg190_2_cif.got.tgz:2725.got - 2010.06.28 13:08:06.
