data_PCOD8328874
_publ_section_title
;
Structure prediction by ZEFSAII (Michael W. Deem and Ramdas Pophale) SiO2 
 PCOD8328874
Probable space group: P 6/M M M
;
_chemical_formula_sum "Si O2"
_cell_formula_units_Z 76
_cell_length_a 17.710712
_cell_length_b 17.710712
_cell_length_c 17.317349
_cell_angle_alpha 90.000000
_cell_angle_beta 90.000000
_cell_angle_gamma 120.000000
_cell_volume 4704.181644
_symmetry_space_group_name_H-M "P 6/M M M"
_symmetry_group_IT_number 191
_symmetry_cell_setting 'hexagonal'
loop_
_space_group_symop_operation_xyz
x,y,z
x-y,x,z
-y,x-y,z
-x,-y,z
-x+y,-x,z
y,-x+y,z
x-y,-y,-z
-x,-x+y,-z
y,x,-z
-y,-x,-z
-x+y,y,-z
x,x-y,-z
-x,-y,-z
-x+y,-x,-z
y,-x+y,-z
x,y,-z
x-y,x,-z
-y,x-y,-z
-x+y,y,z
x,x-y,z
-y,-x,z
y,x,z
x-y,-y,z
-x,-x+y,z
loop_
_atom_site_type_symbol
_atom_site_label
_atom_site_fract_x
_atom_site_fract_y
_atom_site_fract_z
Si Si1 0.666667 0.333334 0.409037
Si Si2 0.898540 0.627259 0.850498
Si Si3 0.899671 0.364256 0.696593
Si Si4 0.234788 0.765213 0.591192
Si Si5 0.364842 0.467175 0.000000
O O1 0.666667 0.333334 0.500000
O O2 0.568732 0.284366 0.380117
O O3 0.833843 0.667685 0.844228
O O4 0.882236 0.563631 0.779229
O O5 0.000000 0.705364 0.854472
O O6 0.869489 0.565257 0.924917
O O7 0.862225 0.431113 0.696743
O O8 0.859723 0.290985 0.629601
O O9 0.000000 0.416666 0.676027
O O10 0.226487 0.773514 0.500000
O O11 0.426878 0.426878 0.000000
O O12 0.427214 0.572787 0.000000
#
# Coordination Sequence:
#
# PCOD8328874 Si02
#       5
#     4  24  24  12  12
#     4   9  18  30  45  66  90 121 152 187 243 291
#     4  10  19  32  51  73  98 129 163 200 240 284
#     4  10  20  33  49  69  94 125 161 198 238 286
#     4  11  20  32  48  66  93 124 156 197 241 288
#     4   9  17  30  49  72  98 128 160 191 225 268
#
# _framework density 16.155837999999999
#
# number of rings (size 3 to 8) (size 9 to 14) (size 15 to 20)
#    0.000    2.053    3.158    1.421    0.000    4.421 
#    0.000    1.579    0.000    4.737    0.000    0.000 
#    0.000    3.789    0.000    0.000    0.000   14.368 
#
# Total GULP energy -941923.517368 kJ/mol
# GULP energy per Si atom -12393.730492 kJ/mol
# Density = 1.611907 g / cm^3
# Si number density = 16.155838 Si / 1000 Ang^3
#
#
#
# Elastic Constant Matrix: (Units=GPa)
#
#
# Indices 1 2 3 4 5 6 
#
# 1 82.2411 41.1289 41.1348 0.0000 0.0000 0.0000
# 2 41.1289 82.2414 41.1348 0.0000 0.0000 0.0000
# 3 41.1348 41.1348 130.8787 0.0000 0.0000 0.0000
# 4 0.0000 0.0000 0.0000 20.6274 0.0000 0.0000
# 5 0.0000 0.0000 0.0000 0.0000 20.6274 0.0000
# 6 0.0000 0.0000 0.0000 0.0000 0.0000 20.5561
#
#
#
# Elastic Compliance Matrix: (Units=1/GPa)
#
#
# Indices 1 2 3 4 5 6 
#
# 1 0.017289 -0.007034 -0.003223 0.000000 0.000000 0.000000
# 2 -0.007034 0.017289 -0.003223 0.000000 0.000000 0.000000
# 3 -0.003223 -0.003223 0.009667 0.000000 0.000000 0.000000
# 4 0.000000 0.000000 0.000000 0.048479 0.000000 0.000000
# 5 0.000000 0.000000 0.000000 0.000000 0.048479 0.000000
# 6 0.000000 0.000000 0.000000 0.000000 0.000000 0.048647
#
#
# Mechanical properties :
#
#
# Convention : Reuss Voigt Hill
#
# Bulk Modulus (GPa) = 57.85609 60.23979 59.04794
# Shear Modulus (GPa) = 22.46446 23.82635 23.14541
#
# Velocity S-wave (km/s) = 3.73297 3.84446 3.78912
# Velocity P-wave (km/s) = 7.38032 7.55474 7.46804
#
# Compressibility (1/GPa) = 0.01728426
#
# Stress axis : x y z
#
# Youngs Moduli (GPa) = 57.83910 57.83931 103.44793
#
# Poissons Ratio (x) = 0.40686 0.33343
# Poissons Ratio (y) = 0.40686 0.33342
# Poissons Ratio (z) = 0.18642 0.18642
#
# Static dielectric constant tensor:
#      x y z
#    x 2.974820 0.000000 0.000000 
#    y 0.000000 2.974820 0.000000 
#    z 0.000000 0.000000 3.057220 
# 
# 
# High freq. dielectric constant tensor:
#      x y z
#    x 1.604840 0.000000 0.000000 
#    y 0.000000 1.604840 0.000000 
#    z 0.000000 0.000000 1.632520 
# 
# From -- ./inp_files/3958.got.cif
#   From: 2010.03.12/outbox.cif.g09.slc.cpg/sg191_2_cif.got.tgz:3958.got - 2010.04.01 12:09:02.
