data_PCOD8328113
_publ_section_title
;
Structure prediction by ZEFSAII (Michael W. Deem and Ramdas Pophale) SiO2 
 PCOD8328113
Probable space group: P -6 2 C
;
_chemical_formula_sum "Si O2"
_cell_formula_units_Z 30
_cell_length_a 8.615558
_cell_length_b 8.615558
_cell_length_c 21.795015
_cell_angle_alpha 90.000000
_cell_angle_beta 90.000000
_cell_angle_gamma 120.000000
_cell_volume 1401.053195
_symmetry_space_group_name_H-M "P -6 2 C"
_symmetry_group_IT_number 190
_symmetry_cell_setting 'hexagonal'
loop_
_space_group_symop_operation_xyz
x,y,z
-x+y,-x,1/2-z
-y,x-y,z
x,y,1/2-z
-x+y,-x,z
-y,x-y,1/2-z
x-y,-y,-z
-x,-x+y,-z
y,x,-z
y,x,1/2+z
x-y,-y,1/2+z
-x,-x+y,1/2+z
loop_
_atom_site_type_symbol
_atom_site_label
_atom_site_fract_x
_atom_site_fract_y
_atom_site_fract_z
Si Si1 0.322101 0.998185 0.428801
Si Si2 0.363866 0.484076 0.750000
Si Si3 0.998275 0.653000 0.380734
O O1 0.392421 0.193215 0.400284
O O2 0.279844 0.000000 0.500000
O O3 0.140711 0.858132 0.394567
O O4 0.475346 0.946194 0.419358
O O5 0.171676 0.478126 0.750000
O O6 0.383985 0.383784 0.691350
#
# Coordination Sequence:
#
# PCOD8328113 Si02
#       3
#    12   6  12
#     4  12  24  43  66 102 139 179 226 275 336 407
#     4  10  20  46  72  94 134 174 226 282 340 406
#     4  12  25  43  72  98 137 182 222 282 339 397
#
# _framework density 21.412465000000001
#
# number of rings (size 3 to 8) (size 9 to 14) (size 15 to 20)
#    0.400    0.000    4.000    6.000    0.000    3.200 
#    0.000    0.000    0.000    0.000    0.000    0.000 
#    0.000    0.000    0.000    0.000    0.000    0.000 
#
# Total GULP energy -372268.096582 kJ/mol
# GULP energy per Si atom -12408.936553 kJ/mol
# Density = 2.136373 g / cm^3
# Si number density = 21.412465 Si / 1000 Ang^3
#
#
#
# Elastic Constant Matrix: (Units=GPa)
#
#
# Indices 1 2 3 4 5 6 
#
# 1 88.9390 15.0903 34.8188 0.0000 0.0000 0.0000
# 2 15.0903 88.9390 34.8188 0.0000 0.0000 0.0000
# 3 34.8188 34.8188 140.6259 0.0000 0.0000 0.0000
# 4 0.0000 0.0000 0.0000 32.4976 0.0000 0.0000
# 5 0.0000 0.0000 0.0000 0.0000 32.4976 0.0000
# 6 0.0000 0.0000 0.0000 0.0000 0.0000 36.9244
#
#
#
# Elastic Compliance Matrix: (Units=1/GPa)
#
#
# Indices 1 2 3 4 5 6 
#
# 1 0.012532 -0.001009 -0.002853 0.000000 0.000000 0.000000
# 2 -0.001009 0.012532 -0.002853 0.000000 0.000000 0.000000
# 3 -0.002853 -0.002853 0.008524 0.000000 0.000000 0.000000
# 4 0.000000 0.000000 0.000000 0.030771 0.000000 0.000000
# 5 0.000000 0.000000 0.000000 0.000000 0.030771 0.000000
# 6 0.000000 0.000000 0.000000 0.000000 0.000000 0.027082
#
#
# Mechanical properties :
#
#
# Convention : Reuss Voigt Hill
#
# Bulk Modulus (GPa) = 49.61062 54.21770 51.91416
# Shear Modulus (GPa) = 35.12164 35.96899 35.54531
#
# Velocity S-wave (km/s) = 4.05438 4.10300 4.07877
# Velocity P-wave (km/s) = 6.71839 6.91533 6.81757
#
# Compressibility (1/GPa) = 0.02015697
#
# Stress axis : x y z
#
# Youngs Moduli (GPa) = 79.79682 79.79682 117.31806
#
# Poissons Ratio (x) = 0.08054 0.33470
# Poissons Ratio (y) = 0.08054 0.33470
# Poissons Ratio (z) = 0.22766 0.22766
#
# Static dielectric constant tensor:
#      x y z
#    x 3.660890 0.000000 0.000000 
#    y 0.000000 3.660890 0.000000 
#    z 0.000000 0.000000 3.842440 
# 
# 
# High freq. dielectric constant tensor:
#      x y z
#    x 1.836900 0.000000 0.000000 
#    y 0.000000 1.836900 0.000000 
#    z 0.000000 0.000000 1.853250 
# 
# From -- ./inp_files/4478.got.cif
#   From: 2010.06.25/outbox.cif.g09.slc.cpg/sg190_3_cif.got.tgz:4478.got - 2010.06.28 13:08:06.
