data_PCOD8328859
_publ_section_title
;
Structure prediction by ZEFSAII (Michael W. Deem and Ramdas Pophale) SiO2 
 PCOD8328859
Probable space group: P 6/M M M
;
_chemical_formula_sum "Si O2"
_cell_formula_units_Z 180
_cell_length_a 21.209336
_cell_length_b 21.209336
_cell_length_c 27.986488
_cell_angle_alpha 90.000000
_cell_angle_beta 90.000000
_cell_angle_gamma 120.000000
_cell_volume 10902.677827
_symmetry_space_group_name_H-M "P 6/M M M"
_symmetry_group_IT_number 191
_symmetry_cell_setting 'hexagonal'
loop_
_space_group_symop_operation_xyz
x,y,z
x-y,x,z
-y,x-y,z
-x,-y,z
-x+y,-x,z
y,-x+y,z
x-y,-y,-z
-x,-x+y,-z
y,x,-z
-y,-x,-z
-x+y,y,-z
x,x-y,-z
-x,-y,-z
-x+y,-x,-z
y,-x+y,-z
x,y,-z
x-y,x,-z
-y,x-y,-z
-x+y,y,z
x,x-y,z
-y,-x,z
y,x,z
x-y,-y,z
-x,-x+y,z
loop_
_atom_site_type_symbol
_atom_site_label
_atom_site_fract_x
_atom_site_fract_y
_atom_site_fract_z
Si Si1 0.079990 0.779403 0.636575
Si Si2 0.665059 0.184805 0.500000
Si Si3 0.646005 0.084357 0.776926
Si Si4 0.811350 0.335389 0.693558
Si Si5 0.299759 0.848938 0.596469
Si Si6 0.665373 0.479880 0.864095
Si Si7 0.465697 0.081155 0.053512
Si Si8 0.780822 0.700968 0.253165
O O1 0.138426 0.861575 0.621056
O O2 0.087505 0.719138 0.606182
O O3 0.091857 0.766435 0.691854
O O4 0.000000 0.768012 0.627486
O O5 0.740936 0.259065 0.500000
O O6 0.603096 0.206191 0.500000
O O7 0.656664 0.136364 0.546814
O O8 0.640243 0.120515 0.728280
O O9 0.640070 0.129850 0.820225
O O10 0.723801 0.088654 0.779511
O O11 0.581165 0.000000 0.779100
O O12 0.779626 0.389813 0.699975
O O13 0.746888 0.253113 0.704701
O O14 0.842137 0.345205 0.639941
O O15 0.225104 0.774897 0.592154
O O16 0.742961 0.485921 0.854697
O O17 0.604712 0.395288 0.871787
O O18 0.671474 0.529022 0.910126
O O19 0.539884 0.079767 0.056101
O O20 0.399911 0.000000 0.067112
O O21 0.453437 0.101684 0.000000
O O22 0.862116 0.724232 0.236864
O O23 0.771068 0.771068 0.246252
#
# Coordination Sequence:
#
# PCOD8328859 Si02
#       8
#    24  12  24  24  24  24  24  24
#     4   9  16  29  50  72  93 118 150 186 224 268
#     4  10  19  32  49  69  92 119 154 194 237 283
#     4  11  22  34  49  67  88 119 159 202 242 282
#     4  11  21  33  48  67  93 122 153 190 237 292
#     4   9  18  31  48  68  91 120 154 191 227 269
#     4  11  22  34  48  67  95 126 157 196 245 297
#     4   8  15  30  51  71  91 119 156 195 231 271
#     4   9  16  28  47  69  92 117 148 184 223 268
#
# _framework density 16.509705
#
# number of rings (size 3 to 8) (size 9 to 14) (size 15 to 20)
#    0.000    2.267    1.333    3.133    0.000    1.867 
#    0.000    3.000    0.000    2.667    0.000    1.867 
#    0.000    0.000    0.000    0.000    0.000    7.867 
#
# Total GULP energy -2231285.227583 kJ/mol
# GULP energy per Si atom -12396.029042 kJ/mol
# Density = 1.647213 g / cm^3
# Si number density = 16.509705 Si / 1000 Ang^3
#
#
#
# Elastic Constant Matrix: (Units=GPa)
#
#
# Indices 1 2 3 4 5 6 
#
# 1 78.5620 38.9529 29.2337 0.0000 0.0000 0.0000
# 2 38.9529 78.5620 29.2337 0.0000 0.0000 0.0000
# 3 29.2337 29.2337 70.8406 0.0000 0.0000 0.0000
# 4 0.0000 0.0000 0.0000 19.3740 0.0000 0.0000
# 5 0.0000 0.0000 0.0000 0.0000 19.3740 0.0000
# 6 0.0000 0.0000 0.0000 0.0000 0.0000 19.8045
#
#
#
# Elastic Compliance Matrix: (Units=1/GPa)
#
#
# Indices 1 2 3 4 5 6 
#
# 1 0.017977 -0.007269 -0.004419 0.000000 0.000000 0.000000
# 2 -0.007269 0.017977 -0.004419 0.000000 0.000000 0.000000
# 3 -0.004419 -0.004419 0.017763 0.000000 0.000000 0.000000
# 4 0.000000 0.000000 0.000000 0.051615 0.000000 0.000000
# 5 0.000000 0.000000 0.000000 0.000000 0.051615 0.000000
# 6 0.000000 0.000000 0.000000 0.000000 0.000000 0.050493
#
#
# Mechanical properties :
#
#
# Convention : Reuss Voigt Hill
#
# Bulk Modulus (GPa) = 46.50318 46.97832 46.74075
# Shear Modulus (GPa) = 20.25729 20.41348 20.33539
#
# Velocity S-wave (km/s) = 3.50665 3.52014 3.51340
# Velocity P-wave (km/s) = 6.68010 6.71108 6.69561
#
# Compressibility (1/GPa) = 0.02150391
#
# Stress axis : x y z
#
# Youngs Moduli (GPa) = 55.62535 55.62535 56.29590
#
# Poissons Ratio (x) = 0.40436 0.24877
# Poissons Ratio (y) = 0.40436 0.24877
# Poissons Ratio (z) = 0.24580 0.24580
#
# Static dielectric constant tensor:
#      x y z
#    x 3.031600 0.000000 0.000000 
#    y 0.000000 3.031600 0.000000 
#    z 0.000000 0.000000 3.296880 
# 
# 
# High freq. dielectric constant tensor:
#      x y z
#    x 1.619470 0.000000 0.000000 
#    y 0.000000 1.619470 0.000000 
#    z 0.000000 0.000000 1.627030 
# 
# From -- ./inp_files/10866.got.cif
#   From: 2010.03.12/outbox.cif.g09.slc.cpg/sg191_6_cif.got.tgz:10866.got - 2010.04.01 12:09:02.
