data_PCOD8328482
_publ_section_title
;
Structure prediction by ZEFSAII (Michael W. Deem and Ramdas Pophale) SiO2 
 PCOD8328482
Probable space group: P 6/M M M
;
_chemical_formula_sum "Si O2"
_cell_formula_units_Z 96
_cell_length_a 16.852821
_cell_length_b 16.852821
_cell_length_c 24.458338
_cell_angle_alpha 90.000000
_cell_angle_beta 90.000000
_cell_angle_gamma 120.000000
_cell_volume 6015.930220
_symmetry_space_group_name_H-M "P 6/M M M"
_symmetry_group_IT_number 191
_symmetry_cell_setting 'hexagonal'
loop_
_space_group_symop_operation_xyz
x,y,z
x-y,x,z
-y,x-y,z
-x,-y,z
-x+y,-x,z
y,-x+y,z
x-y,-y,-z
-x,-x+y,-z
y,x,-z
-y,-x,-z
-x+y,y,-z
x,x-y,-z
-x,-y,-z
-x+y,-x,-z
y,-x+y,-z
x,y,-z
x-y,x,-z
-y,x-y,-z
-x+y,y,z
x,x-y,z
-y,-x,z
y,x,z
x-y,-y,z
-x,-x+y,z
loop_
_atom_site_type_symbol
_atom_site_label
_atom_site_fract_x
_atom_site_fract_y
_atom_site_fract_z
Si Si1 0.391921 0.608080 0.060450
Si Si2 0.390519 0.285613 0.773916
Si Si3 0.277694 0.378650 0.439074
Si Si4 0.553704 0.446297 0.168418
Si Si5 0.845517 0.512262 0.665567
O O1 0.437101 0.718551 0.066618
O O2 0.430731 0.569270 0.105754
O O3 0.414930 0.585071 0.000000
O O4 0.357371 0.178685 0.788570
O O5 0.314750 0.314750 0.791678
O O6 0.490087 0.348853 0.802093
O O7 0.405081 0.300636 0.708755
O O8 0.305573 0.422444 0.500000
O O9 0.171187 0.342373 0.426788
O O10 0.291163 0.291163 0.434128
O O11 0.340484 0.454643 0.394974
O O12 0.500000 0.500000 0.169200
O O13 0.736912 0.473823 0.665466
O O14 0.865309 0.432655 0.683246
#
# Coordination Sequence:
#
# PCOD8328482 Si02
#       5
#    12  24  24  12  24
#     4   8  16  29  44  62  90 127 163 192 219 259
#     4  10  20  32  47  68  94 123 154 194 239 282
#     4   9  18  31  46  62  80 107 140 175 218 267
#     4  10  18  29  46  70  95 122 158 195 235 275
#     4  10  19  31  45  63  89 115 145 181 219 266
#
# _framework density 15.957633
#
# number of rings (size 3 to 8) (size 9 to 14) (size 15 to 20)
#    0.250    2.250    1.250    1.750    0.000    2.250 
#    0.750    1.250    0.000    2.000    0.000    1.750 
#    0.000    6.000    0.000    0.250    0.000    0.000 
#
# Total GULP energy -1189544.222033 kJ/mol
# GULP energy per Si atom -12391.085646 kJ/mol
# Density = 1.592131 g / cm^3
# Si number density = 15.957633 Si / 1000 Ang^3
#
#
#
# Elastic Constant Matrix: (Units=GPa)
#
#
# Indices 1 2 3 4 5 6 
#
# 1 59.7025 42.3032 14.4094 0.0000 0.0000 0.0000
# 2 42.3032 59.7025 14.4094 0.0000 0.0000 0.0000
# 3 14.4094 14.4094 79.1761 0.0000 0.0000 0.0000
# 4 0.0000 0.0000 0.0000 20.7437 0.0000 0.0000
# 5 0.0000 0.0000 0.0000 0.0000 20.7437 0.0000
# 6 0.0000 0.0000 0.0000 0.0000 0.0000 8.6997
#
#
#
# Elastic Compliance Matrix: (Units=1/GPa)
#
#
# Indices 1 2 3 4 5 6 
#
# 1 0.033904 -0.023569 -0.001881 0.000000 0.000000 0.000000
# 2 -0.023569 0.033904 -0.001881 0.000000 0.000000 0.000000
# 3 -0.001881 -0.001881 0.013315 0.000000 0.000000 0.000000
# 4 0.000000 0.000000 0.000000 0.048207 0.000000 0.000000
# 5 0.000000 0.000000 0.000000 0.000000 0.048207 0.000000
# 6 0.000000 0.000000 0.000000 0.000000 0.000000 0.114947
#
#
# Mechanical properties :
#
#
# Convention : Reuss Voigt Hill
#
# Bulk Modulus (GPa) = 37.79176 37.86948 37.83062
# Shear Modulus (GPa) = 14.04624 18.53468 16.29046
#
# Velocity S-wave (km/s) = 2.97007 3.41177 3.19855
# Velocity P-wave (km/s) = 5.95783 6.26921 6.11550
#
# Compressibility (1/GPa) = 0.02646079
#
# Stress axis : x y z
#
# Youngs Moduli (GPa) = 29.49495 29.49495 75.10516
#
# Poissons Ratio (x) = 0.69518 0.14126
# Poissons Ratio (y) = 0.69518 0.14126
# Poissons Ratio (z) = 0.05548 0.05548
#
# Static dielectric constant tensor:
#      x y z
#    x 2.918500 0.000000 0.000000 
#    y 0.000000 2.918500 0.000000 
#    z 0.000000 0.000000 3.039910 
# 
# 
# High freq. dielectric constant tensor:
#      x y z
#    x 1.591190 0.000000 0.000000 
#    y 0.000000 1.591190 0.000000 
#    z 0.000000 0.000000 1.614470 
# 
# From -- ./inp_files/8285.got.cif
#   From: 2010.03.12/outbox.cif.g09.slc.cpg/sg191_5_cif.got.tgz:8285.got - 2010.04.01 12:09:02.
