data_PCOD8328137
_publ_section_title
;
Structure prediction by ZEFSAII (Michael W. Deem and Ramdas Pophale) SiO2 
 PCOD8328137
Probable space group: P -6 2 C
;
_chemical_formula_sum "Si O2"
_cell_formula_units_Z 52
_cell_length_a 11.318592
_cell_length_b 11.318592
_cell_length_c 21.950942
_cell_angle_alpha 90.000000
_cell_angle_beta 90.000000
_cell_angle_gamma 120.000000
_cell_volume 2435.390482
_symmetry_space_group_name_H-M "P -6 2 C"
_symmetry_group_IT_number 190
_symmetry_cell_setting 'hexagonal'
loop_
_space_group_symop_operation_xyz
x,y,z
-x+y,-x,1/2-z
-y,x-y,z
x,y,1/2-z
-x+y,-x,z
-y,x-y,1/2-z
x-y,-y,-z
-x,-x+y,-z
y,x,-z
y,x,1/2+z
x-y,-y,1/2+z
-x,-x+y,1/2+z
loop_
_atom_site_type_symbol
_atom_site_label
_atom_site_fract_x
_atom_site_fract_y
_atom_site_fract_z
Si Si1 0.607397 0.787287 0.626361
Si Si2 0.599216 0.714799 0.367541
Si Si3 0.376418 0.429953 0.319617
Si Si4 0.315048 0.154745 0.504575
Si Si5 0.333335 0.666667 0.820803
O O1 0.720526 0.744393 0.643234
O O2 0.586003 0.777906 0.553647
O O3 0.467234 0.667685 0.654977
O O4 0.645179 0.933198 0.653512
O O5 0.476982 0.559478 0.360658
O O6 0.582780 0.810763 0.318807
O O7 0.596011 0.772603 0.434846
O O8 0.429518 0.447887 0.250000
O O9 0.253479 0.253479 0.500000
O O10 0.191714 0.000000 0.500000
O O11 0.333334 0.666668 0.750000
#
# Coordination Sequence:
#
# PCOD8328137 Si02
#       5
#    12  12  12  12   4
#     4  11  24  43  70 100 132 184 236 292 358 421
#     4  11  25  45  70 103 137 188 236 291 364 433
#     4  12  25  43  69 101 144 187 235 296 356 433
#     4  10  21  42  69 100 137 175 226 291 355 421
#     4  12  24  42  66  93 135 177 226 293 349 423
#
# _framework density 21.351811999999999
#
# number of rings (size 3 to 8) (size 9 to 14) (size 15 to 20)
#    0.000    0.923    4.615    2.077    0.000    4.615 
#    5.538    0.000    0.000    0.000    0.000    0.000 
#    0.000    0.000    0.000    0.000    0.000    0.000 
#
# Total GULP energy -644706.497479 kJ/mol
# GULP energy per Si atom -12398.201875 kJ/mol
# Density = 2.130321 g / cm^3
# Si number density = 21.351812 Si / 1000 Ang^3
#
#
#
# Elastic Constant Matrix: (Units=GPa)
#
#
# Indices 1 2 3 4 5 6 
#
# 1 114.4571 43.5745 52.5696 0.0001 -0.0001 0.0000
# 2 43.5745 114.4573 52.5695 0.0000 0.0000 -0.0002
# 3 52.5696 52.5695 156.3558 0.0001 0.0000 0.0000
# 4 0.0001 0.0000 0.0001 32.7017 0.0000 0.0000
# 5 -0.0001 0.0000 0.0000 0.0000 32.7018 0.0000
# 6 0.0000 -0.0002 0.0000 0.0000 0.0000 35.4407
#
#
#
# Elastic Compliance Matrix: (Units=1/GPa)
#
#
# Indices 1 2 3 4 5 6 
#
# 1 0.011129 -0.002978 -0.002741 0.000000 0.000000 0.000000
# 2 -0.002978 0.011129 -0.002741 0.000000 0.000000 0.000000
# 3 -0.002741 -0.002741 0.008239 0.000000 0.000000 0.000000
# 4 0.000000 0.000000 0.000000 0.030579 0.000000 0.000000
# 5 0.000000 0.000000 0.000000 0.000000 0.030579 0.000000
# 6 0.000000 0.000000 0.000000 0.000000 0.000000 0.028216
#
#
# Mechanical properties :
#
#
# Convention : Reuss Voigt Hill
#
# Bulk Modulus (GPa) = 73.64540 75.85527 74.75033
# Shear Modulus (GPa) = 35.38131 35.93928 35.66029
#
# Velocity S-wave (km/s) = 4.07512 4.10713 4.09116
# Velocity P-wave (km/s) = 7.53050 7.62200 7.57639
#
# Compressibility (1/GPa) = 0.01357858
#
# Stress axis : x y z
#
# Youngs Moduli (GPa) = 89.85134 89.85158 121.38106
#
# Poissons Ratio (x) = 0.26761 0.33265
# Poissons Ratio (y) = 0.26761 0.33265
# Poissons Ratio (z) = 0.24624 0.24624
#
# Static dielectric constant tensor:
#      x y z
#    x 3.891440 0.000000 0.000000 
#    y 0.000000 3.891450 0.000000 
#    z 0.000000 0.000000 3.935640 
# 
# 
# High freq. dielectric constant tensor:
#      x y z
#    x 1.839450 0.000000 0.000000 
#    y 0.000000 1.839450 0.000000 
#    z 0.000000 0.000000 1.844290 
# 
# From -- ./inp_files/4200.got.cif
#   From: 2010.06.25/outbox.cif.g09.slc.cpg/sg190_3_cif.got.tgz:4200.got - 2010.06.28 13:08:06.
