data_PCOD8328226
_publ_section_title
;
Structure prediction by ZEFSAII (Michael W. Deem and Ramdas Pophale) SiO2 
 PCOD8328226
Probable space group: P 6/M M M
;
_chemical_formula_sum "Si O2"
_cell_formula_units_Z 168
_cell_length_a 23.029581
_cell_length_b 23.029581
_cell_length_c 23.729807
_cell_angle_alpha 90.000000
_cell_angle_beta 90.000000
_cell_angle_gamma 120.000000
_cell_volume 10899.257439
_symmetry_space_group_name_H-M "P 6/M M M"
_symmetry_group_IT_number 191
_symmetry_cell_setting 'hexagonal'
loop_
_space_group_symop_operation_xyz
x,y,z
x-y,x,z
-y,x-y,z
-x,-y,z
-x+y,-x,z
y,-x+y,z
x-y,-y,-z
-x,-x+y,-z
y,x,-z
-y,-x,-z
-x+y,y,-z
x,x-y,-z
-x,-y,-z
-x+y,-x,-z
y,-x+y,-z
x,y,-z
x-y,x,-z
-y,x-y,-z
-x+y,y,z
x,x-y,z
-y,-x,z
y,x,z
x-y,-y,z
-x,-x+y,z
loop_
_atom_site_type_symbol
_atom_site_label
_atom_site_fract_x
_atom_site_fract_y
_atom_site_fract_z
Si Si1 0.920478 0.392945 0.842122
Si Si2 0.201179 0.926408 0.436983
Si Si3 0.267708 0.402796 0.769019
Si Si4 0.474725 0.079639 0.437887
Si Si5 0.713577 0.922501 0.853742
Si Si6 0.308321 0.921297 0.062070
Si Si7 0.620060 0.698141 0.647448
O O1 0.899002 0.449501 0.842624
O O2 0.881511 0.340373 0.792042
O O3 0.897522 0.351671 0.900899
O O4 0.000000 0.425697 0.832466
O O5 0.225099 0.919892 0.500000
O O6 0.122580 0.877421 0.428786
O O7 0.240593 0.909326 0.391480
O O8 0.212347 0.000000 0.427052
O O9 0.212885 0.425770 0.780583
O O10 0.243825 0.331095 0.798520
O O11 0.272949 0.394601 0.702949
O O12 0.470261 0.106990 0.500000
O O13 0.551245 0.102489 0.423807
O O14 0.448736 0.107734 0.388020
O O15 0.429277 0.000000 0.439137
O O16 0.743504 0.871752 0.853000
O O17 0.664519 0.903216 0.907663
O O18 0.774047 0.000000 0.855801
O O19 0.351848 0.000000 0.055047
O O20 0.293482 0.887165 0.000000
O O21 0.650881 0.650881 0.663101
#
# Coordination Sequence:
#
# PCOD8328226 Si02
#       7
#    24  24  24  24  24  24  24
#     4   9  17  29  45  65  89 114 139 171 211 252
#     4   9  17  28  41  57  77 101 130 167 213 263
#     4  10  19  30  43  60  85 115 146 179 215 257
#     4   8  14  24  37  56  84 114 139 163 197 244
#     4   9  17  29  44  62  87 119 151 183 220 261
#     4   8  14  25  41  63  90 115 138 166 203 248
#     4  10  17  25  40  60  81 107 140 176 212 248
#
# _framework density 15.413894000000001
#
# number of rings (size 3 to 8) (size 9 to 14) (size 15 to 20)
#    0.000    3.000    0.000    3.429    0.000    2.857 
#    0.000    2.857    0.000    0.571    0.000    1.000 
#    0.000    0.000    0.000    8.571    0.000   10.143 
#
# Total GULP energy -2082042.517807 kJ/mol
# GULP energy per Si atom -12393.110225 kJ/mol
# Density = 1.537881 g / cm^3
# Si number density = 15.413894 Si / 1000 Ang^3
#
#
#
# Elastic Constant Matrix: (Units=GPa)
#
#
# Indices 1 2 3 4 5 6 
#
# 1 76.6400 46.1575 41.2739 0.0000 0.0000 0.0000
# 2 46.1575 76.6400 41.2739 0.0000 0.0000 0.0000
# 3 41.2739 41.2739 117.1760 0.0000 0.0000 0.0000
# 4 0.0000 0.0000 0.0000 4.4980 0.0000 0.0000
# 5 0.0000 0.0000 0.0000 0.0000 4.4980 0.0000
# 6 0.0000 0.0000 0.0000 0.0000 0.0000 15.2412
#
#
#
# Elastic Compliance Matrix: (Units=1/GPa)
#
#
# Indices 1 2 3 4 5 6 
#
# 1 0.021738 -0.011068 -0.003758 0.000000 0.000000 0.000000
# 2 -0.011068 0.021738 -0.003758 0.000000 0.000000 0.000000
# 3 -0.003758 -0.003758 0.011182 0.000000 0.000000 0.000000
# 4 0.000000 0.000000 0.000000 0.222321 0.000000 0.000000
# 5 0.000000 0.000000 0.000000 0.000000 0.222321 0.000000
# 6 0.000000 0.000000 0.000000 0.000000 0.000000 0.065611
#
#
# Mechanical properties :
#
#
# Convention : Reuss Voigt Hill
#
# Bulk Modulus (GPa) = 57.18108 58.65183 57.91646
# Shear Modulus (GPa) = 8.22490 14.29750 11.26120
#
# Velocity S-wave (km/s) = 2.31249 3.04891 2.70587
# Velocity P-wave (km/s) = 6.65641 7.10833 6.88608
#
# Compressibility (1/GPa) = 0.01748830
#
# Stress axis : x y z
#
# Youngs Moduli (GPa) = 46.00273 46.00273 89.43062
#
# Poissons Ratio (x) = 0.50915 0.33611
# Poissons Ratio (y) = 0.50915 0.33611
# Poissons Ratio (z) = 0.17290 0.17290
#
# Static dielectric constant tensor:
#      x y z
#    x 2.786550 0.000000 0.000000 
#    y 0.000000 2.786550 0.000000 
#    z 0.000000 0.000000 3.248800 
# 
# 
# High freq. dielectric constant tensor:
#      x y z
#    x 1.561950 0.000000 0.000000 
#    y 0.000000 1.561950 0.000000 
#    z 0.000000 0.000000 1.603300 
# 
# From -- ./inp_files/7945.got.cif
#   From: 2010.03.12/outbox.cif.g09.slc.cpg/sg191_4_cif.got.tgz:7945.got - 2010.04.01 12:09:02.
