data_PCOD8328196
_publ_section_title
;
Structure prediction by ZEFSAII (Michael W. Deem and Ramdas Pophale) SiO2 
 PCOD8328196
Probable space group: P -6 2 C
;
_chemical_formula_sum "Si O2"
_cell_formula_units_Z 60
_cell_length_a 14.983133
_cell_length_b 14.983133
_cell_length_c 13.877331
_cell_angle_alpha 90.000000
_cell_angle_beta 90.000000
_cell_angle_gamma 120.000000
_cell_volume 2697.999396
_symmetry_space_group_name_H-M "P -6 2 C"
_symmetry_group_IT_number 190
_symmetry_cell_setting 'hexagonal'
loop_
_space_group_symop_operation_xyz
x,y,z
-x+y,-x,1/2-z
-y,x-y,z
x,y,1/2-z
-x+y,-x,z
-y,x-y,1/2-z
x-y,-y,-z
-x,-x+y,-z
y,x,-z
y,x,1/2+z
x-y,-y,1/2+z
-x,-x+y,1/2+z
loop_
_atom_site_type_symbol
_atom_site_label
_atom_site_fract_x
_atom_site_fract_y
_atom_site_fract_z
Si Si1 0.453500 0.165497 0.135494
Si Si2 0.490098 0.865770 0.942484
Si Si3 0.215617 0.166804 0.899947
Si Si4 0.949769 0.168293 0.143843
Si Si5 0.347401 0.419172 0.142360
O O1 0.459016 0.161580 0.250000
O O2 0.510659 0.110872 0.086303
O O3 0.521555 0.282888 0.099444
O O4 0.334549 0.109288 0.099244
O O5 0.591140 0.953113 0.889534
O O6 0.497154 0.863392 0.059555
O O7 0.126425 0.172468 0.840880
O O8 0.327858 0.228642 0.850980
O O9 0.189390 0.049470 0.918486
O O10 0.221300 0.221300 0.000000
O O11 0.991426 0.214251 0.250000
O O12 0.379483 0.469824 0.250000
#
# Coordination Sequence:
#
# PCOD8328196 Si02
#       5
#    12  12  12  12  12
#     4  11  22  41  70 102 135 173 227 290 341 404
#     4  11  23  43  69 101 130 171 231 284 343 403
#     4  12  22  41  63  94 134 183 221 274 333 407
#     4  11  23  38  64 100 135 174 225 274 334 409
#     4  11  22  44  68  90 132 182 221 271 345 411
#
# _framework density 22.238700999999999
#
# number of rings (size 3 to 8) (size 9 to 14) (size 15 to 20)
#    0.000    0.800    4.000    5.000    0.000    0.000 
#   14.400    1.000    0.000    0.000    0.000    0.000 
#    0.000    0.000    0.000    0.000    0.000    0.000 
#
# Total GULP energy -743767.540690 kJ/mol
# GULP energy per Si atom -12396.125678 kJ/mol
# Density = 2.218808 g / cm^3
# Si number density = 22.238701 Si / 1000 Ang^3
#
#
#
# Elastic Constant Matrix: (Units=GPa)
#
#
# Indices 1 2 3 4 5 6 
#
# 1 115.1089 51.1752 34.1761 0.0000 0.0000 0.0000
# 2 51.1752 115.1089 34.1761 0.0000 0.0000 0.0000
# 3 34.1761 34.1761 146.0885 0.0000 0.0000 0.0000
# 4 0.0000 0.0000 0.0000 26.5580 0.0000 0.0000
# 5 0.0000 0.0000 0.0000 0.0000 26.5580 0.0000
# 6 0.0000 0.0000 0.0000 0.0000 0.0000 31.9668
#
#
#
# Elastic Compliance Matrix: (Units=1/GPa)
#
#
# Indices 1 2 3 4 5 6 
#
# 1 0.011147 -0.004494 -0.001557 0.000000 0.000000 0.000000
# 2 -0.004494 0.011147 -0.001557 0.000000 0.000000 0.000000
# 3 -0.001557 -0.001557 0.007573 0.000000 0.000000 0.000000
# 4 0.000000 0.000000 0.000000 0.037653 0.000000 0.000000
# 5 0.000000 0.000000 0.000000 0.000000 0.037653 0.000000
# 6 0.000000 0.000000 0.000000 0.000000 0.000000 0.031282
#
#
# Mechanical properties :
#
#
# Convention : Reuss Voigt Hill
#
# Bulk Modulus (GPa) = 68.23845 68.37344 68.30595
# Shear Modulus (GPa) = 31.93739 34.13515 33.03627
#
# Velocity S-wave (km/s) = 3.79373 3.92209 3.85844
# Velocity P-wave (km/s) = 7.06689 7.16396 7.11559
#
# Compressibility (1/GPa) = 0.01465449
#
# Stress axis : x y z
#
# Youngs Moduli (GPa) = 89.70683 89.70683 132.04019
#
# Poissons Ratio (x) = 0.40312 0.20553
# Poissons Ratio (y) = 0.40312 0.20553
# Poissons Ratio (z) = 0.13963 0.13963
#
# Static dielectric constant tensor:
#      x y z
#    x 3.857480 0.000000 0.000000 
#    y 0.000000 3.857480 0.000000 
#    z 0.000000 0.000000 4.089500 
# 
# 
# High freq. dielectric constant tensor:
#      x y z
#    x 1.861540 0.000000 0.000000 
#    y 0.000000 1.861540 0.000000 
#    z 0.000000 0.000000 1.887440 
# 
# From -- ./inp_files/2791.got.cif
#   From: 2010.06.25/outbox.cif.g09.slc.cpg/sg190_2_cif.got.tgz:2791.got - 2010.06.28 13:08:06.
