data_PCOD8328055
_publ_section_title
;
Structure prediction by ZEFSAII (Michael W. Deem and Ramdas Pophale) SiO2 
 PCOD8328055
Probable space group: P -6 2 C
;
_chemical_formula_sum "Si O2"
_cell_formula_units_Z 96
_cell_length_a 16.626713
_cell_length_b 16.626713
_cell_length_c 24.385463
_cell_angle_alpha 90.000000
_cell_angle_beta 90.000000
_cell_angle_gamma 120.000000
_cell_volume 5838.139098
_symmetry_space_group_name_H-M "P -6 2 C"
_symmetry_group_IT_number 190
_symmetry_cell_setting 'hexagonal'
loop_
_space_group_symop_operation_xyz
x,y,z
-x+y,-x,1/2-z
-y,x-y,z
x,y,1/2-z
-x+y,-x,z
-y,x-y,1/2-z
x-y,-y,-z
-x,-x+y,-z
y,x,-z
y,x,1/2+z
x-y,-y,1/2+z
-x,-x+y,1/2+z
loop_
_atom_site_type_symbol
_atom_site_label
_atom_site_fract_x
_atom_site_fract_y
_atom_site_fract_z
Si Si1 0.610677 0.474117 0.995450
Si Si2 0.119119 0.534734 0.685913
Si Si3 0.545894 0.815745 0.996616
Si Si4 0.876399 0.688232 0.100472
Si Si5 0.231701 0.989278 0.063660
Si Si6 0.589476 0.585515 0.089279
Si Si7 0.203960 0.746095 0.813040
Si Si8 0.267816 0.205193 0.552925
O O1 0.526801 0.376342 0.014164
O O2 0.709411 0.482010 0.984266
O O3 0.578096 0.498340 0.938442
O O4 0.631250 0.543050 0.046192
O O5 0.088931 0.517654 0.750000
O O6 0.031517 0.466279 0.647984
O O7 0.154679 0.639772 0.666921
O O8 0.204598 0.517739 0.674642
O O9 0.621534 0.875629 0.043226
O O10 0.602292 0.827838 0.941350
O O11 0.846681 0.764917 0.086509
O O12 0.840559 0.643154 0.159492
O O13 0.988539 0.739567 0.100821
O O14 0.306340 0.973447 0.097340
O O15 0.128316 0.901775 0.070612
O O16 0.260080 0.000000 0.000000
O O17 0.184263 0.749149 0.750000
O O18 0.213428 0.213428 0.500000
#
# Coordination Sequence:
#
# PCOD8328055 Si02
#       8
#    12  12  12  12  12  12  12  12
#     4  11  21  30  48  72 103 136 169 202 251 309
#     4  10  20  33  51  78 106 139 176 209 250 307
#     4  11  20  32  45  73 104 137 165 203 246 309
#     4  11  21  34  53  75 102 136 173 213 263 314
#     4  12  17  37  53  71 105 137 169 214 264 308
#     4  11  19  32  50  72  98 142 169 204 254 307
#     4  10  20  34  53  77 108 139 171 213 255 301
#     4  10  21  32  49  74 102 132 168 210 258 311
#
# _framework density 16.443595999999999
#
# number of rings (size 3 to 8) (size 9 to 14) (size 15 to 20)
#    0.000    1.250    7.500    1.250    7.000    1.000 
#    0.750    3.125    0.000    1.500    0.000    0.875 
#    0.000    0.000    0.000    0.000    0.000    0.000 
#
# Total GULP energy -1190126.470581 kJ/mol
# GULP energy per Si atom -12397.150735 kJ/mol
# Density = 1.640617 g / cm^3
# Si number density = 16.443596 Si / 1000 Ang^3
#
#
#
# Elastic Constant Matrix: (Units=GPa)
#
#
# Indices 1 2 3 4 5 6 
#
# 1 96.0002 43.5345 26.0882 0.0000 0.0000 0.0000
# 2 43.5345 96.0002 26.0882 0.0000 0.0000 0.0000
# 3 26.0882 26.0882 55.5312 0.0000 0.0000 0.0000
# 4 0.0000 0.0000 0.0000 19.7336 0.0000 0.0000
# 5 0.0000 0.0000 0.0000 0.0000 19.7336 0.0000
# 6 0.0000 0.0000 0.0000 0.0000 0.0000 26.2329
#
#
#
# Elastic Compliance Matrix: (Units=1/GPa)
#
#
# Indices 1 2 3 4 5 6 
#
# 1 0.013877 -0.005183 -0.004084 0.000000 0.000000 0.000000
# 2 -0.005183 0.013877 -0.004084 0.000000 0.000000 0.000000
# 3 -0.004084 -0.004084 0.021845 0.000000 0.000000 0.000000
# 4 0.000000 0.000000 0.000000 0.050675 0.000000 0.000000
# 5 0.000000 0.000000 0.000000 0.000000 0.050675 0.000000
# 6 0.000000 0.000000 0.000000 0.000000 0.000000 0.038120
#
#
# Mechanical properties :
#
#
# Convention : Reuss Voigt Hill
#
# Bulk Modulus (GPa) = 43.67585 48.77261 46.22423
# Shear Modulus (GPa) = 22.38087 23.26140 22.82114
#
# Velocity S-wave (km/s) = 3.69327 3.76522 3.72942
# Velocity P-wave (km/s) = 6.69370 6.97334 6.83495
#
# Compressibility (1/GPa) = 0.02289595
#
# Stress axis : x y z
#
# Youngs Moduli (GPa) = 72.06167 72.06167 45.77603
#
# Poissons Ratio (x) = 0.37350 0.18697
# Poissons Ratio (y) = 0.37350 0.18697
# Poissons Ratio (z) = 0.29433 0.29433
#
# Static dielectric constant tensor:
#      x y z
#    x 3.186710 0.000000 0.000000 
#    y 0.000000 3.186710 0.000000 
#    z 0.000000 0.000000 2.907100 
# 
# 
# High freq. dielectric constant tensor:
#      x y z
#    x 1.632770 0.000000 0.000000 
#    y 0.000000 1.632770 0.000000 
#    z 0.000000 0.000000 1.595120 
# 
# From -- ./inp_files/4996.got.cif
#   From: 2010.06.25/outbox.cif.g09.slc.cpg/sg190_3_cif.got.tgz:4996.got - 2010.06.28 13:08:06.
