data_PCOD8328752
_publ_section_title
;
Structure prediction by ZEFSAII (Michael W. Deem and Ramdas Pophale) SiO2 
 PCOD8328752
Probable space group: P 6/M M M
;
_chemical_formula_sum "Si O2"
_cell_formula_units_Z 96
_cell_length_a 22.809701
_cell_length_b 22.809701
_cell_length_c 11.970885
_cell_angle_alpha 90.000000
_cell_angle_beta 90.000000
_cell_angle_gamma 120.000000
_cell_volume 5393.815354
_symmetry_space_group_name_H-M "P 6/M M M"
_symmetry_group_IT_number 191
_symmetry_cell_setting 'hexagonal'
loop_
_space_group_symop_operation_xyz
x,y,z
x-y,x,z
-y,x-y,z
-x,-y,z
-x+y,-x,z
y,-x+y,z
x-y,-y,-z
-x,-x+y,-z
y,x,-z
-y,-x,-z
-x+y,y,-z
x,x-y,-z
-x,-y,-z
-x+y,-x,-z
y,-x+y,-z
x,y,-z
x-y,x,-z
-y,x-y,-z
-x+y,y,z
x,x-y,z
-y,-x,z
y,x,z
x-y,-y,z
-x,-x+y,z
loop_
_atom_site_type_symbol
_atom_site_label
_atom_site_fract_x
_atom_site_fract_y
_atom_site_fract_z
Si Si1 0.360282 0.850833 0.000000
Si Si2 0.728408 0.132616 0.624994
Si Si3 0.799894 0.333324 0.242479
Si Si4 0.645710 0.724374 0.000000
Si Si5 0.922681 0.208896 0.217354
O O1 0.329813 0.804416 0.891173
O O2 0.442649 0.885297 0.000000
O O3 0.337066 0.906256 0.000000
O O4 0.700688 0.107761 0.500000
O O5 0.795459 0.204542 0.623000
O O6 0.672513 0.139746 0.697250
O O7 0.745979 0.078886 0.680289
O O8 0.807124 0.403562 0.282756
O O9 0.726915 0.273086 0.280304
O O10 0.664535 0.770847 0.109739
O O11 0.692570 0.692570 0.000000
O O12 0.871764 0.128237 0.237331
O O13 0.000000 0.224342 0.204085
#
# Coordination Sequence:
#
# PCOD8328752 Si02
#       5
#    12  24  24  12  24
#     4  10  19  30  47  72 101 136 173 214 263 311
#     4   9  18  32  50  71  96 130 172 215 254 294
#     4  10  19  30  46  69  99 134 173 217 264 310
#     4  10  19  32  52  78 104 133 168 207 252 298
#     4  10  20  34  55  81 107 133 163 202 246 295
#
# _framework density 17.798161
#
# number of rings (size 3 to 8) (size 9 to 14) (size 15 to 20)
#    0.000    2.250    2.500    1.000    0.000    2.250 
#    0.000    1.250    0.000    2.500    0.000    1.750 
#    0.000    3.000    0.000    6.250    0.000    0.000 
#
# Total GULP energy -1189965.005217 kJ/mol
# GULP energy per Si atom -12395.468804 kJ/mol
# Density = 1.775765 g / cm^3
# Si number density = 17.798161 Si / 1000 Ang^3
#
#
#
# Elastic Constant Matrix: (Units=GPa)
#
#
# Indices 1 2 3 4 5 6 
#
# 1 83.4420 43.6035 27.2038 0.0000 0.0000 0.0000
# 2 43.6035 83.4420 27.2038 0.0000 0.0000 0.0000
# 3 27.2038 27.2038 101.9556 0.0000 0.0000 0.0000
# 4 0.0000 0.0000 0.0000 17.0997 0.0000 0.0000
# 5 0.0000 0.0000 0.0000 0.0000 17.0997 0.0000
# 6 0.0000 0.0000 0.0000 0.0000 0.0000 19.9192
#
#
#
# Elastic Compliance Matrix: (Units=1/GPa)
#
#
# Indices 1 2 3 4 5 6 
#
# 1 0.016994 -0.008107 -0.002371 0.000000 0.000000 0.000000
# 2 -0.008107 0.016994 -0.002371 0.000000 0.000000 0.000000
# 3 -0.002371 -0.002371 0.011074 0.000000 0.000000 0.000000
# 4 0.000000 0.000000 0.000000 0.058481 0.000000 0.000000
# 5 0.000000 0.000000 0.000000 0.000000 0.058481 0.000000
# 6 0.000000 0.000000 0.000000 0.000000 0.000000 0.050203
#
#
# Mechanical properties :
#
#
# Convention : Reuss Voigt Hill
#
# Bulk Modulus (GPa) = 51.64688 51.65135 51.64911
# Shear Modulus (GPa) = 20.46003 22.21228 21.33616
#
# Velocity S-wave (km/s) = 3.39419 3.53655 3.46610
# Velocity P-wave (km/s) = 6.66647 6.76460 6.71572
#
# Compressibility (1/GPa) = 0.01936225
#
# Stress axis : x y z
#
# Youngs Moduli (GPa) = 58.84430 58.84430 90.30548
#
# Poissons Ratio (x) = 0.47707 0.21413
# Poissons Ratio (y) = 0.47707 0.21413
# Poissons Ratio (z) = 0.13953 0.13953
#
# Static dielectric constant tensor:
#      x y z
#    x 3.045330 0.000000 0.000000 
#    y 0.000000 3.045330 0.000000 
#    z 0.000000 0.000000 3.692230 
# 
# 
# High freq. dielectric constant tensor:
#      x y z
#    x 1.665830 0.000000 0.000000 
#    y 0.000000 1.665830 0.000000 
#    z 0.000000 0.000000 1.695320 
# 
# From -- ./inp_files/2776.got.cif
#   From: 2010.03.12/outbox.cif.g09.slc.cpg/sg191_2_cif.got.tgz:2776.got - 2010.04.01 12:09:02.
