data_PCOD8328035
_publ_section_title
;
Structure prediction by ZEFSAII (Michael W. Deem and Ramdas Pophale) SiO2 
 PCOD8328035
Probable space group: P -6 2 C
;
_chemical_formula_sum "Si O2"
_cell_formula_units_Z 58
_cell_length_a 14.232889
_cell_length_b 14.232889
_cell_length_c 15.080369
_cell_angle_alpha 90.000000
_cell_angle_beta 90.000000
_cell_angle_gamma 120.000000
_cell_volume 2645.627674
_symmetry_space_group_name_H-M "P -6 2 C"
_symmetry_group_IT_number 190
_symmetry_cell_setting 'hexagonal'
loop_
_space_group_symop_operation_xyz
x,y,z
-x+y,-x,1/2-z
-y,x-y,z
x,y,1/2-z
-x+y,-x,z
-y,x-y,1/2-z
x-y,-y,-z
-x,-x+y,-z
y,x,-z
y,x,1/2+z
x-y,-y,1/2+z
-x,-x+y,1/2+z
loop_
_atom_site_type_symbol
_atom_site_label
_atom_site_fract_x
_atom_site_fract_y
_atom_site_fract_z
Si Si1 0.370510 0.889879 0.151963
Si Si2 0.753218 0.758831 0.097924
Si Si3 0.447005 0.205702 0.146200
Si Si4 0.043334 0.134723 0.250000
Si Si5 0.479586 0.920440 0.586119
Si Si6 0.666668 0.333335 0.855946
O O1 0.318174 0.860669 0.250000
O O2 0.299521 0.922367 0.089996
O O3 0.368907 0.786082 0.107281
O O4 0.493060 0.990832 0.162638
O O5 0.789577 0.677812 0.139253
O O6 0.794699 0.862014 0.161483
O O7 0.800409 0.800409 0.000000
O O8 0.482303 0.226303 0.250000
O O9 0.522124 0.170687 0.090457
O O10 0.453844 0.312464 0.102112
O O11 0.121502 0.083253 0.250000
O O12 0.519011 0.000000 0.500000
O O13 0.666667 0.333334 0.750000
#
# Coordination Sequence:
#
# PCOD8328035 Si02
#       6
#    12  12  12   6  12   4
#     4  10  19  39  62  92 137 182 227 279 353 423
#     4  11  22  43  68  95 129 174 221 288 350 412
#     4  11  21  42  68  95 135 185 236 282 349 435
#     4  10  24  48  68  92 122 166 218 280 354 410
#     4  11  24  39  62 102 137 181 237 299 359 422
#     4   9  21  36  60  96 129 184 230 277 354 432
#
# _framework density 21.922962999999999
#
# number of rings (size 3 to 8) (size 9 to 14) (size 15 to 20)
#    0.207    1.241    2.069    6.000    0.000    4.138 
#    7.448    0.000    0.000    0.000    0.000    0.000 
#    0.000    0.000    0.000    0.000    0.000    0.000 
#
# Total GULP energy -718823.134684 kJ/mol
# GULP energy per Si atom -12393.502322 kJ/mol
# Density = 2.187307 g / cm^3
# Si number density = 21.922963 Si / 1000 Ang^3
#
#
#
# Elastic Constant Matrix: (Units=GPa)
#
#
# Indices 1 2 3 4 5 6 
#
# 1 112.1905 49.3130 22.0646 0.0000 0.0000 0.0000
# 2 49.3130 112.1896 22.0646 0.0001 0.0000 -0.0003
# 3 22.0646 22.0646 121.3568 0.0001 0.0000 0.0002
# 4 0.0000 0.0001 0.0001 27.1214 0.0000 0.0000
# 5 0.0000 0.0000 0.0000 0.0000 27.1214 0.0000
# 6 0.0000 -0.0003 0.0002 0.0000 0.0000 31.4386
#
#
#
# Elastic Compliance Matrix: (Units=1/GPa)
#
#
# Indices 1 2 3 4 5 6 
#
# 1 0.011210 -0.004694 -0.001185 0.000000 0.000000 0.000000
# 2 -0.004694 0.011210 -0.001185 0.000000 0.000000 0.000000
# 3 -0.001185 -0.001185 0.008671 0.000000 0.000000 0.000000
# 4 0.000000 0.000000 0.000000 0.036871 0.000000 0.000000
# 5 0.000000 0.000000 0.000000 0.000000 0.036871 0.000000
# 6 0.000000 0.000000 0.000000 0.000000 0.000000 0.031808
#
#
# Mechanical properties :
#
#
# Convention : Reuss Voigt Hill
#
# Bulk Modulus (GPa) = 58.95017 59.18013 59.06515
# Shear Modulus (GPa) = 31.96470 33.95593 32.96031
#
# Velocity S-wave (km/s) = 3.82258 3.93984 3.88165
# Velocity P-wave (km/s) = 6.81402 6.91011 6.86224
#
# Compressibility (1/GPa) = 0.01696348
#
# Stress axis : x y z
#
# Youngs Moduli (GPa) = 89.20814 89.20739 115.32783
#
# Poissons Ratio (x) = 0.41876 0.13662
# Poissons Ratio (y) = 0.41877 0.13662
# Poissons Ratio (z) = 0.10568 0.10568
#
# Static dielectric constant tensor:
#      x y z
#    x 3.903430 0.000000 0.000000 
#    y 0.000000 3.903430 0.000000 
#    z 0.000000 0.000000 3.955480 
# 
# 
# High freq. dielectric constant tensor:
#      x y z
#    x 1.849600 0.000000 0.000000 
#    y 0.000000 1.849600 0.000000 
#    z 0.000000 0.000000 1.869030 
# 
# From -- ./inp_files/2843.got.cif
#   From: 2010.06.25/outbox.cif.g09.slc.cpg/sg190_2_cif.got.tgz:2843.got - 2010.06.28 13:08:06.
