data_PCOD8328983
_publ_section_title
;
Structure prediction by ZEFSAII (Michael W. Deem and Ramdas Pophale) SiO2 
 PCOD8328983
Probable space group: P 6/M M M
;
_chemical_formula_sum "Si O2"
_cell_formula_units_Z 90
_cell_length_a 25.906563
_cell_length_b 25.906563
_cell_length_c 9.182484
_cell_angle_alpha 90.000000
_cell_angle_beta 90.000000
_cell_angle_gamma 120.000000
_cell_volume 5337.162313
_symmetry_space_group_name_H-M "P 6/M M M"
_symmetry_group_IT_number 191
_symmetry_cell_setting 'hexagonal'
loop_
_space_group_symop_operation_xyz
x,y,z
x-y,x,z
-y,x-y,z
-x,-y,z
-x+y,-x,z
y,-x+y,z
x-y,-y,-z
-x,-x+y,-z
y,x,-z
-y,-x,-z
-x+y,y,-z
x,x-y,-z
-x,-y,-z
-x+y,-x,-z
y,-x+y,-z
x,y,-z
x-y,x,-z
-y,x-y,-z
-x+y,y,z
x,x-y,z
-y,-x,z
y,x,z
x-y,-y,z
-x,-x+y,z
loop_
_atom_site_type_symbol
_atom_site_label
_atom_site_fract_x
_atom_site_fract_y
_atom_site_fract_z
Si Si1 0.930933 0.550256 0.329251
Si Si2 0.569298 0.430702 0.839606
Si Si3 0.332741 0.065368 0.327503
Si Si4 0.744322 0.372161 0.000000
Si Si5 0.067747 0.135493 0.326508
Si Si6 0.135544 0.271087 0.325773
O O1 0.923524 0.536109 0.500000
O O2 0.884029 0.492079 0.244528
O O3 0.911674 0.598775 0.286984
O O4 0.000000 0.573854 0.285331
O O5 0.554553 0.445448 0.000000
O O6 0.605743 0.394257 0.857564
O O7 0.326003 0.062299 0.500000
O O8 0.307887 0.105831 0.261465
O O9 0.292064 0.000000 0.260846
O O10 0.700443 0.400885 0.000000
O O11 0.101668 0.101668 0.267488
O O12 0.067682 0.135364 0.500000
O O13 0.101644 0.203287 0.267534
O O14 0.135246 0.270491 0.500000
#
# Coordination Sequence:
#
# PCOD8328983 Si02
#       6
#    24  12  24   6  12  12
#     4   9  17  30  48  74 108 131 144 183 247 295
#     4  10  20  32  55  78  87 124 164 194 223 286
#     4   8  14  24  36  53  82 116 144 176 227 279
#     4   8  20  44  57  64  90 134 162 196 250 284
#     4   9  15  20  27  41  65 101 148 200 243 273
#     4   9  14  21  33  50  71 105 151 191 222 266
#
# _framework density 16.862894000000001
#
# number of rings (size 3 to 8) (size 9 to 14) (size 15 to 20)
#    0.533    2.667    0.000    3.333    0.000    5.867 
#    2.400    0.000    0.000    2.400    0.000    0.000 
#    0.000    0.000    0.000    0.000    0.000    0.000 
#
# Total GULP energy -1114980.932281 kJ/mol
# GULP energy per Si atom -12388.677025 kJ/mol
# Density = 1.682451 g / cm^3
# Si number density = 16.862894 Si / 1000 Ang^3
#
#
#
# Elastic Constant Matrix: (Units=GPa)
#
#
# Indices 1 2 3 4 5 6 
#
# 1 150.6220 95.3282 32.1757 0.0000 0.0000 0.0000
# 2 95.3282 150.6220 32.1757 0.0000 0.0000 0.0000
# 3 32.1757 32.1757 28.1194 0.0000 0.0000 0.0000
# 4 0.0000 0.0000 0.0000 11.3579 0.0000 0.0000
# 5 0.0000 0.0000 0.0000 0.0000 11.3579 0.0000
# 6 0.0000 0.0000 0.0000 0.0000 0.0000 27.6469
#
#
#
# Elastic Compliance Matrix: (Units=1/GPa)
#
#
# Indices 1 2 3 4 5 6 
#
# 1 0.011944 -0.006141 -0.006640 0.000000 0.000000 0.000000
# 2 -0.006141 0.011944 -0.006640 0.000000 0.000000 0.000000
# 3 -0.006640 -0.006640 0.050759 0.000000 0.000000 0.000000
# 4 0.000000 0.000000 0.000000 0.088044 0.000000 0.000000
# 5 0.000000 0.000000 0.000000 0.000000 0.088044 0.000000
# 6 0.000000 0.000000 0.000000 0.000000 0.000000 0.036170
#
#
# Mechanical properties :
#
#
# Convention : Reuss Voigt Hill
#
# Bulk Modulus (GPa) = 27.92973 72.08030 50.00502
# Shear Modulus (GPa) = 14.80669 21.38480 18.09574
#
# Velocity S-wave (km/s) = 2.96643 3.56498 3.27939
# Velocity P-wave (km/s) = 5.32275 7.73196 6.63758
#
# Compressibility (1/GPa) = 0.03580414
#
# Stress axis : x y z
#
# Youngs Moduli (GPa) = 83.72228 83.72228 19.70083
#
# Poissons Ratio (x) = 0.51413 0.13082
# Poissons Ratio (y) = 0.51413 0.13082
# Poissons Ratio (z) = 0.55595 0.55595
#
# Static dielectric constant tensor:
#      x y z
#    x 3.320230 0.000000 0.000000 
#    y 0.000000 3.320230 0.000000 
#    z 0.000000 0.000000 2.564780 
# 
# 
# High freq. dielectric constant tensor:
#      x y z
#    x 1.654470 0.000000 0.000000 
#    y 0.000000 1.654470 0.000000 
#    z 0.000000 0.000000 1.584520 
# 
# From -- ./inp_files/1334.got.cif
#   From: 2010.03.12/outbox.cif.g09.slc.cpg/sg191_1_cif.got.tgz:1334.got - 2010.04.01 12:09:02.
