data_PCOD8328191
_publ_section_title
;
Structure prediction by ZEFSAII (Michael W. Deem and Ramdas Pophale) SiO2 
 PCOD8328191
Probable space group: P -6 2 C
;
_chemical_formula_sum "Si O2"
_cell_formula_units_Z 48
_cell_length_a 18.617350
_cell_length_b 18.617350
_cell_length_c 8.328826
_cell_angle_alpha 90.000000
_cell_angle_beta 90.000000
_cell_angle_gamma 120.000000
_cell_volume 2500.058366
_symmetry_space_group_name_H-M "P -6 2 C"
_symmetry_group_IT_number 190
_symmetry_cell_setting 'hexagonal'
loop_
_space_group_symop_operation_xyz
x,y,z
-x+y,-x,1/2-z
-y,x-y,z
x,y,1/2-z
-x+y,-x,z
-y,x-y,1/2-z
x-y,-y,-z
-x,-x+y,-z
y,x,-z
y,x,1/2+z
x-y,-y,1/2+z
-x,-x+y,1/2+z
loop_
_atom_site_type_symbol
_atom_site_label
_atom_site_fract_x
_atom_site_fract_y
_atom_site_fract_z
Si Si1 0.516696 0.184234 0.937221
Si Si2 0.671129 0.909329 0.062840
Si Si3 0.826969 0.492575 0.062902
Si Si4 0.750491 0.661946 0.437165
O O1 0.532475 0.204164 0.750000
O O2 0.537599 0.268560 0.028612
O O3 0.575239 0.151130 0.004297
O O4 0.422427 0.113349 0.967385
O O5 0.684067 0.902715 0.250000
O O6 0.576914 0.886912 0.031171
O O7 0.691632 0.846250 0.969651
O O8 0.734807 0.000000 0.000000
O O9 0.845566 0.509863 0.250000
O O10 0.731401 0.645361 0.250000
O O11 0.733094 0.733094 0.500000
#
# Coordination Sequence:
#
# PCOD8328191 Si02
#       4
#    12  12  12  12
#     4  11  21  35  53  78 110 149 191 234 276 322
#     4  11  22  39  60  85 112 144 181 224 273 328
#     4  11  21  35  53  78 110 149 191 234 276 322
#     4  11  22  39  60  85 112 144 181 224 273 328
#
# _framework density 19.199552000000001
#
# number of rings (size 3 to 8) (size 9 to 14) (size 15 to 20)
#    0.000    1.000    0.000   12.500    0.000    1.000 
#    0.000    5.000    0.000    0.500    0.000    3.500 
#    0.000    0.000    0.000    0.000    0.000    0.000 
#
# Total GULP energy -595551.460415 kJ/mol
# GULP energy per Si atom -12407.322092 kJ/mol
# Density = 1.915585 g / cm^3
# Si number density = 19.199552 Si / 1000 Ang^3
#
#
#
# Elastic Constant Matrix: (Units=GPa)
#
#
# Indices 1 2 3 4 5 6 
#
# 1 82.5941 67.1953 6.0839 0.0000 0.0000 0.0000
# 2 67.1953 82.5941 6.0839 0.0000 0.0000 0.0000
# 3 6.0839 6.0839 98.4944 0.0000 0.0000 0.0000
# 4 0.0000 0.0000 0.0000 32.4716 0.0000 0.0000
# 5 0.0000 0.0000 0.0000 0.0000 32.4716 0.0000
# 6 0.0000 0.0000 0.0000 0.0000 0.0000 7.6994
#
#
#
# Elastic Compliance Matrix: (Units=1/GPa)
#
#
# Indices 1 2 3 4 5 6 
#
# 1 0.035825 -0.029115 -0.000414 0.000000 0.000000 0.000000
# 2 -0.029115 0.035825 -0.000414 0.000000 0.000000 0.000000
# 3 -0.000414 -0.000414 0.010204 0.000000 0.000000 0.000000
# 4 0.000000 0.000000 0.000000 0.030796 0.000000 0.000000
# 5 0.000000 0.000000 0.000000 0.000000 0.030796 0.000000
# 6 0.000000 0.000000 0.000000 0.000000 0.000000 0.129880
#
#
# Mechanical properties :
#
#
# Convention : Reuss Voigt Hill
#
# Bulk Modulus (GPa) = 45.52559 46.93432 46.22995
# Shear Modulus (GPa) = 14.68269 26.81647 20.74958
#
# Velocity S-wave (km/s) = 2.76840 3.74133 3.29102
# Velocity P-wave (km/s) = 5.82941 6.56978 6.21063
#
# Compressibility (1/GPa) = 0.02196567
#
# Stress axis : x y z
#
# Youngs Moduli (GPa) = 27.91350 27.91350 98.00016
#
# Poissons Ratio (x) = 0.81271 0.04062
# Poissons Ratio (y) = 0.81271 0.04062
# Poissons Ratio (z) = 0.01157 0.01157
#
# Static dielectric constant tensor:
#      x y z
#    x 3.504920 0.000000 0.000000 
#    y 0.000000 3.504920 0.000000 
#    z 0.000000 0.000000 3.702020 
# 
# 
# High freq. dielectric constant tensor:
#      x y z
#    x 1.734600 0.000000 0.000000 
#    y 0.000000 1.734600 0.000000 
#    z 0.000000 0.000000 1.772050 
# 
# From -- ./inp_files/619.got.cif
#   From: 2010.06.25/outbox.cif.g09.slc.cpg/sg190_1_cif.got.tgz:619.got - 2010.06.28 13:08:06.
