data_PCOD8328461
_publ_section_title
;
Structure prediction by ZEFSAII (Michael W. Deem and Ramdas Pophale) SiO2 
 PCOD8328461
Probable space group: P 6/M M M
;
_chemical_formula_sum "Si O2"
_cell_formula_units_Z 120
_cell_length_a 17.858677
_cell_length_b 17.858677
_cell_length_c 27.405752
_cell_angle_alpha 90.000000
_cell_angle_beta 90.000000
_cell_angle_gamma 120.000000
_cell_volume 7569.564956
_symmetry_space_group_name_H-M "P 6/M M M"
_symmetry_group_IT_number 191
_symmetry_cell_setting 'hexagonal'
loop_
_space_group_symop_operation_xyz
x,y,z
x-y,x,z
-y,x-y,z
-x,-y,z
-x+y,-x,z
y,-x+y,z
x-y,-y,-z
-x,-x+y,-z
y,x,-z
-y,-x,-z
-x+y,y,-z
x,x-y,-z
-x,-y,-z
-x+y,-x,-z
y,-x+y,-z
x,y,-z
x-y,x,-z
-y,x-y,-z
-x+y,y,z
x,x-y,z
-y,-x,z
y,x,z
x-y,-y,z
-x,-x+y,z
loop_
_atom_site_type_symbol
_atom_site_label
_atom_site_fract_x
_atom_site_fract_y
_atom_site_fract_z
Si Si1 0.904228 0.363602 0.779379
Si Si2 0.632756 0.902362 0.590072
Si Si3 0.508315 0.839726 0.500000
Si Si4 0.330971 0.835686 0.675527
Si Si5 0.411011 0.000000 0.945191
Si Si6 0.161922 0.669722 0.882744
O O1 0.912340 0.456170 0.781976
O O2 0.853719 0.314334 0.730829
O O3 0.854312 0.310839 0.827371
O O4 0.000000 0.375907 0.778408
O O5 0.666957 0.833479 0.587563
O O6 0.565329 0.885099 0.547252
O O7 0.584289 0.895301 0.640634
O O8 0.713984 0.000000 0.585682
O O9 0.426648 0.853296 0.500000
O O10 0.475570 0.737785 0.500000
O O11 0.428310 0.856620 0.666669
O O12 0.265065 0.734935 0.663927
O O13 0.424446 0.084491 0.916897
O O14 0.500000 0.000000 0.945783
O O15 0.378440 0.000000 0.000000
O O16 0.172446 0.586223 0.885718
O O17 0.249302 0.750698 0.902340
#
# Coordination Sequence:
#
# PCOD8328461 Si02
#       6
#    24  24  12  24  12  24
#     4   9  16  27  42  60  85 119 154 187 223 263
#     4  10  21  35  50  69  91 119 154 195 241 285
#     4  10  20  33  50  71  98 130 163 194 224 261
#     4  10  19  29  43  65  95 127 158 190 224 262
#     4   9  18  32  46  60  84 116 147 182 226 268
#     4  10  18  29  45  65  88 116 152 190 226 265
#
# _framework density 15.852959
#
# number of rings (size 3 to 8) (size 9 to 14) (size 15 to 20)
#    0.000    2.300    1.000    2.600    0.000    3.200 
#    0.000    4.000    0.000    1.400    0.000    0.000 
#    0.000    2.400    0.000    0.300    0.000    1.500 
#
# Total GULP energy -1487778.511032 kJ/mol
# GULP energy per Si atom -12398.154259 kJ/mol
# Density = 1.581688 g / cm^3
# Si number density = 15.852959 Si / 1000 Ang^3
#
#
#
# Elastic Constant Matrix: (Units=GPa)
#
#
# Indices 1 2 3 4 5 6 
#
# 1 81.8505 50.6075 33.6188 0.0000 0.0000 0.0000
# 2 50.6075 81.8505 33.6188 0.0000 0.0000 0.0000
# 3 33.6188 33.6188 112.9877 0.0000 0.0000 0.0000
# 4 0.0000 0.0000 0.0000 16.5719 0.0000 0.0000
# 5 0.0000 0.0000 0.0000 0.0000 16.5719 0.0000
# 6 0.0000 0.0000 0.0000 0.0000 0.0000 15.6215
#
#
#
# Elastic Compliance Matrix: (Units=1/GPa)
#
#
# Indices 1 2 3 4 5 6 
#
# 1 0.020450 -0.011557 -0.002646 0.000000 0.000000 0.000000
# 2 -0.011557 0.020450 -0.002646 0.000000 0.000000 0.000000
# 3 -0.002646 -0.002646 0.010425 0.000000 0.000000 0.000000
# 4 0.000000 0.000000 0.000000 0.060343 0.000000 0.000000
# 5 0.000000 0.000000 0.000000 0.000000 0.060343 0.000000
# 6 0.000000 0.000000 0.000000 0.000000 0.000000 0.064014
#
#
# Mechanical properties :
#
#
# Convention : Reuss Voigt Hill
#
# Bulk Modulus (GPa) = 56.73232 56.93095 56.83163
# Shear Modulus (GPa) = 18.14227 20.34263 19.24245
#
# Velocity S-wave (km/s) = 3.38658 3.58607 3.48775
# Velocity P-wave (km/s) = 7.15236 7.28947 7.22124
#
# Compressibility (1/GPa) = 0.01762664
#
# Stress axis : x y z
#
# Youngs Moduli (GPa) = 48.89991 48.89991 95.92231
#
# Poissons Ratio (x) = 0.56515 0.25381
# Poissons Ratio (y) = 0.56515 0.25381
# Poissons Ratio (z) = 0.12939 0.12939
#
# Static dielectric constant tensor:
#      x y z
#    x 2.813640 0.000000 0.000000 
#    y 0.000000 2.813640 0.000000 
#    z 0.000000 0.000000 3.286070 
# 
# 
# High freq. dielectric constant tensor:
#      x y z
#    x 1.581030 0.000000 0.000000 
#    y 0.000000 1.581030 0.000000 
#    z 0.000000 0.000000 1.626240 
# 
# From -- ./inp_files/9551.got.cif
#   From: 2010.03.12/outbox.cif.g09.slc.cpg/sg191_5_cif.got.tgz:9551.got - 2010.04.01 12:09:02.
