data_PCOD8328024
_publ_section_title
;
Structure prediction by ZEFSAII (Michael W. Deem and Ramdas Pophale) SiO2 
 PCOD8328024
Probable space group: P -6 2 C
;
_chemical_formula_sum "Si O2"
_cell_formula_units_Z 96
_cell_length_a 17.359946
_cell_length_b 17.359946
_cell_length_c 19.077540
_cell_angle_alpha 90.000000
_cell_angle_beta 90.000000
_cell_angle_gamma 120.000000
_cell_volume 4979.087339
_symmetry_space_group_name_H-M "P -6 2 C"
_symmetry_group_IT_number 190
_symmetry_cell_setting 'hexagonal'
loop_
_space_group_symop_operation_xyz
x,y,z
-x+y,-x,1/2-z
-y,x-y,z
x,y,1/2-z
-x+y,-x,z
-y,x-y,1/2-z
x-y,-y,-z
-x,-x+y,-z
y,x,-z
y,x,1/2+z
x-y,-y,1/2+z
-x,-x+y,1/2+z
loop_
_atom_site_type_symbol
_atom_site_label
_atom_site_fract_x
_atom_site_fract_y
_atom_site_fract_z
Si Si1 0.414561 0.542285 0.551804
Si Si2 0.274669 0.914390 0.671809
Si Si3 0.889722 0.827906 0.327261
Si Si4 0.061477 0.581033 0.398131
Si Si5 0.202509 0.132030 0.833923
Si Si6 0.462323 0.214130 0.443665
Si Si7 0.557023 0.648920 0.330845
Si Si8 0.610921 0.825300 0.094746
O O1 0.425087 0.520128 0.473579
O O2 0.429562 0.476211 0.603409
O O3 0.485001 0.645517 0.557116
O O4 0.318117 0.529245 0.568876
O O5 0.292102 0.888794 0.750000
O O6 0.206239 0.948910 0.675352
O O7 0.226970 0.827446 0.623346
O O8 0.365538 0.996265 0.639511
O O9 0.929417 0.859527 0.250000
O O10 0.870859 0.902931 0.357677
O O11 0.967511 0.813776 0.361290
O O12 0.098854 0.537909 0.342707
O O13 0.104563 0.685068 0.380431
O O14 0.227814 0.141471 0.750000
O O15 0.287347 0.159315 0.882489
O O16 0.402369 0.203656 0.511988
O O17 0.575524 0.672683 0.250000
O O18 0.554494 0.730914 0.367087
#
# Coordination Sequence:
#
# PCOD8328024 Si02
#       8
#    12  12  12  12  12  12  12  12
#     4  10  21  39  63  88 116 153 202 256 303 371
#     4  10  21  38  60  88 116 152 205 253 301 372
#     4   9  18  33  55  82 117 159 200 243 289 351
#     4  10  22  40  58  87 124 154 200 251 308 365
#     4  10  19  35  58  88 125 166 209 247 293 356
#     4  11  22  39  65  87 115 158 204 252 315 370
#     4  11  21  39  63  87 122 163 203 251 305 365
#     4  11  23  37  61  91 123 160 202 254 303 368
#
# _framework density 19.280642
#
# number of rings (size 3 to 8) (size 9 to 14) (size 15 to 20)
#    0.000    1.750    3.750    0.875    1.750    2.500 
#    0.750    1.250    0.000    0.000    0.000    1.750 
#    0.000    0.000    0.000    0.000    0.000    0.000 
#
# Total GULP energy -1189381.420545 kJ/mol
# GULP energy per Si atom -12389.389797 kJ/mol
# Density = 1.923676 g / cm^3
# Si number density = 19.280642 Si / 1000 Ang^3
#
#
#
# Elastic Constant Matrix: (Units=GPa)
#
#
# Indices 1 2 3 4 5 6 
#
# 1 100.4991 37.2297 35.1122 0.0000 0.0000 0.0000
# 2 37.2297 100.4991 35.1122 0.0000 0.0000 0.0000
# 3 35.1122 35.1122 48.2817 0.0000 0.0000 0.0000
# 4 0.0000 0.0000 0.0000 18.9007 0.0000 0.0000
# 5 0.0000 0.0000 0.0000 0.0000 18.9007 0.0000
# 6 0.0000 0.0000 0.0000 0.0000 0.0000 31.6347
#
#
#
# Elastic Compliance Matrix: (Units=1/GPa)
#
#
# Indices 1 2 3 4 5 6 
#
# 1 0.013672 -0.002133 -0.008392 0.000000 0.000000 0.000000
# 2 -0.002133 0.013672 -0.008392 0.000000 0.000000 0.000000
# 3 -0.008392 -0.008392 0.032918 0.000000 0.000000 0.000000
# 4 0.000000 0.000000 0.000000 0.052908 0.000000 0.000000
# 5 0.000000 0.000000 0.000000 0.000000 0.052908 0.000000
# 6 0.000000 0.000000 0.000000 0.000000 0.000000 0.031611
#
#
# Mechanical properties :
#
#
# Convention : Reuss Voigt Hill
#
# Bulk Modulus (GPa) = 44.58539 51.57643 48.08091
# Shear Modulus (GPa) = 20.57620 23.34229 21.95924
#
# Velocity S-wave (km/s) = 3.27034 3.48323 3.37846
# Velocity P-wave (km/s) = 6.11840 6.55634 6.34115
#
# Compressibility (1/GPa) = 0.02242887
#
# Stress axis : x y z
#
# Youngs Moduli (GPa) = 73.13981 73.13981 30.37888
#
# Poissons Ratio (x) = 0.15601 0.25494
# Poissons Ratio (y) = 0.15601 0.25494
# Poissons Ratio (z) = 0.61378 0.61378
#
# Static dielectric constant tensor:
#      x y z
#    x 3.734210 0.000000 0.000000 
#    y 0.000000 3.734210 0.000000 
#    z 0.000000 0.000000 3.378860 
# 
# 
# High freq. dielectric constant tensor:
#      x y z
#    x 1.758520 0.000000 0.000000 
#    y 0.000000 1.758520 0.000000 
#    z 0.000000 0.000000 1.721050 
# 
# From -- ./inp_files/4472.got.cif
#   From: 2010.06.25/outbox.cif.g09.slc.cpg/sg190_3_cif.got.tgz:4472.got - 2010.06.28 13:08:06.
