data_PCOD8328875
_publ_section_title
;
Structure prediction by ZEFSAII (Michael W. Deem and Ramdas Pophale) SiO2 
 PCOD8328875
Probable space group: P 6/M M M
;
_chemical_formula_sum "Si O2"
_cell_formula_units_Z 192
_cell_length_a 22.971760
_cell_length_b 22.971760
_cell_length_c 23.207098
_cell_angle_alpha 90.000000
_cell_angle_beta 90.000000
_cell_angle_gamma 120.000000
_cell_volume 10605.716369
_symmetry_space_group_name_H-M "P 6/M M M"
_symmetry_group_IT_number 191
_symmetry_cell_setting 'hexagonal'
loop_
_space_group_symop_operation_xyz
x,y,z
x-y,x,z
-y,x-y,z
-x,-y,z
-x+y,-x,z
y,-x+y,z
x-y,-y,-z
-x,-x+y,-z
y,x,-z
-y,-x,-z
-x+y,y,-z
x,x-y,-z
-x,-y,-z
-x+y,-x,-z
y,-x+y,-z
x,y,-z
x-y,x,-z
-y,x-y,-z
-x+y,y,z
x,x-y,z
-y,-x,z
y,x,z
x-y,-y,z
-x,-x+y,z
loop_
_atom_site_type_symbol
_atom_site_label
_atom_site_fract_x
_atom_site_fract_y
_atom_site_fract_z
Si Si1 0.074489 0.275481 0.180302
Si Si2 0.278208 0.074455 0.568152
Si Si3 0.925018 0.259148 0.936173
Si Si4 0.802055 0.333310 0.432327
Si Si5 0.270491 0.405487 0.254153
Si Si6 0.512558 0.688329 0.062472
Si Si7 0.663591 0.199183 0.182645
Si Si8 0.596976 0.675015 0.375991
O O1 0.125009 0.250017 0.200473
O O2 0.083499 0.288683 0.111734
O O3 0.090579 0.343224 0.212814
O O4 0.000000 0.217460 0.196407
O O5 0.284021 0.076637 0.500000
O O6 0.258499 0.129250 0.590385
O O7 0.350535 0.093382 0.592017
O O8 0.221420 0.000000 0.589287
O O9 0.873947 0.284509 0.922368
O O10 0.000000 0.322967 0.932857
O O11 0.910973 0.225614 0.000000
O O12 0.813465 0.330642 0.500000
O O13 0.789278 0.394639 0.417194
O O14 0.736584 0.263417 0.411962
O O15 0.869909 0.346687 0.400228
O O16 0.204003 0.408005 0.272649
O O17 0.322474 0.471744 0.219962
O O18 0.309270 0.399832 0.308745
O O19 0.499882 0.749941 0.057685
O O20 0.470716 0.643528 0.116585
O O21 0.492804 0.649979 0.000000
O O22 0.600268 0.200536 0.210328
O O23 0.726806 0.273195 0.183801
O O24 0.616515 0.616515 0.385780
#
# Coordination Sequence:
#
# PCOD8328875 Si02
#       8
#    24  24  24  24  24  24  24  24
#     4  10  19  32  51  74 100 129 163 204 249 298
#     4   9  17  30  50  77 108 141 176 212 252 299
#     4   9  16  26  45  72  99 125 156 199 248 297
#     4  10  21  38  60  84 110 141 177 215 252 294
#     4  10  20  35  53  73  99 134 174 215 255 297
#     4   9  16  28  47  69  94 124 159 199 245 298
#     4  10  20  34  51  72  97 128 166 208 255 304
#     4  11  22  35  54  80 109 138 168 210 263 316
#
# _framework density 18.103445000000001
#
# number of rings (size 3 to 8) (size 9 to 14) (size 15 to 20)
#    0.000    2.250    1.250    2.500    0.000    4.000 
#    0.000    0.625    0.000    5.500    0.000    2.625 
#    0.000    0.000    0.000    7.125    0.000    2.750 
#
# Total GULP energy -2379719.054680 kJ/mol
# GULP energy per Si atom -12394.370076 kJ/mol
# Density = 1.806224 g / cm^3
# Si number density = 18.103445 Si / 1000 Ang^3
#
#
#
# Elastic Constant Matrix: (Units=GPa)
#
#
# Indices 1 2 3 4 5 6 
#
# 1 85.4153 42.8089 13.6484 0.0000 0.0000 0.0000
# 2 42.8089 85.4153 13.6484 0.0000 0.0000 0.0000
# 3 13.6484 13.6484 14.0400 0.0000 0.0000 0.0000
# 4 0.0000 0.0000 0.0000 17.3942 0.0000 0.0000
# 5 0.0000 0.0000 0.0000 0.0000 17.3942 0.0000
# 6 0.0000 0.0000 0.0000 0.0000 0.0000 21.3032
#
#
#
# Elastic Compliance Matrix: (Units=1/GPa)
#
#
# Indices 1 2 3 4 5 6 
#
# 1 0.016652 -0.006818 -0.009560 0.000000 0.000000 0.000000
# 2 -0.006818 0.016652 -0.009560 0.000000 0.000000 0.000000
# 3 -0.009560 -0.009560 0.089811 0.000000 0.000000 0.000000
# 4 0.000000 0.000000 0.000000 0.057491 0.000000 0.000000
# 5 0.000000 0.000000 0.000000 0.000000 0.057491 0.000000
# 6 0.000000 0.000000 0.000000 0.000000 0.000000 0.046941
#
#
# Mechanical properties :
#
#
# Convention : Reuss Voigt Hill
#
# Bulk Modulus (GPa) = 14.03702 36.12021 25.07861
# Shear Modulus (GPa) = 13.86351 18.86933 16.36642
#
# Velocity S-wave (km/s) = 2.77030 3.23198 3.01000
# Velocity P-wave (km/s) = 4.24304 5.82435 5.09541
#
# Compressibility (1/GPa) = 0.07124020
#
# Stress axis : x y z
#
# Youngs Moduli (GPa) = 60.05193 60.05193 11.13454
#
# Poissons Ratio (x) = 0.40945 0.10644
# Poissons Ratio (y) = 0.40945 0.10644
# Poissons Ratio (z) = 0.57407 0.57407
#
# Static dielectric constant tensor:
#      x y z
#    x 3.302050 0.000000 0.000000 
#    y 0.000000 3.302050 0.000000 
#    z 0.000000 0.000000 3.512380 
# 
# 
# High freq. dielectric constant tensor:
#      x y z
#    x 1.686300 0.000000 0.000000 
#    y 0.000000 1.686300 0.000000 
#    z 0.000000 0.000000 1.708380 
# 
# From -- ./inp_files/8107.got.cif
#   From: 2010.03.12/outbox.cif.g09.slc.cpg/sg191_5_cif.got.tgz:8107.got - 2010.04.01 12:09:02.
