data_PCOD8328950
_publ_section_title
;
Structure prediction by ZEFSAII (Michael W. Deem and Ramdas Pophale) SiO2 
 PCOD8328950
Probable space group: P 6/M M M
;
_chemical_formula_sum "Si O2"
_cell_formula_units_Z 96
_cell_length_a 22.875075
_cell_length_b 22.875075
_cell_length_c 12.765167
_cell_angle_alpha 90.000000
_cell_angle_beta 90.000000
_cell_angle_gamma 120.000000
_cell_volume 5784.717913
_symmetry_space_group_name_H-M "P 6/M M M"
_symmetry_group_IT_number 191
_symmetry_cell_setting 'hexagonal'
loop_
_space_group_symop_operation_xyz
x,y,z
x-y,x,z
-y,x-y,z
-x,-y,z
-x+y,-x,z
y,-x+y,z
x-y,-y,-z
-x,-x+y,-z
y,x,-z
-y,-x,-z
-x+y,y,-z
x,x-y,-z
-x,-y,-z
-x+y,-x,-z
y,-x+y,-z
x,y,-z
x-y,x,-z
-y,x-y,-z
-x+y,y,z
x,x-y,z
-y,-x,z
y,x,z
x-y,-y,z
-x,-x+y,z
loop_
_atom_site_type_symbol
_atom_site_label
_atom_site_fract_x
_atom_site_fract_y
_atom_site_fract_z
Si Si1 0.380716 0.256754 0.804439
Si Si2 0.474653 0.393871 0.726365
Si Si3 0.604909 0.532094 0.500000
Si Si4 0.790025 0.075946 0.000000
Si Si5 0.206029 0.924495 0.381343
O O1 0.406870 0.203435 0.811834
O O2 0.445095 0.332208 0.808983
O O3 0.330724 0.245889 0.898892
O O4 0.342972 0.250757 0.695456
O O5 0.551424 0.448577 0.758709
O O6 0.429522 0.429522 0.725817
O O7 0.472321 0.362046 0.610017
O O8 0.600977 0.600977 0.500000
O O9 0.529372 0.470629 0.500000
O O10 0.870328 0.129673 0.000000
O O11 0.778183 0.000000 0.000000
O O12 0.225825 0.916401 0.500000
O O13 0.126580 0.873421 0.359915
O O14 0.220015 0.000000 0.361426
#
# Coordination Sequence:
#
# PCOD8328950 Si02
#       5
#    24  24  12  12  24
#     4  10  20  32  46  66  92 122 155 189 231 282
#     4   9  16  27  44  66  91 117 147 183 224 267
#     4   7  12  22  37  60  88 116 142 171 213 263
#     4  10  20  34  51  70  95 127 161 195 233 281
#     4   9  17  28  43  64  89 116 146 183 228 277
#
# _framework density 16.595451000000001
#
# number of rings (size 3 to 8) (size 9 to 14) (size 15 to 20)
#    0.000    2.875    0.000    3.750    1.750    0.000 
#    0.000    0.625    0.000    3.125    0.000    1.750 
#    0.000    6.000    0.000    0.250    0.000    0.500 
#
# Total GULP energy -1189466.264493 kJ/mol
# GULP energy per Si atom -12390.273588 kJ/mol
# Density = 1.655768 g / cm^3
# Si number density = 16.595451 Si / 1000 Ang^3
#
#
#
# Elastic Constant Matrix: (Units=GPa)
#
#
# Indices 1 2 3 4 5 6 
#
# 1 95.7838 46.8794 34.9774 0.0000 0.0000 0.0000
# 2 46.8794 95.7838 34.9774 0.0000 0.0000 0.0000
# 3 34.9774 34.9774 64.4733 0.0000 0.0000 0.0000
# 4 0.0000 0.0000 0.0000 14.6619 0.0000 0.0000
# 5 0.0000 0.0000 0.0000 0.0000 14.6619 0.0000
# 6 0.0000 0.0000 0.0000 0.0000 0.0000 24.4522
#
#
#
# Elastic Compliance Matrix: (Units=1/GPa)
#
#
# Indices 1 2 3 4 5 6 
#
# 1 0.014999 -0.005449 -0.005181 0.000000 0.000000 0.000000
# 2 -0.005449 0.014999 -0.005181 0.000000 0.000000 0.000000
# 3 -0.005181 -0.005181 0.021132 0.000000 0.000000 0.000000
# 4 0.000000 0.000000 0.000000 0.068204 0.000000 0.000000
# 5 0.000000 0.000000 0.000000 0.000000 0.068204 0.000000
# 6 0.000000 0.000000 0.000000 0.000000 0.000000 0.040896
#
#
# Mechanical properties :
#
#
# Convention : Reuss Voigt Hill
#
# Bulk Modulus (GPa) = 51.26134 54.41213 52.83673
# Shear Modulus (GPa) = 18.75764 20.03566 19.39665
#
# Velocity S-wave (km/s) = 3.36562 3.47839 3.42247
# Velocity P-wave (km/s) = 6.78668 6.99934 6.89383
#
# Compressibility (1/GPa) = 0.01950788
#
# Stress axis : x y z
#
# Youngs Moduli (GPa) = 66.67097 66.67097 47.32220
#
# Poissons Ratio (x) = 0.36329 0.24517
# Poissons Ratio (y) = 0.36329 0.24517
# Poissons Ratio (z) = 0.34542 0.34542
#
# Static dielectric constant tensor:
#      x y z
#    x 2.973100 0.000000 0.000000 
#    y 0.000000 2.973100 0.000000 
#    z 0.000000 0.000000 3.332410 
# 
# 
# High freq. dielectric constant tensor:
#      x y z
#    x 1.612880 0.000000 0.000000 
#    y 0.000000 1.612880 0.000000 
#    z 0.000000 0.000000 1.643340 
# 
# From -- ./inp_files/2808.got.cif
#   From: 2010.03.12/outbox.cif.g09.slc.cpg/sg191_2_cif.got.tgz:2808.got - 2010.04.01 12:09:02.
