data_PCOD8328745
_publ_section_title
;
Structure prediction by ZEFSAII (Michael W. Deem and Ramdas Pophale) SiO2 
 PCOD8328745
Probable space group: P 6/M M M
;
_chemical_formula_sum "Si O2"
_cell_formula_units_Z 132
_cell_length_a 17.747438
_cell_length_b 17.747438
_cell_length_c 28.408525
_cell_angle_alpha 90.000000
_cell_angle_beta 90.000000
_cell_angle_gamma 120.000000
_cell_volume 7749.089061
_symmetry_space_group_name_H-M "P 6/M M M"
_symmetry_group_IT_number 191
_symmetry_cell_setting 'hexagonal'
loop_
_space_group_symop_operation_xyz
x,y,z
x-y,x,z
-y,x-y,z
-x,-y,z
-x+y,-x,z
y,-x+y,z
x-y,-y,-z
-x,-x+y,-z
y,x,-z
-y,-x,-z
-x+y,y,-z
x,x-y,-z
-x,-y,-z
-x+y,-x,-z
y,-x+y,-z
x,y,-z
x-y,x,-z
-y,x-y,-z
-x+y,y,z
x,x-y,z
-y,-x,z
y,x,z
x-y,-y,z
-x,-x+y,z
loop_
_atom_site_type_symbol
_atom_site_label
_atom_site_fract_x
_atom_site_fract_y
_atom_site_fract_z
Si Si1 0.898071 0.365589 0.728817
Si Si2 0.631964 0.733419 0.639021
Si Si3 0.156887 0.491917 0.101922
Si Si4 0.901396 0.634553 0.185000
Si Si5 0.334440 0.497981 0.000000
Si Si6 0.102873 0.468005 0.447943
O O1 0.854600 0.427300 0.728896
O O2 0.875678 0.313044 0.680369
O O3 0.864486 0.300052 0.772776
O O4 0.000000 0.426237 0.734213
O O5 0.676353 0.838177 0.644898
O O6 0.707055 0.707055 0.639319
O O7 0.576978 0.709338 0.590879
O O8 0.256500 0.512999 0.100908
O O9 0.156115 0.578058 0.118846
O O10 0.099303 0.414238 0.137341
O O11 0.112120 0.462080 0.049601
O O12 0.837419 0.674837 0.180860
O O13 0.000000 0.712505 0.194234
O O14 0.397507 0.602494 0.000000
O O15 0.235655 0.471309 0.000000
O O16 0.133827 0.456919 0.500000
O O17 0.141291 0.570646 0.437022
O O18 0.000000 0.422533 0.446369
#
# Coordination Sequence:
#
# PCOD8328745 Si02
#       6
#    24  24  24  24  12  24
#     4   9  17  30  49  71  92 114 141 173 212 262
#     4  10  19  30  46  68  93 122 158 199 238 274
#     4   9  16  26  42  65  93 124 155 185 217 257
#     4  10  20  33  49  68  90 118 152 190 230 270
#     4   8  13  22  37  59  88 121 154 184 215 254
#     4   8  14  26  45  67  88 111 142 181 226 277
#
# _framework density 17.03426
#
# number of rings (size 3 to 8) (size 9 to 14) (size 15 to 20)
#    0.000    2.909    0.000    2.455    0.000    5.091 
#    0.000    0.455    0.000    9.636    0.000    0.000 
#    0.000    4.364    0.000    4.545    0.000   10.727 
#
# Total GULP energy -1635334.784110 kJ/mol
# GULP energy per Si atom -12388.899880 kJ/mol
# Density = 1.699549 g / cm^3
# Si number density = 17.034260 Si / 1000 Ang^3
#
#
#
# Elastic Constant Matrix: (Units=GPa)
#
#
# Indices 1 2 3 4 5 6 
#
# 1 72.1649 40.9986 30.1906 0.0000 0.0000 0.0000
# 2 40.9986 72.1649 30.1906 0.0000 0.0000 0.0000
# 3 30.1906 30.1906 115.3102 0.0000 0.0000 0.0000
# 4 0.0000 0.0000 0.0000 14.1992 0.0000 0.0000
# 5 0.0000 0.0000 0.0000 0.0000 14.1992 0.0000
# 6 0.0000 0.0000 0.0000 0.0000 0.0000 15.5832
#
#
#
# Elastic Compliance Matrix: (Units=1/GPa)
#
#
# Indices 1 2 3 4 5 6 
#
# 1 0.021179 -0.010907 -0.002689 0.000000 0.000000 0.000000
# 2 -0.010907 0.021179 -0.002689 0.000000 0.000000 0.000000
# 3 -0.002689 -0.002689 0.010081 0.000000 0.000000 0.000000
# 4 0.000000 0.000000 0.000000 0.070427 0.000000 0.000000
# 5 0.000000 0.000000 0.000000 0.000000 0.070427 0.000000
# 6 0.000000 0.000000 0.000000 0.000000 0.000000 0.064172
#
#
# Mechanical properties :
#
#
# Convention : Reuss Voigt Hill
#
# Bulk Modulus (GPa) = 50.33580 51.37775 50.85678
# Shear Modulus (GPa) = 16.85446 19.34697 18.10072
#
# Velocity S-wave (km/s) = 3.14896 3.37377 3.26330
# Velocity P-wave (km/s) = 6.54486 6.73820 6.64223
#
# Compressibility (1/GPa) = 0.01986657
#
# Stress axis : x y z
#
# Youngs Moduli (GPa) = 47.21694 47.21694 99.20123
#
# Poissons Ratio (x) = 0.51500 0.26679
# Poissons Ratio (y) = 0.51500 0.26679
# Poissons Ratio (z) = 0.12698 0.12698
#
# Static dielectric constant tensor:
#      x y z
#    x 2.899030 0.000000 0.000000 
#    y 0.000000 2.899030 0.000000 
#    z 0.000000 0.000000 3.652220 
# 
# 
# High freq. dielectric constant tensor:
#      x y z
#    x 1.621830 0.000000 0.000000 
#    y 0.000000 1.621830 0.000000 
#    z 0.000000 0.000000 1.683180 
# 
# From -- ./inp_files/9764.got.cif
#   From: 2010.03.12/outbox.cif.g09.slc.cpg/sg191_5_cif.got.tgz:9764.got - 2010.04.01 12:09:02.
