data_PCOD8328351
_publ_section_title
;
Structure prediction by ZEFSAII (Michael W. Deem and Ramdas Pophale) SiO2 
 PCOD8328351
Probable space group: P 6/M M M
;
_chemical_formula_sum "Si O2"
_cell_formula_units_Z 120
_cell_length_a 26.897603
_cell_length_b 26.897603
_cell_length_c 12.713117
_cell_angle_alpha 90.000000
_cell_angle_beta 90.000000
_cell_angle_gamma 120.000000
_cell_volume 7965.441163
_symmetry_space_group_name_H-M "P 6/M M M"
_symmetry_group_IT_number 191
_symmetry_cell_setting 'hexagonal'
loop_
_space_group_symop_operation_xyz
x,y,z
x-y,x,z
-y,x-y,z
-x,-y,z
-x+y,-x,z
y,-x+y,z
x-y,-y,-z
-x,-x+y,-z
y,x,-z
-y,-x,-z
-x+y,y,-z
x,x-y,-z
-x,-y,-z
-x+y,-x,-z
y,-x+y,-z
x,y,-z
x-y,x,-z
-y,x-y,-z
-x+y,y,z
x,x-y,z
-y,-x,z
y,x,z
x-y,-y,z
-x,-x+y,z
loop_
_atom_site_type_symbol
_atom_site_label
_atom_site_fract_x
_atom_site_fract_y
_atom_site_fract_z
Si Si1 0.935834 0.175024 0.620178
Si Si2 0.285876 0.833251 0.776218
Si Si3 0.218223 0.326577 0.000000
Si Si4 0.934899 0.262270 0.222343
Si Si5 0.285195 0.822645 0.000000
Si Si6 0.447186 0.666402 0.378295
O O1 0.931130 0.191537 0.500000
O O2 0.892247 0.107754 0.641034
O O3 0.918852 0.212069 0.694272
O O4 0.000000 0.187689 0.645304
O O5 0.220424 0.779577 0.781704
O O6 0.285817 0.891739 0.754189
O O7 0.322746 0.825676 0.685884
O O8 0.319012 0.839801 0.888576
O O9 0.237599 0.307412 0.104799
O O10 0.149151 0.298302 0.000000
O O11 0.246346 0.394346 0.000000
O O12 0.000000 0.313885 0.239010
O O13 0.246126 0.753875 0.000000
O O14 0.461512 0.665142 0.500000
O O15 0.431873 0.715937 0.355176
O O16 0.393259 0.606742 0.342020
#
# Coordination Sequence:
#
# PCOD8328351 Si02
#       6
#    24  24  12  24  12  24
#     4   9  17  28  41  57  79 107 136 168 208 251
#     4   9  16  27  43  61  82 111 143 172 205 248
#     4   9  15  25  41  60  85 114 142 174 210 247
#     4  10  18  27  41  63  89 115 143 174 209 249
#     4   7  12  23  38  56  79 106 134 163 195 232
#     4   9  17  29  46  67  88 108 132 168 215 263
#
# _framework density 15.065079000000001
#
# number of rings (size 3 to 8) (size 9 to 14) (size 15 to 20)
#    0.000    3.000    0.000    3.500    0.000    1.600 
#    0.000    2.500    0.000    0.800    0.000    4.200 
#    0.000    4.800    0.000    0.000    0.000   20.800 
#
# Total GULP energy -1486963.909003 kJ/mol
# GULP energy per Si atom -12391.365908 kJ/mol
# Density = 1.503079 g / cm^3
# Si number density = 15.065079 Si / 1000 Ang^3
#
#
#
# Elastic Constant Matrix: (Units=GPa)
#
#
# Indices 1 2 3 4 5 6 
#
# 1 84.1239 45.0445 49.4721 0.0000 0.0000 0.0000
# 2 45.0445 84.1239 49.4721 0.0000 0.0000 0.0000
# 3 49.4721 49.4721 93.3652 0.0000 0.0000 0.0000
# 4 0.0000 0.0000 0.0000 20.0619 0.0000 0.0000
# 5 0.0000 0.0000 0.0000 0.0000 20.0619 0.0000
# 6 0.0000 0.0000 0.0000 0.0000 0.0000 19.5397
#
#
#
# Elastic Compliance Matrix: (Units=1/GPa)
#
#
# Indices 1 2 3 4 5 6 
#
# 1 0.019310 -0.006279 -0.006905 0.000000 0.000000 0.000000
# 2 -0.006279 0.019310 -0.006905 0.000000 0.000000 0.000000
# 3 -0.006905 -0.006905 0.018028 0.000000 0.000000 0.000000
# 4 0.000000 0.000000 0.000000 0.049846 0.000000 0.000000
# 5 0.000000 0.000000 0.000000 0.000000 0.049846 0.000000
# 6 0.000000 0.000000 0.000000 0.000000 0.000000 0.051178
#
#
# Mechanical properties :
#
#
# Convention : Reuss Voigt Hill
#
# Bulk Modulus (GPa) = 60.71376 61.06558 60.88967
# Shear Modulus (GPa) = 19.74844 19.77433 19.76139
#
# Velocity S-wave (km/s) = 3.62453 3.62690 3.62572
# Velocity P-wave (km/s) = 7.60952 7.62639 7.61796
#
# Compressibility (1/GPa) = 0.01647073
#
# Stress axis : x y z
#
# Youngs Moduli (GPa) = 51.78682 51.78682 55.46918
#
# Poissons Ratio (x) = 0.32517 0.38300
# Poissons Ratio (y) = 0.32517 0.38300
# Poissons Ratio (z) = 0.35758 0.35758
#
# Static dielectric constant tensor:
#      x y z
#    x 2.706560 0.000000 0.000000 
#    y 0.000000 2.706560 0.000000 
#    z 0.000000 0.000000 3.278080 
# 
# 
# High freq. dielectric constant tensor:
#      x y z
#    x 1.550270 0.000000 0.000000 
#    y 0.000000 1.550270 0.000000 
#    z 0.000000 0.000000 1.596360 
# 
# From -- ./inp_files/3213.got.cif
#   From: 2010.03.12/outbox.cif.g09.slc.cpg/sg191_2_cif.got.tgz:3213.got - 2010.04.01 12:09:02.
