data_PCOD8328865
_publ_section_title
;
Structure prediction by ZEFSAII (Michael W. Deem and Ramdas Pophale) SiO2 
 PCOD8328865
Probable space group: P 6/M M M
;
_chemical_formula_sum "Si O2"
_cell_formula_units_Z 168
_cell_length_a 21.905840
_cell_length_b 21.905840
_cell_length_c 25.539617
_cell_angle_alpha 90.000000
_cell_angle_beta 90.000000
_cell_angle_gamma 120.000000
_cell_volume 10613.651768
_symmetry_space_group_name_H-M "P 6/M M M"
_symmetry_group_IT_number 191
_symmetry_cell_setting 'hexagonal'
loop_
_space_group_symop_operation_xyz
x,y,z
x-y,x,z
-y,x-y,z
-x,-y,z
-x+y,-x,z
y,-x+y,z
x-y,-y,-z
-x,-x+y,-z
y,x,-z
-y,-x,-z
-x+y,y,-z
x,x-y,-z
-x,-y,-z
-x+y,-x,-z
y,-x+y,-z
x,y,-z
x-y,x,-z
-y,x-y,-z
-x+y,y,z
x,x-y,z
-y,-x,z
y,x,z
x-y,-y,z
-x,-x+y,z
loop_
_atom_site_type_symbol
_atom_site_label
_atom_site_fract_x
_atom_site_fract_y
_atom_site_fract_z
Si Si1 0.532945 0.611034 0.358713
Si Si2 0.081616 0.427583 0.755061
Si Si3 0.809745 0.335077 0.159012
Si Si4 0.077709 0.290287 0.216374
Si Si5 0.524658 0.191558 0.559765
Si Si6 0.785149 0.078179 0.093842
Si Si7 0.294419 0.850089 0.057266
O O1 0.462783 0.537218 0.363918
O O2 0.600083 0.600083 0.367772
O O3 0.536295 0.642363 0.301375
O O4 0.532739 0.663191 0.402935
O O5 0.131764 0.483911 0.797295
O O6 0.091694 0.360017 0.753628
O O7 0.000000 0.404315 0.767111
O O8 0.784221 0.392111 0.162081
O O9 0.742604 0.257397 0.167510
O O10 0.847249 0.343639 0.102660
O O11 0.134046 0.268091 0.235190
O O12 0.086094 0.308853 0.155309
O O13 0.000000 0.225332 0.229045
O O14 0.501604 0.168209 0.500000
O O15 0.602673 0.205346 0.570388
O O16 0.525528 0.262764 0.573776
O O17 0.864064 0.135937 0.074915
O O18 0.725052 0.088988 0.066900
O O19 0.770461 0.000000 0.079425
O O20 0.222944 0.777057 0.057811
O O21 0.331367 0.862750 0.000000
#
# Coordination Sequence:
#
# PCOD8328865 Si02
#       7
#    24  24  24  24  24  24  24
#     4   9  18  31  45  64  89 116 149 187 226 268
#     4  10  19  32  50  69  90 117 150 189 230 268
#     4  11  22  35  50  68  92 120 150 183 224 277
#     4   9  16  27  45  67  89 114 145 179 216 259
#     4   9  17  29  45  65  89 118 151 186 224 265
#     4   9  16  28  46  68  91 115 145 180 220 264
#     4   9  18  32  48  65  85 110 143 183 221 258
#
# _framework density 15.828671
#
# number of rings (size 3 to 8) (size 9 to 14) (size 15 to 20)
#    0.000    2.571    1.429    1.143    0.000    3.429 
#    0.000    1.429    0.000    2.857    0.000    4.000 
#    0.000    0.000    0.000    3.571    0.000    3.714 
#
# Total GULP energy -2082613.171946 kJ/mol
# GULP energy per Si atom -12396.506976 kJ/mol
# Density = 1.579264 g / cm^3
# Si number density = 15.828671 Si / 1000 Ang^3
#
#
#
# Elastic Constant Matrix: (Units=GPa)
#
#
# Indices 1 2 3 4 5 6 
#
# 1 71.4356 31.5875 42.7933 0.0000 0.0000 0.0000
# 2 31.5875 71.4356 42.7933 0.0000 0.0000 0.0000
# 3 42.7933 42.7933 96.0343 0.0000 0.0000 0.0000
# 4 0.0000 0.0000 0.0000 19.1602 0.0000 0.0000
# 5 0.0000 0.0000 0.0000 0.0000 19.1602 0.0000
# 6 0.0000 0.0000 0.0000 0.0000 0.0000 19.9241
#
#
#
# Elastic Compliance Matrix: (Units=1/GPa)
#
#
# Indices 1 2 3 4 5 6 
#
# 1 0.020254 -0.004842 -0.006868 0.000000 0.000000 0.000000
# 2 -0.004842 0.020254 -0.006868 0.000000 0.000000 0.000000
# 3 -0.006868 -0.006868 0.016533 0.000000 0.000000 0.000000
# 4 0.000000 0.000000 0.000000 0.052192 0.000000 0.000000
# 5 0.000000 0.000000 0.000000 0.000000 0.052192 0.000000
# 6 0.000000 0.000000 0.000000 0.000000 0.000000 0.050191
#
#
# Mechanical properties :
#
#
# Convention : Reuss Voigt Hill
#
# Bulk Modulus (GPa) = 50.28481 52.58376 51.43429
# Shear Modulus (GPa) = 19.57737 19.76431 19.67084
#
# Velocity S-wave (km/s) = 3.52067 3.53744 3.52907
# Velocity P-wave (km/s) = 6.95442 7.06947 7.01218
#
# Compressibility (1/GPa) = 0.01988672
#
# Stress axis : x y z
#
# Youngs Moduli (GPa) = 49.37408 49.37408 60.48362
#
# Poissons Ratio (x) = 0.23906 0.41538
# Poissons Ratio (y) = 0.23906 0.41538
# Poissons Ratio (z) = 0.33908 0.33908
#
# Static dielectric constant tensor:
#      x y z
#    x 3.020990 0.000000 0.000000 
#    y 0.000000 3.020990 0.000000 
#    z 0.000000 0.000000 3.062630 
# 
# 
# High freq. dielectric constant tensor:
#      x y z
#    x 1.594110 0.000000 0.000000 
#    y 0.000000 1.594110 0.000000 
#    z 0.000000 0.000000 1.599880 
# 
# From -- ./inp_files/10054.got.cif
#   From: 2010.03.12/outbox.cif.g09.slc.cpg/sg191_6_cif.got.tgz:10054.got - 2010.04.01 12:09:02.
