data_PCOD8328453
_publ_section_title
;
Structure prediction by ZEFSAII (Michael W. Deem and Ramdas Pophale) SiO2 
 PCOD8328453
Probable space group: P 6/M M M
;
_chemical_formula_sum "Si O2"
_cell_formula_units_Z 132
_cell_length_a 18.522883
_cell_length_b 18.522883
_cell_length_c 29.685786
_cell_angle_alpha 90.000000
_cell_angle_beta 90.000000
_cell_angle_gamma 120.000000
_cell_volume 8820.563911
_symmetry_space_group_name_H-M "P 6/M M M"
_symmetry_group_IT_number 191
_symmetry_cell_setting 'hexagonal'
loop_
_space_group_symop_operation_xyz
x,y,z
x-y,x,z
-y,x-y,z
-x,-y,z
-x+y,-x,z
y,-x+y,z
x-y,-y,-z
-x,-x+y,-z
y,x,-z
-y,-x,-z
-x+y,y,-z
x,x-y,-z
-x,-y,-z
-x+y,-x,-z
y,-x+y,-z
x,y,-z
x-y,x,-z
-y,x-y,-z
-x+y,y,z
x,x-y,z
-y,-x,z
y,x,z
x-y,-y,z
-x,-x+y,z
loop_
_atom_site_type_symbol
_atom_site_label
_atom_site_fract_x
_atom_site_fract_y
_atom_site_fract_z
Si Si1 0.744659 0.092981 0.051882
Si Si2 0.502296 0.668631 0.601891
Si Si3 0.368675 0.460236 0.305226
Si Si4 0.667939 0.165741 0.884246
Si Si5 0.585629 0.585629 0.551001
Si Si6 0.168816 0.500346 0.215514
O O1 0.840089 0.159912 0.065353
O O2 0.679388 0.106710 0.080767
O O3 0.728554 0.000000 0.061044
O O4 0.727768 0.103923 0.000000
O O5 0.503740 0.751870 0.584256
O O6 0.409778 0.590223 0.594786
O O7 0.528394 0.682508 0.654454
O O8 0.570852 0.655336 0.575110
O O9 0.456256 0.543745 0.300891
O O10 0.383878 0.383878 0.316719
O O11 0.319544 0.439404 0.257375
O O12 0.578481 0.156962 0.892313
O O13 0.738118 0.261883 0.891823
O O14 0.675943 0.135630 0.833780
O O15 0.500000 0.500000 0.553243
O O16 0.614549 0.614549 0.500000
O O17 0.265666 0.531332 0.220083
O O18 0.158155 0.579078 0.219950
#
# Coordination Sequence:
#
# PCOD8328453 Si02
#       6
#    24  24  24  24  12  24
#     4   9  18  32  48  64  82 105 134 170 214 262
#     4  10  18  29  45  64  85 112 148 184 214 250
#     4   9  16  26  38  54  79 110 141 174 215 257
#     4   9  17  28  41  59  85 117 150 181 212 244
#     4   9  18  32  46  60  84 114 139 173 222 260
#     4   9  16  25  38  56  79 107 141 180 216 246
#
# _framework density 14.965028999999999
#
# number of rings (size 3 to 8) (size 9 to 14) (size 15 to 20)
#    0.000    2.818    0.909    1.091    0.000    3.273 
#    0.000    4.545    0.000    2.364    0.000    1.273 
#    0.000    0.000    0.000    0.273    0.000    1.182 
#
# Total GULP energy -1635680.820174 kJ/mol
# GULP energy per Si atom -12391.521365 kJ/mol
# Density = 1.493097 g / cm^3
# Si number density = 14.965029 Si / 1000 Ang^3
#
#
#
# Elastic Constant Matrix: (Units=GPa)
#
#
# Indices 1 2 3 4 5 6 
#
# 1 65.8307 36.4486 39.3671 0.0000 0.0000 0.0000
# 2 36.4486 65.8307 39.3671 0.0000 0.0000 0.0000
# 3 39.3671 39.3671 90.0953 0.0000 0.0000 0.0000
# 4 0.0000 0.0000 0.0000 18.0801 0.0000 0.0000
# 5 0.0000 0.0000 0.0000 0.0000 18.0801 0.0000
# 6 0.0000 0.0000 0.0000 0.0000 0.0000 14.6911
#
#
#
# Elastic Compliance Matrix: (Units=1/GPa)
#
#
# Indices 1 2 3 4 5 6 
#
# 1 0.024383 -0.009651 -0.006437 0.000000 0.000000 0.000000
# 2 -0.009651 0.024383 -0.006437 0.000000 0.000000 0.000000
# 3 -0.006437 -0.006437 0.016725 0.000000 0.000000 0.000000
# 4 0.000000 0.000000 0.000000 0.055309 0.000000 0.000000
# 5 0.000000 0.000000 0.000000 0.000000 0.055309 0.000000
# 6 0.000000 0.000000 0.000000 0.000000 0.000000 0.068069
#
#
# Mechanical properties :
#
#
# Convention : Reuss Voigt Hill
#
# Bulk Modulus (GPa) = 48.92219 50.23582 49.57900
# Shear Modulus (GPa) = 16.88938 17.27519 17.08228
#
# Velocity S-wave (km/s) = 3.36309 3.40129 3.38225
# Velocity P-wave (km/s) = 6.91683 7.00476 6.96093
#
# Compressibility (1/GPa) = 0.02044062
#
# Stress axis : x y z
#
# Youngs Moduli (GPa) = 41.01141 41.01141 59.79069
#
# Poissons Ratio (x) = 0.39579 0.38490
# Poissons Ratio (y) = 0.39579 0.38490
# Poissons Ratio (z) = 0.26401 0.26401
#
# Static dielectric constant tensor:
#      x y z
#    x 2.736650 0.000000 0.000000 
#    y 0.000000 2.736650 0.000000 
#    z 0.000000 0.000000 3.243330 
# 
# 
# High freq. dielectric constant tensor:
#      x y z
#    x 1.540980 0.000000 0.000000 
#    y 0.000000 1.540980 0.000000 
#    z 0.000000 0.000000 1.588860 
# 
# From -- ./inp_files/10425.got.cif
#   From: 2010.03.12/outbox.cif.g09.slc.cpg/sg191_6_cif.got.tgz:10425.got - 2010.04.01 12:09:02.
