data_PCOD8328065
_publ_section_title
;
Structure prediction by ZEFSAII (Michael W. Deem and Ramdas Pophale) SiO2 
 PCOD8328065
Probable space group: P -6 2 C
;
_chemical_formula_sum "Si O2"
_cell_formula_units_Z 60
_cell_length_a 19.759097
_cell_length_b 19.759097
_cell_length_c 9.961750
_cell_angle_alpha 90.000000
_cell_angle_beta 90.000000
_cell_angle_gamma 120.000000
_cell_volume 3368.220049
_symmetry_space_group_name_H-M "P -6 2 C"
_symmetry_group_IT_number 190
_symmetry_cell_setting 'hexagonal'
loop_
_space_group_symop_operation_xyz
x,y,z
-x+y,-x,1/2-z
-y,x-y,z
x,y,1/2-z
-x+y,-x,z
-y,x-y,1/2-z
x-y,-y,-z
-x,-x+y,-z
y,x,-z
y,x,1/2+z
x-y,-y,1/2+z
-x,-x+y,1/2+z
loop_
_atom_site_type_symbol
_atom_site_label
_atom_site_fract_x
_atom_site_fract_y
_atom_site_fract_z
Si Si1 0.156404 0.219064 0.102887
Si Si2 0.276969 0.565531 0.750000
Si Si3 0.237732 0.773043 0.485612
Si Si4 0.312015 0.739812 0.250000
Si Si5 0.381958 0.315804 0.598945
Si Si6 0.237410 0.926381 0.409975
O O1 0.144909 0.181364 0.250000
O O2 0.237074 0.299679 0.097160
O O3 0.087261 0.237404 0.071934
O O4 0.156331 0.156331 0.000000
O O5 0.245081 0.627600 0.750000
O O6 0.243820 0.507030 0.626651
O O7 0.301464 0.779262 0.380744
O O8 0.151172 0.702869 0.450363
O O9 0.241217 0.855421 0.479677
O O10 0.398951 0.752118 0.250000
O O11 0.401392 0.350224 0.750000
O O12 0.379282 0.379282 0.500000
O O13 0.259260 0.935029 0.250000
O O14 0.295476 0.000000 0.500000
#
# Coordination Sequence:
#
# PCOD8328065 Si02
#       6
#    12   6  12   6  12  12
#     4   8  15  29  47  74 108 140 181 227 263 305
#     4  10  24  40  58  88 107 134 187 254 290 342
#     4  11  19  38  58  83 115 144 185 241 288 337
#     4  10  20  34  64  86  93 134 195 242 280 344
#     4   9  17  29  50  80 110 141 172 209 264 327
#     4  10  21  35  55  86 119 156 198 235 284 355
#
# _framework density 17.813564
#
# number of rings (size 3 to 8) (size 9 to 14) (size 15 to 20)
#    0.400    2.000    2.000    2.400    2.800    0.800 
#    3.600    0.000    0.000    7.600    0.000    0.000 
#    0.000    0.000    0.000    0.000    0.000    0.000 
#
# Total GULP energy -743516.923463 kJ/mol
# GULP energy per Si atom -12391.948724 kJ/mol
# Density = 1.777302 g / cm^3
# Si number density = 17.813564 Si / 1000 Ang^3
#
#
#
# Elastic Constant Matrix: (Units=GPa)
#
#
# Indices 1 2 3 4 5 6 
#
# 1 66.5393 22.3341 51.6833 0.0000 0.0000 0.0000
# 2 22.3341 66.5393 51.6833 0.0000 0.0000 0.0000
# 3 51.6833 51.6833 168.6813 0.0000 0.0000 0.0000
# 4 0.0000 0.0000 0.0000 33.4767 0.0000 0.0000
# 5 0.0000 0.0000 0.0000 0.0000 33.4767 0.0000
# 6 0.0000 0.0000 0.0000 0.0000 0.0000 22.1026
#
#
#
# Elastic Compliance Matrix: (Units=1/GPa)
#
#
# Indices 1 2 3 4 5 6 
#
# 1 0.020052 -0.002570 -0.005356 0.000000 0.000000 0.000000
# 2 -0.002570 0.020052 -0.005356 0.000000 0.000000 0.000000
# 3 -0.005356 -0.005356 0.009211 0.000000 0.000000 0.000000
# 4 0.000000 0.000000 0.000000 0.029872 0.000000 0.000000
# 5 0.000000 0.000000 0.000000 0.000000 0.029872 0.000000
# 6 0.000000 0.000000 0.000000 0.000000 0.000000 0.045244
#
#
# Mechanical properties :
#
#
# Convention : Reuss Voigt Hill
#
# Bulk Modulus (GPa) = 43.95820 61.46234 52.71027
# Shear Modulus (GPa) = 26.53233 29.54847 28.04040
#
# Velocity S-wave (km/s) = 3.86352 4.07721 3.97180
# Velocity P-wave (km/s) = 6.68078 7.53279 7.11954
#
# Compressibility (1/GPa) = 0.02274888
#
# Stress axis : x y z
#
# Youngs Moduli (GPa) = 49.87083 49.87083 108.56970
#
# Poissons Ratio (x) = 0.12817 0.58154
# Poissons Ratio (y) = 0.12817 0.58154
# Poissons Ratio (z) = 0.26713 0.26713
#
# Static dielectric constant tensor:
#      x y z
#    x 3.139490 0.000000 0.000000 
#    y 0.000000 3.139490 0.000000 
#    z 0.000000 0.000000 3.306840 
# 
# 
# High freq. dielectric constant tensor:
#      x y z
#    x 1.665420 0.000000 0.000000 
#    y 0.000000 1.665420 0.000000 
#    z 0.000000 0.000000 1.704050 
# 
# From -- ./inp_files/987.got.cif
#   From: 2010.06.25/outbox.cif.g09.slc.cpg/sg190_1_cif.got.tgz:987.got - 2010.06.28 13:08:06.
