data_PCOD8328199
_publ_section_title
;
Structure prediction by ZEFSAII (Michael W. Deem and Ramdas Pophale) SiO2 
 PCOD8328199
Probable space group: P -6 2 C
;
_chemical_formula_sum "Si O2"
_cell_formula_units_Z 40
_cell_length_a 11.264503
_cell_length_b 11.264503
_cell_length_c 18.029964
_cell_angle_alpha 90.000000
_cell_angle_beta 90.000000
_cell_angle_gamma 120.000000
_cell_volume 1981.296906
_symmetry_space_group_name_H-M "P -6 2 C"
_symmetry_group_IT_number 190
_symmetry_cell_setting 'hexagonal'
loop_
_space_group_symop_operation_xyz
x,y,z
-x+y,-x,1/2-z
-y,x-y,z
x,y,1/2-z
-x+y,-x,z
-y,x-y,1/2-z
x-y,-y,-z
-x,-x+y,-z
y,x,-z
y,x,1/2+z
x-y,-y,1/2+z
-x,-x+y,1/2+z
loop_
_atom_site_type_symbol
_atom_site_label
_atom_site_fract_x
_atom_site_fract_y
_atom_site_fract_z
Si Si1 0.711065 0.858627 0.336740
Si Si2 0.662352 0.055753 0.081172
Si Si3 0.000000 0.000000 0.587788
Si Si4 0.332388 0.942091 0.919101
O O1 0.740327 0.872662 0.250000
O O2 0.637011 0.699260 0.360020
O O3 0.625250 0.932916 0.359877
O O4 0.848445 0.941207 0.383233
O O5 0.547844 0.099627 0.088690
O O6 0.809237 0.187149 0.098391
O O7 0.663449 0.000000 0.000000
O O8 0.000000 0.000000 0.500000
O O9 0.331335 0.000000 0.000000
#
# Coordination Sequence:
#
# PCOD8328199 Si02
#       4
#    12  12   4  12
#     4  12  24  40  64  96 128 164 208 267 328 382
#     4  11  23  41  66  94 128 170 217 265 316 382
#     4  12  22  38  70  96 124 155 211 273 322 377
#     4  11  23  41  66  94 128 170 217 265 316 382
#
# _framework density 20.188794999999999
#
# number of rings (size 3 to 8) (size 9 to 14) (size 15 to 20)
#    0.000    0.600    6.000    3.300    0.000    1.200 
#    1.800    0.000    0.000    3.600    0.000    0.000 
#    0.000    0.000    0.000    0.000    0.000    0.000 
#
# Total GULP energy -496127.096920 kJ/mol
# GULP energy per Si atom -12403.177423 kJ/mol
# Density = 2.014284 g / cm^3
# Si number density = 20.188795 Si / 1000 Ang^3
#
#
#
# Elastic Constant Matrix: (Units=GPa)
#
#
# Indices 1 2 3 4 5 6 
#
# 1 92.6770 38.4269 35.3869 0.0000 0.0000 0.0000
# 2 38.4269 92.6770 35.3869 0.0000 0.0000 0.0000
# 3 35.3869 35.3869 156.2949 0.0000 0.0000 0.0000
# 4 0.0000 0.0000 0.0000 16.9013 0.0000 0.0000
# 5 0.0000 0.0000 0.0000 0.0000 16.9013 0.0000
# 6 0.0000 0.0000 0.0000 0.0000 0.0000 27.1251
#
#
#
# Elastic Compliance Matrix: (Units=1/GPa)
#
#
# Indices 1 2 3 4 5 6 
#
# 1 0.013561 -0.004872 -0.001967 0.000000 0.000000 0.000000
# 2 -0.004872 0.013561 -0.001967 0.000000 0.000000 0.000000
# 3 -0.001967 -0.001967 0.007289 0.000000 0.000000 0.000000
# 4 0.000000 0.000000 0.000000 0.059167 0.000000 0.000000
# 5 0.000000 0.000000 0.000000 0.000000 0.059167 0.000000
# 6 0.000000 0.000000 0.000000 0.000000 0.000000 0.036866
#
#
# Mechanical properties :
#
#
# Convention : Reuss Voigt Hill
#
# Bulk Modulus (GPa) = 59.52883 62.22782 60.87832
# Shear Modulus (GPa) = 23.49353 27.68210 25.58782
#
# Velocity S-wave (km/s) = 3.41499 3.70694 3.56396
# Velocity P-wave (km/s) = 6.71563 7.01511 6.86700
#
# Compressibility (1/GPa) = 0.01679858
#
# Stress axis : x y z
#
# Youngs Moduli (GPa) = 73.73884 73.73884 137.19200
#
# Poissons Ratio (x) = 0.35924 0.26992
# Poissons Ratio (y) = 0.35924 0.26992
# Poissons Ratio (z) = 0.14508 0.14508
#
# Static dielectric constant tensor:
#      x y z
#    x 3.879660 0.000000 0.000000 
#    y 0.000000 3.879660 0.000000 
#    z 0.000000 0.000000 3.550510 
# 
# 
# High freq. dielectric constant tensor:
#      x y z
#    x 1.795440 0.000000 0.000000 
#    y 0.000000 1.795440 0.000000 
#    z 0.000000 0.000000 1.779050 
# 
# From -- ./inp_files/3400.got.cif
#   From: 2010.06.25/outbox.cif.g09.slc.cpg/sg190_2_cif.got.tgz:3400.got - 2010.06.28 13:08:06.
