data_PCOD8328206
_publ_section_title
;
Structure prediction by ZEFSAII (Michael W. Deem and Ramdas Pophale) SiO2 
 PCOD8328206
Probable space group: P -6 2 C
;
_chemical_formula_sum "Si O2"
_cell_formula_units_Z 64
_cell_length_a 14.073720
_cell_length_b 14.073720
_cell_length_c 17.969346
_cell_angle_alpha 90.000000
_cell_angle_beta 90.000000
_cell_angle_gamma 120.000000
_cell_volume 3082.341230
_symmetry_space_group_name_H-M "P -6 2 C"
_symmetry_group_IT_number 190
_symmetry_cell_setting 'hexagonal'
loop_
_space_group_symop_operation_xyz
x,y,z
-x+y,-x,1/2-z
-y,x-y,z
x,y,1/2-z
-x+y,-x,z
-y,x-y,1/2-z
x-y,-y,-z
-x,-x+y,-z
y,x,-z
y,x,1/2+z
x-y,-y,1/2+z
-x,-x+y,1/2+z
loop_
_atom_site_type_symbol
_atom_site_label
_atom_site_fract_x
_atom_site_fract_y
_atom_site_fract_z
Si Si1 0.495212 0.577617 0.432119
Si Si2 0.892846 0.404894 0.164571
Si Si3 0.000000 0.000000 0.662328
Si Si4 0.582084 0.824970 0.054980
Si Si5 0.034861 0.803733 0.164444
Si Si6 0.840030 0.581961 0.113695
O O1 0.555864 0.555864 0.500000
O O2 0.555275 0.573833 0.356376
O O3 0.369566 0.486163 0.424560
O O4 0.504664 0.694904 0.438739
O O5 0.881680 0.428274 0.250000
O O6 0.855534 0.475842 0.114568
O O7 0.821660 0.277626 0.147599
O O8 0.995788 0.889083 0.634381
O O9 0.000000 0.000000 0.750000
O O10 0.683254 0.867706 0.111614
O O11 0.625321 0.853646 0.970597
O O12 0.076410 0.827340 0.250000
O O13 0.929524 0.682344 0.161896
#
# Coordination Sequence:
#
# PCOD8328206 Si02
#       6
#    12  12   4  12  12  12
#     4  12  24  44  66 100 140 180 222 272 341 417
#     4  12  25  42  69 103 136 176 229 285 345 406
#     4   9  24  45  64  92 130 174 223 284 346 396
#     4  12  24  43  70  98 138 183 220 276 346 413
#     4  11  24  44  68  96 134 180 228 282 341 402
#     4  12  23  43  68 101 139 176 223 286 345 404
#
# _framework density 20.763438000000001
#
# number of rings (size 3 to 8) (size 9 to 14) (size 15 to 20)
#    0.000    0.375    5.625    3.000    2.625    0.750 
#    0.000    2.812    0.000    2.250    0.000    0.000 
#    0.000    0.000    0.000    0.000    0.000    0.000 
#
# Total GULP energy -793907.328323 kJ/mol
# GULP energy per Si atom -12404.802005 kJ/mol
# Density = 2.071618 g / cm^3
# Si number density = 20.763438 Si / 1000 Ang^3
#
#
#
# Elastic Constant Matrix: (Units=GPa)
#
#
# Indices 1 2 3 4 5 6 
#
# 1 90.6491 20.9768 25.8965 0.0000 0.0000 0.0000
# 2 20.9768 90.6491 25.8965 0.0000 0.0000 0.0000
# 3 25.8965 25.8965 113.2401 0.0000 0.0000 0.0000
# 4 0.0000 0.0000 0.0000 28.1621 0.0000 0.0000
# 5 0.0000 0.0000 0.0000 0.0000 28.1621 0.0000
# 6 0.0000 0.0000 0.0000 0.0000 0.0000 34.8362
#
#
#
# Elastic Compliance Matrix: (Units=1/GPa)
#
#
# Indices 1 2 3 4 5 6 
#
# 1 0.012187 -0.002166 -0.002292 0.000000 0.000000 0.000000
# 2 -0.002166 0.012187 -0.002292 0.000000 0.000000 0.000000
# 3 -0.002292 -0.002292 0.009879 0.000000 0.000000 0.000000
# 4 0.000000 0.000000 0.000000 0.035509 0.000000 0.000000
# 5 0.000000 0.000000 0.000000 0.000000 0.035509 0.000000
# 6 0.000000 0.000000 0.000000 0.000000 0.000000 0.028706
#
#
# Mechanical properties :
#
#
# Convention : Reuss Voigt Hill
#
# Bulk Modulus (GPa) = 48.18042 48.89758 48.53900
# Shear Modulus (GPa) = 32.38470 33.01666 32.70068
#
# Velocity S-wave (km/s) = 3.95359 3.99197 3.97283
# Velocity P-wave (km/s) = 6.64048 6.69692 6.66876
#
# Compressibility (1/GPa) = 0.02075532
#
# Stress axis : x y z
#
# Youngs Moduli (GPa) = 82.05199 82.05199 101.22443
#
# Poissons Ratio (x) = 0.17768 0.23199
# Poissons Ratio (y) = 0.17768 0.23199
# Poissons Ratio (z) = 0.18805 0.18805
#
# Static dielectric constant tensor:
#      x y z
#    x 3.863090 0.000000 0.000000 
#    y 0.000000 3.863090 0.000000 
#    z 0.000000 0.000000 3.838340 
# 
# 
# High freq. dielectric constant tensor:
#      x y z
#    x 1.819080 0.000000 0.000000 
#    y 0.000000 1.819080 0.000000 
#    z 0.000000 0.000000 1.813830 
# 
# From -- ./inp_files/3650.got.cif
#   From: 2010.06.25/outbox.cif.g09.slc.cpg/sg190_2_cif.got.tgz:3650.got - 2010.06.28 13:08:06.
