data_PCOD8328155
_publ_section_title
;
Structure prediction by ZEFSAII (Michael W. Deem and Ramdas Pophale) SiO2 
 PCOD8328155
Probable space group: P -6 2 C
;
_chemical_formula_sum "Si O2"
_cell_formula_units_Z 48
_cell_length_a 17.858099
_cell_length_b 17.858099
_cell_length_c 8.888558
_cell_angle_alpha 90.000000
_cell_angle_beta 90.000000
_cell_angle_gamma 120.000000
_cell_volume 2454.892024
_symmetry_space_group_name_H-M "P -6 2 C"
_symmetry_group_IT_number 190
_symmetry_cell_setting 'hexagonal'
loop_
_space_group_symop_operation_xyz
x,y,z
-x+y,-x,1/2-z
-y,x-y,z
x,y,1/2-z
-x+y,-x,z
-y,x-y,1/2-z
x-y,-y,-z
-x,-x+y,-z
y,x,-z
y,x,1/2+z
x-y,-y,1/2+z
-x,-x+y,1/2+z
loop_
_atom_site_type_symbol
_atom_site_label
_atom_site_fract_x
_atom_site_fract_y
_atom_site_fract_z
Si Si1 0.787518 0.000000 0.500000
Si Si2 0.089575 0.434099 0.424721
Si Si3 0.505065 0.411057 0.430369
Si Si4 0.088165 0.103006 0.250000
Si Si5 0.761954 0.151520 0.574347
O O1 0.832929 0.972580 0.379239
O O2 0.692755 0.917164 0.523351
O O3 0.074497 0.447550 0.250000
O O4 0.127609 0.525170 0.512410
O O5 0.153866 0.397627 0.442806
O O6 0.000000 0.364206 0.500000
O O7 0.500916 0.408608 0.250000
O O8 0.442613 0.442613 0.500000
O O9 0.474328 0.316806 0.499040
O O10 0.090849 0.013057 0.250000
O O11 0.742901 0.123227 0.750000
#
# Coordination Sequence:
#
# PCOD8328155 Si02
#       5
#     6  12  12   6  12
#     4  12  22  42  64  98 126 172 228 270 316 388
#     4  10  22  42  64  92 126 164 206 258 323 380
#     4  11  22  39  66  91 124 161 202 255 315 379
#     4  10  24  42  62  86 132 180 218 270 332 376
#     4  11  24  41  64  97 128 167 216 264 318 383
#
# _framework density 19.552795
#
# number of rings (size 3 to 8) (size 9 to 14) (size 15 to 20)
#    0.250    1.000    2.500    5.250    1.750    4.000 
#    1.500    0.000    0.000    0.000    0.000    0.000 
#    0.000    0.000    0.000    0.000    0.000    0.000 
#
# Total GULP energy -594809.629849 kJ/mol
# GULP energy per Si atom -12391.867289 kJ/mol
# Density = 1.950829 g / cm^3
# Si number density = 19.552795 Si / 1000 Ang^3
#
#
#
# Elastic Constant Matrix: (Units=GPa)
#
#
# Indices 1 2 3 4 5 6 
#
# 1 100.7167 45.7488 22.4283 0.0000 0.0000 0.0000
# 2 45.7488 100.7167 22.4283 0.0000 0.0000 0.0000
# 3 22.4283 22.4283 82.1684 0.0000 0.0000 0.0000
# 4 0.0000 0.0000 0.0000 -940.3498 0.0000 0.0000
# 5 0.0000 0.0000 0.0000 0.0000 -940.3498 0.0000
# 6 0.0000 0.0000 0.0000 0.0000 0.0000 27.4839
#
#
#
# Elastic Compliance Matrix: (Units=1/GPa)
#
#
# Indices 1 2 3 4 5 6 
#
# 1 0.012821 -0.005371 -0.002034 0.000000 0.000000 0.000000
# 2 -0.005371 0.012821 -0.002034 0.000000 0.000000 0.000000
# 3 -0.002034 -0.002034 0.013280 0.000000 0.000000 0.000000
# 4 0.000000 0.000000 0.000000 -0.001063 0.000000 0.000000
# 5 0.000000 0.000000 0.000000 0.000000 -0.001063 0.000000
# 6 0.000000 0.000000 0.000000 0.000000 0.000000 0.036385
#
#
# Mechanical properties :
#
#
# Convention : Reuss Voigt Hill
#
# Bulk Modulus (GPa) = 49.88389 51.64586 50.76487
# Shear Modulus (GPa) = 50.63811 -357.77669 -153.56929
#
# Velocity S-wave (km/s) = 5.09454 -13.54168 -8.87194
# Velocity P-wave (km/s) = 7.75717 14.76590 8.88421
#
# Compressibility (1/GPa) = 0.02004655
#
# Stress axis : x y z
#
# Youngs Moduli (GPa) = 77.99459 77.99459 75.29948
#
# Poissons Ratio (x) = 0.41891 0.15313
# Poissons Ratio (y) = 0.41891 0.15313
# Poissons Ratio (z) = 0.15861 0.15861
#
# Static dielectric constant tensor:
#      x y z
#    x 3.605390 0.000000 0.000000 
#    y 0.000000 3.605390 0.000000 
#    z 0.000000 0.000000 3.667180 
# 
# 
# High freq. dielectric constant tensor:
#      x y z
#    x 1.760470 0.000000 0.000000 
#    y 0.000000 1.760470 0.000000 
#    z 0.000000 0.000000 1.775830 
# 
# From -- ./inp_files/699.got.cif
#   From: 2010.06.25/outbox.cif.g09.slc.cpg/sg190_1_cif.got.tgz:699.got - 2010.06.28 13:08:06.
