data_PCOD8328732
_publ_section_title
;
Structure prediction by ZEFSAII (Michael W. Deem and Ramdas Pophale) SiO2 
 PCOD8328732
Probable space group: P 6/M M M
;
_chemical_formula_sum "Si O2"
_cell_formula_units_Z 120
_cell_length_a 17.998953
_cell_length_b 17.998953
_cell_length_c 25.614800
_cell_angle_alpha 90.000000
_cell_angle_beta 90.000000
_cell_angle_gamma 120.000000
_cell_volume 7186.477774
_symmetry_space_group_name_H-M "P 6/M M M"
_symmetry_group_IT_number 191
_symmetry_cell_setting 'hexagonal'
loop_
_space_group_symop_operation_xyz
x,y,z
x-y,x,z
-y,x-y,z
-x,-y,z
-x+y,-x,z
y,-x+y,z
x-y,-y,-z
-x,-x+y,-z
y,x,-z
-y,-x,-z
-x+y,y,-z
x,x-y,-z
-x,-y,-z
-x+y,-x,-z
y,-x+y,-z
x,y,-z
x-y,x,-z
-y,x-y,-z
-x+y,y,z
x,x-y,z
-y,-x,z
y,x,z
x-y,-y,z
-x,-x+y,z
loop_
_atom_site_type_symbol
_atom_site_label
_atom_site_fract_x
_atom_site_fract_y
_atom_site_fract_z
Si Si1 0.366902 0.466079 0.403268
Si Si2 0.160615 0.668668 0.886732
Si Si3 0.736751 0.099115 0.500000
Si Si4 0.668603 0.502431 0.708434
Si Si5 0.331727 0.834102 0.000000
Si Si6 0.904383 0.266886 0.796017
O O1 0.438517 0.561484 0.421324
O O2 0.411311 0.411311 0.388578
O O3 0.299981 0.422581 0.449683
O O4 0.318347 0.469582 0.351868
O O5 0.151283 0.575642 0.879727
O O6 0.259943 0.740058 0.877555
O O7 0.102068 0.681339 0.845215
O O8 0.128566 0.680284 0.944833
O O9 0.840008 0.159993 0.500000
O O10 0.712933 0.000000 0.500000
O O11 0.734468 0.468936 0.721842
O O12 0.572307 0.427694 0.720293
O O13 0.690320 0.583974 0.743733
O O14 0.267919 0.732081 0.000000
O O15 0.426844 0.853687 0.000000
O O16 0.834418 0.165583 0.799057
O O17 0.000000 0.279620 0.795620
#
# Coordination Sequence:
#
# PCOD8328732 Si02
#       6
#    24  24  12  24  12  24
#     4   9  17  29  46  67  90 118 152 189 226 262
#     4   9  16  26  42  65  94 127 160 189 215 246
#     4  10  19  31  47  66  89 117 152 192 233 277
#     4  10  19  30  45  67  97 130 160 185 209 242
#     4   8  13  22  37  59  88 123 160 192 217 242
#     4  10  21  35  50  67  87 113 145 184 229 274
#
# _framework density 16.698025999999999
#
# number of rings (size 3 to 8) (size 9 to 14) (size 15 to 20)
#    0.000    2.600    0.000    2.600    0.000    5.200 
#    0.000    2.500    0.000    4.900    0.000    0.000 
#    0.000    0.000    0.000    6.400    0.000   11.800 
#
# Total GULP energy -1487118.928041 kJ/mol
# GULP energy per Si atom -12392.657734 kJ/mol
# Density = 1.666002 g / cm^3
# Si number density = 16.698026 Si / 1000 Ang^3
#
#
#
# Elastic Constant Matrix: (Units=GPa)
#
#
# Indices 1 2 3 4 5 6 
#
# 1 80.0772 46.6091 37.0298 0.0000 0.0000 0.0000
# 2 46.6091 80.0772 37.0298 0.0000 0.0000 0.0000
# 3 37.0298 37.0298 89.7700 0.0000 0.0000 0.0000
# 4 0.0000 0.0000 0.0000 16.4991 0.0000 0.0000
# 5 0.0000 0.0000 0.0000 0.0000 16.4991 0.0000
# 6 0.0000 0.0000 0.0000 0.0000 0.0000 16.7340
#
#
#
# Elastic Compliance Matrix: (Units=1/GPa)
#
#
# Indices 1 2 3 4 5 6 
#
# 1 0.020141 -0.009739 -0.004291 0.000000 0.000000 0.000000
# 2 -0.009739 0.020141 -0.004291 0.000000 0.000000 0.000000
# 3 -0.004291 -0.004291 0.014679 0.000000 0.000000 0.000000
# 4 0.000000 0.000000 0.000000 0.060609 0.000000 0.000000
# 5 0.000000 0.000000 0.000000 0.000000 0.060609 0.000000
# 6 0.000000 0.000000 0.000000 0.000000 0.000000 0.059758
#
#
# Mechanical properties :
#
#
# Convention : Reuss Voigt Hill
#
# Bulk Modulus (GPa) = 54.58460 54.58462 54.58461
# Shear Modulus (GPa) = 17.94145 18.56351 18.25248
#
# Velocity S-wave (km/s) = 3.28146 3.33786 3.30978
# Velocity P-wave (km/s) = 6.86422 6.90039 6.88233
#
# Compressibility (1/GPa) = 0.01832019
#
# Stress axis : x y z
#
# Youngs Moduli (GPa) = 49.65114 49.65114 68.12279
#
# Poissons Ratio (x) = 0.48354 0.29230
# Poissons Ratio (y) = 0.48354 0.29230
# Poissons Ratio (z) = 0.21304 0.21304
#
# Static dielectric constant tensor:
#      x y z
#    x 2.894210 0.000000 0.000000 
#    y 0.000000 2.894210 0.000000 
#    z 0.000000 0.000000 3.530430 
# 
# 
# High freq. dielectric constant tensor:
#      x y z
#    x 1.611870 0.000000 0.000000 
#    y 0.000000 1.611870 0.000000 
#    z 0.000000 0.000000 1.668430 
# 
# From -- ./inp_files/8568.got.cif
#   From: 2010.03.12/outbox.cif.g09.slc.cpg/sg191_5_cif.got.tgz:8568.got - 2010.04.01 12:09:02.
