data_PCOD8328087
_publ_section_title
;
Structure prediction by ZEFSAII (Michael W. Deem and Ramdas Pophale) SiO2 
 PCOD8328087
Probable space group: P -6 2 C
;
_chemical_formula_sum "Si O2"
_cell_formula_units_Z 76
_cell_length_a 17.241635
_cell_length_b 17.241635
_cell_length_c 14.680341
_cell_angle_alpha 90.000000
_cell_angle_beta 90.000000
_cell_angle_gamma 120.000000
_cell_volume 3779.407054
_symmetry_space_group_name_H-M "P -6 2 C"
_symmetry_group_IT_number 190
_symmetry_cell_setting 'hexagonal'
loop_
_space_group_symop_operation_xyz
x,y,z
-x+y,-x,1/2-z
-y,x-y,z
x,y,1/2-z
-x+y,-x,z
-y,x-y,1/2-z
x-y,-y,-z
-x,-x+y,-z
y,x,-z
y,x,1/2+z
x-y,-y,1/2+z
-x,-x+y,1/2+z
loop_
_atom_site_type_symbol
_atom_site_label
_atom_site_fract_x
_atom_site_fract_y
_atom_site_fract_z
Si Si1 0.666667 0.333334 0.862090
Si Si2 0.336319 0.106019 0.000023
Si Si3 0.627022 0.147520 0.350265
Si Si4 0.179102 0.539726 0.481114
Si Si5 0.767957 0.097242 0.646986
Si Si6 0.580741 0.040773 0.906601
Si Si7 0.784475 0.108993 0.146326
O O1 0.666667 0.333334 0.750000
O O2 0.573105 0.259368 0.907510
O O3 0.442227 0.152411 0.015733
O O4 0.316605 0.147788 0.910902
O O5 0.292597 0.128153 0.085496
O O6 0.291559 0.000000 0.000000
O O7 0.629662 0.189355 0.250000
O O8 0.604538 0.199260 0.429541
O O9 0.719540 0.149915 0.372844
O O10 0.553540 0.041618 0.343559
O O11 0.096493 0.531623 0.424382
O O12 0.801932 0.117373 0.750000
O O13 0.678484 0.105533 0.636881
O O14 0.734973 0.994935 0.618923
O O15 0.595225 0.000000 0.000000
O O16 0.815407 0.122761 0.250000
#
# Coordination Sequence:
#
# PCOD8328087 Si02
#       7
#     4  12  12  12  12  12  12
#     4  12  27  42  58  74 100 153 207 246 286 329
#     4  12  24  37  56  85 120 151 177 221 291 353
#     4   9  17  33  59  86 112 151 194 233 280 330
#     4  11  23  38  52  79 121 155 191 237 280 332
#     4  10  20  37  62  86 106 141 195 243 275 320
#     4   9  16  31  56  84 117 154 192 231 272 320
#     4   9  19  38  64  86 106 141 193 241 275 320
#
# _framework density 20.108974
#
# number of rings (size 3 to 8) (size 9 to 14) (size 15 to 20)
#    0.000    1.895    0.000    8.053    0.000    4.421 
#    0.000    2.368    0.000    2.526    0.000    0.000 
#    0.000    0.000    0.000    0.000    0.000    0.000 
#
# Total GULP energy -941816.877986 kJ/mol
# GULP energy per Si atom -12392.327342 kJ/mol
# Density = 2.006321 g / cm^3
# Si number density = 20.108974 Si / 1000 Ang^3
#
#
#
# Elastic Constant Matrix: (Units=GPa)
#
#
# Indices 1 2 3 4 5 6 
#
# 1 62.9141 17.7207 36.1587 0.0000 0.0000 0.0000
# 2 17.7207 62.9141 36.1588 0.0000 0.0001 0.0000
# 3 36.1587 36.1588 112.0805 0.0001 0.0000 0.0000
# 4 0.0000 0.0000 0.0001 23.5013 0.0000 0.0000
# 5 0.0000 0.0001 0.0000 0.0000 23.5013 0.0000
# 6 0.0000 0.0000 0.0000 0.0000 0.0000 22.5968
#
#
#
# Elastic Compliance Matrix: (Units=1/GPa)
#
#
# Indices 1 2 3 4 5 6 
#
# 1 0.019789 -0.002338 -0.005630 0.000000 0.000000 0.000000
# 2 -0.002338 0.019789 -0.005630 0.000000 0.000000 0.000000
# 3 -0.005630 -0.005630 0.012555 0.000000 0.000000 0.000000
# 4 0.000000 0.000000 0.000000 0.042551 0.000000 0.000000
# 5 0.000000 0.000000 0.000000 0.000000 0.042551 0.000000
# 6 0.000000 0.000000 0.000000 0.000000 0.000000 0.044254
#
#
# Mechanical properties :
#
#
# Convention : Reuss Voigt Hill
#
# Bulk Modulus (GPa) = 40.10143 46.44277 43.27210
# Shear Modulus (GPa) = 23.04188 23.77793 23.40991
#
# Velocity S-wave (km/s) = 3.38871 3.44241 3.41567
# Velocity P-wave (km/s) = 5.94109 6.24067 6.09272
#
# Compressibility (1/GPa) = 0.02493677
#
# Stress axis : x y z
#
# Youngs Moduli (GPa) = 50.53334 50.53331 79.65147
#
# Poissons Ratio (x) = 0.11816 0.44843
# Poissons Ratio (y) = 0.11816 0.44843
# Poissons Ratio (z) = 0.28449 0.28450
#
# Static dielectric constant tensor:
#      x y z
#    x 3.479130 0.000000 0.000000 
#    y 0.000000 3.479130 0.000000 
#    z 0.000000 0.000000 3.818350 
# 
# 
# High freq. dielectric constant tensor:
#      x y z
#    x 1.762940 0.000000 0.000000 
#    y 0.000000 1.762940 0.000000 
#    z 0.000000 0.000000 1.795730 
# 
# From -- ./inp_files/3060.got.cif
#   From: 2010.06.25/outbox.cif.g09.slc.cpg/sg190_2_cif.got.tgz:3060.got - 2010.06.28 13:08:06.
