data_PCOD8328012
_publ_section_title
;
Structure prediction by ZEFSAII (Michael W. Deem and Ramdas Pophale) SiO2 
 PCOD8328012
Probable space group: P -6 2 C
;
_chemical_formula_sum "Si O2"
_cell_formula_units_Z 96
_cell_length_a 17.454008
_cell_length_b 17.454008
_cell_length_c 20.430516
_cell_angle_alpha 90.000000
_cell_angle_beta 90.000000
_cell_angle_gamma 120.000000
_cell_volume 5390.143266
_symmetry_space_group_name_H-M "P -6 2 C"
_symmetry_group_IT_number 190
_symmetry_cell_setting 'hexagonal'
loop_
_space_group_symop_operation_xyz
x,y,z
-x+y,-x,1/2-z
-y,x-y,z
x,y,1/2-z
-x+y,-x,z
-y,x-y,1/2-z
x-y,-y,-z
-x,-x+y,-z
y,x,-z
y,x,1/2+z
x-y,-y,1/2+z
-x,-x+y,1/2+z
loop_
_atom_site_type_symbol
_atom_site_label
_atom_site_fract_x
_atom_site_fract_y
_atom_site_fract_z
Si Si1 0.803416 0.937876 0.172507
Si Si2 0.291179 0.485660 0.033418
Si Si3 0.392389 0.146275 0.325703
Si Si4 0.696066 0.970292 0.430845
Si Si5 0.516577 0.134213 0.951252
Si Si6 0.942600 0.424933 0.403699
Si Si7 0.195935 0.061599 0.326509
Si Si8 0.546455 0.865375 0.891388
O O1 0.777904 0.931748 0.250000
O O2 0.726486 0.925635 0.124021
O O3 0.822918 0.861574 0.149758
O O4 0.888182 0.031556 0.154858
O O5 0.302546 0.403965 0.053936
O O6 0.378099 0.571745 0.061181
O O7 0.200488 0.478066 0.060273
O O8 0.293185 0.490720 0.954835
O O9 0.388286 0.124364 0.250000
O O10 0.432495 0.093811 0.360911
O O11 0.294255 0.109437 0.357112
O O12 0.450623 0.252338 0.335396
O O13 0.751339 0.000000 0.500000
O O14 0.700134 0.055155 0.399550
O O15 0.472937 0.049959 0.902414
O O16 0.495815 0.094770 0.023620
O O17 0.907294 0.486043 0.371208
O O18 0.207732 0.063232 0.250000
#
# Coordination Sequence:
#
# PCOD8328012 Si02
#       8
#    12  12  12  12  12  12  12  12
#     4  10  19  35  56  78 105 143 186 221 266 332
#     4  10  19  33  56  84 107 142 183 231 275 332
#     4  11  22  37  55  80 113 145 185 232 275 329
#     4  10  20  34  55  82 109 140 183 232 278 328
#     4  10  19  34  57  82 111 143 184 232 284 338
#     4  10  21  36  54  80 111 148 186 230 282 337
#     4   9  19  33  54  78 102 138 183 226 263 317
#     4  10  19  38  55  73 110 148 184 223 278 333
#
# _framework density 17.810286999999999
#
# number of rings (size 3 to 8) (size 9 to 14) (size 15 to 20)
#    0.000    2.000    3.750    0.500    1.750    1.500 
#    0.750    0.625    0.000    0.000    0.000    0.000 
#    0.000    2.000    0.000    0.000    0.000    0.000 
#
# Total GULP energy -1189907.223457 kJ/mol
# GULP energy per Si atom -12394.866911 kJ/mol
# Density = 1.776975 g / cm^3
# Si number density = 17.810287 Si / 1000 Ang^3
#
#
#
# Elastic Constant Matrix: (Units=GPa)
#
#
# Indices 1 2 3 4 5 6 
#
# 1 96.3151 45.0455 24.7404 0.0000 0.0000 0.0000
# 2 45.0455 96.3151 24.7404 0.0000 0.0000 0.0000
# 3 24.7404 24.7404 41.7847 0.0000 0.0000 0.0000
# 4 0.0000 0.0000 0.0000 18.5075 0.0000 0.0000
# 5 0.0000 0.0000 0.0000 0.0000 18.5075 0.0000
# 6 0.0000 0.0000 0.0000 0.0000 0.0000 25.6348
#
#
#
# Elastic Compliance Matrix: (Units=1/GPa)
#
#
# Indices 1 2 3 4 5 6 
#
# 1 0.014214 -0.005291 -0.005284 0.000000 0.000000 0.000000
# 2 -0.005291 0.014214 -0.005284 0.000000 0.000000 0.000000
# 3 -0.005284 -0.005284 0.030189 0.000000 0.000000 0.000000
# 4 0.000000 0.000000 0.000000 0.054032 0.000000 0.000000
# 5 0.000000 0.000000 0.000000 0.000000 0.054032 0.000000
# 6 0.000000 0.000000 0.000000 0.000000 0.000000 0.039010
#
#
# Mechanical properties :
#
#
# Convention : Reuss Voigt Hill
#
# Bulk Modulus (GPa) = 37.17226 47.05191 42.11209
# Shear Modulus (GPa) = 20.29436 21.85584 21.07510
#
# Velocity S-wave (km/s) = 3.37927 3.50687 3.44366
# Velocity P-wave (km/s) = 6.01186 6.54776 6.28553
#
# Compressibility (1/GPa) = 0.02690178
#
# Stress axis : x y z
#
# Youngs Moduli (GPa) = 70.35248 70.35248 33.12475
#
# Poissons Ratio (x) = 0.37221 0.17502
# Poissons Ratio (y) = 0.37221 0.17502
# Poissons Ratio (z) = 0.37171 0.37171
#
# Static dielectric constant tensor:
#      x y z
#    x 3.469050 0.000000 0.000000 
#    y 0.000000 3.469050 0.000000 
#    z 0.000000 0.000000 3.042740 
# 
# 
# High freq. dielectric constant tensor:
#      x y z
#    x 1.696870 0.000000 0.000000 
#    y 0.000000 1.696870 0.000000 
#    z 0.000000 0.000000 1.651410 
# 
# From -- ./inp_files/4461.got.cif
#   From: 2010.06.25/outbox.cif.g09.slc.cpg/sg190_3_cif.got.tgz:4461.got - 2010.06.28 13:08:06.
