data_PCOD8328834
_publ_section_title
;
Structure prediction by ZEFSAII (Michael W. Deem and Ramdas Pophale) SiO2 
 PCOD8328834
Probable space group: P 6/M M M
;
_chemical_formula_sum "Si O2"
_cell_formula_units_Z 120
_cell_length_a 17.445816
_cell_length_b 17.445816
_cell_length_c 25.803882
_cell_angle_alpha 90.000000
_cell_angle_beta 90.000000
_cell_angle_gamma 120.000000
_cell_volume 6801.399017
_symmetry_space_group_name_H-M "P 6/M M M"
_symmetry_group_IT_number 191
_symmetry_cell_setting 'hexagonal'
loop_
_space_group_symop_operation_xyz
x,y,z
x-y,x,z
-y,x-y,z
-x,-y,z
-x+y,-x,z
y,-x+y,z
x-y,-y,-z
-x,-x+y,-z
y,x,-z
-y,-x,-z
-x+y,y,-z
x,x-y,-z
-x,-y,-z
-x+y,-x,-z
y,-x+y,-z
x,y,-z
x-y,x,-z
-y,x-y,-z
-x+y,y,z
x,x-y,z
-y,-x,z
y,x,z
x-y,-y,z
-x,-x+y,z
loop_
_atom_site_type_symbol
_atom_site_label
_atom_site_fract_x
_atom_site_fract_y
_atom_site_fract_z
Si Si1 0.370816 0.100238 0.700585
Si Si2 0.900782 0.273437 0.100518
Si Si3 0.897165 0.270724 0.500000
Si Si4 0.896004 0.363325 0.601887
Si Si5 0.511680 0.668459 0.000000
Si Si6 0.512224 0.668188 0.798448
O O1 0.330008 0.165004 0.708355
O O2 0.436377 0.136751 0.651487
O O3 0.426382 0.102428 0.750370
O O4 0.290591 0.000000 0.692141
O O5 0.831988 0.168013 0.100578
O O6 0.885910 0.320255 0.149395
O O7 0.000000 0.288701 0.101877
O O8 0.889553 0.319546 0.050052
O O9 0.836338 0.163663 0.500000
O O10 0.870360 0.307213 0.549540
O O11 0.000000 0.296999 0.500000
O O12 0.851777 0.425889 0.601919
O O13 0.000000 0.425035 0.605368
O O14 0.428899 0.571102 0.000000
O O15 0.477461 0.738731 0.000000
O O16 0.481170 0.740585 0.794599
O O17 0.427988 0.572013 0.798008
#
# Coordination Sequence:
#
# PCOD8328834 Si02
#       6
#    24  24  12  24  12  24
#     4  10  20  33  50  72  97 127 163 202 242 283
#     4  10  21  35  51  72  97 127 162 201 244 286
#     4  10  19  31  49  72  97 127 164 204 243 283
#     4   9  17  30  49  71  93 119 153 192 234 283
#     4  10  20  33  50  73 102 134 165 196 232 277
#     4  10  20  33  50  73 101 131 161 194 234 281
#
# _framework density 17.643429000000001
#
# number of rings (size 3 to 8) (size 9 to 14) (size 15 to 20)
#    0.000    2.200    0.000    3.300    0.000    5.200 
#    0.000    2.000    0.000    7.300    0.000    0.000 
#    0.000   12.000    0.000    0.000    0.000    2.000 
#
# Total GULP energy -1487926.348076 kJ/mol
# GULP energy per Si atom -12399.386234 kJ/mol
# Density = 1.760327 g / cm^3
# Si number density = 17.643429 Si / 1000 Ang^3
#
#
#
# Elastic Constant Matrix: (Units=GPa)
#
#
# Indices 1 2 3 4 5 6 
#
# 1 102.4261 70.1869 32.6344 0.0000 0.0000 0.0000
# 2 70.1869 102.4261 32.6344 0.0000 0.0000 0.0000
# 3 32.6344 32.6344 142.6305 0.0000 0.0000 0.0000
# 4 0.0000 0.0000 0.0000 19.5269 0.0000 0.0000
# 5 0.0000 0.0000 0.0000 0.0000 19.5269 0.0000
# 6 0.0000 0.0000 0.0000 0.0000 0.0000 16.1196
#
#
#
# Elastic Compliance Matrix: (Units=1/GPa)
#
#
# Indices 1 2 3 4 5 6 
#
# 1 0.018680 -0.012338 -0.001451 0.000000 0.000000 0.000000
# 2 -0.012338 0.018680 -0.001451 0.000000 0.000000 0.000000
# 3 -0.001451 -0.001451 0.007675 0.000000 0.000000 0.000000
# 4 0.000000 0.000000 0.000000 0.051211 0.000000 0.000000
# 5 0.000000 0.000000 0.000000 0.000000 0.051211 0.000000
# 6 0.000000 0.000000 0.000000 0.000000 0.000000 0.062036
#
#
# Mechanical properties :
#
#
# Convention : Reuss Voigt Hill
#
# Bulk Modulus (GPa) = 68.70569 68.71047 68.70808
# Shear Modulus (GPa) = 20.42262 25.16981 22.79622
#
# Velocity S-wave (km/s) = 3.40593 3.78111 3.59841
# Velocity P-wave (km/s) = 7.38193 7.62174 7.50279
#
# Compressibility (1/GPa) = 0.01455483
#
# Stress axis : x y z
#
# Youngs Moduli (GPa) = 53.53291 53.53291 130.29071
#
# Poissons Ratio (x) = 0.66049 0.18906
# Poissons Ratio (y) = 0.66049 0.18906
# Poissons Ratio (z) = 0.07768 0.07768
#
# Static dielectric constant tensor:
#      x y z
#    x 3.162810 0.000000 0.000000 
#    y 0.000000 3.162810 0.000000 
#    z 0.000000 0.000000 3.550900 
# 
# 
# High freq. dielectric constant tensor:
#      x y z
#    x 1.664720 0.000000 0.000000 
#    y 0.000000 1.664720 0.000000 
#    z 0.000000 0.000000 1.708990 
# 
# From -- ./inp_files/8578.got.cif
#   From: 2010.03.12/outbox.cif.g09.slc.cpg/sg191_5_cif.got.tgz:8578.got - 2010.04.01 12:09:02.
