data_PCOD8328095
_publ_section_title
;
Structure prediction by ZEFSAII (Michael W. Deem and Ramdas Pophale) SiO2 
 PCOD8328095
Probable space group: P -6 2 C
;
_chemical_formula_sum "Si O2"
_cell_formula_units_Z 30
_cell_length_a 8.430132
_cell_length_b 8.430132
_cell_length_c 22.383567
_cell_angle_alpha 90.000000
_cell_angle_beta 90.000000
_cell_angle_gamma 120.000000
_cell_volume 1377.617584
_symmetry_space_group_name_H-M "P -6 2 C"
_symmetry_group_IT_number 190
_symmetry_cell_setting 'hexagonal'
loop_
_space_group_symop_operation_xyz
x,y,z
-x+y,-x,1/2-z
-y,x-y,z
x,y,1/2-z
-x+y,-x,z
-y,x-y,1/2-z
x-y,-y,-z
-x,-x+y,-z
y,x,-z
y,x,1/2+z
x-y,-y,1/2+z
-x,-x+y,1/2+z
loop_
_atom_site_type_symbol
_atom_site_label
_atom_site_fract_x
_atom_site_fract_y
_atom_site_fract_z
Si Si1 0.666668 0.333335 0.076898
Si Si2 0.000000 0.000000 0.321314
Si Si3 0.991310 0.644792 0.867209
Si Si4 0.901749 0.469025 0.250000
Si Si5 0.333334 0.666668 0.064344
O O1 0.466427 0.278000 0.101596
O O2 0.666668 0.333334 0.006362
O O3 0.806925 0.959732 0.346638
O O4 0.000000 0.000000 0.250000
O O5 0.835358 0.523067 0.913993
O O6 0.975576 0.520845 0.809245
O O7 0.789112 0.246864 0.250000
#
# Coordination Sequence:
#
# PCOD8328095 Si02
#       5
#     4   4  12   6   4
#     4  12  24  52  71  94 141 183 235 281 331 405
#     4  12  27  42  70 107 139 171 222 283 353 415
#     4  12  24  44  72 100 138 178 224 285 345 400
#     4  10  20  38  72  98 134 176 218 282 354 408
#     4  12  30  43  68 103 135 189 235 272 331 417
#
# _framework density 21.776726
#
# number of rings (size 3 to 8) (size 9 to 14) (size 15 to 20)
#    0.400    0.000    6.000    3.600    0.000    1.600 
#    0.000    6.000    0.000    0.000    0.000    0.000 
#    0.000    0.000    0.000    0.000    0.000    0.000 
#
# Total GULP energy -372136.905618 kJ/mol
# GULP energy per Si atom -12404.563521 kJ/mol
# Density = 2.172716 g / cm^3
# Si number density = 21.776726 Si / 1000 Ang^3
#
#
#
# Elastic Constant Matrix: (Units=GPa)
#
#
# Indices 1 2 3 4 5 6 
#
# 1 72.4883 15.8562 29.8733 0.0004 0.0001 0.0000
# 2 15.8562 72.4897 29.8732 0.0000 0.0008 0.0004
# 3 29.8733 29.8732 185.3539 0.0004 -0.0001 0.0001
# 4 0.0004 0.0000 0.0004 23.0999 -0.0004 -0.0004
# 5 0.0001 0.0008 -0.0001 -0.0004 23.1009 -0.0002
# 6 0.0000 0.0004 0.0001 -0.0004 -0.0002 28.3166
#
#
#
# Elastic Compliance Matrix: (Units=1/GPa)
#
#
# Indices 1 2 3 4 5 6 
#
# 1 0.015181 -0.002477 -0.002048 0.000000 0.000000 0.000000
# 2 -0.002477 0.015181 -0.002047 0.000000 -0.000001 0.000000
# 3 -0.002048 -0.002047 0.006055 0.000000 0.000000 0.000000
# 4 0.000000 0.000000 0.000000 0.043290 0.000001 0.000001
# 5 0.000000 -0.000001 0.000000 0.000001 0.043288 0.000000
# 6 0.000000 0.000000 0.000000 0.000001 0.000000 0.035315
#
#
# Mechanical properties :
#
#
# Convention : Reuss Voigt Hill
#
# Bulk Modulus (GPa) = 42.96823 53.50412 48.23618
# Shear Modulus (GPa) = 27.90000 31.88542 29.89271
#
# Velocity S-wave (km/s) = 3.58325 3.83063 3.70900
# Velocity P-wave (km/s) = 6.07401 6.64739 6.36716
#
# Compressibility (1/GPa) = 0.02327301
#
# Stress axis : x y z
#
# Youngs Moduli (GPa) = 65.87214 65.87352 165.15114
#
# Poissons Ratio (x) = 0.16316 0.33815
# Poissons Ratio (y) = 0.16316 0.33814
# Poissons Ratio (z) = 0.13487 0.13487
#
# Static dielectric constant tensor:
#      x y z
#    x 3.842230 -0.000010 0.000000 
#    y -0.000010 3.842210 -0.000010 
#    z 0.000000 -0.000010 4.018240 
# 
# 
# High freq. dielectric constant tensor:
#      x y z
#    x 1.852470 0.000000 0.000000 
#    y 0.000000 1.852470 0.000000 
#    z 0.000000 0.000000 1.867130 
# 
# From -- ./inp_files/4505.got.cif
#   From: 2010.06.25/outbox.cif.g09.slc.cpg/sg190_3_cif.got.tgz:4505.got - 2010.06.28 13:08:06.
