data_PCOD8328015
_publ_section_title
;
Structure prediction by ZEFSAII (Michael W. Deem and Ramdas Pophale) SiO2 
 PCOD8328015
Probable space group: P -6 2 C
;
_chemical_formula_sum "Si O2"
_cell_formula_units_Z 72
_cell_length_a 15.537865
_cell_length_b 15.537865
_cell_length_c 17.500622
_cell_angle_alpha 90.000000
_cell_angle_beta 90.000000
_cell_angle_gamma 120.000000
_cell_volume 3659.037022
_symmetry_space_group_name_H-M "P -6 2 C"
_symmetry_group_IT_number 190
_symmetry_cell_setting 'hexagonal'
loop_
_space_group_symop_operation_xyz
x,y,z
-x+y,-x,1/2-z
-y,x-y,z
x,y,1/2-z
-x+y,-x,z
-y,x-y,1/2-z
x-y,-y,-z
-x,-x+y,-z
y,x,-z
y,x,1/2+z
x-y,-y,1/2+z
-x,-x+y,1/2+z
loop_
_atom_site_type_symbol
_atom_site_label
_atom_site_fract_x
_atom_site_fract_y
_atom_site_fract_z
Si Si1 0.846981 0.666067 0.838475
Si Si2 0.771915 0.727956 0.339471
Si Si3 0.318377 0.495283 0.584544
Si Si4 0.543430 0.286099 0.919584
Si Si5 0.651457 0.502335 0.336326
Si Si6 0.267251 0.220645 0.419119
O O1 0.826600 0.644780 0.750000
O O2 0.794575 0.726243 0.868956
O O3 0.804908 0.559311 0.876875
O O4 0.962875 0.734323 0.854487
O O5 0.803072 0.745809 0.250000
O O6 0.684469 0.616043 0.354175
O O7 0.868256 0.755966 0.391296
O O8 0.282238 0.526931 0.509853
O O9 0.257290 0.508080 0.653806
O O10 0.434281 0.563635 0.605006
O O11 0.296223 0.384055 0.572972
O O12 0.597496 0.221446 0.899368
O O13 0.612572 0.473520 0.250000
O O14 0.213588 0.213588 0.500000
#
# Coordination Sequence:
#
# PCOD8328015 Si02
#       6
#    12  12  12  12  12  12
#     4  11  24  44  66  89 124 168 213 267 322 381
#     4   9  22  43  63  89 125 163 212 268 323 375
#     4  11  19  36  58  91 130 164 203 255 313 378
#     4  10  21  39  63  91 131 173 206 249 316 379
#     4  10  19  33  58  91 124 163 204 253 311 376
#     4  11  23  40  65  95 123 161 212 264 324 388
#
# _framework density 19.677308
#
# number of rings (size 3 to 8) (size 9 to 14) (size 15 to 20)
#    0.333    1.333    3.333    1.333    0.000    4.667 
#    1.000    1.667    0.000    0.000    0.000    0.000 
#    0.000    0.000    0.000    0.000    0.000    0.000 
#
# Total GULP energy -892595.959810 kJ/mol
# GULP energy per Si atom -12397.166108 kJ/mol
# Density = 1.963252 g / cm^3
# Si number density = 19.677308 Si / 1000 Ang^3
#
#
#
# Elastic Constant Matrix: (Units=GPa)
#
#
# Indices 1 2 3 4 5 6 
#
# 1 108.8583 50.4696 38.9888 0.0000 0.0000 0.0000
# 2 50.4696 108.8583 38.9888 0.0000 0.0000 0.0000
# 3 38.9888 38.9888 81.8711 0.0000 0.0000 0.0000
# 4 0.0000 0.0000 0.0000 32.8441 0.0000 0.0000
# 5 0.0000 0.0000 0.0000 0.0000 32.8441 0.0000
# 6 0.0000 0.0000 0.0000 0.0000 0.0000 29.1944
#
#
#
# Elastic Compliance Matrix: (Units=1/GPa)
#
#
# Indices 1 2 3 4 5 6 
#
# 1 0.012655 -0.004471 -0.003897 0.000000 0.000000 0.000000
# 2 -0.004471 0.012655 -0.003897 0.000000 0.000000 0.000000
# 3 -0.003897 -0.003897 0.015926 0.000000 0.000000 0.000000
# 4 0.000000 0.000000 0.000000 0.030447 0.000000 0.000000
# 5 0.000000 0.000000 0.000000 0.000000 0.030447 0.000000
# 6 0.000000 0.000000 0.000000 0.000000 0.000000 0.034253
#
#
# Mechanical properties :
#
#
# Convention : Reuss Voigt Hill
#
# Bulk Modulus (GPa) = 59.86357 61.83132 60.84745
# Shear Modulus (GPa) = 30.03297 30.38588 30.20943
#
# Velocity S-wave (km/s) = 3.91099 3.93391 3.92247
# Velocity P-wave (km/s) = 7.13325 7.21977 7.17664
#
# Compressibility (1/GPa) = 0.01670465
#
# Stress axis : x y z
#
# Youngs Moduli (GPa) = 79.01910 79.01910 62.78944
#
# Poissons Ratio (x) = 0.35333 0.24471
# Poissons Ratio (y) = 0.35333 0.24471
# Poissons Ratio (z) = 0.30796 0.30796
#
# Static dielectric constant tensor:
#      x y z
#    x 3.554360 0.000000 0.000000 
#    y 0.000000 3.554360 0.000000 
#    z 0.000000 0.000000 3.468260 
# 
# 
# High freq. dielectric constant tensor:
#      x y z
#    x 1.763480 0.000000 0.000000 
#    y 0.000000 1.763480 0.000000 
#    z 0.000000 0.000000 1.765990 
# 
# From -- ./inp_files/3748.got.cif
#   From: 2010.06.25/outbox.cif.g09.slc.cpg/sg190_2_cif.got.tgz:3748.got - 2010.06.28 13:08:06.
