data_PCOD8328966
_publ_section_title
;
Structure prediction by ZEFSAII (Michael W. Deem and Ramdas Pophale) SiO2 
 PCOD8328966
Probable space group: P 6/M M M
;
_chemical_formula_sum "Si O2"
_cell_formula_units_Z 108
_cell_length_a 17.520539
_cell_length_b 17.520539
_cell_length_c 23.183330
_cell_angle_alpha 90.000000
_cell_angle_beta 90.000000
_cell_angle_gamma 120.000000
_cell_volume 6163.130648
_symmetry_space_group_name_H-M "P 6/M M M"
_symmetry_group_IT_number 191
_symmetry_cell_setting 'hexagonal'
loop_
_space_group_symop_operation_xyz
x,y,z
x-y,x,z
-y,x-y,z
-x,-y,z
-x+y,-x,z
y,-x+y,z
x-y,-y,-z
-x,-x+y,-z
y,x,-z
-y,-x,-z
-x+y,y,-z
x,x-y,-z
-x,-y,-z
-x+y,-x,-z
y,-x+y,-z
x,y,-z
x-y,x,-z
-y,x-y,-z
-x+y,y,z
x,x-y,z
-y,-x,z
y,x,z
x-y,-y,z
-x,-x+y,z
loop_
_atom_site_type_symbol
_atom_site_label
_atom_site_fract_x
_atom_site_fract_y
_atom_site_fract_z
Si Si1 0.731468 0.100077 0.670971
Si Si2 0.628763 0.901134 0.889358
Si Si3 0.157332 0.668397 0.000000
Si Si4 0.895698 0.363221 0.436340
Si Si5 0.668131 0.156573 0.222253
O O1 0.835498 0.164502 0.684154
O O2 0.710913 0.136396 0.612460
O O3 0.672230 0.105062 0.721788
O O4 0.711682 0.000000 0.665098
O O5 0.665144 0.832572 0.890774
O O6 0.570858 0.887554 0.833283
O O7 0.712334 0.000000 0.889287
O O8 0.568699 0.888952 0.944134
O O9 0.261229 0.738772 0.000000
O O10 0.143456 0.571728 0.000000
O O11 0.865596 0.319521 0.500000
O O12 0.856174 0.428087 0.424833
O O13 0.000000 0.420865 0.433504
O O14 0.572598 0.145195 0.218261
O O15 0.740338 0.259662 0.225848
#
# Coordination Sequence:
#
# PCOD8328966 Si02
#       5
#    24  24  12  24  24
#     4  10  20  32  47  68  93 122 157 198 241 281
#     4  10  21  35  51  72  97 127 162 201 243 282
#     4  10  20  33  50  73 102 134 165 196 232 277
#     4   8  14  26  45  68  92 117 146 181 222 271
#     4  10  20  33  50  73 101 130 157 186 224 273
#
# _framework density 17.523561999999998
#
# number of rings (size 3 to 8) (size 9 to 14) (size 15 to 20)
#    0.000    2.444    0.000    3.333    0.000    4.889 
#    0.000    2.222    0.000    0.889    0.000    0.000 
#    0.000    8.000    0.000    5.556    0.000    0.889 
#
# Total GULP energy -1338917.397555 kJ/mol
# GULP energy per Si atom -12397.383311 kJ/mol
# Density = 1.748368 g / cm^3
# Si number density = 17.523562 Si / 1000 Ang^3
#
#
#
# Elastic Constant Matrix: (Units=GPa)
#
#
# Indices 1 2 3 4 5 6 
#
# 1 95.6776 66.4200 36.5880 0.0000 0.0000 0.0000
# 2 66.4200 95.6776 36.5880 0.0000 0.0000 0.0000
# 3 36.5880 36.5880 128.7436 0.0000 0.0000 0.0000
# 4 0.0000 0.0000 0.0000 20.3643 0.0000 0.0000
# 5 0.0000 0.0000 0.0000 0.0000 20.3643 0.0000
# 6 0.0000 0.0000 0.0000 0.0000 0.0000 14.6288
#
#
#
# Elastic Compliance Matrix: (Units=1/GPa)
#
#
# Indices 1 2 3 4 5 6 
#
# 1 0.020628 -0.013551 -0.002011 0.000000 0.000000 0.000000
# 2 -0.013551 0.020628 -0.002011 0.000000 0.000000 0.000000
# 3 -0.002011 -0.002011 0.008911 0.000000 0.000000 0.000000
# 4 0.000000 0.000000 0.000000 0.049105 0.000000 0.000000
# 5 0.000000 0.000000 0.000000 0.000000 0.049105 0.000000
# 6 0.000000 0.000000 0.000000 0.000000 0.000000 0.068358
#
#
# Mechanical properties :
#
#
# Convention : Reuss Voigt Hill
#
# Bulk Modulus (GPa) = 66.57937 66.58788 66.58362
# Shear Modulus (GPa) = 19.46359 23.10500 21.28429
#
# Velocity S-wave (km/s) = 3.33635 3.63507 3.48891
# Velocity P-wave (km/s) = 7.27450 7.46323 7.36947
#
# Compressibility (1/GPa) = 0.01501967
#
# Stress axis : x y z
#
# Youngs Moduli (GPa) = 48.47749 48.47749 112.22661
#
# Poissons Ratio (x) = 0.65692 0.22572
# Poissons Ratio (y) = 0.65692 0.22572
# Poissons Ratio (z) = 0.09750 0.09750
#
# Static dielectric constant tensor:
#      x y z
#    x 3.083440 0.000000 0.000000 
#    y 0.000000 3.083440 0.000000 
#    z 0.000000 0.000000 3.597550 
# 
# 
# High freq. dielectric constant tensor:
#      x y z
#    x 1.655740 0.000000 0.000000 
#    y 0.000000 1.655740 0.000000 
#    z 0.000000 0.000000 1.703420 
# 
# From -- ./inp_files/7307.got.cif
#   From: 2010.03.12/outbox.cif.g09.slc.cpg/sg191_4_cif.got.tgz:7307.got - 2010.04.01 12:09:02.
