data_PCOD8328600
_publ_section_title
;
Structure prediction by ZEFSAII (Michael W. Deem and Ramdas Pophale) SiO2 
 PCOD8328600
Probable space group: P 6/M M M
;
_chemical_formula_sum "Si O2"
_cell_formula_units_Z 108
_cell_length_a 18.407863
_cell_length_b 18.407863
_cell_length_c 22.934269
_cell_angle_alpha 90.000000
_cell_angle_beta 90.000000
_cell_angle_gamma 120.000000
_cell_volume 6730.111830
_symmetry_space_group_name_H-M "P 6/M M M"
_symmetry_group_IT_number 191
_symmetry_cell_setting 'hexagonal'
loop_
_space_group_symop_operation_xyz
x,y,z
x-y,x,z
-y,x-y,z
-x,-y,z
-x+y,-x,z
y,-x+y,z
x-y,-y,-z
-x,-x+y,-z
y,x,-z
-y,-x,-z
-x+y,y,-z
x,x-y,-z
-x,-y,-z
-x+y,-x,-z
y,-x+y,-z
x,y,-z
x-y,x,-z
-y,x-y,-z
-x+y,y,z
x,x-y,z
-y,-x,z
y,x,z
x-y,-y,z
-x,-x+y,z
loop_
_atom_site_type_symbol
_atom_site_label
_atom_site_fract_x
_atom_site_fract_y
_atom_site_fract_z
Si Si1 0.743591 0.650170 0.933048
Si Si2 0.499679 0.331138 0.150397
Si Si3 0.367749 0.907443 0.269741
Si Si4 0.900532 0.638071 0.500000
Si Si5 0.369508 0.468883 0.396609
O O1 0.840042 0.680083 0.916533
O O2 0.727505 0.727505 0.921358
O O3 0.679706 0.571729 0.894283
O O4 0.725073 0.620813 0.000000
O O5 0.530269 0.265135 0.136331
O O6 0.575602 0.424399 0.142141
O O7 0.463087 0.312996 0.216259
O O8 0.457747 0.915494 0.268819
O O9 0.326159 0.868135 0.332835
O O10 0.379282 0.000000 0.261732
O O11 0.839480 0.678960 0.500000
O O12 0.874870 0.577101 0.555611
O O13 0.000000 0.709932 0.500000
O O14 0.432302 0.567699 0.412087
O O15 0.425710 0.425710 0.393435
#
# Coordination Sequence:
#
# PCOD8328600 Si02
#       5
#    24  24  24  12  24
#     4   9  18  32  49  68  88 110 137 171 213 259
#     4  10  19  29  41  59  86 120 155 187 215 241
#     4   8  14  25  41  60  81 106 138 175 212 251
#     4  10  19  29  43  62  83 109 142 180 217 253
#     4   8  14  26  44  64  84 106 133 166 208 258
#
# _framework density 16.047281999999999
#
# number of rings (size 3 to 8) (size 9 to 14) (size 15 to 20)
#    0.000    3.111    0.000    2.556    0.000    4.000 
#    0.000    1.111    0.000    3.444    0.000    1.556 
#    0.000    0.000    0.000    0.000    0.000   28.889 
#
# Total GULP energy -1338173.435700 kJ/mol
# GULP energy per Si atom -12390.494775 kJ/mol
# Density = 1.601076 g / cm^3
# Si number density = 16.047282 Si / 1000 Ang^3
#
#
#
# Elastic Constant Matrix: (Units=GPa)
#
#
# Indices 1 2 3 4 5 6 
#
# 1 71.0657 42.1984 40.2784 0.0000 0.0000 0.0000
# 2 42.1984 71.0657 40.2784 0.0000 0.0000 0.0000
# 3 40.2784 40.2784 98.3003 0.0000 0.0000 0.0000
# 4 0.0000 0.0000 0.0000 15.9089 0.0000 0.0000
# 5 0.0000 0.0000 0.0000 0.0000 15.9089 0.0000
# 6 0.0000 0.0000 0.0000 0.0000 0.0000 14.4337
#
#
#
# Elastic Compliance Matrix: (Units=1/GPa)
#
#
# Indices 1 2 3 4 5 6 
#
# 1 0.023551 -0.011091 -0.005106 0.000000 0.000000 0.000000
# 2 -0.011091 0.023551 -0.005106 0.000000 0.000000 0.000000
# 3 -0.005106 -0.005106 0.014357 0.000000 0.000000 0.000000
# 4 0.000000 0.000000 0.000000 0.062858 0.000000 0.000000
# 5 0.000000 0.000000 0.000000 0.000000 0.062858 0.000000
# 6 0.000000 0.000000 0.000000 0.000000 0.000000 0.069282
#
#
# Mechanical properties :
#
#
# Convention : Reuss Voigt Hill
#
# Bulk Modulus (GPa) = 53.03623 53.99357 53.51490
# Shear Modulus (GPa) = 16.37494 17.09540 16.73517
#
# Velocity S-wave (km/s) = 3.19786 3.26746 3.23285
# Velocity P-wave (km/s) = 6.83790 6.92493 6.88155
#
# Compressibility (1/GPa) = 0.01885504
#
# Stress axis : x y z
#
# Youngs Moduli (GPa) = 42.46164 42.46164 69.65310
#
# Poissons Ratio (x) = 0.47092 0.35561
# Poissons Ratio (y) = 0.47092 0.35561
# Poissons Ratio (z) = 0.21679 0.21679
#
# Static dielectric constant tensor:
#      x y z
#    x 2.821600 0.000000 0.000000 
#    y 0.000000 2.821600 0.000000 
#    z 0.000000 0.000000 3.545500 
# 
# 
# High freq. dielectric constant tensor:
#      x y z
#    x 1.585210 0.000000 0.000000 
#    y 0.000000 1.585210 0.000000 
#    z 0.000000 0.000000 1.635720 
# 
# From -- ./inp_files/8391.got.cif
#   From: 2010.03.12/outbox.cif.g09.slc.cpg/sg191_5_cif.got.tgz:8391.got - 2010.04.01 12:09:02.
