data_PCOD8328460
_publ_section_title
;
Structure prediction by ZEFSAII (Michael W. Deem and Ramdas Pophale) SiO2 
 PCOD8328460
Probable space group: P 6/M M M
;
_chemical_formula_sum "Si O2"
_cell_formula_units_Z 120
_cell_length_a 17.892592
_cell_length_b 17.892592
_cell_length_c 27.398625
_cell_angle_alpha 90.000000
_cell_angle_beta 90.000000
_cell_angle_gamma 120.000000
_cell_volume 7596.366640
_symmetry_space_group_name_H-M "P 6/M M M"
_symmetry_group_IT_number 191
_symmetry_cell_setting 'hexagonal'
loop_
_space_group_symop_operation_xyz
x,y,z
x-y,x,z
-y,x-y,z
-x,-y,z
-x+y,-x,z
y,-x+y,z
x-y,-y,-z
-x,-x+y,-z
y,x,-z
-y,-x,-z
-x+y,y,-z
x,x-y,-z
-x,-y,-z
-x+y,-x,-z
y,-x+y,-z
x,y,-z
x-y,x,-z
-y,x-y,-z
-x+y,y,z
x,x-y,z
-y,-x,z
y,x,z
x-y,-y,z
-x,-x+y,z
loop_
_atom_site_type_symbol
_atom_site_label
_atom_site_fract_x
_atom_site_fract_y
_atom_site_fract_z
Si Si1 0.331084 0.495088 0.324197
Si Si2 0.366876 0.098802 0.591117
Si Si3 0.411189 0.000000 0.054835
Si Si4 0.636170 0.095620 0.779667
Si Si5 0.532577 0.634161 0.500000
Si Si6 0.330339 0.837862 0.883017
O O1 0.264047 0.528093 0.335845
O O2 0.427925 0.572075 0.332651
O O3 0.313953 0.416468 0.359296
O O4 0.314455 0.460049 0.268953
O O5 0.328609 0.164305 0.593243
O O6 0.436702 0.130785 0.547685
O O7 0.289012 0.000000 0.583545
O O8 0.340251 0.915539 0.083057
O O9 0.500000 0.000000 0.054331
O O10 0.378744 0.000000 0.000000
O O11 0.543758 0.087515 0.781956
O O12 0.688761 0.146010 0.827564
O O13 0.623879 0.000000 0.779146
O O14 0.574344 0.574344 0.500000
O O15 0.428127 0.571874 0.500000
O O16 0.413487 0.826974 0.886232
O O17 0.249169 0.750832 0.902597
#
# Coordination Sequence:
#
# PCOD8328460 Si02
#       6
#    24  24  12  24  12  24
#     4  10  19  29  43  65  94 124 154 188 226 266
#     4  10  20  33  49  69  91 119 155 196 239 282
#     4   9  18  32  46  60  84 116 147 182 226 268
#     4   9  16  27  42  60  85 119 153 183 218 262
#     4   9  17  30  49  70  92 118 150 183 217 264
#     4  10  18  29  45  65  88 116 152 190 225 263
#
# _framework density 15.797027
#
# number of rings (size 3 to 8) (size 9 to 14) (size 15 to 20)
#    0.000    2.400    1.000    2.500    0.000    2.400 
#    0.000    2.000    0.000    4.200    0.000    0.000 
#    0.000    2.400    0.000    0.300    0.000    1.500 
#
# Total GULP energy -1487679.485989 kJ/mol
# GULP energy per Si atom -12397.329050 kJ/mol
# Density = 1.576107 g / cm^3
# Si number density = 15.797027 Si / 1000 Ang^3
#
#
#
# Elastic Constant Matrix: (Units=GPa)
#
#
# Indices 1 2 3 4 5 6 
#
# 1 74.5121 40.6634 30.1809 0.0000 0.0000 0.0000
# 2 40.6634 74.5121 30.1809 0.0000 0.0000 0.0000
# 3 30.1809 30.1809 113.2448 0.0000 0.0000 0.0000
# 4 0.0000 0.0000 0.0000 14.8004 0.0000 0.0000
# 5 0.0000 0.0000 0.0000 0.0000 14.8004 0.0000
# 6 0.0000 0.0000 0.0000 0.0000 0.0000 16.9244
#
#
#
# Elastic Compliance Matrix: (Units=1/GPa)
#
#
# Indices 1 2 3 4 5 6 
#
# 1 0.019818 -0.009726 -0.002690 0.000000 0.000000 0.000000
# 2 -0.009726 0.019818 -0.002690 0.000000 0.000000 0.000000
# 3 -0.002690 -0.002690 0.010264 0.000000 0.000000 0.000000
# 4 0.000000 0.000000 0.000000 0.067566 0.000000 0.000000
# 5 0.000000 0.000000 0.000000 0.000000 0.067566 0.000000
# 6 0.000000 0.000000 0.000000 0.000000 0.000000 0.059086
#
#
# Mechanical properties :
#
#
# Convention : Reuss Voigt Hill
#
# Bulk Modulus (GPa) = 50.78834 51.59104 51.18969
# Shear Modulus (GPa) = 17.80055 20.05462 18.92758
#
# Velocity S-wave (km/s) = 3.36047 3.56690 3.46522
# Velocity P-wave (km/s) = 6.87585 7.04934 6.96314
#
# Compressibility (1/GPa) = 0.01968956
#
# Stress axis : x y z
#
# Youngs Moduli (GPa) = 50.46026 50.46026 97.42745
#
# Poissons Ratio (x) = 0.49076 0.26204
# Poissons Ratio (y) = 0.49076 0.26204
# Poissons Ratio (z) = 0.13572 0.13572
#
# Static dielectric constant tensor:
#      x y z
#    x 2.783890 0.000000 0.000000 
#    y 0.000000 2.783890 0.000000 
#    z 0.000000 0.000000 3.248950 
# 
# 
# High freq. dielectric constant tensor:
#      x y z
#    x 1.577880 0.000000 0.000000 
#    y 0.000000 1.577880 0.000000 
#    z 0.000000 0.000000 1.622260 
# 
# From -- ./inp_files/9552.got.cif
#   From: 2010.03.12/outbox.cif.g09.slc.cpg/sg191_5_cif.got.tgz:9552.got - 2010.04.01 12:09:02.
