data_PCOD8328367
_publ_section_title
;
Structure prediction by ZEFSAII (Michael W. Deem and Ramdas Pophale) SiO2 
 PCOD8328367
Probable space group: P 6/M M M
;
_chemical_formula_sum "Si O2"
_cell_formula_units_Z 168
_cell_length_a 22.180314
_cell_length_b 22.180314
_cell_length_c 24.452084
_cell_angle_alpha 90.000000
_cell_angle_beta 90.000000
_cell_angle_gamma 120.000000
_cell_volume 10417.940934
_symmetry_space_group_name_H-M "P 6/M M M"
_symmetry_group_IT_number 191
_symmetry_cell_setting 'hexagonal'
loop_
_space_group_symop_operation_xyz
x,y,z
x-y,x,z
-y,x-y,z
-x,-y,z
-x+y,-x,z
y,-x+y,z
x-y,-y,-z
-x,-x+y,-z
y,x,-z
-y,-x,-z
-x+y,y,-z
x,x-y,-z
-x,-y,-z
-x+y,-x,-z
y,-x+y,-z
x,y,-z
x-y,x,-z
-y,x-y,-z
-x+y,y,z
x,x-y,z
-y,-x,z
y,x,z
x-y,-y,z
-x,-x+y,z
loop_
_atom_site_type_symbol
_atom_site_label
_atom_site_fract_x
_atom_site_fract_y
_atom_site_fract_z
Si Si1 0.297556 0.217687 0.761101
Si Si2 0.333528 0.798792 0.214989
Si Si3 0.380187 0.079717 0.343035
Si Si4 0.917646 0.526543 0.939889
Si Si5 0.467067 0.666536 0.658211
Si Si6 0.593293 0.673083 0.166467
Si Si7 0.923012 0.712495 0.561841
O O1 0.269157 0.134579 0.762994
O O2 0.233254 0.233254 0.755863
O O3 0.349821 0.250676 0.709901
O O4 0.340424 0.252386 0.817248
O O5 0.397371 0.794742 0.187028
O O6 0.260723 0.739278 0.188580
O O7 0.333170 0.784662 0.278457
O O8 0.343886 0.875037 0.207707
O O9 0.462399 0.126793 0.349223
O O10 0.350163 0.094325 0.397697
O O11 0.361647 0.000000 0.338679
O O12 0.892221 0.446111 0.923556
O O13 0.893773 0.564697 0.895242
O O14 0.000000 0.567670 0.943229
O O15 0.887485 0.528897 0.000000
O O16 0.472644 0.736322 0.631546
O O17 0.402747 0.597254 0.631228
O O18 0.612797 0.612797 0.174419
O O19 0.916028 0.683990 0.500000
O O20 0.870901 0.741801 0.572332
O O21 0.000000 0.776813 0.573254
#
# Coordination Sequence:
#
# PCOD8328367 Si02
#       7
#    24  24  24  24  24  24  24
#     4  10  19  31  47  68  94 122 149 181 225 275
#     4  10  19  29  41  57  82 115 147 177 212 259
#     4  10  19  31  48  70  94 120 150 188 235 280
#     4   8  14  25  40  59  86 118 149 181 219 265
#     4  10  19  30  44  62  88 121 154 186 221 266
#     4  10  18  27  43  67  89 111 142 182 225 266
#     4   9  17  29  47  70  94 121 154 191 229 273
#
# _framework density 16.126027000000001
#
# number of rings (size 3 to 8) (size 9 to 14) (size 15 to 20)
#    0.000    2.429    1.429    2.857    0.000    2.286 
#    0.000    1.429    0.000    2.429    0.000    3.000 
#    0.000    5.714    0.000    0.143    0.000    0.000 
#
# Total GULP energy -2081764.297756 kJ/mol
# GULP energy per Si atom -12391.454153 kJ/mol
# Density = 1.608932 g / cm^3
# Si number density = 16.126027 Si / 1000 Ang^3
#
#
#
# Elastic Constant Matrix: (Units=GPa)
#
#
# Indices 1 2 3 4 5 6 
#
# 1 100.6748 61.1306 25.3764 0.0000 0.0000 0.0000
# 2 61.1306 100.6748 25.3764 0.0000 0.0000 0.0000
# 3 25.3764 25.3764 61.2445 0.0000 0.0000 0.0000
# 4 0.0000 0.0000 0.0000 14.3805 0.0000 0.0000
# 5 0.0000 0.0000 0.0000 0.0000 14.3805 0.0000
# 6 0.0000 0.0000 0.0000 0.0000 0.0000 19.7721
#
#
#
# Elastic Compliance Matrix: (Units=1/GPa)
#
#
# Indices 1 2 3 4 5 6 
#
# 1 0.016196 -0.009092 -0.002943 0.000000 0.000000 0.000000
# 2 -0.009092 0.016196 -0.002943 0.000000 0.000000 0.000000
# 3 -0.002943 -0.002943 0.018767 0.000000 0.000000 0.000000
# 4 0.000000 0.000000 0.000000 0.069539 0.000000 0.000000
# 5 0.000000 0.000000 0.000000 0.000000 0.069539 0.000000
# 6 0.000000 0.000000 0.000000 0.000000 0.000000 0.050576
#
#
# Mechanical properties :
#
#
# Convention : Reuss Voigt Hill
#
# Bulk Modulus (GPa) = 47.16792 54.04010 50.60401
# Shear Modulus (GPa) = 17.99617 19.75401 18.87509
#
# Velocity S-wave (km/s) = 3.34424 3.50376 3.42493
# Velocity P-wave (km/s) = 6.65019 7.06770 6.86212
#
# Compressibility (1/GPa) = 0.02120085
#
# Stress axis : x y z
#
# Youngs Moduli (GPa) = 61.74441 61.74441 53.28479
#
# Poissons Ratio (x) = 0.56140 0.15683
# Poissons Ratio (y) = 0.56140 0.15683
# Poissons Ratio (z) = 0.18173 0.18173
#
# Static dielectric constant tensor:
#      x y z
#    x 3.035930 0.000000 0.000000 
#    y 0.000000 3.035930 0.000000 
#    z 0.000000 0.000000 3.168140 
# 
# 
# High freq. dielectric constant tensor:
#      x y z
#    x 1.607120 0.000000 0.000000 
#    y 0.000000 1.607120 0.000000 
#    z 0.000000 0.000000 1.599840 
# 
# From -- ./inp_files/10038.got.cif
#   From: 2010.03.12/outbox.cif.g09.slc.cpg/sg191_6_cif.got.tgz:10038.got - 2010.04.01 12:09:02.
