data_PCOD8328241
_publ_section_title
;
Structure prediction by ZEFSAII (Michael W. Deem and Ramdas Pophale) SiO2 
 PCOD8328241
Probable space group: P 6/M M M
;
_chemical_formula_sum "Si O2"
_cell_formula_units_Z 120
_cell_length_a 28.123244
_cell_length_b 28.123244
_cell_length_c 12.088098
_cell_angle_alpha 90.000000
_cell_angle_beta 90.000000
_cell_angle_gamma 120.000000
_cell_volume 8279.792130
_symmetry_space_group_name_H-M "P 6/M M M"
_symmetry_group_IT_number 191
_symmetry_cell_setting 'hexagonal'
loop_
_space_group_symop_operation_xyz
x,y,z
x-y,x,z
-y,x-y,z
-x,-y,z
-x+y,-x,z
y,-x+y,z
x-y,-y,-z
-x,-x+y,-z
y,x,-z
-y,-x,-z
-x+y,y,-z
x,x-y,-z
-x,-y,-z
-x+y,-x,-z
y,-x+y,-z
x,y,-z
x-y,x,-z
-y,x-y,-z
-x+y,y,z
x,x-y,z
-y,-x,z
y,x,z
x-y,-y,z
-x,-x+y,z
loop_
_atom_site_type_symbol
_atom_site_label
_atom_site_fract_x
_atom_site_fract_y
_atom_site_fract_z
Si Si1 0.567251 0.840687 0.000000
Si Si2 0.566869 0.783434 0.376258
Si Si3 0.586687 0.522465 0.624742
Si Si4 0.937945 0.696713 0.239180
Si Si5 0.151342 0.302684 0.376792
Si Si6 0.306818 0.434737 0.763596
Si Si7 0.939803 0.251412 0.000000
O O1 0.541835 0.849874 0.887410
O O2 0.562955 0.781478 0.000000
O O3 0.629145 0.888203 0.000000
O O4 0.542675 0.771338 0.500000
O O5 0.632181 0.816091 0.378307
O O6 0.545477 0.726451 0.313147
O O7 0.611506 0.532841 0.500000
O O8 0.541007 0.458994 0.638489
O O9 0.560542 0.560542 0.645876
O O10 0.632026 0.536809 0.717678
O O11 0.906321 0.718425 0.315390
O O12 0.910774 0.630944 0.239797
O O13 0.000000 0.723178 0.284118
O O14 0.936611 0.717110 0.113556
O O15 0.139095 0.278189 0.500000
O O16 0.000000 0.308250 0.000000
#
# Coordination Sequence:
#
# PCOD8328241 Si02
#       7
#    12  12  24  24  12  24  12
#     4  10  18  28  43  64  92 125 145 180 224 257
#     4   9  16  25  39  61  85 106 139 182 217 255
#     4   9  18  32  48  65  87 118 154 190 230 272
#     4   9  17  27  40  58  80 108 143 180 214 250
#     4   9  18  27  35  53  79 108 140 173 211 256
#     4  10  17  28  44  63  88 115 149 178 219 264
#     4   8  16  26  40  59  76 103 146 180 207 244
#
# _framework density 14.493118000000001
#
# number of rings (size 3 to 8) (size 9 to 14) (size 15 to 20)
#    0.000    2.800    1.000    1.800    4.200    2.000 
#    0.000    0.500    0.000    1.200    0.000    0.000 
#    1.000    0.000    1.200    0.300    0.000    1.300 
#
# Total GULP energy -1486819.805533 kJ/mol
# GULP energy per Si atom -12390.165046 kJ/mol
# Density = 1.446013 g / cm^3
# Si number density = 14.493118 Si / 1000 Ang^3
#
#
#
# Elastic Constant Matrix: (Units=GPa)
#
#
# Indices 1 2 3 4 5 6 
#
# 1 64.2947 21.8294 47.3734 0.0000 0.0000 0.0000
# 2 21.8294 64.2947 47.3734 0.0000 0.0000 0.0000
# 3 47.3734 47.3734 142.2985 0.0000 0.0000 0.0000
# 4 0.0000 0.0000 0.0000 21.9945 0.0000 0.0000
# 5 0.0000 0.0000 0.0000 0.0000 21.9945 0.0000
# 6 0.0000 0.0000 0.0000 0.0000 0.0000 21.2326
#
#
#
# Elastic Compliance Matrix: (Units=1/GPa)
#
#
# Indices 1 2 3 4 5 6 
#
# 1 0.020935 -0.002614 -0.006099 0.000000 0.000000 0.000000
# 2 -0.002614 0.020935 -0.006099 0.000000 0.000000 0.000000
# 3 -0.006099 -0.006099 0.011089 0.000000 0.000000 0.000000
# 4 0.000000 0.000000 0.000000 0.045466 0.000000 0.000000
# 5 0.000000 0.000000 0.000000 0.000000 0.045466 0.000000
# 6 0.000000 0.000000 0.000000 0.000000 0.000000 0.047097
#
#
# Mechanical properties :
#
#
# Convention : Reuss Voigt Hill
#
# Bulk Modulus (GPa) = 42.85693 56.00450 49.43072
# Shear Modulus (GPa) = 21.89231 23.33177 22.61204
#
# Velocity S-wave (km/s) = 3.89077 4.01665 3.95421
# Velocity P-wave (km/s) = 7.05825 7.76127 7.41809
#
# Compressibility (1/GPa) = 0.02333345
#
# Stress axis : x y z
#
# Youngs Moduli (GPa) = 47.76698 47.76698 90.18209
#
# Poissons Ratio (x) = 0.12485 0.55006
# Poissons Ratio (y) = 0.12485 0.55006
# Poissons Ratio (z) = 0.29135 0.29135
#
# Static dielectric constant tensor:
#      x y z
#    x 2.590980 0.000000 0.000000 
#    y 0.000000 2.590980 0.000000 
#    z 0.000000 0.000000 3.326030 
# 
# 
# High freq. dielectric constant tensor:
#      x y z
#    x 1.519710 0.000000 0.000000 
#    y 0.000000 1.519710 0.000000 
#    z 0.000000 0.000000 1.576700 
# 
# From -- ./inp_files/3302.got.cif
#   From: 2010.03.12/outbox.cif.g09.slc.cpg/sg191_2_cif.got.tgz:3302.got - 2010.04.01 12:09:02.
