data_PCOD8328116
_publ_section_title
;
Structure prediction by ZEFSAII (Michael W. Deem and Ramdas Pophale) SiO2 
 PCOD8328116
Probable space group: P -6 2 C
;
_chemical_formula_sum "Si O2"
_cell_formula_units_Z 52
_cell_length_a 12.721297
_cell_length_b 12.721297
_cell_length_c 20.686562
_cell_angle_alpha 90.000000
_cell_angle_beta 90.000000
_cell_angle_gamma 120.000000
_cell_volume 2899.223759
_symmetry_space_group_name_H-M "P -6 2 C"
_symmetry_group_IT_number 190
_symmetry_cell_setting 'hexagonal'
loop_
_space_group_symop_operation_xyz
x,y,z
-x+y,-x,1/2-z
-y,x-y,z
x,y,1/2-z
-x+y,-x,z
-y,x-y,1/2-z
x-y,-y,-z
-x,-x+y,-z
y,x,-z
y,x,1/2+z
x-y,-y,1/2+z
-x,-x+y,1/2+z
loop_
_atom_site_type_symbol
_atom_site_label
_atom_site_fract_x
_atom_site_fract_y
_atom_site_fract_z
Si Si1 0.664113 0.575586 0.323543
Si Si2 0.092748 0.669814 0.676380
Si Si3 0.333335 0.666668 0.324479
Si Si4 0.669192 0.133258 0.905177
Si Si5 0.417911 0.082300 0.558703
O O1 0.666678 0.620693 0.250000
O O2 0.562043 0.435464 0.330911
O O3 0.791042 0.587046 0.343139
O O4 0.636830 0.657805 0.371940
O O5 0.052817 0.674677 0.750000
O O6 0.986504 0.647306 0.626169
O O7 0.333334 0.666668 0.250000
O O8 0.215186 0.669858 0.346504
O O9 0.554255 0.104648 0.950426
O O10 0.792401 0.207382 0.946294
O O11 0.336366 0.000000 0.500000
#
# Coordination Sequence:
#
# PCOD8328116 Si02
#       5
#    12  12   4  12  12
#     4   9  18  31  49  75 105 136 173 213 253 299
#     4   9  16  29  50  76 105 138 173 211 254 300
#     4   9  15  27  48  75 105 132 163 212 259 303
#     4   9  19  32  48  73 102 134 171 206 255 311
#     4  10  21  35  51  75 105 134 167 210 256 307
#
# _framework density 17.935834
#
# number of rings (size 3 to 8) (size 9 to 14) (size 15 to 20)
#    0.000    2.769    0.000    1.615    0.000   12.000 
#    0.000    0.000    0.000    0.923    0.000    1.615 
#    0.000    0.000    0.000    0.000    0.000    0.000 
#
# Total GULP energy -644721.804410 kJ/mol
# GULP energy per Si atom -12398.496239 kJ/mol
# Density = 1.789501 g / cm^3
# Si number density = 17.935834 Si / 1000 Ang^3
#
#
#
# Elastic Constant Matrix: (Units=GPa)
#
#
# Indices 1 2 3 4 5 6 
#
# 1 187.5750 -61.0487 34.8229 0.0032 -0.0026 -0.2426
# 2 -61.0487 187.6249 34.8025 -0.0029 0.0030 0.2319
# 3 34.8229 34.8025 77.4426 0.0001 0.0001 -0.0123
# 4 0.0032 -0.0029 0.0001 20.9348 0.0001 -0.0029
# 5 -0.0026 0.0030 0.0001 0.0001 20.9347 -0.0031
# 6 -0.2426 0.2319 -0.0123 -0.0029 -0.0031 126.5451
#
#
#
# Elastic Compliance Matrix: (Units=1/GPa)
#
#
# Indices 1 2 3 4 5 6 
#
# 1 0.007262 0.003238 -0.004721 -0.000001 0.000000 0.000008
# 2 0.003238 0.007259 -0.004718 0.000001 -0.000001 -0.000008
# 3 -0.004721 -0.004718 0.017156 0.000000 0.000000 0.000001
# 4 -0.000001 0.000001 0.000000 0.047767 0.000000 0.000001
# 5 0.000000 -0.000001 0.000000 0.000000 0.047768 0.000001
# 6 0.000008 -0.000008 0.000001 0.000001 0.000001 0.007902
#
#
# Mechanical properties :
#
#
# Convention : Reuss Voigt Hill
#
# Bulk Modulus (GPa) = 51.88012 52.19954 52.03983
# Shear Modulus (GPa) = 32.48040 63.28731 47.88385
#
# Velocity S-wave (km/s) = 4.26011 5.94660 5.17255
# Velocity P-wave (km/s) = 7.29289 8.73590 8.04681
#
# Compressibility (1/GPa) = 0.01927521
#
# Stress axis : x y z
#
# Youngs Moduli (GPa) = 137.71229 137.76692 58.28951
#
# Poissons Ratio (x) = -0.44613 0.27516
# Poissons Ratio (y) = -0.44596 0.27502
# Poissons Ratio (z) = 0.65007 0.65001
#
# Static dielectric constant tensor:
#      x y z
#    x 2.362400 -0.003020 0.000270 
#    y -0.003020 2.337540 0.000050 
#    z 0.000270 0.000050 3.213320 
# 
# 
# High freq. dielectric constant tensor:
#      x y z
#    x 1.678790 0.000000 0.000000 
#    y 0.000000 1.678790 0.000000 
#    z 0.000000 0.000000 1.687960 
# 
# From -- ./inp_files/4185.got.cif
#   From: 2010.06.25/outbox.cif.g09.slc.cpg/sg190_3_cif.got.tgz:4185.got - 2010.06.28 13:08:06.
