data_PCOD8328989
_publ_section_title
;
Structure prediction by ZEFSAII (Michael W. Deem and Ramdas Pophale) SiO2 
 PCOD8328989
Probable space group: P 6/M M M
;
_chemical_formula_sum "Si O2"
_cell_formula_units_Z 132
_cell_length_a 18.071122
_cell_length_b 18.071122
_cell_length_c 28.064240
_cell_angle_alpha 90.000000
_cell_angle_beta 90.000000
_cell_angle_gamma 120.000000
_cell_volume 7936.959298
_symmetry_space_group_name_H-M "P 6/M M M"
_symmetry_group_IT_number 191
_symmetry_cell_setting 'hexagonal'
loop_
_space_group_symop_operation_xyz
x,y,z
x-y,x,z
-y,x-y,z
-x,-y,z
-x+y,-x,z
y,-x+y,z
x-y,-y,-z
-x,-x+y,-z
y,x,-z
-y,-x,-z
-x+y,y,-z
x,x-y,-z
-x,-y,-z
-x+y,-x,-z
y,-x+y,-z
x,y,-z
x-y,x,-z
-y,x-y,-z
-x+y,y,z
x,x-y,z
-y,-x,z
y,x,z
x-y,-y,z
-x,-x+y,z
loop_
_atom_site_type_symbol
_atom_site_label
_atom_site_fract_x
_atom_site_fract_y
_atom_site_fract_z
Si Si1 0.098802 0.467119 0.350026
Si Si2 0.164224 0.666585 0.921231
Si Si3 0.264079 0.901959 0.733649
Si Si4 0.333482 0.496916 0.812029
Si Si5 0.735097 0.095467 0.000000
Si Si6 0.836174 0.331376 0.448661
O O1 0.141806 0.570903 0.345829
O O2 0.134225 0.429047 0.310335
O O3 0.113546 0.438956 0.402682
O O4 0.000000 0.426839 0.340404
O O5 0.151610 0.575805 0.937349
O O6 0.263533 0.736467 0.928315
O O7 0.135762 0.663686 0.866713
O O8 0.105749 0.689738 0.953324
O O9 0.161424 0.838577 0.738240
O O10 0.312507 0.898074 0.780821
O O11 0.285836 0.000000 0.726488
O O12 0.262033 0.524066 0.804336
O O13 0.424079 0.575922 0.796044
O O14 0.836381 0.163620 0.000000
O O15 0.721263 0.000000 0.000000
O O16 0.870292 0.316460 0.500000
O O17 0.848549 0.424275 0.449661
O O18 0.736819 0.263182 0.442586
#
# Coordination Sequence:
#
# PCOD8328989 Si02
#       6
#    24  24  24  24  12  24
#     4   9  17  28  42  61  84 109 137 169 207 254
#     4   9  17  29  46  69  98 130 159 183 208 244
#     4  10  20  33  48  65  86 112 143 180 223 269
#     4   9  17  29  46  69  97 128 158 184 209 241
#     4  10  21  35  49  66  89 117 150 190 235 277
#     4   9  16  25  37  53  75 105 141 177 207 234
#
# _framework density 16.631053999999999
#
# number of rings (size 3 to 8) (size 9 to 14) (size 15 to 20)
#    0.000    2.727    0.000    1.909    0.000    5.091 
#    0.000    4.545    0.000    6.091    0.000    0.000 
#    0.000    0.000    0.000    9.091    0.000    0.000 
#
# Total GULP energy -1635874.055240 kJ/mol
# GULP energy per Si atom -12392.985267 kJ/mol
# Density = 1.659320 g / cm^3
# Si number density = 16.631054 Si / 1000 Ang^3
#
#
#
# Elastic Constant Matrix: (Units=GPa)
#
#
# Indices 1 2 3 4 5 6 
#
# 1 66.2646 39.6002 31.9411 0.0000 0.0000 0.0000
# 2 39.6002 66.2646 31.9411 0.0000 0.0000 0.0000
# 3 31.9411 31.9411 94.1665 0.0000 0.0000 0.0000
# 4 0.0000 0.0000 0.0000 11.6770 0.0000 0.0000
# 5 0.0000 0.0000 0.0000 0.0000 11.6770 0.0000
# 6 0.0000 0.0000 0.0000 0.0000 0.0000 13.3322
#
#
#
# Elastic Compliance Matrix: (Units=1/GPa)
#
#
# Indices 1 2 3 4 5 6 
#
# 1 0.024690 -0.012813 -0.004029 0.000000 0.000000 0.000000
# 2 -0.012813 0.024690 -0.004029 0.000000 0.000000 0.000000
# 3 -0.004029 -0.004029 0.013353 0.000000 0.000000 0.000000
# 4 0.000000 0.000000 0.000000 0.085638 0.000000 0.000000
# 5 0.000000 0.000000 0.000000 0.000000 0.085638 0.000000
# 6 0.000000 0.000000 0.000000 0.000000 0.000000 0.075006
#
#
# Mechanical properties :
#
#
# Convention : Reuss Voigt Hill
#
# Bulk Modulus (GPa) = 47.63739 48.18452 47.91095
# Shear Modulus (GPa) = 13.97609 15.55147 14.76378
#
# Velocity S-wave (km/s) = 2.90204 3.06124 2.98270
# Velocity P-wave (km/s) = 6.31941 6.44441 6.38222
#
# Compressibility (1/GPa) = 0.02099192
#
# Stress axis : x y z
#
# Youngs Moduli (GPa) = 40.50210 40.50210 74.89223
#
# Poissons Ratio (x) = 0.51895 0.30172
# Poissons Ratio (y) = 0.51895 0.30172
# Poissons Ratio (z) = 0.16317 0.16317
#
# Static dielectric constant tensor:
#      x y z
#    x 2.865870 0.000000 0.000000 
#    y 0.000000 2.865870 0.000000 
#    z 0.000000 0.000000 3.693250 
# 
# 
# High freq. dielectric constant tensor:
#      x y z
#    x 1.606090 0.000000 0.000000 
#    y 0.000000 1.606090 0.000000 
#    z 0.000000 0.000000 1.664570 
# 
# From -- ./inp_files/9758.got.cif
#   From: 2010.03.12/outbox.cif.g09.slc.cpg/sg191_5_cif.got.tgz:9758.got - 2010.04.01 12:09:02.
