data_PCOD8328700
_publ_section_title
;
Structure prediction by ZEFSAII (Michael W. Deem and Ramdas Pophale) SiO2 
 PCOD8328700
Probable space group: P 6/M M M
;
_chemical_formula_sum "Si O2"
_cell_formula_units_Z 120
_cell_length_a 18.256128
_cell_length_b 18.256128
_cell_length_c 25.665488
_cell_angle_alpha 90.000000
_cell_angle_beta 90.000000
_cell_angle_gamma 120.000000
_cell_volume 7407.940784
_symmetry_space_group_name_H-M "P 6/M M M"
_symmetry_group_IT_number 191
_symmetry_cell_setting 'hexagonal'
loop_
_space_group_symop_operation_xyz
x,y,z
x-y,x,z
-y,x-y,z
-x,-y,z
-x+y,-x,z
y,-x+y,z
x-y,-y,-z
-x,-x+y,-z
y,x,-z
-y,-x,-z
-x+y,y,-z
x,x-y,-z
-x,-y,-z
-x+y,-x,-z
y,-x+y,-z
x,y,-z
x-y,x,-z
-y,x-y,-z
-x+y,y,z
x,x-y,z
-y,-x,z
y,x,z
x-y,-y,z
-x,-x+y,z
loop_
_atom_site_type_symbol
_atom_site_label
_atom_site_fract_x
_atom_site_fract_y
_atom_site_fract_z
Si Si1 0.366703 0.459897 0.838466
Si Si2 0.666518 0.500716 0.440148
Si Si3 0.502280 0.668982 0.943750
Si Si4 0.498751 0.330867 0.730814
Si Si5 0.734293 0.638173 0.644877
O O1 0.452618 0.547383 0.844658
O O2 0.384289 0.384289 0.825427
O O3 0.316912 0.438144 0.893758
O O4 0.314201 0.467077 0.790608
O O5 0.662151 0.523773 0.500000
O O6 0.735986 0.471971 0.432110
O O7 0.576732 0.423269 0.421497
O O8 0.690919 0.583748 0.406763
O O9 0.467720 0.733860 0.939104
O O10 0.424160 0.575841 0.942357
O O11 0.549912 0.682094 0.000000
O O12 0.531419 0.265710 0.717223
O O13 0.573809 0.426192 0.721375
O O14 0.420387 0.312668 0.694428
O O15 0.835261 0.670521 0.645860
O O16 0.717865 0.717865 0.645528
#
# Coordination Sequence:
#
# PCOD8328700 Si02
#       5
#    24  24  24  24  24
#     4   9  17  27  38  53  74 102 136 173 210 246
#     4   9  17  29  46  69  98 131 163 191 218 252
#     4   9  16  25  37  52  70  93 123 162 209 259
#     4  10  19  30  45  65  90 119 149 179 211 251
#     4  10  21  35  50  68  90 117 148 184 227 271
#
# _framework density 16.198833
#
# number of rings (size 3 to 8) (size 9 to 14) (size 15 to 20)
#    0.000    2.600    0.000    2.400    0.000    4.800 
#    0.000    7.000    0.000    0.200    0.000    0.000 
#    0.000    0.000    0.000    5.000    0.000    0.000 
#
# Total GULP energy -1487016.455825 kJ/mol
# GULP energy per Si atom -12391.803799 kJ/mol
# Density = 1.616196 g / cm^3
# Si number density = 16.198833 Si / 1000 Ang^3
#
#
#
# Elastic Constant Matrix: (Units=GPa)
#
#
# Indices 1 2 3 4 5 6 
#
# 1 64.3886 39.6625 29.9915 0.0000 0.0000 0.0000
# 2 39.6625 64.3886 29.9915 0.0000 0.0000 0.0000
# 3 29.9915 29.9915 102.2992 0.0000 0.0000 0.0000
# 4 0.0000 0.0000 0.0000 17.2757 0.0000 0.0000
# 5 0.0000 0.0000 0.0000 0.0000 17.2757 0.0000
# 6 0.0000 0.0000 0.0000 0.0000 0.0000 12.3631
#
#
#
# Elastic Compliance Matrix: (Units=1/GPa)
#
#
# Indices 1 2 3 4 5 6 
#
# 1 0.026004 -0.014439 -0.003391 0.000000 0.000000 0.000000
# 2 -0.014439 0.026004 -0.003391 0.000000 0.000000 0.000000
# 3 -0.003391 -0.003391 0.011763 0.000000 0.000000 0.000000
# 4 0.000000 0.000000 0.000000 0.057885 0.000000 0.000000
# 5 0.000000 0.000000 0.000000 0.000000 0.057885 0.000000
# 6 0.000000 0.000000 0.000000 0.000000 0.000000 0.080886
#
#
# Mechanical properties :
#
#
# Convention : Reuss Voigt Hill
#
# Bulk Modulus (GPa) = 46.87940 47.81862 47.34901
# Shear Modulus (GPa) = 16.13017 18.14495 17.13756
#
# Velocity S-wave (km/s) = 3.15899 3.35048 3.25614
# Velocity P-wave (km/s) = 6.50449 6.67469 6.59014
#
# Compressibility (1/GPa) = 0.02133133
#
# Stress axis : x y z
#
# Youngs Moduli (GPa) = 38.45537 38.45537 85.00980
#
# Poissons Ratio (x) = 0.55525 0.28824
# Poissons Ratio (y) = 0.55525 0.28824
# Poissons Ratio (z) = 0.13039 0.13039
#
# Static dielectric constant tensor:
#      x y z
#    x 2.794550 0.000000 0.000000 
#    y 0.000000 2.794550 0.000000 
#    z 0.000000 0.000000 3.574070 
# 
# 
# High freq. dielectric constant tensor:
#      x y z
#    x 1.582640 0.000000 0.000000 
#    y 0.000000 1.582640 0.000000 
#    z 0.000000 0.000000 1.652140 
# 
# From -- ./inp_files/10250.got.cif
#   From: 2010.03.12/outbox.cif.g09.slc.cpg/sg191_6_cif.got.tgz:10250.got - 2010.04.01 12:09:02.
