data_PCOD8328910
_publ_section_title
;
Structure prediction by ZEFSAII (Michael W. Deem and Ramdas Pophale) SiO2 
 PCOD8328910
Probable space group: P 6/M M M
;
_chemical_formula_sum "Si O2"
_cell_formula_units_Z 96
_cell_length_a 15.313637
_cell_length_b 15.313637
_cell_length_c 23.873892
_cell_angle_alpha 90.000000
_cell_angle_beta 90.000000
_cell_angle_gamma 120.000000
_cell_volume 4848.535201
_symmetry_space_group_name_H-M "P 6/M M M"
_symmetry_group_IT_number 191
_symmetry_cell_setting 'hexagonal'
loop_
_space_group_symop_operation_xyz
x,y,z
x-y,x,z
-y,x-y,z
-x,-y,z
-x+y,-x,z
y,-x+y,z
x-y,-y,-z
-x,-x+y,-z
y,x,-z
-y,-x,-z
-x+y,y,-z
x,x-y,-z
-x,-y,-z
-x+y,-x,-z
y,-x+y,-z
x,y,-z
x-y,x,-z
-y,x-y,-z
-x+y,y,z
x,x-y,z
-y,-x,z
y,x,z
x-y,-y,z
-x,-x+y,z
loop_
_atom_site_type_symbol
_atom_site_label
_atom_site_fract_x
_atom_site_fract_y
_atom_site_fract_z
Si Si1 0.111644 0.555822 0.132111
Si Si2 0.399845 0.399845 0.434534
Si Si3 0.565053 0.782527 0.867680
Si Si4 0.444167 0.555834 0.265315
Si Si5 0.234181 0.117091 0.936299
Si Si6 0.228147 0.114074 0.329421
Si Si7 0.653762 0.826881 0.434533
Si Si8 0.564170 0.782085 0.734447
O O1 0.166317 0.497223 0.109837
O O2 0.111291 0.555646 0.198679
O O3 0.000000 0.500000 0.107056
O O4 0.500000 0.500000 0.408593
O O5 0.411035 0.411035 0.500000
O O6 0.400830 0.294644 0.419036
O O7 0.674308 0.837154 0.893777
O O8 0.578197 0.789099 0.801020
O O9 0.500000 0.500000 0.290309
O O10 0.331335 0.497917 0.287760
O O11 0.166327 0.166327 0.923651
O O12 0.274336 0.137168 0.000000
O O13 0.165923 0.165923 0.310128
O O14 0.246345 0.123173 0.396361
O O15 0.330276 0.165138 0.295189
O O16 0.683549 0.841775 0.500000
#
# Coordination Sequence:
#
# PCOD8328910 Si02
#       8
#    12  12  12  12  12  12  12  12
#     4   9  17  29  51  80 106 137 178 220 266 323
#     4   9  18  36  62  89 117 151 195 246 297 358
#     4  10  19  35  58  82 113 149 186 229 284 348
#     4   9  17  33  54  77 106 141 179 219 264 332
#     4  10  21  37  57  81 110 148 196 246 291 338
#     4  12  25  41  58  83 114 152 195 250 302 348
#     4  10  20  39  64  86 115 156 198 243 298 360
#     4  10  21  37  58  85 114 147 186 233 290 346
#
# _framework density 19.799793000000001
#
# number of rings (size 3 to 8) (size 9 to 14) (size 15 to 20)
#    0.000    2.125    1.250    2.250    0.000    5.500 
#    3.000    0.625    0.000    4.500    0.000    0.000 
#    0.000    0.000    0.000    0.000    0.000    0.000 
#
# Total GULP energy -1189592.149455 kJ/mol
# GULP energy per Si atom -12391.584890 kJ/mol
# Density = 1.975473 g / cm^3
# Si number density = 19.799793 Si / 1000 Ang^3
#
#
#
# Elastic Constant Matrix: (Units=GPa)
#
#
# Indices 1 2 3 4 5 6 
#
# 1 197.8172 105.6752 35.4645 0.0000 0.0000 0.0000
# 2 105.6752 197.8172 35.4645 0.0000 0.0000 0.0000
# 3 35.4645 35.4645 42.7107 0.0000 0.0000 0.0000
# 4 0.0000 0.0000 0.0000 26.1575 0.0000 0.0000
# 5 0.0000 0.0000 0.0000 0.0000 26.1575 0.0000
# 6 0.0000 0.0000 0.0000 0.0000 0.0000 46.0710
#
#
#
# Elastic Compliance Matrix: (Units=1/GPa)
#
#
# Indices 1 2 3 4 5 6 
#
# 1 0.007471 -0.003382 -0.003395 0.000000 0.000000 0.000000
# 2 -0.003382 0.007471 -0.003395 0.000000 0.000000 0.000000
# 3 -0.003395 -0.003395 0.029051 0.000000 0.000000 0.000000
# 4 0.000000 0.000000 0.000000 0.038230 0.000000 0.000000
# 5 0.000000 0.000000 0.000000 0.000000 0.038230 0.000000
# 6 0.000000 0.000000 0.000000 0.000000 0.000000 0.021706
#
#
# Mechanical properties :
#
#
# Convention : Reuss Voigt Hill
#
# Bulk Modulus (GPa) = 42.28564 87.95038 65.11801
# Shear Modulus (GPa) = 29.34550 37.12659 33.23604
#
# Velocity S-wave (km/s) = 3.85400 4.33494 4.10152
# Velocity P-wave (km/s) = 6.41930 8.34098 7.44242
#
# Compressibility (1/GPa) = 0.02364869
#
# Stress axis : x y z
#
# Youngs Moduli (GPa) = 133.85830 133.85830 34.42233
#
# Poissons Ratio (x) = 0.45274 0.11685
# Poissons Ratio (y) = 0.45274 0.11685
# Poissons Ratio (z) = 0.45441 0.45441
#
# Static dielectric constant tensor:
#      x y z
#    x 3.967890 0.000000 0.000000 
#    y 0.000000 3.967890 0.000000 
#    z 0.000000 0.000000 3.297460 
# 
# 
# High freq. dielectric constant tensor:
#      x y z
#    x 1.783980 0.000000 0.000000 
#    y 0.000000 1.783980 0.000000 
#    z 0.000000 0.000000 1.744160 
# 
# From -- ./inp_files/9449.got.cif
#   From: 2010.03.12/outbox.cif.g09.slc.cpg/sg191_5_cif.got.tgz:9449.got - 2010.04.01 12:09:02.
