data_PCOD8328488
_publ_section_title
;
Structure prediction by ZEFSAII (Michael W. Deem and Ramdas Pophale) SiO2 
 PCOD8328488
Probable space group: P 6/M M M
;
_chemical_formula_sum "Si O2"
_cell_formula_units_Z 168
_cell_length_a 22.068752
_cell_length_b 22.068752
_cell_length_c 23.654165
_cell_angle_alpha 90.000000
_cell_angle_beta 90.000000
_cell_angle_gamma 120.000000
_cell_volume 9976.858256
_symmetry_space_group_name_H-M "P 6/M M M"
_symmetry_group_IT_number 191
_symmetry_cell_setting 'hexagonal'
loop_
_space_group_symop_operation_xyz
x,y,z
x-y,x,z
-y,x-y,z
-x,-y,z
-x+y,-x,z
y,-x+y,z
x-y,-y,-z
-x,-x+y,-z
y,x,-z
-y,-x,-z
-x+y,y,-z
x,x-y,-z
-x,-y,-z
-x+y,-x,-z
y,-x+y,-z
x,y,-z
x-y,x,-z
-y,x-y,-z
-x+y,y,z
x,x-y,z
-y,-x,z
y,x,z
x-y,-y,z
-x,-x+y,z
loop_
_atom_site_type_symbol
_atom_site_label
_atom_site_fract_x
_atom_site_fract_y
_atom_site_fract_z
Si Si1 0.080013 0.676551 0.769004
Si Si2 0.810746 0.476581 0.842366
Si Si3 0.134570 0.724057 0.353071
Si Si4 0.790361 0.076697 0.563165
Si Si5 0.921094 0.219084 0.853566
Si Si6 0.807975 0.472681 0.437142
Si Si7 0.861896 0.581382 0.062311
O O1 0.134984 0.654766 0.792446
O O2 0.091242 0.688052 0.702593
O O3 0.093717 0.748946 0.797455
O O4 0.000000 0.615522 0.780928
O O5 0.738395 0.476789 0.833073
O O6 0.794665 0.397333 0.842601
O O7 0.848280 0.513907 0.901227
O O8 0.209619 0.790382 0.337590
O O9 0.088763 0.745012 0.391274
O O10 0.141392 0.666195 0.389405
O O11 0.768685 0.088085 0.500000
O O12 0.872025 0.127976 0.573972
O O13 0.779351 0.000000 0.570529
O O14 0.863812 0.136189 0.856674
O O15 0.915674 0.262110 0.906734
O O16 0.000000 0.230943 0.853197
O O17 0.841688 0.494790 0.500000
O O18 0.736268 0.472536 0.436174
O O19 0.792461 0.396231 0.420807
O O20 0.789544 0.579087 0.055617
O O21 0.891150 0.578504 0.000000
#
# Coordination Sequence:
#
# PCOD8328488 Si02
#       7
#    24  24  24  24  24  24  24
#     4  10  20  34  51  69  91 121 157 198 241 282
#     4  10  20  34  51  71  97 128 160 194 234 282
#     4  10  18  29  47  70  93 115 146 190 236 279
#     4   9  17  29  46  68  92 116 142 175 217 265
#     4   9  17  30  49  72  98 128 162 200 241 284
#     4   9  17  29  45  65  90 121 156 192 230 273
#     4   8  15  29  48  70  96 124 155 192 230 267
#
# _framework density 16.838968999999999
#
# number of rings (size 3 to 8) (size 9 to 14) (size 15 to 20)
#    0.000    2.714    0.000    3.286    0.000    3.714 
#    0.000    0.000    0.000    4.143    0.000   10.000 
#    0.000    0.000    0.000    8.143    0.000    3.143 
#
# Total GULP energy -2082301.857577 kJ/mol
# GULP energy per Si atom -12394.653914 kJ/mol
# Density = 1.680064 g / cm^3
# Si number density = 16.838969 Si / 1000 Ang^3
#
#
#
# Elastic Constant Matrix: (Units=GPa)
#
#
# Indices 1 2 3 4 5 6 
#
# 1 70.7499 39.2020 39.9165 0.0000 0.0000 0.0000
# 2 39.2020 70.7499 39.9165 0.0000 0.0000 0.0000
# 3 39.9165 39.9165 123.1172 0.0000 0.0000 0.0000
# 4 0.0000 0.0000 0.0000 14.0780 0.0000 0.0000
# 5 0.0000 0.0000 0.0000 0.0000 14.0780 0.0000
# 6 0.0000 0.0000 0.0000 0.0000 0.0000 15.7740
#
#
#
# Elastic Compliance Matrix: (Units=1/GPa)
#
#
# Indices 1 2 3 4 5 6 
#
# 1 0.021796 -0.009901 -0.003857 0.000000 0.000000 0.000000
# 2 -0.009901 0.021796 -0.003857 0.000000 0.000000 0.000000
# 3 -0.003857 -0.003857 0.010623 0.000000 0.000000 0.000000
# 4 0.000000 0.000000 0.000000 0.071033 0.000000 0.000000
# 5 0.000000 0.000000 0.000000 0.000000 0.071033 0.000000
# 6 0.000000 0.000000 0.000000 0.000000 0.000000 0.063396
#
#
# Mechanical properties :
#
#
# Convention : Reuss Voigt Hill
#
# Bulk Modulus (GPa) = 52.66795 55.85414 54.26104
# Shear Modulus (GPa) = 16.59834 18.49146 17.54490
#
# Velocity S-wave (km/s) = 3.14301 3.31741 3.23138
# Velocity P-wave (km/s) = 6.67208 6.92208 6.79823
#
# Compressibility (1/GPa) = 0.01898688
#
# Stress axis : x y z
#
# Youngs Moduli (GPa) = 45.87909 45.87909 94.13494
#
# Poissons Ratio (x) = 0.45427 0.36304
# Poissons Ratio (y) = 0.45427 0.36304
# Poissons Ratio (z) = 0.17694 0.17694
#
# Static dielectric constant tensor:
#      x y z
#    x 3.025620 0.000000 0.000000 
#    y 0.000000 3.025620 0.000000 
#    z 0.000000 0.000000 3.468740 
# 
# 
# High freq. dielectric constant tensor:
#      x y z
#    x 1.630870 0.000000 0.000000 
#    y 0.000000 1.630870 0.000000 
#    z 0.000000 0.000000 1.658270 
# 
# From -- ./inp_files/7913.got.cif
#   From: 2010.03.12/outbox.cif.g09.slc.cpg/sg191_4_cif.got.tgz:7913.got - 2010.04.01 12:09:02.
