data_PCOD8328210
_publ_section_title
;
Structure prediction by ZEFSAII (Michael W. Deem and Ramdas Pophale) SiO2 
 PCOD8328210
Probable space group: P -6 2 C
;
_chemical_formula_sum "Si O2"
_cell_formula_units_Z 72
_cell_length_a 21.649409
_cell_length_b 21.649409
_cell_length_c 10.245606
_cell_angle_alpha 90.000000
_cell_angle_beta 90.000000
_cell_angle_gamma 120.000000
_cell_volume 4158.726626
_symmetry_space_group_name_H-M "P -6 2 C"
_symmetry_group_IT_number 190
_symmetry_cell_setting 'hexagonal'
loop_
_space_group_symop_operation_xyz
x,y,z
-x+y,-x,1/2-z
-y,x-y,z
x,y,1/2-z
-x+y,-x,z
-y,x-y,1/2-z
x-y,-y,-z
-x,-x+y,-z
y,x,-z
y,x,1/2+z
x-y,-y,1/2+z
-x,-x+y,1/2+z
loop_
_atom_site_type_symbol
_atom_site_label
_atom_site_fract_x
_atom_site_fract_y
_atom_site_fract_z
Si Si1 0.804773 0.471046 0.405615
Si Si2 0.000000 0.768335 0.000000
Si Si3 0.768335 0.768335 0.500000
Si Si4 0.374031 0.259450 0.106030
Si Si5 0.001189 0.854946 0.250000
Si Si6 0.259450 0.885419 0.893970
Si Si7 0.804773 0.333726 0.094385
Si Si8 0.998811 0.145054 0.750000
O O1 0.801487 0.468330 0.250000
O O2 0.870556 0.549031 0.447990
O O3 0.818622 0.409311 0.462037
O O4 0.729190 0.458380 0.460572
O O5 0.991963 0.807698 0.875749
O O6 0.067818 0.757147 0.993121
O O7 0.689328 0.757147 0.506879
O O8 0.815735 0.807698 0.624251
O O9 0.356999 0.279226 0.250000
O O10 0.381763 0.190881 0.121424
O O11 0.925542 0.851084 0.250000
O O12 0.062933 0.937067 0.250000
O O13 0.279226 0.922227 0.750000
O O14 0.321526 0.870556 0.947990
O O15 0.801487 0.333157 0.250000
#
# Coordination Sequence:
#
# PCOD8328210 Si02
#       8
#    12   6   6  12   6  12  12   6
#     4   8  13  22  41  69 101 133 167 208 251 291
#     4  12  22  36  56  76 100 134 168 200 244 304
#     4  12  22  36  56  76 100 134 168 200 244 304
#     4   9  17  31  48  69  98 132 169 205 244 295
#     4  12  25  40  58  78 101 126 160 208 258 304
#     4   9  17  31  48  69  98 132 169 205 244 295
#     4   8  13  22  41  69 101 133 167 208 251 291
#     4  12  25  40  58  78 101 126 160 208 258 304
#
# _framework density 17.312991
#
# number of rings (size 3 to 8) (size 9 to 14) (size 15 to 20)
#    0.000    2.333    1.667    5.500    0.000    1.333 
#    0.000    2.500    0.000    0.000    0.000    0.000 
#    0.000    0.000    0.000    4.333    0.000    1.333 
#
# Total GULP energy -892250.243966 kJ/mol
# GULP energy per Si atom -12392.364500 kJ/mol
# Density = 1.727359 g / cm^3
# Si number density = 17.312991 Si / 1000 Ang^3
#
#
#
# Elastic Constant Matrix: (Units=GPa)
#
#
# Indices 1 2 3 4 5 6 
#
# 1 119.2894 63.5021 42.4502 0.0000 0.0000 0.0000
# 2 63.5021 119.2894 42.4502 0.0000 0.0000 0.0000
# 3 42.4502 42.4502 70.2893 0.0000 0.0000 0.0000
# 4 0.0000 0.0000 0.0000 -20.2750 0.0000 0.0000
# 5 0.0000 0.0000 0.0000 0.0000 -20.2750 0.0000
# 6 0.0000 0.0000 0.0000 0.0000 0.0000 27.8936
#
#
#
# Elastic Compliance Matrix: (Units=1/GPa)
#
#
# Indices 1 2 3 4 5 6 
#
# 1 0.012764 -0.005161 -0.004592 0.000000 0.000000 0.000000
# 2 -0.005161 0.012764 -0.004592 0.000000 0.000000 0.000000
# 3 -0.004592 -0.004592 0.019774 0.000000 0.000000 0.000000
# 4 0.000000 0.000000 0.000000 -0.049322 0.000000 0.000000
# 5 0.000000 0.000000 0.000000 0.000000 -0.049322 0.000000
# 6 0.000000 0.000000 0.000000 0.000000 0.000000 0.035850
#
#
# Mechanical properties :
#
#
# Convention : Reuss Voigt Hill
#
# Bulk Modulus (GPa) = 60.19596 67.29703 63.74650
# Shear Modulus (GPa) = 298.74198 8.16640 153.45419
#
# Velocity S-wave (km/s) = 13.15022 2.17420 9.42484
# Velocity P-wave (km/s) = 16.29158 6.72741 12.46342
#
# Compressibility (1/GPa) = 0.01661241
#
# Stress axis : x y z
#
# Youngs Moduli (GPa) = 78.34283 78.34283 50.57264
#
# Poissons Ratio (x) = 0.40431 0.23223
# Poissons Ratio (y) = 0.40431 0.23223
# Poissons Ratio (z) = 0.35976 0.35976
#
# Static dielectric constant tensor:
#      x y z
#    x 3.500400 0.000000 0.000000 
#    y 0.000000 3.500400 0.000000 
#    z 0.000000 0.000000 2.407950 
# 
# 
# High freq. dielectric constant tensor:
#      x y z
#    x 1.673060 0.000000 0.000000 
#    y 0.000000 1.673060 0.000000 
#    z 0.000000 0.000000 1.617290 
# 
# From -- ./inp_files/2101.got.cif
#   From: 2010.06.25/outbox.cif.g09.slc.cpg/sg190_2_cif.got.tgz:2101.got - 2010.06.28 13:08:06.
