data_PCOD8328581
_publ_section_title
;
Structure prediction by ZEFSAII (Michael W. Deem and Ramdas Pophale) SiO2 
 PCOD8328581
Probable space group: P 6/M M M
;
_chemical_formula_sum "Si O2"
_cell_formula_units_Z 168
_cell_length_a 21.697879
_cell_length_b 21.697879
_cell_length_c 28.782517
_cell_angle_alpha 90.000000
_cell_angle_beta 90.000000
_cell_angle_gamma 120.000000
_cell_volume 11735.293817
_symmetry_space_group_name_H-M "P 6/M M M"
_symmetry_group_IT_number 191
_symmetry_cell_setting 'hexagonal'
loop_
_space_group_symop_operation_xyz
x,y,z
x-y,x,z
-y,x-y,z
-x,-y,z
-x+y,-x,z
y,-x+y,z
x-y,-y,-z
-x,-x+y,-z
y,x,-z
-y,-x,-z
-x+y,y,-z
x,x-y,-z
-x,-y,-z
-x+y,-x,-z
y,-x+y,-z
x,y,-z
x-y,x,-z
-y,x-y,-z
-x+y,y,z
x,x-y,z
-y,-x,z
y,x,z
x-y,-y,z
-x,-x+y,z
loop_
_atom_site_type_symbol
_atom_site_label
_atom_site_fract_x
_atom_site_fract_y
_atom_site_fract_z
Si Si1 0.336035 0.417225 0.772620
Si Si2 0.694502 0.918902 0.291614
Si Si3 0.332911 0.808685 0.052719
Si Si4 0.530177 0.918843 0.130200
Si Si5 0.420061 0.140892 0.630917
Si Si6 0.472442 0.805541 0.289749
Si Si7 0.916310 0.526174 0.551560
O O1 0.396075 0.396075 0.762641
O O2 0.259520 0.354648 0.754109
O O3 0.333848 0.432069 0.827260
O O4 0.360586 0.490500 0.746127
O O5 0.720379 0.860190 0.291706
O O6 0.647443 0.911202 0.337092
O O7 0.761871 0.000000 0.291055
O O8 0.394807 0.789614 0.058545
O O9 0.260291 0.739710 0.067249
O O10 0.344442 0.872175 0.086468
O O11 0.330188 0.832291 0.000000
O O12 0.451354 0.902708 0.145021
O O13 0.577658 0.000000 0.114201
O O14 0.409359 0.204680 0.612892
O O15 0.492171 0.170376 0.660029
O O16 0.428467 0.102978 0.586142
O O17 0.390035 0.780069 0.294581
O O18 0.480881 0.740441 0.270706
O O19 0.886376 0.526776 0.500000
O O20 0.887481 0.443741 0.567057
O O21 0.000000 0.564557 0.549527
#
# Coordination Sequence:
#
# PCOD8328581 Si02
#       7
#    24  24  24  24  24  24  24
#     4   9  17  29  43  59  79 101 128 162 196 230
#     4   9  17  29  45  64  85 107 130 157 190 230
#     4   9  17  28  41  56  74  98 128 161 196 233
#     4   9  17  28  41  57  77 100 127 161 199 235
#     4   9  17  28  42  59  77 100 131 163 194 229
#     4  10  19  29  40  55  77 103 130 160 194 233
#     4   9  17  28  41  57  77 100 127 161 198 232
#
# _framework density 14.31579
#
# number of rings (size 3 to 8) (size 9 to 14) (size 15 to 20)
#    0.000    2.857    0.000    3.286    0.000    3.714 
#    0.000    1.429    0.000    2.143    0.000    0.000 
#    0.000    0.000    0.000    0.000    0.000    0.000 
#
# Total GULP energy -2082305.493733 kJ/mol
# GULP energy per Si atom -12394.675558 kJ/mol
# Density = 1.428321 g / cm^3
# Si number density = 14.315790 Si / 1000 Ang^3
#
#
#
# Elastic Constant Matrix: (Units=GPa)
#
#
# Indices 1 2 3 4 5 6 
#
# 1 72.8906 34.2637 42.4033 0.0000 0.0000 0.0000
# 2 34.2637 72.8906 42.4033 0.0000 0.0000 0.0000
# 3 42.4033 42.4033 83.7280 0.0000 0.0000 0.0000
# 4 0.0000 0.0000 0.0000 18.6056 0.0000 0.0000
# 5 0.0000 0.0000 0.0000 0.0000 18.6056 0.0000
# 6 0.0000 0.0000 0.0000 0.0000 0.0000 19.3134
#
#
#
# Elastic Compliance Matrix: (Units=1/GPa)
#
#
# Indices 1 2 3 4 5 6 
#
# 1 0.020732 -0.005157 -0.007888 0.000000 0.000000 0.000000
# 2 -0.005157 0.020732 -0.007888 0.000000 0.000000 0.000000
# 3 -0.007888 -0.007888 0.019933 0.000000 0.000000 0.000000
# 4 0.000000 0.000000 0.000000 0.053747 0.000000 0.000000
# 5 0.000000 0.000000 0.000000 0.000000 0.053747 0.000000
# 6 0.000000 0.000000 0.000000 0.000000 0.000000 0.051777
#
#
# Mechanical properties :
#
#
# Convention : Reuss Voigt Hill
#
# Bulk Modulus (GPa) = 51.19890 51.96109 51.58000
# Shear Modulus (GPa) = 18.58426 18.66749 18.62588
#
# Velocity S-wave (km/s) = 3.60691 3.61498 3.61095
# Velocity P-wave (km/s) = 7.29301 7.33480 7.31394
#
# Compressibility (1/GPa) = 0.01953167
#
# Stress axis : x y z
#
# Youngs Moduli (GPa) = 48.23470 48.23470 50.16811
#
# Poissons Ratio (x) = 0.24874 0.39572
# Poissons Ratio (y) = 0.24874 0.39572
# Poissons Ratio (z) = 0.38047 0.38047
#
# Static dielectric constant tensor:
#      x y z
#    x 2.695290 0.000000 0.000000 
#    y 0.000000 2.695290 0.000000 
#    z 0.000000 0.000000 2.818160 
# 
# 
# High freq. dielectric constant tensor:
#      x y z
#    x 1.530760 0.000000 0.000000 
#    y 0.000000 1.530760 0.000000 
#    z 0.000000 0.000000 1.543610 
# 
# From -- ./inp_files/9165.got.cif
#   From: 2010.03.12/outbox.cif.g09.slc.cpg/sg191_5_cif.got.tgz:9165.got - 2010.04.01 12:09:02.
