data_PCOD8328441
_publ_section_title
;
Structure prediction by ZEFSAII (Michael W. Deem and Ramdas Pophale) SiO2 
 PCOD8328441
Probable space group: P 6/M M M
;
_chemical_formula_sum "Si O2"
_cell_formula_units_Z 120
_cell_length_a 18.386761
_cell_length_b 18.386761
_cell_length_c 29.043612
_cell_angle_alpha 90.000000
_cell_angle_beta 90.000000
_cell_angle_gamma 120.000000
_cell_volume 8503.382595
_symmetry_space_group_name_H-M "P 6/M M M"
_symmetry_group_IT_number 191
_symmetry_cell_setting 'hexagonal'
loop_
_space_group_symop_operation_xyz
x,y,z
x-y,x,z
-y,x-y,z
-x,-y,z
-x+y,-x,z
y,-x+y,z
x-y,-y,-z
-x,-x+y,-z
y,x,-z
-y,-x,-z
-x+y,y,-z
x,x-y,-z
-x,-y,-z
-x+y,-x,-z
y,-x+y,-z
x,y,-z
x-y,x,-z
-y,x-y,-z
-x+y,y,z
x,x-y,z
-y,-x,z
y,x,z
x-y,-y,z
-x,-x+y,z
loop_
_atom_site_type_symbol
_atom_site_label
_atom_site_fract_x
_atom_site_fract_y
_atom_site_fract_z
Si Si1 0.460002 0.367659 0.642585
Si Si2 0.498302 0.331143 0.450184
Si Si3 0.000000 0.586299 0.790667
Si Si4 0.496873 0.165863 0.737796
Si Si5 0.586438 0.586438 0.894939
Si Si6 0.165952 0.499039 0.946012
O O1 0.545008 0.454993 0.637895
O O2 0.383900 0.383900 0.654538
O O3 0.438956 0.318832 0.593584
O O4 0.470278 0.315908 0.684089
O O5 0.451856 0.319388 0.500000
O O6 0.530618 0.265309 0.445785
O O7 0.577468 0.422533 0.448410
O O8 0.084366 0.656490 0.765638
O O9 0.000000 0.615485 0.842794
O O10 0.000000 0.500000 0.788638
O O11 0.589555 0.179110 0.744599
O O12 0.496486 0.248243 0.756360
O O13 0.500000 0.500000 0.897211
O O14 0.573239 0.657135 0.920154
O O15 0.246390 0.492780 0.930039
O O16 0.183164 0.591582 0.932945
O O17 0.149609 0.482781 0.000000
#
# Coordination Sequence:
#
# PCOD8328441 Si02
#       6
#    24  24  12  24  12  24
#     4   9  16  26  38  51  70  95 123 159 202 242
#     4   9  16  24  34  49  69  92 120 157 198 236
#     4   9  18  31  42  55  79 106 132 169 213 244
#     4  10  18  29  44  60  77 101 135 172 208 246
#     4   9  17  28  41  56  78 109 139 167 205 249
#     4   9  16  26  41  61  84 110 141 175 206 236
#
# _framework density 14.112031
#
# number of rings (size 3 to 8) (size 9 to 14) (size 15 to 20)
#    0.000    2.800    1.000    1.500    0.000    4.000 
#    0.000    4.000    0.000    2.400    0.000    0.000 
#    0.000    0.000    0.000    0.600    0.000    7.100 
#
# Total GULP energy -1486999.744394 kJ/mol
# GULP energy per Si atom -12391.664537 kJ/mol
# Density = 1.407991 g / cm^3
# Si number density = 14.112031 Si / 1000 Ang^3
#
#
#
# Elastic Constant Matrix: (Units=GPa)
#
#
# Indices 1 2 3 4 5 6 
#
# 1 64.5025 33.6673 36.7714 0.0000 0.0000 0.0000
# 2 33.6673 64.5025 36.7714 0.0000 0.0000 0.0000
# 3 36.7714 36.7714 86.5052 0.0000 0.0000 0.0000
# 4 0.0000 0.0000 0.0000 15.2631 0.0000 0.0000
# 5 0.0000 0.0000 0.0000 0.0000 15.2631 0.0000
# 6 0.0000 0.0000 0.0000 0.0000 0.0000 15.4176
#
#
#
# Elastic Compliance Matrix: (Units=1/GPa)
#
#
# Indices 1 2 3 4 5 6 
#
# 1 0.023688 -0.008742 -0.006353 0.000000 0.000000 0.000000
# 2 -0.008742 0.023688 -0.006353 0.000000 0.000000 0.000000
# 3 -0.006353 -0.006353 0.016961 0.000000 0.000000 0.000000
# 4 0.000000 0.000000 0.000000 0.065517 0.000000 0.000000
# 5 0.000000 0.000000 0.000000 0.000000 0.065517 0.000000
# 6 0.000000 0.000000 0.000000 0.000000 0.000000 0.064861
#
#
# Mechanical properties :
#
#
# Convention : Reuss Voigt Hill
#
# Bulk Modulus (GPa) = 46.64123 47.77003 47.20563
# Shear Modulus (GPa) = 16.11463 16.40878 16.26170
#
# Velocity S-wave (km/s) = 3.38288 3.41361 3.39828
# Velocity P-wave (km/s) = 6.95564 7.03286 6.99435
#
# Compressibility (1/GPa) = 0.02144026
#
# Stress axis : x y z
#
# Youngs Moduli (GPa) = 42.21521 42.21521 58.95841
#
# Poissons Ratio (x) = 0.36906 0.37457
# Poissons Ratio (y) = 0.36906 0.37457
# Poissons Ratio (z) = 0.26820 0.26820
#
# Static dielectric constant tensor:
#      x y z
#    x 2.562120 0.000000 0.000000 
#    y 0.000000 2.562120 0.000000 
#    z 0.000000 0.000000 3.077000 
# 
# 
# High freq. dielectric constant tensor:
#      x y z
#    x 1.500030 0.000000 0.000000 
#    y 0.000000 1.500030 0.000000 
#    z 0.000000 0.000000 1.556180 
# 
# From -- ./inp_files/10316.got.cif
#   From: 2010.03.12/outbox.cif.g09.slc.cpg/sg191_6_cif.got.tgz:10316.got - 2010.04.01 12:09:02.
