data_PCOD8328589
_publ_section_title
;
Structure prediction by ZEFSAII (Michael W. Deem and Ramdas Pophale) SiO2 
 PCOD8328589
Probable space group: P 6/M M M
;
_chemical_formula_sum "Si O2"
_cell_formula_units_Z 96
_cell_length_a 30.999751
_cell_length_b 30.999751
_cell_length_c 7.526194
_cell_angle_alpha 90.000000
_cell_angle_beta 90.000000
_cell_angle_gamma 120.000000
_cell_volume 6263.577443
_symmetry_space_group_name_H-M "P 6/M M M"
_symmetry_group_IT_number 191
_symmetry_cell_setting 'hexagonal'
loop_
_space_group_symop_operation_xyz
x,y,z
x-y,x,z
-y,x-y,z
-x,-y,z
-x+y,-x,z
y,-x+y,z
x-y,-y,-z
-x,-x+y,-z
y,x,-z
-y,-x,-z
-x+y,y,-z
x,x-y,-z
-x,-y,-z
-x+y,-x,-z
y,-x+y,-z
x,y,-z
x-y,x,-z
-y,x-y,-z
-x+y,y,z
x,x-y,z
-y,-x,z
y,x,z
x-y,-y,z
-x,-x+y,z
loop_
_atom_site_type_symbol
_atom_site_label
_atom_site_fract_x
_atom_site_fract_y
_atom_site_fract_z
Si Si1 0.224309 0.280718 0.295044
Si Si2 0.194367 0.702764 0.697719
Si Si3 0.845701 0.788938 0.000000
Si Si4 0.333723 0.768849 0.000000
Si Si5 0.383487 0.239410 0.289899
O O1 0.206156 0.273714 0.500000
O O2 0.268612 0.268612 0.269518
O O3 0.177306 0.244169 0.176066
O O4 0.246736 0.337693 0.229991
O O5 0.181746 0.679067 0.500000
O O6 0.244999 0.755002 0.693400
O O7 0.199701 0.664702 0.827214
O O8 0.151677 0.714506 0.770936
O O9 0.835087 0.835087 0.000000
O O10 0.905051 0.810102 0.000000
O O11 0.285439 0.714562 0.000000
O O12 0.381093 0.762186 0.000000
O O13 0.385848 0.236806 0.500000
O O14 0.374551 0.187276 0.208049
#
# Coordination Sequence:
#
# PCOD8328589 Si02
#       5
#    24  24  12  12  24
#     4   9  17  28  42  63  91 116 136 162 197 240
#     4   8  15  27  40  55  76 101 130 163 195 229
#     4  10  20  31  43  60  82 110 143 176 210 248
#     4  10  19  29  41  57  77 101 129 162 201 242
#     4   8  13  23  40  59  80 108 137 161 188 227
#
# _framework density 15.326703999999999
#
# number of rings (size 3 to 8) (size 9 to 14) (size 15 to 20)
#    0.000    3.250    0.000    2.375    0.000    3.000 
#    0.000    2.500    0.000    1.625    0.000    0.000 
#    0.000    2.000    0.000   16.000    0.000    0.000 
#
# Total GULP energy -1189549.063674 kJ/mol
# GULP energy per Si atom -12391.136080 kJ/mol
# Density = 1.529182 g / cm^3
# Si number density = 15.326704 Si / 1000 Ang^3
#
#
#
# Elastic Constant Matrix: (Units=GPa)
#
#
# Indices 1 2 3 4 5 6 
#
# 1 90.9342 43.8819 34.6810 0.0000 0.0000 0.0000
# 2 43.8819 90.9342 34.6810 0.0000 0.0000 0.0000
# 3 34.6810 34.6810 74.1380 0.0000 0.0000 0.0000
# 4 0.0000 0.0000 0.0000 15.0484 0.0000 0.0000
# 5 0.0000 0.0000 0.0000 0.0000 15.0484 0.0000
# 6 0.0000 0.0000 0.0000 0.0000 0.0000 23.5261
#
#
#
# Elastic Compliance Matrix: (Units=1/GPa)
#
#
# Indices 1 2 3 4 5 6 
#
# 1 0.015511 -0.005742 -0.004570 0.000000 0.000000 0.000000
# 2 -0.005742 0.015511 -0.004570 0.000000 0.000000 0.000000
# 3 -0.004570 -0.004570 0.017764 0.000000 0.000000 0.000000
# 4 0.000000 0.000000 0.000000 0.066452 0.000000 0.000000
# 5 0.000000 0.000000 0.000000 0.000000 0.066452 0.000000
# 6 0.000000 0.000000 0.000000 0.000000 0.000000 0.042506
#
#
# Mechanical properties :
#
#
# Convention : Reuss Voigt Hill
#
# Bulk Modulus (GPa) = 52.57014 53.61046 53.09030
# Shear Modulus (GPa) = 19.20865 20.24208 19.72536
#
# Velocity S-wave (km/s) = 3.54401 3.63809 3.59136
# Velocity P-wave (km/s) = 7.14988 7.25962 7.20496
#
# Compressibility (1/GPa) = 0.01902221
#
# Stress axis : x y z
#
# Youngs Moduli (GPa) = 64.47139 64.47139 56.29492
#
# Poissons Ratio (x) = 0.37021 0.25725
# Poissons Ratio (y) = 0.37021 0.25725
# Poissons Ratio (z) = 0.29461 0.29461
#
# Static dielectric constant tensor:
#      x y z
#    x 2.864940 0.000000 0.000000 
#    y 0.000000 2.864940 0.000000 
#    z 0.000000 0.000000 3.113660 
# 
# 
# High freq. dielectric constant tensor:
#      x y z
#    x 1.557860 0.000000 0.000000 
#    y 0.000000 1.557860 0.000000 
#    z 0.000000 0.000000 1.597000 
# 
# From -- ./inp_files/1571.got.cif
#   From: 2010.03.12/outbox.cif.g09.slc.cpg/sg191_1_cif.got.tgz:1571.got - 2010.04.01 12:09:02.
