data_PCOD8328706
_publ_section_title
;
Structure prediction by ZEFSAII (Michael W. Deem and Ramdas Pophale) SiO2 
 PCOD8328706
Probable space group: P 6/M M M
;
_chemical_formula_sum "Si O2"
_cell_formula_units_Z 132
_cell_length_a 18.202078
_cell_length_b 18.202078
_cell_length_c 28.016577
_cell_angle_alpha 90.000000
_cell_angle_beta 90.000000
_cell_angle_gamma 120.000000
_cell_volume 8038.733792
_symmetry_space_group_name_H-M "P 6/M M M"
_symmetry_group_IT_number 191
_symmetry_cell_setting 'hexagonal'
loop_
_space_group_symop_operation_xyz
x,y,z
x-y,x,z
-y,x-y,z
-x,-y,z
-x+y,-x,z
y,-x+y,z
x-y,-y,-z
-x,-x+y,-z
y,x,-z
-y,-x,-z
-x+y,y,-z
x,x-y,-z
-x,-y,-z
-x+y,-x,-z
y,-x+y,-z
x,y,-z
x-y,x,-z
-y,x-y,-z
-x+y,y,z
x,x-y,z
-y,-x,z
y,x,z
x-y,-y,z
-x,-x+y,z
loop_
_atom_site_type_symbol
_atom_site_label
_atom_site_fract_x
_atom_site_fract_y
_atom_site_fract_z
Si Si1 0.368098 0.899612 0.264346
Si Si2 0.834636 0.331201 0.100622
Si Si3 0.901851 0.264358 0.180153
Si Si4 0.899332 0.368527 0.370309
Si Si5 0.633725 0.539685 0.000000
Si Si6 0.744489 0.094999 0.553843
O O1 0.431469 0.862938 0.252527
O O2 0.292915 0.869007 0.226283
O O3 0.328443 0.869652 0.317371
O O4 0.423143 0.000000 0.262575
O O5 0.851010 0.425505 0.108939
O O6 0.736489 0.263512 0.111127
O O7 0.895938 0.316034 0.135247
O O8 0.855723 0.316012 0.046956
O O9 0.837483 0.162518 0.174314
O O10 0.000000 0.286226 0.184762
O O11 0.862690 0.431345 0.381045
O O12 0.865987 0.296914 0.410792
O O13 0.000000 0.421358 0.372563
O O14 0.622010 0.622010 0.000000
O O15 0.542995 0.457006 0.000000
O O16 0.713385 0.096853 0.500000
O O17 0.846119 0.153882 0.557770
O O18 0.720724 0.000000 0.568498
#
# Coordination Sequence:
#
# PCOD8328706 Si02
#       6
#    24  24  24  24  12  24
#     4   8  14  26  44  65  88 112 137 166 204 252
#     4  10  19  30  45  66  93 123 153 185 222 265
#     4  10  20  32  47  67  90 117 149 187 228 268
#     4   8  14  25  42  64  87 109 135 169 208 252
#     4   9  17  28  42  60  84 119 161 195 217 244
#     4   9  17  28  42  61  85 113 146 185 227 268
#
# _framework density 16.420496
#
# number of rings (size 3 to 8) (size 9 to 14) (size 15 to 20)
#    0.000    3.000    0.000    2.636    0.000    2.909 
#    0.000    2.727    0.000    1.091    0.000    1.273 
#    0.000    0.000    0.000    9.091    0.000   23.636 
#
# Total GULP energy -1635718.627647 kJ/mol
# GULP energy per Si atom -12391.807785 kJ/mol
# Density = 1.638312 g / cm^3
# Si number density = 16.420496 Si / 1000 Ang^3
#
#
#
# Elastic Constant Matrix: (Units=GPa)
#
#
# Indices 1 2 3 4 5 6 
#
# 1 68.3333 36.4408 35.2472 0.0000 0.0000 0.0000
# 2 36.4408 68.3333 35.2472 0.0000 0.0000 0.0000
# 3 35.2472 35.2472 101.0108 0.0000 0.0000 0.0000
# 4 0.0000 0.0000 0.0000 17.6707 0.0000 0.0000
# 5 0.0000 0.0000 0.0000 0.0000 17.6707 0.0000
# 6 0.0000 0.0000 0.0000 0.0000 0.0000 15.9462
#
#
#
# Elastic Compliance Matrix: (Units=1/GPa)
#
#
# Indices 1 2 3 4 5 6 
#
# 1 0.021914 -0.009441 -0.004352 0.000000 0.000000 0.000000
# 2 -0.009441 0.021914 -0.004352 0.000000 0.000000 0.000000
# 3 -0.004352 -0.004352 0.012937 0.000000 0.000000 0.000000
# 4 0.000000 0.000000 0.000000 0.056591 0.000000 0.000000
# 5 0.000000 0.000000 0.000000 0.000000 0.056591 0.000000
# 6 0.000000 0.000000 0.000000 0.000000 0.000000 0.062711
#
#
# Mechanical properties :
#
#
# Convention : Reuss Voigt Hill
#
# Bulk Modulus (GPa) = 48.84348 50.17197 49.50772
# Shear Modulus (GPa) = 18.13080 18.97369 18.55224
#
# Velocity S-wave (km/s) = 3.32649 3.40293 3.36493
# Velocity P-wave (km/s) = 6.67563 6.78681 6.73145
#
# Compressibility (1/GPa) = 0.02047356
#
# Stress axis : x y z
#
# Youngs Moduli (GPa) = 45.63295 45.63295 77.29572
#
# Poissons Ratio (x) = 0.43084 0.33641
# Poissons Ratio (y) = 0.43084 0.33641
# Poissons Ratio (z) = 0.19861 0.19861
#
# Static dielectric constant tensor:
#      x y z
#    x 2.892700 0.000000 0.000000 
#    y 0.000000 2.892700 0.000000 
#    z 0.000000 0.000000 3.465180 
# 
# 
# High freq. dielectric constant tensor:
#      x y z
#    x 1.601840 0.000000 0.000000 
#    y 0.000000 1.601840 0.000000 
#    z 0.000000 0.000000 1.649550 
# 
# From -- ./inp_files/10494.got.cif
#   From: 2010.03.12/outbox.cif.g09.slc.cpg/sg191_6_cif.got.tgz:10494.got - 2010.04.01 12:09:02.
