data_PCOD8328871
_publ_section_title
;
Structure prediction by ZEFSAII (Michael W. Deem and Ramdas Pophale) SiO2 
 PCOD8328871
Probable space group: P 6/M M M
;
_chemical_formula_sum "Si O2"
_cell_formula_units_Z 192
_cell_length_a 29.971007
_cell_length_b 29.971007
_cell_length_c 15.408303
_cell_angle_alpha 90.000000
_cell_angle_beta 90.000000
_cell_angle_gamma 120.000000
_cell_volume 11986.381937
_symmetry_space_group_name_H-M "P 6/M M M"
_symmetry_group_IT_number 191
_symmetry_cell_setting 'hexagonal'
loop_
_space_group_symop_operation_xyz
x,y,z
x-y,x,z
-y,x-y,z
-x,-y,z
-x+y,-x,z
y,-x+y,z
x-y,-y,-z
-x,-x+y,-z
y,x,-z
-y,-x,-z
-x+y,y,-z
x,x-y,-z
-x,-y,-z
-x+y,-x,-z
y,-x+y,-z
x,y,-z
x-y,x,-z
-y,x-y,-z
-x+y,y,z
x,x-y,z
-y,-x,z
y,x,z
x-y,-y,z
-x,-x+y,z
loop_
_atom_site_type_symbol
_atom_site_label
_atom_site_fract_x
_atom_site_fract_y
_atom_site_fract_z
Si Si1 0.129312 0.468430 0.096401
Si Si2 0.868716 0.235257 0.099092
Si Si3 0.231524 0.564475 0.148376
Si Si4 0.768477 0.435525 0.351614
Si Si5 0.129313 0.660882 0.596402
Si Si6 0.434507 0.377123 0.250000
Si Si7 0.328593 0.057319 0.749999
Si Si8 0.131286 0.764743 0.599092
O O1 0.143401 0.424330 0.117819
O O2 0.181138 0.522874 0.098831
O O3 0.087529 0.466345 0.164437
O O4 0.105345 0.460548 0.000000
O O5 0.817327 0.182674 0.120436
O O6 0.913357 0.240163 0.163297
O O7 0.886929 0.236733 0.000000
O O8 0.280478 0.560956 0.115348
O O9 0.241875 0.620938 0.125436
O O10 0.222612 0.552952 0.249995
O O11 0.719523 0.439046 0.384640
O O12 0.758124 0.379062 0.374552
O O13 0.818862 0.477124 0.401160
O O14 0.105348 0.644795 0.500000
O O15 0.087528 0.621183 0.664436
O O16 0.143401 0.719070 0.617818
O O17 0.426775 0.426775 0.249998
O O18 0.379573 0.326232 0.250000
O O19 0.326807 0.086645 0.663296
O O20 0.278969 0.000000 0.749997
O O21 0.113075 0.763270 0.500000
O O22 0.182676 0.817325 0.620442
#
# Coordination Sequence:
#
# PCOD8328871 Si02
#       8
#    24  24  24  24  24  24  24  24
#     4  10  19  32  51  73  95 119 147 180 218 261
#     4   9  17  28  43  64  88 114 145 180 218 260
#     4  10  20  34  52  73  97 123 149 178 215 262
#     4  10  20  34  52  73  97 123 149 178 215 262
#     4  10  19  32  51  73  95 119 147 180 218 261
#     4   9  18  33  50  71  95 118 146 178 217 261
#     4   9  17  27  41  62  87 115 144 176 218 264
#     4   9  17  28  43  64  88 114 145 180 218 260
#
# _framework density 16.018179
#
# number of rings (size 3 to 8) (size 9 to 14) (size 15 to 20)
#    0.000    2.500    1.250    1.375    0.000    4.000 
#    0.000    5.000    0.000    3.000    0.000    1.750 
#    0.000    0.000    0.000    0.000    0.000    0.000 
#
# Total GULP energy -2380836.192960 kJ/mol
# GULP energy per Si atom -12400.188505 kJ/mol
# Density = 1.598172 g / cm^3
# Si number density = 16.018179 Si / 1000 Ang^3
#
#
#
# Elastic Constant Matrix: (Units=GPa)
#
#
# Indices 1 2 3 4 5 6 
#
# 1 62.5807 43.1657 41.9292 0.0000 0.0000 0.0000
# 2 43.1657 62.5807 41.9292 0.0000 0.0000 0.0000
# 3 41.9292 41.9292 103.3624 0.0000 0.0000 0.0000
# 4 0.0000 0.0000 0.0000 15.5930 0.0000 0.0000
# 5 0.0000 0.0000 0.0000 0.0000 15.5930 0.0000
# 6 0.0000 0.0000 0.0000 0.0000 0.0000 9.7075
#
#
#
# Elastic Compliance Matrix: (Units=1/GPa)
#
#
# Indices 1 2 3 4 5 6 
#
# 1 0.032724 -0.018783 -0.005655 0.000000 0.000000 0.000000
# 2 -0.018783 0.032724 -0.005655 0.000000 0.000000 0.000000
# 3 -0.005655 -0.005655 0.014263 0.000000 0.000000 0.000000
# 4 0.000000 0.000000 0.000000 0.064131 0.000000 0.000000
# 5 0.000000 0.000000 0.000000 0.000000 0.064131 0.000000
# 6 0.000000 0.000000 0.000000 0.000000 0.000000 0.103014
#
#
# Mechanical properties :
#
#
# Convention : Reuss Voigt Hill
#
# Bulk Modulus (GPa) = 51.21839 53.61913 52.41876
# Shear Modulus (GPa) = 13.23866 14.94534 14.09200
#
# Velocity S-wave (km/s) = 2.87797 3.05786 2.96928
# Velocity P-wave (km/s) = 6.56416 6.78336 6.67466
#
# Compressibility (1/GPa) = 0.01952424
#
# Stress axis : x y z
#
# Youngs Moduli (GPa) = 30.55854 30.55854 70.11193
#
# Poissons Ratio (x) = 0.57397 0.39651
# Poissons Ratio (y) = 0.57397 0.39651
# Poissons Ratio (z) = 0.17282 0.17282
#
# Static dielectric constant tensor:
#      x y z
#    x 2.891160 0.000000 0.000000 
#    y 0.000000 2.891160 0.000000 
#    z 0.000000 0.000000 3.218670 
# 
# 
# High freq. dielectric constant tensor:
#      x y z
#    x 1.583530 0.000000 0.000000 
#    y 0.000000 1.583530 0.000000 
#    z 0.000000 0.000000 1.632520 
# 
# From -- ./inp_files/5547.got.cif
#   From: 2010.03.12/outbox.cif.g09.slc.cpg/sg191_3_cif.got.tgz:5547.got - 2010.04.01 12:09:02.
