data_PCOD8328527
_publ_section_title
;
Structure prediction by ZEFSAII (Michael W. Deem and Ramdas Pophale) SiO2 
 PCOD8328527
Probable space group: P 6/M M M
;
_chemical_formula_sum "Si O2"
_cell_formula_units_Z 180
_cell_length_a 20.819898
_cell_length_b 20.819898
_cell_length_c 31.277267
_cell_angle_alpha 90.000000
_cell_angle_beta 90.000000
_cell_angle_gamma 120.000000
_cell_volume 11741.311880
_symmetry_space_group_name_H-M "P 6/M M M"
_symmetry_group_IT_number 191
_symmetry_cell_setting 'hexagonal'
loop_
_space_group_symop_operation_xyz
x,y,z
x-y,x,z
-y,x-y,z
-x,-y,z
-x+y,-x,z
y,-x+y,z
x-y,-y,-z
-x,-x+y,-z
y,x,-z
-y,-x,-z
-x+y,y,-z
x,x-y,-z
-x,-y,-z
-x+y,-x,-z
y,-x+y,-z
x,y,-z
x-y,x,-z
-y,x-y,-z
-x+y,y,z
x,x-y,z
-y,-x,z
y,x,z
x-y,-y,z
-x,-x+y,z
loop_
_atom_site_type_symbol
_atom_site_label
_atom_site_fract_x
_atom_site_fract_y
_atom_site_fract_z
Si Si1 0.335734 0.521764 0.362510
Si Si2 0.086976 0.438525 0.714242
Si Si3 0.917126 0.534436 0.124858
Si Si4 0.517840 0.184500 0.951349
Si Si5 0.079401 0.774433 0.328315
Si Si6 0.920190 0.687767 0.500000
Si Si7 0.818551 0.484250 0.203448
Si Si8 0.614320 0.732744 0.414056
O O1 0.256445 0.512890 0.349763
O O2 0.393457 0.606544 0.374418
O O3 0.368109 0.497422 0.323206
O O4 0.327192 0.471450 0.403999
O O5 0.097558 0.367509 0.707330
O O6 0.124269 0.477453 0.758171
O O7 0.000000 0.414318 0.714440
O O8 0.923902 0.461951 0.128796
O O9 0.883044 0.537446 0.079039
O O10 0.861757 0.531740 0.161666
O O11 0.000000 0.606100 0.129078
O O12 0.602365 0.204729 0.944105
O O13 0.513656 0.256828 0.939133
O O14 0.492476 0.159410 0.000000
O O15 0.139644 0.860357 0.327281
O O16 0.071466 0.734990 0.373977
O O17 0.000000 0.767293 0.318626
O O18 0.852948 0.705895 0.500000
O O19 0.922469 0.640825 0.459291
O O20 0.000000 0.764898 0.500000
O O21 0.743668 0.487335 0.210266
O O22 0.796980 0.398490 0.199336
O O23 0.625501 0.812751 0.418635
#
# Coordination Sequence:
#
# PCOD8328527 Si02
#       8
#    24  24  24  24  24  12  24  24
#     4  10  19  32  49  68  90 114 143 177 216 259
#     4  10  20  32  46  63  85 113 142 174 209 249
#     4   9  18  30  42  57  78 105 136 170 209 254
#     4   9  16  26  41  60  81 105 135 172 213 255
#     4   9  16  28  45  64  85 109 139 171 205 244
#     4  10  18  30  49  70  91 115 145 179 216 256
#     4  11  21  32  45  61  83 109 139 174 214 259
#     4   8  16  29  44  63  86 112 140 171 204 242
#
# _framework density 15.330484
#
# number of rings (size 3 to 8) (size 9 to 14) (size 15 to 20)
#    0.000    2.533    0.000    4.000    0.000    2.933 
#    0.000    4.333    0.000    0.600    0.000    0.933 
#    0.000    3.200    0.000    0.000    0.000    0.267 
#
# Total GULP energy -2230676.328249 kJ/mol
# GULP energy per Si atom -12392.646268 kJ/mol
# Density = 1.529559 g / cm^3
# Si number density = 15.330484 Si / 1000 Ang^3
#
#
#
# Elastic Constant Matrix: (Units=GPa)
#
#
# Indices 1 2 3 4 5 6 
#
# 1 79.0930 42.7468 29.1747 0.0000 0.0000 0.0000
# 2 42.7468 79.0930 29.1747 0.0000 0.0000 0.0000
# 3 29.1747 29.1747 73.1146 0.0000 0.0000 0.0000
# 4 0.0000 0.0000 0.0000 20.3633 0.0000 0.0000
# 5 0.0000 0.0000 0.0000 0.0000 20.3633 0.0000
# 6 0.0000 0.0000 0.0000 0.0000 0.0000 18.1731
#
#
#
# Elastic Compliance Matrix: (Units=1/GPa)
#
#
# Indices 1 2 3 4 5 6 
#
# 1 0.018830 -0.008683 -0.004049 0.000000 0.000000 0.000000
# 2 -0.008683 0.018830 -0.004049 0.000000 0.000000 0.000000
# 3 -0.004049 -0.004049 0.016908 0.000000 0.000000 0.000000
# 4 0.000000 0.000000 0.000000 0.049108 0.000000 0.000000
# 5 0.000000 0.000000 0.000000 0.000000 0.049108 0.000000
# 6 0.000000 0.000000 0.000000 0.000000 0.000000 0.055026
#
#
# Mechanical properties :
#
#
# Convention : Reuss Voigt Hill
#
# Bulk Modulus (GPa) = 47.60478 48.16590 47.88534
# Shear Modulus (GPa) = 20.13094 20.46023 20.29558
#
# Velocity S-wave (km/s) = 3.62765 3.65720 3.64245
# Velocity P-wave (km/s) = 6.97612 7.02282 6.99951
#
# Compressibility (1/GPa) = 0.02100630
#
# Stress axis : x y z
#
# Youngs Moduli (GPa) = 53.10720 53.10720 59.14277
#
# Poissons Ratio (x) = 0.46115 0.23945
# Poissons Ratio (y) = 0.46115 0.23945
# Poissons Ratio (z) = 0.21502 0.21502
#
# Static dielectric constant tensor:
#      x y z
#    x 2.846530 0.000000 0.000000 
#    y 0.000000 2.846530 0.000000 
#    z 0.000000 0.000000 3.241500 
# 
# 
# High freq. dielectric constant tensor:
#      x y z
#    x 1.571600 0.000000 0.000000 
#    y 0.000000 1.571600 0.000000 
#    z 0.000000 0.000000 1.588320 
# 
# From -- ./inp_files/10871.got.cif
#   From: 2010.03.12/outbox.cif.g09.slc.cpg/sg191_6_cif.got.tgz:10871.got - 2010.04.01 12:09:02.
