data_PCOD8328828
_publ_section_title
;
Structure prediction by ZEFSAII (Michael W. Deem and Ramdas Pophale) SiO2 
 PCOD8328828
Probable space group: P 6/M M M
;
_chemical_formula_sum "Si O2"
_cell_formula_units_Z 108
_cell_length_a 17.713009
_cell_length_b 17.713009
_cell_length_c 23.158159
_cell_angle_alpha 90.000000
_cell_angle_beta 90.000000
_cell_angle_gamma 120.000000
_cell_volume 6292.443862
_symmetry_space_group_name_H-M "P 6/M M M"
_symmetry_group_IT_number 191
_symmetry_cell_setting 'hexagonal'
loop_
_space_group_symop_operation_xyz
x,y,z
x-y,x,z
-y,x-y,z
-x,-y,z
-x+y,-x,z
y,-x+y,z
x-y,-y,-z
-x,-x+y,-z
y,x,-z
-y,-x,-z
-x+y,y,-z
x,x-y,-z
-x,-y,-z
-x+y,-x,-z
y,-x+y,-z
x,y,-z
x-y,x,-z
-y,x-y,-z
-x+y,y,z
x,x-y,z
-y,-x,z
y,x,z
x-y,-y,z
-x,-x+y,z
loop_
_atom_site_type_symbol
_atom_site_label
_atom_site_fract_x
_atom_site_fract_y
_atom_site_fract_z
Si Si1 0.264995 0.902045 0.434816
Si Si2 0.531777 0.897622 0.668503
Si Si3 0.897552 0.268988 0.000000
Si Si4 0.897892 0.532495 0.889112
Si Si5 0.731597 0.102192 0.778381
O O1 0.295192 0.897762 0.500000
O O2 0.161034 0.838967 0.427988
O O3 0.314503 0.869634 0.392107
O O4 0.286975 0.000000 0.419168
O O5 0.426707 0.853414 0.673157
O O6 0.570115 0.869509 0.721398
O O7 0.572411 0.000000 0.670652
O O8 0.869945 0.304266 0.944878
O O9 0.836893 0.163108 0.000000
O O10 0.000000 0.296745 0.000000
O O11 0.853882 0.426941 0.889720
O O12 0.871148 0.563335 0.831689
O O13 0.000000 0.572104 0.890166
O O14 0.837274 0.162727 0.780958
O O15 0.704077 0.000000 0.779169
#
# Coordination Sequence:
#
# PCOD8328828 Si02
#       5
#    24  24  12  24  24
#     4   9  17  29  46  68  93 122 157 195 232 271
#     4   9  17  29  46  67  88 112 146 188 232 278
#     4  10  19  31  49  72  97 127 164 202 237 277
#     4   9  17  30  49  70  90 116 152 193 236 282
#     4  10  19  31  49  72  97 126 161 198 233 272
#
# _framework density 17.163443000000001
#
# number of rings (size 3 to 8) (size 9 to 14) (size 15 to 20)
#    0.000    2.667    0.000    2.333    0.000    4.444 
#    0.000    2.222    0.000   15.667    0.000    1.556 
#    0.000   10.667    0.000    0.222    0.000    1.333 
#
# Total GULP energy -1338367.772195 kJ/mol
# GULP energy per Si atom -12392.294187 kJ/mol
# Density = 1.712438 g / cm^3
# Si number density = 17.163443 Si / 1000 Ang^3
#
#
#
# Elastic Constant Matrix: (Units=GPa)
#
#
# Indices 1 2 3 4 5 6 
#
# 1 93.1972 54.9955 40.5903 0.0000 0.0000 0.0000
# 2 54.9955 93.1972 40.5903 0.0000 0.0000 0.0000
# 3 40.5903 40.5903 127.7810 0.0000 0.0000 0.0000
# 4 0.0000 0.0000 0.0000 15.4943 0.0000 0.0000
# 5 0.0000 0.0000 0.0000 0.0000 15.4943 0.0000
# 6 0.0000 0.0000 0.0000 0.0000 0.0000 19.1008
#
#
#
# Elastic Compliance Matrix: (Units=1/GPa)
#
#
# Indices 1 2 3 4 5 6 
#
# 1 0.017173 -0.009004 -0.002595 0.000000 0.000000 0.000000
# 2 -0.009004 0.017173 -0.002595 0.000000 0.000000 0.000000
# 3 -0.002595 -0.002595 0.009475 0.000000 0.000000 0.000000
# 4 0.000000 0.000000 0.000000 0.064540 0.000000 0.000000
# 5 0.000000 0.000000 0.000000 0.000000 0.064540 0.000000
# 6 0.000000 0.000000 0.000000 0.000000 0.000000 0.052354
#
#
# Mechanical properties :
#
#
# Convention : Reuss Voigt Hill
#
# Bulk Modulus (GPa) = 64.79490 65.16974 64.98232
# Shear Modulus (GPa) = 19.32093 21.88450 20.60271
#
# Velocity S-wave (km/s) = 3.35879 3.57468 3.46841
# Velocity P-wave (km/s) = 7.27156 7.42228 7.34731
#
# Compressibility (1/GPa) = 0.01543331
#
# Stress axis : x y z
#
# Youngs Moduli (GPa) = 58.23017 58.23017 105.54541
#
# Poissons Ratio (x) = 0.52428 0.27390
# Poissons Ratio (y) = 0.52428 0.27390
# Poissons Ratio (z) = 0.15111 0.15111
#
# Static dielectric constant tensor:
#      x y z
#    x 3.116830 0.000000 0.000000 
#    y 0.000000 3.116830 0.000000 
#    z 0.000000 0.000000 3.532230 
# 
# 
# High freq. dielectric constant tensor:
#      x y z
#    x 1.636910 0.000000 0.000000 
#    y 0.000000 1.636910 0.000000 
#    z 0.000000 0.000000 1.685970 
# 
# From -- ./inp_files/8419.got.cif
#   From: 2010.03.12/outbox.cif.g09.slc.cpg/sg191_5_cif.got.tgz:8419.got - 2010.04.01 12:09:02.
