data_PCOD8328797
_publ_section_title
;
Structure prediction by ZEFSAII (Michael W. Deem and Ramdas Pophale) SiO2 
 PCOD8328797
Probable space group: P 6/M M M
;
_chemical_formula_sum "Si O2"
_cell_formula_units_Z 120
_cell_length_a 27.566998
_cell_length_b 27.566998
_cell_length_c 11.722389
_cell_angle_alpha 90.000000
_cell_angle_beta 90.000000
_cell_angle_gamma 120.000000
_cell_volume 7714.818447
_symmetry_space_group_name_H-M "P 6/M M M"
_symmetry_group_IT_number 191
_symmetry_cell_setting 'hexagonal'
loop_
_space_group_symop_operation_xyz
x,y,z
x-y,x,z
-y,x-y,z
-x,-y,z
-x+y,-x,z
y,-x+y,z
x-y,-y,-z
-x,-x+y,-z
y,x,-z
-y,-x,-z
-x+y,y,-z
x,x-y,-z
-x,-y,-z
-x+y,-x,-z
y,-x+y,-z
x,y,-z
x-y,x,-z
-y,x-y,-z
-x+y,y,z
x,x-y,z
-y,-x,z
y,x,z
x-y,-y,z
-x,-x+y,z
loop_
_atom_site_type_symbol
_atom_site_label
_atom_site_fract_x
_atom_site_fract_y
_atom_site_fract_z
Si Si1 0.168395 0.449977 0.634958
Si Si2 0.557503 0.000000 0.373530
Si Si3 0.387838 0.497720 0.239936
Si Si4 0.166986 0.939204 0.635620
Si Si5 0.588973 0.525743 0.000000
Si Si6 0.336904 0.275128 0.634835
O O1 0.166321 0.459272 0.500000
O O2 0.225118 0.450236 0.667857
O O3 0.164379 0.498483 0.705588
O O4 0.114409 0.393451 0.681031
O O5 0.602881 0.055781 0.310835
O O6 0.500000 0.000000 0.378533
O O7 0.580599 0.000000 0.500000
O O8 0.439825 0.560176 0.249795
O O9 0.376912 0.475731 0.109993
O O10 0.165971 0.934087 0.500000
O O11 0.108652 0.891349 0.688856
O O12 0.217820 0.932209 0.684176
O O13 0.176604 0.000000 0.671784
O O14 0.579696 0.579696 0.000000
O O15 0.527952 0.472049 0.000000
O O16 0.336750 0.270545 0.500000
O O17 0.327587 0.327587 0.669810
#
# Coordination Sequence:
#
# PCOD8328797 Si02
#       6
#    24  12  24  24  12  24
#     4  10  20  31  43  63  94 126 150 179 224 274
#     4   9  16  25  41  69  97 116 137 173 223 275
#     4  10  19  31  48  68  91 119 152 188 226 272
#     4   8  12  18  28  41  58  84 121 161 197 236
#     4   9  16  30  49  70  94 120 150 188 233 276
#     4   8  14  23  36  54  76 105 138 169 204 253
#
# _framework density 15.554482
#
# number of rings (size 3 to 8) (size 9 to 14) (size 15 to 20)
#    0.000    3.000    1.000    2.400    1.400    3.600 
#    0.000    0.500    0.000    0.600    0.000    1.400 
#    0.000    0.000    0.000    0.000    0.000    0.000 
#
# Total GULP energy -1486934.174707 kJ/mol
# GULP energy per Si atom -12391.118123 kJ/mol
# Density = 1.551908 g / cm^3
# Si number density = 15.554482 Si / 1000 Ang^3
#
#
#
# Elastic Constant Matrix: (Units=GPa)
#
#
# Indices 1 2 3 4 5 6 
#
# 1 85.9893 44.4201 32.0695 0.0000 0.0000 0.0000
# 2 44.4201 85.9893 32.0695 0.0000 0.0000 0.0000
# 3 32.0695 32.0695 70.3261 0.0000 0.0000 0.0000
# 4 0.0000 0.0000 0.0000 11.2154 0.0000 0.0000
# 5 0.0000 0.0000 0.0000 0.0000 11.2154 0.0000
# 6 0.0000 0.0000 0.0000 0.0000 0.0000 20.7846
#
#
#
# Elastic Compliance Matrix: (Units=1/GPa)
#
#
# Indices 1 2 3 4 5 6 
#
# 1 0.016971 -0.007086 -0.004508 0.000000 0.000000 0.000000
# 2 -0.007086 0.016971 -0.004508 0.000000 0.000000 0.000000
# 3 -0.004508 -0.004508 0.018331 0.000000 0.000000 0.000000
# 4 0.000000 0.000000 0.000000 0.089163 0.000000 0.000000
# 5 0.000000 0.000000 0.000000 0.000000 0.089163 0.000000
# 6 0.000000 0.000000 0.000000 0.000000 0.000000 0.048113
#
#
# Mechanical properties :
#
#
# Convention : Reuss Voigt Hill
#
# Bulk Modulus (GPa) = 49.82560 51.04699 50.43630
# Shear Modulus (GPa) = 15.74289 17.55944 16.65117
#
# Velocity S-wave (km/s) = 3.18482 3.36355 3.27541
# Velocity P-wave (km/s) = 6.75475 6.92633 6.84108
#
# Compressibility (1/GPa) = 0.02007000
#
# Stress axis : x y z
#
# Youngs Moduli (GPa) = 58.92498 58.92498 54.55343
#
# Poissons Ratio (x) = 0.41751 0.24591
# Poissons Ratio (y) = 0.41751 0.24591
# Poissons Ratio (z) = 0.26562 0.26562
#
# Static dielectric constant tensor:
#      x y z
#    x 3.032940 0.000000 0.000000 
#    y 0.000000 3.032940 0.000000 
#    z 0.000000 0.000000 2.666070 
# 
# 
# High freq. dielectric constant tensor:
#      x y z
#    x 1.587230 0.000000 0.000000 
#    y 0.000000 1.587230 0.000000 
#    z 0.000000 0.000000 1.543290 
# 
# From -- ./inp_files/3284.got.cif
#   From: 2010.03.12/outbox.cif.g09.slc.cpg/sg191_2_cif.got.tgz:3284.got - 2010.04.01 12:09:02.
