data_PCOD8328240
_publ_section_title
;
Structure prediction by ZEFSAII (Michael W. Deem and Ramdas Pophale) SiO2 
 PCOD8328240
Probable space group: P 6/M M M
;
_chemical_formula_sum "Si O2"
_cell_formula_units_Z 96
_cell_length_a 26.863055
_cell_length_b 26.863055
_cell_length_c 10.316372
_cell_angle_alpha 90.000000
_cell_angle_beta 90.000000
_cell_angle_gamma 120.000000
_cell_volume 6447.159703
_symmetry_space_group_name_H-M "P 6/M M M"
_symmetry_group_IT_number 191
_symmetry_cell_setting 'hexagonal'
loop_
_space_group_symop_operation_xyz
x,y,z
x-y,x,z
-y,x-y,z
-x,-y,z
-x+y,-x,z
y,-x+y,z
x-y,-y,-z
-x,-x+y,-z
y,x,-z
-y,-x,-z
-x+y,y,-z
x,x-y,-z
-x,-y,-z
-x+y,-x,-z
y,-x+y,-z
x,y,-z
x-y,x,-z
-y,x-y,-z
-x+y,y,z
x,x-y,z
-y,-x,z
y,x,z
x-y,-y,z
-x,-x+y,z
loop_
_atom_site_type_symbol
_atom_site_label
_atom_site_fract_x
_atom_site_fract_y
_atom_site_fract_z
Si Si1 0.772625 0.662073 0.152943
Si Si2 0.931569 0.349434 0.752803
Si Si3 0.067982 0.590231 0.500000
Si Si4 0.411309 0.479229 0.000000
Si Si5 0.778334 0.000000 0.846737
Si Si6 0.000000 0.888675 0.154909
O O1 0.829455 0.658909 0.185810
O O2 0.719452 0.614799 0.236379
O O3 0.780505 0.722591 0.200157
O O4 0.758173 0.652739 0.000000
O O5 0.911715 0.368873 0.625115
O O6 0.911522 0.372774 0.872624
O O7 0.000000 0.372460 0.755236
O O8 0.094065 0.547033 0.500000
O O9 0.000000 0.551497 0.500000
O O10 0.449857 0.449857 0.000000
O O11 0.451996 0.548005 0.000000
O O12 0.833336 0.000000 0.786947
O O13 0.781606 0.000000 0.000000
O O14 0.944479 0.888957 0.209132
O O15 0.000000 0.888007 0.000000
#
# Coordination Sequence:
#
# PCOD8328240 Si02
#       6
#    24  24  12  12  12  12
#     4  10  18  27  41  62  86 118 158 200 240 275
#     4  10  17  28  44  62  90 119 153 188 220 268
#     4   9  18  30  45  66  92 121 147 172 210 258
#     4   9  16  24  41  64  86 113 145 178 208 250
#     4   9  16  25  38  52  76 108 154 199 234 285
#     4   9  15  22  31  46  69 100 138 189 250 303
#
# _framework density 14.890278
#
# number of rings (size 3 to 8) (size 9 to 14) (size 15 to 20)
#    0.000    2.500    2.500    1.625    0.000    6.500 
#    0.000    0.625    0.000    0.000    0.000    0.000 
#    0.000    0.000    0.000   15.000    0.000    0.375 
#
# Total GULP energy -1190066.925692 kJ/mol
# GULP energy per Si atom -12396.530476 kJ/mol
# Density = 1.485639 g / cm^3
# Si number density = 14.890278 Si / 1000 Ang^3
#
#
#
# Elastic Constant Matrix: (Units=GPa)
#
#
# Indices 1 2 3 4 5 6 
#
# 1 106.8165 69.2999 41.2533 0.0000 0.0000 0.0000
# 2 69.2999 106.8165 41.2533 0.0000 0.0000 0.0000
# 3 41.2533 41.2533 82.1716 0.0000 0.0000 0.0000
# 4 0.0000 0.0000 0.0000 12.6953 0.0000 0.0000
# 5 0.0000 0.0000 0.0000 0.0000 12.6953 0.0000
# 6 0.0000 0.0000 0.0000 0.0000 0.0000 18.7583
#
#
#
# Elastic Compliance Matrix: (Units=1/GPa)
#
#
# Indices 1 2 3 4 5 6 
#
# 1 0.017040 -0.009615 -0.003727 0.000000 0.000000 0.000000
# 2 -0.009615 0.017040 -0.003727 0.000000 0.000000 0.000000
# 3 -0.003727 -0.003727 0.015912 0.000000 0.000000 0.000000
# 4 0.000000 0.000000 0.000000 0.078770 0.000000 0.000000
# 5 0.000000 0.000000 0.000000 0.000000 0.078770 0.000000
# 6 0.000000 0.000000 0.000000 0.000000 0.000000 0.053310
#
#
# Mechanical properties :
#
#
# Convention : Reuss Voigt Hill
#
# Bulk Modulus (GPa) = 63.08535 66.60196 64.84366
# Shear Modulus (GPa) = 16.65204 18.42963 17.54083
#
# Velocity S-wave (km/s) = 3.34775 3.52191 3.43593
# Velocity P-wave (km/s) = 7.57641 7.83352 7.70604
#
# Compressibility (1/GPa) = 0.01585154
#
# Stress axis : x y z
#
# Youngs Moduli (GPa) = 58.68703 58.68703 62.84537
#
# Poissons Ratio (x) = 0.56430 0.23424
# Poissons Ratio (y) = 0.56430 0.23424
# Poissons Ratio (z) = 0.21874 0.21874
#
# Static dielectric constant tensor:
#      x y z
#    x 2.848440 0.000000 0.000000 
#    y 0.000000 2.848440 0.000000 
#    z 0.000000 0.000000 2.646710 
# 
# 
# High freq. dielectric constant tensor:
#      x y z
#    x 1.556140 0.000000 0.000000 
#    y 0.000000 1.556140 0.000000 
#    z 0.000000 0.000000 1.536940 
# 
# From -- ./inp_files/1614.got.cif
#   From: 2010.03.12/outbox.cif.g09.slc.cpg/sg191_1_cif.got.tgz:1614.got - 2010.04.01 12:09:02.
