data_PCOD8328511
_publ_section_title
;
Structure prediction by ZEFSAII (Michael W. Deem and Ramdas Pophale) SiO2 
 PCOD8328511
Probable space group: P 6/M M M
;
_chemical_formula_sum "Si O2"
_cell_formula_units_Z 96
_cell_length_a 21.389203
_cell_length_b 21.389203
_cell_length_c 15.373968
_cell_angle_alpha 90.000000
_cell_angle_beta 90.000000
_cell_angle_gamma 120.000000
_cell_volume 6091.241369
_symmetry_space_group_name_H-M "P 6/M M M"
_symmetry_group_IT_number 191
_symmetry_cell_setting 'hexagonal'
loop_
_space_group_symop_operation_xyz
x,y,z
x-y,x,z
-y,x-y,z
-x,-y,z
-x+y,-x,z
y,-x+y,z
x-y,-y,-z
-x,-x+y,-z
y,x,-z
-y,-x,-z
-x+y,y,-z
x,x-y,-z
-x,-y,-z
-x+y,-x,-z
y,-x+y,-z
x,y,-z
x-y,x,-z
-y,x-y,-z
-x+y,y,z
x,x-y,z
-y,-x,z
y,x,z
x-y,-y,z
-x,-x+y,z
loop_
_atom_site_type_symbol
_atom_site_label
_atom_site_fract_x
_atom_site_fract_y
_atom_site_fract_z
Si Si1 0.385731 0.467404 0.342799
Si Si2 0.847685 0.296091 0.826347
Si Si3 0.477071 0.665240 0.000000
Si Si4 0.333668 0.817055 0.500000
Si Si5 0.783960 0.079768 0.099024
O O1 0.462734 0.537267 0.351073
O O2 0.397983 0.397983 0.350697
O O3 0.351087 0.470069 0.252094
O O4 0.334780 0.470090 0.417930
O O5 0.763697 0.236304 0.808826
O O6 0.856909 0.343082 0.912681
O O7 0.894698 0.257456 0.837104
O O8 0.393094 0.606907 0.000000
O O9 0.488791 0.744396 0.000000
O O10 0.259961 0.740040 0.500000
O O11 0.401502 0.803004 0.500000
O O12 0.869727 0.130274 0.110990
O O13 0.765741 0.000000 0.124431
O O14 0.761132 0.084599 0.000000
#
# Coordination Sequence:
#
# PCOD8328511 Si02
#       5
#    24  24  12  12  24
#     4  10  20  33  48  67  91 117 145 181 227 273
#     4  10  18  30  46  65  89 119 153 188 221 260
#     4  10  19  30  43  61  88 121 156 192 229 265
#     4  10  20  35  53  71  88 111 144 184 225 270
#     4   9  16  27  43  62  84 111 142 176 212 252
#
# _framework density 15.760334
#
# number of rings (size 3 to 8) (size 9 to 14) (size 15 to 20)
#    0.000    2.250    1.250    2.875    0.000    1.500 
#    0.000    0.000    0.000   11.250    0.000    1.750 
#    0.000    0.000    0.000    0.000    0.000    0.000 
#
# Total GULP energy -1189972.264864 kJ/mol
# GULP energy per Si atom -12395.544426 kJ/mol
# Density = 1.572446 g / cm^3
# Si number density = 15.760334 Si / 1000 Ang^3
#
#
#
# Elastic Constant Matrix: (Units=GPa)
#
#
# Indices 1 2 3 4 5 6 
#
# 1 60.3995 19.9932 34.2406 0.0000 0.0000 0.0000
# 2 19.9932 60.3995 34.2406 0.0000 0.0000 0.0000
# 3 34.2406 34.2406 109.0951 0.0000 0.0000 0.0000
# 4 0.0000 0.0000 0.0000 20.6582 0.0000 0.0000
# 5 0.0000 0.0000 0.0000 0.0000 20.6582 0.0000
# 6 0.0000 0.0000 0.0000 0.0000 0.0000 20.2032
#
#
#
# Elastic Compliance Matrix: (Units=1/GPa)
#
#
# Indices 1 2 3 4 5 6 
#
# 1 0.020863 -0.003885 -0.005329 0.000000 0.000000 0.000000
# 2 -0.003885 0.020863 -0.005329 0.000000 0.000000 0.000000
# 3 -0.005329 -0.005329 0.012511 0.000000 0.000000 0.000000
# 4 0.000000 0.000000 0.000000 0.048407 0.000000 0.000000
# 5 0.000000 0.000000 0.000000 0.000000 0.048407 0.000000
# 6 0.000000 0.000000 0.000000 0.000000 0.000000 0.049497
#
#
# Mechanical properties :
#
#
# Convention : Reuss Voigt Hill
#
# Bulk Modulus (GPa) = 39.75741 45.20477 42.48109
# Shear Modulus (GPa) = 21.00673 21.73188 21.36931
#
# Velocity S-wave (km/s) = 3.65483 3.71738 3.68624
# Velocity P-wave (km/s) = 6.56440 6.86805 6.71794
#
# Compressibility (1/GPa) = 0.02515255
#
# Stress axis : x y z
#
# Youngs Moduli (GPa) = 47.93088 47.93088 79.92783
#
# Poissons Ratio (x) = 0.18622 0.42592
# Poissons Ratio (y) = 0.18622 0.42592
# Poissons Ratio (z) = 0.25541 0.25541
#
# Static dielectric constant tensor:
#      x y z
#    x 2.976840 0.000000 0.000000 
#    y 0.000000 2.976840 0.000000 
#    z 0.000000 0.000000 3.053520 
# 
# 
# High freq. dielectric constant tensor:
#      x y z
#    x 1.593500 0.000000 0.000000 
#    y 0.000000 1.593500 0.000000 
#    z 0.000000 0.000000 1.602180 
# 
# From -- ./inp_files/2789.got.cif
#   From: 2010.03.12/outbox.cif.g09.slc.cpg/sg191_2_cif.got.tgz:2789.got - 2010.04.01 12:09:02.
