data_PCOD8328631
_publ_section_title
;
Structure prediction by ZEFSAII (Michael W. Deem and Ramdas Pophale) SiO2 
 PCOD8328631
Probable space group: P 6/M M M
;
_chemical_formula_sum "Si O2"
_cell_formula_units_Z 192
_cell_length_a 22.675957
_cell_length_b 22.675957
_cell_length_c 25.781113
_cell_angle_alpha 90.000000
_cell_angle_beta 90.000000
_cell_angle_gamma 120.000000
_cell_volume 11480.572451
_symmetry_space_group_name_H-M "P 6/M M M"
_symmetry_group_IT_number 191
_symmetry_cell_setting 'hexagonal'
loop_
_space_group_symop_operation_xyz
x,y,z
x-y,x,z
-y,x-y,z
-x,-y,z
-x+y,-x,z
y,-x+y,z
x-y,-y,-z
-x,-x+y,-z
y,x,-z
-y,-x,-z
-x+y,y,-z
x,x-y,-z
-x,-y,-z
-x+y,-x,-z
y,-x+y,-z
x,y,-z
x-y,x,-z
-y,x-y,-z
-x+y,y,z
x,x-y,z
-y,-x,z
y,x,z
x-y,-y,z
-x,-x+y,z
loop_
_atom_site_type_symbol
_atom_site_label
_atom_site_fract_x
_atom_site_fract_y
_atom_site_fract_z
Si Si1 0.525738 0.921436 0.314288
Si Si2 0.715771 0.924124 0.255782
Si Si3 0.618410 0.876424 0.649096
Si Si4 0.400969 0.268982 0.056628
Si Si5 0.718375 0.924820 0.558459
Si Si6 0.925390 0.532292 0.803380
Si Si7 0.710664 0.787188 0.138356
Si Si8 0.332620 0.526714 0.878824
O O1 0.444849 0.889698 0.321653
O O2 0.550113 0.881022 0.351393
O O3 0.543848 0.912658 0.255677
O O4 0.564489 0.000000 0.330218
O O5 0.743392 0.871696 0.264679
O O6 0.660116 0.912411 0.298817
O O7 0.683576 0.914606 0.197913
O O8 0.779710 0.000000 0.262153
O O9 0.595462 0.797731 0.647592
O O10 0.659796 0.914698 0.597906
O O11 0.386065 0.193033 0.052577
O O12 0.349467 0.266814 0.100821
O O13 0.480904 0.318951 0.069853
O O14 0.387163 0.291603 0.000000
O O15 0.688782 0.913853 0.500000
O O16 0.744644 0.872322 0.571543
O O17 0.782839 0.000000 0.565293
O O18 0.930641 0.465321 0.808609
O O19 0.859345 0.520632 0.834859
O O20 0.000000 0.595335 0.821959
O O21 0.732478 0.866239 0.126502
O O22 0.775546 0.775546 0.130702
O O23 0.268552 0.537104 0.865717
O O24 0.399881 0.600120 0.886069
#
# Coordination Sequence:
#
# PCOD8328631 Si02
#       8
#    24  24  24  24  24  24  24  24
#     4   9  17  29  45  65  90 119 151 188 230 277
#     4   9  17  28  44  68  95 121 151 190 234 275
#     4  10  19  29  45  69  94 121 156 195 233 278
#     4   9  19  34  48  64  88 117 151 188 224 267
#     4   9  17  29  45  66  94 128 163 198 236 275
#     4   8  16  30  45  63  88 120 153 182 219 272
#     4   9  18  32  50  72  97 125 155 191 236 282
#     4  10  20  33  50  70  93 120 153 193 236 282
#
# _framework density 16.723904999999998
#
# number of rings (size 3 to 8) (size 9 to 14) (size 15 to 20)
#    0.000    2.875    0.000    2.000    1.750    1.500 
#    0.000    0.000    0.000    1.750    0.000    7.000 
#    0.000    3.000    0.000    3.375    0.000    3.250 
#
# Total GULP energy -2378860.355697 kJ/mol
# GULP energy per Si atom -12389.897686 kJ/mol
# Density = 1.668584 g / cm^3
# Si number density = 16.723905 Si / 1000 Ang^3
#
#
#
# Elastic Constant Matrix: (Units=GPa)
#
#
# Indices 1 2 3 4 5 6 
#
# 1 84.2767 42.7201 46.4394 0.0000 0.0000 0.0000
# 2 42.7201 84.2767 46.4394 0.0000 0.0000 0.0000
# 3 46.4394 46.4394 87.5747 0.0000 0.0000 0.0000
# 4 0.0000 0.0000 0.0000 16.5304 0.0000 0.0000
# 5 0.0000 0.0000 0.0000 0.0000 16.5304 0.0000
# 6 0.0000 0.0000 0.0000 0.0000 0.0000 20.7783
#
#
#
# Elastic Compliance Matrix: (Units=1/GPa)
#
#
# Indices 1 2 3 4 5 6 
#
# 1 0.018463 -0.005600 -0.006821 0.000000 0.000000 0.000000
# 2 -0.005600 0.018463 -0.006821 0.000000 0.000000 0.000000
# 3 -0.006821 -0.006821 0.018653 0.000000 0.000000 0.000000
# 4 0.000000 0.000000 0.000000 0.060495 0.000000 0.000000
# 5 0.000000 0.000000 0.000000 0.000000 0.060495 0.000000
# 6 0.000000 0.000000 0.000000 0.000000 0.000000 0.048127
#
#
# Mechanical properties :
#
#
# Convention : Reuss Voigt Hill
#
# Bulk Modulus (GPa) = 58.49775 58.59177 58.54476
# Shear Modulus (GPa) = 18.59580 18.80309 18.69945
#
# Velocity S-wave (km/s) = 3.33818 3.35673 3.34747
# Velocity P-wave (km/s) = 7.06487 7.08056 7.07272
#
# Compressibility (1/GPa) = 0.01709467
#
# Stress axis : x y z
#
# Youngs Moduli (GPa) = 54.16212 54.16212 53.61133
#
# Poissons Ratio (x) = 0.30333 0.36567
# Poissons Ratio (y) = 0.30333 0.36567
# Poissons Ratio (z) = 0.36943 0.36943
#
# Static dielectric constant tensor:
#      x y z
#    x 3.232420 0.000000 0.000000 
#    y 0.000000 3.232420 0.000000 
#    z 0.000000 0.000000 3.294300 
# 
# 
# High freq. dielectric constant tensor:
#      x y z
#    x 1.632400 0.000000 0.000000 
#    y 0.000000 1.632400 0.000000 
#    z 0.000000 0.000000 1.635800 
# 
# From -- ./inp_files/9324.got.cif
#   From: 2010.03.12/outbox.cif.g09.slc.cpg/sg191_5_cif.got.tgz:9324.got - 2010.04.01 12:09:02.
