data_PCOD8328838
_publ_section_title
;
Structure prediction by ZEFSAII (Michael W. Deem and Ramdas Pophale) SiO2 
 PCOD8328838
Probable space group: P 6/M M M
;
_chemical_formula_sum "Si O2"
_cell_formula_units_Z 108
_cell_length_a 16.974903
_cell_length_b 16.974903
_cell_length_c 24.301999
_cell_angle_alpha 90.000000
_cell_angle_beta 90.000000
_cell_angle_gamma 120.000000
_cell_volume 6064.391535
_symmetry_space_group_name_H-M "P 6/M M M"
_symmetry_group_IT_number 191
_symmetry_cell_setting 'hexagonal'
loop_
_space_group_symop_operation_xyz
x,y,z
x-y,x,z
-y,x-y,z
-x,-y,z
-x+y,-x,z
y,-x+y,z
x-y,-y,-z
-x,-x+y,-z
y,x,-z
-y,-x,-z
-x+y,y,-z
x,x-y,-z
-x,-y,-z
-x+y,-x,-z
y,-x+y,-z
x,y,-z
x-y,x,-z
-y,x-y,-z
-x+y,y,z
x,x-y,z
-y,-x,z
y,x,z
x-y,-y,z
-x,-x+y,z
loop_
_atom_site_type_symbol
_atom_site_label
_atom_site_fract_x
_atom_site_fract_y
_atom_site_fract_z
Si Si1 0.845556 0.513141 0.061635
Si Si2 0.713924 0.609058 0.379641
Si Si3 0.553718 0.446283 0.438373
Si Si4 0.155646 0.667481 0.270522
Si Si5 0.098418 0.725744 0.166407
O O1 0.738220 0.476440 0.067386
O O2 0.863190 0.431595 0.075220
O O3 0.900764 0.592408 0.104964
O O4 0.879710 0.551074 0.000000
O O5 0.820373 0.640745 0.394194
O O6 0.685295 0.685295 0.396809
O O7 0.649973 0.510944 0.408438
O O8 0.698258 0.593353 0.314262
O O9 0.500000 0.500000 0.439959
O O10 0.574134 0.425867 0.500000
O O11 0.133808 0.566904 0.285305
O O12 0.263807 0.736194 0.272786
O O13 0.118997 0.666775 0.209625
O O14 0.168200 0.831801 0.174159
O O15 0.000000 0.713318 0.177361
#
# Coordination Sequence:
#
# PCOD8328838 Si02
#       5
#    24  24  12  24  24
#     4   9  17  29  45  66  94 127 159 188 220 264
#     4  10  20  34  53  76 104 139 176 216 259 303
#     4   9  18  34  54  76 104 136 169 207 251 301
#     4  10  19  31  49  73 102 133 165 199 237 284
#     4  10  21  34  48  67  90 119 154 195 242 289
#
# _framework density 17.808876000000001
#
# number of rings (size 3 to 8) (size 9 to 14) (size 15 to 20)
#    0.000    2.333    1.111    1.778    0.000    4.444 
#    0.667    3.333    0.000    0.444    0.000    0.000 
#    0.000    5.333    0.000   11.111    0.000    0.000 
#
# Total GULP energy -1338619.955946 kJ/mol
# GULP energy per Si atom -12394.629222 kJ/mol
# Density = 1.776834 g / cm^3
# Si number density = 17.808876 Si / 1000 Ang^3
#
#
#
# Elastic Constant Matrix: (Units=GPa)
#
#
# Indices 1 2 3 4 5 6 
#
# 1 86.4129 56.5591 17.4983 0.0000 0.0000 0.0000
# 2 56.5591 86.4129 17.4983 0.0000 0.0000 0.0000
# 3 17.4983 17.4983 81.0131 0.0000 0.0000 0.0000
# 4 0.0000 0.0000 0.0000 15.5646 0.0000 0.0000
# 5 0.0000 0.0000 0.0000 0.0000 15.5646 0.0000
# 6 0.0000 0.0000 0.0000 0.0000 0.0000 14.9269
#
#
#
# Elastic Compliance Matrix: (Units=1/GPa)
#
#
# Indices 1 2 3 4 5 6 
#
# 1 0.020441 -0.013056 -0.001595 0.000000 0.000000 0.000000
# 2 -0.013056 0.020441 -0.001595 0.000000 0.000000 0.000000
# 3 -0.001595 -0.001595 0.013033 0.000000 0.000000 0.000000
# 4 0.000000 0.000000 0.000000 0.064248 0.000000 0.000000
# 5 0.000000 0.000000 0.000000 0.000000 0.064248 0.000000
# 6 0.000000 0.000000 0.000000 0.000000 0.000000 0.066993
#
#
# Mechanical properties :
#
#
# Convention : Reuss Voigt Hill
#
# Bulk Modulus (GPa) = 46.68081 48.55003 47.61542
# Shear Modulus (GPa) = 17.29886 20.03012 18.66449
#
# Velocity S-wave (km/s) = 3.12005 3.35733 3.24086
# Velocity P-wave (km/s) = 6.26487 6.50767 6.38743
#
# Compressibility (1/GPa) = 0.02142208
#
# Stress axis : x y z
#
# Youngs Moduli (GPa) = 48.92203 48.92203 76.72991
#
# Poissons Ratio (x) = 0.63872 0.12239
# Poissons Ratio (y) = 0.63872 0.12239
# Poissons Ratio (z) = 0.07803 0.07803
#
# Static dielectric constant tensor:
#      x y z
#    x 3.155970 0.000000 0.000000 
#    y 0.000000 3.155970 0.000000 
#    z 0.000000 0.000000 3.514760 
# 
# 
# High freq. dielectric constant tensor:
#      x y z
#    x 1.662350 0.000000 0.000000 
#    y 0.000000 1.662350 0.000000 
#    z 0.000000 0.000000 1.703110 
# 
# From -- ./inp_files/8353.got.cif
#   From: 2010.03.12/outbox.cif.g09.slc.cpg/sg191_5_cif.got.tgz:8353.got - 2010.04.01 12:09:02.
