data_PCOD8328184
_publ_section_title
;
Structure prediction by ZEFSAII (Michael W. Deem and Ramdas Pophale) SiO2 
 PCOD8328184
Probable space group: P -6 2 C
;
_chemical_formula_sum "Si O2"
_cell_formula_units_Z 34
_cell_length_a 10.859672
_cell_length_b 10.859672
_cell_length_c 15.582951
_cell_angle_alpha 90.000000
_cell_angle_beta 90.000000
_cell_angle_gamma 120.000000
_cell_volume 1591.526056
_symmetry_space_group_name_H-M "P -6 2 C"
_symmetry_group_IT_number 190
_symmetry_cell_setting 'hexagonal'
loop_
_space_group_symop_operation_xyz
x,y,z
-x+y,-x,1/2-z
-y,x-y,z
x,y,1/2-z
-x+y,-x,z
-y,x-y,1/2-z
x-y,-y,-z
-x,-x+y,-z
y,x,-z
y,x,1/2+z
x-y,-y,1/2+z
-x,-x+y,1/2+z
loop_
_atom_site_type_symbol
_atom_site_label
_atom_site_fract_x
_atom_site_fract_y
_atom_site_fract_z
Si Si1 0.565605 0.598337 0.906140
Si Si2 0.151078 0.568512 0.250000
Si Si3 0.005151 0.159026 0.347488
Si Si4 0.666668 0.333335 0.148545
O O1 0.534511 0.478774 0.835321
O O2 0.731124 0.721075 0.908627
O O3 0.474478 0.673222 0.886461
O O4 0.526556 0.526556 0.000000
O O5 0.245598 0.741108 0.250000
O O6 0.002959 0.208053 0.250000
O O7 0.141445 0.137365 0.363087
O O8 0.666667 0.333334 0.250000
#
# Coordination Sequence:
#
# PCOD8328184 Si02
#       4
#    12   6  12   4
#     4  12  26  45  72 105 142 182 242 299 350 427
#     4  10  26  48  72  98 140 188 232 278 364 426
#     4   8  17  38  66  99 131 181 232 277 346 406
#     4  12  27  51  72 103 143 196 237 291 372 418
#
# _framework density 21.363144999999999
#
# number of rings (size 3 to 8) (size 9 to 14) (size 15 to 20)
#    1.059    0.706    3.529    0.000    4.941    4.235 
#    0.000    0.000    0.000    0.000    0.000    0.000 
#    0.000    0.000    0.000    0.000    0.000    0.000 
#
# Total GULP energy -421454.750096 kJ/mol
# GULP energy per Si atom -12395.727944 kJ/mol
# Density = 2.131452 g / cm^3
# Si number density = 21.363145 Si / 1000 Ang^3
#
#
#
# Elastic Constant Matrix: (Units=GPa)
#
#
# Indices 1 2 3 4 5 6 
#
# 1 70.8263 -9.1886 27.3913 0.0002 0.0004 -0.0010
# 2 -9.1886 70.8247 27.3902 -0.0004 -0.0004 0.0008
# 3 27.3913 27.3902 160.3202 0.0001 0.0001 -0.0006
# 4 0.0002 -0.0004 0.0001 20.0829 0.0001 0.0004
# 5 0.0004 -0.0004 0.0001 0.0001 20.0825 -0.0003
# 6 -0.0010 0.0008 -0.0006 0.0004 -0.0003 40.0126
#
#
#
# Elastic Compliance Matrix: (Units=1/GPa)
#
#
# Indices 1 2 3 4 5 6 
#
# 1 0.015813 0.003315 -0.003268 0.000000 0.000000 0.000000
# 2 0.003315 0.015813 -0.003268 0.000000 0.000000 0.000000
# 3 -0.003268 -0.003268 0.007354 0.000000 0.000000 0.000000
# 4 0.000000 0.000000 0.000000 0.049794 0.000000 0.000000
# 5 0.000000 0.000000 0.000000 0.000000 0.049795 0.000000
# 6 0.000000 0.000000 0.000000 0.000000 0.000000 0.024992
#
#
# Mechanical properties :
#
#
# Convention : Reuss Voigt Hill
#
# Bulk Modulus (GPa) = 30.73230 43.68412 37.20821
# Shear Modulus (GPa) = 27.64737 33.12749 30.38743
#
# Velocity S-wave (km/s) = 3.60135 3.94214 3.77559
# Velocity P-wave (km/s) = 5.63115 6.41977 6.03835
#
# Compressibility (1/GPa) = 0.03253905
#
# Stress axis : x y z
#
# Youngs Moduli (GPa) = 63.23870 63.23757 135.97596
#
# Poissons Ratio (x) = -0.20966 0.44439
# Poissons Ratio (y) = -0.20966 0.44439
# Poissons Ratio (z) = 0.20667 0.20667
#
# Static dielectric constant tensor:
#      x y z
#    x 3.593200 0.000000 0.000000 
#    y 0.000000 3.593190 0.000010 
#    z 0.000000 0.000010 3.742320 
# 
# 
# High freq. dielectric constant tensor:
#      x y z
#    x 1.828270 0.000000 0.000000 
#    y 0.000000 1.828270 0.000000 
#    z 0.000000 0.000000 1.833830 
# 
# From -- ./inp_files/2394.got.cif
#   From: 2010.06.25/outbox.cif.g09.slc.cpg/sg190_2_cif.got.tgz:2394.got - 2010.06.28 13:08:06.
