data_PCOD8328144
_publ_section_title
;
Structure prediction by ZEFSAII (Michael W. Deem and Ramdas Pophale) SiO2 
 PCOD8328144
Probable space group: P -6 2 C
;
_chemical_formula_sum "Si O2"
_cell_formula_units_Z 68
_cell_length_a 11.765295
_cell_length_b 11.765295
_cell_length_c 27.753755
_cell_angle_alpha 90.000000
_cell_angle_beta 90.000000
_cell_angle_gamma 120.000000
_cell_volume 3327.040013
_symmetry_space_group_name_H-M "P -6 2 C"
_symmetry_group_IT_number 190
_symmetry_cell_setting 'hexagonal'
loop_
_space_group_symop_operation_xyz
x,y,z
-x+y,-x,1/2-z
-y,x-y,z
x,y,1/2-z
-x+y,-x,z
-y,x-y,1/2-z
x-y,-y,-z
-x,-x+y,-z
y,x,-z
y,x,1/2+z
x-y,-y,1/2+z
-x,-x+y,1/2+z
loop_
_atom_site_type_symbol
_atom_site_label
_atom_site_fract_x
_atom_site_fract_y
_atom_site_fract_z
Si Si1 0.333334 0.666668 0.959463
Si Si2 0.066134 0.403712 0.449266
Si Si3 0.086881 0.667905 0.307470
Si Si4 0.666668 0.333334 0.151970
Si Si5 0.195216 0.389577 0.804932
Si Si6 0.935507 0.331003 0.658324
Si Si7 0.871296 0.553057 0.520740
O O1 0.333334 0.666667 0.904127
O O2 0.478563 0.769249 0.977541
O O3 0.004155 0.353785 0.396611
O O4 0.199963 0.399857 0.442386
O O5 0.088370 0.548902 0.451384
O O6 0.000000 0.328890 0.500000
O O7 0.111468 0.680828 0.250000
O O8 0.067458 0.528506 0.325073
O O9 0.209252 0.788832 0.334195
O O10 0.956726 0.675620 0.322476
O O11 0.707675 0.477644 0.168233
O O12 0.231650 0.426391 0.750000
O O13 0.037247 0.301826 0.811817
O O14 0.000000 0.678850 0.500000
#
# Coordination Sequence:
#
# PCOD8328144 Si02
#       7
#     4  12  12   4  12  12  12
#     4   9  21  31  52  93 111 147 199 241 294 370
#     4  10  22  38  56  91 119 158 204 248 305 364
#     4  11  24  42  68  96 127 170 211 263 327 379
#     4  12  22  34  66  93 123 156 204 256 316 373
#     4  11  24  41  63  93 129 164 205 259 318 380
#     4  12  24  42  66  95 132 163 217 262 316 384
#     4   9  19  36  58  77 123 155 191 245 299 351
#
# _framework density 20.438587999999999
#
# number of rings (size 3 to 8) (size 9 to 14) (size 15 to 20)
#    0.000    1.412    1.765    3.882    7.412    1.412 
#    1.059    0.000    0.000    0.353    0.000    0.000 
#    0.000    0.000    0.000    0.000    0.000    0.000 
#
# Total GULP energy -842402.890484 kJ/mol
# GULP energy per Si atom -12388.277801 kJ/mol
# Density = 2.039207 g / cm^3
# Si number density = 20.438588 Si / 1000 Ang^3
#
#
#
# Elastic Constant Matrix: (Units=GPa)
#
#
# Indices 1 2 3 4 5 6 
#
# 1 93.7626 32.3071 20.9154 0.0001 0.0000 -0.0001
# 2 32.3071 93.7626 20.9153 0.0000 0.0000 0.0001
# 3 20.9154 20.9153 108.2137 0.0001 0.0000 0.0000
# 4 0.0001 0.0000 0.0001 18.0687 0.0000 0.0000
# 5 0.0000 0.0000 0.0000 0.0000 18.0687 0.0000
# 6 -0.0001 0.0001 0.0000 0.0000 0.0000 30.7279
#
#
#
# Elastic Compliance Matrix: (Units=1/GPa)
#
#
# Indices 1 2 3 4 5 6 
#
# 1 0.012374 -0.003898 -0.001638 0.000000 0.000000 0.000000
# 2 -0.003898 0.012374 -0.001638 0.000000 0.000000 0.000000
# 3 -0.001638 -0.001638 0.009874 0.000000 0.000000 0.000000
# 4 0.000000 0.000000 0.000000 0.055344 0.000000 0.000000
# 5 0.000000 0.000000 0.000000 0.000000 0.055344 0.000000
# 6 0.000000 0.000000 0.000000 0.000000 0.000000 0.032544
#
#
# Mechanical properties :
#
#
# Convention : Reuss Voigt Hill
#
# Bulk Modulus (GPa) = 49.32691 49.33495 49.33093
# Shear Modulus (GPa) = 25.13059 28.14647 26.63853
#
# Velocity S-wave (km/s) = 3.51032 3.71499 3.61410
# Velocity P-wave (km/s) = 6.37310 6.52626 6.45013
#
# Compressibility (1/GPa) = 0.02027291
#
# Stress axis : x y z
#
# Youngs Moduli (GPa) = 80.81583 80.81586 101.27387
#
# Poissons Ratio (x) = 0.31503 0.16590
# Poissons Ratio (y) = 0.31503 0.16590
# Poissons Ratio (z) = 0.13239 0.13239
#
# Static dielectric constant tensor:
#      x y z
#    x 3.768550 0.000000 0.000000 
#    y 0.000000 3.768550 0.000000 
#    z 0.000000 0.000000 3.739560 
# 
# 
# High freq. dielectric constant tensor:
#      x y z
#    x 1.788890 0.000000 0.000000 
#    y 0.000000 1.788890 0.000000 
#    z 0.000000 0.000000 1.809270 
# 
# From -- ./inp_files/5150.got.cif
#   From: 2010.06.25/outbox.cif.g09.slc.cpg/sg190_3_cif.got.tgz:5150.got - 2010.06.28 13:08:06.
