data_PCOD8328404
_publ_section_title
;
Structure prediction by ZEFSAII (Michael W. Deem and Ramdas Pophale) SiO2 
 PCOD8328404
Probable space group: P 6/M M M
;
_chemical_formula_sum "Si O2"
_cell_formula_units_Z 108
_cell_length_a 30.985486
_cell_length_b 30.985486
_cell_length_c 7.980023
_cell_angle_alpha 90.000000
_cell_angle_beta 90.000000
_cell_angle_gamma 120.000000
_cell_volume 6635.159993
_symmetry_space_group_name_H-M "P 6/M M M"
_symmetry_group_IT_number 191
_symmetry_cell_setting 'hexagonal'
loop_
_space_group_symop_operation_xyz
x,y,z
x-y,x,z
-y,x-y,z
-x,-y,z
-x+y,-x,z
y,-x+y,z
x-y,-y,-z
-x,-x+y,-z
y,x,-z
-y,-x,-z
-x+y,y,-z
x,x-y,-z
-x,-y,-z
-x+y,-x,-z
y,-x+y,-z
x,y,-z
x-y,x,-z
-y,x-y,-z
-x+y,y,z
x,x-y,z
-y,-x,z
y,x,z
x-y,-y,z
-x,-x+y,z
loop_
_atom_site_type_symbol
_atom_site_label
_atom_site_fract_x
_atom_site_fract_y
_atom_site_fract_z
Si Si1 0.799730 0.497054 0.315038
Si Si2 0.795723 0.850253 0.699620
Si Si3 0.150643 0.398089 0.191758
Si Si4 0.665862 0.434674 0.000000
Si Si5 0.697449 0.943586 0.696052
O O1 0.805808 0.478503 0.500000
O O2 0.747989 0.495977 0.302068
O O3 0.843479 0.554320 0.293033
O O4 0.800795 0.462061 0.167210
O O5 0.795392 0.851018 0.500000
O O6 0.806181 0.903091 0.774078
O O7 0.838725 0.838725 0.762510
O O8 0.742166 0.806601 0.762415
O O9 0.191392 0.382783 0.252990
O O10 0.094852 0.352772 0.211342
O O11 0.160810 0.414759 0.000000
O O12 0.621334 0.378667 0.000000
O O13 0.716754 0.433509 0.000000
O O14 0.689765 0.932749 0.500000
O O15 0.710560 0.000000 0.736522
#
# Coordination Sequence:
#
# PCOD8328404 Si02
#       5
#    24  24  24  12  24
#     4   9  17  30  47  66  91 123 158 196 232 268
#     4   8  13  21  33  49  70  98 134 176 220 267
#     4  10  18  28  43  63  87 117 152 186 223 271
#     4  10  19  32  48  70  99 129 161 195 230 269
#     4   9  17  27  39  58  83 110 143 181 220 270
#
# _framework density 16.276924000000001
#
# number of rings (size 3 to 8) (size 9 to 14) (size 15 to 20)
#    0.000    2.889    1.111    2.778    0.000    3.111 
#    0.000    0.000    0.000    1.556    0.000    1.556 
#    0.000    1.778    0.000    4.667    0.000    0.000 
#
# Total GULP energy -1338502.298002 kJ/mol
# GULP energy per Si atom -12393.539796 kJ/mol
# Density = 1.623988 g / cm^3
# Si number density = 16.276924 Si / 1000 Ang^3
#
#
#
# Elastic Constant Matrix: (Units=GPa)
#
#
# Indices 1 2 3 4 5 6 
#
# 1 70.1931 26.9534 30.0016 0.0000 0.0000 0.0000
# 2 26.9534 70.1931 30.0016 0.0000 0.0000 0.0000
# 3 30.0016 30.0016 79.5774 0.0000 0.0000 0.0000
# 4 0.0000 0.0000 0.0000 16.1654 0.0000 0.0000
# 5 0.0000 0.0000 0.0000 0.0000 16.1654 0.0000
# 6 0.0000 0.0000 0.0000 0.0000 0.0000 21.6198
#
#
#
# Elastic Compliance Matrix: (Units=1/GPa)
#
#
# Indices 1 2 3 4 5 6 
#
# 1 0.018273 -0.004854 -0.005059 0.000000 0.000000 0.000000
# 2 -0.004854 0.018273 -0.005059 0.000000 0.000000 0.000000
# 3 -0.005059 -0.005059 0.016381 0.000000 0.000000 0.000000
# 4 0.000000 0.000000 0.000000 0.061861 0.000000 0.000000
# 5 0.000000 0.000000 0.000000 0.000000 0.061861 0.000000
# 6 0.000000 0.000000 0.000000 0.000000 0.000000 0.046254
#
#
# Mechanical properties :
#
#
# Convention : Reuss Voigt Hill
#
# Bulk Modulus (GPa) = 43.51210 43.76411 43.63810
# Shear Modulus (GPa) = 19.19342 19.65725 19.42533
#
# Velocity S-wave (km/s) = 3.43764 3.47893 3.45835
# Velocity P-wave (km/s) = 6.52280 6.56376 6.54331
#
# Compressibility (1/GPa) = 0.02298212
#
# Stress axis : x y z
#
# Youngs Moduli (GPa) = 54.72660 54.72660 61.04670
#
# Poissons Ratio (x) = 0.26566 0.30883
# Poissons Ratio (y) = 0.26566 0.30883
# Poissons Ratio (z) = 0.27686 0.27686
#
# Static dielectric constant tensor:
#      x y z
#    x 2.941040 0.000000 0.000000 
#    y 0.000000 2.941040 0.000000 
#    z 0.000000 0.000000 3.068130 
# 
# 
# High freq. dielectric constant tensor:
#      x y z
#    x 1.597670 0.000000 0.000000 
#    y 0.000000 1.597670 0.000000 
#    z 0.000000 0.000000 1.625150 
# 
# From -- ./inp_files/1717.got.cif
#   From: 2010.03.12/outbox.cif.g09.slc.cpg/sg191_1_cif.got.tgz:1717.got - 2010.04.01 12:09:02.
