data_PCOD8328542
_publ_section_title
;
Structure prediction by ZEFSAII (Michael W. Deem and Ramdas Pophale) SiO2 
 PCOD8328542
Probable space group: P 6/M M M
;
_chemical_formula_sum "Si O2"
_cell_formula_units_Z 108
_cell_length_a 21.425536
_cell_length_b 21.425536
_cell_length_c 16.212853
_cell_angle_alpha 90.000000
_cell_angle_beta 90.000000
_cell_angle_gamma 120.000000
_cell_volume 6445.453322
_symmetry_space_group_name_H-M "P 6/M M M"
_symmetry_group_IT_number 191
_symmetry_cell_setting 'hexagonal'
loop_
_space_group_symop_operation_xyz
x,y,z
x-y,x,z
-y,x-y,z
-x,-y,z
-x+y,-x,z
y,-x+y,z
x-y,-y,-z
-x,-x+y,-z
y,x,-z
-y,-x,-z
-x+y,y,-z
x,x-y,-z
-x,-y,-z
-x+y,-x,-z
y,-x+y,-z
x,y,-z
x-y,x,-z
-y,x-y,-z
-x+y,y,z
x,x-y,z
-y,-x,z
y,x,z
x-y,-y,z
-x,-x+y,z
loop_
_atom_site_type_symbol
_atom_site_label
_atom_site_fract_x
_atom_site_fract_y
_atom_site_fract_z
Si Si1 0.700018 0.919851 0.826543
Si Si2 0.478309 0.665067 0.252637
Si Si3 0.918214 0.622108 0.333760
Si Si4 0.223168 0.917399 0.500000
Si Si5 0.703642 0.148628 0.909619
O O1 0.726862 0.863431 0.847008
O O2 0.669188 0.905293 0.733976
O O3 0.636933 0.910888 0.887999
O O4 0.767651 0.000000 0.837010
O O5 0.469547 0.734774 0.254422
O O6 0.403388 0.596613 0.277946
O O7 0.537682 0.673332 0.318985
O O8 0.500994 0.652113 0.161113
O O9 0.901236 0.643059 0.421800
O O10 0.000000 0.637711 0.329076
O O11 0.136807 0.863194 0.500000
O O12 0.239435 0.000000 0.500000
O O13 0.774743 0.225258 0.911396
O O14 0.665734 0.131017 0.000000
#
# Coordination Sequence:
#
# PCOD8328542 Si02
#       5
#    24  24  24  12  24
#     4   9  16  27  44  65  89 116 147 183 224 269
#     4  10  19  31  47  67  94 125 155 186 225 277
#     4   9  18  32  50  70  90 116 151 193 234 266
#     4  10  18  30  51  76  99 121 151 191 232 272
#     4   8  15  28  44  62  85 113 146 185 224 261
#
# _framework density 16.755997000000001
#
# number of rings (size 3 to 8) (size 9 to 14) (size 15 to 20)
#    0.000    2.889    0.000    3.556    0.000    1.333 
#    0.000    0.556    0.000    3.667    0.000    7.778 
#    0.000    5.333    0.000    5.556    0.000    0.444 
#
# Total GULP energy -1338725.178380 kJ/mol
# GULP energy per Si atom -12395.603504 kJ/mol
# Density = 1.671786 g / cm^3
# Si number density = 16.755997 Si / 1000 Ang^3
#
#
#
# Elastic Constant Matrix: (Units=GPa)
#
#
# Indices 1 2 3 4 5 6 
#
# 1 96.2194 66.2956 23.7094 0.0000 0.0000 0.0000
# 2 66.2956 96.2194 23.7094 0.0000 0.0000 0.0000
# 3 23.7094 23.7094 82.5400 0.0000 0.0000 0.0000
# 4 0.0000 0.0000 0.0000 15.1564 0.0000 0.0000
# 5 0.0000 0.0000 0.0000 0.0000 15.1564 0.0000
# 6 0.0000 0.0000 0.0000 0.0000 0.0000 14.9619
#
#
#
# Elastic Compliance Matrix: (Units=1/GPa)
#
#
# Indices 1 2 3 4 5 6 
#
# 1 0.020067 -0.013351 -0.001929 0.000000 0.000000 0.000000
# 2 -0.013351 0.020067 -0.001929 0.000000 0.000000 0.000000
# 3 -0.001929 -0.001929 0.013224 0.000000 0.000000 0.000000
# 4 0.000000 0.000000 0.000000 0.065979 0.000000 0.000000
# 5 0.000000 0.000000 0.000000 0.000000 0.065979 0.000000
# 6 0.000000 0.000000 0.000000 0.000000 0.000000 0.066836
#
#
# Mechanical properties :
#
#
# Convention : Reuss Voigt Hill
#
# Bulk Modulus (GPa) = 52.80055 55.82308 54.31181
# Shear Modulus (GPa) = 17.07164 19.80592 18.43878
#
# Velocity S-wave (km/s) = 3.19539 3.44178 3.32087
# Velocity P-wave (km/s) = 6.72264 7.01299 6.86935
#
# Compressibility (1/GPa) = 0.01893920
#
# Stress axis : x y z
#
# Youngs Moduli (GPa) = 49.83259 49.83259 75.62207
#
# Poissons Ratio (x) = 0.66532 0.14589
# Poissons Ratio (y) = 0.66532 0.14589
# Poissons Ratio (z) = 0.09614 0.09614
#
# Static dielectric constant tensor:
#      x y z
#    x 2.992940 0.000000 0.000000 
#    y 0.000000 2.992940 0.000000 
#    z 0.000000 0.000000 3.406220 
# 
# 
# High freq. dielectric constant tensor:
#      x y z
#    x 1.625810 0.000000 0.000000 
#    y 0.000000 1.625810 0.000000 
#    z 0.000000 0.000000 1.649630 
# 
# From -- ./inp_files/6114.got.cif
#   From: 2010.03.12/outbox.cif.g09.slc.cpg/sg191_4_cif.got.tgz:6114.got - 2010.04.01 12:09:02.
