data_PCOD8328393
_publ_section_title
;
Structure prediction by ZEFSAII (Michael W. Deem and Ramdas Pophale) SiO2 
 PCOD8328393
Probable space group: P 6/M M M
;
_chemical_formula_sum "Si O2"
_cell_formula_units_Z 156
_cell_length_a 21.242523
_cell_length_b 21.242523
_cell_length_c 27.963560
_cell_angle_alpha 90.000000
_cell_angle_beta 90.000000
_cell_angle_gamma 120.000000
_cell_volume 10927.864114
_symmetry_space_group_name_H-M "P 6/M M M"
_symmetry_group_IT_number 191
_symmetry_cell_setting 'hexagonal'
loop_
_space_group_symop_operation_xyz
x,y,z
x-y,x,z
-y,x-y,z
-x,-y,z
-x+y,-x,z
y,-x+y,z
x-y,-y,-z
-x,-x+y,-z
y,x,-z
-y,-x,-z
-x+y,y,-z
x,x-y,-z
-x,-y,-z
-x+y,-x,-z
y,-x+y,-z
x,y,-z
x-y,x,-z
-y,x-y,-z
-x+y,y,z
x,x-y,z
-y,-x,z
y,x,z
x-y,-y,z
-x,-x+y,z
loop_
_atom_site_type_symbol
_atom_site_label
_atom_site_fract_x
_atom_site_fract_y
_atom_site_fract_z
Si Si1 0.149374 0.441391 0.698733
Si Si2 0.470505 0.387910 0.387089
Si Si3 0.476470 0.812903 0.878787
Si Si4 0.084056 0.616372 0.207059
Si Si5 0.625029 0.740935 0.553314
Si Si6 0.921940 0.709130 0.646811
Si Si7 0.914229 0.457115 0.056498
O O1 0.235569 0.471137 0.705955
O O2 0.136817 0.486743 0.657472
O O3 0.112219 0.445538 0.746889
O O4 0.109825 0.358815 0.681779
O O5 0.544454 0.455547 0.404342
O O6 0.412216 0.412216 0.370860
O O7 0.442742 0.336891 0.433523
O O8 0.390641 0.781282 0.866380
O O9 0.490019 0.745010 0.889565
O O10 0.527340 0.862502 0.835619
O O11 0.496751 0.870350 0.923241
O O12 0.090237 0.545119 0.215522
O O13 0.000000 0.592639 0.196118
O O14 0.653430 0.738743 0.500000
O O15 0.597548 0.798774 0.556538
O O16 0.687671 0.760435 0.592148
O O17 0.873662 0.747323 0.649110
O O18 0.000000 0.768428 0.665510
O O19 0.000000 0.500000 0.072927
O O20 0.909185 0.454593 0.000000
#
# Coordination Sequence:
#
# PCOD8328393 Si02
#       7
#    24  24  24  24  24  24  12
#     4  10  18  28  43  60  79 103 134 169 205 243
#     4  10  19  29  42  60  80 100 127 161 199 246
#     4   9  18  29  43  63  89 114 147 188 229 272
#     4  10  18  28  44  61  83 113 143 174 215 267
#     4   9  17  29  44  59  76  99 124 154 192 232
#     4   9  17  28  42  60  80 100 123 153 188 231
#     4   9  18  32  48  64  88 120 156 194 235 283
#
# _framework density 14.275433
#
# number of rings (size 3 to 8) (size 9 to 14) (size 15 to 20)
#    0.462    2.077    0.000    5.692    0.000    3.077 
#    0.000    0.769    0.000    6.615    0.000    0.000 
#    0.000    0.000    0.000    3.846    0.000    0.000 
#
# Total GULP energy -1932593.516042 kJ/mol
# GULP energy per Si atom -12388.419975 kJ/mol
# Density = 1.424294 g / cm^3
# Si number density = 14.275433 Si / 1000 Ang^3
#
#
#
# Elastic Constant Matrix: (Units=GPa)
#
#
# Indices 1 2 3 4 5 6 
#
# 1 75.7012 32.1998 20.1505 0.0000 0.0000 0.0000
# 2 32.1998 75.7012 20.1505 0.0000 0.0000 0.0000
# 3 20.1505 20.1505 67.3851 0.0000 0.0000 0.0000
# 4 0.0000 0.0000 0.0000 15.1564 0.0000 0.0000
# 5 0.0000 0.0000 0.0000 0.0000 15.1564 0.0000
# 6 0.0000 0.0000 0.0000 0.0000 0.0000 21.7507
#
#
#
# Elastic Compliance Matrix: (Units=1/GPa)
#
#
# Indices 1 2 3 4 5 6 
#
# 1 0.016710 -0.006277 -0.003120 0.000000 0.000000 0.000000
# 2 -0.006277 0.016710 -0.003120 0.000000 0.000000 0.000000
# 3 -0.003120 -0.003120 0.016706 0.000000 0.000000 0.000000
# 4 0.000000 0.000000 0.000000 0.065979 0.000000 0.000000
# 5 0.000000 0.000000 0.000000 0.000000 0.065979 0.000000
# 6 0.000000 0.000000 0.000000 0.000000 0.000000 0.045976
#
#
# Mechanical properties :
#
#
# Convention : Reuss Voigt Hill
#
# Bulk Modulus (GPa) = 39.85234 40.42103 40.13669
# Shear Modulus (GPa) = 19.12352 20.16513 19.64433
#
# Velocity S-wave (km/s) = 3.66404 3.76250 3.71360
# Velocity P-wave (km/s) = 6.77330 6.87399 6.82383
#
# Compressibility (1/GPa) = 0.02509263
#
# Stress axis : x y z
#
# Youngs Moduli (GPa) = 59.84297 59.84297 59.85883
#
# Poissons Ratio (x) = 0.37566 0.18675
# Poissons Ratio (y) = 0.37566 0.18675
# Poissons Ratio (z) = 0.18670 0.18670
#
# Static dielectric constant tensor:
#      x y z
#    x 2.799220 0.000000 0.000000 
#    y 0.000000 2.799220 0.000000 
#    z 0.000000 0.000000 2.728420 
# 
# 
# High freq. dielectric constant tensor:
#      x y z
#    x 1.532430 0.000000 0.000000 
#    y 0.000000 1.532430 0.000000 
#    z 0.000000 0.000000 1.537180 
# 
# From -- ./inp_files/10812.got.cif
#   From: 2010.03.12/outbox.cif.g09.slc.cpg/sg191_6_cif.got.tgz:10812.got - 2010.04.01 12:09:02.
