data_PCOD8328448
_publ_section_title
;
Structure prediction by ZEFSAII (Michael W. Deem and Ramdas Pophale) SiO2 
 PCOD8328448
Probable space group: P 6/M M M
;
_chemical_formula_sum "Si O2"
_cell_formula_units_Z 132
_cell_length_a 16.530594
_cell_length_b 16.530594
_cell_length_c 36.247507
_cell_angle_alpha 90.000000
_cell_angle_beta 90.000000
_cell_angle_gamma 120.000000
_cell_volume 8577.993111
_symmetry_space_group_name_H-M "P 6/M M M"
_symmetry_group_IT_number 191
_symmetry_cell_setting 'hexagonal'
loop_
_space_group_symop_operation_xyz
x,y,z
x-y,x,z
-y,x-y,z
-x,-y,z
-x+y,-x,z
y,-x+y,z
x-y,-y,-z
-x,-x+y,-z
y,x,-z
-y,-x,-z
-x+y,y,-z
x,x-y,-z
-x,-y,-z
-x+y,-x,-z
y,-x+y,-z
x,y,-z
x-y,x,-z
-y,x-y,-z
-x+y,y,z
x,x-y,z
-y,-x,z
y,x,z
x-y,-y,z
-x,-x+y,z
loop_
_atom_site_type_symbol
_atom_site_label
_atom_site_fract_x
_atom_site_fract_y
_atom_site_fract_z
Si Si1 0.404443 0.000000 0.040799
Si Si2 0.107993 0.707630 0.419396
Si Si3 0.554888 0.445113 0.780242
Si Si4 0.668851 0.148621 0.099120
Si Si5 0.785682 0.392841 0.704295
Si Si6 0.890658 0.445329 0.372084
Si Si7 0.606800 0.712800 0.177165
Si Si8 0.101058 0.378013 0.500000
O O1 0.422903 0.092076 0.063017
O O2 0.500000 0.000000 0.036594
O O3 0.364268 0.000000 0.000000
O O4 0.181312 0.818689 0.412674
O O5 0.140725 0.649837 0.394198
O O6 0.115618 0.679571 0.462094
O O7 0.000000 0.680445 0.410770
O O8 0.500000 0.500000 0.777791
O O9 0.573984 0.426017 0.739194
O O10 0.651572 0.508441 0.801743
O O11 0.567716 0.135431 0.106586
O O12 0.742920 0.257081 0.092760
O O13 0.695780 0.106903 0.133738
O O14 0.719962 0.439924 0.705096
O O15 0.845634 0.422817 0.667701
O O16 0.000000 0.500000 0.366450
O O17 0.643901 0.821951 0.186579
O O18 0.684060 0.684060 0.188933
O O19 0.166702 0.333403 0.500000
O O20 0.000000 0.287361 0.500000
#
# Coordination Sequence:
#
# PCOD8328448 Si02
#       8
#    12  24  12  24  12  12  24  12
#     4   9  18  30  44  58  84 118 149 187 229 269
#     4   9  17  29  46  66  90 118 157 195 243 288
#     4  10  19  32  50  71  96 124 149 188 230 277
#     4  10  18  29  44  64  90 117 154 187 227 269
#     4  10  21  32  45  62  94 125 156 186 219 268
#     4  10  19  31  46  64  87 124 162 198 230 275
#     4  10  19  31  49  71  96 124 153 194 234 278
#     4   8  14  25  41  62  85 113 146 196 241 287
#
# _framework density 15.388215000000001
#
# number of rings (size 3 to 8) (size 9 to 14) (size 15 to 20)
#    0.182    2.273    1.818    1.545    0.000    0.727 
#    1.091    1.818    0.000    1.545    0.000    2.545 
#    0.000    0.000    0.000    0.000    0.000   46.091 
#
# Total GULP energy -1635575.872965 kJ/mol
# GULP energy per Si atom -12390.726310 kJ/mol
# Density = 1.535319 g / cm^3
# Si number density = 15.388215 Si / 1000 Ang^3
#
#
#
# Elastic Constant Matrix: (Units=GPa)
#
#
# Indices 1 2 3 4 5 6 
#
# 1 58.4553 33.4389 20.8372 0.0000 0.0000 0.0000
# 2 33.4389 58.4553 20.8372 0.0000 0.0000 0.0000
# 3 20.8372 20.8372 95.6555 0.0000 0.0000 0.0000
# 4 0.0000 0.0000 0.0000 18.2753 0.0000 0.0000
# 5 0.0000 0.0000 0.0000 0.0000 18.2753 0.0000
# 6 0.0000 0.0000 0.0000 0.0000 0.0000 12.5082
#
#
#
# Elastic Compliance Matrix: (Units=1/GPa)
#
#
# Indices 1 2 3 4 5 6 
#
# 1 0.026024 -0.013949 -0.002630 0.000000 0.000000 0.000000
# 2 -0.013949 0.026024 -0.002630 0.000000 0.000000 0.000000
# 3 -0.002630 -0.002630 0.011600 0.000000 0.000000 0.000000
# 4 0.000000 0.000000 0.000000 0.054719 0.000000 0.000000
# 5 0.000000 0.000000 0.000000 0.000000 0.054719 0.000000
# 6 0.000000 0.000000 0.000000 0.000000 0.000000 0.079948
#
#
# Mechanical properties :
#
#
# Convention : Reuss Voigt Hill
#
# Bulk Modulus (GPa) = 39.63749 40.31029 39.97389
# Shear Modulus (GPa) = 16.67424 18.97527 17.82475
#
# Velocity S-wave (km/s) = 3.29534 3.51537 3.40713
# Velocity P-wave (km/s) = 6.34770 6.53678 6.44293
#
# Compressibility (1/GPa) = 0.02522864
#
# Stress axis : x y z
#
# Youngs Moduli (GPa) = 38.42554 38.42554 86.20577
#
# Poissons Ratio (x) = 0.53601 0.22675
# Poissons Ratio (y) = 0.53601 0.22675
# Poissons Ratio (z) = 0.10107 0.10107
#
# Static dielectric constant tensor:
#      x y z
#    x 2.890990 0.000000 0.000000 
#    y 0.000000 2.890990 0.000000 
#    z 0.000000 0.000000 3.090320 
# 
# 
# High freq. dielectric constant tensor:
#      x y z
#    x 1.571910 0.000000 0.000000 
#    y 0.000000 1.571910 0.000000 
#    z 0.000000 0.000000 1.596560 
# 
# From -- ./inp_files/10624.got.cif
#   From: 2010.03.12/outbox.cif.g09.slc.cpg/sg191_6_cif.got.tgz:10624.got - 2010.04.01 12:09:02.
