data_PCOD8328778
_publ_section_title
;
Structure prediction by ZEFSAII (Michael W. Deem and Ramdas Pophale) SiO2 
 PCOD8328778
Probable space group: P 6/M M M
;
_chemical_formula_sum "Si O2"
_cell_formula_units_Z 144
_cell_length_a 22.155499
_cell_length_b 22.155499
_cell_length_c 24.658239
_cell_angle_alpha 90.000000
_cell_angle_beta 90.000000
_cell_angle_gamma 120.000000
_cell_volume 10482.280119
_symmetry_space_group_name_H-M "P 6/M M M"
_symmetry_group_IT_number 191
_symmetry_cell_setting 'hexagonal'
loop_
_space_group_symop_operation_xyz
x,y,z
x-y,x,z
-y,x-y,z
-x,-y,z
-x+y,-x,z
y,-x+y,z
x-y,-y,-z
-x,-x+y,-z
y,x,-z
-y,-x,-z
-x+y,y,-z
x,x-y,-z
-x,-y,-z
-x+y,-x,-z
y,-x+y,-z
x,y,-z
x-y,x,-z
-y,x-y,-z
-x+y,y,z
x,x-y,z
-y,-x,z
y,x,z
x-y,-y,z
-x,-x+y,z
loop_
_atom_site_type_symbol
_atom_site_label
_atom_site_fract_x
_atom_site_fract_y
_atom_site_fract_z
Si Si1 0.000000 0.865817 0.564846
Si Si2 0.592092 0.725552 0.436380
Si Si3 0.389664 0.922664 0.939382
Si Si4 0.000000 0.732837 0.435825
Si Si5 0.806357 0.473098 0.265999
Si Si6 0.667258 0.473271 0.858929
Si Si7 0.079977 0.610786 0.647517
O O1 0.000000 0.799151 0.589529
O O2 0.933112 0.866223 0.587906
O O3 0.000000 0.865040 0.500000
O O4 0.579973 0.709105 0.500000
O O5 0.586543 0.793272 0.421421
O O6 0.665952 0.736556 0.416240
O O7 0.536063 0.657887 0.404115
O O8 0.462053 0.924106 0.935928
O O9 0.336747 0.868236 0.895552
O O10 0.403308 0.000000 0.925784
O O11 0.358185 0.900516 0.000000
O O12 0.000000 0.736533 0.500000
O O13 0.740108 0.480216 0.284101
O O14 0.786593 0.393297 0.276003
O O15 0.825267 0.494171 0.203553
O O16 0.875568 0.526275 0.299220
O O17 0.736181 0.472361 0.875820
O O18 0.603142 0.396859 0.870700
O O19 0.078481 0.539241 0.638387
O O20 0.000000 0.594943 0.652787
#
# Coordination Sequence:
#
# PCOD8328778 Si02
#       7
#    12  24  24  12  24  24  24
#     4   9  15  22  33  51  76 103 127 149 173 202
#     4  10  19  31  47  64  82 104 128 154 188 233
#     4   8  14  24  36  50  71 101 133 160 188 226
#     4   9  16  27  41  59  79 100 125 151 178 213
#     4   9  17  29  44  60  78 101 128 158 195 239
#     4   9  16  25  38  56  77 100 127 161 200 238
#     4  10  20  32  45  62  82 101 126 162 199 235
#
# _framework density 13.737469000000001
#
# number of rings (size 3 to 8) (size 9 to 14) (size 15 to 20)
#    0.000    2.833    0.833    1.917    0.000    5.000 
#    0.000    4.167    0.000    1.333    0.000    0.000 
#    0.000    0.000    0.000    0.000    0.000    0.000 
#
# Total GULP energy -1784902.727515 kJ/mol
# GULP energy per Si atom -12395.157830 kJ/mol
# Density = 1.370620 g / cm^3
# Si number density = 13.737469 Si / 1000 Ang^3
#
#
#
# Elastic Constant Matrix: (Units=GPa)
#
#
# Indices 1 2 3 4 5 6 
#
# 1 71.1108 34.9780 44.7528 0.0000 0.0000 0.0000
# 2 34.9780 71.1108 44.7528 0.0000 0.0000 0.0000
# 3 44.7528 44.7528 66.7251 0.0000 0.0000 0.0000
# 4 0.0000 0.0000 0.0000 19.9752 0.0000 0.0000
# 5 0.0000 0.0000 0.0000 0.0000 19.9752 0.0000
# 6 0.0000 0.0000 0.0000 0.0000 0.0000 18.0664
#
#
#
# Elastic Compliance Matrix: (Units=1/GPa)
#
#
# Indices 1 2 3 4 5 6 
#
# 1 0.024694 -0.002982 -0.014562 0.000000 0.000000 0.000000
# 2 -0.002982 0.024694 -0.014562 0.000000 0.000000 0.000000
# 3 -0.014562 -0.014562 0.034521 0.000000 0.000000 0.000000
# 4 0.000000 0.000000 0.000000 0.050062 0.000000 0.000000
# 5 0.000000 0.000000 0.000000 0.000000 0.050062 0.000000
# 6 0.000000 0.000000 0.000000 0.000000 0.000000 0.055351
#
#
# Mechanical properties :
#
#
# Convention : Reuss Voigt Hill
#
# Bulk Modulus (GPa) = 50.77270 50.87933 50.82601
# Shear Modulus (GPa) = 16.12055 17.23424 16.67739
#
# Velocity S-wave (km/s) = 3.42932 3.54579 3.48804
# Velocity P-wave (km/s) = 7.26084 7.34036 7.30071
#
# Compressibility (1/GPa) = 0.01969563
#
# Stress axis : x y z
#
# Youngs Moduli (GPa) = 40.49573 40.49573 28.96779
#
# Poissons Ratio (x) = 0.12075 0.42184
# Poissons Ratio (y) = 0.12075 0.42184
# Poissons Ratio (z) = 0.58972 0.58972
#
# Static dielectric constant tensor:
#      x y z
#    x 2.759120 0.000000 0.000000 
#    y 0.000000 2.759120 0.000000 
#    z 0.000000 0.000000 2.636650 
# 
# 
# High freq. dielectric constant tensor:
#      x y z
#    x 1.514390 0.000000 0.000000 
#    y 0.000000 1.514390 0.000000 
#    z 0.000000 0.000000 1.503970 
# 
# From -- ./inp_files/7868.got.cif
#   From: 2010.03.12/outbox.cif.g09.slc.cpg/sg191_4_cif.got.tgz:7868.got - 2010.04.01 12:09:02.
