data_PCOD8328927
_publ_section_title
;
Structure prediction by ZEFSAII (Michael W. Deem and Ramdas Pophale) SiO2 
 PCOD8328927
Probable space group: P 6/M M M
;
_chemical_formula_sum "Si O2"
_cell_formula_units_Z 112
_cell_length_a 29.813318
_cell_length_b 29.813318
_cell_length_c 9.228861
_cell_angle_alpha 90.000000
_cell_angle_beta 90.000000
_cell_angle_gamma 120.000000
_cell_volume 7103.941257
_symmetry_space_group_name_H-M "P 6/M M M"
_symmetry_group_IT_number 191
_symmetry_cell_setting 'hexagonal'
loop_
_space_group_symop_operation_xyz
x,y,z
x-y,x,z
-y,x-y,z
-x,-y,z
-x+y,-x,z
y,-x+y,z
x-y,-y,-z
-x,-x+y,-z
y,x,-z
-y,-x,-z
-x+y,y,-z
x,x-y,-z
-x,-y,-z
-x+y,-x,-z
y,-x+y,-z
x,y,-z
x-y,x,-z
-y,x-y,-z
-x+y,y,z
x,x-y,z
-y,-x,z
y,x,z
x-y,-y,z
-x,-x+y,z
loop_
_atom_site_type_symbol
_atom_site_label
_atom_site_fract_x
_atom_site_fract_y
_atom_site_fract_z
Si Si1 0.146967 0.750096 0.667644
Si Si2 0.206413 0.690707 0.332069
Si Si3 0.333334 0.666668 0.828738
Si Si4 0.940665 0.247205 0.169428
Si Si5 0.783972 0.391986 0.828045
Si Si6 0.057804 0.842275 0.666929
O O1 0.133297 0.750592 0.500000
O O2 0.193292 0.806708 0.713450
O O3 0.163720 0.707420 0.696431
O O4 0.096223 0.733558 0.762851
O O5 0.207395 0.677488 0.500000
O O6 0.262676 0.737325 0.284096
O O7 0.189820 0.639650 0.236212
O O8 0.362503 0.725005 0.771052
O O9 0.333334 0.666667 0.000000
O O10 0.926485 0.192295 0.237545
O O11 0.000000 0.289935 0.203981
O O12 0.930202 0.238908 0.000000
O O13 0.789759 0.394880 0.000000
O O14 0.061510 0.829089 0.500000
O O15 0.097451 0.902550 0.700888
O O16 0.000000 0.830482 0.705250
#
# Coordination Sequence:
#
# PCOD8328927 Si02
#       6
#    24  24   4  24  12  24
#     4   9  18  32  48  66  90 118 149 184 219 260
#     4   9  18  31  45  63  87 117 152 185 218 258
#     4   9  18  27  37  59  91 120 148 185 217 243
#     4  10  20  31  44  66  93 117 144 179 220 268
#     4  11  19  29  43  63  92 122 153 187 219 254
#     4   9  17  29  45  64  87 117 151 184 219 261
#
# _framework density 15.765897000000001
#
# number of rings (size 3 to 8) (size 9 to 14) (size 15 to 20)
#    0.000    2.571    1.071    2.893    0.000    5.571 
#    0.000    2.143    0.000    0.214    0.000    2.250 
#    0.000    6.000    0.000    5.357    0.000    5.571 
#
# Total GULP energy -1388808.883329 kJ/mol
# GULP energy per Si atom -12400.079315 kJ/mol
# Density = 1.573001 g / cm^3
# Si number density = 15.765897 Si / 1000 Ang^3
#
#
#
# Elastic Constant Matrix: (Units=GPa)
#
#
# Indices 1 2 3 4 5 6 
#
# 1 95.9405 48.1017 49.5650 0.0000 0.0000 0.0000
# 2 48.1017 95.9407 49.5650 0.0000 0.0000 0.0000
# 3 49.5650 49.5650 75.2989 0.0000 0.0000 0.0000
# 4 0.0000 0.0000 0.0000 20.9401 0.0000 0.0000
# 5 0.0000 0.0000 0.0000 0.0000 20.9400 0.0000
# 6 0.0000 0.0000 0.0000 0.0000 0.0000 23.9194
#
#
#
# Elastic Compliance Matrix: (Units=1/GPa)
#
#
# Indices 1 2 3 4 5 6 
#
# 1 0.016798 -0.004106 -0.008354 0.000000 0.000000 0.000000
# 2 -0.004106 0.016798 -0.008354 0.000000 0.000000 0.000000
# 3 -0.008354 -0.008354 0.024279 0.000000 0.000000 0.000000
# 4 0.000000 0.000000 0.000000 0.047755 0.000000 0.000000
# 5 0.000000 0.000000 0.000000 0.000000 0.047756 0.000000
# 6 0.000000 0.000000 0.000000 0.000000 0.000000 0.041807
#
#
# Mechanical properties :
#
#
# Convention : Reuss Voigt Hill
#
# Bulk Modulus (GPa) = 61.55680 62.40485 61.98082
# Shear Modulus (GPa) = 20.64102 21.15645 20.89873
#
# Velocity S-wave (km/s) = 3.62224 3.66719 3.64478
# Velocity P-wave (km/s) = 7.52484 7.58941 7.55719
#
# Compressibility (1/GPa) = 0.01624516
#
# Stress axis : x y z
#
# Youngs Moduli (GPa) = 59.53192 59.53215 41.18821
#
# Poissons Ratio (x) = 0.24443 0.34410
# Poissons Ratio (y) = 0.24443 0.34410
# Poissons Ratio (z) = 0.49735 0.49735
#
# Static dielectric constant tensor:
#      x y z
#    x 2.913130 0.000000 0.000000 
#    y 0.000000 2.913120 0.000000 
#    z 0.000000 0.000000 2.951770 
# 
# 
# High freq. dielectric constant tensor:
#      x y z
#    x 1.589540 0.000000 0.000000 
#    y 0.000000 1.589540 0.000000 
#    z 0.000000 0.000000 1.607240 
# 
# From -- ./inp_files/1774.got.cif
#   From: 2010.03.12/outbox.cif.g09.slc.cpg/sg191_1_cif.got.tgz:1774.got - 2010.04.01 12:09:02.
