data_PCOD8328125
_publ_section_title
;
Structure prediction by ZEFSAII (Michael W. Deem and Ramdas Pophale) SiO2 
 PCOD8328125
Probable space group: P -6 2 C
;
_chemical_formula_sum "Si O2"
_cell_formula_units_Z 48
_cell_length_a 18.106879
_cell_length_b 18.106879
_cell_length_c 8.480553
_cell_angle_alpha 90.000000
_cell_angle_beta 90.000000
_cell_angle_gamma 120.000000
_cell_volume 2407.919718
_symmetry_space_group_name_H-M "P -6 2 C"
_symmetry_group_IT_number 190
_symmetry_cell_setting 'hexagonal'
loop_
_space_group_symop_operation_xyz
x,y,z
-x+y,-x,1/2-z
-y,x-y,z
x,y,1/2-z
-x+y,-x,z
-y,x-y,1/2-z
x-y,-y,-z
-x,-x+y,-z
y,x,-z
y,x,1/2+z
x-y,-y,1/2+z
-x,-x+y,1/2+z
loop_
_atom_site_type_symbol
_atom_site_label
_atom_site_fract_x
_atom_site_fract_y
_atom_site_fract_z
Si Si1 0.905000 0.380163 0.064262
Si Si2 0.186768 0.093871 0.065504
Si Si3 0.627016 0.805261 0.066244
Si Si4 0.626248 0.093496 0.563698
O O1 0.902153 0.364795 0.250000
O O2 0.855287 0.291973 0.974244
O O3 0.864845 0.439829 0.019626
O O4 0.000000 0.427794 0.000000
O O5 0.175010 0.089471 0.250000
O O6 0.160567 0.160567 0.000000
O O7 0.284611 0.125445 0.025689
O O8 0.125175 0.000000 0.000000
O O9 0.649181 0.816576 0.250000
O O10 0.577370 0.853320 0.013591
O O11 0.612210 0.091832 0.750000
O O12 0.594627 0.000000 0.500000
#
# Coordination Sequence:
#
# PCOD8328125 Si02
#       4
#    12  12  12  12
#     4  11  22  38  61  86 117 154 195 242 294 353
#     4  12  25  42  63  90 125 164 207 254 305 360
#     4  11  23  40  62  90 121 157 201 248 299 357
#     4  10  21  38  61  86 116 153 192 240 293 352
#
# _framework density 19.934218999999999
#
# number of rings (size 3 to 8) (size 9 to 14) (size 15 to 20)
#    0.000    1.000    0.000    9.250    0.000    6.000 
#    1.500    0.000    0.000    0.000    0.000    0.000 
#    0.000    0.000    0.000    0.000    0.000    0.000 
#
# Total GULP energy -595419.641924 kJ/mol
# GULP energy per Si atom -12404.575873 kJ/mol
# Density = 1.988885 g / cm^3
# Si number density = 19.934219 Si / 1000 Ang^3
#
#
#
# Elastic Constant Matrix: (Units=GPa)
#
#
# Indices 1 2 3 4 5 6 
#
# 1 96.6542 32.9282 23.4658 0.0000 0.0000 0.0000
# 2 32.9282 96.6542 23.4658 0.0000 0.0000 0.0000
# 3 23.4658 23.4658 88.8898 0.0000 0.0000 0.0000
# 4 0.0000 0.0000 0.0000 36.9119 0.0000 0.0000
# 5 0.0000 0.0000 0.0000 0.0000 36.9119 0.0000
# 6 0.0000 0.0000 0.0000 0.0000 0.0000 31.8630
#
#
#
# Elastic Compliance Matrix: (Units=1/GPa)
#
#
# Indices 1 2 3 4 5 6 
#
# 1 0.012113 -0.003580 -0.002253 0.000000 0.000000 0.000000
# 2 -0.003580 0.012113 -0.002253 0.000000 0.000000 0.000000
# 3 -0.002253 -0.002253 0.012439 0.000000 0.000000 0.000000
# 4 0.000000 0.000000 0.000000 0.027092 0.000000 0.000000
# 5 0.000000 0.000000 0.000000 0.000000 0.027092 0.000000
# 6 0.000000 0.000000 0.000000 0.000000 0.000000 0.031384
#
#
# Mechanical properties :
#
#
# Convention : Reuss Voigt Hill
#
# Bulk Modulus (GPa) = 48.79307 49.10196 48.94752
# Shear Modulus (GPa) = 34.42746 34.62659 34.52702
#
# Velocity S-wave (km/s) = 4.16029 4.17231 4.16630
# Velocity P-wave (km/s) = 6.89982 6.92072 6.91028
#
# Compressibility (1/GPa) = 0.02049471
#
# Stress axis : x y z
#
# Youngs Moduli (GPa) = 82.55895 82.55895 80.39109
#
# Poissons Ratio (x) = 0.29553 0.18109
# Poissons Ratio (y) = 0.29553 0.18109
# Poissons Ratio (z) = 0.18597 0.18597
#
# Static dielectric constant tensor:
#      x y z
#    x 3.936150 0.000000 0.000000 
#    y 0.000000 3.936150 0.000000 
#    z 0.000000 0.000000 3.822840 
# 
# 
# High freq. dielectric constant tensor:
#      x y z
#    x 1.785410 0.000000 0.000000 
#    y 0.000000 1.785410 0.000000 
#    z 0.000000 0.000000 1.796590 
# 
# From -- ./inp_files/602.got.cif
#   From: 2010.06.25/outbox.cif.g09.slc.cpg/sg190_1_cif.got.tgz:602.got - 2010.06.28 13:08:06.
