data_PCOD8328119
_publ_section_title
;
Structure prediction by ZEFSAII (Michael W. Deem and Ramdas Pophale) SiO2 
 PCOD8328119
Probable space group: P -6 2 C
;
_chemical_formula_sum "Si O2"
_cell_formula_units_Z 60
_cell_length_a 15.528401
_cell_length_b 15.528401
_cell_length_c 13.550779
_cell_angle_alpha 90.000000
_cell_angle_beta 90.000000
_cell_angle_gamma 120.000000
_cell_volume 2829.751959
_symmetry_space_group_name_H-M "P -6 2 C"
_symmetry_group_IT_number 190
_symmetry_cell_setting 'hexagonal'
loop_
_space_group_symop_operation_xyz
x,y,z
-x+y,-x,1/2-z
-y,x-y,z
x,y,1/2-z
-x+y,-x,z
-y,x-y,1/2-z
x-y,-y,-z
-x,-x+y,-z
y,x,-z
y,x,1/2+z
x-y,-y,1/2+z
-x,-x+y,1/2+z
loop_
_atom_site_type_symbol
_atom_site_label
_atom_site_fract_x
_atom_site_fract_y
_atom_site_fract_z
Si Si1 0.663670 0.605296 0.136655
Si Si2 0.605295 0.941626 0.363345
Si Si3 0.164035 0.732369 0.864795
Si Si4 0.430003 0.860006 1.000000
Si Si5 0.568333 0.732368 0.364795
O O1 0.640242 0.577589 0.250000
O O2 0.772786 0.622443 0.109270
O O3 0.650140 0.699453 0.109868
O O4 0.581163 0.512311 0.077556
O O5 0.577585 0.937344 0.250000
O O6 0.512312 0.931150 0.422445
O O7 0.622441 0.849656 0.390730
O O8 0.699454 0.049312 0.390130
O O9 0.177568 0.713177 0.750000
O O10 0.202001 0.671269 0.933894
O O11 0.328732 0.797998 0.066106
O O12 0.535610 0.713176 0.250000
#
# Coordination Sequence:
#
# PCOD8328119 Si02
#       5
#    12  12  12  12  12
#     4  10  21  37  57  81 110 144 181 222 270 324
#     4  10  21  37  57  81 110 144 181 222 270 324
#     4  10  21  37  57  81 110 144 181 222 270 324
#     4  12  21  34  56  78 104 142 184 224 266 316
#     4  10  21  37  57  81 110 144 181 222 270 324
#
# _framework density 21.203272999999999
#
# number of rings (size 3 to 8) (size 9 to 14) (size 15 to 20)
#    0.000    1.600    0.000    6.000    0.000    3.200 
#    9.600    0.000    0.000    0.800    0.000    5.600 
#    0.000    6.400    0.000    0.800    0.000    0.000 
#
# Total GULP energy -743355.843463 kJ/mol
# GULP energy per Si atom -12389.264058 kJ/mol
# Density = 2.115501 g / cm^3
# Si number density = 21.203273 Si / 1000 Ang^3
#
#
#
# Elastic Constant Matrix: (Units=GPa)
#
#
# Indices 1 2 3 4 5 6 
#
# 1 87.3998 49.0636 43.6999 0.0000 0.0000 0.0000
# 2 49.0636 87.3998 43.6999 0.0000 0.0000 0.0000
# 3 43.6999 43.6999 57.1519 0.0000 0.0000 0.0000
# 4 0.0000 0.0000 0.0000 33.5276 0.0000 0.0000
# 5 0.0000 0.0000 0.0000 0.0000 33.5276 0.0000
# 6 0.0000 0.0000 0.0000 0.0000 0.0000 19.1681
#
#
#
# Elastic Compliance Matrix: (Units=1/GPa)
#
#
# Indices 1 2 3 4 5 6 
#
# 1 0.020223 -0.005862 -0.010980 0.000000 0.000000 0.000000
# 2 -0.005862 0.020223 -0.010980 0.000000 0.000000 0.000000
# 3 -0.010980 -0.010980 0.034289 0.000000 0.000000 0.000000
# 4 0.000000 0.000000 0.000000 0.029826 0.000000 0.000000
# 5 0.000000 0.000000 0.000000 0.000000 0.029826 0.000000
# 6 0.000000 0.000000 0.000000 0.000000 0.000000 0.052170
#
#
# Mechanical properties :
#
#
# Convention : Reuss Voigt Hill
#
# Bulk Modulus (GPa) = 52.38788 56.09761 54.24274
# Shear Modulus (GPa) = 20.11537 23.61055 21.86296
#
# Velocity S-wave (km/s) = 3.08343 3.34058 3.21458
# Velocity P-wave (km/s) = 6.11864 6.43380 6.27820
#
# Compressibility (1/GPa) = 0.01908839
#
# Stress axis : x y z
#
# Youngs Moduli (GPa) = 49.44918 49.44918 29.16375
#
# Poissons Ratio (x) = 0.28988 0.32023
# Poissons Ratio (y) = 0.28988 0.32023
# Poissons Ratio (z) = 0.54297 0.54297
#
# Static dielectric constant tensor:
#      x y z
#    x 3.934870 0.000000 0.000000 
#    y 0.000000 3.934870 0.000000 
#    z 0.000000 0.000000 4.568050 
# 
# 
# High freq. dielectric constant tensor:
#      x y z
#    x 1.807060 0.000000 0.000000 
#    y 0.000000 1.807060 0.000000 
#    z 0.000000 0.000000 1.879470 
# 
# From -- ./inp_files/2786.got.cif
#   From: 2010.06.25/outbox.cif.g09.slc.cpg/sg190_2_cif.got.tgz:2786.got - 2010.06.28 13:08:06.
