data_PCOD8328063
_publ_section_title
;
Structure prediction by ZEFSAII (Michael W. Deem and Ramdas Pophale) SiO2 
 PCOD8328063
Probable space group: P -6 2 C
;
_chemical_formula_sum "Si O2"
_cell_formula_units_Z 54
_cell_length_a 17.710283
_cell_length_b 17.710283
_cell_length_c 10.271465
_cell_angle_alpha 90.000000
_cell_angle_beta 90.000000
_cell_angle_gamma 120.000000
_cell_volume 2790.063093
_symmetry_space_group_name_H-M "P -6 2 C"
_symmetry_group_IT_number 190
_symmetry_cell_setting 'hexagonal'
loop_
_space_group_symop_operation_xyz
x,y,z
-x+y,-x,1/2-z
-y,x-y,z
x,y,1/2-z
-x+y,-x,z
-y,x-y,1/2-z
x-y,-y,-z
-x,-x+y,-z
y,x,-z
y,x,1/2+z
x-y,-y,1/2+z
-x,-x+y,1/2+z
loop_
_atom_site_type_symbol
_atom_site_label
_atom_site_fract_x
_atom_site_fract_y
_atom_site_fract_z
Si Si1 0.176774 0.867797 0.989754
Si Si2 0.633709 0.633709 0.500000
Si Si3 0.852199 0.389077 0.897577
Si Si4 0.882765 0.078812 0.250000
Si Si5 0.475811 0.278034 0.905182
Si Si6 0.922032 0.123850 0.750000
O O1 0.151351 0.769689 0.026697
O O2 0.171688 0.916052 0.120435
O O3 0.275796 0.926852 0.933189
O O4 0.109083 0.856668 0.880324
O O5 0.604028 0.550771 0.594824
O O6 0.829503 0.393853 0.750000
O O7 0.774590 0.298418 0.952745
O O8 0.847552 0.470537 0.961331
O O9 0.985314 0.113180 0.250000
O O10 0.825350 0.975900 0.250000
O O11 0.461135 0.271147 0.750000
#
# Coordination Sequence:
#
# PCOD8328063 Si02
#       6
#    12   6  12   6  12   6
#     4  11  22  38  63  84 126 158 198 255 313 359
#     4  10  20  34  58  88 114 154 196 246 300 358
#     4   9  18  31  56  86 115 149 203 248 296 348
#     4  12  25  40  64  88 114 160 206 258 310 376
#     4   9  17  34  57  86 119 159 198 253 299 360
#     4  12  23  44  60  88 114 158 204 260 304 370
#
# _framework density 19.354402
#
# number of rings (size 3 to 8) (size 9 to 14) (size 15 to 20)
#    0.000    1.778    3.333    1.333    3.111    1.778 
#    4.000    2.222    0.000    0.000    0.000    0.000 
#    0.000    0.000    0.000    0.000    0.000    0.000 
#
# Total GULP energy -669125.391242 kJ/mol
# GULP energy per Si atom -12391.210949 kJ/mol
# Density = 1.931035 g / cm^3
# Si number density = 19.354402 Si / 1000 Ang^3
#
#
#
# Elastic Constant Matrix: (Units=GPa)
#
#
# Indices 1 2 3 4 5 6 
#
# 1 124.1989 49.2872 29.6056 0.0000 0.0000 0.0000
# 2 49.2872 124.1989 29.6056 0.0000 0.0000 0.0000
# 3 29.6056 29.6056 73.9131 0.0000 0.0000 0.0000
# 4 0.0000 0.0000 0.0000 22.0079 0.0000 0.0000
# 5 0.0000 0.0000 0.0000 0.0000 22.0079 0.0000
# 6 0.0000 0.0000 0.0000 0.0000 0.0000 37.4559
#
#
#
# Elastic Compliance Matrix: (Units=1/GPa)
#
#
# Indices 1 2 3 4 5 6 
#
# 1 0.010013 -0.003336 -0.002674 0.000000 0.000000 0.000000
# 2 -0.003336 0.010013 -0.002674 0.000000 0.000000 0.000000
# 3 -0.002674 -0.002674 0.015672 0.000000 0.000000 0.000000
# 4 0.000000 0.000000 0.000000 0.045438 0.000000 0.000000
# 5 0.000000 0.000000 0.000000 0.000000 0.045438 0.000000
# 6 0.000000 0.000000 0.000000 0.000000 0.000000 0.026698
#
#
# Mechanical properties :
#
#
# Convention : Reuss Voigt Hill
#
# Bulk Modulus (GPa) = 54.56117 59.92307 57.24212
# Shear Modulus (GPa) = 28.28831 30.54851 29.41841
#
# Velocity S-wave (km/s) = 3.82723 3.97719 3.90293
# Velocity P-wave (km/s) = 6.91245 7.21934 7.06756
#
# Compressibility (1/GPa) = 0.01832805
#
# Stress axis : x y z
#
# Youngs Moduli (GPa) = 99.87024 99.87024 63.80858
#
# Poissons Ratio (x) = 0.33317 0.17065
# Poissons Ratio (y) = 0.33317 0.17065
# Poissons Ratio (z) = 0.26710 0.26710
#
# Static dielectric constant tensor:
#      x y z
#    x 3.664340 0.000000 0.000000 
#    y 0.000000 3.664340 0.000000 
#    z 0.000000 0.000000 3.207560 
# 
# 
# High freq. dielectric constant tensor:
#      x y z
#    x 1.760800 0.000000 0.000000 
#    y 0.000000 1.760800 0.000000 
#    z 0.000000 0.000000 1.712630 
# 
# From -- ./inp_files/1946.got.cif
#   From: 2010.06.25/outbox.cif.g09.slc.cpg/sg190_1_cif.got.tgz:1946.got - 2010.06.28 13:08:06.
