data_PCOD8328228
_publ_section_title
;
Structure prediction by ZEFSAII (Michael W. Deem and Ramdas Pophale) SiO2 
 PCOD8328228
Probable space group: P 6/M M M
;
_chemical_formula_sum "Si O2"
_cell_formula_units_Z 168
_cell_length_a 22.727761
_cell_length_b 22.727761
_cell_length_c 23.785727
_cell_angle_alpha 90.000000
_cell_angle_beta 90.000000
_cell_angle_gamma 120.000000
_cell_volume 10640.459163
_symmetry_space_group_name_H-M "P 6/M M M"
_symmetry_group_IT_number 191
_symmetry_cell_setting 'hexagonal'
loop_
_space_group_symop_operation_xyz
x,y,z
x-y,x,z
-y,x-y,z
-x,-y,z
-x+y,-x,z
y,-x+y,z
x-y,-y,-z
-x,-x+y,-z
y,x,-z
-y,-x,-z
-x+y,y,-z
x,x-y,-z
-x,-y,-z
-x+y,-x,-z
y,-x+y,-z
x,y,-z
x-y,x,-z
-y,x-y,-z
-x+y,y,z
x,x-y,z
-y,-x,z
y,x,z
x-y,-y,z
-x,-x+y,z
loop_
_atom_site_type_symbol
_atom_site_label
_atom_site_fract_x
_atom_site_fract_y
_atom_site_fract_z
Si Si1 0.474411 0.080767 0.938417
Si Si2 0.528894 0.919180 0.350947
Si Si3 0.409372 0.272217 0.565110
Si Si4 0.277486 0.074421 0.062404
Si Si5 0.864653 0.595366 0.729205
Si Si6 0.790810 0.077295 0.355125
Si Si7 0.618514 0.920861 0.149013
O O1 0.552416 0.104831 0.926787
O O2 0.450516 0.109441 0.887191
O O3 0.428560 0.000000 0.938864
O O4 0.467295 0.107734 0.000000
O O5 0.451698 0.903396 0.349417
O O6 0.539047 0.882785 0.405490
O O7 0.542343 0.885507 0.296050
O O8 0.581286 0.000000 0.352338
O O9 0.406164 0.286949 0.500000
O O10 0.434093 0.217047 0.574653
O O11 0.334366 0.242637 0.590762
O O12 0.246348 0.123174 0.068387
O O13 0.332245 0.092235 0.110318
O O14 0.214277 0.000000 0.071587
O O15 0.310175 0.080977 0.000000
O O16 0.785171 0.570341 0.717257
O O17 0.910881 0.668666 0.700596
O O18 0.877017 0.602048 0.795275
O O19 0.872328 0.127673 0.355280
O O20 0.775257 0.000000 0.356494
O O21 0.649823 0.000000 0.164425
#
# Coordination Sequence:
#
# PCOD8328228 Si02
#       7
#    24  24  24  24  24  24  24
#     4   8  14  24  37  56  84 115 143 169 202 249
#     4  10  20  32  47  68  93 119 145 177 219 264
#     4   9  17  30  49  71  94 120 149 181 215 251
#     4   9  17  28  41  58  81 108 138 174 217 263
#     4  10  19  31  46  63  86 115 146 181 219 259
#     4   9  17  29  45  65  90 120 151 183 219 258
#     4  10  17  25  41  63  85 110 140 175 215 256
#
# _framework density 15.788793
#
# number of rings (size 3 to 8) (size 9 to 14) (size 15 to 20)
#    0.000    2.714    0.000    5.143    0.000    3.714 
#    0.000    2.143    0.000    2.571    0.000    1.000 
#    0.000    0.000    0.000    8.143    0.000   10.143 
#
# Total GULP energy -2082072.360351 kJ/mol
# GULP energy per Si atom -12393.287859 kJ/mol
# Density = 1.575286 g / cm^3
# Si number density = 15.788793 Si / 1000 Ang^3
#
#
#
# Elastic Constant Matrix: (Units=GPa)
#
#
# Indices 1 2 3 4 5 6 
#
# 1 93.7306 56.1290 47.9333 0.0000 0.0000 0.0000
# 2 56.1290 93.7306 47.9333 0.0000 0.0000 0.0000
# 3 47.9333 47.9333 132.4836 0.0000 0.0000 0.0000
# 4 0.0000 0.0000 0.0000 19.6967 0.0000 0.0000
# 5 0.0000 0.0000 0.0000 0.0000 19.6967 0.0000
# 6 0.0000 0.0000 0.0000 0.0000 0.0000 18.8008
#
#
#
# Elastic Compliance Matrix: (Units=1/GPa)
#
#
# Indices 1 2 3 4 5 6 
#
# 1 0.017639 -0.008956 -0.003141 0.000000 0.000000 0.000000
# 2 -0.008956 0.017639 -0.003141 0.000000 0.000000 0.000000
# 3 -0.003141 -0.003141 0.009821 0.000000 0.000000 0.000000
# 4 0.000000 0.000000 0.000000 0.050770 0.000000 0.000000
# 5 0.000000 0.000000 0.000000 0.000000 0.050770 0.000000
# 6 0.000000 0.000000 0.000000 0.000000 0.000000 0.053189
#
#
# Mechanical properties :
#
#
# Convention : Reuss Voigt Hill
#
# Bulk Modulus (GPa) = 68.39611 69.32621 68.86116
# Shear Modulus (GPa) = 21.26045 22.83546 22.04796
#
# Velocity S-wave (km/s) = 3.67352 3.80716 3.74094
# Velocity P-wave (km/s) = 7.83623 7.95800 7.89735
#
# Compressibility (1/GPa) = 0.01462071
#
# Stress axis : x y z
#
# Youngs Moduli (GPa) = 56.69409 56.69409 101.82028
#
# Poissons Ratio (x) = 0.50776 0.31985
# Poissons Ratio (y) = 0.50776 0.31985
# Poissons Ratio (z) = 0.17810 0.17810
#
# Static dielectric constant tensor:
#      x y z
#    x 2.897300 0.000000 0.000000 
#    y 0.000000 2.897300 0.000000 
#    z 0.000000 0.000000 3.198290 
# 
# 
# High freq. dielectric constant tensor:
#      x y z
#    x 1.583620 0.000000 0.000000 
#    y 0.000000 1.583620 0.000000 
#    z 0.000000 0.000000 1.618890 
# 
# From -- ./inp_files/7901.got.cif
#   From: 2010.03.12/outbox.cif.g09.slc.cpg/sg191_4_cif.got.tgz:7901.got - 2010.04.01 12:09:02.
