data_PCOD8328415
_publ_section_title
;
Structure prediction by ZEFSAII (Michael W. Deem and Ramdas Pophale) SiO2 
 PCOD8328415
Probable space group: P 6/M M M
;
_chemical_formula_sum "Si O2"
_cell_formula_units_Z 132
_cell_length_a 16.763587
_cell_length_b 16.763587
_cell_length_c 31.262712
_cell_angle_alpha 90.000000
_cell_angle_beta 90.000000
_cell_angle_gamma 120.000000
_cell_volume 7608.362334
_symmetry_space_group_name_H-M "P 6/M M M"
_symmetry_group_IT_number 191
_symmetry_cell_setting 'hexagonal'
loop_
_space_group_symop_operation_xyz
x,y,z
x-y,x,z
-y,x-y,z
-x,-y,z
-x+y,-x,z
y,-x+y,z
x-y,-y,-z
-x,-x+y,-z
y,x,-z
-y,-x,-z
-x+y,y,-z
x,x-y,-z
-x,-y,-z
-x+y,-x,-z
y,-x+y,-z
x,y,-z
x-y,x,-z
-y,x-y,-z
-x+y,y,z
x,x-y,z
-y,-x,z
y,x,z
x-y,-y,z
-x,-x+y,z
loop_
_atom_site_type_symbol
_atom_site_label
_atom_site_fract_x
_atom_site_fract_y
_atom_site_fract_z
Si Si1 0.391526 0.104702 0.739136
Si Si2 0.891127 0.445564 0.691902
Si Si3 0.107332 0.640490 0.082922
Si Si4 0.445563 0.554438 0.403835
Si Si5 0.609042 0.714188 0.550172
Si Si6 0.373858 0.105479 0.000000
Si Si7 0.330271 0.485794 0.824953
O O1 0.357712 0.178856 0.728982
O O2 0.490173 0.141130 0.715893
O O3 0.407444 0.100655 0.789725
O O4 0.314666 0.000000 0.724630
O O5 0.849457 0.424729 0.644038
O O6 0.000000 0.500000 0.690323
O O7 0.155723 0.577862 0.082786
O O8 0.129716 0.692792 0.128435
O O9 0.000000 0.576543 0.077200
O O10 0.142738 0.705327 0.041962
O O11 0.500000 0.500000 0.402468
O O12 0.349108 0.490106 0.427733
O O13 0.592181 0.697758 0.500000
O O14 0.643464 0.821732 0.561760
O O15 0.685137 0.685137 0.564763
O O16 0.314926 0.157463 0.000000
O O17 0.301467 0.000000 0.000000
O O18 0.264912 0.529824 0.817504
O O19 0.436976 0.563025 0.821076
#
# Coordination Sequence:
#
# PCOD8328415 Si02
#       7
#    24  12  24  12  24  12  24
#     4  10  20  34  52  72  97 128 163 202 243 290
#     4   9  18  33  50  71  98 127 158 197 244 293
#     4   9  17  28  44  64  86 114 145 178 217 266
#     4   9  17  30  49  70  96 128 163 202 245 293
#     4   9  17  30  49  72  99 133 172 212 253 297
#     4  10  19  31  45  62  85 111 144 182 223 267
#     4  10  18  28  44  66  93 123 156 189 224 267
#
# _framework density 17.349332
#
# number of rings (size 3 to 8) (size 9 to 14) (size 15 to 20)
#    0.000    2.545    0.909    1.818    0.000    3.636 
#    1.091    0.000    0.000    3.000    0.000    1.273 
#    0.000    0.000    0.000   14.909    0.000    4.727 
#
# Total GULP energy -1635330.543362 kJ/mol
# GULP energy per Si atom -12388.867753 kJ/mol
# Density = 1.730984 g / cm^3
# Si number density = 17.349332 Si / 1000 Ang^3
#
#
#
# Elastic Constant Matrix: (Units=GPa)
#
#
# Indices 1 2 3 4 5 6 
#
# 1 86.4328 46.4181 27.9163 0.0000 0.0000 0.0000
# 2 46.4181 86.4328 27.9163 0.0000 0.0000 0.0000
# 3 27.9163 27.9163 83.9742 0.0000 0.0000 0.0000
# 4 0.0000 0.0000 0.0000 2.8177 0.0000 0.0000
# 5 0.0000 0.0000 0.0000 0.0000 2.8177 0.0000
# 6 0.0000 0.0000 0.0000 0.0000 0.0000 20.0074
#
#
#
# Elastic Compliance Matrix: (Units=1/GPa)
#
#
# Indices 1 2 3 4 5 6 
#
# 1 0.016870 -0.008121 -0.002909 0.000000 0.000000 0.000000
# 2 -0.008121 0.016870 -0.002909 0.000000 0.000000 0.000000
# 3 -0.002909 -0.002909 0.013842 0.000000 0.000000 0.000000
# 4 0.000000 0.000000 0.000000 0.354902 0.000000 0.000000
# 5 0.000000 0.000000 0.000000 0.000000 0.354902 0.000000
# 6 0.000000 0.000000 0.000000 0.000000 0.000000 0.049982
#
#
# Mechanical properties :
#
#
# Convention : Reuss Voigt Hill
#
# Bulk Modulus (GPa) = 50.74393 51.26013 51.00203
# Shear Modulus (GPa) = 5.93955 15.43449 10.68702
#
# Velocity S-wave (km/s) = 1.85228 2.98590 2.48461
# Velocity P-wave (km/s) = 5.82120 6.44186 6.13938
#
# Compressibility (1/GPa) = 0.01970679
#
# Stress axis : x y z
#
# Youngs Moduli (GPa) = 59.27601 59.27601 72.24191
#
# Poissons Ratio (x) = 0.48135 0.21013
# Poissons Ratio (y) = 0.48135 0.21013
# Poissons Ratio (z) = 0.17242 0.17242
#
# Static dielectric constant tensor:
#      x y z
#    x 3.136300 0.000000 0.000000 
#    y 0.000000 3.136300 0.000000 
#    z 0.000000 0.000000 3.505280 
# 
# 
# High freq. dielectric constant tensor:
#      x y z
#    x 1.644140 0.000000 0.000000 
#    y 0.000000 1.644140 0.000000 
#    z 0.000000 0.000000 1.682000 
# 
# From -- ./inp_files/10588.got.cif
#   From: 2010.03.12/outbox.cif.g09.slc.cpg/sg191_6_cif.got.tgz:10588.got - 2010.04.01 12:09:02.
