data_PCOD8328374
_publ_section_title
;
Structure prediction by ZEFSAII (Michael W. Deem and Ramdas Pophale) SiO2 
 PCOD8328374
Probable space group: P 6/M M M
;
_chemical_formula_sum "Si O2"
_cell_formula_units_Z 192
_cell_length_a 22.005670
_cell_length_b 22.005670
_cell_length_c 30.704590
_cell_angle_alpha 90.000000
_cell_angle_beta 90.000000
_cell_angle_gamma 120.000000
_cell_volume 12876.656963
_symmetry_space_group_name_H-M "P 6/M M M"
_symmetry_group_IT_number 191
_symmetry_cell_setting 'hexagonal'
loop_
_space_group_symop_operation_xyz
x,y,z
x-y,x,z
-y,x-y,z
-x,-y,z
-x+y,-x,z
y,-x+y,z
x-y,-y,-z
-x,-x+y,-z
y,x,-z
-y,-x,-z
-x+y,y,-z
x,x-y,-z
-x,-y,-z
-x+y,-x,-z
y,-x+y,-z
x,y,-z
x-y,x,-z
-y,x-y,-z
-x+y,y,z
x,x-y,z
-y,-x,z
y,x,z
x-y,-y,z
-x,-x+y,z
loop_
_atom_site_type_symbol
_atom_site_label
_atom_site_fract_x
_atom_site_fract_y
_atom_site_fract_z
Si Si1 0.711302 0.146731 0.372938
Si Si2 0.477284 0.811119 0.880584
Si Si3 0.152597 0.704077 0.792827
Si Si4 0.611184 0.533071 0.951176
Si Si5 0.334657 0.524731 0.292350
Si Si6 0.079024 0.295303 0.230034
Si Si7 0.471016 0.080990 0.450665
Si Si8 0.922347 0.710168 0.331186
O O1 0.776009 0.223992 0.377763
O O2 0.659569 0.145300 0.335253
O O3 0.673839 0.126999 0.419140
O O4 0.736423 0.091979 0.360588
O O5 0.398350 0.796700 0.884067
O O6 0.474956 0.737478 0.884665
O O7 0.511508 0.851191 0.835532
O O8 0.527801 0.862392 0.918513
O O9 0.227666 0.772335 0.790083
O O10 0.143184 0.657452 0.750146
O O11 0.094015 0.727851 0.794784
O O12 0.538790 0.461211 0.949389
O O13 0.595931 0.595931 0.938138
O O14 0.642782 0.546050 0.000000
O O15 0.261441 0.522882 0.291546
O O16 0.395479 0.604522 0.292728
O O17 0.135744 0.271487 0.216527
O O18 0.086854 0.313822 0.281074
O O19 0.000000 0.233365 0.218481
O O20 0.454484 0.093228 0.500000
O O21 0.552651 0.105302 0.446151
O O22 0.424201 0.000000 0.437609
O O23 0.868750 0.737500 0.342974
O O24 0.000000 0.773799 0.340895
#
# Coordination Sequence:
#
# PCOD8328374 Si02
#       8
#    24  24  24  24  24  24  24  24
#     4  10  18  28  44  64  84 107 136 171 208 248
#     4  10  19  29  43  63  88 116 145 181 225 271
#     4   9  17  29  41  57  83 114 146 175 205 245
#     4   8  15  29  46  60  76 104 142 180 220 268
#     4  10  18  28  41  57  79 108 142 177 211 249
#     4   9  16  28  45  63  85 112 142 175 210 251
#     4   9  18  32  47  61  79 105 136 170 211 257
#     4   9  16  27  44  64  85 109 136 166 202 243
#
# _framework density 14.910702000000001
#
# number of rings (size 3 to 8) (size 9 to 14) (size 15 to 20)
#    0.000    2.750    1.250    2.125    0.000    1.000 
#    0.000    1.250    0.000    3.125    0.000    1.750 
#    0.000    0.000    0.000    0.000    0.000    0.000 
#
# Total GULP energy -2380034.090796 kJ/mol
# GULP energy per Si atom -12396.010890 kJ/mol
# Density = 1.487676 g / cm^3
# Si number density = 14.910702 Si / 1000 Ang^3
#
#
#
# Elastic Constant Matrix: (Units=GPa)
#
#
# Indices 1 2 3 4 5 6 
#
# 1 66.8618 37.6026 39.0172 0.0000 0.0000 0.0000
# 2 37.6026 66.8618 39.0172 0.0000 0.0000 0.0000
# 3 39.0172 39.0172 88.4526 0.0000 0.0000 0.0000
# 4 0.0000 0.0000 0.0000 21.1534 0.0000 0.0000
# 5 0.0000 0.0000 0.0000 0.0000 21.1534 0.0000
# 6 0.0000 0.0000 0.0000 0.0000 0.0000 14.6296
#
#
#
# Elastic Compliance Matrix: (Units=1/GPa)
#
#
# Indices 1 2 3 4 5 6 
#
# 1 0.024227 -0.009950 -0.006298 0.000000 0.000000 0.000000
# 2 -0.009950 0.024227 -0.006298 0.000000 0.000000 0.000000
# 3 -0.006298 -0.006298 0.016861 0.000000 0.000000 0.000000
# 4 0.000000 0.000000 0.000000 0.047274 0.000000 0.000000
# 5 0.000000 0.000000 0.000000 0.000000 0.047274 0.000000
# 6 0.000000 0.000000 0.000000 0.000000 0.000000 0.068355
#
#
# Mechanical properties :
#
#
# Convention : Reuss Voigt Hill
#
# Bulk Modulus (GPa) = 49.44471 50.38334 49.91403
# Shear Modulus (GPa) = 17.85391 18.48987 18.17189
#
# Velocity S-wave (km/s) = 3.46409 3.52524 3.49480
# Velocity P-wave (km/s) = 7.01658 7.10163 7.05923
#
# Compressibility (1/GPa) = 0.02022461
#
# Stress axis : x y z
#
# Youngs Moduli (GPa) = 41.27601 41.27601 59.30698
#
# Poissons Ratio (x) = 0.41070 0.37350
# Poissons Ratio (y) = 0.41070 0.37350
# Poissons Ratio (z) = 0.25994 0.25994
#
# Static dielectric constant tensor:
#      x y z
#    x 2.771920 0.000000 0.000000 
#    y 0.000000 2.771920 0.000000 
#    z 0.000000 0.000000 2.967660 
# 
# 
# High freq. dielectric constant tensor:
#      x y z
#    x 1.554700 0.000000 0.000000 
#    y 0.000000 1.554700 0.000000 
#    z 0.000000 0.000000 1.564450 
# 
# From -- ./inp_files/10139.got.cif
#   From: 2010.03.12/outbox.cif.g09.slc.cpg/sg191_6_cif.got.tgz:10139.got - 2010.04.01 12:09:02.
