data_PCOD8328134
_publ_section_title
;
Structure prediction by ZEFSAII (Michael W. Deem and Ramdas Pophale) SiO2 
 PCOD8328134
Probable space group: P -6 2 C
;
_chemical_formula_sum "Si O2"
_cell_formula_units_Z 84
_cell_length_a 16.441591
_cell_length_b 16.441591
_cell_length_c 17.712731
_cell_angle_alpha 90.000000
_cell_angle_beta 90.000000
_cell_angle_gamma 120.000000
_cell_volume 4146.711679
_symmetry_space_group_name_H-M "P -6 2 C"
_symmetry_group_IT_number 190
_symmetry_cell_setting 'hexagonal'
loop_
_space_group_symop_operation_xyz
x,y,z
-x+y,-x,1/2-z
-y,x-y,z
x,y,1/2-z
-x+y,-x,z
-y,x-y,1/2-z
x-y,-y,-z
-x,-x+y,-z
y,x,-z
y,x,1/2+z
x-y,-y,1/2+z
-x,-x+y,1/2+z
loop_
_atom_site_type_symbol
_atom_site_label
_atom_site_fract_x
_atom_site_fract_y
_atom_site_fract_z
Si Si1 0.487111 0.446576 0.579416
Si Si2 0.103687 0.206376 0.521450
Si Si3 0.136459 0.600360 0.661455
Si Si4 0.207694 0.475710 0.894596
Si Si5 0.409031 0.087348 0.660295
Si Si6 0.203152 0.917829 0.835058
Si Si7 0.772183 0.178524 0.549801
O O1 0.497682 0.497682 0.500000
O O2 0.402526 0.446416 0.627434
O O3 0.584063 0.505490 0.624862
O O4 0.456012 0.338380 0.565896
O O5 0.122093 0.122093 0.500000
O O6 0.099163 0.215559 0.612018
O O7 0.182945 0.298887 0.478299
O O8 0.000000 0.182898 0.500000
O O9 0.128463 0.589929 0.750000
O O10 0.233899 0.688170 0.635048
O O11 0.135468 0.510442 0.625280
O O12 0.177770 0.383140 0.845259
O O13 0.207606 0.462058 0.984333
O O14 0.423740 0.098007 0.750000
O O15 0.413792 0.180503 0.626680
O O16 0.305539 0.002014 0.639549
O O17 0.178244 0.931127 0.750000
#
# Coordination Sequence:
#
# PCOD8328134 Si02
#       7
#    12  12  12  12  12  12  12
#     4  12  24  43  66  98 135 174 229 277 334 414
#     4  11  23  42  70 100 133 174 225 284 348 415
#     4  12  23  38  64  97 134 172 216 280 342 397
#     4  11  23  39  62  93 130 171 219 273 336 401
#     4  11  24  44  71  97 129 181 230 276 339 405
#     4  10  21  41  67  96 128 172 226 276 335 409
#     4  11  25  43  67  97 133 176 223 280 340 407
#
# _framework density 20.257016
#
# number of rings (size 3 to 8) (size 9 to 14) (size 15 to 20)
#    0.000    0.857    4.286    3.429    4.000    1.143 
#    0.857    1.429    0.000    0.000    0.000    0.000 
#    0.000    0.000    0.000    0.000    0.000    0.000 
#
# Total GULP energy -1041312.095151 kJ/mol
# GULP energy per Si atom -12396.572561 kJ/mol
# Density = 2.021091 g / cm^3
# Si number density = 20.257016 Si / 1000 Ang^3
#
#
#
# Elastic Constant Matrix: (Units=GPa)
#
#
# Indices 1 2 3 4 5 6 
#
# 1 66.5683 7.8995 53.0504 0.0000 0.0000 0.0000
# 2 7.8995 66.5683 53.0504 0.0000 0.0000 0.0000
# 3 53.0504 53.0504 136.1453 0.0000 0.0000 0.0000
# 4 0.0000 0.0000 0.0000 33.4497 0.0000 0.0000
# 5 0.0000 0.0000 0.0000 0.0000 33.4497 0.0000
# 6 0.0000 0.0000 0.0000 0.0000 0.0000 29.3344
#
#
#
# Elastic Compliance Matrix: (Units=1/GPa)
#
#
# Indices 1 2 3 4 5 6 
#
# 1 0.023617 0.006572 -0.011763 0.000000 0.000000 0.000000
# 2 0.006572 0.023617 -0.011763 0.000000 0.000000 0.000000
# 3 -0.011763 -0.011763 0.016513 0.000000 0.000000 0.000000
# 4 0.000000 0.000000 0.000000 0.029896 0.000000 0.000000
# 5 0.000000 0.000000 0.000000 0.000000 0.029896 0.000000
# 6 0.000000 0.000000 0.000000 0.000000 0.000000 0.034090
#
#
# Mechanical properties :
#
#
# Convention : Reuss Voigt Hill
#
# Bulk Modulus (GPa) = 33.51561 55.25359 44.38460
# Shear Modulus (GPa) = 24.81604 29.59888 27.20746
#
# Velocity S-wave (km/s) = 3.50388 3.82667 3.66883
# Velocity P-wave (km/s) = 5.74027 6.84544 6.31707
#
# Compressibility (1/GPa) = 0.02983685
#
# Stress axis : x y z
#
# Youngs Moduli (GPa) = 42.34249 42.34249 60.55981
#
# Poissons Ratio (x) = -0.27828 0.71239
# Poissons Ratio (y) = -0.27828 0.71239
# Poissons Ratio (z) = 0.49809 0.49809
#
# Static dielectric constant tensor:
#      x y z
#    x 3.635650 0.000000 0.000000 
#    y 0.000000 3.635650 0.000000 
#    z 0.000000 0.000000 3.747420 
# 
# 
# High freq. dielectric constant tensor:
#      x y z
#    x 1.787380 0.000000 0.000000 
#    y 0.000000 1.787380 0.000000 
#    z 0.000000 0.000000 1.799800 
# 
# From -- ./inp_files/3167.got.cif
#   From: 2010.06.25/outbox.cif.g09.slc.cpg/sg190_2_cif.got.tgz:3167.got - 2010.06.28 13:08:06.
