data_PCOD8328942
_publ_section_title
;
Structure prediction by ZEFSAII (Michael W. Deem and Ramdas Pophale) SiO2 
 PCOD8328942
Probable space group: P 6/M M M
;
_chemical_formula_sum "Si O2"
_cell_formula_units_Z 120
_cell_length_a 17.979125
_cell_length_b 17.979125
_cell_length_c 25.520372
_cell_angle_alpha 90.000000
_cell_angle_beta 90.000000
_cell_angle_gamma 120.000000
_cell_volume 7144.218622
_symmetry_space_group_name_H-M "P 6/M M M"
_symmetry_group_IT_number 191
_symmetry_cell_setting 'hexagonal'
loop_
_space_group_symop_operation_xyz
x,y,z
x-y,x,z
-y,x-y,z
-x,-y,z
-x+y,-x,z
y,-x+y,z
x-y,-y,-z
-x,-x+y,-z
y,x,-z
-y,-x,-z
-x+y,y,-z
x,x-y,-z
-x,-y,-z
-x+y,-x,-z
y,-x+y,-z
x,y,-z
x-y,x,-z
-y,x-y,-z
-x+y,y,z
x,x-y,z
-y,-x,z
y,x,z
x-y,-y,z
-x,-x+y,z
loop_
_atom_site_type_symbol
_atom_site_label
_atom_site_fract_x
_atom_site_fract_y
_atom_site_fract_z
Si Si1 0.333306 0.496705 0.412471
Si Si2 0.102487 0.634201 0.887777
Si Si3 0.734981 0.095325 0.500000
Si Si4 0.666585 0.504108 0.707373
Si Si5 0.364962 0.906222 0.000000
Si Si6 0.902447 0.263646 0.793984
O O1 0.263325 0.526650 0.420078
O O2 0.424692 0.575309 0.429625
O O3 0.310688 0.415759 0.448570
O O4 0.335271 0.469656 0.352662
O O5 0.137061 0.568531 0.874175
O O6 0.140163 0.680195 0.944855
O O7 0.131743 0.705634 0.843143
O O8 0.000000 0.580451 0.891361
O O9 0.836474 0.163527 0.500000
O O10 0.722176 0.000000 0.500000
O O11 0.738553 0.477105 0.715941
O O12 0.575564 0.424437 0.724157
O O13 0.686278 0.585638 0.742605
O O14 0.458500 0.917000 0.000000
O O15 0.373656 0.000000 0.000000
O O16 0.838963 0.161038 0.788082
O O17 0.000000 0.283711 0.801449
#
# Coordination Sequence:
#
# PCOD8328942 Si02
#       6
#    24  24  12  24  12  24
#     4   9  17  29  46  69  98 130 158 179 201 238
#     4   8  13  23  41  64  88 112 137 165 200 247
#     4  10  21  35  49  66  89 117 150 190 235 275
#     4   9  17  29  46  69  97 127 154 177 203 242
#     4   7  10  18  35  60  87 112 136 162 194 237
#     4  10  20  32  45  62  85 113 146 186 231 274
#
# _framework density 16.796799
#
# number of rings (size 3 to 8) (size 9 to 14) (size 15 to 20)
#    0.000    3.100    0.000    2.500    0.000    4.400 
#    0.000    3.500    0.000    0.700    0.000    0.000 
#    0.000    0.000    0.000   10.000    0.000   11.800 
#
# Total GULP energy -1487043.073942 kJ/mol
# GULP energy per Si atom -12392.025616 kJ/mol
# Density = 1.675857 g / cm^3
# Si number density = 16.796799 Si / 1000 Ang^3
#
#
#
# Elastic Constant Matrix: (Units=GPa)
#
#
# Indices 1 2 3 4 5 6 
#
# 1 69.5740 44.3956 32.9304 0.0000 0.0000 0.0000
# 2 44.3956 69.5740 32.9304 0.0000 0.0000 0.0000
# 3 32.9304 32.9304 96.1378 0.0000 0.0000 0.0000
# 4 0.0000 0.0000 0.0000 14.5750 0.0000 0.0000
# 5 0.0000 0.0000 0.0000 0.0000 14.5750 0.0000
# 6 0.0000 0.0000 0.0000 0.0000 0.0000 12.5892
#
#
#
# Elastic Compliance Matrix: (Units=1/GPa)
#
#
# Indices 1 2 3 4 5 6 
#
# 1 0.025328 -0.014388 -0.003747 0.000000 0.000000 0.000000
# 2 -0.014388 0.025328 -0.003747 0.000000 0.000000 0.000000
# 3 -0.003747 -0.003747 0.012969 0.000000 0.000000 0.000000
# 4 0.000000 0.000000 0.000000 0.068611 0.000000 0.000000
# 5 0.000000 0.000000 0.000000 0.000000 0.068611 0.000000
# 6 0.000000 0.000000 0.000000 0.000000 0.000000 0.079433
#
#
# Mechanical properties :
#
#
# Convention : Reuss Voigt Hill
#
# Bulk Modulus (GPa) = 50.35399 50.64427 50.49913
# Shear Modulus (GPa) = 15.12101 16.68312 15.90207
#
# Velocity S-wave (km/s) = 3.00364 3.15498 3.08024
# Velocity P-wave (km/s) = 6.48634 6.59458 6.54068
#
# Compressibility (1/GPa) = 0.01985940
#
# Stress axis : x y z
#
# Youngs Moduli (GPa) = 39.48174 39.48174 77.10804
#
# Poissons Ratio (x) = 0.56808 0.28894
# Poissons Ratio (y) = 0.56808 0.28894
# Poissons Ratio (z) = 0.14795 0.14795
#
# Static dielectric constant tensor:
#      x y z
#    x 2.796250 0.000000 0.000000 
#    y 0.000000 2.796250 0.000000 
#    z 0.000000 0.000000 3.632670 
# 
# 
# High freq. dielectric constant tensor:
#      x y z
#    x 1.608380 0.000000 0.000000 
#    y 0.000000 1.608380 0.000000 
#    z 0.000000 0.000000 1.672090 
# 
# From -- ./inp_files/9544.got.cif
#   From: 2010.03.12/outbox.cif.g09.slc.cpg/sg191_5_cif.got.tgz:9544.got - 2010.04.01 12:09:02.
