data_PCOD8328917
_publ_section_title
;
Structure prediction by ZEFSAII (Michael W. Deem and Ramdas Pophale) SiO2 
 PCOD8328917
Probable space group: P 6/M M M
;
_chemical_formula_sum "Si O2"
_cell_formula_units_Z 168
_cell_length_a 22.795086
_cell_length_b 22.795086
_cell_length_c 24.488127
_cell_angle_alpha 90.000000
_cell_angle_beta 90.000000
_cell_angle_gamma 120.000000
_cell_volume 11019.672069
_symmetry_space_group_name_H-M "P 6/M M M"
_symmetry_group_IT_number 191
_symmetry_cell_setting 'hexagonal'
loop_
_space_group_symop_operation_xyz
x,y,z
x-y,x,z
-y,x-y,z
-x,-y,z
-x+y,-x,z
y,-x+y,z
x-y,-y,-z
-x,-x+y,-z
y,x,-z
-y,-x,-z
-x+y,y,-z
x,x-y,-z
-x,-y,-z
-x+y,-x,-z
y,-x+y,-z
x,y,-z
x-y,x,-z
-y,x-y,-z
-x+y,y,z
x,x-y,z
-y,-x,z
y,x,z
x-y,-y,z
-x,-x+y,z
loop_
_atom_site_type_symbol
_atom_site_label
_atom_site_fract_x
_atom_site_fract_y
_atom_site_fract_z
Si Si1 0.280590 0.852443 0.143415
Si Si2 0.391817 0.469928 0.357155
Si Si3 0.073854 0.273733 0.729437
Si Si4 0.572090 0.853176 0.269483
Si Si5 0.274396 0.073785 0.140663
Si Si6 0.469007 0.802255 0.563840
Si Si7 0.076068 0.468938 0.939225
O O1 0.226353 0.773648 0.135976
O O2 0.303156 0.867115 0.206359
O O3 0.249795 0.898507 0.122864
O O4 0.343710 0.870313 0.105046
O O5 0.463055 0.536946 0.351586
O O6 0.406699 0.406699 0.363623
O O7 0.349775 0.467189 0.303485
O O8 0.349179 0.476086 0.407742
O O9 0.123211 0.246421 0.708597
O O10 0.103770 0.350553 0.710677
O O11 0.070656 0.271236 0.794378
O O12 0.000000 0.227057 0.703257
O O13 0.545865 0.772933 0.278991
O O14 0.249162 0.124581 0.119234
O O15 0.226507 0.000000 0.114653
O O16 0.483876 0.814258 0.500000
O O17 0.392541 0.785082 0.577415
O O18 0.477130 0.738565 0.583714
O O19 0.081244 0.540622 0.939083
O O20 0.000000 0.411093 0.923097
O O21 0.093794 0.454127 0.000000
#
# Coordination Sequence:
#
# PCOD8328917 Si02
#       7
#    24  24  24  24  24  24  24
#     4   9  17  28  44  64  81 102 134 171 210 246
#     4  10  20  30  41  62  90 115 137 165 208 260
#     4   8  13  21  34  51  71  97 127 158 190 225
#     4   9  17  29  43  59  81 107 137 172 205 242
#     4   8  13  21  34  53  75  98 125 156 190 226
#     4   9  17  30  48  66  83 108 145 184 215 244
#     4   9  18  31  45  62  84 109 136 165 200 247
#
# _framework density 15.245462
#
# number of rings (size 3 to 8) (size 9 to 14) (size 15 to 20)
#    0.000    3.143    0.000    3.571    0.000    3.429 
#    0.000    2.857    0.000    0.857    0.000    2.000 
#    0.000    0.000    0.000    0.000    0.000    0.000 
#
# Total GULP energy -2081605.215641 kJ/mol
# GULP energy per Si atom -12390.507236 kJ/mol
# Density = 1.521076 g / cm^3
# Si number density = 15.245462 Si / 1000 Ang^3
#
#
#
# Elastic Constant Matrix: (Units=GPa)
#
#
# Indices 1 2 3 4 5 6 
#
# 1 64.7980 25.1052 34.3095 0.0000 0.0000 0.0000
# 2 25.1052 64.7980 34.3095 0.0000 0.0000 0.0000
# 3 34.3095 34.3095 59.7491 0.0000 0.0000 0.0000
# 4 0.0000 0.0000 0.0000 19.0587 0.0000 0.0000
# 5 0.0000 0.0000 0.0000 0.0000 19.0587 0.0000
# 6 0.0000 0.0000 0.0000 0.0000 0.0000 19.8464
#
#
#
# Elastic Compliance Matrix: (Units=1/GPa)
#
#
# Indices 1 2 3 4 5 6 
#
# 1 0.022498 -0.002696 -0.011371 0.000000 0.000000 0.000000
# 2 -0.002696 0.022498 -0.011371 0.000000 0.000000 0.000000
# 3 -0.011371 -0.011371 0.029795 0.000000 0.000000 0.000000
# 4 0.000000 0.000000 0.000000 0.052470 0.000000 0.000000
# 5 0.000000 0.000000 0.000000 0.000000 0.052470 0.000000
# 6 0.000000 0.000000 0.000000 0.000000 0.000000 0.050387
#
#
# Mechanical properties :
#
#
# Convention : Reuss Voigt Hill
#
# Bulk Modulus (GPa) = 41.81278 41.86596 41.83937
# Shear Modulus (GPa) = 17.30323 17.96748 17.63536
#
# Velocity S-wave (km/s) = 3.37260 3.43672 3.40481
# Velocity P-wave (km/s) = 6.53083 6.57791 6.55442
#
# Compressibility (1/GPa) = 0.02391613
#
# Stress axis : x y z
#
# Youngs Moduli (GPa) = 44.44907 44.44907 33.56224
#
# Poissons Ratio (x) = 0.11983 0.38163
# Poissons Ratio (y) = 0.11983 0.38163
# Poissons Ratio (z) = 0.50542 0.50542
#
# Static dielectric constant tensor:
#      x y z
#    x 3.053120 0.000000 0.000000 
#    y 0.000000 3.053120 0.000000 
#    z 0.000000 0.000000 2.676890 
# 
# 
# High freq. dielectric constant tensor:
#      x y z
#    x 1.577840 0.000000 0.000000 
#    y 0.000000 1.577840 0.000000 
#    z 0.000000 0.000000 1.553210 
# 
# From -- ./inp_files/9179.got.cif
#   From: 2010.03.12/outbox.cif.g09.slc.cpg/sg191_5_cif.got.tgz:9179.got - 2010.04.01 12:09:02.
