data_PCOD8328920
_publ_section_title
;
Structure prediction by ZEFSAII (Michael W. Deem and Ramdas Pophale) SiO2 
 PCOD8328920
Probable space group: P 6/M M M
;
_chemical_formula_sum "Si O2"
_cell_formula_units_Z 108
_cell_length_a 29.884977
_cell_length_b 29.884977
_cell_length_c 7.913892
_cell_angle_alpha 90.000000
_cell_angle_beta 90.000000
_cell_angle_gamma 120.000000
_cell_volume 6121.059523
_symmetry_space_group_name_H-M "P 6/M M M"
_symmetry_group_IT_number 191
_symmetry_cell_setting 'hexagonal'
loop_
_space_group_symop_operation_xyz
x,y,z
x-y,x,z
-y,x-y,z
-x,-y,z
-x+y,-x,z
y,-x+y,z
x-y,-y,-z
-x,-x+y,-z
y,x,-z
-y,-x,-z
-x+y,y,-z
x,x-y,-z
-x,-y,-z
-x+y,-x,-z
y,-x+y,-z
x,y,-z
x-y,x,-z
-y,x-y,-z
-x+y,y,z
x,x-y,z
-y,-x,z
y,x,z
x-y,-y,z
-x,-x+y,z
loop_
_atom_site_type_symbol
_atom_site_label
_atom_site_fract_x
_atom_site_fract_y
_atom_site_fract_z
Si Si1 0.512181 0.704614 0.808624
Si Si2 0.000000 0.809925 0.304350
Si Si3 0.779821 0.889911 0.808885
Si Si4 0.000000 0.706856 0.194991
Si Si5 0.438234 0.771010 0.500000
Si Si6 0.834745 0.669489 0.690182
Si Si7 0.383369 0.105324 0.299712
O O1 0.530204 0.765102 0.777526
O O2 0.469212 0.670399 0.670664
O O3 0.560093 0.694654 0.784053
O O4 0.490403 0.687934 0.000000
O O5 0.048875 0.860000 0.223787
O O6 0.000000 0.820397 0.500000
O O7 0.000000 0.755673 0.283870
O O8 0.731000 0.865500 0.686364
O O9 0.759698 0.879849 0.000000
O O10 0.953561 0.650816 0.245406
O O11 0.000000 0.718394 0.000000
O O12 0.387344 0.774688 0.500000
O O13 0.422967 0.711484 0.500000
O O14 0.824463 0.648925 0.500000
O O15 0.867993 0.647631 0.778097
O O16 0.389716 0.109461 0.500000
#
# Coordination Sequence:
#
# PCOD8328920 Si02
#       7
#    24  12  12  12  12  12  24
#     4  10  20  34  56  84 114 151 193 235 284 341
#     4  12  24  40  56  75 105 144 183 223 278 345
#     4  12  24  38  56  79 105 138 182 230 278 334
#     4  12  24  34  48  78 115 150 189 233 279 334
#     4  10  21  38  60  87 121 155 193 234 279 327
#     4  10  20  30  52  76 107 149 184 222 272 332
#     4  11  20  34  53  77 111 153 193 231 278 336
#
# _framework density 17.644003999999999
#
# number of rings (size 3 to 8) (size 9 to 14) (size 15 to 20)
#    0.000    1.111    4.444    3.778    0.000    1.333 
#    0.000    0.000    0.000    1.556    0.000    3.111 
#    0.000    2.667    0.000    0.000    0.000    0.000 
#
# Total GULP energy -1338847.991566 kJ/mol
# GULP energy per Si atom -12396.740663 kJ/mol
# Density = 1.760385 g / cm^3
# Si number density = 17.644004 Si / 1000 Ang^3
#
#
#
# Elastic Constant Matrix: (Units=GPa)
#
#
# Indices 1 2 3 4 5 6 
#
# 1 117.0920 51.2757 35.1593 0.0000 0.0000 0.0000
# 2 51.2757 117.0920 35.1593 0.0000 0.0000 0.0000
# 3 35.1593 35.1593 110.1626 0.0000 0.0000 0.0000
# 4 0.0000 0.0000 0.0000 17.1113 0.0000 0.0000
# 5 0.0000 0.0000 0.0000 0.0000 17.1113 0.0000
# 6 0.0000 0.0000 0.0000 0.0000 0.0000 32.9082
#
#
#
# Elastic Compliance Matrix: (Units=1/GPa)
#
#
# Indices 1 2 3 4 5 6 
#
# 1 0.011023 -0.004170 -0.002187 0.000000 0.000000 0.000000
# 2 -0.004170 0.011023 -0.002187 0.000000 0.000000 0.000000
# 3 -0.002187 -0.002187 0.010474 0.000000 0.000000 0.000000
# 4 0.000000 0.000000 0.000000 0.058441 0.000000 0.000000
# 5 0.000000 0.000000 0.000000 0.000000 0.058441 0.000000
# 6 0.000000 0.000000 0.000000 0.000000 0.000000 0.030388
#
#
# Mechanical properties :
#
#
# Convention : Reuss Voigt Hill
#
# Bulk Modulus (GPa) = 64.80588 65.28168 65.04378
# Shear Modulus (GPa) = 24.74971 28.27632 26.51302
#
# Velocity S-wave (km/s) = 3.74936 4.00759 3.88063
# Velocity P-wave (km/s) = 7.45339 7.64814 7.55140
#
# Compressibility (1/GPa) = 0.01543070
#
# Stress axis : x y z
#
# Youngs Moduli (GPa) = 90.71680 90.71680 95.47834
#
# Poissons Ratio (x) = 0.37833 0.20882
# Poissons Ratio (y) = 0.37833 0.20882
# Poissons Ratio (z) = 0.19841 0.19841
#
# Static dielectric constant tensor:
#      x y z
#    x 3.099940 0.000000 0.000000 
#    y 0.000000 3.099940 0.000000 
#    z 0.000000 0.000000 3.406850 
# 
# 
# High freq. dielectric constant tensor:
#      x y z
#    x 1.658570 0.000000 0.000000 
#    y 0.000000 1.658570 0.000000 
#    z 0.000000 0.000000 1.700690 
# 
# From -- ./inp_files/1809.got.cif
#   From: 2010.03.12/outbox.cif.g09.slc.cpg/sg191_1_cif.got.tgz:1809.got - 2010.04.01 12:09:02.
