data_PCOD8328743
_publ_section_title
;
Structure prediction by ZEFSAII (Michael W. Deem and Ramdas Pophale) SiO2 
 PCOD8328743
Probable space group: P 6/M M M
;
_chemical_formula_sum "Si O2"
_cell_formula_units_Z 108
_cell_length_a 21.833414
_cell_length_b 21.833414
_cell_length_c 16.583861
_cell_angle_alpha 90.000000
_cell_angle_beta 90.000000
_cell_angle_gamma 120.000000
_cell_volume 6846.357613
_symmetry_space_group_name_H-M "P 6/M M M"
_symmetry_group_IT_number 191
_symmetry_cell_setting 'hexagonal'
loop_
_space_group_symop_operation_xyz
x,y,z
x-y,x,z
-y,x-y,z
-x,-y,z
-x+y,-x,z
y,-x+y,z
x-y,-y,-z
-x,-x+y,-z
y,x,-z
-y,-x,-z
-x+y,y,-z
x,x-y,-z
-x,-y,-z
-x+y,-x,-z
y,-x+y,-z
x,y,-z
x-y,x,-z
-y,x-y,-z
-x+y,y,z
x,x-y,z
-y,-x,z
y,x,z
x-y,-y,z
-x,-x+y,z
loop_
_atom_site_type_symbol
_atom_site_label
_atom_site_fract_x
_atom_site_fract_y
_atom_site_fract_z
Si Si1 0.332846 0.802579 0.591157
Si Si2 0.530561 0.919972 0.858029
Si Si3 0.521969 0.187326 0.000000
Si Si4 0.662863 0.080059 0.687929
Si Si5 0.216730 0.920464 0.407872
O O1 0.324210 0.821720 0.500000
O O2 0.386361 0.772721 0.595601
O O3 0.257748 0.742253 0.625510
O O4 0.363261 0.872089 0.644634
O O5 0.455166 0.910332 0.830203
O O6 0.518599 0.860970 0.923297
O O7 0.570871 0.907905 0.783635
O O8 0.579235 0.000000 0.892550
O O9 0.604134 0.208269 0.000000
O O10 0.516988 0.258494 0.000000
O O11 0.739953 0.099685 0.654977
O O12 0.606636 0.000000 0.664943
O O13 0.237986 0.913684 0.500000
O O14 0.133612 0.866389 0.393289
O O15 0.232330 0.000000 0.391617
#
# Coordination Sequence:
#
# PCOD8328743 Si02
#       5
#    24  24  12  24  24
#     4  10  20  32  44  58  81 115 151 183 216 257
#     4   9  18  33  50  65  84 112 144 175 209 253
#     4  10  20  33  49  69  90 111 136 170 213 256
#     4  10  19  30  46  68  89 109 139 180 221 259
#     4   9  17  29  45  65  90 119 148 178 215 258
#
# _framework density 15.77481
#
# number of rings (size 3 to 8) (size 9 to 14) (size 15 to 20)
#    0.000    2.444    0.000    2.667    0.000    8.444 
#    0.000    1.111    0.000    2.889    0.000    1.556 
#    0.000    0.000    0.000    0.000    0.000    0.000 
#
# Total GULP energy -1338759.827691 kJ/mol
# GULP energy per Si atom -12395.924330 kJ/mol
# Density = 1.573891 g / cm^3
# Si number density = 15.774810 Si / 1000 Ang^3
#
#
#
# Elastic Constant Matrix: (Units=GPa)
#
#
# Indices 1 2 3 4 5 6 
#
# 1 94.8298 50.3973 52.4750 0.0000 0.0000 0.0000
# 2 50.3973 94.8298 52.4750 0.0000 0.0000 0.0000
# 3 52.4750 52.4750 80.5714 0.0000 0.0000 0.0000
# 4 0.0000 0.0000 0.0000 16.5935 0.0000 0.0000
# 5 0.0000 0.0000 0.0000 0.0000 16.5935 0.0000
# 6 0.0000 0.0000 0.0000 0.0000 0.0000 22.2163
#
#
#
# Elastic Compliance Matrix: (Units=1/GPa)
#
#
# Indices 1 2 3 4 5 6 
#
# 1 0.017757 -0.004749 -0.008472 0.000000 0.000000 0.000000
# 2 -0.004749 0.017757 -0.008472 0.000000 0.000000 0.000000
# 3 -0.008472 -0.008472 0.023447 0.000000 0.000000 0.000000
# 4 0.000000 0.000000 0.000000 0.060265 0.000000 0.000000
# 5 0.000000 0.000000 0.000000 0.000000 0.060265 0.000000
# 6 0.000000 0.000000 0.000000 0.000000 0.000000 0.045012
#
#
# Mechanical properties :
#
#
# Convention : Reuss Voigt Hill
#
# Bulk Modulus (GPa) = 64.20551 64.54729 64.37640
# Shear Modulus (GPa) = 18.30965 18.73956 18.52461
#
# Velocity S-wave (km/s) = 3.41058 3.45039 3.43055
# Velocity P-wave (km/s) = 7.50327 7.54191 7.52262
#
# Compressibility (1/GPa) = 0.01557499
#
# Stress axis : x y z
#
# Youngs Moduli (GPa) = 56.31547 56.31547 42.64970
#
# Poissons Ratio (x) = 0.26744 0.36133
# Poissons Ratio (y) = 0.26744 0.36133
# Poissons Ratio (z) = 0.47711 0.47711
#
# Static dielectric constant tensor:
#      x y z
#    x 2.949530 0.000000 0.000000 
#    y 0.000000 2.949530 0.000000 
#    z 0.000000 0.000000 2.952540 
# 
# 
# High freq. dielectric constant tensor:
#      x y z
#    x 1.597040 0.000000 0.000000 
#    y 0.000000 1.597040 0.000000 
#    z 0.000000 0.000000 1.594540 
# 
# From -- ./inp_files/6083.got.cif
#   From: 2010.03.12/outbox.cif.g09.slc.cpg/sg191_4_cif.got.tgz:6083.got - 2010.04.01 12:09:02.
