data_PCOD8328354
_publ_section_title
;
Structure prediction by ZEFSAII (Michael W. Deem and Ramdas Pophale) SiO2 
 PCOD8328354
Probable space group: P 6/M M M
;
_chemical_formula_sum "Si O2"
_cell_formula_units_Z 192
_cell_length_a 22.718027
_cell_length_b 22.718027
_cell_length_c 27.600323
_cell_angle_alpha 90.000000
_cell_angle_beta 90.000000
_cell_angle_gamma 120.000000
_cell_volume 12336.331153
_symmetry_space_group_name_H-M "P 6/M M M"
_symmetry_group_IT_number 191
_symmetry_cell_setting 'hexagonal'
loop_
_space_group_symop_operation_xyz
x,y,z
x-y,x,z
-y,x-y,z
-x,-y,z
-x+y,-x,z
y,-x+y,z
x-y,-y,-z
-x,-x+y,-z
y,x,-z
-y,-x,-z
-x+y,y,-z
x,x-y,-z
-x,-y,-z
-x+y,-x,-z
y,-x+y,-z
x,y,-z
x-y,x,-z
-y,x-y,-z
-x+y,y,z
x,x-y,z
-y,-x,z
y,x,z
x-y,-y,z
-x,-x+y,z
loop_
_atom_site_type_symbol
_atom_site_label
_atom_site_fract_x
_atom_site_fract_y
_atom_site_fract_z
Si Si1 0.125297 0.737037 0.361472
Si Si2 0.207533 0.923778 0.173009
Si Si3 0.282531 0.853905 0.865336
Si Si4 0.712679 0.789445 0.444460
Si Si5 0.281312 0.074589 0.715861
Si Si6 0.393411 0.922083 0.055398
Si Si7 0.196801 0.530574 0.671623
Si Si8 0.198413 0.532002 0.216103
O O1 0.198091 0.801910 0.354028
O O2 0.091927 0.738885 0.412639
O O3 0.078851 0.737369 0.317531
O O4 0.138717 0.673530 0.358056
O O5 0.128525 0.871476 0.160184
O O6 0.257106 0.907805 0.141631
O O7 0.221246 0.914538 0.228980
O O8 0.223630 0.000000 0.161429
O O9 0.220066 0.779935 0.876166
O O10 0.330238 0.874039 0.911599
O O11 0.321329 0.852904 0.816694
O O12 0.689140 0.773337 0.500000
O O13 0.737285 0.868643 0.432047
O O14 0.774350 0.774350 0.433979
O O15 0.260106 0.130053 0.700091
O O16 0.215363 0.000000 0.709002
O O17 0.450316 0.900631 0.061744
O O18 0.423635 0.000000 0.071238
O O19 0.368417 0.911923 0.000000
O O20 0.272837 0.545673 0.660457
O O21 0.192408 0.596204 0.655439
O O22 0.178784 0.513253 0.727993
O O23 0.275886 0.551772 0.207206
O O24 0.191101 0.595551 0.200096
#
# Coordination Sequence:
#
# PCOD8328354 Si02
#       8
#    24  24  24  24  24  24  24  24
#     4   9  16  26  41  61  83 107 137 172 207 243
#     4   9  17  28  42  61  84 108 133 163 201 244
#     4  10  18  27  42  63  85 108 135 169 208 248
#     4   9  17  29  46  67  88 110 138 172 207 242
#     4   9  16  26  41  60  82 108 137 167 199 238
#     4   9  18  32  47  60  76 103 140 178 211 243
#     4   9  16  26  41  61  85 111 139 171 208 249
#     4   9  16  25  38  58  85 115 143 170 202 243
#
# _framework density 15.563784
#
# number of rings (size 3 to 8) (size 9 to 14) (size 15 to 20)
#    0.000    2.875    0.000    2.500    0.000    4.250 
#    0.000    0.000    0.000    2.500    0.000   10.500 
#    0.000    4.000    0.000    0.250    0.000    0.000 
#
# Total GULP energy -2379866.734670 kJ/mol
# GULP energy per Si atom -12395.139243 kJ/mol
# Density = 1.552836 g / cm^3
# Si number density = 15.563784 Si / 1000 Ang^3
#
#
#
# Elastic Constant Matrix: (Units=GPa)
#
#
# Indices 1 2 3 4 5 6 
#
# 1 92.4548 54.0932 38.8388 0.0000 0.0000 0.0000
# 2 54.0932 92.4548 38.8388 0.0000 0.0000 0.0000
# 3 38.8388 38.8388 58.8981 0.0000 0.0000 0.0000
# 4 0.0000 0.0000 0.0000 21.4470 0.0000 0.0000
# 5 0.0000 0.0000 0.0000 0.0000 21.4470 0.0000
# 6 0.0000 0.0000 0.0000 0.0000 0.0000 19.1808
#
#
#
# Elastic Compliance Matrix: (Units=1/GPa)
#
#
# Indices 1 2 3 4 5 6 
#
# 1 0.018279 -0.007789 -0.006918 0.000000 0.000000 0.000000
# 2 -0.007789 0.018279 -0.006918 0.000000 0.000000 0.000000
# 3 -0.006918 -0.006918 0.026102 0.000000 0.000000 0.000000
# 4 0.000000 0.000000 0.000000 0.046627 0.000000 0.000000
# 5 0.000000 0.000000 0.000000 0.000000 0.046627 0.000000
# 6 0.000000 0.000000 0.000000 0.000000 0.000000 0.052135
#
#
# Mechanical properties :
#
#
# Convention : Reuss Voigt Hill
#
# Bulk Modulus (GPa) = 51.51434 56.37216 53.94325
# Shear Modulus (GPa) = 19.39737 19.88408 19.64073
#
# Velocity S-wave (km/s) = 3.53415 3.57821 3.55625
# Velocity P-wave (km/s) = 7.05863 7.30549 7.18312
#
# Compressibility (1/GPa) = 0.01941207
#
# Stress axis : x y z
#
# Youngs Moduli (GPa) = 54.70747 54.70747 38.31168
#
# Poissons Ratio (x) = 0.42610 0.26502
# Poissons Ratio (y) = 0.42610 0.26502
# Poissons Ratio (z) = 0.37844 0.37844
#
# Static dielectric constant tensor:
#      x y z
#    x 2.958070 0.000000 0.000000 
#    y 0.000000 2.958070 0.000000 
#    z 0.000000 0.000000 2.869960 
# 
# 
# High freq. dielectric constant tensor:
#      x y z
#    x 1.585720 0.000000 0.000000 
#    y 0.000000 1.585720 0.000000 
#    z 0.000000 0.000000 1.583930 
# 
# From -- ./inp_files/9361.got.cif
#   From: 2010.03.12/outbox.cif.g09.slc.cpg/sg191_5_cif.got.tgz:9361.got - 2010.04.01 12:09:02.
