data_PCOD8328456
_publ_section_title
;
Structure prediction by ZEFSAII (Michael W. Deem and Ramdas Pophale) SiO2 
 PCOD8328456
Probable space group: P 6/M M M
;
_chemical_formula_sum "Si O2"
_cell_formula_units_Z 180
_cell_length_a 21.938737
_cell_length_b 21.938737
_cell_length_c 28.040795
_cell_angle_alpha 90.000000
_cell_angle_beta 90.000000
_cell_angle_gamma 120.000000
_cell_volume 11688.107514
_symmetry_space_group_name_H-M "P 6/M M M"
_symmetry_group_IT_number 191
_symmetry_cell_setting 'hexagonal'
loop_
_space_group_symop_operation_xyz
x,y,z
x-y,x,z
-y,x-y,z
-x,-y,z
-x+y,-x,z
y,-x+y,z
x-y,-y,-z
-x,-x+y,-z
y,x,-z
-y,-x,-z
-x+y,y,-z
x,x-y,-z
-x,-y,-z
-x+y,-x,-z
y,-x+y,-z
x,y,-z
x-y,x,-z
-y,x-y,-z
-x+y,y,z
x,x-y,z
-y,-x,z
y,x,z
x-y,-y,z
-x,-x+y,z
loop_
_atom_site_type_symbol
_atom_site_label
_atom_site_fract_x
_atom_site_fract_y
_atom_site_fract_z
Si Si1 0.289571 0.439654 0.674132
Si Si2 0.210898 0.289039 0.714100
Si Si3 0.920404 0.531907 0.053202
Si Si4 0.523308 0.333723 0.231689
Si Si5 0.531539 0.919152 0.415058
Si Si6 0.149924 0.708298 0.860522
Si Si7 0.290924 0.077811 0.176046
Si Si8 0.479858 0.665466 0.500000
O O1 0.230226 0.460452 0.660499
O O2 0.253263 0.356536 0.681331
O O3 0.330330 0.479147 0.721883
O O4 0.346693 0.458964 0.633637
O O5 0.127511 0.255021 0.705453
O O6 0.230060 0.230060 0.699683
O O7 0.229591 0.313366 0.768802
O O8 0.910867 0.455434 0.054210
O O9 0.866634 0.533136 0.090526
O O10 0.000000 0.589549 0.067241
O O11 0.903010 0.547693 0.000000
O O12 0.531177 0.265589 0.228504
O O13 0.599579 0.400422 0.235609
O O14 0.484063 0.339885 0.184699
O O15 0.460835 0.921670 0.411460
O O16 0.523520 0.863620 0.455605
O O17 0.595476 0.000000 0.424526
O O18 0.228706 0.771295 0.864477
O O19 0.095543 0.736407 0.854559
O O20 0.263008 0.131504 0.164058
O O21 0.228557 0.000000 0.163011
O O22 0.398407 0.601594 0.500000
O O23 0.481160 0.740580 0.500000
#
# Coordination Sequence:
#
# PCOD8328456 Si02
#       8
#    24  24  24  24  24  24  24  12
#     4  10  18  30  46  65  90 119 151 185 218 258
#     4   9  16  27  43  62  86 114 143 174 209 251
#     4   9  18  32  47  62  82 109 142 181 224 267
#     4  10  19  30  43  61  87 118 150 184 222 263
#     4  10  20  33  48  67  92 119 147 183 228 271
#     4  10  18  29  45  65  87 112 144 181 220 264
#     4   9  16  27  43  63  86 112 140 172 209 252
#     4  10  20  35  53  71  88 113 150 190 227 266
#
# _framework density 15.400268000000001
#
# number of rings (size 3 to 8) (size 9 to 14) (size 15 to 20)
#    0.000    2.400    1.333    2.800    0.000    1.067 
#    0.000    0.000    0.000    8.000    0.000    1.867 
#    0.000    0.000    0.000    0.000    0.000    0.000 
#
# Total GULP energy -2231233.344553 kJ/mol
# GULP energy per Si atom -12395.740803 kJ/mol
# Density = 1.536522 g / cm^3
# Si number density = 15.400268 Si / 1000 Ang^3
#
#
#
# Elastic Constant Matrix: (Units=GPa)
#
#
# Indices 1 2 3 4 5 6 
#
# 1 64.6836 31.0273 42.3671 0.0000 0.0000 0.0000
# 2 31.0273 64.6836 42.3671 0.0000 0.0000 0.0000
# 3 42.3671 42.3671 84.9493 0.0000 0.0000 0.0000
# 4 0.0000 0.0000 0.0000 22.1456 0.0000 0.0000
# 5 0.0000 0.0000 0.0000 0.0000 22.1456 0.0000
# 6 0.0000 0.0000 0.0000 0.0000 0.0000 16.8282
#
#
#
# Elastic Compliance Matrix: (Units=1/GPa)
#
#
# Indices 1 2 3 4 5 6 
#
# 1 0.024210 -0.005502 -0.009331 0.000000 0.000000 0.000000
# 2 -0.005502 0.024210 -0.009331 0.000000 0.000000 0.000000
# 3 -0.009331 -0.009331 0.021079 0.000000 0.000000 0.000000
# 4 0.000000 0.000000 0.000000 0.045156 0.000000 0.000000
# 5 0.000000 0.000000 0.000000 0.000000 0.045156 0.000000
# 6 0.000000 0.000000 0.000000 0.000000 0.000000 0.059424
#
#
# Mechanical properties :
#
#
# Convention : Reuss Voigt Hill
#
# Bulk Modulus (GPa) = 47.22884 49.53774 48.38329
# Shear Modulus (GPa) = 18.20706 18.79423 18.50064
#
# Velocity S-wave (km/s) = 3.44212 3.49719 3.46977
# Velocity P-wave (km/s) = 6.82142 6.96733 6.89476
#
# Compressibility (1/GPa) = 0.02117350
#
# Stress axis : x y z
#
# Youngs Moduli (GPa) = 41.30458 41.30458 47.44104
#
# Poissons Ratio (x) = 0.22724 0.44266
# Poissons Ratio (y) = 0.22724 0.44266
# Poissons Ratio (z) = 0.38540 0.38540
#
# Static dielectric constant tensor:
#      x y z
#    x 2.933090 0.000000 0.000000 
#    y 0.000000 2.933090 0.000000 
#    z 0.000000 0.000000 2.305170 
# 
# 
# High freq. dielectric constant tensor:
#      x y z
#    x 1.583200 0.000000 0.000000 
#    y 0.000000 1.583200 0.000000 
#    z 0.000000 0.000000 1.584020 
# 
# From -- ./inp_files/10831.got.cif
#   From: 2010.03.12/outbox.cif.g09.slc.cpg/sg191_6_cif.got.tgz:10831.got - 2010.04.01 12:09:02.
