data_PCOD8328005
_publ_section_title
;
Structure prediction by ZEFSAII (Michael W. Deem and Ramdas Pophale) SiO2 
 PCOD8328005
Probable space group: P -6 2 C
;
_chemical_formula_sum "Si O2"
_cell_formula_units_Z 48
_cell_length_a 13.802881
_cell_length_b 13.802881
_cell_length_c 17.290909
_cell_angle_alpha 90.000000
_cell_angle_beta 90.000000
_cell_angle_gamma 120.000000
_cell_volume 2852.909166
_symmetry_space_group_name_H-M "P -6 2 C"
_symmetry_group_IT_number 190
_symmetry_cell_setting 'hexagonal'
loop_
_space_group_symop_operation_xyz
x,y,z
-x+y,-x,1/2-z
-y,x-y,z
x,y,1/2-z
-x+y,-x,z
-y,x-y,1/2-z
x-y,-y,-z
-x,-x+y,-z
y,x,-z
y,x,1/2+z
x-y,-y,1/2+z
-x,-x+y,1/2+z
loop_
_atom_site_type_symbol
_atom_site_label
_atom_site_fract_x
_atom_site_fract_y
_atom_site_fract_z
Si Si1 0.888090 0.334927 0.157799
Si Si2 0.795820 0.002571 0.658670
Si Si3 0.120931 0.666186 0.840768
Si Si4 0.788257 0.789023 0.408679
O O1 0.900694 0.331978 0.250000
O O2 0.907749 0.453514 0.125354
O O3 0.764787 0.240676 0.129733
O O4 0.979229 0.310589 0.118925
O O5 0.813406 0.006535 0.750000
O O6 0.877056 0.121202 0.621114
O O7 0.670361 0.974659 0.636838
O O8 0.819290 0.907827 0.625771
O O9 0.129916 0.657802 0.750000
O O10 0.795206 0.795206 0.500000
#
# Coordination Sequence:
#
# PCOD8328005 Si02
#       4
#    12  12  12  12
#     4   9  16  30  50  72  93 118 153 196 238 279
#     4  10  19  33  51  71  93 124 162 202 239 276
#     4   8  15  27  49  73  90 111 149 195 235 270
#     4  11  21  32  46  70 100 129 156 191 238 291
#
# _framework density 16.824930999999999
#
# number of rings (size 3 to 8) (size 9 to 14) (size 15 to 20)
#    0.000    2.500    0.000    5.500    0.000    2.000 
#    0.000    5.000    0.000    1.000    0.000    3.500 
#    0.000    0.000    0.000    0.000    0.000    0.000 
#
# Total GULP energy -595090.496534 kJ/mol
# GULP energy per Si atom -12397.718678 kJ/mol
# Density = 1.678664 g / cm^3
# Si number density = 16.824931 Si / 1000 Ang^3
#
#
#
# Elastic Constant Matrix: (Units=GPa)
#
#
# Indices 1 2 3 4 5 6 
#
# 1 138.2080 81.0297 46.2971 0.0000 0.0000 0.0000
# 2 81.0297 138.2080 46.2971 0.0000 0.0000 0.0000
# 3 46.2971 46.2971 83.0577 0.0000 0.0000 0.0000
# 4 0.0000 0.0000 0.0000 11.4519 0.0000 0.0000
# 5 0.0000 0.0000 0.0000 0.0000 11.4519 0.0000
# 6 0.0000 0.0000 0.0000 0.0000 0.0000 28.5892
#
#
#
# Elastic Compliance Matrix: (Units=1/GPa)
#
#
# Indices 1 2 3 4 5 6 
#
# 1 0.011727 -0.005762 -0.003325 0.000000 0.000000 0.000000
# 2 -0.005762 0.011727 -0.003325 0.000000 0.000000 0.000000
# 3 -0.003325 -0.003325 0.015747 0.000000 0.000000 0.000000
# 4 0.000000 0.000000 0.000000 0.087322 0.000000 0.000000
# 5 0.000000 0.000000 0.000000 0.000000 0.087322 0.000000
# 6 0.000000 0.000000 0.000000 0.000000 0.000000 0.034978
#
#
# Mechanical properties :
#
#
# Convention : Reuss Voigt Hill
#
# Bulk Modulus (GPa) = 69.55543 78.52462 74.04002
# Shear Modulus (GPa) = 17.95715 22.68859 20.32287
#
# Velocity S-wave (km/s) = 3.27049 3.67619 3.47926
# Velocity P-wave (km/s) = 7.46270 8.04935 7.76157
#
# Compressibility (1/GPa) = 0.01437702
#
# Stress axis : x y z
#
# Youngs Moduli (GPa) = 85.27024 85.27024 63.50431
#
# Poissons Ratio (x) = 0.49130 0.21117
# Poissons Ratio (y) = 0.49130 0.21117
# Poissons Ratio (z) = 0.28355 0.28355
#
# Static dielectric constant tensor:
#      x y z
#    x 3.282750 0.000000 0.000000 
#    y 0.000000 3.282750 0.000000 
#    z 0.000000 0.000000 2.925270 
# 
# 
# High freq. dielectric constant tensor:
#      x y z
#    x 1.646530 0.000000 0.000000 
#    y 0.000000 1.646530 0.000000 
#    z 0.000000 0.000000 1.624750 
# 
# From -- ./inp_files/2564.got.cif
#   From: 2010.06.25/outbox.cif.g09.slc.cpg/sg190_2_cif.got.tgz:2564.got - 2010.06.28 13:08:06.
