data_PCOD8328868
_publ_section_title
;
Structure prediction by ZEFSAII (Michael W. Deem and Ramdas Pophale) SiO2 
 PCOD8328868
Probable space group: P 6/M M M
;
_chemical_formula_sum "Si O2"
_cell_formula_units_Z 90
_cell_length_a 26.312096
_cell_length_b 26.312096
_cell_length_c 9.133736
_cell_angle_alpha 90.000000
_cell_angle_beta 90.000000
_cell_angle_gamma 120.000000
_cell_volume 5476.334613
_symmetry_space_group_name_H-M "P 6/M M M"
_symmetry_group_IT_number 191
_symmetry_cell_setting 'hexagonal'
loop_
_space_group_symop_operation_xyz
x,y,z
x-y,x,z
-y,x-y,z
-x,-y,z
-x+y,-x,z
y,-x+y,z
x-y,-y,-z
-x,-x+y,-z
y,x,-z
-y,-x,-z
-x+y,y,-z
x,x-y,-z
-x,-y,-z
-x+y,-x,-z
y,-x+y,-z
x,y,-z
x-y,x,-z
-y,x-y,-z
-x+y,y,z
x,x-y,z
-y,-x,z
y,x,z
x-y,-y,z
-x,-x+y,z
loop_
_atom_site_type_symbol
_atom_site_label
_atom_site_fract_x
_atom_site_fract_y
_atom_site_fract_z
Si Si1 0.120375 0.120375 0.000000
Si Si2 0.549984 0.333555 0.329197
Si Si3 0.565347 0.843224 0.165244
Si Si4 0.000000 0.781438 0.837620
Si Si5 0.321965 0.100918 0.335603
O O1 0.056621 0.113242 0.000000
O O2 0.157012 0.157012 0.855989
O O3 0.536465 0.333152 0.500000
O O4 0.562826 0.281413 0.290579
O O5 0.606109 0.393892 0.279857
O O6 0.494201 0.326977 0.241198
O O7 0.567162 0.783581 0.167696
O O8 0.621010 0.893228 0.253601
O O9 0.567644 0.865263 0.000000
O O10 0.942601 0.736256 0.750956
O O11 0.000000 0.756126 0.000000
O O12 0.319880 0.077441 0.500000
O O13 0.326274 0.163137 0.340805
#
# Coordination Sequence:
#
# PCOD8328868 Si02
#       5
#     6  24  24  12  24
#     4  10  21  36  56  80 110 144 175 200 226 266
#     4   9  16  26  40  60  88 125 169 213 255 302
#     4   9  17  28  43  63  90 124 160 201 254 309
#     4  10  21  32  52  76 105 130 162 199 237 278
#     4  10  19  32  50  72  99 128 159 199 247 296
#
# _framework density 16.434349999999998
#
# number of rings (size 3 to 8) (size 9 to 14) (size 15 to 20)
#    0.400    2.133    0.000    3.133    0.000    5.867 
#    0.000    0.000    0.000    1.600    0.000    0.933 
#    0.000   13.867    0.000    0.000    0.000    0.000 
#
# Total GULP energy -1115776.031575 kJ/mol
# GULP energy per Si atom -12397.511462 kJ/mol
# Density = 1.639694 g / cm^3
# Si number density = 16.434350 Si / 1000 Ang^3
#
#
#
# Elastic Constant Matrix: (Units=GPa)
#
#
# Indices 1 2 3 4 5 6 
#
# 1 86.5699 49.8084 50.7173 0.0000 0.0000 0.0000
# 2 49.8084 86.5699 50.7173 0.0000 0.0000 0.0000
# 3 50.7173 50.7173 122.9183 0.0000 0.0000 0.0000
# 4 0.0000 0.0000 0.0000 27.6116 0.0000 0.0000
# 5 0.0000 0.0000 0.0000 0.0000 27.6116 0.0000
# 6 0.0000 0.0000 0.0000 0.0000 0.0000 18.3808
#
#
#
# Elastic Compliance Matrix: (Units=1/GPa)
#
#
# Indices 1 2 3 4 5 6 
#
# 1 0.018891 -0.008312 -0.004365 0.000000 0.000000 0.000000
# 2 -0.008312 0.018891 -0.004365 0.000000 0.000000 0.000000
# 3 -0.004365 -0.004365 0.011738 0.000000 0.000000 0.000000
# 4 0.000000 0.000000 0.000000 0.036217 0.000000 0.000000
# 5 0.000000 0.000000 0.000000 0.000000 0.036217 0.000000
# 6 0.000000 0.000000 0.000000 0.000000 0.000000 0.054405
#
#
# Mechanical properties :
#
#
# Convention : Reuss Voigt Hill
#
# Bulk Modulus (GPa) = 64.78493 66.50490 65.64491
# Shear Modulus (GPa) = 23.19261 24.37512 23.78387
#
# Velocity S-wave (km/s) = 3.76071 3.85539 3.80834
# Velocity P-wave (km/s) = 7.63958 7.77004 7.70509
#
# Compressibility (1/GPa) = 0.01543569
#
# Stress axis : x y z
#
# Youngs Moduli (GPa) = 52.93594 52.93594 85.19604
#
# Poissons Ratio (x) = 0.43998 0.37189
# Poissons Ratio (y) = 0.43998 0.37189
# Poissons Ratio (z) = 0.23107 0.23107
#
# Static dielectric constant tensor:
#      x y z
#    x 2.944800 0.000000 0.000000 
#    y 0.000000 2.944800 0.000000 
#    z 0.000000 0.000000 3.293260 
# 
# 
# High freq. dielectric constant tensor:
#      x y z
#    x 1.611240 0.000000 0.000000 
#    y 0.000000 1.611240 0.000000 
#    z 0.000000 0.000000 1.642170 
# 
# From -- ./inp_files/1260.got.cif
#   From: 2010.03.12/outbox.cif.g09.slc.cpg/sg191_1_cif.got.tgz:1260.got - 2010.04.01 12:09:02.
