data_PCOD8328007
_publ_section_title
;
Structure prediction by ZEFSAII (Michael W. Deem and Ramdas Pophale) SiO2 
 PCOD8328007
Probable space group: P -6 2 C
;
_chemical_formula_sum "Si O2"
_cell_formula_units_Z 78
_cell_length_a 24.000495
_cell_length_b 24.000495
_cell_length_c 7.892391
_cell_angle_alpha 90.000000
_cell_angle_beta 90.000000
_cell_angle_gamma 120.000000
_cell_volume 3937.128797
_symmetry_space_group_name_H-M "P -6 2 C"
_symmetry_group_IT_number 190
_symmetry_cell_setting 'hexagonal'
loop_
_space_group_symop_operation_xyz
x,y,z
-x+y,-x,1/2-z
-y,x-y,z
x,y,1/2-z
-x+y,-x,z
-y,x-y,1/2-z
x-y,-y,-z
-x,-x+y,-z
y,x,-z
y,x,1/2+z
x-y,-y,1/2+z
-x,-x+y,1/2+z
loop_
_atom_site_type_symbol
_atom_site_label
_atom_site_fract_x
_atom_site_fract_y
_atom_site_fract_z
Si Si1 0.929997 0.615026 0.550236
Si Si2 0.068466 0.810208 0.449685
Si Si3 0.407187 0.736725 0.250000
Si Si4 0.073033 0.265668 0.441904
Si Si5 0.502750 0.072876 0.449368
Si Si6 0.476647 0.831369 0.947863
Si Si7 0.926864 0.308926 0.448759
O O1 0.919937 0.605245 0.750000
O O2 0.926195 0.676141 0.479279
O O3 0.872147 0.553616 0.458384
O O4 0.000000 0.624822 0.500000
O O5 0.075657 0.810656 0.250000
O O6 0.124834 0.876984 0.531193
O O7 0.000000 0.802532 0.500000
O O8 0.394895 0.663377 0.250000
O O9 0.446346 0.771089 0.422754
O O10 0.072145 0.248469 0.250000
O O11 0.104217 0.343161 0.465362
O O12 0.000000 0.222743 0.500000
O O13 0.502552 0.074738 0.250000
O O14 0.573113 0.121856 0.517744
O O15 0.454530 0.097932 0.516099
O O16 0.480210 0.000000 0.500000
O O17 0.457303 0.809307 0.750000
O O18 0.917462 0.297861 0.250000
O O19 0.000000 0.342545 0.500000
#
# Coordination Sequence:
#
# PCOD8328007 Si02
#       7
#    12  12   6  12  12  12  12
#     4  10  19  35  58  90 127 157 189 238 298 369
#     4   9  20  36  55  81 116 150 186 232 287 343
#     4  10  26  50  66  82 110 156 208 260 314 352
#     4  10  19  33  51  77 106 146 187 227 274 327
#     4   9  19  31  50  83 118 150 184 229 286 345
#     4  11  22  40  64  91 117 151 202 249 306 369
#     4   9  16  29  45  69 106 142 178 222 270 326
#
# _framework density 19.811391
#
# number of rings (size 3 to 8) (size 9 to 14) (size 15 to 20)
#    0.154    2.154    0.769    2.769    1.077    4.308 
#    2.769    0.000    0.000    0.308    0.000    0.000 
#    0.000    0.000    0.000    0.000    0.000    0.000 
#
# Total GULP energy -966296.668032 kJ/mol
# GULP energy per Si atom -12388.418821 kJ/mol
# Density = 1.976630 g / cm^3
# Si number density = 19.811391 Si / 1000 Ang^3
#
#
#
# Elastic Constant Matrix: (Units=GPa)
#
#
# Indices 1 2 3 4 5 6 
#
# 1 92.5324 39.7327 18.4543 0.0000 0.0000 0.0000
# 2 39.7327 92.5324 18.4543 0.0000 0.0000 0.0000
# 3 18.4543 18.4543 61.4281 0.0000 0.0000 0.0000
# 4 0.0000 0.0000 0.0000 7.7789 0.0000 0.0000
# 5 0.0000 0.0000 0.0000 0.0000 7.7789 0.0000
# 6 0.0000 0.0000 0.0000 0.0000 0.0000 26.3998
#
#
#
# Elastic Compliance Matrix: (Units=1/GPa)
#
#
# Indices 1 2 3 4 5 6 
#
# 1 0.013596 -0.005344 -0.002479 0.000000 0.000000 0.000000
# 2 -0.005344 0.013596 -0.002479 0.000000 0.000000 0.000000
# 3 -0.002479 -0.002479 0.017769 0.000000 0.000000 0.000000
# 4 0.000000 0.000000 0.000000 0.128552 0.000000 0.000000
# 5 0.000000 0.000000 0.000000 0.000000 0.128552 0.000000
# 6 0.000000 0.000000 0.000000 0.000000 0.000000 0.037879
#
#
# Mechanical properties :
#
#
# Convention : Reuss Voigt Hill
#
# Bulk Modulus (GPa) = 41.05627 44.41950 42.73789
# Shear Modulus (GPa) = 13.56237 19.71497 16.63867
#
# Velocity S-wave (km/s) = 2.61928 3.15800 2.90117
# Velocity P-wave (km/s) = 5.46955 5.98056 5.73076
#
# Compressibility (1/GPa) = 0.02435681
#
# Stress axis : x y z
#
# Youngs Moduli (GPa) = 73.55127 73.55127 56.27837
#
# Poissons Ratio (x) = 0.39303 0.13953
# Poissons Ratio (y) = 0.39303 0.13953
# Poissons Ratio (z) = 0.18235 0.18235
#
# Static dielectric constant tensor:
#      x y z
#    x 5.835110 0.000000 0.000000 
#    y 0.000000 5.835110 0.000000 
#    z 0.000000 0.000000 4.640020 
# 
# 
# High freq. dielectric constant tensor:
#      x y z
#    x 1.758810 0.000000 0.000000 
#    y 0.000000 1.758810 0.000000 
#    z 0.000000 0.000000 1.771540 
# 
# From -- ./inp_files/1343.got.cif
#   From: 2010.06.25/outbox.cif.g09.slc.cpg/sg190_1_cif.got.tgz:1343.got - 2010.06.28 13:08:06.
