data_PCOD8329801
_publ_section_title
;
Structure prediction by ZEFSAII (Michael W. Deem and Ramdas Pophale) SiO2 
 PCOD8329801
Probable space group: P 63/M C M
;
_chemical_formula_sum "Si O2"
_cell_formula_units_Z 80
_cell_length_a 18.566500
_cell_length_b 18.566500
_cell_length_c 18.501642
_cell_angle_alpha 90.000000
_cell_angle_beta 90.000000
_cell_angle_gamma 120.000000
_cell_volume 5523.329964
_symmetry_space_group_name_H-M "P 63/M C M"
_symmetry_group_IT_number 193
_symmetry_cell_setting 'hexagonal'
loop_
_space_group_symop_operation_xyz
x,y,z
x-y,x,1/2+z
-y,x-y,z
-x,-y,1/2+z
-x+y,-x,z
y,-x+y,1/2+z
x-y,-y,1/2-z
-x,-x+y,1/2-z
y,x,1/2-z
-y,-x,-z
-x+y,y,-z
x,x-y,-z
-x,-y,-z
-x+y,-x,1/2-z
y,-x+y,-z
x,y,1/2-z
x-y,x,-z
-y,x-y,1/2-z
-x+y,y,1/2+z
x,x-y,1/2+z
-y,-x,1/2+z
y,x,z
x-y,-y,z
-x,-x+y,z
loop_
_atom_site_type_symbol
_atom_site_label
_atom_site_fract_x
_atom_site_fract_y
_atom_site_fract_z
Si Si1 0.766186 0.518428 0.084240
Si Si2 0.423167 0.516766 0.423426
Si Si3 0.566107 0.659263 0.165774
Si Si4 0.333334 0.666668 0.084773
O O1 0.854832 0.526943 0.103946
O O2 0.744517 0.581590 0.126880
O O3 0.695367 0.426416 0.110450
O O4 0.768113 0.536226 0.000000
O O5 0.434687 0.565314 0.500000
O O6 0.442801 0.442801 0.436580
O O7 0.482721 0.580538 0.363702
O O8 0.554472 0.667464 0.250000
O O9 0.643815 0.643815 0.150924
O O10 0.333334 0.666667 0.000000
#
# Coordination Sequence:
#
# PCOD8329801 Si02
#       4
#    24  24  24   8
#     4  11  17  28  45  62  84 113 151 190 226 268
#     4  10  18  30  47  66  88 114 148 192 238 275
#     4  10  21  33  43  60  89 119 146 182 232 283
#     4   9  15  24  37  62  82  99 136 188 223 249
#
# _framework density 14.484017
#
# number of rings (size 3 to 8) (size 9 to 14) (size 15 to 20)
#    0.000    1.800    6.000    0.900    0.000    1.200 
#    0.000    0.000    0.000    0.000    0.000    0.000 
#    0.000    0.000    0.000    0.900    0.000    6.000 
#
# Total GULP energy -991388.215828 kJ/mol
# GULP energy per Si atom -12392.352698 kJ/mol
# Density = 1.445105 g / cm^3
# Si number density = 14.484017 Si / 1000 Ang^3
#
#
#
# Elastic Constant Matrix: (Units=GPa)
#
#
# Indices 1 2 3 4 5 6 
#
# 1 77.4398 30.0698 32.9913 -0.0001 0.0000 -0.0001
# 2 30.0698 77.4394 32.9912 0.0001 -0.0001 0.0000
# 3 32.9913 32.9912 76.6481 0.0000 0.0000 0.0001
# 4 -0.0001 0.0001 0.0000 18.3803 -0.0001 0.0000
# 5 0.0000 -0.0001 0.0000 -0.0001 18.3805 0.0001
# 6 -0.0001 0.0000 0.0001 0.0000 0.0001 23.6848
#
#
#
# Elastic Compliance Matrix: (Units=1/GPa)
#
#
# Indices 1 2 3 4 5 6 
#
# 1 0.016876 -0.004235 -0.005441 0.000000 0.000000 0.000000
# 2 -0.004235 0.016876 -0.005441 0.000000 0.000000 0.000000
# 3 -0.005441 -0.005441 0.017730 0.000000 0.000000 0.000000
# 4 0.000000 0.000000 0.000000 0.054406 0.000000 0.000000
# 5 0.000000 0.000000 0.000000 0.000000 0.054406 0.000000
# 6 0.000000 0.000000 0.000000 0.000000 0.000000 0.042221
#
#
# Mechanical properties :
#
#
# Convention : Reuss Voigt Hill
#
# Bulk Modulus (GPa) = 47.06239 47.07021 47.06630
# Shear Modulus (GPa) = 20.84805 21.12079 20.98442
#
# Velocity S-wave (km/s) = 3.79804 3.82280 3.81044
# Velocity P-wave (km/s) = 7.19699 7.21482 7.20591
#
# Compressibility (1/GPa) = 0.02124839
#
# Stress axis : x y z
#
# Youngs Moduli (GPa) = 59.25715 59.25686 56.40017
#
# Poissons Ratio (x) = 0.25094 0.30687
# Poissons Ratio (y) = 0.25094 0.30687
# Poissons Ratio (z) = 0.32241 0.32241
#
# Static dielectric constant tensor:
#      x y z
#    x 2.904920 0.000010 0.000000 
#    y 0.000010 2.904920 0.000000 
#    z 0.000000 0.000000 2.736390 
# 
# 
# High freq. dielectric constant tensor:
#      x y z
#    x 1.528390 0.000000 0.000000 
#    y 0.000000 1.528390 0.000000 
#    z 0.000000 0.000000 1.547090 
# 
# From -- ./inp_files/3474.got.cif
#   From: 2010.03.12/outbox.cif.g09.slc.cpg/sg193_2_cif.got.tgz:3474.got - 2010.04.01 12:20:39.
