data_PCOD8329041
_publ_section_title
;
Structure prediction by ZEFSAII (Michael W. Deem and Ramdas Pophale) SiO2 
 PCOD8329041
Probable space group: P 6/M M M
;
_chemical_formula_sum "Si O2"
_cell_formula_units_Z 168
_cell_length_a 17.546574
_cell_length_b 17.546574
_cell_length_c 34.794539
_cell_angle_alpha 90.000000
_cell_angle_beta 90.000000
_cell_angle_gamma 120.000000
_cell_volume 9277.402164
_symmetry_space_group_name_H-M "P 6/M M M"
_symmetry_group_IT_number 191
_symmetry_cell_setting 'hexagonal'
loop_
_space_group_symop_operation_xyz
x,y,z
x-y,x,z
-y,x-y,z
-x,-y,z
-x+y,-x,z
y,-x+y,z
x-y,-y,-z
-x,-x+y,-z
y,x,-z
-y,-x,-z
-x+y,y,-z
x,x-y,-z
-x,-y,-z
-x+y,-x,-z
y,-x+y,-z
x,y,-z
x-y,x,-z
-y,x-y,-z
-x+y,y,z
x,x-y,z
-y,-x,z
y,x,z
x-y,-y,z
-x,-x+y,z
loop_
_atom_site_type_symbol
_atom_site_label
_atom_site_fract_x
_atom_site_fract_y
_atom_site_fract_z
Si Si1 0.271860 0.901097 0.815823
Si Si2 0.098997 0.368938 0.328566
Si Si3 0.489440 0.157513 0.256849
Si Si4 0.840918 0.332232 0.112236
Si Si5 0.600253 0.800127 0.545520
Si Si6 0.099559 0.199119 0.454244
Si Si7 0.632306 0.901430 0.956238
Si Si8 0.534833 0.897128 0.403549
O O1 0.167191 0.832810 0.812241
O O2 0.324772 0.881301 0.783647
O O3 0.308879 0.893210 0.856709
O O4 0.288857 0.000000 0.811291
O O5 0.165048 0.330095 0.326033
O O6 0.103334 0.421484 0.290376
O O7 0.127518 0.435796 0.364089
O O8 0.000000 0.287697 0.333411
O O9 0.571959 0.143917 0.260926
O O10 0.521251 0.260625 0.259882
O O11 0.857583 0.428792 0.120154
O O12 0.736968 0.263032 0.114818
O O13 0.878576 0.329657 0.070415
O O14 0.596359 0.798180 0.500000
O O15 0.700932 0.850466 0.560863
O O16 0.551048 0.700981 0.560634
O O17 0.149824 0.149824 0.438187
O O18 0.098682 0.197364 0.500000
O O19 0.668155 0.834078 0.947440
O O20 0.711905 0.000000 0.948229
O O21 0.598727 0.891522 0.000000
O O22 0.431245 0.862490 0.400591
O O23 0.588716 0.000000 0.411725
#
# Coordination Sequence:
#
# PCOD8329041 Si02
#       8
#    24  24  24  24  12  12  24  24
#     4  10  21  35  51  74 104 137 171 209 257 310
#     4  10  20  36  58  82 107 137 173 213 258 306
#     4  10  20  33  52  80 112 144 176 212 253 299
#     4  10  20  33  49  70  99 135 171 207 250 300
#     4  11  22  37  56  79 106 140 177 216 259 306
#     4   9  17  30  51  80 112 142 172 209 256 311
#     4   9  18  32  49  69  93 124 165 212 260 307
#     4  10  21  38  58  79 104 136 175 216 258 305
#
# _framework density 18.108518
#
# number of rings (size 3 to 8) (size 9 to 14) (size 15 to 20)
#    0.000    2.143    0.714    2.500    0.000    5.143 
#    0.429    2.857    0.000    1.286    0.000    1.000 
#    0.000    6.857    0.000    0.143    0.000    0.571 
#
# Total GULP energy -2083509.478255 kJ/mol
# GULP energy per Si atom -12401.842132 kJ/mol
# Density = 1.806730 g / cm^3
# Si number density = 18.108518 Si / 1000 Ang^3
#
#
#
# Elastic Constant Matrix: (Units=GPa)
#
#
# Indices 1 2 3 4 5 6 
#
# 1 100.7935 69.2259 27.2846 0.0000 0.0000 0.0000
# 2 69.2259 100.7935 27.2846 0.0000 0.0000 0.0000
# 3 27.2846 27.2846 83.2852 0.0000 0.0000 0.0000
# 4 0.0000 0.0000 0.0000 19.1222 0.0000 0.0000
# 5 0.0000 0.0000 0.0000 0.0000 19.1222 0.0000
# 6 0.0000 0.0000 0.0000 0.0000 0.0000 15.7838
#
#
#
# Elastic Compliance Matrix: (Units=1/GPa)
#
#
# Indices 1 2 3 4 5 6 
#
# 1 0.019125 -0.012553 -0.002153 0.000000 0.000000 0.000000
# 2 -0.012553 0.019125 -0.002153 0.000000 0.000000 0.000000
# 3 -0.002153 -0.002153 0.013418 0.000000 0.000000 0.000000
# 4 0.000000 0.000000 0.000000 0.052295 0.000000 0.000000
# 5 0.000000 0.000000 0.000000 0.000000 0.052295 0.000000
# 6 0.000000 0.000000 0.000000 0.000000 0.000000 0.063356
#
#
# Mechanical properties :
#
#
# Convention : Reuss Voigt Hill
#
# Bulk Modulus (GPa) = 55.70947 59.16247 57.43597
# Shear Modulus (GPa) = 19.28145 21.54414 20.41279
#
# Velocity S-wave (km/s) = 3.26662 3.45298 3.36109
# Velocity P-wave (km/s) = 6.71259 6.97420 6.84464
#
# Compressibility (1/GPa) = 0.01795027
#
# Stress axis : x y z
#
# Youngs Moduli (GPa) = 52.28647 52.28647 74.52797
#
# Poissons Ratio (x) = 0.65633 0.16048
# Poissons Ratio (y) = 0.65633 0.16048
# Poissons Ratio (z) = 0.11259 0.11259
#
# Static dielectric constant tensor:
#      x y z
#    x 3.336270 0.000000 0.000000 
#    y 0.000000 3.336270 0.000000 
#    z 0.000000 0.000000 3.426440 
# 
# 
# High freq. dielectric constant tensor:
#      x y z
#    x 1.692620 0.000000 0.000000 
#    y 0.000000 1.692620 0.000000 
#    z 0.000000 0.000000 1.711470 
# 
# From -- ./inp_files/10778.got.cif
#   From: 2010.03.12/outbox.cif.g09.slc.cpg/sg191_6_cif.got.tgz:10778.got - 2010.04.01 12:09:02.
