data_PCOD8329190
_publ_section_title
;
Structure prediction by ZEFSAII (Michael W. Deem and Ramdas Pophale) SiO2 
 PCOD8329190
Probable space group: P 6/M M M
;
_chemical_formula_sum "Si O2"
_cell_formula_units_Z 144
_cell_length_a 22.380834
_cell_length_b 22.380834
_cell_length_c 18.268754
_cell_angle_alpha 90.000000
_cell_angle_beta 90.000000
_cell_angle_gamma 120.000000
_cell_volume 7924.868993
_symmetry_space_group_name_H-M "P 6/M M M"
_symmetry_group_IT_number 191
_symmetry_cell_setting 'hexagonal'
loop_
_space_group_symop_operation_xyz
x,y,z
x-y,x,z
-y,x-y,z
-x,-y,z
-x+y,-x,z
y,-x+y,z
x-y,-y,-z
-x,-x+y,-z
y,x,-z
-y,-x,-z
-x+y,y,-z
x,x-y,-z
-x,-y,-z
-x+y,-x,-z
y,-x+y,-z
x,y,-z
x-y,x,-z
-y,x-y,-z
-x+y,y,z
x,x-y,z
-y,-x,z
y,x,z
x-y,-y,z
-x,-x+y,z
loop_
_atom_site_type_symbol
_atom_site_label
_atom_site_fract_x
_atom_site_fract_y
_atom_site_fract_z
Si Si1 0.921324 0.323102 0.915208
Si Si2 0.196535 0.666851 0.155217
Si Si3 0.077094 0.286814 0.820799
Si Si4 0.210315 0.287209 0.347681
Si Si5 0.470016 0.803199 0.324698
Si Si6 0.413638 0.079020 0.414960
O O1 0.871050 0.351312 0.891735
O O2 0.900606 0.254220 0.869919
O O3 0.000000 0.381874 0.898244
O O4 0.911307 0.303029 0.000000
O O5 0.215659 0.607830 0.140850
O O6 0.261017 0.738984 0.128996
O O7 0.180210 0.670528 0.240049
O O8 0.128982 0.257963 0.836574
O O9 0.082251 0.310138 0.736693
O O10 0.000000 0.226148 0.840365
O O11 0.130427 0.260853 0.365678
O O12 0.224958 0.224958 0.365817
O O13 0.257524 0.353535 0.396701
O O14 0.390876 0.781751 0.337632
O O15 0.479665 0.739833 0.351291
O O16 0.518023 0.871655 0.370290
O O17 0.431422 0.092462 0.500000
O O18 0.388907 0.000000 0.393532
#
# Coordination Sequence:
#
# PCOD8329190 Si02
#       6
#    24  24  24  24  24  24
#     4  10  21  35  51  74 103 131 160 200 249 294
#     4  10  21  37  56  76  99 129 165 203 242 287
#     4   9  17  30  49  72  98 129 165 203 243 290
#     4   9  17  30  49  72  98 129 165 203 243 290
#     4  10  21  37  56  76  99 129 165 203 242 287
#     4  10  21  35  51  74 103 131 160 200 249 294
#
# _framework density 18.170646999999999
#
# number of rings (size 3 to 8) (size 9 to 14) (size 15 to 20)
#    0.000    2.333    0.000    2.333    0.000   10.000 
#    0.000    3.333    0.000    2.333    0.000    2.333 
#    0.000    0.000    0.000    8.333    0.000    8.667 
#
# Total GULP energy -1785894.400583 kJ/mol
# GULP energy per Si atom -12402.044448 kJ/mol
# Density = 1.812929 g / cm^3
# Si number density = 18.170647 Si / 1000 Ang^3
#
#
#
# Elastic Constant Matrix: (Units=GPa)
#
#
# Indices 1 2 3 4 5 6 
#
# 1 91.9449 39.3183 25.0384 0.0000 0.0000 0.0000
# 2 39.3183 91.9449 25.0384 0.0000 0.0000 0.0000
# 3 25.0384 25.0384 36.3219 0.0000 0.0000 0.0000
# 4 0.0000 0.0000 0.0000 17.3987 0.0000 0.0000
# 5 0.0000 0.0000 0.0000 0.0000 17.3987 0.0000
# 6 0.0000 0.0000 0.0000 0.0000 0.0000 26.3133
#
#
#
# Elastic Compliance Matrix: (Units=1/GPa)
#
#
# Indices 1 2 3 4 5 6 
#
# 1 0.014669 -0.004333 -0.007126 0.000000 0.000000 0.000000
# 2 -0.004333 0.014669 -0.007126 0.000000 0.000000 0.000000
# 3 -0.007126 -0.007126 0.037356 0.000000 0.000000 0.000000
# 4 0.000000 0.000000 0.000000 0.057476 0.000000 0.000000
# 5 0.000000 0.000000 0.000000 0.000000 0.057476 0.000000
# 6 0.000000 0.000000 0.000000 0.000000 0.000000 0.038004
#
#
# Mechanical properties :
#
#
# Convention : Reuss Voigt Hill
#
# Bulk Modulus (GPa) = 33.86766 44.33355 39.10060
# Shear Modulus (GPa) = 18.75055 20.94322 19.84689
#
# Velocity S-wave (km/s) = 3.21583 3.39866 3.30851
# Velocity P-wave (km/s) = 5.69806 6.31289 6.01334
#
# Compressibility (1/GPa) = 0.02952669
#
# Stress axis : x y z
#
# Youngs Moduli (GPa) = 68.16983 68.16983 26.76970
#
# Poissons Ratio (x) = 0.29535 0.19075
# Poissons Ratio (y) = 0.29535 0.19075
# Poissons Ratio (z) = 0.48575 0.48575
#
# Static dielectric constant tensor:
#      x y z
#    x 3.350530 0.000000 0.000000 
#    y 0.000000 3.350530 0.000000 
#    z 0.000000 0.000000 3.350470 
# 
# 
# High freq. dielectric constant tensor:
#      x y z
#    x 1.699990 0.000000 0.000000 
#    y 0.000000 1.699990 0.000000 
#    z 0.000000 0.000000 1.700790 
# 
# From -- ./inp_files/7614.got.cif
#   From: 2010.03.12/outbox.cif.g09.slc.cpg/sg191_4_cif.got.tgz:7614.got - 2010.04.01 12:09:02.
