data_PCOD8329311
_publ_section_title
;
Structure prediction by ZEFSAII (Michael W. Deem and Ramdas Pophale) SiO2 
 PCOD8329311
Probable space group: P 6/M M M
;
_chemical_formula_sum "Si O2"
_cell_formula_units_Z 120
_cell_length_a 22.555939
_cell_length_b 22.555939
_cell_length_c 19.543616
_cell_angle_alpha 90.000000
_cell_angle_beta 90.000000
_cell_angle_gamma 120.000000
_cell_volume 8611.075071
_symmetry_space_group_name_H-M "P 6/M M M"
_symmetry_group_IT_number 191
_symmetry_cell_setting 'hexagonal'
loop_
_space_group_symop_operation_xyz
x,y,z
x-y,x,z
-y,x-y,z
-x,-y,z
-x+y,-x,z
y,-x+y,z
x-y,-y,-z
-x,-x+y,-z
y,x,-z
-y,-x,-z
-x+y,y,-z
x,x-y,-z
-x,-y,-z
-x+y,-x,-z
y,-x+y,-z
x,y,-z
x-y,x,-z
-y,x-y,-z
-x+y,y,z
x,x-y,z
-y,-x,z
y,x,z
x-y,-y,z
-x,-x+y,z
loop_
_atom_site_type_symbol
_atom_site_label
_atom_site_fract_x
_atom_site_fract_y
_atom_site_fract_z
Si Si1 0.391646 0.924088 0.076865
Si Si2 0.333501 0.530123 0.331022
Si Si3 0.000000 0.134381 0.418376
Si Si4 0.728899 0.132354 0.421369
Si Si5 0.000000 0.732197 0.418745
Si Si6 0.470913 0.666983 0.173025
O O1 0.462235 0.924469 0.080171
O O2 0.338587 0.867157 0.129119
O O3 0.406101 0.000000 0.097423
O O4 0.361386 0.905910 0.000000
O O5 0.273601 0.547202 0.346057
O O6 0.404249 0.595752 0.352305
O O7 0.325047 0.467480 0.376852
O O8 0.332995 0.510401 0.252146
O O9 0.067046 0.134091 0.390704
O O10 0.000000 0.135088 0.500000
O O11 0.000000 0.201212 0.388748
O O12 0.704735 0.122810 0.500000
O O13 0.804628 0.195373 0.412513
O O14 0.730363 0.066472 0.392740
O O15 0.000000 0.736428 0.500000
O O16 0.472940 0.736470 0.151769
O O17 0.394940 0.605061 0.157328
#
# Coordination Sequence:
#
# PCOD8329311 Si02
#       6
#    24  24  12  24  12  24
#     4   8  14  25  39  54  75 103 130 153 178 213
#     4   9  17  29  43  58  75  96 122 157 202 247
#     4   9  15  22  35  57  82 103 123 148 179 219
#     4   9  17  29  43  57  74  97 127 162 197 236
#     4   9  16  27  41  55  73 100 128 153 189 233
#     4   9  16  26  40  58  79 101 125 157 198 239
#
# _framework density 13.935542
#
# number of rings (size 3 to 8) (size 9 to 14) (size 15 to 20)
#    0.000    3.200    0.000    1.700    0.000    5.200 
#    1.800    0.500    0.000    4.200    0.000    0.000 
#    0.000    0.000    0.000    0.000    0.000    0.000 
#
# Total GULP energy -1487682.666598 kJ/mol
# GULP energy per Si atom -12397.355555 kJ/mol
# Density = 1.390382 g / cm^3
# Si number density = 13.935542 Si / 1000 Ang^3
#
#
#
# Elastic Constant Matrix: (Units=GPa)
#
#
# Indices 1 2 3 4 5 6 
#
# 1 101.2453 56.5503 44.4016 0.0000 0.0000 0.0000
# 2 56.5503 101.2453 44.4016 0.0000 0.0000 0.0000
# 3 44.4016 44.4016 51.3120 0.0000 0.0000 0.0000
# 4 0.0000 0.0000 0.0000 18.0152 0.0000 0.0000
# 5 0.0000 0.0000 0.0000 0.0000 18.0152 0.0000
# 6 0.0000 0.0000 0.0000 0.0000 0.0000 22.3475
#
#
#
# Elastic Compliance Matrix: (Units=1/GPa)
#
#
# Indices 1 2 3 4 5 6 
#
# 1 0.017363 -0.005010 -0.010689 0.000000 0.000000 0.000000
# 2 -0.005010 0.017363 -0.010689 0.000000 0.000000 0.000000
# 3 -0.010689 -0.010689 0.037988 0.000000 0.000000 0.000000
# 4 0.000000 0.000000 0.000000 0.055509 0.000000 0.000000
# 5 0.000000 0.000000 0.000000 0.000000 0.055509 0.000000
# 6 0.000000 0.000000 0.000000 0.000000 0.000000 0.044748
#
#
# Mechanical properties :
#
#
# Convention : Reuss Voigt Hill
#
# Bulk Modulus (GPa) = 50.15875 60.50109 55.32992
# Shear Modulus (GPa) = 17.36688 18.90550 18.13619
#
# Velocity S-wave (km/s) = 3.53403 3.68725 3.61145
# Velocity P-wave (km/s) = 7.26113 7.85092 7.56178
#
# Compressibility (1/GPa) = 0.01993670
#
# Stress axis : x y z
#
# Youngs Moduli (GPa) = 57.59226 57.59226 26.32398
#
# Poissons Ratio (x) = 0.28856 0.28139
# Poissons Ratio (y) = 0.28856 0.28139
# Poissons Ratio (z) = 0.61563 0.61563
#
# Static dielectric constant tensor:
#      x y z
#    x 2.774810 0.000000 0.000000 
#    y 0.000000 2.774810 0.000000 
#    z 0.000000 0.000000 2.624300 
# 
# 
# High freq. dielectric constant tensor:
#      x y z
#    x 1.522710 0.000000 0.000000 
#    y 0.000000 1.522710 0.000000 
#    z 0.000000 0.000000 1.503790 
# 
# From -- ./inp_files/4807.got.cif
#   From: 2010.03.12/outbox.cif.g09.slc.cpg/sg191_3_cif.got.tgz:4807.got - 2010.04.01 12:09:02.
