data_PCOD8329841
_publ_section_title
;
Structure prediction by ZEFSAII (Michael W. Deem and Ramdas Pophale) SiO2 
 PCOD8329841
Probable space group: P 63/M C M
;
_chemical_formula_sum "Si O2"
_cell_formula_units_Z 144
_cell_length_a 23.074865
_cell_length_b 23.074865
_cell_length_c 17.923895
_cell_angle_alpha 90.000000
_cell_angle_beta 90.000000
_cell_angle_gamma 120.000000
_cell_volume 8264.971503
_symmetry_space_group_name_H-M "P 63/M C M"
_symmetry_group_IT_number 193
_symmetry_cell_setting 'hexagonal'
loop_
_space_group_symop_operation_xyz
x,y,z
x-y,x,1/2+z
-y,x-y,z
-x,-y,1/2+z
-x+y,-x,z
y,-x+y,1/2+z
x-y,-y,1/2-z
-x,-x+y,1/2-z
y,x,1/2-z
-y,-x,-z
-x+y,y,-z
x,x-y,-z
-x,-y,-z
-x+y,-x,1/2-z
y,-x+y,-z
x,y,1/2-z
x-y,x,-z
-y,x-y,1/2-z
-x+y,y,1/2+z
x,x-y,1/2+z
-y,-x,1/2+z
y,x,z
x-y,-y,z
-x,-x+y,z
loop_
_atom_site_type_symbol
_atom_site_label
_atom_site_fract_x
_atom_site_fract_y
_atom_site_fract_z
Si Si1 0.077159 0.739858 0.168480
Si Si2 0.546689 0.624309 0.580745
Si Si3 0.419058 0.269626 0.538407
Si Si4 0.564170 0.378959 0.163384
Si Si5 0.801392 0.722859 0.520658
Si Si6 0.712563 0.485361 0.163580
O O1 0.112456 0.766585 0.250000
O O2 0.087700 0.679779 0.141859
O O3 0.103732 0.795805 0.103801
O O4 0.000000 0.715130 0.178041
O O5 0.569949 0.569949 0.568173
O O6 0.548073 0.658719 0.502401
O O7 0.472302 0.589162 0.614939
O O8 0.439165 0.219583 0.500000
O O9 0.338602 0.239083 0.537000
O O10 0.449156 0.279590 0.621437
O O11 0.552282 0.385720 0.250000
O O12 0.642275 0.419959 0.144005
O O13 0.533359 0.301683 0.139734
O O14 0.880284 0.760568 0.500000
O O15 0.774440 0.774440 0.515311
O O16 0.718117 0.503915 0.250000
#
# Coordination Sequence:
#
# PCOD8329841 Si02
#       6
#    24  24  24  24  24  24
#     4   8  14  26  47  74  98 123 162 212 258 294
#     4  10  19  32  51  76 104 131 164 218 270 310
#     4  10  18  34  52  76 103 131 169 207 263 322
#     4  10  20  35  54  76 100 134 178 223 269 311
#     4   9  18  32  52  76 106 139 171 212 259 312
#     4  10  21  37  55  74 102 138 178 222 265 311
#
# _framework density 17.422927000000001
#
# number of rings (size 3 to 8) (size 9 to 14) (size 15 to 20)
#    0.000    2.500    1.667    2.333    0.000    3.000 
#    0.000    2.500    0.000    5.667    0.000    0.000 
#    0.000    0.000    0.000    0.000    0.000    0.167 
#
# Total GULP energy -1784579.797759 kJ/mol
# GULP energy per Si atom -12392.915262 kJ/mol
# Density = 1.738327 g / cm^3
# Si number density = 17.422927 Si / 1000 Ang^3
#
#
#
# Elastic Constant Matrix: (Units=GPa)
#
#
# Indices 1 2 3 4 5 6 
#
# 1 77.3246 33.7820 38.7021 0.0000 0.0000 0.0000
# 2 33.7820 77.3246 38.7021 0.0000 0.0000 0.0000
# 3 38.7021 38.7021 76.0700 0.0000 0.0000 0.0000
# 4 0.0000 0.0000 0.0000 23.0619 0.0000 0.0000
# 5 0.0000 0.0000 0.0000 0.0000 23.0619 0.0000
# 6 0.0000 0.0000 0.0000 0.0000 0.0000 21.7713
#
#
#
# Elastic Compliance Matrix: (Units=1/GPa)
#
#
# Indices 1 2 3 4 5 6 
#
# 1 0.018454 -0.004512 -0.007093 0.000000 0.000000 0.000000
# 2 -0.004512 0.018454 -0.007093 0.000000 0.000000 0.000000
# 3 -0.007093 -0.007093 0.020363 0.000000 0.000000 0.000000
# 4 0.000000 0.000000 0.000000 0.043362 0.000000 0.000000
# 5 0.000000 0.000000 0.000000 0.000000 0.043362 0.000000
# 6 0.000000 0.000000 0.000000 0.000000 0.000000 0.045932
#
#
# Mechanical properties :
#
#
# Convention : Reuss Voigt Hill
#
# Bulk Modulus (GPa) = 50.31598 50.34352 50.32975
# Shear Modulus (GPa) = 21.37223 21.54789 21.46006
#
# Velocity S-wave (km/s) = 3.50619 3.52057 3.51339
# Velocity P-wave (km/s) = 6.73298 6.74415 6.73857
#
# Compressibility (1/GPa) = 0.01987440
#
# Stress axis : x y z
#
# Youngs Moduli (GPa) = 54.18878 54.18878 49.10754
#
# Poissons Ratio (x) = 0.24450 0.34833
# Poissons Ratio (y) = 0.24450 0.34833
# Poissons Ratio (z) = 0.38438 0.38438
#
# Static dielectric constant tensor:
#      x y z
#    x 3.142590 0.000000 0.000000 
#    y 0.000000 3.142590 0.000000 
#    z 0.000000 0.000000 4.104310 
# 
# 
# High freq. dielectric constant tensor:
#      x y z
#    x 1.653650 0.000000 0.000000 
#    y 0.000000 1.653650 0.000000 
#    z 0.000000 0.000000 1.669310 
# 
# From -- ./inp_files/5597.got.cif
#   From: 2010.03.12/outbox.cif.g09.slc.cpg/sg193_3_cif.got.tgz:5597.got - 2010.04.01 12:20:39.
