data_PCOD8329811
_publ_section_title
;
Structure prediction by ZEFSAII (Michael W. Deem and Ramdas Pophale) SiO2 
 PCOD8329811
Probable space group: P 63/M C M
;
_chemical_formula_sum "Si O2"
_cell_formula_units_Z 120
_cell_length_a 24.693604
_cell_length_b 24.693604
_cell_length_c 13.636713
_cell_angle_alpha 90.000000
_cell_angle_beta 90.000000
_cell_angle_gamma 120.000000
_cell_volume 7201.273254
_symmetry_space_group_name_H-M "P 63/M C M"
_symmetry_group_IT_number 193
_symmetry_cell_setting 'hexagonal'
loop_
_space_group_symop_operation_xyz
x,y,z
x-y,x,1/2+z
-y,x-y,z
-x,-y,1/2+z
-x+y,-x,z
y,-x+y,1/2+z
x-y,-y,1/2-z
-x,-x+y,1/2-z
y,x,1/2-z
-y,-x,-z
-x+y,y,-z
x,x-y,-z
-x,-y,-z
-x+y,-x,1/2-z
y,-x+y,-z
x,y,1/2-z
x-y,x,-z
-y,x-y,1/2-z
-x+y,y,1/2+z
x,x-y,1/2+z
-y,-x,1/2+z
y,x,z
x-y,-y,z
-x,-x+y,z
loop_
_atom_site_type_symbol
_atom_site_label
_atom_site_fract_x
_atom_site_fract_y
_atom_site_fract_z
Si Si1 0.070658 0.755044 0.958027
Si Si2 0.070215 0.637664 0.862641
Si Si3 0.848731 0.188655 0.860556
Si Si4 0.225627 0.484551 0.860921
Si Si5 0.181198 0.530307 0.473303
O O1 0.074090 0.696665 0.916418
O O2 0.116317 0.816597 0.894601
O O3 0.000000 0.742365 0.951184
O O4 0.092645 0.766642 0.071351
O O5 0.092522 0.655891 0.750000
O O6 0.114188 0.617061 0.919196
O O7 0.000000 0.579302 0.866507
O O8 0.873962 0.196181 0.750000
O O9 0.794212 0.206288 0.869979
O O10 0.222533 0.504046 0.750000
O O11 0.295791 0.527297 0.901422
O O12 0.177328 0.495686 0.924529
O O13 0.202687 0.601344 0.500000
#
# Coordination Sequence:
#
# PCOD8329811 Si02
#       5
#    24  24  24  24  24
#     4  10  18  30  50  77 104 131 168 209 244 287
#     4  10  19  32  52  76 100 126 159 199 242 293
#     4  10  18  32  54  75 100 136 170 203 245 293
#     4  10  20  37  54  71  93 122 160 201 249 305
#     4  11  21  35  54  71  93 122 158 200 250 299
#
# _framework density 16.663720000000001
#
# number of rings (size 3 to 8) (size 9 to 14) (size 15 to 20)
#    0.000    1.800    4.000    2.400    0.000    3.600 
#    4.800    0.000    0.000    0.600    0.000    0.000 
#    0.000    0.000    0.000   19.200    0.000   41.600 
#
# Total GULP energy -1487834.670358 kJ/mol
# GULP energy per Si atom -12398.622253 kJ/mol
# Density = 1.662579 g / cm^3
# Si number density = 16.663720 Si / 1000 Ang^3
#
#
#
# Elastic Constant Matrix: (Units=GPa)
#
#
# Indices 1 2 3 4 5 6 
#
# 1 67.8944 33.6544 42.7075 0.0000 0.0000 0.0000
# 2 33.6544 67.8944 42.7075 0.0000 0.0000 0.0000
# 3 42.7075 42.7075 157.1994 0.0000 0.0000 0.0000
# 4 0.0000 0.0000 0.0000 19.0573 0.0000 0.0000
# 5 0.0000 0.0000 0.0000 0.0000 19.0573 0.0000
# 6 0.0000 0.0000 0.0000 0.0000 0.0000 17.1200
#
#
#
# Elastic Compliance Matrix: (Units=1/GPa)
#
#
# Indices 1 2 3 4 5 6 
#
# 1 0.020985 -0.008221 -0.003468 0.000000 0.000000 0.000000
# 2 -0.008221 0.020985 -0.003468 0.000000 0.000000 0.000000
# 3 -0.003468 -0.003468 0.008246 0.000000 0.000000 0.000000
# 4 0.000000 0.000000 0.000000 0.052473 0.000000 0.000000
# 5 0.000000 0.000000 0.000000 0.000000 0.052473 0.000000
# 6 0.000000 0.000000 0.000000 0.000000 0.000000 0.058411
#
#
# Mechanical properties :
#
#
# Convention : Reuss Voigt Hill
#
# Bulk Modulus (GPa) = 50.24341 59.01411 54.62876
# Shear Modulus (GPa) = 19.95846 22.64148 21.29997
#
# Velocity S-wave (km/s) = 3.46456 3.69009 3.57910
# Velocity P-wave (km/s) = 6.79861 7.32443 7.06641
#
# Compressibility (1/GPa) = 0.01990311
#
# Stress axis : x y z
#
# Youngs Moduli (GPa) = 47.65318 47.65318 121.27703
#
# Poissons Ratio (x) = 0.39174 0.42056
# Poissons Ratio (y) = 0.39174 0.42056
# Poissons Ratio (z) = 0.16525 0.16525
#
# Static dielectric constant tensor:
#      x y z
#    x 2.974650 0.000000 0.000000 
#    y 0.000000 2.974650 0.000000 
#    z 0.000000 0.000000 3.404710 
# 
# 
# High freq. dielectric constant tensor:
#      x y z
#    x 1.613710 0.000000 0.000000 
#    y 0.000000 1.613710 0.000000 
#    z 0.000000 0.000000 1.662660 
# 
# From -- ./inp_files/3993.got.cif
#   From: 2010.03.12/outbox.cif.g09.slc.cpg/sg193_2_cif.got.tgz:3993.got - 2010.04.01 12:20:39.
