data_PCOD8329876
_publ_section_title
;
Structure prediction by ZEFSAII (Michael W. Deem and Ramdas Pophale) SiO2 
 PCOD8329876
Probable space group: P 63/M C M
;
_chemical_formula_sum "Si O2"
_cell_formula_units_Z 168
_cell_length_a 20.225134
_cell_length_b 20.225134
_cell_length_c 25.302137
_cell_angle_alpha 90.000000
_cell_angle_beta 90.000000
_cell_angle_gamma 120.000000
_cell_volume 8963.356087
_symmetry_space_group_name_H-M "P 63/M C M"
_symmetry_group_IT_number 193
_symmetry_cell_setting 'hexagonal'
loop_
_space_group_symop_operation_xyz
x,y,z
x-y,x,1/2+z
-y,x-y,z
-x,-y,1/2+z
-x+y,-x,z
y,-x+y,1/2+z
x-y,-y,1/2-z
-x,-x+y,1/2-z
y,x,1/2-z
-y,-x,-z
-x+y,y,-z
x,x-y,-z
-x,-y,-z
-x+y,-x,1/2-z
y,-x+y,-z
x,y,1/2-z
x-y,x,-z
-y,x-y,1/2-z
-x+y,y,1/2+z
x,x-y,1/2+z
-y,-x,1/2+z
y,x,z
x-y,-y,z
-x,-x+y,z
loop_
_atom_site_type_symbol
_atom_site_label
_atom_site_fract_x
_atom_site_fract_y
_atom_site_fract_z
Si Si1 0.227601 0.913471 0.190175
Si Si2 0.563866 0.708013 0.599285
Si Si3 0.546379 0.456111 0.059500
Si Si4 0.593161 0.682299 0.402604
Si Si5 0.318672 0.087493 0.504542
Si Si6 0.235679 0.914402 0.810246
Si Si7 0.430856 0.714441 0.060760
O O1 0.254150 0.910415 0.250000
O O2 0.266976 0.880673 0.150476
O O3 0.136541 0.856541 0.183930
O O4 0.248450 0.000000 0.175565
O O5 0.510831 0.618188 0.591772
O O6 0.631096 0.739470 0.556946
O O7 0.600306 0.722670 0.656996
O O8 0.509774 0.747220 0.594055
O O9 0.511760 0.511760 0.056458
O O10 0.629538 0.501788 0.088565
O O11 0.561796 0.438205 0.000000
O O12 0.627830 0.627830 0.394507
O O13 0.627562 0.734202 0.453993
O O14 0.279029 0.139515 0.500000
O O15 0.252211 0.000000 0.506362
O O16 0.260630 0.914766 0.750000
O O17 0.261580 0.000000 0.829707
O O18 0.376604 0.753352 0.072329
O O19 0.455916 0.727958 0.000000
#
# Coordination Sequence:
#
# PCOD8329876 Si02
#       7
#    24  24  24  24  24  24  24
#     4   9  18  35  59  82 105 141 187 227 272 332
#     4  12  21  32  57  78 103 144 187 224 266 328
#     4  10  19  30  47  75 112 144 174 216 267 320
#     4   9  18  32  48  75 110 137 168 217 270 314
#     4  11  22  34  51  78 108 136 171 216 272 329
#     4  10  22  39  56  78 110 144 183 232 283 335
#     4   8  19  34  48  74 112 142 177 217 267 324
#
# _framework density 18.742979999999999
#
# number of rings (size 3 to 8) (size 9 to 14) (size 15 to 20)
#    0.286    1.857    1.429    2.571    2.000    2.286 
#    0.000    0.714    0.000    3.857    0.000    2.000 
#    0.000    4.571    0.000    0.286    0.000    0.714 
#
# Total GULP energy -2082262.560474 kJ/mol
# GULP energy per Si atom -12394.420003 kJ/mol
# Density = 1.870032 g / cm^3
# Si number density = 18.742980 Si / 1000 Ang^3
#
#
#
# Elastic Constant Matrix: (Units=GPa)
#
#
# Indices 1 2 3 4 5 6 
#
# 1 103.0725 53.4876 39.6699 0.0000 0.0000 0.0000
# 2 53.4876 103.0725 39.6699 0.0000 0.0000 0.0000
# 3 39.6699 39.6699 86.2635 0.0000 0.0000 0.0000
# 4 0.0000 0.0000 0.0000 19.7566 0.0000 0.0000
# 5 0.0000 0.0000 0.0000 0.0000 19.7566 0.0000
# 6 0.0000 0.0000 0.0000 0.0000 0.0000 24.7925
#
#
#
# Elastic Compliance Matrix: (Units=1/GPa)
#
#
# Indices 1 2 3 4 5 6 
#
# 1 0.014248 -0.005920 -0.003830 0.000000 0.000000 0.000000
# 2 -0.005920 0.014248 -0.003830 0.000000 0.000000 0.000000
# 3 -0.003830 -0.003830 0.015115 0.000000 0.000000 0.000000
# 4 0.000000 0.000000 0.000000 0.050616 0.000000 0.000000
# 5 0.000000 0.000000 0.000000 0.000000 0.050616 0.000000
# 6 0.000000 0.000000 0.000000 0.000000 0.000000 0.040335
#
#
# Mechanical properties :
#
#
# Convention : Reuss Voigt Hill
#
# Bulk Modulus (GPa) = 60.78381 62.00703 61.39542
# Shear Modulus (GPa) = 22.95474 23.49987 23.22731
#
# Velocity S-wave (km/s) = 3.50338 3.54474 3.52412
# Velocity P-wave (km/s) = 6.99039 7.06457 7.02758
#
# Compressibility (1/GPa) = 0.01645175
#
# Stress axis : x y z
#
# Youngs Moduli (GPa) = 70.18626 70.18626 66.16002
#
# Poissons Ratio (x) = 0.41548 0.25338
# Poissons Ratio (y) = 0.41548 0.25338
# Poissons Ratio (z) = 0.26880 0.26880
#
# Static dielectric constant tensor:
#      x y z
#    x 3.670900 0.000000 0.000000 
#    y 0.000000 3.670900 0.000000 
#    z 0.000000 0.000000 3.408680 
# 
# 
# High freq. dielectric constant tensor:
#      x y z
#    x 1.733100 0.000000 0.000000 
#    y 0.000000 1.733100 0.000000 
#    z 0.000000 0.000000 1.704100 
# 
# From -- ./inp_files/7689.got.cif
#   From: 2010.03.12/outbox.cif.g09.slc.cpg/sg193_4_cif.got.tgz:7689.got - 2010.04.01 12:20:39.
