data_PCOD8329133
_publ_section_title
;
Structure prediction by ZEFSAII (Michael W. Deem and Ramdas Pophale) SiO2 
 PCOD8329133
Probable space group: P 6/M M M
;
_chemical_formula_sum "Si O2"
_cell_formula_units_Z 78
_cell_length_a 25.181358
_cell_length_b 25.181358
_cell_length_c 7.664640
_cell_angle_alpha 90.000000
_cell_angle_beta 90.000000
_cell_angle_gamma 120.000000
_cell_volume 4209.017077
_symmetry_space_group_name_H-M "P 6/M M M"
_symmetry_group_IT_number 191
_symmetry_cell_setting 'hexagonal'
loop_
_space_group_symop_operation_xyz
x,y,z
x-y,x,z
-y,x-y,z
-x,-y,z
-x+y,-x,z
y,-x+y,z
x-y,-y,-z
-x,-x+y,-z
y,x,-z
-y,-x,-z
-x+y,y,-z
x,x-y,-z
-x,-y,-z
-x+y,-x,-z
y,-x+y,-z
x,y,-z
x-y,x,-z
-y,x-y,-z
-x+y,y,z
x,x-y,z
-y,-x,z
y,x,z
x-y,-y,z
-x,-x+y,z
loop_
_atom_site_type_symbol
_atom_site_label
_atom_site_fract_x
_atom_site_fract_y
_atom_site_fract_z
Si Si1 0.562767 0.633203 0.793728
Si Si2 0.626914 0.253828 0.000000
Si Si3 0.253143 0.066408 0.000000
Si Si4 0.846050 0.423025 0.697708
Si Si5 0.344692 0.112567 0.305043
O O1 0.591690 0.591690 0.731236
O O2 0.494667 0.605206 0.725947
O O3 0.599081 0.700067 0.711267
O O4 0.564516 0.638275 0.000000
O O5 0.701509 0.298492 0.000000
O O6 0.605874 0.211747 0.827828
O O7 0.291938 0.070781 0.170326
O O8 0.230474 0.115237 0.000000
O O9 0.192614 0.000000 0.000000
O O10 0.820384 0.410192 0.500000
O O11 0.317256 0.094999 0.500000
O O12 0.368419 0.184210 0.265430
#
# Coordination Sequence:
#
# PCOD8329133 Si02
#       5
#    24   6  12  12  24
#     4  11  22  38  61  89 123 159 194 236 290 349
#     4  10  26  50  71  88 114 146 184 254 314 350
#     4  10  20  35  55  81 114 152 190 234 280 332
#     4  12  25  43  67  90 114 152 196 238 296 362
#     4  10  21  36  56  85 117 153 193 235 284 339
#
# _framework density 18.531642999999999
#
# number of rings (size 3 to 8) (size 9 to 14) (size 15 to 20)
#    0.154    1.231    3.077    2.308    0.000    8.000 
#    0.000    0.000    0.000    0.154    0.000    0.000 
#    0.000    0.000    0.000    7.692    0.000    0.000 
#
# Total GULP energy -967200.164878 kJ/mol
# GULP energy per Si atom -12400.002114 kJ/mol
# Density = 1.848946 g / cm^3
# Si number density = 18.531643 Si / 1000 Ang^3
#
#
#
# Elastic Constant Matrix: (Units=GPa)
#
#
# Indices 1 2 3 4 5 6 
#
# 1 125.3048 78.4052 51.6142 0.0000 0.0000 0.0000
# 2 78.4052 125.3048 51.6142 0.0000 0.0000 0.0000
# 3 51.6142 51.6142 135.8230 0.0000 0.0000 0.0000
# 4 0.0000 0.0000 0.0000 1.3694 0.0000 0.0000
# 5 0.0000 0.0000 0.0000 0.0000 1.3694 0.0000
# 6 0.0000 0.0000 0.0000 0.0000 0.0000 23.4498
#
#
#
# Elastic Compliance Matrix: (Units=1/GPa)
#
#
# Indices 1 2 3 4 5 6 
#
# 1 0.013701 -0.007621 -0.002310 0.000000 0.000000 0.000000
# 2 -0.007621 0.013701 -0.002310 0.000000 0.000000 0.000000
# 3 -0.002310 -0.002310 0.009118 0.000000 0.000000 0.000000
# 4 0.000000 0.000000 0.000000 0.730223 0.000000 0.000000
# 5 0.000000 0.000000 0.000000 0.000000 0.730223 0.000000
# 6 0.000000 0.000000 0.000000 0.000000 0.000000 0.042644
#
#
# Mechanical properties :
#
#
# Convention : Reuss Voigt Hill
#
# Bulk Modulus (GPa) = 83.08113 83.29997 83.19055
# Shear Modulus (GPa) = 3.18856 18.89100 11.03978
#
# Velocity S-wave (km/s) = 1.31314 3.19626 2.44340
# Velocity P-wave (km/s) = 6.87230 7.65958 7.27659
#
# Compressibility (1/GPa) = 0.01203643
#
# Stress axis : x y z
#
# Youngs Moduli (GPa) = 72.98780 72.98780 109.66794
#
# Poissons Ratio (x) = 0.55626 0.25337
# Poissons Ratio (y) = 0.55626 0.25337
# Poissons Ratio (z) = 0.16863 0.16863
#
# Static dielectric constant tensor:
#      x y z
#    x 3.420470 0.000000 0.000000 
#    y 0.000000 3.420470 0.000000 
#    z 0.000000 0.000000 3.739330 
# 
# 
# High freq. dielectric constant tensor:
#      x y z
#    x 1.711980 0.000000 0.000000 
#    y 0.000000 1.711980 0.000000 
#    z 0.000000 0.000000 1.741370 
# 
# From -- ./inp_files/1098.got.cif
#   From: 2010.03.12/outbox.cif.g09.slc.cpg/sg191_1_cif.got.tgz:1098.got - 2010.04.01 12:09:02.
