data_PCOD8329601
_publ_section_title
;
Structure prediction by ZEFSAII (Michael W. Deem and Ramdas Pophale) SiO2 
 PCOD8329601
Probable space group: P 6/M C C
;
_chemical_formula_sum "Si O2"
_cell_formula_units_Z 104
_cell_length_a 18.443476
_cell_length_b 18.443476
_cell_length_c 17.246777
_cell_angle_alpha 90.000000
_cell_angle_beta 90.000000
_cell_angle_gamma 120.000000
_cell_volume 5080.706758
_symmetry_space_group_name_H-M "P 6/M C C"
_symmetry_group_IT_number 192
_symmetry_cell_setting 'hexagonal'
loop_
_space_group_symop_operation_xyz
x,y,z
x-y,x,z
-y,x-y,z
-x,-y,z
-x+y,-x,z
y,-x+y,z
x-y,-y,1/2-z
-x,-x+y,1/2-z
y,x,1/2-z
-y,-x,1/2-z
-x+y,y,1/2-z
x,x-y,1/2-z
-x,-y,-z
-x+y,-x,-z
y,-x+y,-z
x,y,-z
x-y,x,-z
-y,x-y,-z
-x+y,y,1/2+z
x,x-y,1/2+z
-y,-x,1/2+z
y,x,1/2+z
x-y,-y,1/2+z
-x,-x+y,1/2+z
loop_
_atom_site_type_symbol
_atom_site_label
_atom_site_fract_x
_atom_site_fract_y
_atom_site_fract_z
Si Si1 0.486510 0.218112 0.907485
Si Si2 0.912962 0.256450 0.588260
Si Si3 0.666668 0.333334 0.158206
Si Si4 0.019525 0.169189 0.840453
Si Si5 0.039972 0.449313 0.588578
O O1 0.408752 0.229223 0.880085
O O2 0.571896 0.291790 0.872178
O O3 0.468649 0.128313 0.874248
O O4 0.493413 0.224564 0.000000
O O5 0.907880 0.225367 0.500000
O O6 0.960465 0.222437 0.641202
O O7 0.969516 0.354576 0.594900
O O8 0.666668 0.333334 0.250000
O O9 0.096329 0.162274 0.877669
O O10 0.000000 0.150864 0.750000
O O11 0.061143 0.479450 0.500000
O O12 0.000000 0.500000 0.630371
#
# Coordination Sequence:
#
# PCOD8329601 Si02
#       5
#    24  24   8  24  24
#     4  10  20  37  62  84 113 159 200 244 308 371
#     4  10  20  36  60  90 116 146 197 251 300 355
#     4  12  25  41  55  87 121 155 199 255 301 365
#     4  10  21  38  58  83 116 160 201 237 288 355
#     4   9  17  31  55  84 110 141 188 241 291 354
#
# _framework density 20.469591999999999
#
# number of rings (size 3 to 8) (size 9 to 14) (size 15 to 20)
#    0.000    2.077    0.000    3.692    0.000    7.385 
#    8.308    0.000    0.000    1.385    0.000    0.000 
#    0.000    0.000    0.000    0.000    0.000    0.000 
#
# Total GULP energy -1289171.582710 kJ/mol
# GULP energy per Si atom -12395.880603 kJ/mol
# Density = 2.042300 g / cm^3
# Si number density = 20.469592 Si / 1000 Ang^3
#
#
#
# Elastic Constant Matrix: (Units=GPa)
#
#
# Indices 1 2 3 4 5 6 
#
# 1 129.0714 39.4698 25.8377 0.0000 0.0002 0.0003
# 2 39.4698 129.0739 25.8377 0.0000 0.0001 0.0003
# 3 25.8377 25.8377 29.3391 -0.0001 -0.0001 0.0000
# 4 0.0000 0.0000 -0.0001 20.5417 0.0000 0.0000
# 5 0.0002 0.0001 -0.0001 0.0000 20.5415 0.0000
# 6 0.0003 0.0003 0.0000 0.0000 0.0000 44.8010
#
#
#
# Elastic Compliance Matrix: (Units=1/GPa)
#
#
# Indices 1 2 3 4 5 6 
#
# 1 0.009644 -0.001516 -0.007158 0.000000 0.000000 0.000000
# 2 -0.001516 0.009644 -0.007158 0.000000 0.000000 0.000000
# 3 -0.007158 -0.007158 0.046691 0.000000 0.000000 0.000000
# 4 0.000000 0.000000 0.000000 0.048681 0.000000 0.000000
# 5 0.000000 0.000000 0.000000 0.000000 0.048682 0.000000
# 6 0.000000 0.000000 0.000000 0.000000 0.000000 0.022321
#
#
# Mechanical properties :
#
#
# Convention : Reuss Voigt Hill
#
# Bulk Modulus (GPa) = 29.14116 52.19720 40.66918
# Shear Modulus (GPa) = 21.85638 30.26614 26.06126
#
# Velocity S-wave (km/s) = 3.27119 3.84942 3.57202
# Velocity P-wave (km/s) = 5.34180 6.73146 6.07649
#
# Compressibility (1/GPa) = 0.03431573
#
# Stress axis : x y z
#
# Youngs Moduli (GPa) = 103.68926 103.69157 21.41722
#
# Poissons Ratio (x) = 0.15722 0.15330
# Poissons Ratio (y) = 0.15722 0.15330
# Poissons Ratio (z) = 0.74220 0.74220
#
# Static dielectric constant tensor:
#      x y z
#    x 3.961680 0.000000 0.000000 
#    y 0.000000 3.961680 0.000000 
#    z 0.000000 0.000000 3.296290 
# 
# 
# High freq. dielectric constant tensor:
#      x y z
#    x 1.820040 0.000000 0.000000 
#    y 0.000000 1.820040 0.000000 
#    z 0.000000 0.000000 1.747020 
# 
# From -- ./inp_files/4882.got.cif
#   From: 2010.03.12/outbox.cif.g09.slc.cpg/sg192_3_cif.got.tgz:4882.got - 2010.04.01 12:16:15.
