data_PCOD8329102
_publ_section_title
;
Structure prediction by ZEFSAII (Michael W. Deem and Ramdas Pophale) SiO2 
 PCOD8329102
Probable space group: P 6/M M M
;
_chemical_formula_sum "Si O2"
_cell_formula_units_Z 132
_cell_length_a 17.991532
_cell_length_b 17.991532
_cell_length_c 28.585626
_cell_angle_alpha 90.000000
_cell_angle_beta 90.000000
_cell_angle_gamma 120.000000
_cell_volume 8013.359564
_symmetry_space_group_name_H-M "P 6/M M M"
_symmetry_group_IT_number 191
_symmetry_cell_setting 'hexagonal'
loop_
_space_group_symop_operation_xyz
x,y,z
x-y,x,z
-y,x-y,z
-x,-y,z
-x+y,-x,z
y,-x+y,z
x-y,-y,-z
-x,-x+y,-z
y,x,-z
-y,-x,-z
-x+y,y,-z
x,x-y,-z
-x,-y,-z
-x+y,-x,-z
y,-x+y,-z
x,y,-z
x-y,x,-z
-y,x-y,-z
-x+y,y,z
x,x-y,z
-y,-x,z
y,x,z
x-y,-y,z
-x,-x+y,z
loop_
_atom_site_type_symbol
_atom_site_label
_atom_site_fract_x
_atom_site_fract_y
_atom_site_fract_z
Si Si1 0.499333 0.830712 0.643945
Si Si2 0.336590 0.000000 0.907752
Si Si3 0.331723 0.493185 0.253893
Si Si4 0.000000 0.825889 0.054405
Si Si5 0.635416 0.534636 0.550030
Si Si6 0.413557 0.000000 0.810191
Si Si7 0.666582 0.500151 0.944748
O O1 0.430431 0.860862 0.639459
O O2 0.455434 0.727717 0.645662
O O3 0.547892 0.866685 0.693631
O O4 0.558426 0.864138 0.596968
O O5 0.327953 0.916446 0.932036
O O6 0.247789 0.000000 0.913762
O O7 0.358140 0.000000 0.853631
O O8 0.245397 0.490793 0.236339
O O9 0.408325 0.591676 0.255054
O O10 0.352371 0.436464 0.219403
O O11 0.916495 0.832990 0.066411
O O12 0.000000 0.802123 0.000000
O O13 0.686732 0.555025 0.500000
O O14 0.566534 0.433467 0.550071
O O15 0.588986 0.588986 0.552609
O O16 0.500000 0.000000 0.825957
O O17 0.749002 0.498004 0.923919
O O18 0.580120 0.419881 0.923525
O O19 0.665638 0.491895 0.000000
#
# Coordination Sequence:
#
# PCOD8329102 Si02
#       7
#    24  12  24  12  24  12  24
#     4   9  16  25  39  57  77 101 132 173 220 267
#     4  12  22  34  52  76 103 129 162 203 243 281
#     4   9  18  32  49  67  87 114 151 194 238 280
#     4  10  21  38  60  85 110 135 162 191 227 275
#     4   8  14  23  34  50  73 102 134 165 201 250
#     4  10  22  36  49  68  93 124 160 196 237 283
#     4  10  20  34  52  74 101 133 166 198 234 280
#
# _framework density 16.472491000000002
#
# number of rings (size 3 to 8) (size 9 to 14) (size 15 to 20)
#    0.000    2.545    0.000    3.364    1.273    6.545 
#    0.000    0.000    0.000    3.273    0.000    0.000 
#    0.000    0.000    0.000    0.000    0.000    0.000 
#
# Total GULP energy -1635250.677654 kJ/mol
# GULP energy per Si atom -12388.262709 kJ/mol
# Density = 1.643500 g / cm^3
# Si number density = 16.472491 Si / 1000 Ang^3
#
#
#
# Elastic Constant Matrix: (Units=GPa)
#
#
# Indices 1 2 3 4 5 6 
#
# 1 90.0705 44.6529 39.2410 0.0000 0.0000 0.0000
# 2 44.6529 90.0705 39.2410 0.0000 0.0000 0.0000
# 3 39.2410 39.2410 92.7499 0.0000 0.0000 0.0000
# 4 0.0000 0.0000 0.0000 24.1766 0.0000 0.0000
# 5 0.0000 0.0000 0.0000 0.0000 24.1766 0.0000
# 6 0.0000 0.0000 0.0000 0.0000 0.0000 22.7088
#
#
#
# Elastic Compliance Matrix: (Units=1/GPa)
#
#
# Indices 1 2 3 4 5 6 
#
# 1 0.015934 -0.006084 -0.004168 0.000000 0.000000 0.000000
# 2 -0.006084 0.015934 -0.004168 0.000000 0.000000 0.000000
# 3 -0.004168 -0.004168 0.014308 0.000000 0.000000 0.000000
# 4 0.000000 0.000000 0.000000 0.041362 0.000000 0.000000
# 5 0.000000 0.000000 0.000000 0.000000 0.041362 0.000000
# 6 0.000000 0.000000 0.000000 0.000000 0.000000 0.044036
#
#
# Mechanical properties :
#
#
# Convention : Reuss Voigt Hill
#
# Bulk Modulus (GPa) = 57.67434 57.68450 57.67942
# Shear Modulus (GPa) = 24.09013 24.19615 24.14314
#
# Velocity S-wave (km/s) = 3.82834 3.83676 3.83255
# Velocity P-wave (km/s) = 7.39122 7.39745 7.39434
#
# Compressibility (1/GPa) = 0.01733873
#
# Stress axis : x y z
#
# Youngs Moduli (GPa) = 62.75838 62.75838 69.89045
#
# Poissons Ratio (x) = 0.38181 0.29127
# Poissons Ratio (y) = 0.38181 0.29127
# Poissons Ratio (z) = 0.26155 0.26155
#
# Static dielectric constant tensor:
#      x y z
#    x 2.976710 0.000000 0.000000 
#    y 0.000000 2.976710 0.000000 
#    z 0.000000 0.000000 3.411710 
# 
# 
# High freq. dielectric constant tensor:
#      x y z
#    x 1.609480 0.000000 0.000000 
#    y 0.000000 1.609480 0.000000 
#    z 0.000000 0.000000 1.645760 
# 
# From -- ./inp_files/10606.got.cif
#   From: 2010.03.12/outbox.cif.g09.slc.cpg/sg191_6_cif.got.tgz:10606.got - 2010.04.01 12:09:02.
