data_PCOD8329351
_publ_section_title
;
Structure prediction by ZEFSAII (Michael W. Deem and Ramdas Pophale) SiO2 
 PCOD8329351
Probable space group: P 6/M C C
;
_chemical_formula_sum "Si O2"
_cell_formula_units_Z 132
_cell_length_a 26.623619
_cell_length_b 26.623619
_cell_length_c 14.277385
_cell_angle_alpha 90.000000
_cell_angle_beta 90.000000
_cell_angle_gamma 120.000000
_cell_volume 8764.224258
_symmetry_space_group_name_H-M "P 6/M C C"
_symmetry_group_IT_number 192
_symmetry_cell_setting 'hexagonal'
loop_
_space_group_symop_operation_xyz
x,y,z
x-y,x,z
-y,x-y,z
-x,-y,z
-x+y,-x,z
y,-x+y,z
x-y,-y,1/2-z
-x,-x+y,1/2-z
y,x,1/2-z
-y,-x,1/2-z
-x+y,y,1/2-z
x,x-y,1/2-z
-x,-y,-z
-x+y,-x,-z
y,-x+y,-z
x,y,-z
x-y,x,-z
-y,x-y,-z
-x+y,y,1/2+z
x,x-y,1/2+z
-y,-x,1/2+z
y,x,1/2+z
x-y,-y,1/2+z
-x,-x+y,1/2+z
loop_
_atom_site_type_symbol
_atom_site_label
_atom_site_fract_x
_atom_site_fract_y
_atom_site_fract_z
Si Si1 0.000000 0.791695 0.363722
Si Si2 0.068948 0.479658 0.146143
Si Si3 0.410710 0.479658 0.853857
Si Si4 0.000000 0.118516 0.000000
Si Si5 0.089763 0.792100 0.000000
Si Si6 0.400305 0.331217 0.000000
Si Si7 0.207900 0.297663 0.500000
Si Si8 0.668783 0.069088 0.500000
O O1 0.000001 0.848103 0.405279
O O2 0.943792 0.735056 0.404919
O O3 0.000000 0.791852 0.250000
O O4 0.056208 0.791263 0.404919
O O5 0.088943 0.544472 0.106685
O O6 0.093582 0.484991 0.250000
O O7 0.091928 0.444066 0.087641
O O8 0.000000 0.444048 0.145059
O O9 0.352138 0.444066 0.912359
O O10 0.055829 0.111658 0.000000
O O11 0.100051 0.737787 0.000000
O O12 0.151351 0.848649 0.000000
O O13 0.357422 0.357422 0.000000
O O14 0.362265 0.262213 0.000000
#
# Coordination Sequence:
#
# PCOD8329351 Si02
#       8
#    24  24  24  12  12  12  12  12
#     4  10  20  37  55  67  82 113 149 181 217 270
#     4   8  14  23  37  59  86 114 143 173 201 234
#     4   8  14  23  37  59  86 114 143 173 201 234
#     4  10  21  36  54  76  94 104 121 160 222 292
#     4  10  21  35  47  68  92 113 148 191 231 269
#     4  10  16  27  41  61  82 116 147 179 213 258
#     4  10  21  35  47  68  92 113 148 191 231 269
#     4  10  16  27  41  61  82 116 147 179 213 258
#
# _framework density 15.06123
#
# number of rings (size 3 to 8) (size 9 to 14) (size 15 to 20)
#    0.000    2.909    1.818    3.909    0.000    6.545 
#    0.000    0.000    0.000    1.091    0.000    0.000 
#    0.000    0.000    0.000    4.364    0.000    5.091 
#
# Total GULP energy -1635307.837864 kJ/mol
# GULP energy per Si atom -12388.695741 kJ/mol
# Density = 1.502695 g / cm^3
# Si number density = 15.061230 Si / 1000 Ang^3
#
#
#
# Elastic Constant Matrix: (Units=GPa)
#
#
# Indices 1 2 3 4 5 6 
#
# 1 88.5762 66.8322 47.4936 0.0000 0.0000 0.0000
# 2 66.8322 88.5762 47.4936 0.0000 0.0000 0.0000
# 3 47.4936 47.4936 123.0598 0.0000 0.0000 0.0000
# 4 0.0000 0.0000 0.0000 10.6557 0.0000 0.0000
# 5 0.0000 0.0000 0.0000 0.0000 10.6557 0.0000
# 6 0.0000 0.0000 0.0000 0.0000 0.0000 10.8720
#
#
#
# Elastic Compliance Matrix: (Units=1/GPa)
#
#
# Indices 1 2 3 4 5 6 
#
# 1 0.027205 -0.018784 -0.003250 0.000000 0.000000 0.000000
# 2 -0.018784 0.027205 -0.003250 0.000000 0.000000 0.000000
# 3 -0.003250 -0.003250 0.010635 0.000000 0.000000 0.000000
# 4 0.000000 0.000000 0.000000 0.093846 0.000000 0.000000
# 5 0.000000 0.000000 0.000000 0.000000 0.093846 0.000000
# 6 0.000000 0.000000 0.000000 0.000000 0.000000 0.091979
#
#
# Mechanical properties :
#
#
# Convention : Reuss Voigt Hill
#
# Bulk Modulus (GPa) = 69.07583 69.31676 69.19629
# Shear Modulus (GPa) = 12.49651 15.66289 14.07970
#
# Velocity S-wave (km/s) = 2.88360 3.22832 3.06082
# Velocity P-wave (km/s) = 7.55313 7.74721 7.65079
#
# Compressibility (1/GPa) = 0.01447684
#
# Stress axis : x y z
#
# Youngs Moduli (GPa) = 36.75749 36.75749 94.03133
#
# Poissons Ratio (x) = 0.69046 0.30560
# Poissons Ratio (y) = 0.69046 0.30560
# Poissons Ratio (z) = 0.11946 0.11946
#
# Static dielectric constant tensor:
#      x y z
#    x 2.748680 0.000000 0.000000 
#    y 0.000000 2.748680 0.000000 
#    z 0.000000 0.000000 3.160920 
# 
# 
# High freq. dielectric constant tensor:
#      x y z
#    x 1.546910 0.000000 0.000000 
#    y 0.000000 1.546910 0.000000 
#    z 0.000000 0.000000 1.581310 
# 
# From -- ./inp_files/3370.got.cif
#   From: 2010.03.12/outbox.cif.g09.slc.cpg/sg192_2_cif.got.tgz:3370.got - 2010.04.01 12:16:15.
