data_PCOD8329888
_publ_section_title
;
Structure prediction by ZEFSAII (Michael W. Deem and Ramdas Pophale) SiO2 
 PCOD8329888
Probable space group: P 63/M C M
;
_chemical_formula_sum "Si O2"
_cell_formula_units_Z 168
_cell_length_a 20.902282
_cell_length_b 20.902282
_cell_length_c 25.964367
_cell_angle_alpha 90.000000
_cell_angle_beta 90.000000
_cell_angle_gamma 120.000000
_cell_volume 9824.167900
_symmetry_space_group_name_H-M "P 63/M C M"
_symmetry_group_IT_number 193
_symmetry_cell_setting 'hexagonal'
loop_
_space_group_symop_operation_xyz
x,y,z
x-y,x,1/2+z
-y,x-y,z
-x,-y,1/2+z
-x+y,-x,z
y,-x+y,1/2+z
x-y,-y,1/2-z
-x,-x+y,1/2-z
y,x,1/2-z
-y,-x,-z
-x+y,y,-z
x,x-y,-z
-x,-y,-z
-x+y,-x,1/2-z
y,-x+y,-z
x,y,1/2-z
x-y,x,-z
-y,x-y,1/2-z
-x+y,y,1/2+z
x,x-y,1/2+z
-y,-x,1/2+z
y,x,z
x-y,-y,z
-x,-x+y,z
loop_
_atom_site_type_symbol
_atom_site_label
_atom_site_fract_x
_atom_site_fract_y
_atom_site_fract_z
Si Si1 0.918068 0.329663 0.123606
Si Si2 0.082449 0.528788 0.851458
Si Si3 0.768287 0.081355 0.189233
Si Si4 0.516286 0.280983 0.594726
Si Si5 0.815279 0.519901 0.191139
Si Si6 0.794450 0.713778 0.190019
Si Si7 0.822090 0.386237 0.943522
O O1 0.912617 0.392457 0.156297
O O2 0.847888 0.293673 0.084035
O O3 0.908164 0.267441 0.162959
O O4 0.000000 0.367041 0.096358
O O5 0.140006 0.524285 0.812749
O O6 0.102628 0.520738 0.910807
O O7 0.000000 0.462447 0.839936
O O8 0.760311 0.071900 0.250000
O O9 0.731855 0.129149 0.170796
O O10 0.855011 0.124357 0.172629
O O11 0.727703 0.000000 0.163161
O O12 0.515140 0.255946 0.654000
O O13 0.516724 0.220262 0.555942
O O14 0.590750 0.358634 0.585447
O O15 0.789492 0.517712 0.250000
O O16 0.783352 0.694793 0.250000
O O17 0.783952 0.783952 0.176968
O O18 0.841880 0.420940 0.000000
#
# Coordination Sequence:
#
# PCOD8329888 Si02
#       7
#    24  24  24  24  24  24  24
#     4   9  17  30  47  66  91 120 152 199 252 294
#     4   9  19  32  46  68  95 125 163 203 242 295
#     4   9  16  26  42  63  89 125 165 200 236 287
#     4  10  19  33  50  71  96 122 162 209 243 297
#     4  10  19  31  47  68  99 133 163 201 249 299
#     4   9  16  26  42  63  88 122 163 203 239 285
#     4  10  20  33  51  70  90 122 163 203 254 296
#
# _framework density 17.100684000000001
#
# number of rings (size 3 to 8) (size 9 to 14) (size 15 to 20)
#    0.000    2.571    1.429    1.143    0.000    1.714 
#    0.000    7.143    0.000    0.286    0.000    2.000 
#    0.000    0.000    0.000    0.000    0.000    0.000 
#
# Total GULP energy -2081361.472419 kJ/mol
# GULP energy per Si atom -12389.056383 kJ/mol
# Density = 1.706176 g / cm^3
# Si number density = 17.100684 Si / 1000 Ang^3
#
#
#
# Elastic Constant Matrix: (Units=GPa)
#
#
# Indices 1 2 3 4 5 6 
#
# 1 67.2309 21.1109 11.3133 0.0000 0.0000 0.0000
# 2 21.1109 67.2309 11.3133 0.0000 0.0000 0.0000
# 3 11.3133 11.3133 48.3249 0.0000 0.0000 0.0000
# 4 0.0000 0.0000 0.0000 13.7176 0.0000 0.0000
# 5 0.0000 0.0000 0.0000 0.0000 13.7176 0.0000
# 6 0.0000 0.0000 0.0000 0.0000 0.0000 23.0600
#
#
#
# Elastic Compliance Matrix: (Units=1/GPa)
#
#
# Indices 1 2 3 4 5 6 
#
# 1 0.016862 -0.004820 -0.002819 0.000000 0.000000 0.000000
# 2 -0.004820 0.016862 -0.002819 0.000000 0.000000 0.000000
# 3 -0.002819 -0.002819 0.022013 0.000000 0.000000 0.000000
# 4 0.000000 0.000000 0.000000 0.072899 0.000000 0.000000
# 5 0.000000 0.000000 0.000000 0.000000 0.072899 0.000000
# 6 0.000000 0.000000 0.000000 0.000000 0.000000 0.043365
#
#
# Mechanical properties :
#
#
# Convention : Reuss Voigt Hill
#
# Bulk Modulus (GPa) = 28.71883 30.02906 29.37395
# Shear Modulus (GPa) = 18.02294 19.36901 18.69597
#
# Velocity S-wave (km/s) = 3.24995 3.36913 3.31008
# Velocity P-wave (km/s) = 5.55998 5.72128 5.64120
#
# Compressibility (1/GPa) = 0.03482036
#
# Stress axis : x y z
#
# Youngs Moduli (GPa) = 59.30453 59.30453 45.42724
#
# Poissons Ratio (x) = 0.28587 0.12806
# Poissons Ratio (y) = 0.28587 0.12806
# Poissons Ratio (z) = 0.16718 0.16718
#
# Static dielectric constant tensor:
#      x y z
#    x 3.470990 0.000000 0.000000 
#    y 0.000000 3.470990 0.000000 
#    z 0.000000 0.000000 2.795090 
# 
# 
# High freq. dielectric constant tensor:
#      x y z
#    x 1.659220 0.000000 0.000000 
#    y 0.000000 1.659220 0.000000 
#    z 0.000000 0.000000 1.610400 
# 
# From -- ./inp_files/8511.got.cif
#   From: 2010.03.12/outbox.cif.g09.slc.cpg/sg193_5_cif.got.tgz:8511.got - 2010.04.01 12:20:39.
