data_PCOD8329608
_publ_section_title
;
Structure prediction by ZEFSAII (Michael W. Deem and Ramdas Pophale) SiO2 
 PCOD8329608
Probable space group: P 6/M C C
;
_chemical_formula_sum "Si O2"
_cell_formula_units_Z 104
_cell_length_a 18.085107
_cell_length_b 18.085107
_cell_length_c 20.471890
_cell_angle_alpha 90.000000
_cell_angle_beta 90.000000
_cell_angle_gamma 120.000000
_cell_volume 5798.701274
_symmetry_space_group_name_H-M "P 6/M C C"
_symmetry_group_IT_number 192
_symmetry_cell_setting 'hexagonal'
loop_
_space_group_symop_operation_xyz
x,y,z
x-y,x,z
-y,x-y,z
-x,-y,z
-x+y,-x,z
y,-x+y,z
x-y,-y,1/2-z
-x,-x+y,1/2-z
y,x,1/2-z
-y,-x,1/2-z
-x+y,y,1/2-z
x,x-y,1/2-z
-x,-y,-z
-x+y,-x,-z
y,-x+y,-z
x,y,-z
x-y,x,-z
-y,x-y,-z
-x+y,y,1/2+z
x,x-y,1/2+z
-y,-x,1/2+z
y,x,1/2+z
x-y,-y,1/2+z
-x,-x+y,1/2+z
loop_
_atom_site_type_symbol
_atom_site_label
_atom_site_fract_x
_atom_site_fract_y
_atom_site_fract_z
Si Si1 0.319689 0.319143 0.000000
Si Si2 0.326151 0.000000 0.750000
Si Si3 0.816732 0.636379 0.500000
Si Si4 0.479758 0.261483 0.378317
Si Si5 0.378752 0.189376 0.250000
Si Si6 0.568314 0.598230 0.376326
Si Si7 0.666667 0.333333 0.421003
O O1 0.225582 0.306907 0.000000
O O2 0.301610 0.222739 0.000000
O O3 0.374591 0.369437 0.062308
O O4 0.318641 0.085976 0.755842
O O5 0.374559 0.991506 0.812276
O O6 0.783564 0.579029 0.436385
O O7 0.441062 0.210589 0.311544
O O8 0.484549 0.352376 0.375806
O O9 0.572760 0.275280 0.391823
O O10 0.500000 0.500000 0.381164
O O11 0.666667 0.333334 0.500000
#
# Coordination Sequence:
#
# PCOD8329608 Si02
#       7
#    12  12  12  24  12  24   8
#     4  10  21  34  58  77 108 136 182 230 270 337
#     4  10  21  38  58  79 110 144 178 230 272 339
#     4  10  20  38  54  83 104 142 183 226 282 332
#     4  10  23  36  54  79 109 144 190 223 279 321
#     4  10  22  40  58  83 110 144 187 228 282 332
#     4  10  21  35  54  79 104 143 182 225 271 319
#     4  12  24  37  56  76 114 157 185 241 270 313
#
# _framework density 17.935051000000001
#
# number of rings (size 3 to 8) (size 9 to 14) (size 15 to 20)
#    0.000    1.846    1.154    2.077    6.462    0.923 
#    0.000    0.000    0.000    0.462    0.000    0.000 
#    0.000   11.077    0.000    0.000    0.000    1.846 
#
# Total GULP energy -1289681.685570 kJ/mol
# GULP energy per Si atom -12400.785438 kJ/mol
# Density = 1.789423 g / cm^3
# Si number density = 17.935051 Si / 1000 Ang^3
#
#
#
# Elastic Constant Matrix: (Units=GPa)
#
#
# Indices 1 2 3 4 5 6 
#
# 1 99.1549 81.9207 40.3681 -0.0001 0.0004 0.0006
# 2 81.9207 99.1534 40.3687 0.0002 -0.0005 -0.0013
# 3 40.3681 40.3687 151.3332 0.0000 0.0000 0.0002
# 4 -0.0001 0.0002 0.0000 0.7441 -0.0009 0.0004
# 5 0.0004 -0.0005 0.0000 -0.0009 0.7463 0.0001
# 6 0.0006 -0.0013 0.0002 0.0004 0.0001 8.6168
#
#
#
# Elastic Compliance Matrix: (Units=1/GPa)
#
#
# Indices 1 2 3 4 5 6 
#
# 1 0.032147 -0.025879 -0.001672 0.000009 -0.000033 -0.000006
# 2 -0.025879 0.032148 -0.001672 -0.000010 0.000034 0.000007
# 3 -0.001672 -0.001672 0.007500 0.000000 0.000000 0.000000
# 4 0.000009 -0.000010 0.000000 1.343958 0.001671 -0.000068
# 5 -0.000033 0.000034 0.000000 0.001671 1.339981 -0.000019
# 6 -0.000006 0.000007 0.000000 -0.000068 -0.000019 0.116053
#
#
# Mechanical properties :
#
#
# Convention : Reuss Voigt Hill
#
# Bulk Modulus (GPa) = 74.91731 74.99518 74.95624
# Shear Modulus (GPa) = 1.70376 14.48702 8.09539
#
# Velocity S-wave (km/s) = 0.97572 2.84518 2.12686
# Velocity P-wave (km/s) = 6.56746 7.25941 6.92208
#
# Compressibility (1/GPa) = 0.01334805
#
# Stress axis : x y z
#
# Youngs Moduli (GPa) = 31.10714 31.10648 133.33386
#
# Poissons Ratio (x) = 0.80501 0.22291
# Poissons Ratio (y) = 0.80503 0.22297
# Poissons Ratio (z) = 0.05201 0.05202
#
# Static dielectric constant tensor:
#      x y z
#    x 3.265800 0.000000 0.000000 
#    y 0.000000 3.265800 0.000000 
#    z 0.000000 0.000000 3.568410 
# 
# 
# High freq. dielectric constant tensor:
#      x y z
#    x 1.683400 0.000000 0.000000 
#    y 0.000000 1.683400 0.000000 
#    z 0.000000 0.000000 1.719800 
# 
# From -- ./inp_files/4929.got.cif
#   From: 2010.03.12/outbox.cif.g09.slc.cpg/sg192_3_cif.got.tgz:4929.got - 2010.04.01 12:16:15.
