data_PCOD8329268
_publ_section_title
;
Structure prediction by ZEFSAII (Michael W. Deem and Ramdas Pophale) SiO2 
 PCOD8329268
Probable space group: P 6/M M M
;
_chemical_formula_sum "Si O2"
_cell_formula_units_Z 96
_cell_length_a 21.455850
_cell_length_b 21.455850
_cell_length_c 14.915243
_cell_angle_alpha 90.000000
_cell_angle_beta 90.000000
_cell_angle_gamma 120.000000
_cell_volume 5946.376639
_symmetry_space_group_name_H-M "P 6/M M M"
_symmetry_group_IT_number 191
_symmetry_cell_setting 'hexagonal'
loop_
_space_group_symop_operation_xyz
x,y,z
x-y,x,z
-y,x-y,z
-x,-y,z
-x+y,-x,z
y,-x+y,z
x-y,-y,-z
-x,-x+y,-z
y,x,-z
-y,-x,-z
-x+y,y,-z
x,x-y,-z
-x,-y,-z
-x+y,-x,-z
y,-x+y,-z
x,y,-z
x-y,x,-z
-y,x-y,-z
-x+y,y,z
x,x-y,z
-y,-x,z
y,x,z
x-y,-y,z
-x,-x+y,z
loop_
_atom_site_type_symbol
_atom_site_label
_atom_site_fract_x
_atom_site_fract_y
_atom_site_fract_z
Si Si1 0.664614 0.188407 0.250320
Si Si2 0.291581 0.213817 0.893541
Si Si3 0.563795 0.917966 0.895974
Si Si4 0.533934 0.614147 0.399553
O O1 0.606856 0.213711 0.272792
O O2 0.742363 0.257638 0.235374
O O3 0.635759 0.139216 0.161427
O O4 0.669611 0.140082 0.330691
O O5 0.278922 0.139461 0.850560
O O6 0.230378 0.230378 0.856782
O O7 0.369549 0.277855 0.866629
O O8 0.287001 0.208532 0.000000
O O9 0.582689 0.000000 0.876836
O O10 0.544311 0.899417 0.000000
O O11 0.545856 0.646437 0.500000
O O12 0.460381 0.539620 0.394429
O O13 0.598883 0.598883 0.374164
#
# Coordination Sequence:
#
# PCOD8329268 Si02
#       4
#    24  24  24  24
#     4  11  22  33  45  63  90 121 147 172 210 267
#     4   8  13  22  37  56  77 101 130 165 205 247
#     4   9  18  32  49  66  81 103 143 194 237 264
#     4   8  15  30  51  70  85 105 139 182 220 249
#
# _framework density 16.144285
#
# number of rings (size 3 to 8) (size 9 to 14) (size 15 to 20)
#    0.000    3.000    0.000    4.000    0.000    4.000 
#    0.000    1.250    0.000    3.250    0.000    1.750 
#    0.000    0.000    0.000    0.000    0.000    0.000 
#
# Total GULP energy -1189703.249976 kJ/mol
# GULP energy per Si atom -12392.742187 kJ/mol
# Density = 1.610754 g / cm^3
# Si number density = 16.144285 Si / 1000 Ang^3
#
#
#
# Elastic Constant Matrix: (Units=GPa)
#
#
# Indices 1 2 3 4 5 6 
#
# 1 67.7493 34.6360 30.5352 0.0000 0.0000 0.0000
# 2 34.6360 67.7493 30.5352 0.0000 0.0000 0.0000
# 3 30.5352 30.5352 75.5702 0.0000 0.0000 0.0000
# 4 0.0000 0.0000 0.0000 16.7860 0.0000 0.0000
# 5 0.0000 0.0000 0.0000 0.0000 16.7860 0.0000
# 6 0.0000 0.0000 0.0000 0.0000 0.0000 16.5567
#
#
#
# Elastic Compliance Matrix: (Units=1/GPa)
#
#
# Indices 1 2 3 4 5 6 
#
# 1 0.021534 -0.008665 -0.005200 0.000000 0.000000 0.000000
# 2 -0.008665 0.021534 -0.005200 0.000000 0.000000 0.000000
# 3 -0.005200 -0.005200 0.017435 0.000000 0.000000 0.000000
# 4 0.000000 0.000000 0.000000 0.059574 0.000000 0.000000
# 5 0.000000 0.000000 0.000000 0.000000 0.059574 0.000000
# 6 0.000000 0.000000 0.000000 0.000000 0.000000 0.060399
#
#
# Mechanical properties :
#
#
# Convention : Reuss Voigt Hill
#
# Bulk Modulus (GPa) = 44.69677 44.72017 44.70847
# Shear Modulus (GPa) = 17.50483 17.71656 17.61070
#
# Velocity S-wave (km/s) = 3.29640 3.31628 3.30636
# Velocity P-wave (km/s) = 6.49879 6.51338 6.50609
#
# Compressibility (1/GPa) = 0.02237298
#
# Stress axis : x y z
#
# Youngs Moduli (GPa) = 46.43839 46.43839 57.35671
#
# Poissons Ratio (x) = 0.40241 0.29824
# Poissons Ratio (y) = 0.40241 0.29824
# Poissons Ratio (z) = 0.24147 0.24147
#
# Static dielectric constant tensor:
#      x y z
#    x 3.114010 0.000000 0.000000 
#    y 0.000000 3.114010 0.000000 
#    z 0.000000 0.000000 2.954530 
# 
# 
# High freq. dielectric constant tensor:
#      x y z
#    x 1.603910 0.000000 0.000000 
#    y 0.000000 1.603910 0.000000 
#    z 0.000000 0.000000 1.597800 
# 
# From -- ./inp_files/4161.got.cif
#   From: 2010.03.12/outbox.cif.g09.slc.cpg/sg191_3_cif.got.tgz:4161.got - 2010.04.01 12:09:02.
