data_PCOD8329962
_publ_section_title
;
Structure prediction by ZEFSAII (Michael W. Deem and Ramdas Pophale) SiO2 
 PCOD8329962
Probable space group: P 63/M C M
;
_chemical_formula_sum "Si O2"
_cell_formula_units_Z 96
_cell_length_a 28.240355
_cell_length_b 28.240355
_cell_length_c 8.633696
_cell_angle_alpha 90.000000
_cell_angle_beta 90.000000
_cell_angle_gamma 120.000000
_cell_volume 5963.039524
_symmetry_space_group_name_H-M "P 63/M C M"
_symmetry_group_IT_number 193
_symmetry_cell_setting 'hexagonal'
loop_
_space_group_symop_operation_xyz
x,y,z
x-y,x,1/2+z
-y,x-y,z
-x,-y,1/2+z
-x+y,-x,z
y,-x+y,1/2+z
x-y,-y,1/2-z
-x,-x+y,1/2-z
y,x,1/2-z
-y,-x,-z
-x+y,y,-z
x,x-y,-z
-x,-y,-z
-x+y,-x,1/2-z
y,-x+y,-z
x,y,1/2-z
x-y,x,-z
-y,x-y,1/2-z
-x+y,y,1/2+z
x,x-y,1/2+z
-y,-x,1/2+z
y,x,z
x-y,-y,z
-x,-x+y,z
loop_
_atom_site_type_symbol
_atom_site_label
_atom_site_fract_x
_atom_site_fract_y
_atom_site_fract_z
Si Si1 0.668342 0.882867 0.931463
Si Si2 0.298275 0.298275 0.934575
Si Si3 0.605221 0.109055 0.433175
Si Si4 0.000000 0.594304 0.934093
Si Si5 0.542108 0.820535 0.566628
O O1 0.674211 0.881634 0.750000
O O2 0.605494 0.858756 0.979922
O O3 0.701831 0.945516 0.993791
O O4 0.692676 0.846338 0.000000
O O5 0.300646 0.300646 0.750000
O O6 0.351969 0.351969 0.998085
O O7 0.562664 0.125328 0.500000
O O8 0.600113 0.103249 0.250000
O O9 0.664407 0.157172 0.481881
O O10 0.593243 0.052445 0.506246
O O11 0.000000 0.593826 0.750000
O O12 0.520257 0.760129 0.500000
O O13 0.533737 0.819363 0.750000
#
# Coordination Sequence:
#
# PCOD8329962 Si02
#       5
#    24  12  24  12  24
#     4   9  17  30  48  70  96 129 165 200 239 283
#     4   9  16  30  50  69  97 136 167 199 244 289
#     4  12  24  37  52  74 100 131 167 206 253 306
#     4  11  20  36  53  71 100 134 168 205 251 303
#     4  10  19  34  54  75  98 125 158 200 245 295
#
# _framework density 16.099171999999999
#
# number of rings (size 3 to 8) (size 9 to 14) (size 15 to 20)
#    0.000    1.750    2.500    3.750    0.000    1.000 
#    0.000    0.625    0.000    0.500    0.000    3.500 
#    0.000    0.000    0.000    0.375    0.000    4.500 
#
# Total GULP energy -1190426.859984 kJ/mol
# GULP energy per Si atom -12400.279791 kJ/mol
# Density = 1.606253 g / cm^3
# Si number density = 16.099172 Si / 1000 Ang^3
#
#
#
# Elastic Constant Matrix: (Units=GPa)
#
#
# Indices 1 2 3 4 5 6 
#
# 1 115.3893 68.9098 33.4251 0.0000 0.0000 0.0000
# 2 68.9098 115.3893 33.4251 0.0000 0.0000 0.0000
# 3 33.4251 33.4251 68.8164 0.0000 0.0000 0.0000
# 4 0.0000 0.0000 0.0000 25.4403 0.0000 0.0000
# 5 0.0000 0.0000 0.0000 0.0000 25.4403 0.0000
# 6 0.0000 0.0000 0.0000 0.0000 0.0000 23.2397
#
#
#
# Elastic Compliance Matrix: (Units=1/GPa)
#
#
# Indices 1 2 3 4 5 6 
#
# 1 0.014051 -0.007464 -0.003199 0.000000 0.000000 0.000000
# 2 -0.007464 0.014051 -0.003199 0.000000 0.000000 0.000000
# 3 -0.003199 -0.003199 0.017639 0.000000 0.000000 0.000000
# 4 0.000000 0.000000 0.000000 0.039308 0.000000 0.000000
# 5 0.000000 0.000000 0.000000 0.000000 0.039308 0.000000
# 6 0.000000 0.000000 0.000000 0.000000 0.000000 0.043030
#
#
# Mechanical properties :
#
#
# Convention : Reuss Voigt Hill
#
# Bulk Modulus (GPa) = 55.50782 63.45720 59.48251
# Shear Modulus (GPa) = 24.86134 25.74641 25.30388
#
# Velocity S-wave (km/s) = 3.93397 4.00339 3.96883
# Velocity P-wave (km/s) = 7.42889 7.80202 7.61774
#
# Compressibility (1/GPa) = 0.01801548
#
# Stress axis : x y z
#
# Youngs Moduli (GPa) = 71.17129 71.17129 56.69223
#
# Poissons Ratio (x) = 0.53124 0.18136
# Poissons Ratio (y) = 0.53124 0.18136
# Poissons Ratio (z) = 0.22768 0.22768
#
# Static dielectric constant tensor:
#      x y z
#    x 3.145270 0.000000 0.000000 
#    y 0.000000 3.145270 0.000000 
#    z 0.000000 0.000000 3.047620 
# 
# 
# High freq. dielectric constant tensor:
#      x y z
#    x 1.604960 0.000000 0.000000 
#    y 0.000000 1.604960 0.000000 
#    z 0.000000 0.000000 1.621900 
# 
# From -- ./inp_files/1244.got.cif
#   From: 2010.03.12/outbox.cif.g09.slc.cpg/sg193_1_cif.got.tgz:1244.got - 2010.04.01 12:20:39.
