data_PCOD8329984
_publ_section_title
;
Structure prediction by ZEFSAII (Michael W. Deem and Ramdas Pophale) SiO2 
 PCOD8329984
Probable space group: P 63/M C M
;
_chemical_formula_sum "Si O2"
_cell_formula_units_Z 72
_cell_length_a 21.042486
_cell_length_b 21.042486
_cell_length_c 9.949262
_cell_angle_alpha 90.000000
_cell_angle_beta 90.000000
_cell_angle_gamma 120.000000
_cell_volume 3815.184922
_symmetry_space_group_name_H-M "P 63/M C M"
_symmetry_group_IT_number 193
_symmetry_cell_setting 'hexagonal'
loop_
_space_group_symop_operation_xyz
x,y,z
x-y,x,1/2+z
-y,x-y,z
-x,-y,1/2+z
-x+y,-x,z
y,-x+y,1/2+z
x-y,-y,1/2-z
-x,-x+y,1/2-z
y,x,1/2-z
-y,-x,-z
-x+y,y,-z
x,x-y,-z
-x,-y,-z
-x+y,-x,1/2-z
y,-x+y,-z
x,y,1/2-z
x-y,x,-z
-y,x-y,1/2-z
-x+y,y,1/2+z
x,x-y,1/2+z
-y,-x,1/2+z
y,x,z
x-y,-y,z
-x,-x+y,z
loop_
_atom_site_type_symbol
_atom_site_label
_atom_site_fract_x
_atom_site_fract_y
_atom_site_fract_z
Si Si1 0.000000 0.127893 0.912889
Si Si2 0.335023 0.519737 0.250000
Si Si3 0.513437 0.332050 0.750000
Si Si4 0.000000 0.721280 0.406202
Si Si5 0.136777 0.423114 0.995909
O O1 0.000000 0.203393 0.921199
O O2 0.000000 0.107851 0.750000
O O3 0.931416 0.068585 0.000000
O O4 0.264137 0.529214 0.250000
O O5 0.407031 0.597762 0.250000
O O6 0.335841 0.474057 0.123560
O O7 0.464766 0.331699 0.626741
O O8 0.069276 0.727431 0.483203
O O9 0.000000 0.701599 0.250000
O O10 0.207079 0.414157 0.000000
#
# Coordination Sequence:
#
# PCOD8329984 Si02
#       5
#    12  12  12  12  24
#     4  11  24  44  69 100 132 164 204 251 306 359
#     4  10  19  37  59  83 120 154 198 247 313 359
#     4  10  21  35  59  89 116 154 200 257 301 365
#     4  11  22  41  64  86 120 168 205 240 297 360
#     4  10  21  38  58  85 118 155 200 248 298 353
#
# _framework density 18.871956000000001
#
# number of rings (size 3 to 8) (size 9 to 14) (size 15 to 20)
#    0.000    1.667    1.667    3.000    0.000    0.667 
#    6.000    8.333    0.000    0.000    0.000    0.000 
#    0.000    0.000    0.000    0.000    0.000    0.000 
#
# Total GULP energy -892416.122458 kJ/mol
# GULP energy per Si atom -12394.668367 kJ/mol
# Density = 1.882900 g / cm^3
# Si number density = 18.871956 Si / 1000 Ang^3
#
#
#
# Elastic Constant Matrix: (Units=GPa)
#
#
# Indices 1 2 3 4 5 6 
#
# 1 94.1868 45.8477 59.1672 0.0000 0.0000 0.0000
# 2 45.8477 94.1868 59.1672 0.0000 0.0000 0.0000
# 3 59.1672 59.1672 174.0920 0.0000 0.0000 0.0000
# 4 0.0000 0.0000 0.0000 45.1280 0.0000 0.0000
# 5 0.0000 0.0000 0.0000 0.0000 45.1280 0.0000
# 6 0.0000 0.0000 0.0000 0.0000 0.0000 24.1696
#
#
#
# Elastic Compliance Matrix: (Units=1/GPa)
#
#
# Indices 1 2 3 4 5 6 
#
# 1 0.015353 -0.005334 -0.003405 0.000000 0.000000 0.000000
# 2 -0.005334 0.015353 -0.003405 0.000000 0.000000 0.000000
# 3 -0.003405 -0.003405 0.008058 0.000000 0.000000 0.000000
# 4 0.000000 0.000000 0.000000 0.022159 0.000000 0.000000
# 5 0.000000 0.000000 0.000000 0.000000 0.022159 0.000000
# 6 0.000000 0.000000 0.000000 0.000000 0.000000 0.041374
#
#
# Mechanical properties :
#
#
# Convention : Reuss Voigt Hill
#
# Bulk Modulus (GPa) = 69.08126 76.75886 72.92006
# Shear Modulus (GPa) = 32.55843 36.10402 34.33122
#
# Velocity S-wave (km/s) = 4.15809 4.37865 4.26980
# Velocity P-wave (km/s) = 7.72902 8.14403 7.93924
#
# Compressibility (1/GPa) = 0.01447571
#
# Stress axis : x y z
#
# Youngs Moduli (GPa) = 65.13496 65.13496 124.09354
#
# Poissons Ratio (x) = 0.34746 0.42252
# Poissons Ratio (y) = 0.34746 0.42252
# Poissons Ratio (z) = 0.22177 0.22177
#
# Static dielectric constant tensor:
#      x y z
#    x 3.411400 0.000000 0.000000 
#    y 0.000000 3.411400 0.000000 
#    z 0.000000 0.000000 4.004950 
# 
# 
# High freq. dielectric constant tensor:
#      x y z
#    x 1.735120 0.000000 0.000000 
#    y 0.000000 1.735120 0.000000 
#    z 0.000000 0.000000 1.751760 
# 
# From -- ./inp_files/869.got.cif
#   From: 2010.03.12/outbox.cif.g09.slc.cpg/sg193_1_cif.got.tgz:869.got - 2010.04.01 12:20:39.
