data_PCOD8329918
_publ_section_title
;
Structure prediction by ZEFSAII (Michael W. Deem and Ramdas Pophale) SiO2 
 PCOD8329918
Probable space group: P 63/M C M
;
_chemical_formula_sum "Si O2"
_cell_formula_units_Z 120
_cell_length_a 21.326556
_cell_length_b 21.326556
_cell_length_c 16.406403
_cell_angle_alpha 90.000000
_cell_angle_beta 90.000000
_cell_angle_gamma 120.000000
_cell_volume 6462.275392
_symmetry_space_group_name_H-M "P 63/M C M"
_symmetry_group_IT_number 193
_symmetry_cell_setting 'hexagonal'
loop_
_space_group_symop_operation_xyz
x,y,z
x-y,x,1/2+z
-y,x-y,z
-x,-y,1/2+z
-x+y,-x,z
y,-x+y,1/2+z
x-y,-y,1/2-z
-x,-x+y,1/2-z
y,x,1/2-z
-y,-x,-z
-x+y,y,-z
x,x-y,-z
-x,-y,-z
-x+y,-x,1/2-z
y,-x+y,-z
x,y,1/2-z
x-y,x,-z
-y,x-y,1/2-z
-x+y,y,1/2+z
x,x-y,1/2+z
-y,-x,1/2+z
y,x,z
x-y,-y,z
-x,-x+y,z
loop_
_atom_site_type_symbol
_atom_site_label
_atom_site_fract_x
_atom_site_fract_y
_atom_site_fract_z
Si Si1 0.915668 0.275992 0.560475
Si Si2 0.474324 0.560919 0.250000
Si Si3 0.681572 0.809732 0.392811
Si Si4 0.083272 0.384645 0.250000
Si Si5 0.494892 0.580166 0.578170
Si Si6 0.837412 0.918929 0.344251
O O1 0.864526 0.213633 0.623947
O O2 0.894421 0.234646 0.475553
O O3 0.894064 0.337552 0.563717
O O4 0.000000 0.308337 0.581651
O O5 0.514469 0.514469 0.250000
O O6 0.528298 0.648012 0.250000
O O7 0.426657 0.542790 0.333457
O O8 0.646244 0.747931 0.327495
O O9 0.768333 0.857992 0.392031
O O10 0.000000 0.358812 0.250000
O O11 0.440932 0.559069 0.500000
O O12 0.526796 0.526796 0.579079
O O13 0.815424 0.913802 0.250000
O O14 0.902935 0.902935 0.355862
O O15 0.864466 0.000000 0.377875
#
# Coordination Sequence:
#
# PCOD8329918 Si02
#       6
#    24  12  24  12  24  24
#     4  10  21  35  51  74 110 146 176 221 278 340
#     4   9  18  31  52  79 105 131 165 205 259 326
#     4  11  21  33  51  76 108 144 186 231 291 350
#     4  11  20  33  53  77 105 137 177 227 275 332
#     4   9  17  32  53  78 107 135 167 206 260 325
#     4  10  19  32  49  70  98 140 200 260 309 351
#
# _framework density 18.569310000000002
#
# number of rings (size 3 to 8) (size 9 to 14) (size 15 to 20)
#    0.000    2.000    1.000    3.800    0.000    4.800 
#    0.000    1.000    0.000    0.000    0.000    7.000 
#   70.000    0.000    0.000    0.000    0.000    0.000 
#
# Total GULP energy -1487183.830336 kJ/mol
# GULP energy per Si atom -12393.198586 kJ/mol
# Density = 1.852705 g / cm^3
# Si number density = 18.569310 Si / 1000 Ang^3
#
#
#
# Elastic Constant Matrix: (Units=GPa)
#
#
# Indices 1 2 3 4 5 6 
#
# 1 99.7065 42.8047 34.6323 0.0000 0.0000 0.0000
# 2 42.8047 99.7065 34.6323 0.0000 0.0000 0.0000
# 3 34.6323 34.6323 92.2631 0.0000 0.0000 0.0000
# 4 0.0000 0.0000 0.0000 49.0038 0.0000 0.0000
# 5 0.0000 0.0000 0.0000 0.0000 49.0038 0.0000
# 6 0.0000 0.0000 0.0000 0.0000 0.0000 28.4509
#
#
#
# Elastic Compliance Matrix: (Units=1/GPa)
#
#
# Indices 1 2 3 4 5 6 
#
# 1 0.013078 -0.004496 -0.003222 0.000000 0.000000 0.000000
# 2 -0.004496 0.013078 -0.003222 0.000000 0.000000 0.000000
# 3 -0.003222 -0.003222 0.013257 0.000000 0.000000 0.000000
# 4 0.000000 0.000000 0.000000 0.020407 0.000000 0.000000
# 5 0.000000 0.000000 0.000000 0.000000 0.020407 0.000000
# 6 0.000000 0.000000 0.000000 0.000000 0.000000 0.035148
#
#
# Mechanical properties :
#
#
# Convention : Reuss Voigt Hill
#
# Bulk Modulus (GPa) = 57.02527 57.31274 57.16901
# Shear Modulus (GPa) = 34.94086 37.26550 36.10318
#
# Velocity S-wave (km/s) = 4.34250 4.48463 4.41414
# Velocity P-wave (km/s) = 7.47791 7.59915 7.53877
#
# Compressibility (1/GPa) = 0.01753608
#
# Stress axis : x y z
#
# Youngs Moduli (GPa) = 76.46153 76.46153 75.43077
#
# Poissons Ratio (x) = 0.34374 0.24301
# Poissons Ratio (y) = 0.34374 0.24301
# Poissons Ratio (z) = 0.24634 0.24634
#
# Static dielectric constant tensor:
#      x y z
#    x 3.488420 0.000000 0.000000 
#    y 0.000000 3.488420 0.000000 
#    z 0.000000 0.000000 3.511400 
# 
# 
# High freq. dielectric constant tensor:
#      x y z
#    x 1.706920 0.000000 0.000000 
#    y 0.000000 1.706920 0.000000 
#    z 0.000000 0.000000 1.724350 
# 
# From -- ./inp_files/5363.got.cif
#   From: 2010.03.12/outbox.cif.g09.slc.cpg/sg193_3_cif.got.tgz:5363.got - 2010.04.01 12:20:39.
