data_PCOD8329687
_publ_section_title
;
Structure prediction by ZEFSAII (Michael W. Deem and Ramdas Pophale) SiO2 
 PCOD8329687
Probable space group: P 6/M C C
;
_chemical_formula_sum "Si O2"
_cell_formula_units_Z 136
_cell_length_a 16.134013
_cell_length_b 16.134013
_cell_length_c 31.430296
_cell_angle_alpha 90.000000
_cell_angle_beta 90.000000
_cell_angle_gamma 120.000000
_cell_volume 7085.392411
_symmetry_space_group_name_H-M "P 6/M C C"
_symmetry_group_IT_number 192
_symmetry_cell_setting 'hexagonal'
loop_
_space_group_symop_operation_xyz
x,y,z
x-y,x,z
-y,x-y,z
-x,-y,z
-x+y,-x,z
y,-x+y,z
x-y,-y,1/2-z
-x,-x+y,1/2-z
y,x,1/2-z
-y,-x,1/2-z
-x+y,y,1/2-z
x,x-y,1/2-z
-x,-y,-z
-x+y,-x,-z
y,-x+y,-z
x,y,-z
x-y,x,-z
-y,x-y,-z
-x+y,y,1/2+z
x,x-y,1/2+z
-y,-x,1/2+z
y,x,1/2+z
x-y,-y,1/2+z
-x,-x+y,1/2+z
loop_
_atom_site_type_symbol
_atom_site_label
_atom_site_fract_x
_atom_site_fract_y
_atom_site_fract_z
Si Si1 0.333334 0.666667 0.058116
Si Si2 0.645850 0.535596 0.743702
Si Si3 0.784534 0.547625 0.319991
Si Si4 0.333334 0.666667 0.657308
Si Si5 0.134448 0.748373 0.089694
Si Si6 0.553837 0.126027 0.046220
Si Si7 0.361361 0.060723 0.450047
O O1 0.333334 0.666667 0.107710
O O2 0.416149 0.647170 0.041074
O O3 0.581085 0.581085 0.750000
O O4 0.579345 0.420656 0.750000
O O5 0.694989 0.558808 0.696672
O O6 0.724360 0.580991 0.780669
O O7 0.747949 0.436950 0.327977
O O8 0.838361 0.613484 0.360804
O O9 0.137583 0.651828 0.079836
O O10 0.209616 0.839358 0.062834
O O11 0.026421 0.723150 0.077149
O O12 0.597430 0.057747 0.059876
O O13 0.502352 0.092798 0.000000
O O14 0.337455 0.045232 0.500000
#
# Coordination Sequence:
#
# PCOD8329687 Si02
#       7
#     8  24  24   8  24  24  24
#     4  12  19  31  52  85 115 167 196 244 277 337
#     4  10  22  39  59  83 114 155 199 246 300 361
#     4  11  23  37  59  81 115 155 199 247 295 358
#     4  12  18  35  53  81 112 155 205 237 287 350
#     4  12  25  39  60  88 119 156 203 259 306 358
#     4  11  20  35  56  81 120 166 205 237 285 350
#     4  11  24  41  61  86 123 164 206 250 307 365
#
# _framework density 19.194420999999998
#
# number of rings (size 3 to 8) (size 9 to 14) (size 15 to 20)
#    0.000    0.882    5.294    2.647    2.471    1.412 
#    3.176    0.000    0.000    0.353    0.000    1.235 
#    0.000    0.000    0.000    7.235    0.000    0.000 
#
# Total GULP energy -1685311.032452 kJ/mol
# GULP energy per Si atom -12391.992886 kJ/mol
# Density = 1.915073 g / cm^3
# Si number density = 19.194421 Si / 1000 Ang^3
#
#
#
# Elastic Constant Matrix: (Units=GPa)
#
#
# Indices 1 2 3 4 5 6 
#
# 1 79.0364 29.2965 43.7151 0.0000 0.0000 -0.0001
# 2 29.2965 79.0366 43.7152 0.0000 0.0000 0.0001
# 3 43.7151 43.7152 134.7428 0.0000 0.0000 0.0000
# 4 0.0000 0.0000 0.0000 24.8856 0.0000 0.0000
# 5 0.0000 0.0000 0.0000 0.0000 24.8857 0.0000
# 6 -0.0001 0.0001 0.0000 0.0000 0.0000 24.8703
#
#
#
# Elastic Compliance Matrix: (Units=1/GPa)
#
#
# Indices 1 2 3 4 5 6 
#
# 1 0.016305 -0.003800 -0.004057 0.000000 0.000000 0.000000
# 2 -0.003800 0.016305 -0.004057 0.000000 0.000000 0.000000
# 3 -0.004057 -0.004057 0.010054 0.000000 0.000000 0.000000
# 4 0.000000 0.000000 0.000000 0.040184 0.000000 0.000000
# 5 0.000000 0.000000 0.000000 0.000000 0.040184 0.000000
# 6 0.000000 0.000000 0.000000 0.000000 0.000000 0.040209
#
#
# Mechanical properties :
#
#
# Convention : Reuss Voigt Hill
#
# Bulk Modulus (GPa) = 53.09012 58.47438 55.78225
# Shear Modulus (GPa) = 25.86033 26.66758 26.26396
#
# Velocity S-wave (km/s) = 3.67452 3.73143 3.70308
# Velocity P-wave (km/s) = 6.76180 7.00679 6.88539
#
# Compressibility (1/GPa) = 0.01883590
#
# Stress axis : x y z
#
# Youngs Moduli (GPa) = 61.33156 61.33164 99.46247
#
# Poissons Ratio (x) = 0.23305 0.40352
# Poissons Ratio (y) = 0.23304 0.40353
# Poissons Ratio (z) = 0.24883 0.24883
#
# Static dielectric constant tensor:
#      x y z
#    x 3.349690 0.000000 0.000000 
#    y 0.000000 3.349670 0.000000 
#    z 0.000000 0.000000 3.626010 
# 
# 
# High freq. dielectric constant tensor:
#      x y z
#    x 1.728780 0.000000 0.000000 
#    y 0.000000 1.728780 0.000000 
#    z 0.000000 0.000000 1.753000 
# 
# From -- ./inp_files/6543.got.cif
#   From: 2010.03.12/outbox.cif.g09.slc.cpg/sg192_4_cif.got.tgz:6543.got - 2010.04.01 12:16:15.
