data_PCOD8329713
_publ_section_title
;
Structure prediction by ZEFSAII (Michael W. Deem and Ramdas Pophale) SiO2 
 PCOD8329713
Probable space group: P 6/M C C
;
_chemical_formula_sum "Si O2"
_cell_formula_units_Z 104
_cell_length_a 18.491786
_cell_length_b 18.491786
_cell_length_c 16.152646
_cell_angle_alpha 90.000000
_cell_angle_beta 90.000000
_cell_angle_gamma 120.000000
_cell_volume 4783.348513
_symmetry_space_group_name_H-M "P 6/M C C"
_symmetry_group_IT_number 192
_symmetry_cell_setting 'hexagonal'
loop_
_space_group_symop_operation_xyz
x,y,z
x-y,x,z
-y,x-y,z
-x,-y,z
-x+y,-x,z
y,-x+y,z
x-y,-y,1/2-z
-x,-x+y,1/2-z
y,x,1/2-z
-y,-x,1/2-z
-x+y,y,1/2-z
x,x-y,1/2-z
-x,-y,-z
-x+y,-x,-z
y,-x+y,-z
x,y,-z
x-y,x,-z
-y,x-y,-z
-x+y,y,1/2+z
x,x-y,1/2+z
-y,-x,1/2+z
y,x,1/2+z
x-y,-y,1/2+z
-x,-x+y,1/2+z
loop_
_atom_site_type_symbol
_atom_site_label
_atom_site_fract_x
_atom_site_fract_y
_atom_site_fract_z
Si Si1 0.082529 0.494854 0.408140
Si Si2 0.723845 0.682608 0.094776
Si Si3 0.189523 0.676415 0.402974
Si Si4 0.866115 0.199726 0.659841
Si Si5 0.666668 0.333334 0.652133
O O1 0.116027 0.492726 0.500000
O O2 0.066080 0.408522 0.364733
O O3 0.148064 0.582185 0.364670
O O4 0.000000 0.500000 0.412911
O O5 0.815780 0.693326 0.097119
O O6 0.722917 0.757372 0.145578
O O7 0.698618 0.687028 0.000000
O O8 0.168847 0.676307 0.500000
O O9 0.157113 0.728599 0.353140
O O10 0.287621 0.715244 0.384897
O O11 0.840232 0.159769 0.750000
O O12 0.666668 0.333334 0.750000
#
# Coordination Sequence:
#
# PCOD8329713 Si02
#       5
#    24  24  24  24   8
#     4   9  17  33  60  90 117 150 205 264 304 353
#     4  11  22  41  67  94 123 168 221 267 318 392
#     4  11  21  38  62  88 120 167 216 261 310 386
#     4  12  25  41  62  92 132 164 207 267 336 381
#     4  12  25  38  52  81 124 161 208 267 328 371
#
# _framework density 21.742090999999999
#
# number of rings (size 3 to 8) (size 9 to 14) (size 15 to 20)
#    0.000    1.154    2.308    5.538    0.000    1.846 
#    0.000    0.000    0.000    0.462    0.000    3.231 
#    0.000    0.000    0.000    0.000    0.000    0.000 
#
# Total GULP energy -1289091.362803 kJ/mol
# GULP energy per Si atom -12395.109258 kJ/mol
# Density = 2.169261 g / cm^3
# Si number density = 21.742091 Si / 1000 Ang^3
#
#
#
# Elastic Constant Matrix: (Units=GPa)
#
#
# Indices 1 2 3 4 5 6 
#
# 1 124.7766 56.4454 20.6577 0.0000 0.0000 0.0004
# 2 56.4454 124.7777 20.6574 -0.0001 0.0000 -0.0001
# 3 20.6577 20.6574 68.7263 0.0000 0.0000 -0.0001
# 4 0.0000 -0.0001 0.0000 27.8197 0.0000 0.0000
# 5 0.0000 0.0000 0.0000 0.0000 27.8196 0.0000
# 6 0.0004 -0.0001 -0.0001 0.0000 0.0000 34.1651
#
#
#
# Elastic Compliance Matrix: (Units=1/GPa)
#
#
# Indices 1 2 3 4 5 6 
#
# 1 0.010279 -0.004355 -0.001781 0.000000 0.000000 0.000000
# 2 -0.004355 0.010279 -0.001781 0.000000 0.000000 0.000000
# 3 -0.001781 -0.001781 0.015621 0.000000 0.000000 0.000000
# 4 0.000000 0.000000 0.000000 0.035946 0.000000 0.000000
# 5 0.000000 0.000000 0.000000 0.000000 0.035946 0.000000
# 6 0.000000 0.000000 0.000000 0.000000 0.000000 0.029270
#
#
# Mechanical properties :
#
#
# Convention : Reuss Voigt Hill
#
# Bulk Modulus (GPa) = 49.14864 57.08909 53.11887
# Shear Modulus (GPa) = 31.25865 32.66223 31.96044
#
# Velocity S-wave (km/s) = 3.79582 3.88010 3.83819
# Velocity P-wave (km/s) = 6.47034 6.81087 6.64279
#
# Compressibility (1/GPa) = 0.02034644
#
# Stress axis : x y z
#
# Youngs Moduli (GPa) = 97.28280 97.28385 64.01678
#
# Poissons Ratio (x) = 0.42369 0.11399
# Poissons Ratio (y) = 0.42369 0.11399
# Poissons Ratio (z) = 0.17323 0.17322
#
# Static dielectric constant tensor:
#      x y z
#    x 4.101400 0.000000 0.000000 
#    y 0.000000 4.101400 0.000000 
#    z 0.000000 0.000000 3.647010 
# 
# 
# High freq. dielectric constant tensor:
#      x y z
#    x 1.852500 0.000000 0.000000 
#    y 0.000000 1.852500 0.000000 
#    z 0.000000 0.000000 1.825160 
# 
# From -- ./inp_files/2867.got.cif
#   From: 2010.03.12/outbox.cif.g09.slc.cpg/sg192_2_cif.got.tgz:2867.got - 2010.04.01 12:16:15.
