data_PCOD8329743
_publ_section_title
;
Structure prediction by ZEFSAII (Michael W. Deem and Ramdas Pophale) SiO2 
 PCOD8329743
Probable space group: P 6/M C C
;
_chemical_formula_sum "Si O2"
_cell_formula_units_Z 144
_cell_length_a 23.318211
_cell_length_b 23.318211
_cell_length_c 19.636335
_cell_angle_alpha 90.000000
_cell_angle_beta 90.000000
_cell_angle_gamma 120.000000
_cell_volume 9246.588271
_symmetry_space_group_name_H-M "P 6/M C C"
_symmetry_group_IT_number 192
_symmetry_cell_setting 'hexagonal'
loop_
_space_group_symop_operation_xyz
x,y,z
x-y,x,z
-y,x-y,z
-x,-y,z
-x+y,-x,z
y,-x+y,z
x-y,-y,1/2-z
-x,-x+y,1/2-z
y,x,1/2-z
-y,-x,1/2-z
-x+y,y,1/2-z
x,x-y,1/2-z
-x,-y,-z
-x+y,-x,-z
y,-x+y,-z
x,y,-z
x-y,x,-z
-y,x-y,-z
-x+y,y,1/2+z
x,x-y,1/2+z
-y,-x,1/2+z
y,x,1/2+z
x-y,-y,1/2+z
-x,-x+y,1/2+z
loop_
_atom_site_type_symbol
_atom_site_label
_atom_site_fract_x
_atom_site_fract_y
_atom_site_fract_z
Si Si1 0.871131 0.265100 0.575695
Si Si2 0.926462 0.723540 0.671716
Si Si3 0.393969 0.265100 0.575695
Si Si4 0.723540 0.797078 0.828284
Si Si5 0.333618 0.794644 0.418965
Si Si6 0.794644 0.333618 0.581035
O O1 0.903363 0.281664 0.500000
O O2 0.801876 0.198124 0.572447
O O3 0.919771 0.257464 0.627720
O O4 0.855665 0.322144 0.601716
O O5 0.919771 0.662307 0.627720
O O6 0.916335 0.700769 0.750000
O O7 0.872256 0.744512 0.650157
O O8 0.000000 0.786120 0.659628
O O9 0.378301 0.281664 0.500000
O O10 0.466479 0.322144 0.601716
O O11 0.332613 0.789954 0.500000
O O12 0.275018 0.724982 0.389427
O O13 0.403928 0.807856 0.389465
O O14 0.789954 0.332613 0.500000
#
# Coordination Sequence:
#
# PCOD8329743 Si02
#       6
#    24  24  24  24  24  24
#     4   8  14  24  38  58  82 105 131 164 197 226
#     4   9  17  29  45  63  81 101 125 153 186 226
#     4   8  14  24  38  58  82 105 131 164 197 226
#     4   9  17  29  45  63  81 101 125 153 186 226
#     4   8  12  18  31  53  80 107 134 166 204 241
#     4   8  12  18  31  53  80 107 134 166 204 241
#
# _framework density 15.573312
#
# number of rings (size 3 to 8) (size 9 to 14) (size 15 to 20)
#    0.000    3.667    0.000    2.333    0.000    2.000 
#    0.000    0.000    0.000    2.333    0.000    9.333 
#    0.000    2.667    0.000    8.333    0.000    8.667 
#
# Total GULP energy -1784000.802410 kJ/mol
# GULP energy per Si atom -12388.894461 kJ/mol
# Density = 1.553787 g / cm^3
# Si number density = 15.573312 Si / 1000 Ang^3
#
#
#
# Elastic Constant Matrix: (Units=GPa)
#
#
# Indices 1 2 3 4 5 6 
#
# 1 90.5677 51.5932 32.1635 0.0000 0.0000 0.0000
# 2 51.5932 90.5677 32.1635 0.0000 0.0000 0.0000
# 3 32.1635 32.1635 40.4685 0.0000 0.0000 0.0000
# 4 0.0000 0.0000 0.0000 14.7911 0.0000 0.0000
# 5 0.0000 0.0000 0.0000 0.0000 14.7911 0.0000
# 6 0.0000 0.0000 0.0000 0.0000 0.0000 19.4872
#
#
#
# Elastic Compliance Matrix: (Units=1/GPa)
#
#
# Indices 1 2 3 4 5 6 
#
# 1 0.018321 -0.007337 -0.008730 0.000000 0.000000 0.000000
# 2 -0.007337 0.018321 -0.008730 0.000000 0.000000 0.000000
# 3 -0.008730 -0.008730 0.038588 0.000000 0.000000 0.000000
# 4 0.000000 0.000000 0.000000 0.067608 0.000000 0.000000
# 5 0.000000 0.000000 0.000000 0.000000 0.067608 0.000000
# 6 0.000000 0.000000 0.000000 0.000000 0.000000 0.051316
#
#
# Mechanical properties :
#
#
# Convention : Reuss Voigt Hill
#
# Bulk Modulus (GPa) = 39.00785 50.38267 44.69526
# Shear Modulus (GPa) = 15.62975 16.85948 16.24462
#
# Velocity S-wave (km/s) = 3.17144 3.29384 3.23322
# Velocity P-wave (km/s) = 6.20588 6.84748 6.53456
#
# Compressibility (1/GPa) = 0.02563586
#
# Stress axis : x y z
#
# Youngs Moduli (GPa) = 54.58130 54.58130 25.91468
#
# Poissons Ratio (x) = 0.40044 0.22625
# Poissons Ratio (y) = 0.40044 0.22625
# Poissons Ratio (z) = 0.47652 0.47652
#
# Static dielectric constant tensor:
#      x y z
#    x 3.062400 0.000000 0.000000 
#    y 0.000000 3.062400 0.000000 
#    z 0.000000 0.000000 2.833250 
# 
# 
# High freq. dielectric constant tensor:
#      x y z
#    x 1.580940 0.000000 0.000000 
#    y 0.000000 1.580940 0.000000 
#    z 0.000000 0.000000 1.562980 
# 
# From -- ./inp_files/4309.got.cif
#   From: 2010.03.12/outbox.cif.g09.slc.cpg/sg192_3_cif.got.tgz:4309.got - 2010.04.01 12:16:15.
