data_PCOD8329243
_publ_section_title
;
Structure prediction by ZEFSAII (Michael W. Deem and Ramdas Pophale) SiO2 
 PCOD8329243
Probable space group: P 6/M M M
;
_chemical_formula_sum "Si O2"
_cell_formula_units_Z 144
_cell_length_a 31.084562
_cell_length_b 31.084562
_cell_length_c 8.955380
_cell_angle_alpha 90.000000
_cell_angle_beta 90.000000
_cell_angle_gamma 120.000000
_cell_volume 7493.835493
_symmetry_space_group_name_H-M "P 6/M M M"
_symmetry_group_IT_number 191
_symmetry_cell_setting 'hexagonal'
loop_
_space_group_symop_operation_xyz
x,y,z
x-y,x,z
-y,x-y,z
-x,-y,z
-x+y,-x,z
y,-x+y,z
x-y,-y,-z
-x,-x+y,-z
y,x,-z
-y,-x,-z
-x+y,y,-z
x,x-y,-z
-x,-y,-z
-x+y,-x,-z
y,-x+y,-z
x,y,-z
x-y,x,-z
-y,x-y,-z
-x+y,y,z
x,x-y,z
-y,-x,z
y,x,z
x-y,-y,z
-x,-x+y,z
loop_
_atom_site_type_symbol
_atom_site_label
_atom_site_fract_x
_atom_site_fract_y
_atom_site_fract_z
Si Si1 0.235010 0.666796 0.172144
Si Si2 0.054091 0.851359 0.322246
Si Si3 0.244409 0.853788 0.174125
Si Si4 0.853403 0.520193 0.323854
Si Si5 0.943128 0.244751 0.326948
Si Si6 0.056865 0.478904 0.173396
O O1 0.250531 0.625266 0.195439
O O2 0.280892 0.719109 0.225020
O O3 0.186850 0.652174 0.271196
O O4 0.221722 0.669411 0.000000
O O5 0.054655 0.853025 0.500000
O O6 0.096348 0.903653 0.254271
O O7 0.064192 0.807758 0.271033
O O8 0.000000 0.839738 0.263586
O O9 0.187432 0.812569 0.209414
O O10 0.279677 0.837827 0.256971
O O11 0.256714 0.907696 0.229489
O O12 0.256010 0.856957 0.000000
O O13 0.853514 0.523455 0.500000
O O14 0.908189 0.534028 0.270932
O O15 0.928318 0.241867 0.500000
O O16 0.000000 0.287752 0.301765
O O17 0.066616 0.533308 0.216138
O O18 0.000000 0.438029 0.208745
O O19 0.068830 0.477362 0.000000
#
# Coordination Sequence:
#
# PCOD8329243 Si02
#       6
#    24  24  24  24  24  24
#     4  10  21  39  63  88 114 145 182 223 267 317
#     4   8  13  22  39  64  93 126 165 209 256 305
#     4  11  24  40  57  77 104 142 184 222 265 318
#     4  12  25  38  56  83 114 148 183 221 268 318
#     4   9  18  33  54  79 104 132 170 217 269 323
#     4   9  19  38  63  87 111 143 183 225 270 319
#
# _framework density 19.215793999999999
#
# number of rings (size 3 to 8) (size 9 to 14) (size 15 to 20)
#    0.000    2.167    0.000    5.167    0.000    9.000 
#    0.000    0.833    0.000    1.167    0.000    1.167 
#    0.000    0.000    0.000    0.000    0.000    0.000 
#
# Total GULP energy -1785890.160884 kJ/mol
# GULP energy per Si atom -12402.015006 kJ/mol
# Density = 1.917206 g / cm^3
# Si number density = 19.215794 Si / 1000 Ang^3
#
#
#
# Elastic Constant Matrix: (Units=GPa)
#
#
# Indices 1 2 3 4 5 6 
#
# 1 99.7464 35.6194 44.1187 0.0000 0.0000 0.0000
# 2 35.6194 99.7464 44.1187 0.0000 0.0000 0.0000
# 3 44.1187 44.1187 92.5841 0.0000 0.0000 0.0000
# 4 0.0000 0.0000 0.0000 22.2900 0.0000 0.0000
# 5 0.0000 0.0000 0.0000 0.0000 22.2900 0.0000
# 6 0.0000 0.0000 0.0000 0.0000 0.0000 32.0635
#
#
#
# Elastic Compliance Matrix: (Units=1/GPa)
#
#
# Indices 1 2 3 4 5 6 
#
# 1 0.013155 -0.002439 -0.005106 0.000000 0.000000 0.000000
# 2 -0.002439 0.013155 -0.005106 0.000000 0.000000 0.000000
# 3 -0.005106 -0.005106 0.015668 0.000000 0.000000 0.000000
# 4 0.000000 0.000000 0.000000 0.044863 0.000000 0.000000
# 5 0.000000 0.000000 0.000000 0.000000 0.044863 0.000000
# 6 0.000000 0.000000 0.000000 0.000000 0.000000 0.031188
#
#
# Mechanical properties :
#
#
# Convention : Reuss Voigt Hill
#
# Bulk Modulus (GPa) = 59.97392 59.97668 59.97530
# Shear Modulus (GPa) = 25.80590 26.54336 26.17463
#
# Velocity S-wave (km/s) = 3.66861 3.72066 3.69472
# Velocity P-wave (km/s) = 7.01594 7.05249 7.03424
#
# Compressibility (1/GPa) = 0.01667391
#
# Stress axis : x y z
#
# Youngs Moduli (GPa) = 76.01656 76.01656 63.82562
#
# Poissons Ratio (x) = 0.18541 0.32592
# Poissons Ratio (y) = 0.18541 0.32592
# Poissons Ratio (z) = 0.38817 0.38817
#
# Static dielectric constant tensor:
#      x y z
#    x 3.609960 0.000000 0.000000 
#    y 0.000000 3.609960 0.000000 
#    z 0.000000 0.000000 3.224650 
# 
# 
# High freq. dielectric constant tensor:
#      x y z
#    x 1.752390 0.000000 0.000000 
#    y 0.000000 1.752390 0.000000 
#    z 0.000000 0.000000 1.721810 
# 
# From -- ./inp_files/1932.got.cif
#   From: 2010.03.12/outbox.cif.g09.slc.cpg/sg191_1_cif.got.tgz:1932.got - 2010.04.01 12:09:02.
