data_PCOD8329117
_publ_section_title
;
Structure prediction by ZEFSAII (Michael W. Deem and Ramdas Pophale) SiO2 
 PCOD8329117
Probable space group: P 6/M M M
;
_chemical_formula_sum "Si O2"
_cell_formula_units_Z 144
_cell_length_a 21.925281
_cell_length_b 21.925281
_cell_length_c 18.478639
_cell_angle_alpha 90.000000
_cell_angle_beta 90.000000
_cell_angle_gamma 120.000000
_cell_volume 7692.915268
_symmetry_space_group_name_H-M "P 6/M M M"
_symmetry_group_IT_number 191
_symmetry_cell_setting 'hexagonal'
loop_
_space_group_symop_operation_xyz
x,y,z
x-y,x,z
-y,x-y,z
-x,-y,z
-x+y,-x,z
y,-x+y,z
x-y,-y,-z
-x,-x+y,-z
y,x,-z
-y,-x,-z
-x+y,y,-z
x,x-y,-z
-x,-y,-z
-x+y,-x,-z
y,-x+y,-z
x,y,-z
x-y,x,-z
-y,x-y,-z
-x+y,y,z
x,x-y,z
-y,-x,z
y,x,z
x-y,-y,z
-x,-x+y,z
loop_
_atom_site_type_symbol
_atom_site_label
_atom_site_fract_x
_atom_site_fract_y
_atom_site_fract_z
Si Si1 0.682120 0.600997 0.414247
Si Si2 0.600995 0.682120 0.914247
Si Si3 0.526894 0.193830 0.665906
Si Si4 0.841828 0.920914 0.086408
Si Si5 0.526894 0.193830 0.165910
Si Si6 0.684358 0.842179 0.414068
Si Si7 0.157821 0.315642 0.085931
Si Si8 0.841828 0.920914 0.586408
O O1 0.679127 0.591975 0.500000
O O2 0.639453 0.639453 0.389219
O O3 0.647850 0.524439 0.378217
O O4 0.762231 0.645822 0.385874
O O5 0.639452 0.639452 0.889221
O O6 0.524439 0.647850 0.878213
O O7 0.645822 0.762231 0.885876
O O8 0.591970 0.679125 0.000000
O O9 0.606521 0.213042 0.651036
O O10 0.518993 0.259497 0.638645
O O11 0.507788 0.179000 0.749998
O O12 0.881533 0.881533 0.116469
O O13 0.762991 0.881496 0.117605
O O14 0.841259 0.920630 0.000000
O O15 0.606521 0.213041 0.151040
O O16 0.518994 0.259497 0.138649
O O17 0.686743 0.843372 0.500000
O O18 0.762991 0.881496 0.382395
O O19 0.156628 0.313255 0.000000
O O20 0.881533 0.881533 0.616470
O O21 0.841260 0.920630 0.500000
#
# Coordination Sequence:
#
# PCOD8329117 Si02
#       8
#    24  24  24  12  24  12  12  12
#     4  10  20  34  54  80 109 142 180 221 264 314
#     4  10  20  34  54  80 109 142 180 221 264 314
#     4  10  21  38  59  81 106 138 177 219 265 318
#     4   9  15  22  35  59  93 133 176 220 264 309
#     4  10  21  38  59  81 106 138 177 219 265 318
#     4   9  16  29  47  68  99 139 180 216 257 309
#     4   9  16  29  47  68  99 139 180 216 257 309
#     4   9  15  22  35  59  93 133 176 220 264 309
#
# _framework density 18.718523000000001
#
# number of rings (size 3 to 8) (size 9 to 14) (size 15 to 20)
#    0.000    2.333    1.667    1.500    0.000    8.000 
#    0.000    3.333    0.000    2.000    0.000    0.000 
#    0.000    0.000    0.000    0.000    0.000   11.833 
#
# Total GULP energy -1785834.223544 kJ/mol
# GULP energy per Si atom -12401.626552 kJ/mol
# Density = 1.867592 g / cm^3
# Si number density = 18.718523 Si / 1000 Ang^3
#
#
#
# Elastic Constant Matrix: (Units=GPa)
#
#
# Indices 1 2 3 4 5 6 
#
# 1 128.1681 53.0527 31.8147 0.0000 0.0000 0.0000
# 2 53.0527 128.1681 31.8147 0.0000 0.0000 0.0000
# 3 31.8147 31.8147 23.0442 0.0000 0.0000 0.0000
# 4 0.0000 0.0000 0.0000 22.1430 0.0000 0.0000
# 5 0.0000 0.0000 0.0000 0.0000 22.1430 0.0000
# 6 0.0000 0.0000 0.0000 0.0000 0.0000 37.5577
#
#
#
# Elastic Compliance Matrix: (Units=1/GPa)
#
#
# Indices 1 2 3 4 5 6 
#
# 1 0.012011 -0.001302 -0.014786 0.000000 0.000000 0.000000
# 2 -0.001302 0.012011 -0.014786 0.000000 0.000000 0.000000
# 3 -0.014786 -0.014786 0.084221 0.000000 0.000000 0.000000
# 4 0.000000 0.000000 0.000000 0.045161 0.000000 0.000000
# 5 0.000000 0.000000 0.000000 0.000000 0.045161 0.000000
# 6 0.000000 0.000000 0.000000 0.000000 0.000000 0.026626
#
#
# Mechanical properties :
#
#
# Convention : Reuss Voigt Hill
#
# Bulk Modulus (GPa) = 21.50659 56.97163 39.23911
# Shear Modulus (GPa) = 16.53245 27.21529 21.87387
#
# Velocity S-wave (km/s) = 2.97512 3.81717 3.42214
# Velocity P-wave (km/s) = 4.82868 7.06610 6.05169
#
# Compressibility (1/GPa) = 0.04649738
#
# Stress axis : x y z
#
# Youngs Moduli (GPa) = 83.25548 83.25548 11.87358
#
# Poissons Ratio (x) = 0.10837 0.17556
# Poissons Ratio (y) = 0.10837 0.17556
# Poissons Ratio (z) = 1.23098 1.23098
#
# Static dielectric constant tensor:
#      x y z
#    x 3.554200 0.000000 0.000000 
#    y 0.000000 3.554200 0.000000 
#    z 0.000000 0.000000 2.926180 
# 
# 
# High freq. dielectric constant tensor:
#      x y z
#    x 1.738730 0.000000 0.000000 
#    y 0.000000 1.738730 0.000000 
#    z 0.000000 0.000000 1.675640 
# 
# From -- ./inp_files/7698.got.cif
#   From: 2010.03.12/outbox.cif.g09.slc.cpg/sg191_4_cif.got.tgz:7698.got - 2010.04.01 12:09:02.
