data_PCOD8329217
_publ_section_title
;
Structure prediction by ZEFSAII (Michael W. Deem and Ramdas Pophale) SiO2 
 PCOD8329217
Probable space group: P 6/M M M
;
_chemical_formula_sum "Si O2"
_cell_formula_units_Z 120
_cell_length_a 18.055727
_cell_length_b 18.055727
_cell_length_c 24.301546
_cell_angle_alpha 90.000000
_cell_angle_beta 90.000000
_cell_angle_gamma 120.000000
_cell_volume 6861.111769
_symmetry_space_group_name_H-M "P 6/M M M"
_symmetry_group_IT_number 191
_symmetry_cell_setting 'hexagonal'
loop_
_space_group_symop_operation_xyz
x,y,z
x-y,x,z
-y,x-y,z
-x,-y,z
-x+y,-x,z
y,-x+y,z
x-y,-y,-z
-x,-x+y,-z
y,x,-z
-y,-x,-z
-x+y,y,-z
x,x-y,-z
-x,-y,-z
-x+y,-x,-z
y,-x+y,-z
x,y,-z
x-y,x,-z
-y,x-y,-z
-x+y,y,z
x,x-y,z
-y,-x,z
y,x,z
x-y,-y,z
-x,-x+y,z
loop_
_atom_site_type_symbol
_atom_site_label
_atom_site_fract_x
_atom_site_fract_y
_atom_site_fract_z
Si Si1 0.262446 0.903902 0.271347
Si Si2 0.097916 0.902085 0.565504
Si Si3 0.803903 0.196098 0.434916
Si Si4 0.534800 0.633961 0.630603
Si Si5 0.495755 0.333142 0.062347
Si Si6 0.906454 0.647656 0.146654
O O1 0.163313 0.836688 0.285649
O O2 0.324539 0.885035 0.308734
O O3 0.282779 0.892357 0.208313
O O4 0.279833 0.000000 0.282056
O O5 0.097696 0.902305 0.500000
O O6 0.146986 0.853015 0.587071
O O7 0.000000 0.852826 0.587480
O O8 0.802995 0.197006 0.500000
O O9 0.851144 0.293288 0.414418
O O10 0.433260 0.566741 0.630275
O O11 0.586592 0.586592 0.614581
O O12 0.519991 0.259996 0.071731
O O13 0.577856 0.422145 0.076124
O O14 0.423150 0.322685 0.104247
O O15 0.463863 0.330798 0.000000
O O16 0.839076 0.678151 0.132090
O O17 0.000000 0.730506 0.140923
#
# Coordination Sequence:
#
# PCOD8329217 Si02
#       6
#    24  12  12  24  24  24
#     4   9  17  33  56  78 100 128 164 204 249 300
#     4   9  17  30  51  80 112 142 170 200 237 290
#     4  11  22  37  56  77 102 136 172 207 250 307
#     4  10  21  37  56  77 101 130 166 210 256 300
#     4   9  17  29  45  67  99 137 172 205 245 295
#     4   9  18  31  49  73  99 129 166 207 249 294
#
# _framework density 17.489875999999999
#
# number of rings (size 3 to 8) (size 9 to 14) (size 15 to 20)
#    0.000    2.600    1.000    0.900    0.000    4.400 
#    0.600    4.000    0.000    0.400    0.000    2.800 
#    0.000    0.000    0.000    5.000    0.000    5.200 
#
# Total GULP energy -1487713.699993 kJ/mol
# GULP energy per Si atom -12397.614167 kJ/mol
# Density = 1.745007 g / cm^3
# Si number density = 17.489876 Si / 1000 Ang^3
#
#
#
# Elastic Constant Matrix: (Units=GPa)
#
#
# Indices 1 2 3 4 5 6 
#
# 1 115.0798 74.8952 51.3370 0.0000 0.0000 0.0000
# 2 74.8952 115.0798 51.3370 0.0000 0.0000 0.0000
# 3 51.3370 51.3370 82.2995 0.0000 0.0000 0.0000
# 4 0.0000 0.0000 0.0000 24.8565 0.0000 0.0000
# 5 0.0000 0.0000 0.0000 0.0000 24.8565 0.0000
# 6 0.0000 0.0000 0.0000 0.0000 0.0000 20.0923
#
#
#
# Elastic Compliance Matrix: (Units=1/GPa)
#
#
# Indices 1 2 3 4 5 6 
#
# 1 0.016413 -0.008472 -0.004953 0.000000 0.000000 0.000000
# 2 -0.008472 0.016413 -0.004953 0.000000 0.000000 0.000000
# 3 -0.004953 -0.004953 0.018330 0.000000 0.000000 0.000000
# 4 0.000000 0.000000 0.000000 0.040231 0.000000 0.000000
# 5 0.000000 0.000000 0.000000 0.000000 0.040231 0.000000
# 6 0.000000 0.000000 0.000000 0.000000 0.000000 0.049770
#
#
# Mechanical properties :
#
#
# Convention : Reuss Voigt Hill
#
# Bulk Modulus (GPa) = 69.45083 74.17750 71.81416
# Shear Modulus (GPa) = 22.42692 22.95372 22.69032
#
# Velocity S-wave (km/s) = 3.58478 3.62664 3.60577
# Velocity P-wave (km/s) = 7.54517 7.74857 7.64755
#
# Compressibility (1/GPa) = 0.01439868
#
# Stress axis : x y z
#
# Youngs Moduli (GPa) = 60.92704 60.92704 54.55391
#
# Poissons Ratio (x) = 0.51618 0.27023
# Poissons Ratio (y) = 0.51618 0.27023
# Poissons Ratio (z) = 0.30180 0.30180
#
# Static dielectric constant tensor:
#      x y z
#    x 3.284440 0.000000 0.000000 
#    y 0.000000 3.284440 0.000000 
#    z 0.000000 0.000000 3.296100 
# 
# 
# High freq. dielectric constant tensor:
#      x y z
#    x 1.667890 0.000000 0.000000 
#    y 0.000000 1.667890 0.000000 
#    z 0.000000 0.000000 1.677870 
# 
# From -- ./inp_files/8573.got.cif
#   From: 2010.03.12/outbox.cif.g09.slc.cpg/sg191_5_cif.got.tgz:8573.got - 2010.04.01 12:09:02.
