data_PCOD8329420
_publ_section_title
;
Structure prediction by ZEFSAII (Michael W. Deem and Ramdas Pophale) SiO2 
 PCOD8329420
Probable space group: P 6/M C C
;
_chemical_formula_sum "Si O2"
_cell_formula_units_Z 120
_cell_length_a 18.505300
_cell_length_b 18.505300
_cell_length_c 24.987632
_cell_angle_alpha 90.000000
_cell_angle_beta 90.000000
_cell_angle_gamma 120.000000
_cell_volume 7410.508218
_symmetry_space_group_name_H-M "P 6/M C C"
_symmetry_group_IT_number 192
_symmetry_cell_setting 'hexagonal'
loop_
_space_group_symop_operation_xyz
x,y,z
x-y,x,z
-y,x-y,z
-x,-y,z
-x+y,-x,z
y,-x+y,z
x-y,-y,1/2-z
-x,-x+y,1/2-z
y,x,1/2-z
-y,-x,1/2-z
-x+y,y,1/2-z
x,x-y,1/2-z
-x,-y,-z
-x+y,-x,-z
y,-x+y,-z
x,y,-z
x-y,x,-z
-y,x-y,-z
-x+y,y,1/2+z
x,x-y,1/2+z
-y,-x,1/2+z
y,x,1/2+z
x-y,-y,1/2+z
-x,-x+y,1/2+z
loop_
_atom_site_type_symbol
_atom_site_label
_atom_site_fract_x
_atom_site_fract_y
_atom_site_fract_z
Si Si1 0.331505 0.832240 0.888491
Si Si2 0.539054 0.906912 0.000000
Si Si3 0.093420 0.744160 0.311801
Si Si4 0.906912 0.539054 0.000000
Si Si5 0.668495 0.167760 0.611509
Si Si6 0.744160 0.093420 0.311801
O O1 0.319146 0.888963 0.845323
O O2 0.423586 0.847171 0.880520
O O3 0.264903 0.735097 0.879800
O O4 0.317262 0.858497 0.947360
O O5 0.455751 0.911503 0.000000
O O6 0.541235 0.858497 0.052640
O O7 0.618696 1.000000 0.000000
O O8 0.159621 0.840379 0.327010
O O9 0.102499 0.726855 0.250000
O O10 1.000000 0.726030 0.324287
O O11 0.680854 0.111037 0.654677
#
# Coordination Sequence:
#
# PCOD8329420 Si02
#       6
#    24  12  24  12  24  24
#     4  10  19  30  44  63  89 121 155 188 221 258
#     4   9  17  28  42  60  82 111 149 191 229 262
#     4   9  18  32  49  68  89 114 144 179 221 267
#     4   9  17  28  42  60  82 111 149 191 229 262
#     4  10  19  30  44  63  89 121 155 188 221 258
#     4   9  18  32  49  68  89 114 144 179 221 267
#
# _framework density 16.193221999999999
#
# number of rings (size 3 to 8) (size 9 to 14) (size 15 to 20)
#    0.000    2.600    0.000    2.200    0.000    3.200 
#    0.000    4.000    0.000    2.800    0.000    2.800 
#    0.000    0.000    0.000    0.000    0.000   41.600 
#
# Total GULP energy -1487819.671470 kJ/mol
# GULP energy per Si atom -12398.497262 kJ/mol
# Density = 1.615637 g / cm^3
# Si number density = 16.193222 Si / 1000 Ang^3
#
#
#
# Elastic Constant Matrix: (Units=GPa)
#
#
# Indices 1 2 3 4 5 6 
#
# 1 89.6347 61.0206 45.6124 0.0000 0.0000 0.0000
# 2 61.0206 89.6347 45.6124 0.0000 0.0000 0.0000
# 3 45.6124 45.6124 80.0638 0.0000 0.0000 0.0000
# 4 0.0000 0.0000 0.0000 22.9136 0.0000 0.0000
# 5 0.0000 0.0000 0.0000 0.0000 22.9136 0.0000
# 6 0.0000 0.0000 0.0000 0.0000 0.0000 14.3071
#
#
#
# Elastic Compliance Matrix: (Units=1/GPa)
#
#
# Indices 1 2 3 4 5 6 
#
# 1 0.022541 -0.012407 -0.005773 0.000000 0.000000 0.000000
# 2 -0.012407 0.022541 -0.005773 0.000000 0.000000 0.000000
# 3 -0.005773 -0.005773 0.019068 0.000000 0.000000 0.000000
# 4 0.000000 0.000000 0.000000 0.043642 0.000000 0.000000
# 5 0.000000 0.000000 0.000000 0.000000 0.043642 0.000000
# 6 0.000000 0.000000 0.000000 0.000000 0.000000 0.069896
#
#
# Mechanical properties :
#
#
# Convention : Reuss Voigt Hill
#
# Bulk Modulus (GPa) = 61.56669 62.64712 62.10691
# Shear Modulus (GPa) = 18.20505 19.16605 18.68555
#
# Velocity S-wave (km/s) = 3.35660 3.44406 3.40061
# Velocity P-wave (km/s) = 7.28869 7.38828 7.33865
#
# Compressibility (1/GPa) = 0.01624255
#
# Stress axis : x y z
#
# Youngs Moduli (GPa) = 44.36451 44.36451 52.44451
#
# Poissons Ratio (x) = 0.55044 0.30276
# Poissons Ratio (y) = 0.55044 0.30276
# Poissons Ratio (z) = 0.25611 0.25611
#
# Static dielectric constant tensor:
#      x y z
#    x 3.011690 0.000000 0.000000 
#    y 0.000000 3.011690 0.000000 
#    z 0.000000 0.000000 3.241460 
# 
# 
# High freq. dielectric constant tensor:
#      x y z
#    x 1.608830 0.000000 0.000000 
#    y 0.000000 1.608830 0.000000 
#    z 0.000000 0.000000 1.633080 
# 
# From -- ./inp_files/7060.got.cif
#   From: 2010.03.12/outbox.cif.g09.slc.cpg/sg192_4_cif.got.tgz:7060.got - 2010.04.01 12:16:15.
