data_PCOD8329750
_publ_section_title
;
Structure prediction by ZEFSAII (Michael W. Deem and Ramdas Pophale) SiO2 
 PCOD8329750
Probable space group: P 6/M C C
;
_chemical_formula_sum "Si O2"
_cell_formula_units_Z 104
_cell_length_a 19.390815
_cell_length_b 19.390815
_cell_length_c 19.151034
_cell_angle_alpha 90.000000
_cell_angle_beta 90.000000
_cell_angle_gamma 120.000000
_cell_volume 6236.127485
_symmetry_space_group_name_H-M "P 6/M C C"
_symmetry_group_IT_number 192
_symmetry_cell_setting 'hexagonal'
loop_
_space_group_symop_operation_xyz
x,y,z
x-y,x,z
-y,x-y,z
-x,-y,z
-x+y,-x,z
y,-x+y,z
x-y,-y,1/2-z
-x,-x+y,1/2-z
y,x,1/2-z
-y,-x,1/2-z
-x+y,y,1/2-z
x,x-y,1/2-z
-x,-y,-z
-x+y,-x,-z
y,-x+y,-z
x,y,-z
x-y,x,-z
-y,x-y,-z
-x+y,y,1/2+z
x,x-y,1/2+z
-y,-x,1/2+z
y,x,1/2+z
x-y,-y,1/2+z
-x,-x+y,1/2+z
loop_
_atom_site_type_symbol
_atom_site_label
_atom_site_fract_x
_atom_site_fract_y
_atom_site_fract_z
Si Si1 0.700998 0.702920 0.830580
Si Si2 0.967728 0.557110 0.580351
Si Si3 0.666668 0.333334 0.583014
Si Si4 0.171535 0.827048 0.169340
Si Si5 0.718333 0.210568 0.419289
O O1 0.679706 0.679706 0.750000
O O2 0.627832 0.637387 0.875083
O O3 0.710010 0.788864 0.847177
O O4 0.783818 0.706091 0.850063
O O5 0.991559 0.581035 0.500000
O O6 0.873146 0.511139 0.591017
O O7 0.000000 0.500000 0.607198
O O8 0.666667 0.333334 0.500000
O O9 0.577015 0.298965 0.610368
O O10 0.185160 0.814841 0.250000
O O11 0.215317 0.790851 0.124206
O O12 0.744560 0.225181 0.500000
#
# Coordination Sequence:
#
# PCOD8329750 Si02
#       5
#    24  24   8  24  24
#     4   9  18  32  50  69  93 122 153 190 233 282
#     4   9  18  30  46  69  92 119 156 194 231 270
#     4   9  18  30  46  65  88 123 157 191 232 267
#     4   9  18  33  50  70  93 121 154 189 233 280
#     4   9  18  31  46  67  92 121 158 191 229 274
#
# _framework density 16.677015999999998
#
# number of rings (size 3 to 8) (size 9 to 14) (size 15 to 20)
#    0.000    3.000    0.000    0.000    3.231    1.385 
#    0.000    1.154    0.000    0.462    0.000    3.231 
#    0.000    0.000    0.000   11.538    0.000   12.000 
#
# Total GULP energy -1289482.822687 kJ/mol
# GULP energy per Si atom -12398.873295 kJ/mol
# Density = 1.663906 g / cm^3
# Si number density = 16.677016 Si / 1000 Ang^3
#
#
#
# Elastic Constant Matrix: (Units=GPa)
#
#
# Indices 1 2 3 4 5 6 
#
# 1 118.4075 74.2345 42.1139 0.0000 0.0000 -0.0001
# 2 74.2345 118.4079 42.1139 0.0000 0.0000 0.0001
# 3 42.1139 42.1139 45.3211 0.0000 0.0000 0.0000
# 4 0.0000 0.0000 0.0000 23.0753 0.0000 0.0000
# 5 0.0000 0.0000 0.0000 0.0000 23.0753 0.0000
# 6 -0.0001 0.0001 0.0000 0.0000 0.0000 22.0867
#
#
#
# Elastic Compliance Matrix: (Units=1/GPa)
#
#
# Indices 1 2 3 4 5 6 
#
# 1 0.015691 -0.006947 -0.008125 0.000000 0.000000 0.000000
# 2 -0.006947 0.015691 -0.008124 0.000000 0.000000 0.000000
# 3 -0.008125 -0.008124 0.037164 0.000000 0.000000 0.000000
# 4 0.000000 0.000000 0.000000 0.043336 0.000000 0.000000
# 5 0.000000 0.000000 0.000000 0.000000 0.043336 0.000000
# 6 0.000000 0.000000 0.000000 0.000000 0.000000 0.045276
#
#
# Mechanical properties :
#
#
# Convention : Reuss Voigt Hill
#
# Bulk Modulus (GPa) = 45.14195 66.56234 55.85215
# Shear Modulus (GPa) = 19.66408 21.89243 20.77825
#
# Velocity S-wave (km/s) = 3.43755 3.62709 3.53359
# Velocity P-wave (km/s) = 6.54849 7.58554 7.08601
#
# Compressibility (1/GPa) = 0.02215235
#
# Stress axis : x y z
#
# Youngs Moduli (GPa) = 63.73198 63.73235 26.90787
#
# Poissons Ratio (x) = 0.44278 0.21861
# Poissons Ratio (y) = 0.44278 0.21861
# Poissons Ratio (z) = 0.51779 0.51779
#
# Static dielectric constant tensor:
#      x y z
#    x 3.185160 0.000000 0.000000 
#    y 0.000000 3.185150 0.000000 
#    z 0.000000 0.000000 3.099630 
# 
# 
# High freq. dielectric constant tensor:
#      x y z
#    x 1.637090 0.000000 0.000000 
#    y 0.000000 1.637090 0.000000 
#    z 0.000000 0.000000 1.633110 
# 
# From -- ./inp_files/4869.got.cif
#   From: 2010.03.12/outbox.cif.g09.slc.cpg/sg192_3_cif.got.tgz:4869.got - 2010.04.01 12:16:15.
