data_PCOD8329471
_publ_section_title
;
Structure prediction by ZEFSAII (Michael W. Deem and Ramdas Pophale) SiO2 
 PCOD8329471
Probable space group: P 6/M C C
;
_chemical_formula_sum "Si O2"
_cell_formula_units_Z 168
_cell_length_a 23.617246
_cell_length_b 23.617246
_cell_length_c 19.110607
_cell_angle_alpha 90.000000
_cell_angle_beta 90.000000
_cell_angle_gamma 120.000000
_cell_volume 9231.316045
_symmetry_space_group_name_H-M "P 6/M C C"
_symmetry_group_IT_number 192
_symmetry_cell_setting 'hexagonal'
loop_
_space_group_symop_operation_xyz
x,y,z
x-y,x,z
-y,x-y,z
-x,-y,z
-x+y,-x,z
y,-x+y,z
x-y,-y,1/2-z
-x,-x+y,1/2-z
y,x,1/2-z
-y,-x,1/2-z
-x+y,y,1/2-z
x,x-y,1/2-z
-x,-y,-z
-x+y,-x,-z
y,-x+y,-z
x,y,-z
x-y,x,-z
-y,x-y,-z
-x+y,y,1/2+z
x,x-y,1/2+z
-y,-x,1/2+z
y,x,1/2+z
x-y,-y,1/2+z
-x,-x+y,1/2+z
loop_
_atom_site_type_symbol
_atom_site_label
_atom_site_fract_x
_atom_site_fract_y
_atom_site_fract_z
Si Si1 0.610719 0.804664 0.917748
Si Si2 0.944554 0.311020 0.917537
Si Si3 0.516213 0.254573 0.330773
Si Si4 0.404899 0.816663 0.330664
Si Si5 0.432600 0.498497 0.079907
Si Si6 0.721273 0.773030 0.916820
Si Si7 0.977994 0.861662 0.916571
O O1 0.630430 0.877653 0.896532
O O2 0.546060 0.754204 0.877154
O O3 0.669508 0.794091 0.892723
O O4 0.596988 0.791785 0.000000
O O5 0.945062 0.375263 0.887448
O O6 0.003095 0.302271 0.885638
O O7 0.954022 0.319151 0.000000
O O8 0.495167 0.247584 0.250000
O O9 0.547797 0.329504 0.353283
O O10 0.569561 0.233275 0.346081
O O11 0.418878 0.837755 0.250000
O O12 0.442097 0.881485 0.376831
O O13 0.500000 0.500000 0.085146
O O14 0.415459 0.505922 0.000000
O O15 0.792763 0.825373 0.887408
O O16 0.725349 0.771834 0.000000
O O17 0.919855 0.872784 0.888395
O O18 0.977308 0.861067 0.000000
#
# Coordination Sequence:
#
# PCOD8329471 Si02
#       7
#    24  24  24  24  24  24  24
#     4  10  19  32  53  77 101 134 174 215 256 305
#     4   9  17  31  48  70 102 134 165 209 260 302
#     4  10  21  37  56  77 101 131 167 212 262 312
#     4  10  21  38  58  78 103 136 173 215 263 321
#     4  10  21  35  53  77 107 140 173 216 264 309
#     4   9  17  27  44  70  98 131 172 212 253 306
#     4   9  15  23  36  59  94 135 175 213 252 296
#
# _framework density 18.198922
#
# number of rings (size 3 to 8) (size 9 to 14) (size 15 to 20)
#    0.000    2.429    1.429    1.286    2.000    6.000 
#    0.000    0.000    0.000    2.571    0.000    0.000 
#    0.000    0.000    0.000    0.000    0.000    3.857 
#
# Total GULP energy -2083247.130368 kJ/mol
# GULP energy per Si atom -12400.280538 kJ/mol
# Density = 1.815750 g / cm^3
# Si number density = 18.198922 Si / 1000 Ang^3
#
#
#
# Elastic Constant Matrix: (Units=GPa)
#
#
# Indices 1 2 3 4 5 6 
#
# 1 109.0776 38.0601 30.5780 0.0000 0.0000 0.0000
# 2 38.0601 109.0776 30.5780 0.0000 0.0000 0.0000
# 3 30.5780 30.5780 29.3554 0.0000 0.0000 0.0000
# 4 0.0000 0.0000 0.0000 15.2438 0.0000 0.0000
# 5 0.0000 0.0000 0.0000 0.0000 15.2438 0.0000
# 6 0.0000 0.0000 0.0000 0.0000 0.0000 35.5088
#
#
#
# Elastic Compliance Matrix: (Units=1/GPa)
#
#
# Indices 1 2 3 4 5 6 
#
# 1 0.013033 -0.001048 -0.012485 0.000000 0.000000 0.000000
# 2 -0.001048 0.013033 -0.012485 0.000000 0.000000 0.000000
# 3 -0.012485 -0.012485 0.060074 0.000000 0.000000 0.000000
# 4 0.000000 0.000000 0.000000 0.065601 0.000000 0.000000
# 5 0.000000 0.000000 0.000000 0.000000 0.065601 0.000000
# 6 0.000000 0.000000 0.000000 0.000000 0.000000 0.028162
#
#
# Mechanical properties :
#
#
# Convention : Reuss Voigt Hill
#
# Bulk Modulus (GPa) = 29.31963 49.54921 39.43442
# Shear Modulus (GPa) = 16.18609 23.08556 19.63582
#
# Velocity S-wave (km/s) = 2.98551 3.56548 3.28831
# Velocity P-wave (km/s) = 5.29434 6.65100 6.01106
#
# Compressibility (1/GPa) = 0.03410685
#
# Stress axis : x y z
#
# Youngs Moduli (GPa) = 76.72690 76.72690 16.64601
#
# Poissons Ratio (x) = 0.08039 0.20782
# Poissons Ratio (y) = 0.08039 0.20782
# Poissons Ratio (z) = 0.95791 0.95791
#
# Static dielectric constant tensor:
#      x y z
#    x 3.523130 0.000000 0.000000 
#    y 0.000000 3.523130 0.000000 
#    z 0.000000 0.000000 2.864280 
# 
# 
# High freq. dielectric constant tensor:
#      x y z
#    x 1.720230 0.000000 0.000000 
#    y 0.000000 1.720230 0.000000 
#    z 0.000000 0.000000 1.644260 
# 
# From -- ./inp_files/6044.got.cif
#   From: 2010.03.12/outbox.cif.g09.slc.cpg/sg192_4_cif.got.tgz:6044.got - 2010.04.01 12:16:15.
