data_PCOD8329884
_publ_section_title
;
Structure prediction by ZEFSAII (Michael W. Deem and Ramdas Pophale) SiO2 
 PCOD8329884
Probable space group: P 63/M C M
;
_chemical_formula_sum "Si O2"
_cell_formula_units_Z 120
_cell_length_a 17.855297
_cell_length_b 17.855297
_cell_length_c 25.448176
_cell_angle_alpha 90.000000
_cell_angle_beta 90.000000
_cell_angle_gamma 120.000000
_cell_volume 7026.215218
_symmetry_space_group_name_H-M "P 63/M C M"
_symmetry_group_IT_number 193
_symmetry_cell_setting 'hexagonal'
loop_
_space_group_symop_operation_xyz
x,y,z
x-y,x,1/2+z
-y,x-y,z
-x,-y,1/2+z
-x+y,-x,z
y,-x+y,1/2+z
x-y,-y,1/2-z
-x,-x+y,1/2-z
y,x,1/2-z
-y,-x,-z
-x+y,y,-z
x,x-y,-z
-x,-y,-z
-x+y,-x,1/2-z
y,-x+y,-z
x,y,1/2-z
x-y,x,-z
-y,x-y,1/2-z
-x+y,y,1/2+z
x,x-y,1/2+z
-y,-x,1/2+z
y,x,z
x-y,-y,z
-x,-x+y,z
loop_
_atom_site_type_symbol
_atom_site_label
_atom_site_fract_x
_atom_site_fract_y
_atom_site_fract_z
Si Si1 0.902286 0.647923 0.021771
Si Si2 0.530379 0.096436 0.640831
Si Si3 0.901209 0.314879 0.190045
Si Si4 0.247390 0.451283 0.114922
Si Si5 0.163953 0.522768 0.457977
O O1 0.877419 0.619507 0.082080
O O2 0.000000 0.725325 0.019292
O O3 0.842081 0.684161 0.000000
O O4 0.892268 0.568006 0.987314
O O5 0.604269 0.114623 0.683294
O O6 0.503331 0.169294 0.649713
O O7 0.566414 0.101812 0.581989
O O8 0.449233 0.000000 0.648451
O O9 0.882560 0.283272 0.250000
O O10 0.835993 0.237417 0.152361
O O11 0.000000 0.344037 0.174182
O O12 0.239923 0.518279 0.074594
O O13 0.203097 0.601549 0.500000
#
# Coordination Sequence:
#
# PCOD8329884 Si02
#       5
#    24  24  24  24  24
#     4  10  20  33  50  76 104 138 169 201 242 288
#     4  10  19  32  50  71  96 131 169 208 248 290
#     4   9  20  39  55  66  90 129 169 207 257 313
#     4  10  20  31  48  75  96 124 171 218 245 287
#     4  10  19  31  47  68 104 144 173 197 230 286
#
# _framework density 17.078896
#
# number of rings (size 3 to 8) (size 9 to 14) (size 15 to 20)
#    0.000    2.200    2.000    1.200    0.000    6.400 
#    9.600    5.000    0.000    2.000    0.000    0.000 
#    0.000    0.000    0.000    0.000    0.000    1.000 
#
# Total GULP energy -1487622.373562 kJ/mol
# GULP energy per Si atom -12396.853113 kJ/mol
# Density = 1.704002 g / cm^3
# Si number density = 17.078896 Si / 1000 Ang^3
#
#
#
# Elastic Constant Matrix: (Units=GPa)
#
#
# Indices 1 2 3 4 5 6 
#
# 1 80.3699 39.6824 20.6432 0.0000 0.0000 0.0000
# 2 39.6824 80.3699 20.6432 0.0000 0.0000 0.0000
# 3 20.6432 20.6432 63.2402 0.0000 0.0000 0.0000
# 4 0.0000 0.0000 0.0000 16.4212 0.0000 0.0000
# 5 0.0000 0.0000 0.0000 0.0000 16.4212 0.0000
# 6 0.0000 0.0000 0.0000 0.0000 0.0000 20.3438
#
#
#
# Elastic Compliance Matrix: (Units=1/GPa)
#
#
# Indices 1 2 3 4 5 6 
#
# 1 0.016980 -0.007597 -0.003063 0.000000 0.000000 0.000000
# 2 -0.007597 0.016980 -0.003063 0.000000 0.000000 0.000000
# 3 -0.003063 -0.003063 0.017812 0.000000 0.000000 0.000000
# 4 0.000000 0.000000 0.000000 0.060897 0.000000 0.000000
# 5 0.000000 0.000000 0.000000 0.000000 0.060897 0.000000
# 6 0.000000 0.000000 0.000000 0.000000 0.000000 0.049155
#
#
# Mechanical properties :
#
#
# Convention : Reuss Voigt Hill
#
# Bulk Modulus (GPa) = 41.10665 42.87970 41.99317
# Shear Modulus (GPa) = 19.35908 20.17131 19.76520
#
# Velocity S-wave (km/s) = 3.37041 3.44039 3.40558
# Velocity P-wave (km/s) = 6.26635 6.39868 6.33286
#
# Compressibility (1/GPa) = 0.02432696
#
# Stress axis : x y z
#
# Youngs Moduli (GPa) = 58.89177 58.89177 56.14090
#
# Poissons Ratio (x) = 0.44742 0.17195
# Poissons Ratio (y) = 0.44742 0.17195
# Poissons Ratio (z) = 0.18038 0.18038
#
# Static dielectric constant tensor:
#      x y z
#    x 3.033600 0.000000 0.000000 
#    y 0.000000 3.033600 0.000000 
#    z 0.000000 0.000000 3.216190 
# 
# 
# High freq. dielectric constant tensor:
#      x y z
#    x 1.636390 0.000000 0.000000 
#    y 0.000000 1.636390 0.000000 
#    z 0.000000 0.000000 1.654280 
# 
# From -- ./inp_files/9080.got.cif
#   From: 2010.03.12/outbox.cif.g09.slc.cpg/sg193_5_cif.got.tgz:9080.got - 2010.04.01 12:20:39.
