data_PCOD8329491
_publ_section_title
;
Structure prediction by ZEFSAII (Michael W. Deem and Ramdas Pophale) SiO2 
 PCOD8329491
Probable space group: P 6/M C C
;
_chemical_formula_sum "Si O2"
_cell_formula_units_Z 144
_cell_length_a 32.552404
_cell_length_b 32.552404
_cell_length_c 8.605618
_cell_angle_alpha 90.000000
_cell_angle_beta 90.000000
_cell_angle_gamma 120.000000
_cell_volume 7897.303512
_symmetry_space_group_name_H-M "P 6/M C C"
_symmetry_group_IT_number 192
_symmetry_cell_setting 'hexagonal'
loop_
_space_group_symop_operation_xyz
x,y,z
x-y,x,z
-y,x-y,z
-x,-y,z
-x+y,-x,z
y,-x+y,z
x-y,-y,1/2-z
-x,-x+y,1/2-z
y,x,1/2-z
-y,-x,1/2-z
-x+y,y,1/2-z
x,x-y,1/2-z
-x,-y,-z
-x+y,-x,-z
y,-x+y,-z
x,y,-z
x-y,x,-z
-y,x-y,-z
-x+y,y,1/2+z
x,x-y,1/2+z
-y,-x,1/2+z
y,x,1/2+z
x-y,-y,1/2+z
-x,-x+y,1/2+z
loop_
_atom_site_type_symbol
_atom_site_label
_atom_site_fract_x
_atom_site_fract_y
_atom_site_fract_z
Si Si1 0.805529 0.521908 0.815789
Si Si2 0.703494 0.895413 0.684086
Si Si3 0.861105 0.809999 0.316297
Si Si4 0.385562 0.526927 0.184312
Si Si5 0.949160 0.560238 0.815298
Si Si6 0.283617 0.385455 0.316513
O O1 0.755143 0.510286 0.750000
O O2 0.819031 0.485144 0.741792
O O3 0.845276 0.575017 0.764798
O O4 0.803226 0.515926 0.000000
O O5 0.687694 0.843847 0.750000
O O6 0.701447 0.891639 0.500000
O O7 0.756557 0.933363 0.739985
O O8 0.666105 0.910479 0.749551
O O9 0.846032 0.846032 0.250000
O O10 0.912743 0.825486 0.250000
O O11 0.864040 0.813559 0.500000
O O12 0.421373 0.578628 0.250000
O O13 0.401136 0.490543 0.250540
O O14 0.387109 0.526378 0.000000
O O15 0.936020 0.599840 0.756083
O O16 0.000000 0.572950 0.750000
O O17 0.948927 0.557351 0.000000
O O18 0.283600 0.382959 0.500000
#
# Coordination Sequence:
#
# PCOD8329491 Si02
#       6
#    24  24  24  24  24  24
#     4  10  19  33  54  81 110 141 176 216 261 312
#     4   9  17  30  47  70 100 135 171 209 248 292
#     4  10  20  34  53  75 101 131 167 206 249 296
#     4  11  22  38  58  80 105 136 174 219 269 321
#     4  10  20  35  52  74 104 139 179 223 268 315
#     4   8  16  30  48  71 104 141 178 218 257 297
#
# _framework density 18.234072000000001
#
# number of rings (size 3 to 8) (size 9 to 14) (size 15 to 20)
#    0.000    2.333    0.000    4.500    0.000    1.667 
#    0.000    5.833    0.000    0.500    0.000    3.500 
#    0.000    0.000    0.000    0.000    0.000    0.000 
#
# Total GULP energy -1785462.013332 kJ/mol
# GULP energy per Si atom -12399.041759 kJ/mol
# Density = 1.819257 g / cm^3
# Si number density = 18.234072 Si / 1000 Ang^3
#
#
#
# Elastic Constant Matrix: (Units=GPa)
#
#
# Indices 1 2 3 4 5 6 
#
# 1 110.0180 66.0851 37.4476 0.0000 0.0000 0.0000
# 2 66.0851 110.0180 37.4476 0.0000 0.0000 0.0000
# 3 37.4476 37.4476 86.8943 0.0000 0.0000 0.0000
# 4 0.0000 0.0000 0.0000 27.3060 0.0000 0.0000
# 5 0.0000 0.0000 0.0000 0.0000 27.3060 0.0000
# 6 0.0000 0.0000 0.0000 0.0000 0.0000 21.9664
#
#
#
# Elastic Compliance Matrix: (Units=1/GPa)
#
#
# Indices 1 2 3 4 5 6 
#
# 1 0.014857 -0.007905 -0.002996 0.000000 0.000000 0.000000
# 2 -0.007905 0.014857 -0.002996 0.000000 0.000000 0.000000
# 3 -0.002996 -0.002996 0.014091 0.000000 0.000000 0.000000
# 4 0.000000 0.000000 0.000000 0.036622 0.000000 0.000000
# 5 0.000000 0.000000 0.000000 0.000000 0.036622 0.000000
# 6 0.000000 0.000000 0.000000 0.000000 0.000000 0.045524
#
#
# Mechanical properties :
#
#
# Convention : Reuss Voigt Hill
#
# Bulk Modulus (GPa) = 62.45692 65.43232 63.94462
# Shear Modulus (GPa) = 25.54864 26.37903 25.96383
#
# Velocity S-wave (km/s) = 3.74725 3.80766 3.77758
# Velocity P-wave (km/s) = 7.28353 7.43597 7.36014
#
# Compressibility (1/GPa) = 0.01601104
#
# Stress axis : x y z
#
# Youngs Moduli (GPa) = 67.30650 67.30650 70.96807
#
# Poissons Ratio (x) = 0.53203 0.21265
# Poissons Ratio (y) = 0.53203 0.21265
# Poissons Ratio (z) = 0.20167 0.20167
#
# Static dielectric constant tensor:
#      x y z
#    x 3.446300 0.000000 0.000000 
#    y 0.000000 3.446300 0.000000 
#    z 0.000000 0.000000 3.280230 
# 
# 
# High freq. dielectric constant tensor:
#      x y z
#    x 1.700500 0.000000 0.000000 
#    y 0.000000 1.700500 0.000000 
#    z 0.000000 0.000000 1.705240 
# 
# From -- ./inp_files/1204.got.cif
#   From: 2010.03.12/outbox.cif.g09.slc.cpg/sg192_1_cif.got.tgz:1204.got - 2010.04.01 12:16:15.
