data_PCOD8329771
_publ_section_title
;
Structure prediction by ZEFSAII (Michael W. Deem and Ramdas Pophale) SiO2 
 PCOD8329771
Probable space group: P 63/M C M
;
_chemical_formula_sum "Si O2"
_cell_formula_units_Z 132
_cell_length_a 17.695716
_cell_length_b 17.695716
_cell_length_c 28.677179
_cell_angle_alpha 90.000000
_cell_angle_beta 90.000000
_cell_angle_gamma 120.000000
_cell_volume 7776.843120
_symmetry_space_group_name_H-M "P 63/M C M"
_symmetry_group_IT_number 193
_symmetry_cell_setting 'hexagonal'
loop_
_space_group_symop_operation_xyz
x,y,z
x-y,x,1/2+z
-y,x-y,z
-x,-y,1/2+z
-x+y,-x,z
y,-x+y,1/2+z
x-y,-y,1/2-z
-x,-x+y,1/2-z
y,x,1/2-z
-y,-x,-z
-x+y,y,-z
x,x-y,-z
-x,-y,-z
-x+y,-x,1/2-z
y,-x+y,-z
x,y,1/2-z
x-y,x,-z
-y,x-y,1/2-z
-x+y,y,1/2+z
x,x-y,1/2+z
-y,-x,1/2+z
y,x,z
x-y,-y,z
-x,-x+y,z
loop_
_atom_site_type_symbol
_atom_site_label
_atom_site_fract_x
_atom_site_fract_y
_atom_site_fract_z
Si Si1 0.637602 0.096562 0.446829
Si Si2 0.595523 0.103479 0.614047
Si Si3 0.234745 0.896670 0.406377
Si Si4 0.256393 0.352779 0.357602
Si Si5 0.196364 0.803637 0.500000
Si Si6 0.104107 0.497441 0.698169
O O1 0.575758 0.133864 0.429238
O O2 0.691266 0.090598 0.403900
O O3 0.703671 0.160156 0.485510
O O4 0.580059 0.000000 0.469141
O O5 0.695924 0.135292 0.604482
O O6 0.580294 0.141196 0.662804
O O7 0.540516 0.000000 0.616700
O O8 0.159770 0.846993 0.367187
O O9 0.195240 0.864659 0.458147
O O10 0.274174 0.000000 0.401434
O O11 0.273114 0.273114 0.344818
O O12 0.294150 0.426765 0.317208
O O13 0.140766 0.532104 0.750000
O O14 0.000000 0.448030 0.697310
#
# Coordination Sequence:
#
# PCOD8329771 Si02
#       6
#    24  24  24  24  12  24
#     4   8  14  26  42  59  81 109 144 186 226 267
#     4   8  15  27  43  64  88 112 140 180 229 275
#     4  10  19  30  46  67  91 120 156 202 250 287
#     4   8  15  28  46  67  90 118 154 194 234 281
#     4  10  18  26  40  62  85 118 161 192 224 282
#     4   8  13  25  48  72  90 114 148 179 211 264
#
# _framework density 16.973466999999999
#
# number of rings (size 3 to 8) (size 9 to 14) (size 15 to 20)
#    0.000    3.455    0.000    2.727    0.000    1.455 
#    0.000    3.636    0.000   28.182    0.000    0.636 
#    0.000    0.000    0.000    0.000    0.000    0.364 
#
# Total GULP energy -1635478.535155 kJ/mol
# GULP energy per Si atom -12389.988903 kJ/mol
# Density = 1.693484 g / cm^3
# Si number density = 16.973467 Si / 1000 Ang^3
#
#
#
# Elastic Constant Matrix: (Units=GPa)
#
#
# Indices 1 2 3 4 5 6 
#
# 1 66.1013 30.3795 22.2820 0.0000 0.0000 0.0000
# 2 30.3795 66.1013 22.2820 0.0000 0.0000 0.0000
# 3 22.2820 22.2820 62.5108 0.0000 0.0000 0.0000
# 4 0.0000 0.0000 0.0000 16.4733 0.0000 0.0000
# 5 0.0000 0.0000 0.0000 0.0000 16.4733 0.0000
# 6 0.0000 0.0000 0.0000 0.0000 0.0000 17.8609
#
#
#
# Elastic Compliance Matrix: (Units=1/GPa)
#
#
# Indices 1 2 3 4 5 6 
#
# 1 0.020201 -0.007793 -0.004423 0.000000 0.000000 0.000000
# 2 -0.007793 0.020201 -0.004423 0.000000 0.000000 0.000000
# 3 -0.004423 -0.004423 0.019150 0.000000 0.000000 0.000000
# 4 0.000000 0.000000 0.000000 0.060704 0.000000 0.000000
# 5 0.000000 0.000000 0.000000 0.000000 0.060704 0.000000
# 6 0.000000 0.000000 0.000000 0.000000 0.000000 0.055988
#
#
# Mechanical properties :
#
#
# Convention : Reuss Voigt Hill
#
# Bulk Modulus (GPa) = 38.05962 38.28895 38.17428
# Shear Modulus (GPa) = 17.92215 18.14614 18.03414
#
# Velocity S-wave (km/s) = 3.25297 3.27324 3.26312
# Velocity P-wave (km/s) = 6.04821 6.07392 6.06108
#
# Compressibility (1/GPa) = 0.02627457
#
# Stress axis : x y z
#
# Youngs Moduli (GPa) = 49.50288 49.50288 52.21884
#
# Poissons Ratio (x) = 0.38579 0.23095
# Poissons Ratio (y) = 0.38579 0.23095
# Poissons Ratio (z) = 0.21894 0.21894
#
# Static dielectric constant tensor:
#      x y z
#    x 3.206020 0.000000 0.000000 
#    y 0.000000 3.206020 0.000000 
#    z 0.000000 0.000000 3.387460 
# 
# 
# High freq. dielectric constant tensor:
#      x y z
#    x 1.624400 0.000000 0.000000 
#    y 0.000000 1.624400 0.000000 
#    z 0.000000 0.000000 1.650190 
# 
# From -- ./inp_files/9165.got.cif
#   From: 2010.03.12/outbox.cif.g09.slc.cpg/sg193_5_cif.got.tgz:9165.got - 2010.04.01 12:20:39.
