data_PCOD8329727
_publ_section_title
;
Structure prediction by ZEFSAII (Michael W. Deem and Ramdas Pophale) SiO2 
 PCOD8329727
Probable space group: P 6/M C C
;
_chemical_formula_sum "Si O2"
_cell_formula_units_Z 96
_cell_length_a 27.406244
_cell_length_b 27.406244
_cell_length_c 9.448608
_cell_angle_alpha 90.000000
_cell_angle_beta 90.000000
_cell_angle_gamma 120.000000
_cell_volume 6146.070012
_symmetry_space_group_name_H-M "P 6/M C C"
_symmetry_group_IT_number 192
_symmetry_cell_setting 'hexagonal'
loop_
_space_group_symop_operation_xyz
x,y,z
x-y,x,z
-y,x-y,z
-x,-y,z
-x+y,-x,z
y,-x+y,z
x-y,-y,1/2-z
-x,-x+y,1/2-z
y,x,1/2-z
-y,-x,1/2-z
-x+y,y,1/2-z
x,x-y,1/2-z
-x,-y,-z
-x+y,-x,-z
y,-x+y,-z
x,y,-z
x-y,x,-z
-y,x-y,-z
-x+y,y,1/2+z
x,x-y,1/2+z
-y,-x,1/2+z
y,x,1/2+z
x-y,-y,1/2+z
-x,-x+y,1/2+z
loop_
_atom_site_type_symbol
_atom_site_label
_atom_site_fract_x
_atom_site_fract_y
_atom_site_fract_z
Si Si1 0.056305 0.378390 0.837326
Si Si2 0.941031 0.513773 0.833426
Si Si3 0.183789 0.183789 0.250000
Si Si4 0.895696 0.874716 0.000000
Si Si5 0.699567 0.801851 0.839085
O O1 0.087405 0.446718 0.817025
O O2 0.095598 0.353326 0.789219
O O3 0.000000 0.347899 0.750000
O O4 0.038736 0.362360 0.000000
O O5 0.906441 0.453221 0.750000
O O6 0.000000 0.546267 0.750000
O O7 0.948522 0.504571 0.000000
O O8 0.134099 0.163858 0.135682
O O9 0.241232 0.195735 0.177691
O O10 0.891777 0.931143 0.000000
O O11 0.697099 0.848550 0.750000
O O12 0.692344 0.813945 0.000000
#
# Coordination Sequence:
#
# PCOD8329727 Si02
#       5
#    24  24  12  12  24
#     4   9  18  31  45  67  92 119 152 188 225 267
#     4   9  15  24  40  61  90 121 150 179 208 241
#     4  12  24  38  55  74  91 110 148 186 232 298
#     4  12  25  42  58  74  90 110 133 180 244 314
#     4  11  23  37  53  71  92 119 153 194 241 288
#
# _framework density 15.619737000000001
#
# number of rings (size 3 to 8) (size 9 to 14) (size 15 to 20)
#    0.000    1.750    2.500    3.875    1.750    2.000 
#    0.000    1.250    0.000    0.000    0.000    0.000 
#    0.000    0.000    0.000    0.750    0.000    9.000 
#
# Total GULP energy -1189508.272541 kJ/mol
# GULP energy per Si atom -12390.711172 kJ/mol
# Density = 1.558419 g / cm^3
# Si number density = 15.619737 Si / 1000 Ang^3
#
#
#
# Elastic Constant Matrix: (Units=GPa)
#
#
# Indices 1 2 3 4 5 6 
#
# 1 73.2544 35.8554 18.3578 0.0000 0.0000 0.0000
# 2 35.8554 73.2544 18.3578 0.0000 0.0000 0.0000
# 3 18.3578 18.3578 62.0846 0.0000 0.0000 0.0000
# 4 0.0000 0.0000 0.0000 21.6779 0.0000 0.0000
# 5 0.0000 0.0000 0.0000 0.0000 21.6779 0.0000
# 6 0.0000 0.0000 0.0000 0.0000 0.0000 18.6995
#
#
#
# Elastic Compliance Matrix: (Units=1/GPa)
#
#
# Indices 1 2 3 4 5 6 
#
# 1 0.018458 -0.008280 -0.003009 0.000000 0.000000 0.000000
# 2 -0.008280 0.018458 -0.003009 0.000000 0.000000 0.000000
# 3 -0.003009 -0.003009 0.017887 0.000000 0.000000 0.000000
# 4 0.000000 0.000000 0.000000 0.046130 0.000000 0.000000
# 5 0.000000 0.000000 0.000000 0.000000 0.046130 0.000000
# 6 0.000000 0.000000 0.000000 0.000000 0.000000 0.053477
#
#
# Mechanical properties :
#
#
# Convention : Reuss Voigt Hill
#
# Bulk Modulus (GPa) = 38.16144 39.30393 38.73268
# Shear Modulus (GPa) = 21.01953 21.47922 21.24937
#
# Velocity S-wave (km/s) = 3.67236 3.71230 3.69239
# Velocity P-wave (km/s) = 6.51661 6.60246 6.55968
#
# Compressibility (1/GPa) = 0.02620446
#
# Stress axis : x y z
#
# Youngs Moduli (GPa) = 54.17639 54.17639 55.90719
#
# Poissons Ratio (x) = 0.44860 0.16825
# Poissons Ratio (y) = 0.44860 0.16825
# Poissons Ratio (z) = 0.16304 0.16304
#
# Static dielectric constant tensor:
#      x y z
#    x 3.311280 0.000000 0.000000 
#    y 0.000000 3.311280 0.000000 
#    z 0.000000 0.000000 3.230690 
# 
# 
# High freq. dielectric constant tensor:
#      x y z
#    x 1.577450 0.000000 0.000000 
#    y 0.000000 1.577450 0.000000 
#    z 0.000000 0.000000 1.620420 
# 
# From -- ./inp_files/931.got.cif
#   From: 2010.03.12/outbox.cif.g09.slc.cpg/sg192_1_cif.got.tgz:931.got - 2010.04.01 12:16:15.
