data_PCOD8329784
_publ_section_title
;
Structure prediction by ZEFSAII (Michael W. Deem and Ramdas Pophale) SiO2 
 PCOD8329784
Probable space group: P 63/M C M
;
_chemical_formula_sum "Si O2"
_cell_formula_units_Z 144
_cell_length_a 21.760538
_cell_length_b 21.760538
_cell_length_c 21.162827
_cell_angle_alpha 90.000000
_cell_angle_beta 90.000000
_cell_angle_gamma 120.000000
_cell_volume 8678.478071
_symmetry_space_group_name_H-M "P 63/M C M"
_symmetry_group_IT_number 193
_symmetry_cell_setting 'hexagonal'
loop_
_space_group_symop_operation_xyz
x,y,z
x-y,x,1/2+z
-y,x-y,z
-x,-y,1/2+z
-x+y,-x,z
y,-x+y,1/2+z
x-y,-y,1/2-z
-x,-x+y,1/2-z
y,x,1/2-z
-y,-x,-z
-x+y,y,-z
x,x-y,-z
-x,-y,-z
-x+y,-x,1/2-z
y,-x+y,-z
x,y,1/2-z
x-y,x,-z
-y,x-y,1/2-z
-x+y,y,1/2+z
x,x-y,1/2+z
-y,-x,1/2+z
y,x,z
x-y,-y,z
-x,-x+y,z
loop_
_atom_site_type_symbol
_atom_site_label
_atom_site_fract_x
_atom_site_fract_y
_atom_site_fract_z
Si Si1 0.078302 0.689378 0.823471
Si Si2 0.160842 0.080823 0.925883
Si Si3 0.528817 0.084597 0.179645
Si Si4 0.495555 0.084071 0.947559
Si Si5 0.726092 0.082351 0.031097
Si Si6 0.317032 0.134786 0.406207
O O1 0.070674 0.695450 0.750000
O O2 0.110366 0.637820 0.837500
O O3 0.129267 0.768520 0.848106
O O4 0.000000 0.656385 0.855254
O O5 0.100055 0.100055 0.910470
O O6 0.233168 0.135901 0.890513
O O7 0.132460 0.000000 0.903738
O O8 0.178884 0.089442 0.000000
O O9 0.562895 0.112935 0.250000
O O10 0.587315 0.112876 0.123444
O O11 0.485937 0.000000 0.182337
O O12 0.439369 0.107310 0.968786
O O13 0.460034 0.000000 0.946294
O O14 0.557952 0.115904 0.000000
O O15 0.782446 0.127637 0.084574
O O16 0.691194 0.000000 0.048667
O O17 0.765399 0.097272 0.964693
#
# Coordination Sequence:
#
# PCOD8329784 Si02
#       6
#    24  24  24  24  24  24
#     4   9  17  29  46  67  89 115 149 188 227 270
#     4  10  18  28  42  61  84 116 161 209 251 290
#     4   8  14  26  44  65  88 112 139 171 209 256
#     4   9  16  26  42  64  89 114 139 170 210 260
#     4  10  19  29  42  64  93 122 149 180 226 284
#     4  11  19  28  45  63  92 124 152 190 242 293
#
# _framework density 16.592770999999999
#
# number of rings (size 3 to 8) (size 9 to 14) (size 15 to 20)
#    0.000    2.500    1.667    4.167    0.000    3.333 
#    0.000    0.833    0.000    3.000    0.000    0.000 
#   43.333    1.333    0.000    0.000    0.000    0.000 
#
# Total GULP energy -1784776.235573 kJ/mol
# GULP energy per Si atom -12394.279414 kJ/mol
# Density = 1.655500 g / cm^3
# Si number density = 16.592771 Si / 1000 Ang^3
#
#
#
# Elastic Constant Matrix: (Units=GPa)
#
#
# Indices 1 2 3 4 5 6 
#
# 1 83.1910 35.3598 26.9853 0.0000 0.0000 0.0000
# 2 35.3598 83.1910 26.9853 0.0000 0.0000 0.0000
# 3 26.9853 26.9853 53.4369 0.0000 0.0000 0.0000
# 4 0.0000 0.0000 0.0000 18.0708 0.0000 0.0000
# 5 0.0000 0.0000 0.0000 0.0000 18.0708 0.0000
# 6 0.0000 0.0000 0.0000 0.0000 0.0000 23.9156
#
#
#
# Elastic Compliance Matrix: (Units=1/GPa)
#
#
# Indices 1 2 3 4 5 6 
#
# 1 0.015930 -0.004977 -0.005531 0.000000 0.000000 0.000000
# 2 -0.004977 0.015930 -0.005531 0.000000 0.000000 0.000000
# 3 -0.005531 -0.005531 0.024300 0.000000 0.000000 0.000000
# 4 0.000000 0.000000 0.000000 0.055338 0.000000 0.000000
# 5 0.000000 0.000000 0.000000 0.000000 0.055338 0.000000
# 6 0.000000 0.000000 0.000000 0.000000 0.000000 0.041814
#
#
# Mechanical properties :
#
#
# Convention : Reuss Voigt Hill
#
# Bulk Modulus (GPa) = 41.52564 44.27551 42.90057
# Shear Modulus (GPa) = 20.10002 20.71070 20.40536
#
# Velocity S-wave (km/s) = 3.48425 3.53679 3.51062
# Velocity P-wave (km/s) = 6.42397 6.58939 6.50720
#
# Compressibility (1/GPa) = 0.02408151
#
# Stress axis : x y z
#
# Youngs Moduli (GPa) = 62.77421 62.77421 41.15180
#
# Poissons Ratio (x) = 0.31241 0.22763
# Poissons Ratio (y) = 0.31241 0.22763
# Poissons Ratio (z) = 0.34723 0.34723
#
# Static dielectric constant tensor:
#      x y z
#    x 3.185440 0.000000 0.000000 
#    y 0.000000 3.185440 0.000000 
#    z 0.000000 0.000000 3.137930 
# 
# 
# High freq. dielectric constant tensor:
#      x y z
#    x 1.621230 0.000000 0.000000 
#    y 0.000000 1.621230 0.000000 
#    z 0.000000 0.000000 1.616740 
# 
# From -- ./inp_files/6603.got.cif
#   From: 2010.03.12/outbox.cif.g09.slc.cpg/sg193_4_cif.got.tgz:6603.got - 2010.04.01 12:20:39.
