data_PCOD8329714
_publ_section_title
;
Structure prediction by ZEFSAII (Michael W. Deem and Ramdas Pophale) SiO2 
 PCOD8329714
Probable space group: P 6/M C C
;
_chemical_formula_sum "Si O2"
_cell_formula_units_Z 104
_cell_length_a 18.430227
_cell_length_b 18.430227
_cell_length_c 18.402237
_cell_angle_alpha 90.000000
_cell_angle_beta 90.000000
_cell_angle_gamma 120.000000
_cell_volume 5413.306532
_symmetry_space_group_name_H-M "P 6/M C C"
_symmetry_group_IT_number 192
_symmetry_cell_setting 'hexagonal'
loop_
_space_group_symop_operation_xyz
x,y,z
x-y,x,z
-y,x-y,z
-x,-y,z
-x+y,-x,z
y,-x+y,z
x-y,-y,1/2-z
-x,-x+y,1/2-z
y,x,1/2-z
-y,-x,1/2-z
-x+y,y,1/2-z
x,x-y,1/2-z
-x,-y,-z
-x+y,-x,-z
y,-x+y,-z
x,y,-z
x-y,x,-z
-y,x-y,-z
-x+y,y,1/2+z
x,x-y,1/2+z
-y,-x,1/2+z
y,x,1/2+z
x-y,-y,1/2+z
-x,-x+y,1/2+z
loop_
_atom_site_type_symbol
_atom_site_label
_atom_site_fract_x
_atom_site_fract_y
_atom_site_fract_z
Si Si1 0.977145 0.572518 0.329418
Si Si2 0.636482 0.903022 0.585910
Si Si3 0.333334 0.666667 0.836134
Si Si4 0.479862 0.265661 0.332833
Si Si5 0.821307 0.959670 0.586490
O O1 0.879465 0.537408 0.342888
O O2 0.000000 0.500000 0.334856
O O3 0.000000 0.614543 0.250000
O O4 0.033223 0.639650 0.389477
O O5 0.629134 0.894526 0.500000
O O6 0.583357 0.811116 0.618532
O O7 0.731057 0.940322 0.613706
O O8 0.333334 0.666667 0.750000
O O9 0.297554 0.572491 0.864302
O O10 0.471436 0.235718 0.250000
O O11 0.840446 0.889714 0.618256
O O12 0.824954 0.959981 0.500000
#
# Coordination Sequence:
#
# PCOD8329714 Si02
#       5
#    24  24   8  24  24
#     4  11  23  39  64  91 123 164 210 260 313 381
#     4  11  23  39  60  91 127 163 204 259 319 375
#     4   9  21  36  64  89 115 162 208 263 310 375
#     4  11  21  39  63  91 122 160 211 260 318 381
#     4   9  17  31  53  81 114 153 197 243 296 358
#
# _framework density 19.211919000000002
#
# number of rings (size 3 to 8) (size 9 to 14) (size 15 to 20)
#    0.000    1.615    2.308    3.000    6.462    4.154 
#    0.000    3.462    0.000    0.000    0.000    0.000 
#    0.000    0.000    0.000    0.000    0.000    0.000 
#
# Total GULP energy -1289860.026984 kJ/mol
# GULP energy per Si atom -12402.500259 kJ/mol
# Density = 1.916819 g / cm^3
# Si number density = 19.211919 Si / 1000 Ang^3
#
#
#
# Elastic Constant Matrix: (Units=GPa)
#
#
# Indices 1 2 3 4 5 6 
#
# 1 139.4155 55.8752 38.6979 0.0001 0.0000 -0.0001
# 2 55.8752 139.4141 38.6980 0.0001 0.0000 -0.0002
# 3 38.6979 38.6980 60.5464 0.0000 0.0000 0.0000
# 4 0.0001 0.0001 0.0000 24.6814 0.0000 0.0000
# 5 0.0000 0.0000 0.0000 0.0000 24.6814 0.0000
# 6 -0.0001 -0.0002 0.0000 0.0000 0.0000 41.7701
#
#
#
# Elastic Compliance Matrix: (Units=1/GPa)
#
#
# Indices 1 2 3 4 5 6 
#
# 1 0.009414 -0.002556 -0.004383 0.000000 0.000000 0.000000
# 2 -0.002556 0.009414 -0.004383 0.000000 0.000000 0.000000
# 3 -0.004383 -0.004383 0.022119 0.000000 0.000000 0.000000
# 4 0.000000 0.000000 0.000000 0.040516 0.000000 0.000000
# 5 0.000000 0.000000 0.000000 0.000000 0.040516 0.000000
# 6 0.000000 0.000000 0.000000 0.000000 0.000000 0.023941
#
#
# Mechanical properties :
#
#
# Convention : Reuss Voigt Hill
#
# Bulk Modulus (GPa) = 54.63823 67.32425 60.98124
# Shear Modulus (GPa) = 28.62610 31.96692 30.29651
#
# Velocity S-wave (km/s) = 3.86426 4.08353 3.97541
# Velocity P-wave (km/s) = 6.95784 7.57315 7.27201
#
# Compressibility (1/GPa) = 0.01830220
#
# Stress axis : x y z
#
# Youngs Moduli (GPa) = 106.22543 106.22397 45.20994
#
# Poissons Ratio (x) = 0.27155 0.19815
# Poissons Ratio (y) = 0.27155 0.19816
# Poissons Ratio (z) = 0.46558 0.46559
#
# Static dielectric constant tensor:
#      x y z
#    x 3.745550 0.000000 0.000000 
#    y 0.000000 3.745550 0.000000 
#    z 0.000000 0.000000 3.227460 
# 
# 
# High freq. dielectric constant tensor:
#      x y z
#    x 1.768150 0.000000 0.000000 
#    y 0.000000 1.768150 0.000000 
#    z 0.000000 0.000000 1.711910 
# 
# From -- ./inp_files/4846.got.cif
#   From: 2010.03.12/outbox.cif.g09.slc.cpg/sg192_3_cif.got.tgz:4846.got - 2010.04.01 12:16:15.
