data_PCOD8329549
_publ_section_title
;
Structure prediction by ZEFSAII (Michael W. Deem and Ramdas Pophale) SiO2 
 PCOD8329549
Probable space group: P 6/M C C
;
_chemical_formula_sum "Si O2"
_cell_formula_units_Z 144
_cell_length_a 24.213783
_cell_length_b 24.213783
_cell_length_c 17.412666
_cell_angle_alpha 90.000000
_cell_angle_beta 90.000000
_cell_angle_gamma 120.000000
_cell_volume 8841.403139
_symmetry_space_group_name_H-M "P 6/M C C"
_symmetry_group_IT_number 192
_symmetry_cell_setting 'hexagonal'
loop_
_space_group_symop_operation_xyz
x,y,z
x-y,x,z
-y,x-y,z
-x,-y,z
-x+y,-x,z
y,-x+y,z
x-y,-y,1/2-z
-x,-x+y,1/2-z
y,x,1/2-z
-y,-x,1/2-z
-x+y,y,1/2-z
x,x-y,1/2-z
-x,-y,-z
-x+y,-x,-z
y,-x+y,-z
x,y,-z
x-y,x,-z
-y,x-y,-z
-x+y,y,1/2+z
x,x-y,1/2+z
-y,-x,1/2+z
y,x,1/2+z
x-y,-y,1/2+z
-x,-x+y,1/2+z
loop_
_atom_site_type_symbol
_atom_site_label
_atom_site_fract_x
_atom_site_fract_y
_atom_site_fract_z
Si Si1 0.546817 0.472322 0.583417
Si Si2 0.654166 0.572880 0.090210
Si Si3 0.956922 0.372135 0.319746
Si Si4 0.762004 0.826760 0.292778
Si Si5 0.385223 0.133280 0.777834
Si Si6 0.138344 0.033361 0.909960
O O1 0.500000 0.500000 0.575385
O O2 0.579371 0.477763 0.500000
O O3 0.501142 0.398694 0.606101
O O4 0.600755 0.513214 0.646744
O O5 0.630991 0.623273 0.115705
O O6 0.711903 0.580605 0.143608
O O7 0.672877 0.584729 0.000000
O O8 0.909567 0.300327 0.290364
O O9 0.000000 0.417012 0.250000
O O10 0.779608 0.779608 0.250000
O O11 0.788312 0.894156 0.250000
O O12 0.687081 0.792383 0.302540
O O13 0.793943 0.842272 0.376373
O O14 0.413261 0.206631 0.750000
O O15 0.118954 0.083970 0.880548
O O16 0.146028 0.035468 0.000000
#
# Coordination Sequence:
#
# PCOD8329549 Si02
#       6
#    24  24  24  24  24  24
#     4   8  14  25  46  76 103 120 139 180 233 283
#     4   9  17  31  50  72  99 126 155 195 245 289
#     4   9  16  28  47  72  98 123 157 192 239 280
#     4  11  20  33  49  64  85 118 160 196 235 291
#     4  10  22  34  45  63  97 137 171 198 227 271
#     4  10  20  34  51  71  88 103 135 199 274 325
#
# _framework density 16.287008
#
# number of rings (size 3 to 8) (size 9 to 14) (size 15 to 20)
#    0.000    2.500    1.667    3.167    0.000    9.000 
#    0.000    1.667    0.000    1.000    0.000    0.000 
#    6.667    0.000    0.000    0.000    0.000    0.000 
#
# Total GULP energy -1784407.046947 kJ/mol
# GULP energy per Si atom -12391.715604 kJ/mol
# Density = 1.624994 g / cm^3
# Si number density = 16.287008 Si / 1000 Ang^3
#
#
#
# Elastic Constant Matrix: (Units=GPa)
#
#
# Indices 1 2 3 4 5 6 
#
# 1 74.8685 36.0845 47.4448 0.0000 0.0000 0.0000
# 2 36.0845 74.8685 47.4448 0.0000 0.0000 0.0000
# 3 47.4448 47.4448 92.5435 0.0000 0.0000 0.0000
# 4 0.0000 0.0000 0.0000 16.1279 0.0000 0.0000
# 5 0.0000 0.0000 0.0000 0.0000 16.1279 0.0000
# 6 0.0000 0.0000 0.0000 0.0000 0.0000 19.3920
#
#
#
# Elastic Compliance Matrix: (Units=1/GPa)
#
#
# Indices 1 2 3 4 5 6 
#
# 1 0.020917 -0.004867 -0.008228 0.000000 0.000000 0.000000
# 2 -0.004867 0.020917 -0.008228 0.000000 0.000000 0.000000
# 3 -0.008228 -0.008228 0.019243 0.000000 0.000000 0.000000
# 4 0.000000 0.000000 0.000000 0.062004 0.000000 0.000000
# 5 0.000000 0.000000 0.000000 0.000000 0.062004 0.000000
# 6 0.000000 0.000000 0.000000 0.000000 0.000000 0.051568
#
#
# Mechanical properties :
#
#
# Convention : Reuss Voigt Hill
#
# Bulk Modulus (GPa) = 54.26234 56.02541 55.14387
# Shear Modulus (GPa) = 17.51658 17.74997 17.63328
#
# Velocity S-wave (km/s) = 3.28303 3.30483 3.29395
# Velocity P-wave (km/s) = 6.91084 7.00257 6.95686
#
# Compressibility (1/GPa) = 0.01842899
#
# Stress axis : x y z
#
# Youngs Moduli (GPa) = 47.80819 47.80819 51.96752
#
# Poissons Ratio (x) = 0.23268 0.42761
# Poissons Ratio (y) = 0.23268 0.42761
# Poissons Ratio (z) = 0.39339 0.39339
#
# Static dielectric constant tensor:
#      x y z
#    x 3.099590 0.000000 0.000000 
#    y 0.000000 3.099590 0.000000 
#    z 0.000000 0.000000 3.232480 
# 
# 
# High freq. dielectric constant tensor:
#      x y z
#    x 1.602090 0.000000 0.000000 
#    y 0.000000 1.602090 0.000000 
#    z 0.000000 0.000000 1.634570 
# 
# From -- ./inp_files/4334.got.cif
#   From: 2010.03.12/outbox.cif.g09.slc.cpg/sg192_3_cif.got.tgz:4334.got - 2010.04.01 12:16:15.
