data_PCOD8329599
_publ_section_title
;
Structure prediction by ZEFSAII (Michael W. Deem and Ramdas Pophale) SiO2 
 PCOD8329599
Probable space group: P 6/M C C
;
_chemical_formula_sum "Si O2"
_cell_formula_units_Z 104
_cell_length_a 19.504414
_cell_length_b 19.504414
_cell_length_c 17.229240
_cell_angle_alpha 90.000000
_cell_angle_beta 90.000000
_cell_angle_gamma 120.000000
_cell_volume 5676.263735
_symmetry_space_group_name_H-M "P 6/M C C"
_symmetry_group_IT_number 192
_symmetry_cell_setting 'hexagonal'
loop_
_space_group_symop_operation_xyz
x,y,z
x-y,x,z
-y,x-y,z
-x,-y,z
-x+y,-x,z
y,-x+y,z
x-y,-y,1/2-z
-x,-x+y,1/2-z
y,x,1/2-z
-y,-x,1/2-z
-x+y,y,1/2-z
x,x-y,1/2-z
-x,-y,-z
-x+y,-x,-z
y,-x+y,-z
x,y,-z
x-y,x,-z
-y,x-y,-z
-x+y,y,1/2+z
x,x-y,1/2+z
-y,-x,1/2+z
y,x,1/2+z
x-y,-y,1/2+z
-x,-x+y,1/2+z
loop_
_atom_site_type_symbol
_atom_site_label
_atom_site_fract_x
_atom_site_fract_y
_atom_site_fract_z
Si Si1 0.211249 0.717176 0.408734
Si Si2 0.714918 0.716889 0.407709
Si Si3 0.038917 0.586947 0.591022
Si Si4 0.836136 0.166124 0.658527
Si Si5 0.666668 0.333334 0.407661
O O1 0.217700 0.736092 0.500000
O O2 0.131868 0.635122 0.389657
O O3 0.212393 0.790203 0.365349
O O4 0.283991 0.707584 0.377831
O O5 0.719998 0.718724 0.500000
O O6 0.635602 0.638098 0.377844
O O7 0.715176 0.793408 0.375804
O O8 0.790839 0.715121 0.375163
O O9 0.024399 0.575955 0.500000
O O10 0.000000 0.500000 0.630726
O O11 0.838627 0.161374 0.750000
O O12 0.666667 0.333334 0.500000
#
# Coordination Sequence:
#
# PCOD8329599 Si02
#       5
#    24  24  24  24   8
#     4   9  18  32  50  76 105 140 191 235 276 325
#     4  10  20  36  60  84 109 142 187 233 274 326
#     4   8  15  27  48  77 102 131 177 234 280 311
#     4  11  22  37  56  82 116 148 179 221 282 341
#     4   9  18  30  52  77 100 141 196 245 277 315
#
# _framework density 18.321911
#
# number of rings (size 3 to 8) (size 9 to 14) (size 15 to 20)
#    0.000    2.538    0.000    4.154    3.231    0.000 
#    0.000    1.154    0.000    1.846    0.000    3.231 
#    0.000    0.000    0.000    0.000    0.000    0.000 
#
# Total GULP energy -1289456.420431 kJ/mol
# GULP energy per Si atom -12398.619427 kJ/mol
# Density = 1.828021 g / cm^3
# Si number density = 18.321911 Si / 1000 Ang^3
#
#
#
# Elastic Constant Matrix: (Units=GPa)
#
#
# Indices 1 2 3 4 5 6 
#
# 1 123.5664 89.6388 42.7796 0.0000 -0.0001 -0.0001
# 2 89.6388 123.5678 42.7797 0.0000 0.0000 0.0002
# 3 42.7796 42.7797 81.4404 0.0000 0.0000 0.0000
# 4 0.0000 0.0000 0.0000 13.5470 0.0000 0.0000
# 5 -0.0001 0.0000 0.0000 0.0000 13.5474 0.0000
# 6 -0.0001 0.0002 0.0000 0.0000 0.0000 16.9645
#
#
#
# Elastic Compliance Matrix: (Units=1/GPa)
#
#
# Indices 1 2 3 4 5 6 
#
# 1 0.017709 -0.011765 -0.003122 0.000000 0.000000 0.000000
# 2 -0.011765 0.017708 -0.003122 0.000000 0.000000 0.000000
# 3 -0.003122 -0.003122 0.015559 0.000000 0.000000 0.000000
# 4 0.000000 0.000000 0.000000 0.073817 0.000000 0.000000
# 5 0.000000 0.000000 0.000000 0.000000 0.073815 0.000000
# 6 0.000000 0.000000 0.000000 0.000000 0.000000 0.058947
#
#
# Mechanical properties :
#
#
# Convention : Reuss Voigt Hill
#
# Bulk Modulus (GPa) = 66.85613 75.44118 71.14865
# Shear Modulus (GPa) = 16.74715 19.03688 17.89202
#
# Velocity S-wave (km/s) = 3.02661 3.22688 3.12835
# Velocity P-wave (km/s) = 6.98446 7.42620 7.20872
#
# Compressibility (1/GPa) = 0.01495749
#
# Stress axis : x y z
#
# Youngs Moduli (GPa) = 56.46970 56.47043 64.27297
#
# Poissons Ratio (x) = 0.66440 0.20065
# Poissons Ratio (y) = 0.66439 0.20065
# Poissons Ratio (z) = 0.17629 0.17629
#
# Static dielectric constant tensor:
#      x y z
#    x 3.412480 0.000000 0.000000 
#    y 0.000000 3.412480 0.000000 
#    z 0.000000 0.000000 3.077340 
# 
# 
# High freq. dielectric constant tensor:
#      x y z
#    x 1.709630 0.000000 0.000000 
#    y 0.000000 1.709630 0.000000 
#    z 0.000000 0.000000 1.681090 
# 
# From -- ./inp_files/2860.got.cif
#   From: 2010.03.12/outbox.cif.g09.slc.cpg/sg192_2_cif.got.tgz:2860.got - 2010.04.01 12:16:15.
