data_PCOD8329849
_publ_section_title
;
Structure prediction by ZEFSAII (Michael W. Deem and Ramdas Pophale) SiO2 
 PCOD8329849
Probable space group: P 63/M C M
;
_chemical_formula_sum "Si O2"
_cell_formula_units_Z 120
_cell_length_a 18.116013
_cell_length_b 18.116013
_cell_length_c 22.671624
_cell_angle_alpha 90.000000
_cell_angle_beta 90.000000
_cell_angle_gamma 120.000000
_cell_volume 6443.747429
_symmetry_space_group_name_H-M "P 63/M C M"
_symmetry_group_IT_number 193
_symmetry_cell_setting 'hexagonal'
loop_
_space_group_symop_operation_xyz
x,y,z
x-y,x,1/2+z
-y,x-y,z
-x,-y,1/2+z
-x+y,-x,z
y,-x+y,1/2+z
x-y,-y,1/2-z
-x,-x+y,1/2-z
y,x,1/2-z
-y,-x,-z
-x+y,y,-z
x,x-y,-z
-x,-y,-z
-x+y,-x,1/2-z
y,-x+y,-z
x,y,1/2-z
x-y,x,-z
-y,x-y,1/2-z
-x+y,y,1/2+z
x,x-y,1/2+z
-y,-x,1/2+z
y,x,z
x-y,-y,z
-x,-x+y,z
loop_
_atom_site_type_symbol
_atom_site_label
_atom_site_fract_x
_atom_site_fract_y
_atom_site_fract_z
Si Si1 0.096824 0.629573 0.985102
Si Si2 0.421567 0.095227 0.614385
Si Si3 0.470403 0.902946 0.815295
Si Si4 0.842433 0.579139 0.870219
Si Si5 0.091459 0.000000 0.180791
Si Si6 0.255642 0.255642 0.821252
O O1 0.150800 0.701515 0.936747
O O2 0.000000 0.570935 0.961224
O O3 0.135545 0.567773 0.000000
O O4 0.098421 0.678994 0.043947
O O5 0.513211 0.112641 0.636043
O O6 0.409295 0.170414 0.639975
O O7 0.348555 0.000000 0.636031
O O8 0.429492 0.884794 0.750000
O O9 0.506275 0.839100 0.827533
O O10 0.548866 0.000000 0.819825
O O11 0.919016 0.668312 0.850976
O O12 0.000000 0.916205 0.163162
O O13 0.104090 0.000000 0.250000
O O14 0.172090 0.000000 0.152986
O O15 0.263362 0.263362 0.750000
#
# Coordination Sequence:
#
# PCOD8329849 Si02
#       6
#    24  24  24  24  12  12
#     4  10  18  36  63  85 108 145 194 243 285 335
#     4  10  23  39  59  86 119 153 190 239 301 348
#     4  10  20  38  60  81 112 156 196 233 282 347
#     4  12  21  36  59  88 116 150 197 244 289 348
#     4   7  14  32  54  77 113 159 193 237 296 339
#     4  11  22  34  57  91 119 153 205 243 285 357
#
# _framework density 18.622703999999999
#
# number of rings (size 3 to 8) (size 9 to 14) (size 15 to 20)
#    0.200    1.600    4.000    1.200    0.000    2.400 
#    1.200    0.000    0.000    0.000    0.000    0.000 
#    0.000    1.600    0.000    0.000    0.000    0.000 
#
# Total GULP energy -1487063.298494 kJ/mol
# GULP energy per Si atom -12392.194154 kJ/mol
# Density = 1.858032 g / cm^3
# Si number density = 18.622704 Si / 1000 Ang^3
#
#
#
# Elastic Constant Matrix: (Units=GPa)
#
#
# Indices 1 2 3 4 5 6 
#
# 1 117.4216 63.2894 27.4002 0.0000 0.0000 0.0000
# 2 63.2894 117.4216 27.4002 0.0000 0.0000 0.0000
# 3 27.4002 27.4002 82.6191 0.0000 0.0000 0.0000
# 4 0.0000 0.0000 0.0000 15.4992 0.0000 0.0000
# 5 0.0000 0.0000 0.0000 0.0000 15.4992 0.0000
# 6 0.0000 0.0000 0.0000 0.0000 0.0000 27.0661
#
#
#
# Elastic Compliance Matrix: (Units=1/GPa)
#
#
# Indices 1 2 3 4 5 6 
#
# 1 0.012313 -0.006160 -0.002040 0.000000 0.000000 0.000000
# 2 -0.006160 0.012313 -0.002040 0.000000 0.000000 0.000000
# 3 -0.002040 -0.002040 0.013457 0.000000 0.000000 0.000000
# 4 0.000000 0.000000 0.000000 0.064519 0.000000 0.000000
# 5 0.000000 0.000000 0.000000 0.000000 0.064519 0.000000
# 6 0.000000 0.000000 0.000000 0.000000 0.000000 0.036947
#
#
# Mechanical properties :
#
#
# Convention : Reuss Voigt Hill
#
# Bulk Modulus (GPa) = 56.81715 61.51578 59.16646
# Shear Modulus (GPa) = 21.69973 24.90441 23.30207
#
# Velocity S-wave (km/s) = 3.41725 3.66090 3.54117
# Velocity P-wave (km/s) = 6.79308 7.13960 6.96850
#
# Compressibility (1/GPa) = 0.01760032
#
# Stress axis : x y z
#
# Youngs Moduli (GPa) = 81.21582 81.21582 74.31006
#
# Poissons Ratio (x) = 0.50032 0.15162
# Poissons Ratio (y) = 0.50032 0.15162
# Poissons Ratio (z) = 0.16572 0.16572
#
# Static dielectric constant tensor:
#      x y z
#    x 3.483510 0.000000 0.000000 
#    y 0.000000 3.483510 0.000000 
#    z 0.000000 0.000000 3.392570 
# 
# 
# High freq. dielectric constant tensor:
#      x y z
#    x 1.708870 0.000000 0.000000 
#    y 0.000000 1.708870 0.000000 
#    z 0.000000 0.000000 1.722510 
# 
# From -- ./inp_files/7387.got.cif
#   From: 2010.03.12/outbox.cif.g09.slc.cpg/sg193_4_cif.got.tgz:7387.got - 2010.04.01 12:20:39.
