data_PCOD8329611
_publ_section_title
;
Structure prediction by ZEFSAII (Michael W. Deem and Ramdas Pophale) SiO2 
 PCOD8329611
Probable space group: P 6/M C C
;
_chemical_formula_sum "Si O2"
_cell_formula_units_Z 96
_cell_length_a 13.405975
_cell_length_b 13.405975
_cell_length_c 33.941356
_cell_angle_alpha 90.000000
_cell_angle_beta 90.000000
_cell_angle_gamma 120.000000
_cell_volume 5282.708305
_symmetry_space_group_name_H-M "P 6/M C C"
_symmetry_group_IT_number 192
_symmetry_cell_setting 'hexagonal'
loop_
_space_group_symop_operation_xyz
x,y,z
x-y,x,z
-y,x-y,z
-x,-y,z
-x+y,-x,z
y,-x+y,z
x-y,-y,1/2-z
-x,-x+y,1/2-z
y,x,1/2-z
-y,-x,1/2-z
-x+y,y,1/2-z
x,x-y,1/2-z
-x,-y,-z
-x+y,-x,-z
y,-x+y,-z
x,y,-z
x-y,x,-z
-y,x-y,-z
-x+y,y,1/2+z
x,x-y,1/2+z
-y,-x,1/2+z
y,x,1/2+z
x-y,-y,1/2+z
-x,-x+y,1/2+z
loop_
_atom_site_type_symbol
_atom_site_label
_atom_site_fract_x
_atom_site_fract_y
_atom_site_fract_z
Si Si1 0.436701 0.113209 0.889908
Si Si2 0.334706 0.460759 0.266205
Si Si3 0.739828 0.931009 0.046059
Si Si4 0.462978 0.341145 0.141622
O O1 0.382974 0.102760 0.933524
O O2 0.438214 0.216105 0.867263
O O3 0.565414 0.130901 0.886883
O O4 0.347571 0.998510 0.866938
O O5 0.373471 0.373471 0.250000
O O6 0.411548 0.588453 0.250000
O O7 0.205498 0.410996 0.250000
O O8 0.358680 0.484661 0.312360
O O9 0.781181 0.840427 0.058110
O O10 0.714419 0.924495 0.000000
#
# Coordination Sequence:
#
# PCOD8329611 Si02
#       4
#    24  24  24  24
#     4  11  21  37  56  83 115 149 191 230 290 335
#     4  11  21  36  56  81 111 148 193 236 288 332
#     4  10  20  38  63  91 118 146 184 235 286 340
#     4  11  22  36  56  83 114 150 188 242 278 343
#
# _framework density 18.172495999999999
#
# number of rings (size 3 to 8) (size 9 to 14) (size 15 to 20)
#    0.000    1.250    2.500    7.000    0.000    1.000 
#    0.000    3.750    0.000    0.250    0.000    3.500 
#    0.000    0.000    0.000    0.000    0.000    0.000 
#
# Total GULP energy -1189624.671015 kJ/mol
# GULP energy per Si atom -12391.923656 kJ/mol
# Density = 1.813113 g / cm^3
# Si number density = 18.172496 Si / 1000 Ang^3
#
#
#
# Elastic Constant Matrix: (Units=GPa)
#
#
# Indices 1 2 3 4 5 6 
#
# 1 106.6153 73.1265 48.6504 0.0000 0.0000 0.0000
# 2 73.1265 106.6153 48.6504 0.0000 0.0000 0.0000
# 3 48.6504 48.6504 111.5894 0.0000 0.0000 0.0000
# 4 0.0000 0.0000 0.0000 13.3295 0.0000 0.0000
# 5 0.0000 0.0000 0.0000 0.0000 13.3295 0.0000
# 6 0.0000 0.0000 0.0000 0.0000 0.0000 16.7444
#
#
#
# Elastic Compliance Matrix: (Units=1/GPa)
#
#
# Indices 1 2 3 4 5 6 
#
# 1 0.018571 -0.011289 -0.003175 0.000000 0.000000 0.000000
# 2 -0.011289 0.018571 -0.003175 0.000000 0.000000 0.000000
# 3 -0.003175 -0.003175 0.011730 0.000000 0.000000 0.000000
# 4 0.000000 0.000000 0.000000 0.075021 0.000000 0.000000
# 5 0.000000 0.000000 0.000000 0.000000 0.075021 0.000000
# 6 0.000000 0.000000 0.000000 0.000000 0.000000 0.059721
#
#
# Mechanical properties :
#
#
# Convention : Reuss Voigt Hill
#
# Bulk Modulus (GPa) = 73.55812 73.96383 73.76098
# Shear Modulus (GPa) = 16.75343 18.97356 17.86349
#
# Velocity S-wave (km/s) = 3.03959 3.23473 3.13868
# Velocity P-wave (km/s) = 7.27217 7.39869 7.33570
#
# Compressibility (1/GPa) = 0.01359469
#
# Stress axis : x y z
#
# Youngs Moduli (GPa) = 53.84606 53.84606 85.25324
#
# Poissons Ratio (x) = 0.60788 0.27067
# Poissons Ratio (y) = 0.60788 0.27067
# Poissons Ratio (z) = 0.17095 0.17095
#
# Static dielectric constant tensor:
#      x y z
#    x 3.527700 0.000000 0.000000 
#    y 0.000000 3.527700 0.000000 
#    z 0.000000 0.000000 3.361320 
# 
# 
# High freq. dielectric constant tensor:
#      x y z
#    x 1.710030 0.000000 0.000000 
#    y 0.000000 1.710030 0.000000 
#    z 0.000000 0.000000 1.703790 
# 
# From -- ./inp_files/6342.got.cif
#   From: 2010.03.12/outbox.cif.g09.slc.cpg/sg192_4_cif.got.tgz:6342.got - 2010.04.01 12:16:15.
