data_PCOD8329596
_publ_section_title
;
Structure prediction by ZEFSAII (Michael W. Deem and Ramdas Pophale) SiO2 
 PCOD8329596
Probable space group: P 6/M C C
;
_chemical_formula_sum "Si O2"
_cell_formula_units_Z 102
_cell_length_a 25.041101
_cell_length_b 25.041101
_cell_length_c 9.076410
_cell_angle_alpha 90.000000
_cell_angle_beta 90.000000
_cell_angle_gamma 120.000000
_cell_volume 4928.917819
_symmetry_space_group_name_H-M "P 6/M C C"
_symmetry_group_IT_number 192
_symmetry_cell_setting 'hexagonal'
loop_
_space_group_symop_operation_xyz
x,y,z
x-y,x,z
-y,x-y,z
-x,-y,z
-x+y,-x,z
y,-x+y,z
x-y,-y,1/2-z
-x,-x+y,1/2-z
y,x,1/2-z
-y,-x,1/2-z
-x+y,y,1/2-z
x,x-y,1/2-z
-x,-y,-z
-x+y,-x,-z
y,-x+y,-z
x,y,-z
x-y,x,-z
-y,x-y,-z
-x+y,y,1/2+z
x,x-y,1/2+z
-y,-x,1/2+z
y,x,1/2+z
x-y,-y,1/2+z
-x,-x+y,1/2+z
loop_
_atom_site_type_symbol
_atom_site_label
_atom_site_fract_x
_atom_site_fract_y
_atom_site_fract_z
Si Si1 0.377307 0.136403 0.168667
Si Si2 0.482141 0.372799 0.663526
Si Si3 0.500000 0.500000 0.750000
Si Si4 0.827360 0.064702 0.325005
Si Si5 0.770573 0.437603 0.174402
O O1 0.404858 0.202429 0.250000
O O2 0.415122 0.100794 0.199247
O O3 0.308159 0.089646 0.220350
O O4 0.379066 0.153893 0.000000
O O5 0.503529 0.364960 0.500000
O O6 0.482194 0.437435 0.660979
O O7 0.526523 0.369858 0.787010
O O8 0.893042 0.106959 0.250000
O O9 0.833630 0.061114 0.500000
O O10 0.802624 0.000000 0.250000
O O11 0.735035 0.470069 0.250000
O O12 0.740996 0.370498 0.250000
O O13 0.761586 0.433374 0.000000
#
# Coordination Sequence:
#
# PCOD8329596 Si02
#       5
#    24  24   6  24  24
#     4   9  20  38  61  90 124 160 207 264 319 380
#     4  11  24  43  63  90 126 166 215 263 318 383
#     4  12  26  40  68  90 134 176 222 264 324 384
#     4  10  20  36  59  89 126 165 209 258 312 368
#     4  12  25  43  67  94 124 157 200 255 317 381
#
# _framework density 20.694196000000002
#
# number of rings (size 3 to 8) (size 9 to 14) (size 15 to 20)
#    0.000    1.412    1.176    4.118    1.647    4.706 
#    0.000    0.000    0.000    0.235    0.000    1.647 
#    0.000    0.000    0.000    0.000    0.000    0.000 
#
# Total GULP energy -1264303.729727 kJ/mol
# GULP energy per Si atom -12395.134605 kJ/mol
# Density = 2.064709 g / cm^3
# Si number density = 20.694196 Si / 1000 Ang^3
#
#
#
# Elastic Constant Matrix: (Units=GPa)
#
#
# Indices 1 2 3 4 5 6 
#
# 1 135.9783 62.5580 54.2124 0.0000 0.0000 0.0000
# 2 62.5580 135.9783 54.2124 0.0000 0.0000 0.0000
# 3 54.2124 54.2124 137.9025 0.0000 0.0000 0.0000
# 4 0.0000 0.0000 0.0000 29.2573 0.0000 0.0000
# 5 0.0000 0.0000 0.0000 0.0000 29.2573 0.0000
# 6 0.0000 0.0000 0.0000 0.0000 0.0000 36.7102
#
#
#
# Elastic Compliance Matrix: (Units=1/GPa)
#
#
# Indices 1 2 3 4 5 6 
#
# 1 0.010017 -0.003603 -0.002521 0.000000 0.000000 0.000000
# 2 -0.003603 0.010017 -0.002521 0.000000 0.000000 0.000000
# 3 -0.002521 -0.002521 0.009234 0.000000 0.000000 0.000000
# 4 0.000000 0.000000 0.000000 0.034179 0.000000 0.000000
# 5 0.000000 0.000000 0.000000 0.000000 0.034179 0.000000
# 6 0.000000 0.000000 0.000000 0.000000 0.000000 0.027240
#
#
# Mechanical properties :
#
#
# Convention : Reuss Voigt Hill
#
# Bulk Modulus (GPa) = 83.50048 83.53607 83.51827
# Shear Modulus (GPa) = 34.21108 34.97004 34.59056
#
# Velocity S-wave (km/s) = 4.07033 4.11524 4.09285
# Velocity P-wave (km/s) = 7.90743 7.93944 7.92345
#
# Compressibility (1/GPa) = 0.01197598
#
# Stress axis : x y z
#
# Youngs Moduli (GPa) = 99.82991 99.82991 108.29596
#
# Poissons Ratio (x) = 0.35970 0.27306
# Poissons Ratio (y) = 0.35970 0.27306
# Poissons Ratio (z) = 0.25171 0.25171
#
# Static dielectric constant tensor:
#      x y z
#    x 3.756040 0.000000 0.000000 
#    y 0.000000 3.756040 0.000000 
#    z 0.000000 0.000000 3.694000 
# 
# 
# High freq. dielectric constant tensor:
#      x y z
#    x 1.808040 0.000000 0.000000 
#    y 0.000000 1.808040 0.000000 
#    z 0.000000 0.000000 1.810660 
# 
# From -- ./inp_files/902.got.cif
#   From: 2010.03.12/outbox.cif.g09.slc.cpg/sg192_1_cif.got.tgz:902.got - 2010.04.01 12:16:15.
