data_PCOD8329946
_publ_section_title
;
Structure prediction by ZEFSAII (Michael W. Deem and Ramdas Pophale) SiO2 
 PCOD8329946
Probable space group: P 63/M C M
;
_chemical_formula_sum "Si O2"
_cell_formula_units_Z 44
_cell_length_a 12.568361
_cell_length_b 12.568361
_cell_length_c 19.088033
_cell_angle_alpha 90.000000
_cell_angle_beta 90.000000
_cell_angle_gamma 120.000000
_cell_volume 2611.253900
_symmetry_space_group_name_H-M "P 63/M C M"
_symmetry_group_IT_number 193
_symmetry_cell_setting 'hexagonal'
loop_
_space_group_symop_operation_xyz
x,y,z
x-y,x,1/2+z
-y,x-y,z
-x,-y,1/2+z
-x+y,-x,z
y,-x+y,1/2+z
x-y,-y,1/2-z
-x,-x+y,1/2-z
y,x,1/2-z
-y,-x,-z
-x+y,y,-z
x,x-y,-z
-x,-y,-z
-x+y,-x,1/2-z
y,-x+y,-z
x,y,1/2-z
x-y,x,-z
-y,x-y,1/2-z
-x+y,y,1/2+z
x,x-y,1/2+z
-y,-x,1/2+z
y,x,z
x-y,-y,z
-x,-x+y,z
loop_
_atom_site_type_symbol
_atom_site_label
_atom_site_fract_x
_atom_site_fract_y
_atom_site_fract_z
Si Si1 0.499310 0.862236 0.566177
Si Si2 0.858480 0.141521 0.000000
Si Si3 0.333334 0.666668 0.332699
O O1 0.403301 0.806601 0.500000
O O2 0.623993 0.854533 0.559557
O O3 0.436762 0.797288 0.638209
O O4 0.528479 0.000000 0.575149
O O5 0.000000 0.196632 0.973721
O O6 0.333334 0.666668 0.250000
#
# Coordination Sequence:
#
# PCOD8329946 Si02
#       3
#    24  12   8
#     4  10  19  34  54  74 103 142 181 220 268 320
#     4  10  19  32  56  82 105 132 174 228 272 314
#     4  12  22  32  49  78 115 143 178 222 268 332
#
# _framework density 16.850142999999999
#
# number of rings (size 3 to 8) (size 9 to 14) (size 15 to 20)
#    0.000    1.636    5.455    0.273    0.000    1.091 
#    0.000    0.000    0.000    0.000    0.000    0.000 
#    0.000    4.364    0.000    0.000    0.000    0.000 
#
# Total GULP energy -545096.874990 kJ/mol
# GULP energy per Si atom -12388.565341 kJ/mol
# Density = 1.681179 g / cm^3
# Si number density = 16.850143 Si / 1000 Ang^3
#
#
#
# Elastic Constant Matrix: (Units=GPa)
#
#
# Indices 1 2 3 4 5 6 
#
# 1 117.4366 50.4015 48.1913 0.0001 0.0000 0.0000
# 2 50.4015 117.4367 48.1910 0.0002 0.0000 -0.0001
# 3 48.1913 48.1910 131.1301 0.0003 0.0000 -0.0001
# 4 0.0001 0.0002 0.0003 16.3492 -0.0001 0.0000
# 5 0.0000 0.0000 0.0000 -0.0001 16.3492 0.0000
# 6 0.0000 -0.0001 -0.0001 0.0000 0.0000 33.5175
#
#
#
# Elastic Compliance Matrix: (Units=1/GPa)
#
#
# Indices 1 2 3 4 5 6 
#
# 1 0.011235 -0.003683 -0.002775 0.000000 0.000000 0.000000
# 2 -0.003683 0.011235 -0.002775 0.000000 0.000000 0.000000
# 3 -0.002775 -0.002775 0.009666 0.000000 0.000000 0.000000
# 4 0.000000 0.000000 0.000000 0.061165 0.000000 0.000000
# 5 0.000000 0.000000 0.000000 0.000000 0.061165 0.000000
# 6 0.000000 0.000000 0.000000 0.000000 0.000000 0.029835
#
#
# Mechanical properties :
#
#
# Convention : Reuss Voigt Hill
#
# Bulk Modulus (GPa) = 73.16220 73.28567 73.22393
# Shear Modulus (GPa) = 24.11686 27.85781 25.98734
#
# Velocity S-wave (km/s) = 3.78730 4.07045 3.93143
# Velocity P-wave (km/s) = 7.91444 8.10423 8.00990
#
# Compressibility (1/GPa) = 0.01366826
#
# Stress axis : x y z
#
# Youngs Moduli (GPa) = 89.00956 89.00989 103.45596
#
# Poissons Ratio (x) = 0.32781 0.28713
# Poissons Ratio (y) = 0.32781 0.28713
# Poissons Ratio (z) = 0.24704 0.24703
#
# Static dielectric constant tensor:
#      x y z
#    x 3.476030 0.000000 -0.000010 
#    y 0.000000 3.476030 0.000000 
#    z -0.000010 0.000000 2.790530 
# 
# 
# High freq. dielectric constant tensor:
#      x y z
#    x 1.672660 0.000000 0.000000 
#    y 0.000000 1.672660 0.000000 
#    z 0.000000 0.000000 1.577310 
# 
# From -- ./inp_files/2852.got.cif
#   From: 2010.03.12/outbox.cif.g09.slc.cpg/sg193_2_cif.got.tgz:2852.got - 2010.04.01 12:20:39.
