data_PCOD8329201
_publ_section_title
;
Structure prediction by ZEFSAII (Michael W. Deem and Ramdas Pophale) SiO2 
 PCOD8329201
Probable space group: P 6/M M M
;
_chemical_formula_sum "Si O2"
_cell_formula_units_Z 156
_cell_length_a 21.507216
_cell_length_b 21.507216
_cell_length_c 21.247081
_cell_angle_alpha 90.000000
_cell_angle_beta 90.000000
_cell_angle_gamma 120.000000
_cell_volume 8511.347043
_symmetry_space_group_name_H-M "P 6/M M M"
_symmetry_group_IT_number 191
_symmetry_cell_setting 'hexagonal'
loop_
_space_group_symop_operation_xyz
x,y,z
x-y,x,z
-y,x-y,z
-x,-y,z
-x+y,-x,z
y,-x+y,z
x-y,-y,-z
-x,-x+y,-z
y,x,-z
-y,-x,-z
-x+y,y,-z
x,x-y,-z
-x,-y,-z
-x+y,-x,-z
y,-x+y,-z
x,y,-z
x-y,x,-z
-y,x-y,-z
-x+y,y,z
x,x-y,z
-y,-x,z
y,x,z
x-y,-y,z
-x,-x+y,z
loop_
_atom_site_type_symbol
_atom_site_label
_atom_site_fract_x
_atom_site_fract_y
_atom_site_fract_z
Si Si1 0.813957 0.477942 0.500000
Si Si2 0.386875 0.081748 0.070839
Si Si3 0.349074 0.917225 0.611869
Si Si4 0.918296 0.220408 0.813337
Si Si5 0.078065 0.292463 0.572690
Si Si6 0.849622 0.556542 0.262956
Si Si7 0.666147 0.189252 0.863115
O O1 0.745196 0.490391 0.500000
O O2 0.785509 0.392755 0.500000
O O3 0.864548 0.512506 0.560490
O O4 0.337160 0.097222 0.117325
O O5 0.470086 0.128817 0.088599
O O6 0.368019 0.000000 0.077608
O O7 0.373611 0.099400 0.000000
O O8 0.272665 0.913108 0.611083
O O9 0.350853 0.887466 0.680950
O O10 0.413306 0.000000 0.601816
O O11 0.864689 0.135312 0.803278
O O12 0.902608 0.265798 0.762057
O O13 0.000000 0.237889 0.805507
O O14 0.089672 0.316154 0.500000
O O15 0.135441 0.270881 0.596482
O O16 0.000000 0.223311 0.583784
O O17 0.774563 0.549125 0.286076
O O18 0.835567 0.499567 0.208542
O O19 0.602457 0.204913 0.875157
O O20 0.740007 0.259994 0.878284
#
# Coordination Sequence:
#
# PCOD8329201 Si02
#       7
#    12  24  24  24  24  24  24
#     4  12  26  43  59  75 100 135 173 205 237 288
#     4   9  18  33  53  76 101 130 167 214 263 305
#     4  11  21  35  57  83 106 126 154 204 265 311
#     4   9  17  30  49  74 103 134 169 209 253 301
#     4   9  16  27  45  70  98 128 160 195 239 289
#     4   9  18  33  53  76 102 133 168 207 249 296
#     4  10  21  36  53  74 102 137 174 208 244 292
#
# _framework density 18.328472999999999
#
# number of rings (size 3 to 8) (size 9 to 14) (size 15 to 20)
#    0.000    2.308    0.769    3.692    0.000    3.692 
#    0.000    0.769    0.000    3.077    0.000    1.077 
#    0.000    0.000    0.000    8.769    0.000    3.385 
#
# Total GULP energy -1934131.135048 kJ/mol
# GULP energy per Si atom -12398.276507 kJ/mol
# Density = 1.828676 g / cm^3
# Si number density = 18.328473 Si / 1000 Ang^3
#
#
#
# Elastic Constant Matrix: (Units=GPa)
#
#
# Indices 1 2 3 4 5 6 
#
# 1 77.1941 35.5781 21.4434 0.0000 0.0000 0.0000
# 2 35.5781 77.1941 21.4434 0.0000 0.0000 0.0000
# 3 21.4434 21.4434 80.7713 0.0000 0.0000 0.0000
# 4 0.0000 0.0000 0.0000 13.9184 0.0000 0.0000
# 5 0.0000 0.0000 0.0000 0.0000 13.9184 0.0000
# 6 0.0000 0.0000 0.0000 0.0000 0.0000 20.8080
#
#
#
# Elastic Compliance Matrix: (Units=1/GPa)
#
#
# Indices 1 2 3 4 5 6 
#
# 1 0.016946 -0.007083 -0.002619 0.000000 0.000000 0.000000
# 2 -0.007083 0.016946 -0.002619 0.000000 0.000000 0.000000
# 3 -0.002619 -0.002619 0.013771 0.000000 0.000000 0.000000
# 4 0.000000 0.000000 0.000000 0.071847 0.000000 0.000000
# 5 0.000000 0.000000 0.000000 0.000000 0.071847 0.000000
# 6 0.000000 0.000000 0.000000 0.000000 0.000000 0.048058
#
#
# Mechanical properties :
#
#
# Convention : Reuss Voigt Hill
#
# Bulk Modulus (GPa) = 43.43411 43.56548 43.49979
# Shear Modulus (GPa) = 18.40053 20.17526 19.28789
#
# Velocity S-wave (km/s) = 3.17193 3.32137 3.24751
# Velocity P-wave (km/s) = 6.09622 6.20722 6.15197
#
# Compressibility (1/GPa) = 0.02302338
#
# Stress axis : x y z
#
# Youngs Moduli (GPa) = 59.01015 59.01015 72.61648
#
# Poissons Ratio (x) = 0.41797 0.19015
# Poissons Ratio (y) = 0.41797 0.19015
# Poissons Ratio (z) = 0.15452 0.15452
#
# Static dielectric constant tensor:
#      x y z
#    x 3.286770 0.000000 0.000000 
#    y 0.000000 3.286770 0.000000 
#    z 0.000000 0.000000 3.448440 
# 
# 
# High freq. dielectric constant tensor:
#      x y z
#    x 1.695950 0.000000 0.000000 
#    y 0.000000 1.695950 0.000000 
#    z 0.000000 0.000000 1.715570 
# 
# From -- ./inp_files/7722.got.cif
#   From: 2010.03.12/outbox.cif.g09.slc.cpg/sg191_4_cif.got.tgz:7722.got - 2010.04.01 12:09:02.
