data_PCOD8329142
_publ_section_title
;
Structure prediction by ZEFSAII (Michael W. Deem and Ramdas Pophale) SiO2 
 PCOD8329142
Probable space group: P 6/M M M
;
_chemical_formula_sum "Si O2"
_cell_formula_units_Z 144
_cell_length_a 21.482720
_cell_length_b 21.482720
_cell_length_c 19.814614
_cell_angle_alpha 90.000000
_cell_angle_beta 90.000000
_cell_angle_gamma 120.000000
_cell_volume 7919.445677
_symmetry_space_group_name_H-M "P 6/M M M"
_symmetry_group_IT_number 191
_symmetry_cell_setting 'hexagonal'
loop_
_space_group_symop_operation_xyz
x,y,z
x-y,x,z
-y,x-y,z
-x,-y,z
-x+y,-x,z
y,-x+y,z
x-y,-y,-z
-x,-x+y,-z
y,x,-z
-y,-x,-z
-x+y,y,-z
x,x-y,-z
-x,-y,-z
-x+y,-x,-z
y,-x+y,-z
x,y,-z
x-y,x,-z
-y,x-y,-z
-x+y,y,z
x,x-y,z
-y,-x,z
y,x,z
x-y,-y,z
-x,-x+y,z
loop_
_atom_site_type_symbol
_atom_site_label
_atom_site_fract_x
_atom_site_fract_y
_atom_site_fract_z
Si Si1 0.675223 0.591540 0.420259
Si Si2 0.594302 0.677796 0.925077
Si Si3 0.520241 0.185759 0.678084
Si Si4 0.838673 0.919337 0.080639
Si Si5 0.467578 0.079708 0.208109
Si Si6 0.678629 0.839315 0.420023
Si Si7 0.160388 0.320776 0.079802
Si Si8 0.838802 0.919401 0.580609
O O1 0.670594 0.579567 0.500000
O O2 0.628748 0.628748 0.398348
O O3 0.646072 0.513997 0.385708
O O4 0.757247 0.639934 0.394920
O O5 0.651080 0.651080 0.930578
O O6 0.532434 0.632772 0.870527
O O7 0.636566 0.757926 0.895966
O O8 0.560421 0.672728 0.000000
O O9 0.603169 0.206338 0.685245
O O10 0.517234 0.258617 0.669263
O O11 0.471713 0.141647 0.742990
O O12 0.879381 0.879381 0.108544
O O13 0.758613 0.879307 0.111447
O O14 0.837473 0.918737 0.000000
O O15 0.537662 0.075324 0.222280
O O16 0.398457 0.000000 0.222937
O O17 0.681659 0.840830 0.500000
O O18 0.758541 0.879270 0.389861
O O19 0.156795 0.313590 0.000000
O O20 0.879336 0.879336 0.608675
O O21 0.837979 0.918990 0.500000
#
# Coordination Sequence:
#
# PCOD8329142 Si02
#       8
#    24  24  24  12  24  12  12  12
#     4  10  20  35  57  83 110 141 177 218 265 317
#     4   9  17  29  47  73 102 132 168 209 257 312
#     4  11  23  39  58  79 106 140 178 219 264 317
#     4   9  15  22  33  51  81 125 174 216 252 294
#     4   9  19  35  54  77 104 134 169 211 258 309
#     4   9  16  29  47  72 105 139 176 216 259 307
#     4   9  16  25  39  62  95 131 164 204 254 303
#     4   9  15  22  35  59  95 139 182 220 258 303
#
# _framework density 18.183091000000001
#
# number of rings (size 3 to 8) (size 9 to 14) (size 15 to 20)
#    0.000    2.500    0.833    1.833    1.167    6.333 
#    0.000    2.500    0.000    1.000    0.000    0.000 
#    0.000    0.000    0.000    0.000    0.000   15.833 
#
# Total GULP energy -1784828.001061 kJ/mol
# GULP energy per Si atom -12394.638896 kJ/mol
# Density = 1.814171 g / cm^3
# Si number density = 18.183091 Si / 1000 Ang^3
#
#
#
# Elastic Constant Matrix: (Units=GPa)
#
#
# Indices 1 2 3 4 5 6 
#
# 1 78.9008 32.6483 31.9001 0.0000 0.0000 0.0000
# 2 32.6483 78.9008 31.9001 0.0000 0.0000 0.0000
# 3 31.9001 31.9001 62.9171 0.0000 0.0000 0.0000
# 4 0.0000 0.0000 0.0000 18.9466 0.0000 0.0000
# 5 0.0000 0.0000 0.0000 0.0000 18.9466 0.0000
# 6 0.0000 0.0000 0.0000 0.0000 0.0000 23.1263
#
#
#
# Elastic Compliance Matrix: (Units=1/GPa)
#
#
# Indices 1 2 3 4 5 6 
#
# 1 0.017123 -0.004497 -0.006402 0.000000 0.000000 0.000000
# 2 -0.004497 0.017123 -0.006402 0.000000 0.000000 0.000000
# 3 -0.006402 -0.006402 0.022385 0.000000 0.000000 0.000000
# 4 0.000000 0.000000 0.000000 0.052780 0.000000 0.000000
# 5 0.000000 0.000000 0.000000 0.000000 0.052780 0.000000
# 6 0.000000 0.000000 0.000000 0.000000 0.000000 0.043241
#
#
# Mechanical properties :
#
#
# Convention : Reuss Voigt Hill
#
# Bulk Modulus (GPa) = 45.39061 45.95730 45.67396
# Shear Modulus (GPa) = 20.21204 20.48857 20.35030
#
# Velocity S-wave (km/s) = 3.33766 3.36041 3.34906
# Velocity P-wave (km/s) = 6.31432 6.35501 6.33469
#
# Compressibility (1/GPa) = 0.02203099
#
# Stress axis : x y z
#
# Youngs Moduli (GPa) = 58.40016 58.40016 44.67200
#
# Poissons Ratio (x) = 0.26264 0.28597
# Poissons Ratio (y) = 0.26264 0.28597
# Poissons Ratio (z) = 0.37386 0.37386
#
# Static dielectric constant tensor:
#      x y z
#    x 3.448790 0.000000 0.000000 
#    y 0.000000 3.448790 0.000000 
#    z 0.000000 0.000000 3.091570 
# 
# 
# High freq. dielectric constant tensor:
#      x y z
#    x 1.705100 0.000000 0.000000 
#    y 0.000000 1.705100 0.000000 
#    z 0.000000 0.000000 1.667690 
# 
# From -- ./inp_files/7699.got.cif
#   From: 2010.03.12/outbox.cif.g09.slc.cpg/sg191_4_cif.got.tgz:7699.got - 2010.04.01 12:09:02.
