data_PCOD8329241
_publ_section_title
;
Structure prediction by ZEFSAII (Michael W. Deem and Ramdas Pophale) SiO2 
 PCOD8329241
Probable space group: P 6/M M M
;
_chemical_formula_sum "Si O2"
_cell_formula_units_Z 138
_cell_length_a 30.630066
_cell_length_b 30.630066
_cell_length_c 8.668713
_cell_angle_alpha 90.000000
_cell_angle_beta 90.000000
_cell_angle_gamma 120.000000
_cell_volume 7043.380030
_symmetry_space_group_name_H-M "P 6/M M M"
_symmetry_group_IT_number 191
_symmetry_cell_setting 'hexagonal'
loop_
_space_group_symop_operation_xyz
x,y,z
x-y,x,z
-y,x-y,z
-x,-y,z
-x+y,-x,z
y,-x+y,z
x-y,-y,-z
-x,-x+y,-z
y,x,-z
-y,-x,-z
-x+y,y,-z
x,x-y,-z
-x,-y,-z
-x+y,-x,-z
y,-x+y,-z
x,y,-z
x-y,x,-z
-y,x-y,-z
-x+y,y,z
x,x-y,z
-y,-x,z
y,x,z
x-y,-y,z
-x,-x+y,z
loop_
_atom_site_type_symbol
_atom_site_label
_atom_site_fract_x
_atom_site_fract_y
_atom_site_fract_z
Si Si1 0.515417 0.854208 0.174161
Si Si2 0.800762 0.800762 0.318445
Si Si3 0.000000 0.900087 0.683765
Si Si4 0.365088 0.730176 0.500000
Si Si5 0.793405 0.396703 0.816714
Si Si6 0.853419 0.604183 0.670001
Si Si7 0.056621 0.578056 0.326390
Si Si8 0.095804 0.802131 0.178609
O O1 0.456254 0.824915 0.212158
O O2 0.548339 0.836620 0.269721
O O3 0.536276 0.912643 0.210427
O O4 0.525533 0.846727 0.000000
O O5 0.803820 0.803820 0.500000
O O6 0.850331 0.850331 0.251308
O O7 0.799150 0.749956 0.268213
O O8 0.950076 0.900151 0.745274
O O9 0.000000 0.899974 0.500000
O O10 0.304316 0.695685 0.500000
O O11 0.378315 0.756630 0.668831
O O12 0.772713 0.386357 0.000000
O O13 0.876785 0.610289 0.500000
O O14 0.803592 0.607183 0.664514
O O15 0.894410 0.650977 0.771881
O O16 0.078445 0.592606 0.500000
O O17 0.059284 0.529642 0.269253
O O18 0.000000 0.567220 0.322246
O O19 0.144335 0.855666 0.217267
O O20 0.082513 0.795580 0.000000
#
# Coordination Sequence:
#
# PCOD8329241 Si02
#       8
#    24  12  12   6  12  24  24  24
#     4  11  22  37  59  89 122 160 200 244 301 360
#     4  11  21  34  57  88 120 159 205 254 308 373
#     4   9  17  29  48  79 120 164 211 261 314 365
#     4  10  26  46  66  96 121 166 212 252 324 376
#     4  10  24  42  65  97 131 166 208 258 306 368
#     4  10  22  40  62  88 114 148 193 245 298 355
#     4   9  18  33  55  83 114 152 194 240 292 345
#     4  10  21  39  61  84 116 153 194 248 306 365
#
# _framework density 19.592865
#
# number of rings (size 3 to 8) (size 9 to 14) (size 15 to 20)
#    0.087    1.913    0.870    2.957    2.435    4.522 
#    1.565    2.609    0.000    0.000    0.000    0.000 
#    0.000    4.174    0.000    0.000    0.000    0.000 
#
# Total GULP energy -1710104.557031 kJ/mol
# GULP energy per Si atom -12392.062007 kJ/mol
# Density = 1.954827 g / cm^3
# Si number density = 19.592865 Si / 1000 Ang^3
#
#
#
# Elastic Constant Matrix: (Units=GPa)
#
#
# Indices 1 2 3 4 5 6 
#
# 1 91.7708 41.9352 49.0094 0.0000 0.0000 0.0000
# 2 41.9352 91.7708 49.0094 0.0000 0.0000 0.0000
# 3 49.0094 49.0094 94.3313 0.0000 0.0000 0.0000
# 4 0.0000 0.0000 0.0000 30.1196 0.0000 0.0000
# 5 0.0000 0.0000 0.0000 0.0000 30.1196 0.0000
# 6 0.0000 0.0000 0.0000 0.0000 0.0000 24.9178
#
#
#
# Elastic Compliance Matrix: (Units=1/GPa)
#
#
# Indices 1 2 3 4 5 6 
#
# 1 0.016073 -0.003993 -0.006276 0.000000 0.000000 0.000000
# 2 -0.003993 0.016073 -0.006276 0.000000 0.000000 0.000000
# 3 -0.006276 -0.006276 0.017122 0.000000 0.000000 0.000000
# 4 0.000000 0.000000 0.000000 0.033201 0.000000 0.000000
# 5 0.000000 0.000000 0.000000 0.000000 0.033201 0.000000
# 6 0.000000 0.000000 0.000000 0.000000 0.000000 0.040132
#
#
# Mechanical properties :
#
#
# Convention : Reuss Voigt Hill
#
# Bulk Modulus (GPa) = 61.81236 61.97565 61.89401
# Shear Modulus (GPa) = 25.73529 26.22598 25.98064
#
# Velocity S-wave (km/s) = 3.62816 3.66259 3.64541
# Velocity P-wave (km/s) = 7.01201 7.04177 7.02690
#
# Compressibility (1/GPa) = 0.01617799
#
# Stress axis : x y z
#
# Youngs Moduli (GPa) = 62.21593 62.21593 58.40280
#
# Poissons Ratio (x) = 0.24842 0.36655
# Poissons Ratio (y) = 0.24842 0.36655
# Poissons Ratio (z) = 0.39048 0.39048
#
# Static dielectric constant tensor:
#      x y z
#    x 3.623230 0.000000 0.000000 
#    y 0.000000 3.623230 0.000000 
#    z 0.000000 0.000000 3.704230 
# 
# 
# High freq. dielectric constant tensor:
#      x y z
#    x 1.760170 0.000000 0.000000 
#    y 0.000000 1.760170 0.000000 
#    z 0.000000 0.000000 1.765280 
# 
# From -- ./inp_files/2078.got.cif
#   From: 2010.03.12/outbox.cif.g09.slc.cpg/sg191_2_cif.got.tgz:2078.got - 2010.04.01 12:09:02.
