data_PCOD8329820
_publ_section_title
;
Structure prediction by ZEFSAII (Michael W. Deem and Ramdas Pophale) SiO2 
 PCOD8329820
Probable space group: P 63/M C M
;
_chemical_formula_sum "Si O2"
_cell_formula_units_Z 144
_cell_length_a 22.731077
_cell_length_b 22.731077
_cell_length_c 19.715940
_cell_angle_alpha 90.000000
_cell_angle_beta 90.000000
_cell_angle_gamma 120.000000
_cell_volume 8822.428467
_symmetry_space_group_name_H-M "P 63/M C M"
_symmetry_group_IT_number 193
_symmetry_cell_setting 'hexagonal'
loop_
_space_group_symop_operation_xyz
x,y,z
x-y,x,1/2+z
-y,x-y,z
-x,-y,1/2+z
-x+y,-x,z
y,-x+y,1/2+z
x-y,-y,1/2-z
-x,-x+y,1/2-z
y,x,1/2-z
-y,-x,-z
-x+y,y,-z
x,x-y,-z
-x,-y,-z
-x+y,-x,1/2-z
y,-x+y,-z
x,y,1/2-z
x-y,x,-z
-y,x-y,1/2-z
-x+y,y,1/2+z
x,x-y,1/2+z
-y,-x,1/2+z
y,x,z
x-y,-y,z
-x,-x+y,z
loop_
_atom_site_type_symbol
_atom_site_label
_atom_site_fract_x
_atom_site_fract_y
_atom_site_fract_z
Si Si1 0.923969 0.177915 0.827579
Si Si2 0.860346 0.593408 0.171216
Si Si3 0.833693 0.596895 0.934149
Si Si4 0.594998 0.518928 0.905984
Si Si5 0.389197 0.923233 0.435440
Si Si6 0.752995 0.834364 0.439982
O O1 0.908364 0.155029 0.750000
O O2 0.917495 0.245148 0.839924
O O3 0.872691 0.111730 0.869480
O O4 0.000000 0.198562 0.848618
O O5 0.843381 0.575404 0.250000
O O6 0.795407 0.586440 0.133232
O O7 0.879517 0.540124 0.139694
O O8 0.869741 0.555161 0.911979
O O9 0.892631 0.673575 0.951331
O O10 0.784177 0.568354 0.000000
O O11 0.560518 0.560518 0.877073
O O12 0.540482 0.438490 0.903490
O O13 0.614213 0.536781 0.983667
O O14 0.414542 0.000000 0.410150
O O15 0.780072 0.890036 0.500000
O O16 0.795585 0.795585 0.438725
#
# Coordination Sequence:
#
# PCOD8329820 Si02
#       6
#    24  24  24  24  24  24
#     4   9  18  32  50  71  95 124 160 204 252 300
#     4  10  19  31  49  75 103 130 164 208 253 297
#     4  10  18  31  50  74 100 133 167 203 245 296
#     4   9  17  29  48  74 101 129 158 198 250 298
#     4   9  17  30  49  74 102 129 162 201 242 294
#     4  10  20  31  47  72  99 129 162 201 249 300
#
# _framework density 16.322037000000002
#
# number of rings (size 3 to 8) (size 9 to 14) (size 15 to 20)
#    0.000    2.500    1.667    2.500    0.000    1.333 
#    0.000    0.833    0.000    6.167    4.333    0.000 
#    0.000    0.000    0.000    0.000    0.000    0.000 
#
# Total GULP energy -1784702.028473 kJ/mol
# GULP energy per Si atom -12393.764087 kJ/mol
# Density = 1.628489 g / cm^3
# Si number density = 16.322037 Si / 1000 Ang^3
#
#
#
# Elastic Constant Matrix: (Units=GPa)
#
#
# Indices 1 2 3 4 5 6 
#
# 1 104.8563 54.2618 43.3831 0.0000 0.0000 0.0000
# 2 54.2618 104.8563 43.3831 0.0000 0.0000 0.0000
# 3 43.3831 43.3831 78.7752 0.0000 0.0000 0.0000
# 4 0.0000 0.0000 0.0000 22.4804 0.0000 0.0000
# 5 0.0000 0.0000 0.0000 0.0000 22.4804 0.0000
# 6 0.0000 0.0000 0.0000 0.0000 0.0000 25.2973
#
#
#
# Elastic Compliance Matrix: (Units=1/GPa)
#
#
# Indices 1 2 3 4 5 6 
#
# 1 0.014373 -0.005392 -0.004947 0.000000 0.000000 0.000000
# 2 -0.005392 0.014373 -0.004947 0.000000 0.000000 0.000000
# 3 -0.004947 -0.004947 0.018143 0.000000 0.000000 0.000000
# 4 0.000000 0.000000 0.000000 0.044483 0.000000 0.000000
# 5 0.000000 0.000000 0.000000 0.000000 0.044483 0.000000
# 6 0.000000 0.000000 0.000000 0.000000 0.000000 0.039530
#
#
# Mechanical properties :
#
#
# Convention : Reuss Voigt Hill
#
# Bulk Modulus (GPa) = 61.27298 63.39377 62.33338
# Shear Modulus (GPa) = 23.65235 23.88225 23.76730
#
# Velocity S-wave (km/s) = 3.81084 3.82932 3.82009
# Velocity P-wave (km/s) = 7.54883 7.64691 7.59803
#
# Compressibility (1/GPa) = 0.01632041
#
# Stress axis : x y z
#
# Youngs Moduli (GPa) = 69.57259 69.57259 55.11861
#
# Poissons Ratio (x) = 0.37510 0.27265
# Poissons Ratio (y) = 0.37510 0.27265
# Poissons Ratio (z) = 0.34414 0.34414
#
# Static dielectric constant tensor:
#      x y z
#    x 3.068150 0.000000 0.000000 
#    y 0.000000 3.068150 0.000000 
#    z 0.000000 0.000000 3.017200 
# 
# 
# High freq. dielectric constant tensor:
#      x y z
#    x 1.616760 0.000000 0.000000 
#    y 0.000000 1.616760 0.000000 
#    z 0.000000 0.000000 1.622440 
# 
# From -- ./inp_files/5559.got.cif
#   From: 2010.03.12/outbox.cif.g09.slc.cpg/sg193_3_cif.got.tgz:5559.got - 2010.04.01 12:20:39.
