data_PCOD8329222
_publ_section_title
;
Structure prediction by ZEFSAII (Michael W. Deem and Ramdas Pophale) SiO2 
 PCOD8329222
Probable space group: P 6/M M M
;
_chemical_formula_sum "Si O2"
_cell_formula_units_Z 144
_cell_length_a 21.529271
_cell_length_b 21.529271
_cell_length_c 20.242297
_cell_angle_alpha 90.000000
_cell_angle_beta 90.000000
_cell_angle_gamma 120.000000
_cell_volume 8125.480891
_symmetry_space_group_name_H-M "P 6/M M M"
_symmetry_group_IT_number 191
_symmetry_cell_setting 'hexagonal'
loop_
_space_group_symop_operation_xyz
x,y,z
x-y,x,z
-y,x-y,z
-x,-y,z
-x+y,-x,z
y,-x+y,z
x-y,-y,-z
-x,-x+y,-z
y,x,-z
-y,-x,-z
-x+y,y,-z
x,x-y,-z
-x,-y,-z
-x+y,-x,-z
y,-x+y,-z
x,y,-z
x-y,x,-z
-y,x-y,-z
-x+y,y,z
x,x-y,z
-y,-x,z
y,x,z
x-y,-y,z
-x,-x+y,z
loop_
_atom_site_type_symbol
_atom_site_label
_atom_site_fract_x
_atom_site_fract_y
_atom_site_fract_z
Si Si1 0.664544 0.475341 0.202939
Si Si2 0.349891 0.916913 0.316748
Si Si3 0.921443 0.705695 0.276689
Si Si4 0.849267 0.551503 0.927928
Si Si5 0.217818 0.920689 0.876604
Si Si6 0.524613 0.333063 0.576052
O O1 0.745162 0.490324 0.214745
O O2 0.609153 0.390848 0.210605
O O3 0.644527 0.518410 0.254821
O O4 0.653159 0.498981 0.129996
O O5 0.273168 0.912061 0.318763
O O6 0.355954 0.880820 0.383741
O O7 0.413483 0.000000 0.313219
O O8 0.863816 0.727632 0.300363
O O9 0.910485 0.682135 0.200398
O O10 0.000000 0.774378 0.288298
O O11 0.774600 0.549199 0.928918
O O12 0.910773 0.633185 0.914628
O O13 0.863651 0.527507 0.000000
O O14 0.137036 0.862965 0.899261
O O15 0.231220 0.000000 0.892002
O O16 0.501541 0.327195 0.500000
O O17 0.515070 0.257535 0.601642
O O18 0.607554 0.392447 0.585721
#
# Coordination Sequence:
#
# PCOD8329222 Si02
#       6
#    24  24  24  24  24  24
#     4  11  22  36  54  75 101 132 169 212 259 312
#     4  11  22  35  53  76 103 136 172 211 253 297
#     4   9  16  28  48  72  97 126 163 205 247 292
#     4   9  18  32  49  69  94 125 162 206 254 302
#     4   9  16  28  47  70  95 125 163 206 251 299
#     4  10  21  37  57  79 104 135 171 211 255 305
#
# _framework density 17.722028999999999
#
# number of rings (size 3 to 8) (size 9 to 14) (size 15 to 20)
#    0.000    2.167    1.667    2.333    0.000    3.000 
#    0.000    2.500    0.000    1.333    0.000    4.667 
#    0.000    0.000    0.000    4.167    0.000    4.333 
#
# Total GULP energy -1785161.373947 kJ/mol
# GULP energy per Si atom -12396.953986 kJ/mol
# Density = 1.768169 g / cm^3
# Si number density = 17.722029 Si / 1000 Ang^3
#
#
#
# Elastic Constant Matrix: (Units=GPa)
#
#
# Indices 1 2 3 4 5 6 
#
# 1 94.1188 46.1921 43.5837 0.0000 0.0000 0.0000
# 2 46.1921 94.1188 43.5837 0.0000 0.0000 0.0000
# 3 43.5837 43.5837 88.1579 0.0000 0.0000 0.0000
# 4 0.0000 0.0000 0.0000 16.0700 0.0000 0.0000
# 5 0.0000 0.0000 0.0000 0.0000 16.0700 0.0000
# 6 0.0000 0.0000 0.0000 0.0000 0.0000 23.9634
#
#
#
# Elastic Compliance Matrix: (Units=1/GPa)
#
#
# Indices 1 2 3 4 5 6 
#
# 1 0.015576 -0.005289 -0.005085 0.000000 0.000000 0.000000
# 2 -0.005289 0.015576 -0.005085 0.000000 0.000000 0.000000
# 3 -0.005085 -0.005085 0.016372 0.000000 0.000000 0.000000
# 4 0.000000 0.000000 0.000000 0.062228 0.000000 0.000000
# 5 0.000000 0.000000 0.000000 0.000000 0.062228 0.000000
# 6 0.000000 0.000000 0.000000 0.000000 0.000000 0.041730
#
#
# Mechanical properties :
#
#
# Convention : Reuss Voigt Hill
#
# Bulk Modulus (GPa) = 60.23138 60.34607 60.28873
# Shear Modulus (GPa) = 19.98695 20.75642 20.37169
#
# Velocity S-wave (km/s) = 3.36192 3.42602 3.39412
# Velocity P-wave (km/s) = 7.00932 7.05518 7.03229
#
# Compressibility (1/GPa) = 0.01660264
#
# Stress axis : x y z
#
# Youngs Moduli (GPa) = 64.20245 64.20245 61.08173
#
# Poissons Ratio (x) = 0.33960 0.31062
# Poissons Ratio (y) = 0.33960 0.31062
# Poissons Ratio (z) = 0.32649 0.32649
#
# Static dielectric constant tensor:
#      x y z
#    x 3.248010 0.000000 0.000000 
#    y 0.000000 3.248010 0.000000 
#    z 0.000000 0.000000 3.356840 
# 
# 
# High freq. dielectric constant tensor:
#      x y z
#    x 1.673590 0.000000 0.000000 
#    y 0.000000 1.673590 0.000000 
#    z 0.000000 0.000000 1.677050 
# 
# From -- ./inp_files/7590.got.cif
#   From: 2010.03.12/outbox.cif.g09.slc.cpg/sg191_4_cif.got.tgz:7590.got - 2010.04.01 12:09:02.
