data_PCOD8329157
_publ_section_title
;
Structure prediction by ZEFSAII (Michael W. Deem and Ramdas Pophale) SiO2 
 PCOD8329157
Probable space group: P 6/M M M
;
_chemical_formula_sum "Si O2"
_cell_formula_units_Z 78
_cell_length_a 22.133748
_cell_length_b 22.133748
_cell_length_c 9.414094
_cell_angle_alpha 90.000000
_cell_angle_beta 90.000000
_cell_angle_gamma 120.000000
_cell_volume 3994.101381
_symmetry_space_group_name_H-M "P 6/M M M"
_symmetry_group_IT_number 191
_symmetry_cell_setting 'hexagonal'
loop_
_space_group_symop_operation_xyz
x,y,z
x-y,x,z
-y,x-y,z
-x,-y,z
-x+y,-x,z
y,-x+y,z
x-y,-y,-z
-x,-x+y,-z
y,x,-z
-y,-x,-z
-x+y,y,-z
x,x-y,-z
-x,-y,-z
-x+y,-x,-z
y,-x+y,-z
x,y,-z
x-y,x,-z
-y,x-y,-z
-x+y,y,z
x,x-y,z
-y,-x,z
y,x,z
x-y,-y,z
-x,-x+y,z
loop_
_atom_site_type_symbol
_atom_site_label
_atom_site_fract_x
_atom_site_fract_y
_atom_site_fract_z
Si Si1 0.618344 0.618344 0.667218
Si Si2 0.492107 0.374227 0.846036
Si Si3 0.713046 0.426091 0.500000
Si Si4 0.739850 0.000000 0.163087
Si Si5 0.767951 0.232050 0.240426
Si Si6 0.154453 0.308905 0.165085
O O1 0.624111 0.624111 0.500000
O O2 0.548362 0.616087 0.716142
O O3 0.683460 0.683460 0.734642
O O4 0.573374 0.426627 0.820126
O O5 0.480467 0.297672 0.853807
O O6 0.468105 0.388621 0.000000
O O7 0.627357 0.372644 0.500000
O O8 0.741107 0.482214 0.372508
O O9 0.812220 0.071419 0.195771
O O10 0.717706 0.000000 0.000000
O O11 0.810604 0.189396 0.266191
O O12 0.166689 0.333377 0.000000
#
# Coordination Sequence:
#
# PCOD8329157 Si02
#       6
#    12  24   6  12  12  12
#     4  12  25  39  60  89 123 159 202 256 322 394
#     4  11  24  41  62  86 118 158 207 264 319 377
#     4  10  26  46  58  80 128 181 218 267 336 386
#     4  10  20  39  63  93 128 165 207 252 318 385
#     4  12  22  38  64  88 116 160 213 262 318 381
#     4  10  20  36  66  95 124 160 207 266 316 381
#
# _framework density 19.528797999999998
#
# number of rings (size 3 to 8) (size 9 to 14) (size 15 to 20)
#    0.154    0.923    3.077    4.154    2.154    2.462 
#    0.923    0.000    0.000    0.308    0.000    2.154 
#    0.000    0.000    0.000    1.385    0.000    1.538 
#
# Total GULP energy -966274.855226 kJ/mol
# GULP energy per Si atom -12388.139170 kJ/mol
# Density = 1.948435 g / cm^3
# Si number density = 19.528798 Si / 1000 Ang^3
#
#
#
# Elastic Constant Matrix: (Units=GPa)
#
#
# Indices 1 2 3 4 5 6 
#
# 1 143.8053 73.2097 39.7568 0.0000 0.0000 0.0000
# 2 73.2097 143.8053 39.7568 0.0000 0.0000 0.0000
# 3 39.7568 39.7568 105.1654 0.0000 0.0000 0.0000
# 4 0.0000 0.0000 0.0000 20.3474 0.0000 0.0000
# 5 0.0000 0.0000 0.0000 0.0000 20.3474 0.0000
# 6 0.0000 0.0000 0.0000 0.0000 0.0000 35.2978
#
#
#
# Elastic Compliance Matrix: (Units=1/GPa)
#
#
# Indices 1 2 3 4 5 6 
#
# 1 0.009757 -0.004408 -0.002022 0.000000 0.000000 0.000000
# 2 -0.004408 0.009757 -0.002022 0.000000 0.000000 0.000000
# 3 -0.002022 -0.002022 0.011038 0.000000 0.000000 0.000000
# 4 0.000000 0.000000 0.000000 0.049146 0.000000 0.000000
# 5 0.000000 0.000000 0.000000 0.000000 0.049146 0.000000
# 6 0.000000 0.000000 0.000000 0.000000 0.000000 0.028330
#
#
# Mechanical properties :
#
#
# Convention : Reuss Voigt Hill
#
# Bulk Modulus (GPa) = 73.27583 77.58030 75.42806
# Shear Modulus (GPa) = 27.99104 31.20203 29.59653
#
# Velocity S-wave (km/s) = 3.79003 4.00152 3.89721
# Velocity P-wave (km/s) = 7.53365 7.82060 7.67847
#
# Compressibility (1/GPa) = 0.01364707
#
# Stress axis : x y z
#
# Youngs Moduli (GPa) = 102.49027 102.49027 90.59862
#
# Poissons Ratio (x) = 0.45179 0.18320
# Poissons Ratio (y) = 0.45179 0.18320
# Poissons Ratio (z) = 0.20724 0.20724
#
# Static dielectric constant tensor:
#      x y z
#    x 3.726550 0.000000 0.000000 
#    y 0.000000 3.726550 0.000000 
#    z 0.000000 0.000000 3.548580 
# 
# 
# High freq. dielectric constant tensor:
#      x y z
#    x 1.758250 0.000000 0.000000 
#    y 0.000000 1.758250 0.000000 
#    z 0.000000 0.000000 1.747900 
# 
# From -- ./inp_files/1112.got.cif
#   From: 2010.03.12/outbox.cif.g09.slc.cpg/sg191_1_cif.got.tgz:1112.got - 2010.04.01 12:09:02.
