data_PCOD8329524
_publ_section_title
;
Structure prediction by ZEFSAII (Michael W. Deem and Ramdas Pophale) SiO2 
 PCOD8329524
Probable space group: P 6/M C C
;
_chemical_formula_sum "Si O2"
_cell_formula_units_Z 192
_cell_length_a 30.171322
_cell_length_b 30.171322
_cell_length_c 15.331336
_cell_angle_alpha 90.000000
_cell_angle_beta 90.000000
_cell_angle_gamma 120.000000
_cell_volume 12086.465398
_symmetry_space_group_name_H-M "P 6/M C C"
_symmetry_group_IT_number 192
_symmetry_cell_setting 'hexagonal'
loop_
_space_group_symop_operation_xyz
x,y,z
x-y,x,z
-y,x-y,z
-x,-y,z
-x+y,-x,z
y,-x+y,z
x-y,-y,1/2-z
-x,-x+y,1/2-z
y,x,1/2-z
-y,-x,1/2-z
-x+y,y,1/2-z
x,x-y,1/2-z
-x,-y,-z
-x+y,-x,-z
y,-x+y,-z
x,y,-z
x-y,x,-z
-y,x-y,-z
-x+y,y,1/2+z
x,x-y,1/2+z
-y,-x,1/2+z
y,x,1/2+z
x-y,-y,1/2+z
-x,-x+y,1/2+z
loop_
_atom_site_type_symbol
_atom_site_label
_atom_site_fract_x
_atom_site_fract_y
_atom_site_fract_z
Si Si1 0.100374 0.302801 0.901907
Si Si2 0.798784 0.798784 0.353498
Si Si3 0.240419 0.375429 0.250000
Si Si4 0.807815 0.510614 0.250000
Si Si5 0.769728 0.436440 0.400819
Si Si6 0.563560 0.333288 0.900819
Si Si7 0.899776 0.000000 0.853775
Si Si8 0.100375 0.302801 0.401907
O O1 0.103003 0.345636 0.835916
O O2 0.145758 0.291516 0.879862
O O3 0.048766 0.250010 0.891651
O O4 0.104853 0.323891 0.000000
O O5 0.796488 0.796488 0.250000
O O6 0.849289 0.849288 0.387281
O O7 0.749991 0.798757 0.391651
O O8 0.189591 0.379182 0.250000
O O9 0.289658 0.432461 0.250000
O O10 0.242633 0.345636 0.164084
O O11 0.757434 0.514867 0.250000
O O12 0.809109 0.481085 0.336816
O O13 0.809109 0.481085 0.163185
O O14 0.787169 0.454535 0.500000
O O15 0.770824 0.385412 0.378441
O O16 0.712136 0.424272 0.384758
O O17 0.545465 0.332634 0.000000
O O18 0.949727 0.050273 0.890323
O O19 0.900822 0.000000 0.750000
O O20 0.104853 0.323891 0.500000
#
# Coordination Sequence:
#
# PCOD8329524 Si02
#       8
#    24  24  24  24  24  24  24  24
#     4  10  20  33  49  68  90 116 146 181 222 268
#     4  11  19  30  49  69  92 118 147 185 223 264
#     4   9  18  32  46  62  85 113 149 189 228 270
#     4   9  17  27  40  58  81 113 154 196 232 268
#     4   9  16  25  38  58  86 121 160 198 231 260
#     4   9  16  25  38  58  86 121 160 198 231 260
#     4   9  17  27  42  65  93 124 154 184 218 257
#     4  10  20  33  49  68  90 116 146 181 222 268
#
# _framework density 15.885538
#
# number of rings (size 3 to 8) (size 9 to 14) (size 15 to 20)
#    0.000    2.500    1.250    1.875    0.000    3.500 
#    0.000    6.250    0.000    0.000    0.000    0.000 
#    0.000    6.000    0.000    9.000    0.000   34.000 
#
# Total GULP energy -2380638.063445 kJ/mol
# GULP energy per Si atom -12399.156580 kJ/mol
# Density = 1.584938 g / cm^3
# Si number density = 15.885538 Si / 1000 Ang^3
#
#
#
# Elastic Constant Matrix: (Units=GPa)
#
#
# Indices 1 2 3 4 5 6 
#
# 1 84.7825 58.9498 50.1199 0.0000 0.0000 0.0000
# 2 58.9498 84.7825 50.1199 0.0000 0.0000 0.0000
# 3 50.1199 50.1199 109.1100 0.0000 0.0000 0.0000
# 4 0.0000 0.0000 0.0000 11.7898 0.0000 0.0000
# 5 0.0000 0.0000 0.0000 0.0000 11.7898 0.0000
# 6 0.0000 0.0000 0.0000 0.0000 0.0000 12.9163
#
#
#
# Elastic Compliance Matrix: (Units=1/GPa)
#
#
# Indices 1 2 3 4 5 6 
#
# 1 0.024474 -0.014237 -0.004702 0.000000 0.000000 0.000000
# 2 -0.014237 0.024474 -0.004702 0.000000 0.000000 0.000000
# 3 -0.004702 -0.004702 0.013485 0.000000 0.000000 0.000000
# 4 0.000000 0.000000 0.000000 0.084819 0.000000 0.000000
# 5 0.000000 0.000000 0.000000 0.000000 0.084819 0.000000
# 6 0.000000 0.000000 0.000000 0.000000 0.000000 0.077421
#
#
# Mechanical properties :
#
#
# Convention : Reuss Voigt Hill
#
# Bulk Modulus (GPa) = 66.00885 66.33938 66.17412
# Shear Modulus (GPa) = 13.81885 15.26489 14.54187
#
# Velocity S-wave (km/s) = 2.95261 3.10325 3.02887
# Velocity P-wave (km/s) = 7.29842 7.39539 7.34706
#
# Compressibility (1/GPa) = 0.01514948
#
# Stress axis : x y z
#
# Youngs Moduli (GPa) = 40.86017 40.86017 74.15605
#
# Poissons Ratio (x) = 0.58172 0.34870
# Poissons Ratio (y) = 0.58172 0.34870
# Poissons Ratio (z) = 0.19214 0.19214
#
# Static dielectric constant tensor:
#      x y z
#    x 2.925440 0.000000 0.000000 
#    y 0.000000 2.925440 0.000000 
#    z 0.000000 0.000000 3.211090 
# 
# 
# High freq. dielectric constant tensor:
#      x y z
#    x 1.580830 0.000000 0.000000 
#    y 0.000000 1.580830 0.000000 
#    z 0.000000 0.000000 1.625360 
# 
# From -- ./inp_files/3556.got.cif
#   From: 2010.03.12/outbox.cif.g09.slc.cpg/sg192_2_cif.got.tgz:3556.got - 2010.04.01 12:16:15.
