data_PCOD8329930
_publ_section_title
;
Structure prediction by ZEFSAII (Michael W. Deem and Ramdas Pophale) SiO2 
 PCOD8329930
Probable space group: P 63/M C M
;
_chemical_formula_sum "Si O2"
_cell_formula_units_Z 144
_cell_length_a 32.382696
_cell_length_b 32.382696
_cell_length_c 9.019127
_cell_angle_alpha 90.000000
_cell_angle_beta 90.000000
_cell_angle_gamma 120.000000
_cell_volume 8190.702269
_symmetry_space_group_name_H-M "P 63/M C M"
_symmetry_group_IT_number 193
_symmetry_cell_setting 'hexagonal'
loop_
_space_group_symop_operation_xyz
x,y,z
x-y,x,1/2+z
-y,x-y,z
-x,-y,1/2+z
-x+y,-x,z
y,-x+y,1/2+z
x-y,-y,1/2-z
-x,-x+y,1/2-z
y,x,1/2-z
-y,-x,-z
-x+y,y,-z
x,x-y,-z
-x,-y,-z
-x+y,-x,1/2-z
y,-x+y,-z
x,y,1/2-z
x-y,x,-z
-y,x-y,1/2-z
-x+y,y,1/2+z
x,x-y,1/2+z
-y,-x,1/2+z
y,x,z
x-y,-y,z
-x,-x+y,z
loop_
_atom_site_type_symbol
_atom_site_label
_atom_site_fract_x
_atom_site_fract_y
_atom_site_fract_z
Si Si1 0.808203 0.946213 0.424729
Si Si2 0.853310 0.383154 0.426892
Si Si3 0.283608 0.479082 0.075602
Si Si4 0.891848 0.191768 0.576018
Si Si5 0.386350 0.288627 0.421172
Si Si6 0.947315 0.562487 0.576533
O O1 0.825975 0.912988 0.500000
O O2 0.812116 0.942479 0.250000
O O3 0.753997 0.929855 0.471737
O O4 0.841680 0.000000 0.481355
O O5 0.841655 0.420828 0.500000
O O6 0.847576 0.382353 0.250000
O O7 0.815834 0.332362 0.495077
O O8 0.907115 0.397153 0.475797
O O9 0.286789 0.490837 0.250000
O O10 0.273465 0.425844 0.046966
O O11 0.242195 0.484389 0.000000
O O12 0.841361 0.158640 0.500000
O O13 0.882538 0.186736 0.750000
O O14 0.910944 0.245992 0.525257
O O15 0.385464 0.300209 0.250000
O O16 0.396833 0.335660 0.507989
O O17 0.943725 0.566927 0.750000
O O18 0.000000 0.572744 0.529293
#
# Coordination Sequence:
#
# PCOD8329930 Si02
#       6
#    24  24  24  24  24  24
#     4   9  18  32  49  69  93 121 153 190 233 280
#     4  10  20  35  54  75 100 130 165 207 253 300
#     4  10  19  32  51  76 103 131 165 202 243 291
#     4   9  17  29  45  67  95 126 159 194 232 276
#     4   9  18  30  46  70  99 132 168 203 239 281
#     4   9  19  34  49  68  97 132 169 209 252 293
#
# _framework density 17.580911
#
# number of rings (size 3 to 8) (size 9 to 14) (size 15 to 20)
#    0.000    2.667    0.000    1.500    0.000    3.667 
#    0.000    1.667    0.000    0.500    0.000    2.333 
#    0.000    0.000    0.000    0.000    0.000    0.000 
#
# Total GULP energy -1785525.238526 kJ/mol
# GULP energy per Si atom -12399.480823 kJ/mol
# Density = 1.754090 g / cm^3
# Si number density = 17.580911 Si / 1000 Ang^3
#
#
#
# Elastic Constant Matrix: (Units=GPa)
#
#
# Indices 1 2 3 4 5 6 
#
# 1 92.7218 51.5657 32.8296 0.0000 0.0000 0.0000
# 2 51.5657 92.7218 32.8296 0.0000 0.0000 0.0000
# 3 32.8296 32.8296 47.5749 0.0000 0.0000 0.0000
# 4 0.0000 0.0000 0.0000 27.9058 0.0000 0.0000
# 5 0.0000 0.0000 0.0000 0.0000 27.9058 0.0000
# 6 0.0000 0.0000 0.0000 0.0000 0.0000 20.5780
#
#
#
# Elastic Compliance Matrix: (Units=1/GPa)
#
#
# Indices 1 2 3 4 5 6 
#
# 1 0.017200 -0.007097 -0.006972 0.000000 0.000000 0.000000
# 2 -0.007097 0.017200 -0.006972 0.000000 0.000000 0.000000
# 3 -0.006972 -0.006972 0.030641 0.000000 0.000000 0.000000
# 4 0.000000 0.000000 0.000000 0.035835 0.000000 0.000000
# 5 0.000000 0.000000 0.000000 0.000000 0.035835 0.000000
# 6 0.000000 0.000000 0.000000 0.000000 0.000000 0.048595
#
#
# Mechanical properties :
#
#
# Convention : Reuss Voigt Hill
#
# Bulk Modulus (GPa) = 43.55299 51.94094 47.74697
# Shear Modulus (GPa) = 21.27270 22.99749 22.13510
#
# Velocity S-wave (km/s) = 3.48226 3.62068 3.55215
# Velocity P-wave (km/s) = 6.40272 6.86201 6.63634
#
# Compressibility (1/GPa) = 0.02296054
#
# Stress axis : x y z
#
# Youngs Moduli (GPa) = 58.13793 58.13793 32.63551
#
# Poissons Ratio (x) = 0.41262 0.22753
# Poissons Ratio (y) = 0.41262 0.22753
# Poissons Ratio (z) = 0.40533 0.40533
#
# Static dielectric constant tensor:
#      x y z
#    x 3.291370 0.000000 0.000000 
#    y 0.000000 3.291370 0.000000 
#    z 0.000000 0.000000 3.255300 
# 
# 
# High freq. dielectric constant tensor:
#      x y z
#    x 1.671750 0.000000 0.000000 
#    y 0.000000 1.671750 0.000000 
#    z 0.000000 0.000000 1.680520 
# 
# From -- ./inp_files/1547.got.cif
#   From: 2010.03.12/outbox.cif.g09.slc.cpg/sg193_1_cif.got.tgz:1547.got - 2010.04.01 12:20:39.
