data_PCOD8329900
_publ_section_title
;
Structure prediction by ZEFSAII (Michael W. Deem and Ramdas Pophale) SiO2 
 PCOD8329900
Probable space group: P 63/M C M
;
_chemical_formula_sum "Si O2"
_cell_formula_units_Z 108
_cell_length_a 16.385999
_cell_length_b 16.385999
_cell_length_c 28.625511
_cell_angle_alpha 90.000000
_cell_angle_beta 90.000000
_cell_angle_gamma 120.000000
_cell_volume 6656.251574
_symmetry_space_group_name_H-M "P 63/M C M"
_symmetry_group_IT_number 193
_symmetry_cell_setting 'hexagonal'
loop_
_space_group_symop_operation_xyz
x,y,z
x-y,x,1/2+z
-y,x-y,z
-x,-y,1/2+z
-x+y,-x,z
y,-x+y,1/2+z
x-y,-y,1/2-z
-x,-x+y,1/2-z
y,x,1/2-z
-y,-x,-z
-x+y,y,-z
x,x-y,-z
-x,-y,-z
-x+y,-x,1/2-z
y,-x+y,-z
x,y,1/2-z
x-y,x,-z
-y,x-y,1/2-z
-x+y,y,1/2+z
x,x-y,1/2+z
-y,-x,1/2+z
y,x,z
x-y,-y,z
-x,-x+y,z
loop_
_atom_site_type_symbol
_atom_site_label
_atom_site_fract_x
_atom_site_fract_y
_atom_site_fract_z
Si Si1 0.390486 0.281918 0.907871
Si Si2 0.783349 0.413355 0.750000
Si Si3 0.399779 0.292249 0.395082
Si Si4 0.106995 0.464775 0.998746
Si Si5 0.892571 0.437741 0.343548
O O1 0.304208 0.304208 0.904429
O O2 0.358748 0.178395 0.886275
O O3 0.424311 0.278188 0.960904
O O4 0.482267 0.361059 0.881704
O O5 0.699938 0.438970 0.750000
O O6 0.841944 0.456085 0.703493
O O7 0.320535 0.320535 0.382221
O O8 0.427175 0.313896 0.448836
O O9 0.494494 0.350698 0.364386
O O10 0.000000 0.426650 0.014917
O O11 0.158643 0.579322 0.000000
O O12 0.000000 0.502699 0.329875
#
# Coordination Sequence:
#
# PCOD8329900 Si02
#       5
#    24  12  24  24  24
#     4  10  19  31  49  69  96 126 160 198 237 283
#     4  10  21  32  46  64  94 122 150 190 229 278
#     4  10  19  31  49  69  96 126 160 198 237 283
#     4   9  15  28  45  66  93 123 154 188 232 282
#     4  10  19  33  50  67  89 124 159 197 236 280
#
# _framework density 16.225346999999999
#
# number of rings (size 3 to 8) (size 9 to 14) (size 15 to 20)
#    0.222    2.000    2.222    2.333    0.000    0.000 
#    1.333    0.000    0.000    0.444    0.000    0.000 
#    0.000    5.333    0.000    0.000    0.000   46.222 
#
# Total GULP energy -1338264.022206 kJ/mol
# GULP energy per Si atom -12391.333539 kJ/mol
# Density = 1.618842 g / cm^3
# Si number density = 16.225347 Si / 1000 Ang^3
#
#
#
# Elastic Constant Matrix: (Units=GPa)
#
#
# Indices 1 2 3 4 5 6 
#
# 1 61.2904 22.7877 -5.8376 0.0000 0.0000 0.0000
# 2 22.7877 61.2904 -5.8376 0.0000 0.0000 0.0000
# 3 -5.8376 -5.8376 56.4811 0.0000 0.0000 0.0000
# 4 0.0000 0.0000 0.0000 14.4986 0.0000 0.0000
# 5 0.0000 0.0000 0.0000 0.0000 14.4986 0.0000
# 6 0.0000 0.0000 0.0000 0.0000 0.0000 19.2513
#
#
#
# Elastic Compliance Matrix: (Units=1/GPa)
#
#
# Indices 1 2 3 4 5 6 
#
# 1 0.019020 -0.006953 0.001247 0.000000 0.000000 0.000000
# 2 -0.006953 0.019020 0.001247 0.000000 0.000000 0.000000
# 3 0.001247 0.001247 0.017963 0.000000 0.000000 0.000000
# 4 0.000000 0.000000 0.000000 0.068972 0.000000 0.000000
# 5 0.000000 0.000000 0.000000 0.000000 0.068972 0.000000
# 6 0.000000 0.000000 0.000000 0.000000 0.000000 0.051944
#
#
# Mechanical properties :
#
#
# Convention : Reuss Voigt Hill
#
# Bulk Modulus (GPa) = 21.23804 22.36521 21.80162
# Shear Modulus (GPa) = 18.48413 20.84635 19.66524
#
# Velocity S-wave (km/s) = 3.37889 3.58830 3.48517
# Velocity P-wave (km/s) = 5.32356 5.56614 5.44620
#
# Compressibility (1/GPa) = 0.04708532
#
# Stress axis : x y z
#
# Youngs Moduli (GPa) = 52.57749 52.57749 55.67047
#
# Poissons Ratio (x) = 0.36555 -0.06943
# Poissons Ratio (y) = 0.36555 -0.06943
# Poissons Ratio (z) = -0.06557 -0.06557
#
# Static dielectric constant tensor:
#      x y z
#    x 3.047160 0.000000 0.000000 
#    y 0.000000 3.047160 0.000000 
#    z 0.000000 0.000000 2.980110 
# 
# 
# High freq. dielectric constant tensor:
#      x y z
#    x 1.605300 0.000000 0.000000 
#    y 0.000000 1.605300 0.000000 
#    z 0.000000 0.000000 1.624980 
# 
# From -- ./inp_files/8192.got.cif
#   From: 2010.03.12/outbox.cif.g09.slc.cpg/sg193_5_cif.got.tgz:8192.got - 2010.04.01 12:20:39.
