data_PCOD8329303
_publ_section_title
;
Structure prediction by ZEFSAII (Michael W. Deem and Ramdas Pophale) SiO2 
 PCOD8329303
Probable space group: P 6/M M M
;
_chemical_formula_sum "Si O2"
_cell_formula_units_Z 168
_cell_length_a 18.517589
_cell_length_b 18.517589
_cell_length_c 35.193675
_cell_angle_alpha 90.000000
_cell_angle_beta 90.000000
_cell_angle_gamma 120.000000
_cell_volume 10451.151232
_symmetry_space_group_name_H-M "P 6/M M M"
_symmetry_group_IT_number 191
_symmetry_cell_setting 'hexagonal'
loop_
_space_group_symop_operation_xyz
x,y,z
x-y,x,z
-y,x-y,z
-x,-y,z
-x+y,-x,z
y,-x+y,z
x-y,-y,-z
-x,-x+y,-z
y,x,-z
-y,-x,-z
-x+y,y,-z
x,x-y,-z
-x,-y,-z
-x+y,-x,-z
y,-x+y,-z
x,y,-z
x-y,x,-z
-y,x-y,-z
-x+y,y,z
x,x-y,z
-y,-x,z
y,x,z
x-y,-y,z
-x,-x+y,z
loop_
_atom_site_type_symbol
_atom_site_label
_atom_site_fract_x
_atom_site_fract_y
_atom_site_fract_z
Si Si1 0.834878 0.503337 0.236773
Si Si2 0.348785 0.093029 0.543776
Si Si3 0.170866 0.502645 0.680677
Si Si4 0.496651 0.165114 0.598120
Si Si5 0.744176 0.093073 0.817597
Si Si6 0.653056 0.907410 0.095034
Si Si7 0.666373 0.499010 0.956294
O O1 0.739018 0.478035 0.229629
O O2 0.842921 0.421461 0.231879
O O3 0.865176 0.545419 0.279202
O O4 0.894106 0.572045 0.206595
O O5 0.376437 0.104149 0.500000
O O6 0.320953 0.160477 0.555332
O O7 0.427878 0.105901 0.567965
O O8 0.271596 0.000000 0.551383
O O9 0.270184 0.540368 0.680677
O O10 0.151048 0.575524 0.680681
O O11 0.134825 0.454601 0.640553
O O12 0.578528 0.157056 0.593194
O O13 0.521987 0.260993 0.590982
O O14 0.839460 0.160541 0.806025
O O15 0.727688 0.104298 0.861411
O O16 0.728294 0.000000 0.810047
O O17 0.682293 0.841147 0.083917
O O18 0.576335 0.894982 0.069410
O O19 0.730638 0.000000 0.087849
O O20 0.737622 0.475243 0.949295
O O21 0.579323 0.420678 0.943949
O O22 0.664859 0.523218 0.000000
#
# Coordination Sequence:
#
# PCOD8329303 Si02
#       7
#    24  24  24  24  24  24  24
#     4   9  16  26  41  62  88 118 150 180 208 239
#     4   9  18  32  48  64  82 106 136 170 210 255
#     4   8  13  22  37  57  82 113 148 182 211 237
#     4   9  16  26  41  62  88 118 150 180 207 235
#     4   9  18  32  48  64  83 109 140 174 214 259
#     4   9  18  32  48  65  85 110 140 174 214 259
#     4   9  17  29  45  65  90 120 152 183 212 241
#
# _framework density 16.074784999999999
#
# number of rings (size 3 to 8) (size 9 to 14) (size 15 to 20)
#    0.000    3.143    0.000    0.571    0.000    4.857 
#    0.000    3.571    0.000    5.571    0.000    3.000 
#    0.000    0.000    0.000    3.571    0.000   20.571 
#
# Total GULP energy -2081331.816117 kJ/mol
# GULP energy per Si atom -12388.879858 kJ/mol
# Density = 1.603820 g / cm^3
# Si number density = 16.074785 Si / 1000 Ang^3
#
#
#
# Elastic Constant Matrix: (Units=GPa)
#
#
# Indices 1 2 3 4 5 6 
#
# 1 81.4411 52.2524 45.5953 0.0000 0.0000 0.0000
# 2 52.2524 81.4411 45.5953 0.0000 0.0000 0.0000
# 3 45.5953 45.5953 75.4264 0.0000 0.0000 0.0000
# 4 0.0000 0.0000 0.0000 17.1757 0.0000 0.0000
# 5 0.0000 0.0000 0.0000 0.0000 17.1757 0.0000
# 6 0.0000 0.0000 0.0000 0.0000 0.0000 14.5944
#
#
#
# Elastic Compliance Matrix: (Units=1/GPa)
#
#
# Indices 1 2 3 4 5 6 
#
# 1 0.023494 -0.010766 -0.007694 0.000000 0.000000 0.000000
# 2 -0.010766 0.023494 -0.007694 0.000000 0.000000 0.000000
# 3 -0.007694 -0.007694 0.022560 0.000000 0.000000 0.000000
# 4 0.000000 0.000000 0.000000 0.058222 0.000000 0.000000
# 5 0.000000 0.000000 0.000000 0.000000 0.058222 0.000000
# 6 0.000000 0.000000 0.000000 0.000000 0.000000 0.068520
#
#
# Mechanical properties :
#
#
# Convention : Reuss Voigt Hill
#
# Bulk Modulus (GPa) = 58.00569 58.35496 58.18032
# Shear Modulus (GPa) = 15.99669 16.11354 16.05512
#
# Velocity S-wave (km/s) = 3.15801 3.16952 3.16377
# Velocity P-wave (km/s) = 7.03282 7.05517 7.04401
#
# Compressibility (1/GPa) = 0.01723969
#
# Stress axis : x y z
#
# Youngs Moduli (GPa) = 42.56450 42.56450 44.32648
#
# Poissons Ratio (x) = 0.45825 0.34104
# Poissons Ratio (y) = 0.45825 0.34104
# Poissons Ratio (z) = 0.32749 0.32749
#
# Static dielectric constant tensor:
#      x y z
#    x 2.921920 0.000000 0.000000 
#    y 0.000000 2.921920 0.000000 
#    z 0.000000 0.000000 3.433020 
# 
# 
# High freq. dielectric constant tensor:
#      x y z
#    x 1.593040 0.000000 0.000000 
#    y 0.000000 1.593040 0.000000 
#    z 0.000000 0.000000 1.632570 
# 
# From -- ./inp_files/10753.got.cif
#   From: 2010.03.12/outbox.cif.g09.slc.cpg/sg191_6_cif.got.tgz:10753.got - 2010.04.01 12:09:02.
