data_PCOD8329475
_publ_section_title
;
Structure prediction by ZEFSAII (Michael W. Deem and Ramdas Pophale) SiO2 
 PCOD8329475
Probable space group: P 6/M C C
;
_chemical_formula_sum "Si O2"
_cell_formula_units_Z 192
_cell_length_a 31.121643
_cell_length_b 31.121643
_cell_length_c 14.771655
_cell_angle_alpha 90.000000
_cell_angle_beta 90.000000
_cell_angle_gamma 120.000000
_cell_volume 12390.385558
_symmetry_space_group_name_H-M "P 6/M C C"
_symmetry_group_IT_number 192
_symmetry_cell_setting 'hexagonal'
loop_
_space_group_symop_operation_xyz
x,y,z
x-y,x,z
-y,x-y,z
-x,-y,z
-x+y,-x,z
y,-x+y,z
x-y,-y,1/2-z
-x,-x+y,1/2-z
y,x,1/2-z
-y,-x,1/2-z
-x+y,y,1/2-z
x,x-y,1/2-z
-x,-y,-z
-x+y,-x,-z
y,-x+y,-z
x,y,-z
x-y,x,-z
-y,x-y,-z
-x+y,y,1/2+z
x,x-y,1/2+z
-y,-x,1/2+z
y,x,1/2+z
x-y,-y,1/2+z
-x,-x+y,1/2+z
loop_
_atom_site_type_symbol
_atom_site_label
_atom_site_fract_x
_atom_site_fract_y
_atom_site_fract_z
Si Si1 0.733848 0.917836 0.750000
Si Si2 0.519747 0.575578 0.143073
Si Si3 0.944170 0.424422 0.856927
Si Si4 0.770822 0.770822 0.605830
Si Si5 0.682938 0.099802 0.397685
Si Si6 0.241799 0.858502 0.250000
Si Si7 0.317062 0.900198 0.102315
Si Si8 0.669751 0.669751 0.897256
O O1 0.742556 0.871278 0.750000
O O2 0.760824 0.950466 0.840141
O O3 0.675238 0.900298 0.749999
O O4 0.760825 0.950466 0.659859
O O5 0.465072 0.534927 0.107368
O O6 0.559605 0.559605 0.109345
O O7 0.519472 0.576752 0.250000
O O8 0.532725 0.629568 0.105542
O O9 0.903157 0.370432 0.894458
O O10 0.786939 0.786939 0.500000
O O11 0.720175 0.720174 0.610303
O O12 0.703156 0.108470 0.500000
O O13 0.726509 0.141152 0.337111
O O14 0.674701 0.048874 0.351704
O O15 0.194196 0.805804 0.250000
O O16 0.273491 0.858847 0.162889
O O17 0.325299 0.951125 0.148296
O O18 0.296844 0.891529 0.000000
O O19 0.653637 0.653637 0.000000
#
# Coordination Sequence:
#
# PCOD8329475 Si02
#       8
#    24  24  24  24  24  24  24  24
#     4  10  21  33  48  70  93 122 159 201 248 285
#     4   9  17  28  44  68  96 124 153 186 225 271
#     4   9  17  28  44  68  96 124 153 186 225 271
#     4  10  19  33  50  68  92 122 161 205 241 277
#     4  11  20  31  48  66  88 122 159 195 235 278
#     4  11  23  35  46  62  87 119 156 205 249 277
#     4  11  20  31  48  66  88 122 159 195 235 278
#     4   9  17  27  42  67  87 116 161 193 227 272
#
# _framework density 15.495886
#
# number of rings (size 3 to 8) (size 9 to 14) (size 15 to 20)
#    0.000    2.000    5.000    0.750    0.000    2.000 
#    0.000    3.750    0.000    0.000    0.000    0.000 
#    0.000    0.000    0.000   15.000    0.000   32.500 
#
# Total GULP energy -2378961.407974 kJ/mol
# GULP energy per Si atom -12390.424000 kJ/mol
# Density = 1.546062 g / cm^3
# Si number density = 15.495886 Si / 1000 Ang^3
#
#
#
# Elastic Constant Matrix: (Units=GPa)
#
#
# Indices 1 2 3 4 5 6 
#
# 1 74.0924 31.3583 35.6971 0.0000 0.0000 0.0000
# 2 31.3583 74.0924 35.6971 0.0000 0.0000 0.0000
# 3 35.6971 35.6971 100.5895 0.0000 0.0000 0.0000
# 4 0.0000 0.0000 0.0000 11.7331 0.0000 0.0000
# 5 0.0000 0.0000 0.0000 0.0000 11.7331 0.0000
# 6 0.0000 0.0000 0.0000 0.0000 0.0000 21.3670
#
#
#
# Elastic Compliance Matrix: (Units=1/GPa)
#
#
# Indices 1 2 3 4 5 6 
#
# 1 0.017941 -0.005459 -0.004430 0.000000 0.000000 0.000000
# 2 -0.005459 0.017941 -0.004430 0.000000 0.000000 0.000000
# 3 -0.004430 -0.004430 0.013085 0.000000 0.000000 0.000000
# 4 0.000000 0.000000 0.000000 0.085229 0.000000 0.000000
# 5 0.000000 0.000000 0.000000 0.000000 0.085229 0.000000
# 6 0.000000 0.000000 0.000000 0.000000 0.000000 0.046801
#
#
# Mechanical properties :
#
#
# Convention : Reuss Voigt Hill
#
# Bulk Modulus (GPa) = 49.18583 50.47550 49.83066
# Shear Modulus (GPa) = 16.57602 18.70144 17.63873
#
# Velocity S-wave (km/s) = 3.27418 3.47776 3.37751
# Velocity P-wave (km/s) = 6.78998 6.98360 6.88747
#
# Compressibility (1/GPa) = 0.02033106
#
# Stress axis : x y z
#
# Youngs Moduli (GPa) = 55.73720 55.73720 76.42109
#
# Poissons Ratio (x) = 0.30428 0.33852
# Poissons Ratio (y) = 0.30428 0.33852
# Poissons Ratio (z) = 0.24690 0.24690
#
# Static dielectric constant tensor:
#      x y z
#    x 2.823530 0.000000 0.000000 
#    y 0.000000 2.823530 0.000000 
#    z 0.000000 0.000000 3.062960 
# 
# 
# High freq. dielectric constant tensor:
#      x y z
#    x 1.560370 0.000000 0.000000 
#    y 0.000000 1.560370 0.000000 
#    z 0.000000 0.000000 1.608050 
# 
# From -- ./inp_files/3595.got.cif
#   From: 2010.03.12/outbox.cif.g09.slc.cpg/sg192_2_cif.got.tgz:3595.got - 2010.04.01 12:16:15.
