data_PCOD8329261
_publ_section_title
;
Structure prediction by ZEFSAII (Michael W. Deem and Ramdas Pophale) SiO2 
 PCOD8329261
Probable space group: P 6/M M M
;
_chemical_formula_sum "Si O2"
_cell_formula_units_Z 144
_cell_length_a 21.247928
_cell_length_b 21.247928
_cell_length_c 24.199375
_cell_angle_alpha 90.000000
_cell_angle_beta 90.000000
_cell_angle_gamma 120.000000
_cell_volume 9461.673410
_symmetry_space_group_name_H-M "P 6/M M M"
_symmetry_group_IT_number 191
_symmetry_cell_setting 'hexagonal'
loop_
_space_group_symop_operation_xyz
x,y,z
x-y,x,z
-y,x-y,z
-x,-y,z
-x+y,-x,z
y,-x+y,z
x-y,-y,-z
-x,-x+y,-z
y,x,-z
-y,-x,-z
-x+y,y,-z
x,x-y,-z
-x,-y,-z
-x+y,-x,-z
y,-x+y,-z
x,y,-z
x-y,x,-z
-y,x-y,-z
-x+y,y,z
x,x-y,z
-y,-x,z
y,x,z
x-y,-y,z
-x,-x+y,z
loop_
_atom_site_type_symbol
_atom_site_label
_atom_site_fract_x
_atom_site_fract_y
_atom_site_fract_z
Si Si1 0.918194 0.223565 0.936868
Si Si2 0.393107 0.082524 0.161323
Si Si3 0.079660 0.298496 0.739243
Si Si4 0.613949 0.527806 0.440203
Si Si5 0.479632 0.664906 0.768633
Si Si6 0.662033 0.577821 0.325463
O O1 0.861278 0.138722 0.924661
O O2 0.900385 0.275703 0.899683
O O3 0.000000 0.239514 0.923909
O O4 0.911670 0.243116 0.000000
O O5 0.341090 0.093198 0.203566
O O6 0.476109 0.139634 0.177108
O O7 0.378173 0.000000 0.165345
O O8 0.133900 0.267799 0.733140
O O9 0.091579 0.352594 0.688829
O O10 0.000000 0.228656 0.737361
O O11 0.654221 0.539510 0.500000
O O12 0.557473 0.442528 0.431755
O O13 0.570983 0.570983 0.441270
O O14 0.668691 0.555526 0.388279
O O15 0.486100 0.743050 0.761654
O O16 0.395898 0.604103 0.776397
O O17 0.511557 0.645698 0.714970
O O18 0.597744 0.597744 0.318560
#
# Coordination Sequence:
#
# PCOD8329261 Si02
#       6
#    24  24  24  24  24  24
#     4   9  16  26  42  64  89 115 142 172 206 244
#     4   9  17  29  46  66  84 104 133 171 211 243
#     4   9  16  26  41  60  82 106 132 165 204 243
#     4   8  13  21  34  55  83 109 131 158 194 237
#     4  11  21  31  43  59  83 111 137 167 203 248
#     4   9  16  26  43  64  82 103 133 169 206 240
#
# _framework density 15.219295000000001
#
# number of rings (size 3 to 8) (size 9 to 14) (size 15 to 20)
#    0.000    2.833    0.000    5.667    0.000    2.000 
#    0.000    0.000    0.000    2.833    0.000    3.500 
#    0.000    6.667    0.000    0.167    0.000    0.000 
#
# Total GULP energy -1784547.984395 kJ/mol
# GULP energy per Si atom -12392.694336 kJ/mol
# Density = 1.518466 g / cm^3
# Si number density = 15.219295 Si / 1000 Ang^3
#
#
#
# Elastic Constant Matrix: (Units=GPa)
#
#
# Indices 1 2 3 4 5 6 
#
# 1 70.5144 37.5205 32.7246 0.0000 0.0000 0.0000
# 2 37.5205 70.5144 32.7246 0.0000 0.0000 0.0000
# 3 32.7246 32.7246 100.4893 0.0000 0.0000 0.0000
# 4 0.0000 0.0000 0.0000 13.1802 0.0000 0.0000
# 5 0.0000 0.0000 0.0000 0.0000 13.1802 0.0000
# 6 0.0000 0.0000 0.0000 0.0000 0.0000 16.4970
#
#
#
# Elastic Compliance Matrix: (Units=1/GPa)
#
#
# Indices 1 2 3 4 5 6 
#
# 1 0.020920 -0.009389 -0.003755 0.000000 0.000000 0.000000
# 2 -0.009389 0.020920 -0.003755 0.000000 0.000000 0.000000
# 3 -0.003755 -0.003755 0.012397 0.000000 0.000000 0.000000
# 4 0.000000 0.000000 0.000000 0.075871 0.000000 0.000000
# 5 0.000000 0.000000 0.000000 0.000000 0.075871 0.000000
# 6 0.000000 0.000000 0.000000 0.000000 0.000000 0.060617
#
#
# Mechanical properties :
#
#
# Convention : Reuss Voigt Hill
#
# Bulk Modulus (GPa) = 48.92651 49.71749 49.32200
# Shear Modulus (GPa) = 16.27564 17.80806 17.04185
#
# Velocity S-wave (km/s) = 3.27373 3.42438 3.34990
# Velocity P-wave (km/s) = 6.81962 6.95511 6.88770
#
# Compressibility (1/GPa) = 0.02043882
#
# Stress axis : x y z
#
# Youngs Moduli (GPa) = 47.80140 47.80140 80.66431
#
# Poissons Ratio (x) = 0.44879 0.30291
# Poissons Ratio (y) = 0.44879 0.30291
# Poissons Ratio (z) = 0.17950 0.17950
#
# Static dielectric constant tensor:
#      x y z
#    x 2.778200 0.000000 0.000000 
#    y 0.000000 2.778200 0.000000 
#    z 0.000000 0.000000 3.282090 
# 
# 
# High freq. dielectric constant tensor:
#      x y z
#    x 1.559300 0.000000 0.000000 
#    y 0.000000 1.559300 0.000000 
#    z 0.000000 0.000000 1.586220 
# 
# From -- ./inp_files/9954.got.cif
#   From: 2010.03.12/outbox.cif.g09.slc.cpg/sg191_5_cif.got.tgz:9954.got - 2010.04.01 12:09:02.
