data_PCOD8329521
_publ_section_title
;
Structure prediction by ZEFSAII (Michael W. Deem and Ramdas Pophale) SiO2 
 PCOD8329521
Probable space group: P 6/M C C
;
_chemical_formula_sum "Si O2"
_cell_formula_units_Z 168
_cell_length_a 29.427296
_cell_length_b 29.427296
_cell_length_c 14.560451
_cell_angle_alpha 90.000000
_cell_angle_beta 90.000000
_cell_angle_gamma 120.000000
_cell_volume 10919.586031
_symmetry_space_group_name_H-M "P 6/M C C"
_symmetry_group_IT_number 192
_symmetry_cell_setting 'hexagonal'
loop_
_space_group_symop_operation_xyz
x,y,z
x-y,x,z
-y,x-y,z
-x,-y,z
-x+y,-x,z
y,-x+y,z
x-y,-y,1/2-z
-x,-x+y,1/2-z
y,x,1/2-z
-y,-x,1/2-z
-x+y,y,1/2-z
x,x-y,1/2-z
-x,-y,-z
-x+y,-x,-z
y,-x+y,-z
x,y,-z
x-y,x,-z
-y,x-y,-z
-x+y,y,1/2+z
x,x-y,1/2+z
-y,-x,1/2+z
y,x,1/2+z
x-y,-y,1/2+z
-x,-x+y,1/2+z
loop_
_atom_site_type_symbol
_atom_site_label
_atom_site_fract_x
_atom_site_fract_y
_atom_site_fract_z
Si Si1 0.898863 0.898863 0.390365
Si Si2 0.899413 0.206873 0.392017
Si Si3 0.692540 0.899413 0.892017
Si Si4 0.539526 0.601635 0.250000
Si Si5 0.531238 0.062476 0.397218
Si Si6 0.705959 0.063481 0.750000
Si Si7 1.000000 0.201479 0.108508
O O1 0.899103 0.949552 0.351392
O O2 0.898245 0.898245 0.500000
O O3 0.848518 0.848518 0.349114
O O4 0.902049 0.217936 0.500000
O O5 0.844289 0.155711 0.365107
O O6 0.908852 0.258813 0.339771
O O7 0.947085 0.199119 0.357451
O O8 0.650038 0.908852 0.839771
O O9 0.747966 0.947085 0.857451
O O10 0.684113 0.902049 0.000000
O O11 0.569190 0.569190 0.250000
O O12 0.503586 0.585734 0.341775
O O13 0.503586 0.585734 0.158225
O O14 0.581195 0.662987 0.250000
O O15 0.543390 0.086780 0.500000
O O16 0.500000 0.000000 0.403287
O O17 0.679873 0.000000 0.750000
O O18 1.000000 0.199261 0.000000
#
# Coordination Sequence:
#
# PCOD8329521 Si02
#       7
#    24  24  24  24  24  24  24
#     4   9  15  22  34  53  75  95 116 150 205 280
#     4  10  20  33  47  62  83 111 145 188 238 293
#     4  10  20  33  47  62  83 111 145 188 238 293
#     4   8  16  26  39  62  88 113 143 173 207 245
#     4   8  13  25  42  61  87 118 145 169 196 229
#     4  11  20  31  46  65  89 113 140 185 233 277
#     4   9  16  28  43  58  74  98 132 172 225 284
#
# _framework density 15.385199
#
# number of rings (size 3 to 8) (size 9 to 14) (size 15 to 20)
#    0.000    2.714    1.429    2.286    0.000    5.143 
#    0.000    2.857    0.000    0.000    0.000    0.000 
#    0.000    0.000    0.000    6.143    0.000   18.429 
#
# Total GULP energy -2082103.950326 kJ/mol
# GULP energy per Si atom -12393.475895 kJ/mol
# Density = 1.535018 g / cm^3
# Si number density = 15.385199 Si / 1000 Ang^3
#
#
#
# Elastic Constant Matrix: (Units=GPa)
#
#
# Indices 1 2 3 4 5 6 
#
# 1 96.1856 59.9899 41.7513 0.0000 0.0000 0.0000
# 2 59.9899 96.1856 41.7513 0.0000 0.0000 0.0000
# 3 41.7513 41.7513 92.6987 0.0000 0.0000 0.0000
# 4 0.0000 0.0000 0.0000 13.8362 0.0000 0.0000
# 5 0.0000 0.0000 0.0000 0.0000 13.8362 0.0000
# 6 0.0000 0.0000 0.0000 0.0000 0.0000 18.0979
#
#
#
# Elastic Compliance Matrix: (Units=1/GPa)
#
#
# Indices 1 2 3 4 5 6 
#
# 1 0.018031 -0.009597 -0.003799 0.000000 0.000000 0.000000
# 2 -0.009597 0.018031 -0.003799 0.000000 0.000000 0.000000
# 3 -0.003799 -0.003799 0.014209 0.000000 0.000000 0.000000
# 4 0.000000 0.000000 0.000000 0.072274 0.000000 0.000000
# 5 0.000000 0.000000 0.000000 0.000000 0.072274 0.000000
# 6 0.000000 0.000000 0.000000 0.000000 0.000000 0.055255
#
#
# Mechanical properties :
#
#
# Convention : Reuss Voigt Hill
#
# Bulk Modulus (GPa) = 62.96081 63.56166 63.26124
# Shear Modulus (GPa) = 17.25579 18.59253 17.92416
#
# Velocity S-wave (km/s) = 3.35264 3.48007 3.41695
# Velocity P-wave (km/s) = 7.48323 7.58624 7.53491
#
# Compressibility (1/GPa) = 0.01588290
#
# Stress axis : x y z
#
# Youngs Moduli (GPa) = 55.46051 55.46051 70.37551
#
# Poissons Ratio (x) = 0.53224 0.26734
# Poissons Ratio (y) = 0.53224 0.26734
# Poissons Ratio (z) = 0.21068 0.21068
#
# Static dielectric constant tensor:
#      x y z
#    x 2.869850 0.000000 0.000000 
#    y 0.000000 2.869850 0.000000 
#    z 0.000000 0.000000 2.976240 
# 
# 
# High freq. dielectric constant tensor:
#      x y z
#    x 1.558230 0.000000 0.000000 
#    y 0.000000 1.558230 0.000000 
#    z 0.000000 0.000000 1.600980 
# 
# From -- ./inp_files/3497.got.cif
#   From: 2010.03.12/outbox.cif.g09.slc.cpg/sg192_2_cif.got.tgz:3497.got - 2010.04.01 12:16:15.
