data_PCOD8329831
_publ_section_title
;
Structure prediction by ZEFSAII (Michael W. Deem and Ramdas Pophale) SiO2 
 PCOD8329831
Probable space group: P 63/M C M
;
_chemical_formula_sum "Si O2"
_cell_formula_units_Z 120
_cell_length_a 20.071986
_cell_length_b 20.071986
_cell_length_c 18.318218
_cell_angle_alpha 90.000000
_cell_angle_beta 90.000000
_cell_angle_gamma 120.000000
_cell_volume 6391.378621
_symmetry_space_group_name_H-M "P 63/M C M"
_symmetry_group_IT_number 193
_symmetry_cell_setting 'hexagonal'
loop_
_space_group_symop_operation_xyz
x,y,z
x-y,x,1/2+z
-y,x-y,z
-x,-y,1/2+z
-x+y,-x,z
y,-x+y,1/2+z
x-y,-y,1/2-z
-x,-x+y,1/2-z
y,x,1/2-z
-y,-x,-z
-x+y,y,-z
x,x-y,-z
-x,-y,-z
-x+y,-x,1/2-z
y,-x+y,-z
x,y,1/2-z
x-y,x,-z
-y,x-y,1/2-z
-x+y,y,1/2+z
x,x-y,1/2+z
-y,-x,1/2+z
y,x,z
x-y,-y,z
-x,-x+y,z
loop_
_atom_site_type_symbol
_atom_site_label
_atom_site_fract_x
_atom_site_fract_y
_atom_site_fract_z
Si Si1 0.085784 0.913536 0.336738
Si Si2 0.245889 0.492324 0.085030
Si Si3 0.491505 0.491505 0.835949
Si Si4 0.808066 0.657479 0.336337
Si Si5 0.423309 0.578694 0.585366
Si Si6 0.000000 0.662063 0.835386
O O1 0.084487 0.918182 0.250000
O O2 0.119187 0.858180 0.359604
O O3 0.000000 0.876963 0.369068
O O4 0.138174 0.000000 0.368041
O O5 0.224210 0.413353 0.126667
O O6 0.191553 0.526280 0.110954
O O7 0.333967 0.553627 0.103417
O O8 0.236886 0.473772 0.000000
O O9 0.506538 0.506538 0.750000
O O10 0.559556 0.481718 0.871117
O O11 0.414368 0.414368 0.855680
O O12 0.804159 0.645063 0.250000
O O13 0.733365 0.657596 0.368519
O O14 0.432390 0.567611 0.500000
O O15 0.000000 0.676413 0.750000
#
# Coordination Sequence:
#
# PCOD8329831 Si02
#       6
#    24  24  12  24  24  12
#     4   9  16  27  47  75 106 139 176 216 258 306
#     4  10  21  37  57  79 104 138 178 220 266 318
#     4  11  21  35  57  83 109 140 179 221 268 325
#     4  10  18  32  54  78 105 137 175 220 265 311
#     4  10  21  38  58  80 108 142 181 225 271 321
#     4   9  16  29  53  79  99 130 176 220 260 308
#
# _framework density 18.775293000000001
#
# number of rings (size 3 to 8) (size 9 to 14) (size 15 to 20)
#    0.000    2.200    3.000    0.900    0.000    3.200 
#    1.800    0.000    0.000    2.400    0.000    0.000 
#    0.000    1.600    0.000    0.000    0.000    0.000 
#
# Total GULP energy -1487790.215433 kJ/mol
# GULP energy per Si atom -12398.251795 kJ/mol
# Density = 1.873256 g / cm^3
# Si number density = 18.775293 Si / 1000 Ang^3
#
#
#
# Elastic Constant Matrix: (Units=GPa)
#
#
# Indices 1 2 3 4 5 6 
#
# 1 111.1359 46.6065 35.6731 0.0000 0.0000 0.0000
# 2 46.6065 111.1359 35.6731 0.0000 0.0000 0.0000
# 3 35.6731 35.6731 34.9004 0.0000 0.0000 0.0000
# 4 0.0000 0.0000 0.0000 20.0069 0.0000 0.0000
# 5 0.0000 0.0000 0.0000 0.0000 20.0069 0.0000
# 6 0.0000 0.0000 0.0000 0.0000 0.0000 32.2647
#
#
#
# Elastic Compliance Matrix: (Units=1/GPa)
#
#
# Indices 1 2 3 4 5 6 
#
# 1 0.013643 -0.001853 -0.012051 0.000000 0.000000 0.000000
# 2 -0.001853 0.013643 -0.012051 0.000000 0.000000 0.000000
# 3 -0.012051 -0.012051 0.053289 0.000000 0.000000 0.000000
# 4 0.000000 0.000000 0.000000 0.049983 0.000000 0.000000
# 5 0.000000 0.000000 0.000000 0.000000 0.049983 0.000000
# 6 0.000000 0.000000 0.000000 0.000000 0.000000 0.030994
#
#
# Mechanical properties :
#
#
# Convention : Reuss Voigt Hill
#
# Bulk Modulus (GPa) = 34.88633 54.78640 44.83637
# Shear Modulus (GPa) = 18.31493 23.73701 21.02597
#
# Velocity S-wave (km/s) = 3.12666 3.55951 3.35008
# Velocity P-wave (km/s) = 5.62636 6.79242 6.23670
#
# Compressibility (1/GPa) = 0.02866452
#
# Stress axis : x y z
#
# Youngs Moduli (GPa) = 73.29501 73.29501 18.76558
#
# Poissons Ratio (x) = 0.13584 0.22615
# Poissons Ratio (y) = 0.13584 0.22615
# Poissons Ratio (z) = 0.88329 0.88329
#
# Static dielectric constant tensor:
#      x y z
#    x 3.517540 0.000000 0.000000 
#    y 0.000000 3.517540 0.000000 
#    z 0.000000 0.000000 3.025420 
# 
# 
# High freq. dielectric constant tensor:
#      x y z
#    x 1.734080 0.000000 0.000000 
#    y 0.000000 1.734080 0.000000 
#    z 0.000000 0.000000 1.684610 
# 
# From -- ./inp_files/5393.got.cif
#   From: 2010.03.12/outbox.cif.g09.slc.cpg/sg193_3_cif.got.tgz:5393.got - 2010.04.01 12:20:39.
