data_PCOD8329495
_publ_section_title
;
Structure prediction by ZEFSAII (Michael W. Deem and Ramdas Pophale) SiO2 
 PCOD8329495
Probable space group: P 6/M C C
;
_chemical_formula_sum "Si O2"
_cell_formula_units_Z 126
_cell_length_a 31.180843
_cell_length_b 31.180843
_cell_length_c 9.013729
_cell_angle_alpha 90.000000
_cell_angle_beta 90.000000
_cell_angle_gamma 120.000000
_cell_volume 7589.459251
_symmetry_space_group_name_H-M "P 6/M C C"
_symmetry_group_IT_number 192
_symmetry_cell_setting 'hexagonal'
loop_
_space_group_symop_operation_xyz
x,y,z
x-y,x,z
-y,x-y,z
-x,-y,z
-x+y,-x,z
y,-x+y,z
x-y,-y,1/2-z
-x,-x+y,1/2-z
y,x,1/2-z
-y,-x,1/2-z
-x+y,y,1/2-z
x,x-y,1/2-z
-x,-y,-z
-x+y,-x,-z
y,-x+y,-z
x,y,-z
x-y,x,-z
-y,x-y,-z
-x+y,y,1/2+z
x,x-y,1/2+z
-y,-x,1/2+z
y,x,1/2+z
x-y,-y,1/2+z
-x,-x+y,1/2+z
loop_
_atom_site_type_symbol
_atom_site_label
_atom_site_fract_x
_atom_site_fract_y
_atom_site_fract_z
Si Si1 0.853305 0.236740 0.329990
Si Si2 0.493542 0.167548 0.332540
Si Si3 0.608598 0.074494 0.663550
Si Si4 0.307333 0.356421 0.827306
Si Si5 0.665868 0.247609 0.675230
Si Si6 0.500000 0.500000 0.250000
O O1 0.813054 0.186947 0.250000
O O2 0.858985 0.224484 0.500000
O O3 0.837880 0.278249 0.322455
O O4 0.905328 0.258987 0.245467
O O5 0.514641 0.180248 0.500000
O O6 0.494725 0.118199 0.282630
O O7 0.525074 0.211850 0.219384
O O8 0.623203 0.098600 0.500000
O O9 0.641660 0.049558 0.701261
O O10 0.549832 0.035251 0.658392
O O11 0.313611 0.313611 0.750000
O O12 0.296797 0.344973 0.000000
O O13 0.699102 0.300898 0.750000
O O14 0.611903 0.223806 0.750000
O O15 0.664452 0.253017 0.500000
#
# Coordination Sequence:
#
# PCOD8329495 Si02
#       6
#    24  24  24  24  24   6
#     4  10  20  34  54  79 103 130 163 202 244 291
#     4  10  22  39  58  78 101 127 157 194 236 282
#     4  10  22  36  52  73  98 130 162 197 235 280
#     4  10  19  34  52  72  99 132 166 202 245 293
#     4  12  25  42  61  79  99 120 147 181 225 276
#     4  12  22  36  52  74 102 132 168 198 238 280
#
# _framework density 16.601973999999998
#
# number of rings (size 3 to 8) (size 9 to 14) (size 15 to 20)
#    0.000    1.524    0.952    4.476    1.333    6.095 
#    0.000    0.000    0.000    0.000    0.000    0.000 
#    0.000    0.000    0.000    0.000    0.000    0.000 
#
# Total GULP energy -1562169.933939 kJ/mol
# GULP energy per Si atom -12398.174079 kJ/mol
# Density = 1.656419 g / cm^3
# Si number density = 16.601974 Si / 1000 Ang^3
#
#
#
# Elastic Constant Matrix: (Units=GPa)
#
#
# Indices 1 2 3 4 5 6 
#
# 1 81.7149 32.8537 48.2701 0.0000 0.0000 0.0000
# 2 32.8537 81.7149 48.2701 0.0000 0.0000 0.0000
# 3 48.2701 48.2701 148.3337 0.0000 0.0000 0.0000
# 4 0.0000 0.0000 0.0000 24.5622 0.0000 0.0000
# 5 0.0000 0.0000 0.0000 0.0000 24.5622 0.0000
# 6 0.0000 0.0000 0.0000 0.0000 0.0000 24.4306
#
#
#
# Elastic Compliance Matrix: (Units=1/GPa)
#
#
# Indices 1 2 3 4 5 6 
#
# 1 0.016246 -0.004220 -0.003913 0.000000 0.000000 0.000000
# 2 -0.004220 0.016246 -0.003913 0.000000 0.000000 0.000000
# 3 -0.003913 -0.003913 0.009289 0.000000 0.000000 0.000000
# 4 0.000000 0.000000 0.000000 0.040713 0.000000 0.000000
# 5 0.000000 0.000000 0.000000 0.000000 0.040713 0.000000
# 6 0.000000 0.000000 0.000000 0.000000 0.000000 0.040932
#
#
# Mechanical properties :
#
#
# Convention : Reuss Voigt Hill
#
# Bulk Modulus (GPa) = 56.53939 63.39461 59.96700
# Shear Modulus (GPa) = 25.75615 26.86898 26.31257
#
# Velocity S-wave (km/s) = 3.94304 4.02732 3.98541
# Velocity P-wave (km/s) = 7.40674 7.73910 7.57475
#
# Compressibility (1/GPa) = 0.01768679
#
# Stress axis : x y z
#
# Youngs Moduli (GPa) = 61.55328 61.55328 107.65934
#
# Poissons Ratio (x) = 0.25976 0.42132
# Poissons Ratio (y) = 0.25976 0.42132
# Poissons Ratio (z) = 0.24089 0.24089
#
# Static dielectric constant tensor:
#      x y z
#    x 2.926140 0.000000 0.000000 
#    y 0.000000 2.926140 0.000000 
#    z 0.000000 0.000000 3.280960 
# 
# 
# High freq. dielectric constant tensor:
#      x y z
#    x 1.608660 0.000000 0.000000 
#    y 0.000000 1.608660 0.000000 
#    z 0.000000 0.000000 1.660030 
# 
# From -- ./inp_files/1099.got.cif
#   From: 2010.03.12/outbox.cif.g09.slc.cpg/sg192_1_cif.got.tgz:1099.got - 2010.04.01 12:16:15.
