data_PCOD8329633
_publ_section_title
;
Structure prediction by ZEFSAII (Michael W. Deem and Ramdas Pophale) SiO2 
 PCOD8329633
Probable space group: P 6/M C C
;
_chemical_formula_sum "Si O2"
_cell_formula_units_Z 104
_cell_length_a 19.435151
_cell_length_b 19.435151
_cell_length_c 17.924380
_cell_angle_alpha 90.000000
_cell_angle_beta 90.000000
_cell_angle_gamma 120.000000
_cell_volume 5863.414714
_symmetry_space_group_name_H-M "P 6/M C C"
_symmetry_group_IT_number 192
_symmetry_cell_setting 'hexagonal'
loop_
_space_group_symop_operation_xyz
x,y,z
x-y,x,z
-y,x-y,z
-x,-y,z
-x+y,-x,z
y,-x+y,z
x-y,-y,1/2-z
-x,-x+y,1/2-z
y,x,1/2-z
-y,-x,1/2-z
-x+y,y,1/2-z
x,x-y,1/2-z
-x,-y,-z
-x+y,-x,-z
y,-x+y,-z
x,y,-z
x-y,x,-z
-y,x-y,-z
-x+y,y,1/2+z
x,x-y,1/2+z
-y,-x,1/2+z
y,x,1/2+z
x-y,-y,1/2+z
-x,-x+y,1/2+z
loop_
_atom_site_type_symbol
_atom_site_label
_atom_site_fract_x
_atom_site_fract_y
_atom_site_fract_z
Si Si1 0.666667 0.333334 0.161174
Si Si2 0.295236 0.294877 0.836424
Si Si3 0.286469 0.782587 0.412250
Si Si4 0.588670 0.548048 0.087363
Si Si5 0.828293 0.172113 0.337038
O O1 0.666668 0.333334 0.250000
O O2 0.577081 0.287251 0.131173
O O3 0.313338 0.313338 0.750000
O O4 0.369313 0.364812 0.878421
O O5 0.290206 0.211680 0.857474
O O6 0.213056 0.291869 0.858467
O O7 0.278700 0.764048 0.500000
O O8 0.364875 0.866077 0.392853
O O9 0.209054 0.784936 0.384956
O O10 0.500000 0.500000 0.120700
O O11 0.586284 0.559306 0.000000
O O12 0.816362 0.183638 0.250000
#
# Coordination Sequence:
#
# PCOD8329633 Si02
#       5
#     8  24  24  24  24
#     4  12  25  38  52  72 103 137 172 213 253 299
#     4   9  18  32  52  75 102 133 170 211 255 308
#     4  10  21  36  52  74 101 133 174 212 256 305
#     4   9  19  34  50  71  97 129 168 210 256 302
#     4   9  18  34  53  77 104 136 172 211 258 307
#
# _framework density 17.737105
#
# number of rings (size 3 to 8) (size 9 to 14) (size 15 to 20)
#    0.000    2.538    0.000    1.385    3.231    1.385 
#    0.000    0.000    0.000    0.462    0.000    3.231 
#    0.000    0.000    0.000   11.538    0.000   12.000 
#
# Total GULP energy -1289595.915566 kJ/mol
# GULP energy per Si atom -12399.960727 kJ/mol
# Density = 1.769673 g / cm^3
# Si number density = 17.737105 Si / 1000 Ang^3
#
#
#
# Elastic Constant Matrix: (Units=GPa)
#
#
# Indices 1 2 3 4 5 6 
#
# 1 116.2999 67.4783 32.9111 0.0000 0.0000 0.0002
# 2 67.4783 116.3009 32.9111 0.0000 0.0001 0.0001
# 3 32.9111 32.9111 52.1343 0.0000 0.0002 0.0000
# 4 0.0000 0.0000 0.0000 22.0668 0.0001 0.0000
# 5 0.0000 0.0001 0.0002 0.0001 22.0663 0.0000
# 6 0.0002 0.0001 0.0000 0.0000 0.0000 24.4108
#
#
#
# Elastic Compliance Matrix: (Units=1/GPa)
#
#
# Indices 1 2 3 4 5 6 
#
# 1 0.013757 -0.006726 -0.004439 0.000000 0.000000 0.000000
# 2 -0.006726 0.013757 -0.004438 0.000000 0.000000 0.000000
# 3 -0.004439 -0.004438 0.024785 0.000000 0.000000 0.000000
# 4 0.000000 0.000000 0.000000 0.045317 0.000000 0.000000
# 5 0.000000 0.000000 0.000000 0.000000 0.045318 0.000000
# 6 0.000000 0.000000 0.000000 0.000000 0.000000 0.040966
#
#
# Mechanical properties :
#
#
# Convention : Reuss Voigt Hill
#
# Bulk Modulus (GPa) = 47.40892 61.25959 54.33426
# Shear Modulus (GPa) = 22.50876 23.80440 23.15658
#
# Velocity S-wave (km/s) = 3.56620 3.66740 3.61715
# Velocity P-wave (km/s) = 6.61390 7.24883 6.93863
#
# Compressibility (1/GPa) = 0.02109308
#
# Stress axis : x y z
#
# Youngs Moduli (GPa) = 72.69100 72.69177 40.34680
#
# Poissons Ratio (x) = 0.48891 0.17908
# Poissons Ratio (y) = 0.48890 0.17908
# Poissons Ratio (z) = 0.32264 0.32264
#
# Static dielectric constant tensor:
#      x y z
#    x 3.398640 0.000000 0.000000 
#    y 0.000000 3.398630 0.000000 
#    z 0.000000 0.000000 3.281860 
# 
# 
# High freq. dielectric constant tensor:
#      x y z
#    x 1.680850 0.000000 0.000000 
#    y 0.000000 1.680850 0.000000 
#    z 0.000000 0.000000 1.685070 
# 
# From -- ./inp_files/2862.got.cif
#   From: 2010.03.12/outbox.cif.g09.slc.cpg/sg192_2_cif.got.tgz:2862.got - 2010.04.01 12:16:15.
