data_PCOD8329985
_publ_section_title
;
Structure prediction by ZEFSAII (Michael W. Deem and Ramdas Pophale) SiO2 
 PCOD8329985
Probable space group: P 63/M C M
;
_chemical_formula_sum "Si O2"
_cell_formula_units_Z 84
_cell_length_a 14.320481
_cell_length_b 14.320481
_cell_length_c 22.642551
_cell_angle_alpha 90.000000
_cell_angle_beta 90.000000
_cell_angle_gamma 120.000000
_cell_volume 4021.343735
_symmetry_space_group_name_H-M "P 63/M C M"
_symmetry_group_IT_number 193
_symmetry_cell_setting 'hexagonal'
loop_
_space_group_symop_operation_xyz
x,y,z
x-y,x,1/2+z
-y,x-y,z
-x,-y,1/2+z
-x+y,-x,z
y,-x+y,1/2+z
x-y,-y,1/2-z
-x,-x+y,1/2-z
y,x,1/2-z
-y,-x,-z
-x+y,y,-z
x,x-y,-z
-x,-y,-z
-x+y,-x,1/2-z
y,-x+y,-z
x,y,1/2-z
x-y,x,-z
-y,x-y,1/2-z
-x+y,y,1/2+z
x,x-y,1/2+z
-y,-x,1/2+z
y,x,z
x-y,-y,z
-x,-x+y,z
loop_
_atom_site_type_symbol
_atom_site_label
_atom_site_fract_x
_atom_site_fract_y
_atom_site_fract_z
Si Si1 0.694575 0.464403 0.870157
Si Si2 0.000000 0.258942 0.351279
Si Si3 0.000000 0.116451 0.250000
Si Si4 0.880308 0.354640 0.750000
Si Si5 0.201411 0.873049 0.934581
Si Si6 0.407287 0.000000 0.250000
O O1 0.575078 0.358219 0.875244
O O2 0.710423 0.524815 0.807537
O O3 0.707903 0.546887 0.922525
O O4 0.105910 0.306632 0.390601
O O5 0.000000 0.171031 0.309931
O O6 0.000000 0.350174 0.310649
O O7 0.107727 0.107727 0.250000
O O8 0.000000 0.366816 0.750000
O O9 0.893619 0.473806 0.750000
O O10 0.249792 0.000000 0.923371
O O11 0.155998 0.844003 0.000000
#
# Coordination Sequence:
#
# PCOD8329985 Si02
#       6
#    24  12   6  12  24   6
#     4  10  23  42  68  99 143 183 237 285 351 432
#     4  11  22  44  67 102 139 179 232 295 362 428
#     4   9  20  38  62  95 128 166 210 279 356 419
#     4  10  19  37  67 103 133 187 223 281 357 414
#     4  12  26  47  70 102 138 188 246 301 358 435
#     4   9  22  36  74 101 142 174 224 289 358 415
#
# _framework density 20.888541
#
# number of rings (size 3 to 8) (size 9 to 14) (size 15 to 20)
#    1.143    0.286    1.429    4.286    0.000    3.429 
#    3.429    6.429    0.000    0.000    0.000    0.000 
#    0.000    0.000    0.000    0.000    0.000    0.000 
#
# Total GULP energy -1041043.700213 kJ/mol
# GULP energy per Si atom -12393.377383 kJ/mol
# Density = 2.084100 g / cm^3
# Si number density = 20.888541 Si / 1000 Ang^3
#
#
#
# Elastic Constant Matrix: (Units=GPa)
#
#
# Indices 1 2 3 4 5 6 
#
# 1 94.9929 34.1740 38.9423 0.0000 0.0000 0.0000
# 2 34.1740 94.9929 38.9423 0.0000 0.0000 0.0000
# 3 38.9423 38.9423 112.8029 0.0000 0.0000 0.0000
# 4 0.0000 0.0000 0.0000 47.5495 0.0000 0.0000
# 5 0.0000 0.0000 0.0000 0.0000 47.5495 0.0000
# 6 0.0000 0.0000 0.0000 0.0000 0.0000 30.4095
#
#
#
# Elastic Compliance Matrix: (Units=1/GPa)
#
#
# Indices 1 2 3 4 5 6 
#
# 1 0.013110 -0.003333 -0.003375 0.000000 0.000000 0.000000
# 2 -0.003333 0.013110 -0.003375 0.000000 0.000000 0.000000
# 3 -0.003375 -0.003375 0.011195 0.000000 0.000000 0.000000
# 4 0.000000 0.000000 0.000000 0.021031 0.000000 0.000000
# 5 0.000000 0.000000 0.000000 0.000000 0.021031 0.000000
# 6 0.000000 0.000000 0.000000 0.000000 0.000000 0.032884
#
#
# Mechanical properties :
#
#
# Convention : Reuss Voigt Hill
#
# Bulk Modulus (GPa) = 57.97582 58.54508 58.26045
# Shear Modulus (GPa) = 36.15939 37.81705 36.98822
#
# Velocity S-wave (km/s) = 4.16512 4.25952 4.21258
# Velocity P-wave (km/s) = 7.13765 7.23046 7.18421
#
# Compressibility (1/GPa) = 0.01724857
#
# Stress axis : x y z
#
# Youngs Moduli (GPa) = 76.27937 76.27937 89.32166
#
# Poissons Ratio (x) = 0.25420 0.30149
# Poissons Ratio (y) = 0.25420 0.30149
# Poissons Ratio (z) = 0.25747 0.25747
#
# Static dielectric constant tensor:
#      x y z
#    x 3.758490 0.000000 0.000000 
#    y 0.000000 3.758490 0.000000 
#    z 0.000000 0.000000 3.630930 
# 
# 
# High freq. dielectric constant tensor:
#      x y z
#    x 1.817230 0.000000 0.000000 
#    y 0.000000 1.817230 0.000000 
#    z 0.000000 0.000000 1.815650 
# 
# From -- ./inp_files/7179.got.cif
#   From: 2010.03.12/outbox.cif.g09.slc.cpg/sg193_4_cif.got.tgz:7179.got - 2010.04.01 12:20:39.
