data_PCOD8329333
_publ_section_title
;
Structure prediction by ZEFSAII (Michael W. Deem and Ramdas Pophale) SiO2 
 PCOD8329333
Probable space group: P 6/M M M
;
_chemical_formula_sum "Si O2"
_cell_formula_units_Z 168
_cell_length_a 22.889455
_cell_length_b 22.889455
_cell_length_c 25.345946
_cell_angle_alpha 90.000000
_cell_angle_beta 90.000000
_cell_angle_gamma 120.000000
_cell_volume 11500.323084
_symmetry_space_group_name_H-M "P 6/M M M"
_symmetry_group_IT_number 191
_symmetry_cell_setting 'hexagonal'
loop_
_space_group_symop_operation_xyz
x,y,z
x-y,x,z
-y,x-y,z
-x,-y,z
-x+y,-x,z
y,-x+y,z
x-y,-y,-z
-x,-x+y,-z
y,x,-z
-y,-x,-z
-x+y,y,-z
x,x-y,-z
-x,-y,-z
-x+y,-x,-z
y,-x+y,-z
x,y,-z
x-y,x,-z
-y,x-y,-z
-x+y,y,z
x,x-y,z
-y,-x,z
y,x,z
x-y,-y,z
-x,-x+y,z
loop_
_atom_site_type_symbol
_atom_site_label
_atom_site_fract_x
_atom_site_fract_y
_atom_site_fract_z
Si Si1 0.080039 0.677968 0.941865
Si Si2 0.074837 0.796604 0.104752
Si Si3 0.719622 0.924887 0.772674
Si Si4 0.666887 0.199034 0.561497
Si Si5 0.670431 0.079292 0.741830
Si Si6 0.919381 0.525659 0.155980
Si Si7 0.607050 0.529686 0.363474
O O1 0.100509 0.754486 0.928681
O O2 0.110126 0.649812 0.897614
O O3 0.000000 0.632894 0.941408
O O4 0.108425 0.675690 0.000000
O O5 0.124330 0.875671 0.093808
O O6 0.075944 0.778398 0.165836
O O7 0.000000 0.779180 0.087720
O O8 0.745642 0.872821 0.759229
O O9 0.650462 0.902326 0.741251
O O10 0.777897 0.000000 0.755813
O O11 0.670112 0.185808 0.500000
O O12 0.608774 0.217548 0.573380
O O13 0.738211 0.261790 0.580898
O O14 0.649863 0.129103 0.589973
O O15 0.654697 0.111222 0.793002
O O16 0.654349 0.105196 0.688032
O O17 0.621869 0.000000 0.745545
O O18 0.893289 0.446645 0.157948
O O19 0.000000 0.569359 0.155805
O O20 0.539716 0.460285 0.350901
O O21 0.586750 0.586750 0.378415
#
# Coordination Sequence:
#
# PCOD8329333 Si02
#       7
#    24  24  24  24  24  24  24
#     4   9  16  25  36  52  74  97 123 155 190 231
#     4   9  16  27  41  56  74  98 129 163 201 244
#     4   9  16  26  41  58  77 102 133 168 203 242
#     4   9  17  29  44  60  79 106 140 174 205 238
#     4   9  15  25  39  56  79 105 132 159 190 233
#     4   9  15  23  36  52  72 100 127 148 175 216
#     4   9  17  27  40  61  86 109 134 167 205 241
#
# _framework density 14.608285
#
# number of rings (size 3 to 8) (size 9 to 14) (size 15 to 20)
#    0.000    3.000    1.429    0.571    0.000    3.714 
#    0.000    2.857    0.000    0.286    0.000    2.000 
#    0.000    0.000    0.000    5.571    0.000    8.857 
#
# Total GULP energy -2082180.022427 kJ/mol
# GULP energy per Si atom -12393.928705 kJ/mol
# Density = 1.457504 g / cm^3
# Si number density = 14.608285 Si / 1000 Ang^3
#
#
#
# Elastic Constant Matrix: (Units=GPa)
#
#
# Indices 1 2 3 4 5 6 
#
# 1 69.8089 41.7776 38.9364 0.0000 0.0000 0.0000
# 2 41.7776 69.8089 38.9364 0.0000 0.0000 0.0000
# 3 38.9364 38.9364 74.3876 0.0000 0.0000 0.0000
# 4 0.0000 0.0000 0.0000 15.0823 0.0000 0.0000
# 5 0.0000 0.0000 0.0000 0.0000 15.0823 0.0000
# 6 0.0000 0.0000 0.0000 0.0000 0.0000 14.0157
#
#
#
# Elastic Compliance Matrix: (Units=1/GPa)
#
#
# Indices 1 2 3 4 5 6 
#
# 1 0.024897 -0.010778 -0.007390 0.000000 0.000000 0.000000
# 2 -0.010778 0.024897 -0.007390 0.000000 0.000000 0.000000
# 3 -0.007390 -0.007390 0.021180 0.000000 0.000000 0.000000
# 4 0.000000 0.000000 0.000000 0.066303 0.000000 0.000000
# 5 0.000000 0.000000 0.000000 0.000000 0.066303 0.000000
# 6 0.000000 0.000000 0.000000 0.000000 0.000000 0.071349
#
#
# Mechanical properties :
#
#
# Convention : Reuss Voigt Hill
#
# Bulk Modulus (GPa) = 50.36094 50.36735 50.36414
# Shear Modulus (GPa) = 15.03022 15.12638 15.07830
#
# Velocity S-wave (km/s) = 3.21110 3.22136 3.21623
# Velocity P-wave (km/s) = 6.94963 6.95627 6.95295
#
# Compressibility (1/GPa) = 0.01985666
#
# Stress axis : x y z
#
# Youngs Moduli (GPa) = 40.16588 40.16588 47.21502
#
# Poissons Ratio (x) = 0.43289 0.34893
# Poissons Ratio (y) = 0.43289 0.34893
# Poissons Ratio (z) = 0.29684 0.29684
#
# Static dielectric constant tensor:
#      x y z
#    x 2.690650 0.000000 0.000000 
#    y 0.000000 2.690650 0.000000 
#    z 0.000000 0.000000 2.932150 
# 
# 
# High freq. dielectric constant tensor:
#      x y z
#    x 1.532160 0.000000 0.000000 
#    y 0.000000 1.532160 0.000000 
#    z 0.000000 0.000000 1.551630 
# 
# From -- ./inp_files/9167.got.cif
#   From: 2010.03.12/outbox.cif.g09.slc.cpg/sg191_5_cif.got.tgz:9167.got - 2010.04.01 12:09:02.
