data_PCOD8329013
_publ_section_title
;
Structure prediction by ZEFSAII (Michael W. Deem and Ramdas Pophale) SiO2 
 PCOD8329013
Probable space group: P 6/M M M
;
_chemical_formula_sum "Si O2"
_cell_formula_units_Z 72
_cell_length_a 17.696834
_cell_length_b 17.696834
_cell_length_c 15.540261
_cell_angle_alpha 90.000000
_cell_angle_beta 90.000000
_cell_angle_gamma 120.000000
_cell_volume 4214.830310
_symmetry_space_group_name_H-M "P 6/M M M"
_symmetry_group_IT_number 191
_symmetry_cell_setting 'hexagonal'
loop_
_space_group_symop_operation_xyz
x,y,z
x-y,x,z
-y,x-y,z
-x,-y,z
-x+y,-x,z
y,-x+y,z
x-y,-y,-z
-x,-x+y,-z
y,x,-z
-y,-x,-z
-x+y,y,-z
x,x-y,-z
-x,-y,-z
-x+y,-x,-z
y,-x+y,-z
x,y,-z
x-y,x,-z
-y,x-y,-z
-x+y,y,z
x,x-y,z
-y,-x,z
y,x,z
x-y,-y,z
-x,-x+y,z
loop_
_atom_site_type_symbol
_atom_site_label
_atom_site_fract_x
_atom_site_fract_y
_atom_site_fract_z
Si Si1 0.267750 0.366312 0.339513
Si Si2 0.665011 0.508453 0.186246
Si Si3 0.334423 0.497418 0.000000
Si Si4 0.102951 0.635401 0.500000
O O1 0.163280 0.326559 0.334248
O O2 0.287664 0.287664 0.356119
O O3 0.314252 0.413715 0.251262
O O4 0.304573 0.437610 0.415480
O O5 0.743390 0.486780 0.184029
O O6 0.577687 0.422314 0.217186
O O7 0.650096 0.538643 0.090699
O O8 0.397796 0.602205 0.000000
O O9 0.235388 0.470776 0.000000
O O10 0.145573 0.572787 0.500000
O O11 0.000000 0.575704 0.500000
#
# Coordination Sequence:
#
# PCOD8329013 Si02
#       4
#    24  24  12  12
#     4  10  20  33  49  68  90 118 152 191 234 276
#     4   9  16  26  42  65  93 124 155 185 217 257
#     4   8  13  22  37  59  88 121 154 184 215 254
#     4   9  17  30  49  72  96 120 144 169 201 248
#
# _framework density 17.082538
#
# number of rings (size 3 to 8) (size 9 to 14) (size 15 to 20)
#    0.000    2.833    0.000    2.000    0.000    4.667 
#    0.000    0.833    0.000    8.000    0.000    0.000 
#    0.000    4.000    0.000    0.000    0.000   19.667 
#
# Total GULP energy -891994.963655 kJ/mol
# GULP energy per Si atom -12388.818940 kJ/mol
# Density = 1.704366 g / cm^3
# Si number density = 17.082538 Si / 1000 Ang^3
#
#
#
# Elastic Constant Matrix: (Units=GPa)
#
#
# Indices 1 2 3 4 5 6 
#
# 1 66.9272 39.3418 28.2884 0.0000 0.0000 0.0000
# 2 39.3418 66.9272 28.2884 0.0000 0.0000 0.0000
# 3 28.2884 28.2884 122.9134 0.0000 0.0000 0.0000
# 4 0.0000 0.0000 0.0000 15.7303 0.0000 0.0000
# 5 0.0000 0.0000 0.0000 0.0000 15.7303 0.0000
# 6 0.0000 0.0000 0.0000 0.0000 0.0000 13.7927
#
#
#
# Elastic Compliance Matrix: (Units=1/GPa)
#
#
# Indices 1 2 3 4 5 6 
#
# 1 0.023488 -0.012763 -0.002468 0.000000 0.000000 0.000000
# 2 -0.012763 0.023488 -0.002468 0.000000 0.000000 0.000000
# 3 -0.002468 -0.002468 0.009272 0.000000 0.000000 0.000000
# 4 0.000000 0.000000 0.000000 0.063571 0.000000 0.000000
# 5 0.000000 0.000000 0.000000 0.000000 0.063571 0.000000
# 6 0.000000 0.000000 0.000000 0.000000 0.000000 0.072502
#
#
# Mechanical properties :
#
#
# Convention : Reuss Voigt Hill
#
# Bulk Modulus (GPa) = 47.96732 49.84500 48.90616
# Shear Modulus (GPa) = 16.76498 19.77395 18.26947
#
# Velocity S-wave (km/s) = 3.13615 3.40597 3.27384
# Velocity P-wave (km/s) = 6.42297 6.68654 6.55608
#
# Compressibility (1/GPa) = 0.02084753
#
# Stress axis : x y z
#
# Youngs Moduli (GPa) = 42.57569 42.57569 107.85281
#
# Poissons Ratio (x) = 0.54341 0.26620
# Poissons Ratio (y) = 0.54341 0.26620
# Poissons Ratio (z) = 0.10508 0.10508
#
# Static dielectric constant tensor:
#      x y z
#    x 2.849080 0.000000 0.000000 
#    y 0.000000 2.849080 0.000000 
#    z 0.000000 0.000000 3.689240 
# 
# 
# High freq. dielectric constant tensor:
#      x y z
#    x 1.622430 0.000000 0.000000 
#    y 0.000000 1.622430 0.000000 
#    z 0.000000 0.000000 1.687950 
# 
# From -- ./inp_files/3928.got.cif
#   From: 2010.03.12/outbox.cif.g09.slc.cpg/sg191_2_cif.got.tgz:3928.got - 2010.04.01 12:09:02.
