data_PCOD8329548
_publ_section_title
;
Structure prediction by ZEFSAII (Michael W. Deem and Ramdas Pophale) SiO2 
 PCOD8329548
Probable space group: P 6/M C C
;
_chemical_formula_sum "Si O2"
_cell_formula_units_Z 192
_cell_length_a 29.943744
_cell_length_b 29.943744
_cell_length_c 15.447046
_cell_angle_alpha 90.000000
_cell_angle_beta 90.000000
_cell_angle_gamma 120.000000
_cell_volume 11994.669167
_symmetry_space_group_name_H-M "P 6/M C C"
_symmetry_group_IT_number 192
_symmetry_cell_setting 'hexagonal'
loop_
_space_group_symop_operation_xyz
x,y,z
x-y,x,z
-y,x-y,z
-x,-y,z
-x+y,-x,z
y,-x+y,z
x-y,-y,1/2-z
-x,-x+y,1/2-z
y,x,1/2-z
-y,-x,1/2-z
-x+y,y,1/2-z
x,x-y,1/2-z
-x,-y,-z
-x+y,-x,-z
y,-x+y,-z
x,y,-z
x-y,x,-z
-y,x-y,-z
-x+y,y,1/2+z
x,x-y,1/2+z
-y,-x,1/2+z
y,x,1/2+z
x-y,-y,1/2+z
-x,-x+y,1/2+z
loop_
_atom_site_type_symbol
_atom_site_label
_atom_site_fract_x
_atom_site_fract_y
_atom_site_fract_z
Si Si1 0.100917 0.301662 0.903060
Si Si2 0.796507 0.796524 0.348767
Si Si3 0.240229 0.374018 0.251017
Si Si4 0.808393 0.510958 0.249528
Si Si5 0.770695 0.437667 0.401705
Si Si6 0.562872 0.333445 0.901746
Si Si7 0.896198 0.997550 0.897855
Si Si8 0.098751 0.303952 0.403456
O O1 0.101487 0.343230 0.835937
O O2 0.148221 0.292784 0.882722
O O3 0.051333 0.245897 0.894802
O O4 0.103977 0.323174 0.000000
O O5 0.780745 0.780745 0.250000
O O6 0.847619 0.851795 0.352218
O O7 0.750159 0.797120 0.397966
O O8 0.188510 0.377019 0.250000
O O9 0.289517 0.431615 0.252341
O O10 0.244488 0.345473 0.165278
O O11 0.757456 0.514911 0.250000
O O12 0.810029 0.481870 0.336493
O O13 0.809856 0.481153 0.163550
O O14 0.788644 0.456620 0.500000
O O15 0.771389 0.385929 0.380836
O O16 0.712589 0.425239 0.386274
O O17 0.543957 0.332531 0.000000
O O18 0.948106 0.048311 0.867626
O O19 0.888875 0.997515 0.000000
O O20 0.103663 0.326779 0.500000
#
# Coordination Sequence:
#
# PCOD8329548 Si02
#       8
#    24  24  24  24  24  24  24  24
#     4  10  20  34  51  69  91 118 147 182 224 269
#     4  12  22  33  51  72  95 118 145 187 228 267
#     4   9  18  32  46  64  87 113 151 191 228 274
#     4   9  17  27  40  58  83 115 154 198 236 272
#     4   9  16  25  38  58  86 122 163 202 235 264
#     4   9  16  25  38  58  86 122 163 202 235 264
#     4  10  21  36  52  70  94 125 159 192 226 265
#     4  10  20  34  51  69  91 118 147 182 224 269
#
# _framework density 16.007110999999998
#
# number of rings (size 3 to 8) (size 9 to 14) (size 15 to 20)
#    0.000    2.250    1.250    2.625    0.000    6.000 
#    0.000    6.250    0.000    0.750    0.000    0.000 
#    0.000    0.000    0.000    9.000    0.000   34.000 
#
# Total GULP energy -2380797.093294 kJ/mol
# GULP energy per Si atom -12399.984861 kJ/mol
# Density = 1.597068 g / cm^3
# Si number density = 16.007111 Si / 1000 Ang^3
#
#
#
# Elastic Constant Matrix: (Units=GPa)
#
#
# Indices 1 2 3 4 5 6 
#
# 1 52.5299 31.0774 30.6520 0.0000 0.0000 0.0000
# 2 31.0774 52.5299 30.6520 0.0000 0.0000 0.0000
# 3 30.6520 30.6520 102.9357 0.0000 0.0000 0.0000
# 4 0.0000 0.0000 0.0000 20.4577 0.0000 0.0000
# 5 0.0000 0.0000 0.0000 0.0000 20.4577 0.0000
# 6 0.0000 0.0000 0.0000 0.0000 0.0000 10.7262
#
#
#
# Elastic Compliance Matrix: (Units=1/GPa)
#
#
# Indices 1 2 3 4 5 6 
#
# 1 0.030958 -0.015657 -0.004556 0.000000 0.000000 0.000000
# 2 -0.015657 0.030958 -0.004556 0.000000 0.000000 0.000000
# 3 -0.004556 -0.004556 0.012428 0.000000 0.000000 0.000000
# 4 0.000000 0.000000 0.000000 0.048881 0.000000 0.000000
# 5 0.000000 0.000000 0.000000 0.000000 0.048881 0.000000
# 6 0.000000 0.000000 0.000000 0.000000 0.000000 0.093230
#
#
# Mechanical properties :
#
#
# Convention : Reuss Voigt Hill
#
# Bulk Modulus (GPa) = 40.31316 43.63979 41.97647
# Shear Modulus (GPa) = 15.47293 18.03591 16.75442
#
# Velocity S-wave (km/s) = 3.11244 3.36034 3.23876
# Velocity P-wave (km/s) = 6.17702 6.50982 6.34560
#
# Compressibility (1/GPa) = 0.02480580
#
# Stress axis : x y z
#
# Youngs Moduli (GPa) = 32.30161 32.30161 80.46052
#
# Poissons Ratio (x) = 0.50573 0.36662
# Poissons Ratio (y) = 0.50573 0.36662
# Poissons Ratio (z) = 0.14718 0.14718
#
# Static dielectric constant tensor:
#      x y z
#    x 2.908160 0.000000 0.000000 
#    y 0.000000 2.908160 0.000000 
#    z 0.000000 0.000000 3.273780 
# 
# 
# High freq. dielectric constant tensor:
#      x y z
#    x 1.584080 0.000000 0.000000 
#    y 0.000000 1.584080 0.000000 
#    z 0.000000 0.000000 1.636440 
# 
# From -- ./inp_files/3558.got.cif
#   From: 2010.03.12/outbox.cif.g09.slc.cpg/sg192_2_cif.got.tgz:3558.got - 2010.04.01 12:16:15.
