data_PCOD8329880
_publ_section_title
;
Structure prediction by ZEFSAII (Michael W. Deem and Ramdas Pophale) SiO2 
 PCOD8329880
Probable space group: P 63/M C M
;
_chemical_formula_sum "Si O2"
_cell_formula_units_Z 192
_cell_length_a 25.312870
_cell_length_b 25.312870
_cell_length_c 19.492986
_cell_angle_alpha 90.000000
_cell_angle_beta 90.000000
_cell_angle_gamma 120.000000
_cell_volume 10816.625163
_symmetry_space_group_name_H-M "P 63/M C M"
_symmetry_group_IT_number 193
_symmetry_cell_setting 'hexagonal'
loop_
_space_group_symop_operation_xyz
x,y,z
x-y,x,1/2+z
-y,x-y,z
-x,-y,1/2+z
-x+y,-x,z
y,-x+y,1/2+z
x-y,-y,1/2-z
-x,-x+y,1/2-z
y,x,1/2-z
-y,-x,-z
-x+y,y,-z
x,x-y,-z
-x,-y,-z
-x+y,-x,1/2-z
y,-x+y,-z
x,y,1/2-z
x-y,x,-z
-y,x-y,1/2-z
-x+y,y,1/2+z
x,x-y,1/2+z
-y,-x,1/2+z
y,x,z
x-y,-y,z
-x,-x+y,z
loop_
_atom_site_type_symbol
_atom_site_label
_atom_site_fract_x
_atom_site_fract_y
_atom_site_fract_z
Si Si1 0.264129 0.902265 0.123261
Si Si2 0.539239 0.932689 0.670644
Si Si3 0.234240 0.068534 0.327788
Si Si4 0.068450 0.206570 0.559400
Si Si5 0.258516 0.933520 0.971925
Si Si6 0.768410 0.191209 0.076435
Si Si7 0.194299 0.627174 0.669472
Si Si8 0.467393 0.762278 0.168827
O O1 0.326213 0.923075 0.163458
O O2 0.225952 0.926441 0.164104
O O3 0.225014 0.829415 0.120690
O O4 0.280525 0.930552 0.047766
O O5 0.525751 0.934944 0.750000
O O6 0.479151 0.873538 0.637128
O O7 0.557091 0.000000 0.638869
O O8 0.226861 0.083980 0.250000
O O9 0.225976 0.115542 0.374174
O O10 0.182490 0.000000 0.347120
O O11 0.087338 0.174675 0.500000
O O12 0.074964 0.266470 0.522732
O O13 0.000000 0.160113 0.583586
O O14 0.256064 0.880768 0.925240
O O15 0.305758 0.000000 0.940067
O O16 0.716357 0.193753 0.119901
O O17 0.779630 0.220371 0.000000
O O18 0.187401 0.629056 0.750000
O O19 0.245611 0.694108 0.644936
O O20 0.220586 0.583642 0.648903
O O21 0.483206 0.772730 0.250000
#
# Coordination Sequence:
#
# PCOD8329880 Si02
#       8
#    24  24  24  24  24  24  24  24
#     4  11  18  32  53  80 109 140 177 217 266 325
#     4  10  19  30  48  79 114 142 173 220 277 329
#     4  11  22  34  51  79 110 137 171 217 270 326
#     4  11  20  35  56  77 102 137 178 219 262 313
#     4  10  19  33  54  76 105 142 178 212 255 317
#     4  10  20  34  53  80 112 139 173 219 271 319
#     4   9  18  32  52  78 102 135 184 227 266 314
#     4  10  19  35  58  79 104 142 185 230 271 315
#
# _framework density 17.750454000000001
#
# number of rings (size 3 to 8) (size 9 to 14) (size 15 to 20)
#    0.000    1.750    3.750    2.500    0.000    2.750 
#    0.000    1.250    0.000    3.375    0.000    2.625 
#    0.000    0.000    0.000    0.000    0.000    0.000 
#
# Total GULP energy -2379924.090168 kJ/mol
# GULP energy per Si atom -12395.437970 kJ/mol
# Density = 1.771005 g / cm^3
# Si number density = 17.750454 Si / 1000 Ang^3
#
#
#
# Elastic Constant Matrix: (Units=GPa)
#
#
# Indices 1 2 3 4 5 6 
#
# 1 108.0078 58.9335 19.4757 0.0000 0.0000 0.0000
# 2 58.9335 108.0078 19.4757 0.0000 0.0000 0.0000
# 3 19.4757 19.4757 31.8656 0.0000 0.0000 0.0000
# 4 0.0000 0.0000 0.0000 21.8264 0.0000 0.0000
# 5 0.0000 0.0000 0.0000 0.0000 21.8264 0.0000
# 6 0.0000 0.0000 0.0000 0.0000 0.0000 24.5371
#
#
#
# Elastic Compliance Matrix: (Units=1/GPa)
#
#
# Indices 1 2 3 4 5 6 
#
# 1 0.013682 -0.006695 -0.004270 0.000000 0.000000 0.000000
# 2 -0.006695 0.013682 -0.004270 0.000000 0.000000 0.000000
# 3 -0.004270 -0.004270 0.036601 0.000000 0.000000 0.000000
# 4 0.000000 0.000000 0.000000 0.045816 0.000000 0.000000
# 5 0.000000 0.000000 0.000000 0.000000 0.045816 0.000000
# 6 0.000000 0.000000 0.000000 0.000000 0.000000 0.040755
#
#
# Mechanical properties :
#
#
# Convention : Reuss Voigt Hill
#
# Bulk Modulus (GPa) = 29.85589 49.29455 39.57522
# Shear Modulus (GPa) = 21.00951 23.63771 22.32361
#
# Velocity S-wave (km/s) = 3.44409 3.65316 3.55016
# Velocity P-wave (km/s) = 5.71594 6.75465 6.25689
#
# Compressibility (1/GPa) = 0.03349423
#
# Stress axis : x y z
#
# Youngs Moduli (GPa) = 73.08950 73.08950 27.32142
#
# Poissons Ratio (x) = 0.48937 0.11666
# Poissons Ratio (y) = 0.48937 0.11666
# Poissons Ratio (z) = 0.31209 0.31209
#
# Static dielectric constant tensor:
#      x y z
#    x 3.443430 0.000000 0.000000 
#    y 0.000000 3.443430 0.000000 
#    z 0.000000 0.000000 3.000130 
# 
# 
# High freq. dielectric constant tensor:
#      x y z
#    x 1.686080 0.000000 0.000000 
#    y 0.000000 1.686080 0.000000 
#    z 0.000000 0.000000 1.659930 
# 
# From -- ./inp_files/6928.got.cif
#   From: 2010.03.12/outbox.cif.g09.slc.cpg/sg193_4_cif.got.tgz:6928.got - 2010.04.01 12:20:39.
