data_PCOD8329297
_publ_section_title
;
Structure prediction by ZEFSAII (Michael W. Deem and Ramdas Pophale) SiO2 
 PCOD8329297
Probable space group: P 6/M M M
;
_chemical_formula_sum "Si O2"
_cell_formula_units_Z 144
_cell_length_a 23.389971
_cell_length_b 23.389971
_cell_length_c 20.293608
_cell_angle_alpha 90.000000
_cell_angle_beta 90.000000
_cell_angle_gamma 120.000000
_cell_volume 9614.999489
_symmetry_space_group_name_H-M "P 6/M M M"
_symmetry_group_IT_number 191
_symmetry_cell_setting 'hexagonal'
loop_
_space_group_symop_operation_xyz
x,y,z
x-y,x,z
-y,x-y,z
-x,-y,z
-x+y,-x,z
y,-x+y,z
x-y,-y,-z
-x,-x+y,-z
y,x,-z
-y,-x,-z
-x+y,y,-z
x,x-y,-z
-x,-y,-z
-x+y,-x,-z
y,-x+y,-z
x,y,-z
x-y,x,-z
-y,x-y,-z
-x+y,y,z
x,x-y,z
-y,-x,z
y,x,z
x-y,-y,z
-x,-x+y,z
loop_
_atom_site_type_symbol
_atom_site_label
_atom_site_fract_x
_atom_site_fract_y
_atom_site_fract_z
Si Si1 0.078616 0.603691 0.500000
Si Si2 0.277009 0.420865 0.243927
Si Si3 0.598956 0.675859 0.621746
Si Si4 0.727320 0.926711 0.771430
Si Si5 0.533387 0.198431 0.143097
Si Si6 0.197485 0.269428 0.615007
Si Si7 0.665704 0.460932 0.000000
O O1 0.105648 0.552824 0.500000
O O2 0.105015 0.647916 0.434326
O O3 0.000000 0.566918 0.500000
O O4 0.213833 0.427666 0.261002
O O5 0.317647 0.433238 0.311055
O O6 0.253143 0.348656 0.212701
O O7 0.324685 0.475198 0.191772
O O8 0.626987 0.626987 0.636273
O O9 0.657346 0.745981 0.595325
O O10 0.745757 0.872879 0.800512
O O11 0.735132 0.928858 0.693379
O O12 0.775476 0.000000 0.801397
O O13 0.600976 0.201952 0.166135
O O14 0.544726 0.272363 0.143338
O O15 0.512054 0.165620 0.069317
O O16 0.127633 0.255266 0.584992
O O17 0.215433 0.215433 0.586812
O O18 0.618483 0.381518 0.000000
O O19 0.740822 0.481643 0.000000
#
# Coordination Sequence:
#
# PCOD8329297 Si02
#       7
#    12  24  24  24  24  24  12
#     4   9  18  30  41  54  73  96 122 157 202 246
#     4   9  16  25  38  59  83 104 130 166 202 237
#     4   9  16  27  42  57  74  98 128 162 202 247
#     4   8  13  22  37  56  78 103 130 161 196 232
#     4   9  16  25  38  56  79 106 136 170 205 239
#     4   8  13  22  37  56  77 101 129 161 195 231
#     4   8  13  22  36  54  75 101 132 165 202 240
#
# _framework density 14.976599
#
# number of rings (size 3 to 8) (size 9 to 14) (size 15 to 20)
#    0.000    3.417    0.000    3.250    0.000    2.000 
#    0.000    1.667    0.000    1.833    0.000    4.667 
#    0.000    8.000    0.000    0.333    0.000   10.167 
#
# Total GULP energy -1784067.806228 kJ/mol
# GULP energy per Si atom -12389.359765 kJ/mol
# Density = 1.494251 g / cm^3
# Si number density = 14.976599 Si / 1000 Ang^3
#
#
#
# Elastic Constant Matrix: (Units=GPa)
#
#
# Indices 1 2 3 4 5 6 
#
# 1 88.5736 49.4791 44.9580 0.0000 0.0000 0.0000
# 2 49.4791 88.5736 44.9580 0.0000 0.0000 0.0000
# 3 44.9580 44.9580 77.9820 0.0000 0.0000 0.0000
# 4 0.0000 0.0000 0.0000 13.2531 0.0000 0.0000
# 5 0.0000 0.0000 0.0000 0.0000 13.2531 0.0000
# 6 0.0000 0.0000 0.0000 0.0000 0.0000 19.5473
#
#
#
# Elastic Compliance Matrix: (Units=1/GPa)
#
#
# Indices 1 2 3 4 5 6 
#
# 1 0.018589 -0.006990 -0.006687 0.000000 0.000000 0.000000
# 2 -0.006990 0.018589 -0.006687 0.000000 0.000000 0.000000
# 3 -0.006687 -0.006687 0.020534 0.000000 0.000000 0.000000
# 4 0.000000 0.000000 0.000000 0.075454 0.000000 0.000000
# 5 0.000000 0.000000 0.000000 0.000000 0.075454 0.000000
# 6 0.000000 0.000000 0.000000 0.000000 0.000000 0.051158
#
#
# Mechanical properties :
#
#
# Convention : Reuss Voigt Hill
#
# Bulk Modulus (GPa) = 58.87990 59.32439 59.10215
# Shear Modulus (GPa) = 16.33093 16.92630 16.62861
#
# Velocity S-wave (km/s) = 3.30575 3.36547 3.33574
# Velocity P-wave (km/s) = 7.34647 7.40265 7.37461
#
# Compressibility (1/GPa) = 0.01698372
#
# Stress axis : x y z
#
# Youngs Moduli (GPa) = 53.79530 53.79530 48.70010
#
# Poissons Ratio (x) = 0.37603 0.32566
# Poissons Ratio (y) = 0.37603 0.32566
# Poissons Ratio (z) = 0.35973 0.35973
#
# Static dielectric constant tensor:
#      x y z
#    x 2.936970 0.000000 0.000000 
#    y 0.000000 2.936970 0.000000 
#    z 0.000000 0.000000 2.804700 
# 
# 
# High freq. dielectric constant tensor:
#      x y z
#    x 1.556640 0.000000 0.000000 
#    y 0.000000 1.556640 0.000000 
#    z 0.000000 0.000000 1.547670 
# 
# From -- ./inp_files/7832.got.cif
#   From: 2010.03.12/outbox.cif.g09.slc.cpg/sg191_4_cif.got.tgz:7832.got - 2010.04.01 12:09:02.
