data_PCOD8329692
_publ_section_title
;
Structure prediction by ZEFSAII (Michael W. Deem and Ramdas Pophale) SiO2 
 PCOD8329692
Probable space group: P 6/M C C
;
_chemical_formula_sum "Si O2"
_cell_formula_units_Z 132
_cell_length_a 17.921909
_cell_length_b 17.921909
_cell_length_c 22.004854
_cell_angle_alpha 90.000000
_cell_angle_beta 90.000000
_cell_angle_gamma 120.000000
_cell_volume 6120.933466
_symmetry_space_group_name_H-M "P 6/M C C"
_symmetry_group_IT_number 192
_symmetry_cell_setting 'hexagonal'
loop_
_space_group_symop_operation_xyz
x,y,z
x-y,x,z
-y,x-y,z
-x,-y,z
-x+y,-x,z
y,-x+y,z
x-y,-y,1/2-z
-x,-x+y,1/2-z
y,x,1/2-z
-y,-x,1/2-z
-x+y,y,1/2-z
x,x-y,1/2-z
-x,-y,-z
-x+y,-x,-z
y,-x+y,-z
x,y,-z
x-y,x,-z
-y,x-y,-z
-x+y,y,1/2+z
x,x-y,1/2+z
-y,-x,1/2+z
y,x,1/2+z
x-y,-y,1/2+z
-x,-x+y,1/2+z
loop_
_atom_site_type_symbol
_atom_site_label
_atom_site_fract_x
_atom_site_fract_y
_atom_site_fract_z
Si Si1 0.012486 0.839912 0.321033
Si Si2 0.714881 0.271560 0.500000
Si Si3 0.100759 0.734262 0.337910
Si Si4 0.836005 0.559343 0.393734
Si Si5 0.419617 0.407465 0.067641
Si Si6 0.829831 0.497369 0.734823
O O1 0.025280 0.758115 0.333681
O O2 0.924812 0.829795 0.349596
O O3 0.000000 0.846078 0.250000
O O4 0.765145 0.376172 0.500000
O O5 0.740327 0.241452 0.438731
O O6 0.186022 0.817241 0.364610
O O7 0.077926 0.656992 0.383652
O O8 0.117175 0.704651 0.272086
O O9 0.844991 0.508555 0.336907
O O10 0.924481 0.597350 0.430647
O O11 0.500000 0.500000 0.082836
O O12 0.429432 0.378379 0.000000
O O13 0.728742 0.457483 0.750000
O O14 0.861839 0.430920 0.750000
#
# Coordination Sequence:
#
# PCOD8329692 Si02
#       6
#    24  12  24  24  24  24
#     4  10  22  40  69  97 130 165 213 270 337 412
#     4  10  26  38  69  91 127 170 229 286 329 370
#     4  11  25  40  64  93 135 176 209 274 336 406
#     4  11  24  42  62  92 128 164 224 266 332 388
#     4  11  25  40  63  89 126 172 224 276 321 390
#     4  10  23  37  61  89 129 174 218 267 322 389
#
# _framework density 21.565339000000002
#
# number of rings (size 3 to 8) (size 9 to 14) (size 15 to 20)
#    0.182    1.273    0.909    2.545   19.091    0.727 
#    0.000    1.818    0.000    0.000    0.000    0.000 
#    0.000    2.909    0.000    0.000    0.000    0.000 
#
# Total GULP energy -1636355.518992 kJ/mol
# GULP energy per Si atom -12396.632720 kJ/mol
# Density = 2.151626 g / cm^3
# Si number density = 21.565339 Si / 1000 Ang^3
#
#
#
# Elastic Constant Matrix: (Units=GPa)
#
#
# Indices 1 2 3 4 5 6 
#
# 1 90.1435 16.4103 28.2159 0.0000 0.0000 0.0000
# 2 16.4103 90.1435 28.2159 0.0000 0.0000 0.0000
# 3 28.2159 28.2159 118.8998 0.0000 0.0000 0.0000
# 4 0.0000 0.0000 0.0000 21.8221 0.0000 0.0000
# 5 0.0000 0.0000 0.0000 0.0000 21.8221 0.0000
# 6 0.0000 0.0000 0.0000 0.0000 0.0000 36.8666
#
#
#
# Elastic Compliance Matrix: (Units=1/GPa)
#
#
# Indices 1 2 3 4 5 6 
#
# 1 0.012148 -0.001414 -0.002547 0.000000 0.000000 0.000000
# 2 -0.001414 0.012148 -0.002547 0.000000 0.000000 0.000000
# 3 -0.002547 -0.002547 0.009619 0.000000 0.000000 0.000000
# 4 0.000000 0.000000 0.000000 0.045825 0.000000 0.000000
# 5 0.000000 0.000000 0.000000 0.000000 0.045825 0.000000
# 6 0.000000 0.000000 0.000000 0.000000 0.000000 0.027125
#
#
# Mechanical properties :
#
#
# Convention : Reuss Voigt Hill
#
# Bulk Modulus (GPa) = 47.85072 49.43012 48.64042
# Shear Modulus (GPa) = 28.95625 31.19182 30.07404
#
# Velocity S-wave (km/s) = 3.66829 3.80727 3.73842
# Velocity P-wave (km/s) = 6.33867 6.50368 6.42170
#
# Compressibility (1/GPa) = 0.02089833
#
# Stress axis : x y z
#
# Youngs Moduli (GPa) = 82.31674 82.31674 103.95645
#
# Poissons Ratio (x) = 0.11641 0.26480
# Poissons Ratio (y) = 0.11641 0.26480
# Poissons Ratio (z) = 0.20968 0.20968
#
# Static dielectric constant tensor:
#      x y z
#    x 3.861120 0.000000 0.000000 
#    y 0.000000 3.861120 0.000000 
#    z 0.000000 0.000000 3.797020 
# 
# 
# High freq. dielectric constant tensor:
#      x y z
#    x 1.845320 0.000000 0.000000 
#    y 0.000000 1.845320 0.000000 
#    z 0.000000 0.000000 1.835620 
# 
# From -- ./inp_files/5845.got.cif
#   From: 2010.03.12/outbox.cif.g09.slc.cpg/sg192_3_cif.got.tgz:5845.got - 2010.04.01 12:16:15.
