data_PCOD8329262
_publ_section_title
;
Structure prediction by ZEFSAII (Michael W. Deem and Ramdas Pophale) SiO2 
 PCOD8329262
Probable space group: P 6/M M M
;
_chemical_formula_sum "Si O2"
_cell_formula_units_Z 144
_cell_length_a 22.221707
_cell_length_b 22.221707
_cell_length_c 23.242239
_cell_angle_alpha 90.000000
_cell_angle_beta 90.000000
_cell_angle_gamma 120.000000
_cell_volume 9939.474604
_symmetry_space_group_name_H-M "P 6/M M M"
_symmetry_group_IT_number 191
_symmetry_cell_setting 'hexagonal'
loop_
_space_group_symop_operation_xyz
x,y,z
x-y,x,z
-y,x-y,z
-x,-y,z
-x+y,-x,z
y,-x+y,z
x-y,-y,-z
-x,-x+y,-z
y,x,-z
-y,-x,-z
-x+y,y,-z
x,x-y,-z
-x,-y,-z
-x+y,-x,-z
y,-x+y,-z
x,y,-z
x-y,x,-z
-y,x-y,-z
-x+y,y,z
x,x-y,z
-y,-x,z
y,x,z
x-y,-y,z
-x,-x+y,z
loop_
_atom_site_type_symbol
_atom_site_label
_atom_site_fract_x
_atom_site_fract_y
_atom_site_fract_z
Si Si1 0.134351 0.134351 0.932227
Si Si2 0.203273 0.666161 0.066853
Si Si3 0.918202 0.390700 0.219039
Si Si4 0.526772 0.333049 0.433939
Si Si5 0.923604 0.532412 0.349846
Si Si6 0.869504 0.272079 0.126890
Si Si7 0.000000 0.274376 0.930709
O O1 0.137156 0.068578 0.905615
O O2 0.204151 0.204151 0.917046
O O3 0.125441 0.125441 0.000000
O O4 0.182183 0.591092 0.094016
O O5 0.275778 0.724223 0.095487
O O6 0.145130 0.686984 0.076972
O O7 0.213993 0.664114 0.000000
O O8 0.892265 0.446133 0.203686
O O9 0.899377 0.366052 0.284863
O O10 0.883004 0.319535 0.183040
O O11 0.000000 0.429110 0.208477
O O12 0.505727 0.333204 0.500000
O O13 0.527280 0.263640 0.417678
O O14 0.603324 0.396677 0.421098
O O15 0.468655 0.336413 0.394516
O O16 0.929600 0.464800 0.360088
O O17 0.000000 0.599468 0.361212
O O18 0.805139 0.194862 0.138842
O O19 0.933524 0.266979 0.102123
O O20 0.000000 0.287234 0.000000
#
# Coordination Sequence:
#
# PCOD8329262 Si02
#       7
#    12  24  24  24  24  24  12
#     4   9  17  30  49  69  86 105 129 156 189 235
#     4   9  17  29  44  61  81 105 134 170 212 256
#     4   9  17  32  50  64  84 112 143 179 217 256
#     4   9  16  25  38  58  86 117 146 177 215 257
#     4   8  15  27  43  61  80 108 143 178 214 248
#     4  11  21  32  47  66  86 109 140 175 211 254
#     4  11  22  35  47  63  89 116 136 163 205 253
#
# _framework density 14.487688
#
# number of rings (size 3 to 8) (size 9 to 14) (size 15 to 20)
#    0.000    2.667    0.833    2.917    0.000    4.333 
#    0.000    1.667    0.000    2.333    0.000    0.000 
#    0.000    0.000    0.000    0.000    0.000    0.000 
#
# Total GULP energy -1784125.297800 kJ/mol
# GULP energy per Si atom -12389.759013 kJ/mol
# Density = 1.445471 g / cm^3
# Si number density = 14.487688 Si / 1000 Ang^3
#
#
#
# Elastic Constant Matrix: (Units=GPa)
#
#
# Indices 1 2 3 4 5 6 
#
# 1 100.4061 59.1064 45.8926 0.0000 0.0000 0.0000
# 2 59.1064 100.4061 45.8926 0.0000 0.0000 0.0000
# 3 45.8926 45.8926 71.5065 0.0000 0.0000 0.0000
# 4 0.0000 0.0000 0.0000 18.4157 0.0000 0.0000
# 5 0.0000 0.0000 0.0000 0.0000 18.4157 0.0000
# 6 0.0000 0.0000 0.0000 0.0000 0.0000 20.6498
#
#
#
# Elastic Compliance Matrix: (Units=1/GPa)
#
#
# Indices 1 2 3 4 5 6 
#
# 1 0.017077 -0.007137 -0.006379 0.000000 0.000000 0.000000
# 2 -0.007137 0.017077 -0.006379 0.000000 0.000000 0.000000
# 3 -0.006379 -0.006379 0.022173 0.000000 0.000000 0.000000
# 4 0.000000 0.000000 0.000000 0.054301 0.000000 0.000000
# 5 0.000000 0.000000 0.000000 0.000000 0.054301 0.000000
# 6 0.000000 0.000000 0.000000 0.000000 0.000000 0.048427
#
#
# Mechanical properties :
#
#
# Convention : Reuss Voigt Hill
#
# Bulk Modulus (GPa) = 60.47593 63.78910 62.13251
# Shear Modulus (GPa) = 19.33051 19.59139 19.46095
#
# Velocity S-wave (km/s) = 3.65673 3.68132 3.66905
# Velocity P-wave (km/s) = 7.72415 7.88638 7.80569
#
# Compressibility (1/GPa) = 0.01653551
#
# Stress axis : x y z
#
# Youngs Moduli (GPa) = 58.55979 58.55979 45.09942
#
# Poissons Ratio (x) = 0.41792 0.28771
# Poissons Ratio (y) = 0.41792 0.28771
# Poissons Ratio (z) = 0.37357 0.37357
#
# Static dielectric constant tensor:
#      x y z
#    x 2.915720 0.000000 0.000000 
#    y 0.000000 2.915720 0.000000 
#    z 0.000000 0.000000 2.755050 
# 
# 
# High freq. dielectric constant tensor:
#      x y z
#    x 1.547140 0.000000 0.000000 
#    y 0.000000 1.547140 0.000000 
#    z 0.000000 0.000000 1.534630 
# 
# From -- ./inp_files/8935.got.cif
#   From: 2010.03.12/outbox.cif.g09.slc.cpg/sg191_5_cif.got.tgz:8935.got - 2010.04.01 12:09:02.
