data_PCOD8329833
_publ_section_title
;
Structure prediction by ZEFSAII (Michael W. Deem and Ramdas Pophale) SiO2 
 PCOD8329833
Probable space group: P 63/M C M
;
_chemical_formula_sum "Si O2"
_cell_formula_units_Z 192
_cell_length_a 23.267722
_cell_length_b 23.267722
_cell_length_c 23.243521
_cell_angle_alpha 90.000000
_cell_angle_beta 90.000000
_cell_angle_gamma 120.000000
_cell_volume 10897.836331
_symmetry_space_group_name_H-M "P 63/M C M"
_symmetry_group_IT_number 193
_symmetry_cell_setting 'hexagonal'
loop_
_space_group_symop_operation_xyz
x,y,z
x-y,x,1/2+z
-y,x-y,z
-x,-y,1/2+z
-x+y,-x,z
y,-x+y,1/2+z
x-y,-y,1/2-z
-x,-x+y,1/2-z
y,x,1/2-z
-y,-x,-z
-x+y,y,-z
x,x-y,-z
-x,-y,-z
-x+y,-x,1/2-z
y,-x+y,-z
x,y,1/2-z
x-y,x,-z
-y,x-y,1/2-z
-x+y,y,1/2+z
x,x-y,1/2+z
-y,-x,1/2+z
y,x,z
x-y,-y,z
-x,-x+y,z
loop_
_atom_site_type_symbol
_atom_site_label
_atom_site_fract_x
_atom_site_fract_y
_atom_site_fract_z
Si Si1 0.925117 0.375505 0.121687
Si Si2 0.078271 0.475156 0.995557
Si Si3 0.183670 0.576022 0.181491
Si Si4 0.295834 0.922130 0.580733
Si Si5 0.924847 0.201476 0.010473
Si Si6 0.161872 0.374956 0.815685
Si Si7 0.245610 0.925865 0.139264
Si Si8 0.525462 0.247474 0.683260
O O1 0.884016 0.404139 0.153625
O O2 0.918791 0.310015 0.150529
O O3 0.000000 0.436072 0.125153
O O4 0.903956 0.356898 0.055348
O O5 0.106589 0.449478 0.943121
O O6 0.000000 0.440990 0.986289
O O7 0.109978 0.554989 0.000000
O O8 0.174589 0.568321 0.250000
O O9 0.243863 0.565838 0.159172
O O10 0.200164 0.648241 0.157653
O O11 0.238217 0.902018 0.534324
O O12 0.262841 0.896579 0.642738
O O13 0.339850 0.000000 0.586841
O O14 0.917708 0.225177 0.073106
O O15 0.000000 0.218068 0.999334
O O16 0.877120 0.122881 0.000000
O O17 0.136794 0.367734 0.750000
O O18 0.186000 0.321092 0.826077
O O19 0.221613 0.448599 0.829274
O O20 0.262948 0.000000 0.160752
O O21 0.540489 0.250153 0.750000
#
# Coordination Sequence:
#
# PCOD8329833 Si02
#       8
#    24  24  24  24  24  24  24  24
#     4  10  19  31  50  76 101 126 161 208 259 315
#     4   9  18  32  49  71  99 132 172 213 256 309
#     4  10  19  33  50  68  94 128 168 213 260 311
#     4  10  20  34  53  74 103 143 178 217 267 317
#     4  10  18  32  55  82 107 135 175 217 259 310
#     4  11  22  35  50  75 107 138 177 218 265 327
#     4  10  19  33  53  77 107 137 171 217 266 319
#     4   9  19  33  48  66  89 126 171 213 256 310
#
# _framework density 17.618175999999998
#
# number of rings (size 3 to 8) (size 9 to 14) (size 15 to 20)
#    0.000    2.125    3.750    0.250    1.750    1.750 
#    0.000    1.250    0.000    2.375    0.000    0.000 
#    0.000    0.000    0.000    0.000    0.000   11.375 
#
# Total GULP energy -2379218.892450 kJ/mol
# GULP energy per Si atom -12391.765065 kJ/mol
# Density = 1.757808 g / cm^3
# Si number density = 17.618176 Si / 1000 Ang^3
#
#
#
# Elastic Constant Matrix: (Units=GPa)
#
#
# Indices 1 2 3 4 5 6 
#
# 1 77.9688 36.3187 27.2508 0.0000 0.0000 0.0000
# 2 36.3187 77.9688 27.2508 0.0000 0.0000 0.0000
# 3 27.2508 27.2508 63.6314 0.0000 0.0000 0.0000
# 4 0.0000 0.0000 0.0000 23.5618 0.0000 0.0000
# 5 0.0000 0.0000 0.0000 0.0000 23.5618 0.0000
# 6 0.0000 0.0000 0.0000 0.0000 0.0000 20.8250
#
#
#
# Elastic Compliance Matrix: (Units=1/GPa)
#
#
# Indices 1 2 3 4 5 6 
#
# 1 0.017502 -0.006507 -0.004709 0.000000 0.000000 0.000000
# 2 -0.006507 0.017502 -0.004709 0.000000 0.000000 0.000000
# 3 -0.004709 -0.004709 0.019749 0.000000 0.000000 0.000000
# 4 0.000000 0.000000 0.000000 0.042442 0.000000 0.000000
# 5 0.000000 0.000000 0.000000 0.000000 0.042442 0.000000
# 6 0.000000 0.000000 0.000000 0.000000 0.000000 0.048019
#
#
# Mechanical properties :
#
#
# Convention : Reuss Voigt Hill
#
# Bulk Modulus (GPa) = 43.66041 44.57884 44.11962
# Shear Modulus (GPa) = 22.01282 22.17299 22.09291
#
# Velocity S-wave (km/s) = 3.53857 3.55142 3.54501
# Velocity P-wave (km/s) = 6.44442 6.49419 6.46935
#
# Compressibility (1/GPa) = 0.02290405
#
# Stress axis : x y z
#
# Youngs Moduli (GPa) = 57.13471 57.13471 50.63606
#
# Poissons Ratio (x) = 0.37178 0.23844
# Poissons Ratio (y) = 0.37178 0.23844
# Poissons Ratio (z) = 0.26904 0.26904
#
# Static dielectric constant tensor:
#      x y z
#    x 3.250040 0.000000 0.000000 
#    y 0.000000 3.250040 0.000000 
#    z 0.000000 0.000000 3.173720 
# 
# 
# High freq. dielectric constant tensor:
#      x y z
#    x 1.666370 0.000000 0.000000 
#    y 0.000000 1.666370 0.000000 
#    z 0.000000 0.000000 1.668310 
# 
# From -- ./inp_files/7870.got.cif
#   From: 2010.03.12/outbox.cif.g09.slc.cpg/sg193_4_cif.got.tgz:7870.got - 2010.04.01 12:20:39.
