data_PCOD8329030
_publ_section_title
;
Structure prediction by ZEFSAII (Michael W. Deem and Ramdas Pophale) SiO2 
 PCOD8329030
Probable space group: P 6/M M M
;
_chemical_formula_sum "Si O2"
_cell_formula_units_Z 84
_cell_length_a 17.619366
_cell_length_b 17.619366
_cell_length_c 17.755877
_cell_angle_alpha 90.000000
_cell_angle_beta 90.000000
_cell_angle_gamma 120.000000
_cell_volume 4773.680118
_symmetry_space_group_name_H-M "P 6/M M M"
_symmetry_group_IT_number 191
_symmetry_cell_setting 'hexagonal'
loop_
_space_group_symop_operation_xyz
x,y,z
x-y,x,z
-y,x-y,z
-x,-y,z
-x+y,-x,z
y,-x+y,z
x-y,-y,-z
-x,-x+y,-z
y,x,-z
-y,-x,-z
-x+y,y,-z
x,x-y,-z
-x,-y,-z
-x+y,-x,-z
y,-x+y,-z
x,y,-z
x-y,x,-z
-y,x-y,-z
-x+y,y,z
x,x-y,z
-y,-x,z
y,x,z
x-y,-y,z
-x,-x+y,z
loop_
_atom_site_type_symbol
_atom_site_label
_atom_site_fract_x
_atom_site_fract_y
_atom_site_fract_z
Si Si1 0.368416 0.099481 0.357795
Si Si2 0.364141 0.896642 0.500000
Si Si3 0.158560 0.667703 0.780626
Si Si4 0.267928 0.901818 0.914163
O O1 0.327727 0.163864 0.352417
O O2 0.437939 0.133643 0.425878
O O3 0.418589 0.102805 0.281714
O O4 0.289692 0.000000 0.370623
O O5 0.426819 0.853637 0.500000
O O6 0.424203 0.000000 0.500000
O O7 0.144459 0.572230 0.768298
O O8 0.261074 0.738926 0.773697
O O9 0.121454 0.672020 0.862280
O O10 0.165083 0.834918 0.896996
O O11 0.287085 0.000000 0.897940
O O12 0.291442 0.892306 0.000000
#
# Coordination Sequence:
#
# PCOD8329030 Si02
#       4
#    24  12  24  24
#     4  10  20  33  50  72  97 126 160 198 239 281
#     4   9  17  30  49  72  96 122 154 191 229 272
#     4  10  20  33  49  70  96 125 156 191 232 277
#     4   9  18  32  49  69  93 122 156 193 233 276
#
# _framework density 17.596488000000001
#
# number of rings (size 3 to 8) (size 9 to 14) (size 15 to 20)
#    0.000    2.429    0.000    2.429    0.000    4.000 
#    0.000    1.429    0.000    6.286    0.000    2.000 
#    0.000   10.286    0.000    0.286    0.000    1.143 
#
# Total GULP energy -1041519.891550 kJ/mol
# GULP energy per Si atom -12399.046328 kJ/mol
# Density = 1.755644 g / cm^3
# Si number density = 17.596488 Si / 1000 Ang^3
#
#
#
# Elastic Constant Matrix: (Units=GPa)
#
#
# Indices 1 2 3 4 5 6 
#
# 1 91.1991 61.3611 30.4873 0.0000 0.0000 0.0000
# 2 61.3611 91.1991 30.4873 0.0000 0.0000 0.0000
# 3 30.4873 30.4873 94.1640 0.0000 0.0000 0.0000
# 4 0.0000 0.0000 0.0000 22.3211 0.0000 0.0000
# 5 0.0000 0.0000 0.0000 0.0000 22.3211 0.0000
# 6 0.0000 0.0000 0.0000 0.0000 0.0000 14.9190
#
#
#
# Elastic Compliance Matrix: (Units=1/GPa)
#
#
# Indices 1 2 3 4 5 6 
#
# 1 0.020522 -0.012993 -0.002438 0.000000 0.000000 0.000000
# 2 -0.012993 0.020522 -0.002438 0.000000 0.000000 0.000000
# 3 -0.002438 -0.002438 0.012198 0.000000 0.000000 0.000000
# 4 0.000000 0.000000 0.000000 0.044801 0.000000 0.000000
# 5 0.000000 0.000000 0.000000 0.000000 0.044801 0.000000
# 6 0.000000 0.000000 0.000000 0.000000 0.000000 0.067029
#
#
# Mechanical properties :
#
#
# Convention : Reuss Voigt Hill
#
# Bulk Modulus (GPa) = 57.12427 57.91485 57.51956
# Shear Modulus (GPa) = 19.88523 22.19401 21.03962
#
# Velocity S-wave (km/s) = 3.36530 3.55530 3.46160
# Velocity P-wave (km/s) = 6.90175 7.05958 6.98111
#
# Compressibility (1/GPa) = 0.01750569
#
# Stress axis : x y z
#
# Youngs Moduli (GPa) = 48.72885 48.72885 81.97901
#
# Poissons Ratio (x) = 0.63312 0.19984
# Poissons Ratio (y) = 0.63312 0.19984
# Poissons Ratio (z) = 0.11878 0.11878
#
# Static dielectric constant tensor:
#      x y z
#    x 3.163630 0.000000 0.000000 
#    y 0.000000 3.163630 0.000000 
#    z 0.000000 0.000000 3.506900 
# 
# 
# High freq. dielectric constant tensor:
#      x y z
#    x 1.662730 0.000000 0.000000 
#    y 0.000000 1.662730 0.000000 
#    z 0.000000 0.000000 1.701550 
# 
# From -- ./inp_files/3974.got.cif
#   From: 2010.03.12/outbox.cif.g09.slc.cpg/sg191_2_cif.got.tgz:3974.got - 2010.04.01 12:09:02.
