data_PCOD8329843
_publ_section_title
;
Structure prediction by ZEFSAII (Michael W. Deem and Ramdas Pophale) SiO2 
 PCOD8329843
Probable space group: P 63/M C M
;
_chemical_formula_sum "Si O2"
_cell_formula_units_Z 120
_cell_length_a 20.267272
_cell_length_b 20.267272
_cell_length_c 17.444969
_cell_angle_alpha 90.000000
_cell_angle_beta 90.000000
_cell_angle_gamma 120.000000
_cell_volume 6205.709274
_symmetry_space_group_name_H-M "P 63/M C M"
_symmetry_group_IT_number 193
_symmetry_cell_setting 'hexagonal'
loop_
_space_group_symop_operation_xyz
x,y,z
x-y,x,1/2+z
-y,x-y,z
-x,-y,1/2+z
-x+y,-x,z
y,-x+y,1/2+z
x-y,-y,1/2-z
-x,-x+y,1/2-z
y,x,1/2-z
-y,-x,-z
-x+y,y,-z
x,x-y,-z
-x,-y,-z
-x+y,-x,1/2-z
y,-x+y,-z
x,y,1/2-z
x-y,x,-z
-y,x-y,1/2-z
-x+y,y,1/2+z
x,x-y,1/2+z
-y,-x,1/2+z
y,x,z
x-y,-y,z
-x,-x+y,z
loop_
_atom_site_type_symbol
_atom_site_label
_atom_site_fract_x
_atom_site_fract_y
_atom_site_fract_z
Si Si1 0.753986 0.507814 0.591025
Si Si2 0.185869 0.333719 0.661221
Si Si3 0.173727 0.086716 0.590794
Si Si4 0.518024 0.000000 0.588362
Si Si5 0.000000 0.345129 0.162391
Si Si6 0.164252 0.581400 0.908419
O O1 0.756355 0.512709 0.500000
O O2 0.782587 0.591602 0.623743
O O3 0.668389 0.453068 0.621546
O O4 0.803173 0.470601 0.622197
O O5 0.167791 0.333027 0.750000
O O6 0.118028 0.257823 0.624217
O O7 0.264353 0.336392 0.645216
O O8 0.179803 0.089902 0.500000
O O9 0.136070 0.136070 0.620857
O O10 0.120897 0.000000 0.618916
O O11 0.500000 0.000000 0.500000
O O12 0.528707 0.078194 0.624706
O O13 0.596662 0.000000 0.600548
O O14 0.000000 0.371969 0.250000
O O15 0.163700 0.581850 0.000000
#
# Coordination Sequence:
#
# PCOD8329843 Si02
#       6
#    24  24  24  12  12  24
#     4  10  19  35  56  82 112 146 186 238 288 340
#     4  11  22  38  58  83 115 153 195 235 280 345
#     4  10  21  39  62  90 117 149 190 240 292 343
#     4  10  18  34  54  84 110 142 186 236 278 335
#     4  10  20  36  60  82 109 150 198 241 275 338
#     4   9  18  31  53  79 107 139 180 228 280 328
#
# _framework density 19.337031
#
# number of rings (size 3 to 8) (size 9 to 14) (size 15 to 20)
#    0.000    2.000    3.000    1.200    0.000    2.800 
#    1.800    2.000    0.000    1.200    0.000    0.000 
#    0.000    0.000    0.000    0.000    0.000    0.000 
#
# Total GULP energy -1487808.863140 kJ/mol
# GULP energy per Si atom -12398.407193 kJ/mol
# Density = 1.929302 g / cm^3
# Si number density = 19.337031 Si / 1000 Ang^3
#
#
#
# Elastic Constant Matrix: (Units=GPa)
#
#
# Indices 1 2 3 4 5 6 
#
# 1 138.1459 62.3526 27.2727 0.0000 0.0000 0.0000
# 2 62.3526 138.1459 27.2727 0.0000 0.0000 0.0000
# 3 27.2727 27.2727 32.3166 0.0000 0.0000 0.0000
# 4 0.0000 0.0000 0.0000 14.9922 0.0000 0.0000
# 5 0.0000 0.0000 0.0000 0.0000 14.9922 0.0000
# 6 0.0000 0.0000 0.0000 0.0000 0.0000 37.8967
#
#
#
# Elastic Compliance Matrix: (Units=1/GPa)
#
#
# Indices 1 2 3 4 5 6 
#
# 1 0.009834 -0.003360 -0.005463 0.000000 0.000000 0.000000
# 2 -0.003360 0.009834 -0.005463 0.000000 0.000000 0.000000
# 3 -0.005463 -0.005463 0.040165 0.000000 0.000000 0.000000
# 4 0.000000 0.000000 0.000000 0.066702 0.000000 0.000000
# 5 0.000000 0.000000 0.000000 0.000000 0.066702 0.000000
# 6 0.000000 0.000000 0.000000 0.000000 0.000000 0.026388
#
#
# Mechanical properties :
#
#
# Convention : Reuss Voigt Hill
#
# Bulk Modulus (GPa) = 31.99056 60.26717 46.12887
# Shear Modulus (GPa) = 19.33360 26.35688 22.84524
#
# Velocity S-wave (km/s) = 3.16543 3.69592 3.44091
# Velocity P-wave (km/s) = 5.47170 7.03189 6.30028
#
# Compressibility (1/GPa) = 0.03125922
#
# Stress axis : x y z
#
# Youngs Moduli (GPa) = 101.68967 101.68967 24.89711
#
# Poissons Ratio (x) = 0.34167 0.13602
# Poissons Ratio (y) = 0.34167 0.13602
# Poissons Ratio (z) = 0.55558 0.55558
#
# Static dielectric constant tensor:
#      x y z
#    x 3.744200 0.000000 0.000000 
#    y 0.000000 3.744200 0.000000 
#    z 0.000000 0.000000 3.183820 
# 
# 
# High freq. dielectric constant tensor:
#      x y z
#    x 1.761580 0.000000 0.000000 
#    y 0.000000 1.761580 0.000000 
#    z 0.000000 0.000000 1.715230 
# 
# From -- ./inp_files/5391.got.cif
#   From: 2010.03.12/outbox.cif.g09.slc.cpg/sg193_3_cif.got.tgz:5391.got - 2010.04.01 12:20:39.
