data_PCOD8329206
_publ_section_title
;
Structure prediction by ZEFSAII (Michael W. Deem and Ramdas Pophale) SiO2 
 PCOD8329206
Probable space group: P 6/M M M
;
_chemical_formula_sum "Si O2"
_cell_formula_units_Z 102
_cell_length_a 27.169132
_cell_length_b 27.169132
_cell_length_c 7.972681
_cell_angle_alpha 90.000000
_cell_angle_beta 90.000000
_cell_angle_gamma 120.000000
_cell_volume 5096.670377
_symmetry_space_group_name_H-M "P 6/M M M"
_symmetry_group_IT_number 191
_symmetry_cell_setting 'hexagonal'
loop_
_space_group_symop_operation_xyz
x,y,z
x-y,x,z
-y,x-y,z
-x,-y,z
-x+y,-x,z
y,-x+y,z
x-y,-y,-z
-x,-x+y,-z
y,x,-z
-y,-x,-z
-x+y,y,-z
x,x-y,-z
-x,-y,-z
-x+y,-x,-z
y,-x+y,-z
x,y,-z
x-y,x,-z
-y,x-y,-z
-x+y,y,z
x,x-y,z
-y,-x,z
y,x,z
x-y,-y,z
-x,-x+y,z
loop_
_atom_site_type_symbol
_atom_site_label
_atom_site_fract_x
_atom_site_fract_y
_atom_site_fract_z
Si Si1 0.155298 0.421315 0.300255
Si Si2 0.765216 0.700821 0.192421
Si Si3 0.888999 0.111002 0.311926
Si Si4 0.000000 0.442525 0.816456
Si Si5 0.932049 0.067952 0.000000
Si Si6 0.493600 0.879595 0.307082
O O1 0.151177 0.418015 0.500000
O O2 0.212371 0.424741 0.232928
O O3 0.101775 0.365862 0.226380
O O4 0.156961 0.479027 0.234133
O O5 0.718919 0.718919 0.238960
O O6 0.821344 0.737709 0.300927
O O7 0.784259 0.713982 0.000000
O O8 0.902685 0.097316 0.500000
O O9 0.913193 0.086807 0.169321
O O10 0.944473 0.400400 0.712003
O O11 0.000000 0.500000 0.845766
O O12 0.000000 0.416385 0.000000
O O13 0.000000 0.096613 0.000000
O O14 0.479602 0.865237 0.500000
O O15 0.433984 0.867967 0.218751
#
# Coordination Sequence:
#
# PCOD8329206 Si02
#       6
#    24  24  12  12   6  24
#     4  10  21  36  54  80 112 148 194 246 297 351
#     4  11  23  39  59  86 120 156 198 247 300 367
#     4  12  24  43  69  95 126 166 212 260 318 382
#     4   9  17  29  47  73 103 133 173 221 265 323
#     4  12  27  48  72 100 132 168 214 270 330 390
#     4   9  18  33  52  73 103 144 185 225 277 339
#
# _framework density 20.013066999999999
#
# number of rings (size 3 to 8) (size 9 to 14) (size 15 to 20)
#    0.000    1.765    2.353    1.824    1.647    5.647 
#    0.000    0.000    0.000    1.176    0.000    3.294 
#    0.000    0.000    0.000    5.412    0.000    6.588 
#
# Total GULP energy -1264078.412113 kJ/mol
# GULP energy per Si atom -12392.925609 kJ/mol
# Density = 1.996752 g / cm^3
# Si number density = 20.013067 Si / 1000 Ang^3
#
#
#
# Elastic Constant Matrix: (Units=GPa)
#
#
# Indices 1 2 3 4 5 6 
#
# 1 145.2164 80.7762 25.9081 0.0000 0.0000 0.0000
# 2 80.7762 145.2164 25.9081 0.0000 0.0000 0.0000
# 3 25.9081 25.9081 67.6859 0.0000 0.0000 0.0000
# 4 0.0000 0.0000 0.0000 16.5744 0.0000 0.0000
# 5 0.0000 0.0000 0.0000 0.0000 16.5744 0.0000
# 6 0.0000 0.0000 0.0000 0.0000 0.0000 32.2201
#
#
#
# Elastic Compliance Matrix: (Units=1/GPa)
#
#
# Indices 1 2 3 4 5 6 
#
# 1 0.010184 -0.005334 -0.001857 0.000000 0.000000 0.000000
# 2 -0.005334 0.010184 -0.001857 0.000000 0.000000 0.000000
# 3 -0.001857 -0.001857 0.016195 0.000000 0.000000 0.000000
# 4 0.000000 0.000000 0.000000 0.060334 0.000000 0.000000
# 5 0.000000 0.000000 0.000000 0.000000 0.060334 0.000000
# 6 0.000000 0.000000 0.000000 0.000000 0.000000 0.031037
#
#
# Mechanical properties :
#
#
# Convention : Reuss Voigt Hill
#
# Bulk Modulus (GPa) = 54.14173 69.25595 61.69884
# Shear Modulus (GPa) = 23.52725 28.10890 25.81808
#
# Velocity S-wave (km/s) = 3.43241 3.75177 3.59564
# Velocity P-wave (km/s) = 6.54374 7.31083 6.93789
#
# Compressibility (1/GPa) = 0.01847004
#
# Stress axis : x y z
#
# Youngs Moduli (GPa) = 98.18900 98.18900 61.74568
#
# Poissons Ratio (x) = 0.52372 0.11464
# Poissons Ratio (y) = 0.52372 0.11464
# Poissons Ratio (z) = 0.18230 0.18230
#
# Static dielectric constant tensor:
#      x y z
#    x 3.890310 0.000000 0.000000 
#    y 0.000000 3.890310 0.000000 
#    z 0.000000 0.000000 3.578970 
# 
# 
# High freq. dielectric constant tensor:
#      x y z
#    x 1.773650 0.000000 0.000000 
#    y 0.000000 1.773650 0.000000 
#    z 0.000000 0.000000 1.772320 
# 
# From -- ./inp_files/1463.got.cif
#   From: 2010.03.12/outbox.cif.g09.slc.cpg/sg191_1_cif.got.tgz:1463.got - 2010.04.01 12:09:02.
