data_PCOD8329529
_publ_section_title
;
Structure prediction by ZEFSAII (Michael W. Deem and Ramdas Pophale) SiO2 
 PCOD8329529
Probable space group: P 6/M C C
;
_chemical_formula_sum "Si O2"
_cell_formula_units_Z 144
_cell_length_a 32.150983
_cell_length_b 32.150983
_cell_length_c 8.853207
_cell_angle_alpha 90.000000
_cell_angle_beta 90.000000
_cell_angle_gamma 120.000000
_cell_volume 7925.373931
_symmetry_space_group_name_H-M "P 6/M C C"
_symmetry_group_IT_number 192
_symmetry_cell_setting 'hexagonal'
loop_
_space_group_symop_operation_xyz
x,y,z
x-y,x,z
-y,x-y,z
-x,-y,z
-x+y,-x,z
y,-x+y,z
x-y,-y,1/2-z
-x,-x+y,1/2-z
y,x,1/2-z
-y,-x,1/2-z
-x+y,y,1/2-z
x,x-y,1/2-z
-x,-y,-z
-x+y,-x,-z
y,-x+y,-z
x,y,-z
x-y,x,-z
-y,x-y,-z
-x+y,y,1/2+z
x,x-y,1/2+z
-y,-x,1/2+z
y,x,1/2+z
x-y,-y,1/2+z
-x,-x+y,1/2+z
loop_
_atom_site_type_symbol
_atom_site_label
_atom_site_fract_x
_atom_site_fract_y
_atom_site_fract_z
Si Si1 0.439612 0.051143 0.822960
Si Si2 0.473011 0.861449 0.676888
Si Si3 0.189870 0.138601 0.822635
Si Si4 0.384700 0.278250 0.676904
Si Si5 0.893533 0.193677 0.677020
Si Si6 0.278333 0.472164 0.676830
O O1 0.490634 0.087716 0.751266
O O2 0.401125 0.067882 0.786282
O O3 0.421970 0.000000 0.750000
O O4 0.446641 0.048488 0.000000
O O5 0.420721 0.841442 0.750000
O O6 0.471148 0.869302 0.500000
O O7 0.489126 0.822533 0.712812
O O8 0.156535 0.156535 0.750000
O O9 0.175094 0.087547 0.750000
O O10 0.245117 0.176906 0.785189
O O11 0.180612 0.131750 0.000000
O O12 0.382307 0.268412 0.500000
O O13 0.332376 0.246107 0.750391
O O14 0.421148 0.263627 0.749670
O O15 0.842324 0.157677 0.750000
O O16 0.886178 0.195779 0.500000
O O17 0.246138 0.492276 0.750000
O O18 0.268460 0.464293 0.500000
#
# Coordination Sequence:
#
# PCOD8329529 Si02
#       6
#    24  24  24  24  24  24
#     4  10  21  36  53  74 102 137 177 220 263 307
#     4  10  21  37  57  80 105 134 170 213 260 311
#     4  10  21  37  57  80 106 137 173 213 257 305
#     4  10  20  33  50  73 104 141 178 217 259 303
#     4  10  20  33  50  73 103 138 175 214 254 300
#     4  10  20  34  54  79 106 136 170 210 257 309
#
# _framework density 18.16949
#
# number of rings (size 3 to 8) (size 9 to 14) (size 15 to 20)
#    0.000    2.000    0.000    3.500    0.000    7.000 
#    0.000    5.000    0.000    0.500    0.000    1.167 
#    0.000    0.000    0.000    0.000    0.000    0.000 
#
# Total GULP energy -1786354.096114 kJ/mol
# GULP energy per Si atom -12405.236779 kJ/mol
# Density = 1.812814 g / cm^3
# Si number density = 18.169490 Si / 1000 Ang^3
#
#
#
# Elastic Constant Matrix: (Units=GPa)
#
#
# Indices 1 2 3 4 5 6 
#
# 1 102.2615 58.4809 55.5094 0.0000 0.0000 0.0000
# 2 58.4809 102.2615 55.5094 0.0000 0.0000 0.0000
# 3 55.5094 55.5094 107.0898 0.0000 0.0000 0.0000
# 4 0.0000 0.0000 0.0000 33.2405 0.0000 0.0000
# 5 0.0000 0.0000 0.0000 0.0000 33.2405 0.0000
# 6 0.0000 0.0000 0.0000 0.0000 0.0000 21.8903
#
#
#
# Elastic Compliance Matrix: (Units=1/GPa)
#
#
# Indices 1 2 3 4 5 6 
#
# 1 0.016266 -0.006575 -0.005023 0.000000 0.000000 0.000000
# 2 -0.006575 0.016266 -0.005023 0.000000 0.000000 0.000000
# 3 -0.005023 -0.005023 0.014545 0.000000 0.000000 0.000000
# 4 0.000000 0.000000 0.000000 0.030084 0.000000 0.000000
# 5 0.000000 0.000000 0.000000 0.000000 0.030084 0.000000
# 6 0.000000 0.000000 0.000000 0.000000 0.000000 0.045682
#
#
# Mechanical properties :
#
#
# Convention : Reuss Voigt Hill
#
# Bulk Modulus (GPa) = 72.28527 72.29028 72.28778
# Shear Modulus (GPa) = 26.20817 27.14848 26.67833
#
# Velocity S-wave (km/s) = 3.80205 3.86966 3.83600
# Velocity P-wave (km/s) = 7.69054 7.73554 7.71307
#
# Compressibility (1/GPa) = 0.01383408
#
# Stress axis : x y z
#
# Youngs Moduli (GPa) = 61.47901 61.47901 68.75152
#
# Poissons Ratio (x) = 0.40425 0.34533
# Poissons Ratio (y) = 0.40425 0.34533
# Poissons Ratio (z) = 0.30880 0.30880
#
# Static dielectric constant tensor:
#      x y z
#    x 3.284210 0.000000 0.000000 
#    y 0.000000 3.284210 0.000000 
#    z 0.000000 0.000000 3.491090 
# 
# 
# High freq. dielectric constant tensor:
#      x y z
#    x 1.695260 0.000000 0.000000 
#    y 0.000000 1.695260 0.000000 
#    z 0.000000 0.000000 1.725100 
# 
# From -- ./inp_files/1165.got.cif
#   From: 2010.03.12/outbox.cif.g09.slc.cpg/sg192_1_cif.got.tgz:1165.got - 2010.04.01 12:16:15.
