data_PCOD8329890
_publ_section_title
;
Structure prediction by ZEFSAII (Michael W. Deem and Ramdas Pophale) SiO2 
 PCOD8329890
Probable space group: P 63/M C M
;
_chemical_formula_sum "Si O2"
_cell_formula_units_Z 96
_cell_length_a 28.172138
_cell_length_b 28.172138
_cell_length_c 8.903905
_cell_angle_alpha 90.000000
_cell_angle_beta 90.000000
_cell_angle_gamma 120.000000
_cell_volume 6119.990719
_symmetry_space_group_name_H-M "P 63/M C M"
_symmetry_group_IT_number 193
_symmetry_cell_setting 'hexagonal'
loop_
_space_group_symop_operation_xyz
x,y,z
x-y,x,1/2+z
-y,x-y,z
-x,-y,1/2+z
-x+y,-x,z
y,-x+y,1/2+z
x-y,-y,1/2-z
-x,-x+y,1/2-z
y,x,1/2-z
-y,-x,-z
-x+y,y,-z
x,x-y,-z
-x,-y,-z
-x+y,-x,1/2-z
y,-x+y,-z
x,y,1/2-z
x-y,x,-z
-y,x-y,1/2-z
-x+y,y,1/2+z
x,x-y,1/2+z
-y,-x,1/2+z
y,x,z
x-y,-y,z
-x,-x+y,z
loop_
_atom_site_type_symbol
_atom_site_label
_atom_site_fract_x
_atom_site_fract_y
_atom_site_fract_z
Si Si1 0.400472 0.400472 0.071533
Si Si2 0.822066 0.549745 0.426105
Si Si3 0.891353 0.396380 0.575491
Si Si4 0.785509 0.666507 0.426154
Si Si5 0.700933 0.700933 0.076814
O O1 0.398385 0.398385 0.250000
O O2 0.402069 0.454848 0.008866
O O3 0.346634 0.346634 0.018610
O O4 0.762093 0.524185 0.500000
O O5 0.820076 0.560210 0.250000
O O6 0.842134 0.506642 0.457484
O O7 0.862877 0.607513 0.503047
O O8 0.876089 0.438045 0.500000
O O9 0.899110 0.409764 0.750000
O O10 0.846029 0.692058 0.500000
O O11 0.790955 0.659475 0.250000
O O12 0.759480 0.705378 0.459459
O O13 0.685306 0.685306 0.250000
#
# Coordination Sequence:
#
# PCOD8329890 Si02
#       5
#    12  24  24  24  12
#     4  10  19  33  47  66  96 126 154 189 229 275
#     4  10  19  32  49  69  90 115 147 186 230 278
#     4  10  21  33  48  68  92 121 152 187 232 281
#     4  10  19  31  47  69  94 124 159 193 227 267
#     4  10  20  31  47  70  97 128 161 195 230 267
#
# _framework density 15.686298000000001
#
# number of rings (size 3 to 8) (size 9 to 14) (size 15 to 20)
#    0.000    2.000    2.500    3.375    0.000    4.000 
#    0.000    0.000    0.000    0.500    0.000    0.000 
#    0.000    0.000    0.000    0.375    0.000    4.500 
#
# Total GULP energy -1190234.660412 kJ/mol
# GULP energy per Si atom -12398.277713 kJ/mol
# Density = 1.565060 g / cm^3
# Si number density = 15.686298 Si / 1000 Ang^3
#
#
#
# Elastic Constant Matrix: (Units=GPa)
#
#
# Indices 1 2 3 4 5 6 
#
# 1 109.0869 64.4159 45.2283 0.0000 0.0000 0.0000
# 2 64.4159 109.0869 45.2283 0.0000 0.0000 0.0000
# 3 45.2283 45.2283 73.1032 0.0000 0.0000 0.0000
# 4 0.0000 0.0000 0.0000 22.8797 0.0000 0.0000
# 5 0.0000 0.0000 0.0000 0.0000 22.8797 0.0000
# 6 0.0000 0.0000 0.0000 0.0000 0.0000 22.3355
#
#
#
# Elastic Compliance Matrix: (Units=1/GPa)
#
#
# Indices 1 2 3 4 5 6 
#
# 1 0.015447 -0.006939 -0.005264 0.000000 0.000000 0.000000
# 2 -0.006939 0.015447 -0.005264 0.000000 0.000000 0.000000
# 3 -0.005264 -0.005264 0.020193 0.000000 0.000000 0.000000
# 4 0.000000 0.000000 0.000000 0.043707 0.000000 0.000000
# 5 0.000000 0.000000 0.000000 0.000000 0.043707 0.000000
# 6 0.000000 0.000000 0.000000 0.000000 0.000000 0.044772
#
#
# Mechanical properties :
#
#
# Convention : Reuss Voigt Hill
#
# Bulk Modulus (GPa) = 61.90679 66.78024 64.34351
# Shear Modulus (GPa) = 22.36244 22.71263 22.53753
#
# Velocity S-wave (km/s) = 3.77981 3.80929 3.79458
# Velocity P-wave (km/s) = 7.65510 7.87479 7.76572
#
# Compressibility (1/GPa) = 0.01615332
#
# Stress axis : x y z
#
# Youngs Moduli (GPa) = 64.73796 64.73796 49.52314
#
# Poissons Ratio (x) = 0.44922 0.26068
# Poissons Ratio (y) = 0.44922 0.26068
# Poissons Ratio (z) = 0.34077 0.34077
#
# Static dielectric constant tensor:
#      x y z
#    x 3.047000 0.000000 0.000000 
#    y 0.000000 3.047000 0.000000 
#    z 0.000000 0.000000 3.051700 
# 
# 
# High freq. dielectric constant tensor:
#      x y z
#    x 1.585830 0.000000 0.000000 
#    y 0.000000 1.585830 0.000000 
#    z 0.000000 0.000000 1.612330 
# 
# From -- ./inp_files/1239.got.cif
#   From: 2010.03.12/outbox.cif.g09.slc.cpg/sg193_1_cif.got.tgz:1239.got - 2010.04.01 12:20:39.
