data_PCOD8329885
_publ_section_title
;
Structure prediction by ZEFSAII (Michael W. Deem and Ramdas Pophale) SiO2 
 PCOD8329885
Probable space group: P 63/M C M
;
_chemical_formula_sum "Si O2"
_cell_formula_units_Z 120
_cell_length_a 17.894638
_cell_length_b 17.894638
_cell_length_c 27.495787
_cell_angle_alpha 90.000000
_cell_angle_beta 90.000000
_cell_angle_gamma 120.000000
_cell_volume 7625.048686
_symmetry_space_group_name_H-M "P 63/M C M"
_symmetry_group_IT_number 193
_symmetry_cell_setting 'hexagonal'
loop_
_space_group_symop_operation_xyz
x,y,z
x-y,x,1/2+z
-y,x-y,z
-x,-y,1/2+z
-x+y,-x,z
y,-x+y,1/2+z
x-y,-y,1/2-z
-x,-x+y,1/2-z
y,x,1/2-z
-y,-x,-z
-x+y,y,-z
x,x-y,-z
-x,-y,-z
-x+y,-x,1/2-z
y,-x+y,-z
x,y,1/2-z
x-y,x,-z
-y,x-y,1/2-z
-x+y,y,1/2+z
x,x-y,1/2+z
-y,-x,1/2+z
y,x,z
x-y,-y,z
-x,-x+y,z
loop_
_atom_site_type_symbol
_atom_site_label
_atom_site_fract_x
_atom_site_fract_y
_atom_site_fract_z
Si Si1 0.470130 0.195419 0.192686
Si Si2 0.545116 0.157448 0.806963
Si Si3 0.819652 0.099549 0.850935
Si Si4 0.098456 0.197656 0.445573
Si Si5 0.792625 0.000000 0.307422
Si Si6 0.624913 0.000000 0.191788
O O1 0.448027 0.179735 0.250000
O O2 0.526578 0.154613 0.171927
O O3 0.537534 0.296099 0.182270
O O4 0.379119 0.157804 0.165342
O O5 0.548789 0.144518 0.750000
O O6 0.459183 0.080698 0.830100
O O7 0.838328 0.112131 0.908766
O O8 0.911199 0.125260 0.825481
O O9 0.752871 0.000000 0.837613
O O10 0.118505 0.237010 0.500000
O O11 0.160941 0.160941 0.430512
O O12 0.000000 0.119125 0.443075
O O13 0.708454 0.000000 0.328391
O O14 0.795553 0.000000 0.250000
O O15 0.627317 0.000000 0.250000
#
# Coordination Sequence:
#
# PCOD8329885 Si02
#       6
#    24  24  24  24  12  12
#     4  10  19  31  47  68  97 127 159 202 244 284
#     4   9  17  28  43  62  85 119 159 195 231 270
#     4  11  22  33  47  70  98 128 164 199 240 290
#     4   9  17  31  51  71  90 117 159 212 257 287
#     4  11  20  34  48  62  95 137 171 195 225 282
#     4   9  16  28  44  60  80 119 165 195 220 266
#
# _framework density 15.737603999999999
#
# number of rings (size 3 to 8) (size 9 to 14) (size 15 to 20)
#    0.000    2.200    3.000    1.200    1.400    4.000 
#    0.600    0.000    0.000    0.000    0.000    1.400 
#    0.000    6.400    0.000    0.000    0.000    0.000 
#
# Total GULP energy -1486888.498100 kJ/mol
# GULP energy per Si atom -12390.737484 kJ/mol
# Density = 1.570178 g / cm^3
# Si number density = 15.737604 Si / 1000 Ang^3
#
#
#
# Elastic Constant Matrix: (Units=GPa)
#
#
# Indices 1 2 3 4 5 6 
#
# 1 79.4360 25.9244 29.0548 0.0000 0.0000 0.0000
# 2 25.9244 79.4360 29.0548 0.0000 0.0000 0.0000
# 3 29.0548 29.0548 59.7064 0.0000 0.0000 0.0000
# 4 0.0000 0.0000 0.0000 13.7980 0.0000 0.0000
# 5 0.0000 0.0000 0.0000 0.0000 13.7980 0.0000
# 6 0.0000 0.0000 0.0000 0.0000 0.0000 26.7558
#
#
#
# Elastic Compliance Matrix: (Units=1/GPa)
#
#
# Indices 1 2 3 4 5 6 
#
# 1 0.015830 -0.002857 -0.006313 0.000000 0.000000 0.000000
# 2 -0.002857 0.015830 -0.006313 0.000000 0.000000 0.000000
# 3 -0.006313 -0.006313 0.022893 0.000000 0.000000 0.000000
# 4 0.000000 0.000000 0.000000 0.072474 0.000000 0.000000
# 5 0.000000 0.000000 0.000000 0.000000 0.072474 0.000000
# 6 0.000000 0.000000 0.000000 0.000000 0.000000 0.037375
#
#
# Mechanical properties :
#
#
# Convention : Reuss Voigt Hill
#
# Bulk Modulus (GPa) = 42.39667 42.96072 42.67869
# Shear Modulus (GPa) = 18.13528 19.84000 18.98764
#
# Velocity S-wave (km/s) = 3.39832 3.55445 3.47726
# Velocity P-wave (km/s) = 6.51124 6.64852 6.58024
#
# Compressibility (1/GPa) = 0.02358676
#
# Stress axis : x y z
#
# Youngs Moduli (GPa) = 63.16992 63.16992 43.68167
#
# Poissons Ratio (x) = 0.18049 0.27577
# Poissons Ratio (y) = 0.18049 0.27577
# Poissons Ratio (z) = 0.39880 0.39880
#
# Static dielectric constant tensor:
#      x y z
#    x 3.124300 0.000000 0.000000 
#    y 0.000000 3.124300 0.000000 
#    z 0.000000 0.000000 2.729210 
# 
# 
# High freq. dielectric constant tensor:
#      x y z
#    x 1.608700 0.000000 0.000000 
#    y 0.000000 1.608700 0.000000 
#    z 0.000000 0.000000 1.551910 
# 
# From -- ./inp_files/8284.got.cif
#   From: 2010.03.12/outbox.cif.g09.slc.cpg/sg193_5_cif.got.tgz:8284.got - 2010.04.01 12:20:39.
