data_PCOD8329247
_publ_section_title
;
Structure prediction by ZEFSAII (Michael W. Deem and Ramdas Pophale) SiO2 
 PCOD8329247
Probable space group: P 6/M M M
;
_chemical_formula_sum "Si O2"
_cell_formula_units_Z 96
_cell_length_a 24.880364
_cell_length_b 24.880364
_cell_length_c 11.012976
_cell_angle_alpha 90.000000
_cell_angle_beta 90.000000
_cell_angle_gamma 120.000000
_cell_volume 5904.033106
_symmetry_space_group_name_H-M "P 6/M M M"
_symmetry_group_IT_number 191
_symmetry_cell_setting 'hexagonal'
loop_
_space_group_symop_operation_xyz
x,y,z
x-y,x,z
-y,x-y,z
-x,-y,z
-x+y,-x,z
y,-x+y,z
x-y,-y,-z
-x,-x+y,-z
y,x,-z
-y,-x,-z
-x+y,y,-z
x,x-y,-z
-x,-y,-z
-x+y,-x,-z
y,-x+y,-z
x,y,-z
x-y,x,-z
-y,x-y,-z
-x+y,y,z
x,x-y,z
-y,-x,z
y,x,z
x-y,-y,z
-x,-x+y,z
loop_
_atom_site_type_symbol
_atom_site_label
_atom_site_fract_x
_atom_site_fract_y
_atom_site_fract_z
Si Si1 0.000000 0.339530 0.366847
Si Si2 0.214767 0.214767 0.367896
Si Si3 0.135108 0.864893 0.646071
Si Si4 0.113859 0.450637 0.253206
Si Si5 0.534487 0.068974 0.639714
Si Si6 0.207504 0.792497 0.646808
Si Si7 0.600917 0.527234 0.000000
O O1 0.000000 0.277407 0.390589
O O2 0.059292 0.383761 0.289825
O O3 0.000000 0.368622 0.500000
O O4 0.186108 0.186108 0.500000
O O5 0.232423 0.167806 0.299978
O O6 0.134701 0.865300 0.500000
O O7 0.171170 0.828831 0.686500
O O8 0.109295 0.503468 0.326344
O O9 0.176341 0.451605 0.292129
O O10 0.108395 0.461963 0.111872
O O11 0.527839 0.055677 0.500000
O O12 0.500000 0.000000 0.705604
O O13 0.210695 0.789306 0.500000
O O14 0.576140 0.576140 0.000000
O O15 0.542703 0.457298 0.000000
#
# Coordination Sequence:
#
# PCOD8329247 Si02
#       7
#    12  12  12  24  12  12  12
#     4  11  18  28  50  81 111 139 175 224 281 332
#     4   9  16  26  42  67 103 141 173 208 259 320
#     4   9  16  26  43  68 102 139 172 211 262 318
#     4  12  22  35  54  79 112 146 181 223 272 330
#     4  11  20  31  53  84 109 135 175 229 291 335
#     4  11  22  35  53  82 113 140 177 228 285 338
#     4  11  22  39  56  80 114 150 187 221 265 330
#
# _framework density 16.260071
#
# number of rings (size 3 to 8) (size 9 to 14) (size 15 to 20)
#    0.000    1.250    6.250    2.250    0.000    0.500 
#    0.000    0.000    0.000    0.750    0.000    3.500 
#    0.000    0.000    0.000    0.000    0.000    0.000 
#
# Total GULP energy -1189573.845126 kJ/mol
# GULP energy per Si atom -12391.394220 kJ/mol
# Density = 1.622306 g / cm^3
# Si number density = 16.260071 Si / 1000 Ang^3
#
#
#
# Elastic Constant Matrix: (Units=GPa)
#
#
# Indices 1 2 3 4 5 6 
#
# 1 121.0496 58.6973 35.0083 0.0000 0.0000 0.0000
# 2 58.6973 121.0496 35.0083 0.0000 0.0000 0.0000
# 3 35.0083 35.0083 91.5793 0.0000 0.0000 0.0000
# 4 0.0000 0.0000 0.0000 34.3037 0.0000 0.0000
# 5 0.0000 0.0000 0.0000 0.0000 34.3037 0.0000
# 6 0.0000 0.0000 0.0000 0.0000 0.0000 31.1762
#
#
#
# Elastic Compliance Matrix: (Units=1/GPa)
#
#
# Indices 1 2 3 4 5 6 
#
# 1 0.011287 -0.004751 -0.002499 0.000000 0.000000 0.000000
# 2 -0.004751 0.011287 -0.002499 0.000000 0.000000 0.000000
# 3 -0.002499 -0.002499 0.012830 0.000000 0.000000 0.000000
# 4 0.000000 0.000000 0.000000 0.029151 0.000000 0.000000
# 5 0.000000 0.000000 0.000000 0.000000 0.029151 0.000000
# 6 0.000000 0.000000 0.000000 0.000000 0.000000 0.032076
#
#
# Mechanical properties :
#
#
# Convention : Reuss Voigt Hill
#
# Bulk Modulus (GPa) = 62.86082 65.67848 64.26965
# Shear Modulus (GPa) = 33.20442 33.62100 33.41271
#
# Velocity S-wave (km/s) = 4.52384 4.55213 4.53801
# Velocity P-wave (km/s) = 8.12591 8.25284 8.18962
#
# Compressibility (1/GPa) = 0.01590816
#
# Stress axis : x y z
#
# Youngs Moduli (GPa) = 88.59497 88.59497 77.94248
#
# Poissons Ratio (x) = 0.42088 0.19476
# Poissons Ratio (y) = 0.42088 0.19476
# Poissons Ratio (z) = 0.22138 0.22138
#
# Static dielectric constant tensor:
#      x y z
#    x 3.086680 0.000000 0.000000 
#    y 0.000000 3.086680 0.000000 
#    z 0.000000 0.000000 2.933450 
# 
# 
# High freq. dielectric constant tensor:
#      x y z
#    x 1.619210 0.000000 0.000000 
#    y 0.000000 1.619210 0.000000 
#    z 0.000000 0.000000 1.599400 
# 
# From -- ./inp_files/2898.got.cif
#   From: 2010.03.12/outbox.cif.g09.slc.cpg/sg191_2_cif.got.tgz:2898.got - 2010.04.01 12:09:02.
