data_PCOD8329159
_publ_section_title
;
Structure prediction by ZEFSAII (Michael W. Deem and Ramdas Pophale) SiO2 
 PCOD8329159
Probable space group: P 6/M M M
;
_chemical_formula_sum "Si O2"
_cell_formula_units_Z 138
_cell_length_a 30.504745
_cell_length_b 30.504745
_cell_length_c 9.124437
_cell_angle_alpha 90.000000
_cell_angle_beta 90.000000
_cell_angle_gamma 120.000000
_cell_volume 7353.117510
_symmetry_space_group_name_H-M "P 6/M M M"
_symmetry_group_IT_number 191
_symmetry_cell_setting 'hexagonal'
loop_
_space_group_symop_operation_xyz
x,y,z
x-y,x,z
-y,x-y,z
-x,-y,z
-x+y,-x,z
y,-x+y,z
x-y,-y,-z
-x,-x+y,-z
y,x,-z
-y,-x,-z
-x+y,y,-z
x,x-y,-z
-x,-y,-z
-x+y,-x,-z
y,-x+y,-z
x,y,-z
x-y,x,-z
-y,x-y,-z
-x+y,y,z
x,x-y,z
-y,-x,z
y,x,z
x-y,-y,z
-x,-x+y,z
loop_
_atom_site_type_symbol
_atom_site_label
_atom_site_fract_x
_atom_site_fract_y
_atom_site_fract_z
Si Si1 0.528436 0.671273 0.673096
Si Si2 0.520846 0.941284 0.167665
Si Si3 0.333127 0.768073 0.830290
Si Si4 0.212348 0.942026 0.829540
Si Si5 0.879842 0.939921 0.500000
Si Si6 0.109139 0.218278 0.661535
Si Si7 0.758764 0.138828 0.165950
O O1 0.526787 0.672289 0.500000
O O2 0.537599 0.626363 0.724978
O O3 0.475450 0.661772 0.734005
O O4 0.574043 0.724148 0.728204
O O5 0.464299 0.928598 0.206647
O O6 0.560072 0.000000 0.191973
O O7 0.522701 0.925802 0.000000
O O8 0.379962 0.759924 0.796764
O O9 0.282758 0.717243 0.784603
O O10 0.331629 0.781230 0.000000
O O11 0.161000 0.926024 0.744578
O O12 0.239325 0.910478 0.779893
O O13 0.252025 0.000000 0.794382
O O14 0.198161 0.932187 0.000000
O O15 0.915191 0.915191 0.500000
O O16 0.843105 0.921553 0.643804
O O17 0.121939 0.243878 0.500000
O O18 0.815365 0.184636 0.174950
O O19 0.737613 0.131697 0.000000
#
# Coordination Sequence:
#
# PCOD8329159 Si02
#       7
#    24  24  24  24   6  12  24
#     4  12  25  37  54  84 121 154 190 230 287 354
#     4   9  19  38  63  86 108 142 190 238 282 333
#     4  10  21  39  63  88 113 147 194 247 296 347
#     4  10  20  37  62  89 115 146 192 248 298 346
#     4  10  21  36  56  84 122 166 208 244 284 344
#     4  10  21  34  56  84 122 153 193 236 291 354
#     4  10  21  39  59  80 109 149 196 238 281 337
#
# _framework density 18.767551000000001
#
# number of rings (size 3 to 8) (size 9 to 14) (size 15 to 20)
#    0.261    1.565    0.870    4.130    0.000    8.000 
#    0.000    2.609    0.000    1.043    0.000    0.000 
#    0.000    4.174    0.000    0.000    0.000    0.000 
#
# Total GULP energy -1711594.008539 kJ/mol
# GULP energy per Si atom -12402.855134 kJ/mol
# Density = 1.872484 g / cm^3
# Si number density = 18.767551 Si / 1000 Ang^3
#
#
#
# Elastic Constant Matrix: (Units=GPa)
#
#
# Indices 1 2 3 4 5 6 
#
# 1 82.7980 17.7856 27.5882 0.0000 0.0000 0.0000
# 2 17.7856 82.7980 27.5882 0.0000 0.0000 0.0000
# 3 27.5882 27.5882 70.4906 0.0000 0.0000 0.0000
# 4 0.0000 0.0000 0.0000 18.7017 0.0000 0.0000
# 5 0.0000 0.0000 0.0000 0.0000 18.7017 0.0000
# 6 0.0000 0.0000 0.0000 0.0000 0.0000 32.5062
#
#
#
# Elastic Compliance Matrix: (Units=1/GPa)
#
#
# Indices 1 2 3 4 5 6 
#
# 1 0.014021 -0.001361 -0.004955 0.000000 0.000000 0.000000
# 2 -0.001361 0.014021 -0.004955 0.000000 0.000000 0.000000
# 3 -0.004955 -0.004955 0.018065 0.000000 0.000000 0.000000
# 4 0.000000 0.000000 0.000000 0.053471 0.000000 0.000000
# 5 0.000000 0.000000 0.000000 0.000000 0.053471 0.000000
# 6 0.000000 0.000000 0.000000 0.000000 0.000000 0.030763
#
#
# Mechanical properties :
#
#
# Convention : Reuss Voigt Hill
#
# Bulk Modulus (GPa) = 42.43499 42.44561 42.44030
# Shear Modulus (GPa) = 23.34181 24.85688 24.09935
#
# Velocity S-wave (km/s) = 3.53048 3.64326 3.58732
# Velocity P-wave (km/s) = 6.26730 6.35322 6.31040
#
# Compressibility (1/GPa) = 0.02356546
#
# Stress axis : x y z
#
# Youngs Moduli (GPa) = 71.32235 71.32235 55.35667
#
# Poissons Ratio (x) = 0.09706 0.27428
# Poissons Ratio (y) = 0.09706 0.27428
# Poissons Ratio (z) = 0.35339 0.35339
#
# Static dielectric constant tensor:
#      x y z
#    x 3.519120 0.000000 0.000000 
#    y 0.000000 3.519120 0.000000 
#    z 0.000000 0.000000 3.417440 
# 
# 
# High freq. dielectric constant tensor:
#      x y z
#    x 1.738140 0.000000 0.000000 
#    y 0.000000 1.738140 0.000000 
#    z 0.000000 0.000000 1.713730 
# 
# From -- ./inp_files/2031.got.cif
#   From: 2010.03.12/outbox.cif.g09.slc.cpg/sg191_2_cif.got.tgz:2031.got - 2010.04.01 12:09:02.
