data_PCOD8329337
_publ_section_title
;
Structure prediction by ZEFSAII (Michael W. Deem and Ramdas Pophale) SiO2 
 PCOD8329337
Probable space group: P 6/M M M
;
_chemical_formula_sum "Si O2"
_cell_formula_units_Z 108
_cell_length_a 18.408685
_cell_length_b 18.408685
_cell_length_c 24.888367
_cell_angle_alpha 90.000000
_cell_angle_beta 90.000000
_cell_angle_gamma 120.000000
_cell_volume 7304.198491
_symmetry_space_group_name_H-M "P 6/M M M"
_symmetry_group_IT_number 191
_symmetry_cell_setting 'hexagonal'
loop_
_space_group_symop_operation_xyz
x,y,z
x-y,x,z
-y,x-y,z
-x,-y,z
-x+y,-x,z
y,-x+y,z
x-y,-y,-z
-x,-x+y,-z
y,x,-z
-y,-x,-z
-x+y,y,-z
x,x-y,-z
-x,-y,-z
-x+y,-x,-z
y,-x+y,-z
x,y,-z
x-y,x,-z
-y,x-y,-z
-x+y,y,z
x,x-y,z
-y,-x,z
y,x,z
x-y,-y,z
-x,-x+y,z
loop_
_atom_site_type_symbol
_atom_site_label
_atom_site_fract_x
_atom_site_fract_y
_atom_site_fract_z
Si Si1 0.494540 0.331520 0.874560
Si Si2 0.369746 0.468138 0.352822
Si Si3 0.744185 0.094603 0.438749
Si Si4 0.413830 0.000000 0.060572
Si Si5 0.668268 0.497970 0.244497
O O1 0.496810 0.248405 0.893648
O O2 0.589118 0.410883 0.878134
O O3 0.428936 0.343884 0.910707
O O4 0.458078 0.319128 0.813627
O O5 0.430943 0.569058 0.359645
O O6 0.425647 0.425647 0.353434
O O7 0.304721 0.432953 0.401929
O O8 0.318082 0.443508 0.296220
O O9 0.717669 0.097636 0.500000
O O10 0.844000 0.156001 0.430788
O O11 0.721022 0.000000 0.422974
O O12 0.500000 0.000000 0.061529
O O13 0.383465 0.000000 0.000000
O O14 0.730183 0.460366 0.248457
O O15 0.573545 0.426456 0.248186
#
# Coordination Sequence:
#
# PCOD8329337 Si02
#       5
#    24  24  24  12  24
#     4   9  17  28  43  61  82 109 140 173 206 242
#     4   9  17  26  38  58  81 105 133 164 199 241
#     4   9  17  29  44  60  79 105 137 172 208 247
#     4   9  18  30  42  58  80 106 136 170 206 240
#     4   9  16  25  38  55  76 101 131 165 201 237
#
# _framework density 14.786016
#
# number of rings (size 3 to 8) (size 9 to 14) (size 15 to 20)
#    0.000    3.000    0.000    1.111    1.556    2.667 
#    0.000    2.222    0.000    2.000    0.000    1.556 
#    0.000    0.000    0.000    0.333    0.000    1.444 
#
# Total GULP energy -1338025.988168 kJ/mol
# GULP energy per Si atom -12389.129520 kJ/mol
# Density = 1.475236 g / cm^3
# Si number density = 14.786016 Si / 1000 Ang^3
#
#
#
# Elastic Constant Matrix: (Units=GPa)
#
#
# Indices 1 2 3 4 5 6 
#
# 1 60.4646 29.3170 43.0681 0.0000 0.0000 0.0000
# 2 29.3170 60.4646 43.0681 0.0000 0.0000 0.0000
# 3 43.0681 43.0681 109.8103 0.0000 0.0000 0.0000
# 4 0.0000 0.0000 0.0000 11.1104 0.0000 0.0000
# 5 0.0000 0.0000 0.0000 0.0000 11.1104 0.0000
# 6 0.0000 0.0000 0.0000 0.0000 0.0000 15.5738
#
#
#
# Elastic Compliance Matrix: (Units=1/GPa)
#
#
# Indices 1 2 3 4 5 6 
#
# 1 0.024981 -0.007124 -0.007004 0.000000 0.000000 0.000000
# 2 -0.007124 0.024981 -0.007004 0.000000 0.000000 0.000000
# 3 -0.007004 -0.007004 0.014600 0.000000 0.000000 0.000000
# 4 0.000000 0.000000 0.000000 0.090006 0.000000 0.000000
# 5 0.000000 0.000000 0.000000 0.000000 0.090006 0.000000
# 6 0.000000 0.000000 0.000000 0.000000 0.000000 0.064210
#
#
# Mechanical properties :
#
#
# Convention : Reuss Voigt Hill
#
# Bulk Modulus (GPa) = 44.84230 51.29395 48.06813
# Shear Modulus (GPa) = 13.94772 15.24468 14.59620
#
# Velocity S-wave (km/s) = 3.07466 3.21443 3.14532
# Velocity P-wave (km/s) = 6.55729 6.96728 6.76539
#
# Compressibility (1/GPa) = 0.02230037
#
# Stress axis : x y z
#
# Youngs Moduli (GPa) = 40.02980 40.02980 68.49094
#
# Poissons Ratio (x) = 0.28516 0.47970
# Poissons Ratio (y) = 0.28516 0.47970
# Poissons Ratio (z) = 0.28036 0.28036
#
# Static dielectric constant tensor:
#      x y z
#    x 2.793040 0.000000 0.000000 
#    y 0.000000 2.793040 0.000000 
#    z 0.000000 0.000000 3.198730 
# 
# 
# High freq. dielectric constant tensor:
#      x y z
#    x 1.536890 0.000000 0.000000 
#    y 0.000000 1.536890 0.000000 
#    z 0.000000 0.000000 1.581050 
# 
# From -- ./inp_files/9467.got.cif
#   From: 2010.03.12/outbox.cif.g09.slc.cpg/sg191_5_cif.got.tgz:9467.got - 2010.04.01 12:09:02.
