data_PCOD8329172
_publ_section_title
;
Structure prediction by ZEFSAII (Michael W. Deem and Ramdas Pophale) SiO2 
 PCOD8329172
Probable space group: P 6/M M M
;
_chemical_formula_sum "Si O2"
_cell_formula_units_Z 132
_cell_length_a 17.991057
_cell_length_b 17.991057
_cell_length_c 30.214280
_cell_angle_alpha 90.000000
_cell_angle_beta 90.000000
_cell_angle_gamma 120.000000
_cell_volume 8469.470122
_symmetry_space_group_name_H-M "P 6/M M M"
_symmetry_group_IT_number 191
_symmetry_cell_setting 'hexagonal'
loop_
_space_group_symop_operation_xyz
x,y,z
x-y,x,z
-y,x-y,z
-x,-y,z
-x+y,-x,z
y,-x+y,z
x-y,-y,-z
-x,-x+y,-z
y,x,-z
-y,-x,-z
-x+y,y,-z
x,x-y,-z
-x,-y,-z
-x+y,-x,-z
y,-x+y,-z
x,y,-z
x-y,x,-z
-y,x-y,-z
-x+y,y,z
x,x-y,z
-y,-x,z
y,x,z
x-y,-y,z
-x,-x+y,z
loop_
_atom_site_type_symbol
_atom_site_label
_atom_site_fract_x
_atom_site_fract_y
_atom_site_fract_z
Si Si1 0.493448 0.159335 0.142503
Si Si2 0.163964 0.666729 0.293657
Si Si3 0.497310 0.334827 0.953252
Si Si4 0.505390 0.838403 0.604828
Si Si5 0.265696 0.361404 0.780618
Si Si6 0.000000 0.411594 0.549917
O O1 0.578118 0.156235 0.156434
O O2 0.516871 0.258436 0.141990
O O3 0.458083 0.114952 0.093707
O O4 0.419407 0.105219 0.177232
O O5 0.149269 0.574635 0.278983
O O6 0.264477 0.735524 0.287592
O O7 0.135486 0.665361 0.344128
O O8 0.106676 0.691295 0.263538
O O9 0.480870 0.240435 0.956757
O O10 0.598818 0.401183 0.950548
O O11 0.460480 0.352152 0.000000
O O12 0.409498 0.818996 0.595246
O O13 0.509466 0.754733 0.591545
O O14 0.575419 0.915634 0.575022
O O15 0.164163 0.328325 0.782153
O O16 0.279260 0.279260 0.780746
O O17 0.000000 0.500000 0.550755
O O18 0.000000 0.380541 0.500000
#
# Coordination Sequence:
#
# PCOD8329172 Si02
#       6
#    24  24  24  24  24  12
#     4   9  16  25  38  59  88 121 153 182 210 242
#     4   9  17  28  44  66  92 121 151 179 205 238
#     4   8  12  18  30  49  75 109 149 187 215 237
#     4   9  17  29  45  64  87 118 154 189 221 257
#     4  10  21  34  47  64  85 110 139 173 216 263
#     4   9  18  30  42  60  86 114 147 189 232 264
#
# _framework density 15.585391
#
# number of rings (size 3 to 8) (size 9 to 14) (size 15 to 20)
#    0.000    3.000    0.000    1.273    1.273    5.455 
#    0.000    1.818    0.000    1.818    0.000    2.545 
#    0.000    0.000    0.000    0.273    0.000    1.182 
#
# Total GULP energy -1635368.951200 kJ/mol
# GULP energy per Si atom -12389.158721 kJ/mol
# Density = 1.554992 g / cm^3
# Si number density = 15.585391 Si / 1000 Ang^3
#
#
#
# Elastic Constant Matrix: (Units=GPa)
#
#
# Indices 1 2 3 4 5 6 
#
# 1 69.8981 44.8305 42.9359 0.0000 0.0000 0.0000
# 2 44.8305 69.8981 42.9359 0.0000 0.0000 0.0000
# 3 42.9359 42.9359 110.4608 0.0000 0.0000 0.0000
# 4 0.0000 0.0000 0.0000 12.0968 0.0000 0.0000
# 5 0.0000 0.0000 0.0000 0.0000 12.0968 0.0000
# 6 0.0000 0.0000 0.0000 0.0000 0.0000 12.5338
#
#
#
# Elastic Compliance Matrix: (Units=1/GPa)
#
#
# Indices 1 2 3 4 5 6 
#
# 1 0.026092 -0.013800 -0.004778 0.000000 0.000000 0.000000
# 2 -0.013800 0.026092 -0.004778 0.000000 0.000000 0.000000
# 3 -0.004778 -0.004778 0.012767 0.000000 0.000000 0.000000
# 4 0.000000 0.000000 0.000000 0.082667 0.000000 0.000000
# 5 0.000000 0.000000 0.000000 0.000000 0.082667 0.000000
# 6 0.000000 0.000000 0.000000 0.000000 0.000000 0.079784
#
#
# Mechanical properties :
#
#
# Convention : Reuss Voigt Hill
#
# Bulk Modulus (GPa) = 54.82410 56.85131 55.83771
# Shear Modulus (GPa) = 13.77936 15.31578 14.54757
#
# Velocity S-wave (km/s) = 2.97664 3.13821 3.05849
# Velocity P-wave (km/s) = 6.86053 7.04894 6.95537
#
# Compressibility (1/GPa) = 0.01824015
#
# Stress axis : x y z
#
# Youngs Moduli (GPa) = 38.32550 38.32550 78.32421
#
# Poissons Ratio (x) = 0.52888 0.37424
# Poissons Ratio (y) = 0.52888 0.37424
# Poissons Ratio (z) = 0.18312 0.18312
#
# Static dielectric constant tensor:
#      x y z
#    x 2.651820 0.000000 0.000000 
#    y 0.000000 2.651820 0.000000 
#    z 0.000000 0.000000 3.467090 
# 
# 
# High freq. dielectric constant tensor:
#      x y z
#    x 1.558010 0.000000 0.000000 
#    y 0.000000 1.558010 0.000000 
#    z 0.000000 0.000000 1.623180 
# 
# From -- ./inp_files/10489.got.cif
#   From: 2010.03.12/outbox.cif.g09.slc.cpg/sg191_6_cif.got.tgz:10489.got - 2010.04.01 12:09:02.
