data_PCOD8329772
_publ_section_title
;
Structure prediction by ZEFSAII (Michael W. Deem and Ramdas Pophale) SiO2 
 PCOD8329772
Probable space group: P 63/M C M
;
_chemical_formula_sum "Si O2"
_cell_formula_units_Z 168
_cell_length_a 30.011010
_cell_length_b 30.011010
_cell_length_c 15.491519
_cell_angle_alpha 90.000000
_cell_angle_beta 90.000000
_cell_angle_gamma 120.000000
_cell_volume 12083.308366
_symmetry_space_group_name_H-M "P 63/M C M"
_symmetry_group_IT_number 193
_symmetry_cell_setting 'hexagonal'
loop_
_space_group_symop_operation_xyz
x,y,z
x-y,x,1/2+z
-y,x-y,z
-x,-y,1/2+z
-x+y,-x,z
y,-x+y,1/2+z
x-y,-y,1/2-z
-x,-x+y,1/2-z
y,x,1/2-z
-y,-x,-z
-x+y,y,-z
x,x-y,-z
-x,-y,-z
-x+y,-x,1/2-z
y,-x+y,-z
x,y,1/2-z
x-y,x,-z
-y,x-y,1/2-z
-x+y,y,1/2+z
x,x-y,1/2+z
-y,-x,1/2+z
y,x,z
x-y,-y,z
-x,-x+y,z
loop_
_atom_site_type_symbol
_atom_site_label
_atom_site_fract_x
_atom_site_fract_y
_atom_site_fract_z
Si Si1 0.060853 0.624933 0.654994
Si Si2 0.060853 0.624930 0.345006
Si Si3 0.157728 0.942428 0.152001
Si Si4 0.057572 0.215299 0.652001
Si Si5 0.905109 0.197556 0.500001
Si Si6 0.374839 0.313485 0.499998
Si Si7 0.469459 0.530544 0.098141
O O1 0.076849 0.650205 0.750000
O O2 0.081211 0.669565 0.583756
O O3 0.083692 0.586558 0.642025
O O4 0.000000 0.591427 0.644596
O O5 0.076848 0.650202 0.250000
O O6 0.081212 0.669563 0.416244
O O7 0.083691 0.586555 0.357973
O O8 0.000000 0.591424 0.355407
O O9 0.172510 0.935685 0.250000
O O10 0.097523 0.902478 0.133403
O O11 0.193069 0.932660 0.086114
O O12 0.167621 0.000000 0.138156
O O13 0.064314 0.236822 0.750000
O O14 0.067340 0.260407 0.586114
O O15 0.000000 0.167619 0.638156
O O16 0.845272 0.154729 0.500000
O O17 0.909294 0.252357 0.500004
O O18 0.336732 0.336732 0.499997
O O19 0.500002 0.500002 0.106380
O O20 0.460457 0.539544 0.000000
#
# Coordination Sequence:
#
# PCOD8329772 Si02
#       7
#    24  24  24  24  24  24  24
#     4   9  16  24  35  52  74 100 126 152 185 220
#     4   9  16  24  35  52  74 100 126 152 185 220
#     4   9  17  29  45  63  80  98 121 150 189 240
#     4   9  17  29  45  63  80  98 121 150 189 240
#     4  10  20  32  44  57  74  99 130 165 203 238
#     4  10  18  27  38  54  74  93 121 163 202 231
#     4   9  13  21  35  50  73 103 128 151 177 210
#
# _framework density 13.903477000000001
#
# number of rings (size 3 to 8) (size 9 to 14) (size 15 to 20)
#    0.000    2.714    1.429    1.714    0.000    2.857 
#    0.000    2.857    0.000    0.286    0.000    2.000 
#    0.000    3.429    0.000    0.286    0.000    0.000 
#
# Total GULP energy -2082191.957535 kJ/mol
# GULP energy per Si atom -12393.999747 kJ/mol
# Density = 1.387183 g / cm^3
# Si number density = 13.903477 Si / 1000 Ang^3
#
#
#
# Elastic Constant Matrix: (Units=GPa)
#
#
# Indices 1 2 3 4 5 6 
#
# 1 75.6265 35.6461 44.8208 0.0000 0.0000 0.0000
# 2 35.6461 75.6265 44.8208 0.0000 0.0000 0.0000
# 3 44.8208 44.8208 112.8637 0.0000 0.0000 0.0000
# 4 0.0000 0.0000 0.0000 10.8404 0.0000 0.0000
# 5 0.0000 0.0000 0.0000 0.0000 10.8404 0.0000
# 6 0.0000 0.0000 0.0000 0.0000 0.0000 19.9902
#
#
#
# Elastic Compliance Matrix: (Units=1/GPa)
#
#
# Indices 1 2 3 4 5 6 
#
# 1 0.019113 -0.005899 -0.005248 0.000000 0.000000 0.000000
# 2 -0.005899 0.019113 -0.005248 0.000000 0.000000 0.000000
# 3 -0.005248 -0.005248 0.013028 0.000000 0.000000 0.000000
# 4 0.000000 0.000000 0.000000 0.092247 0.000000 0.000000
# 5 0.000000 0.000000 0.000000 0.000000 0.092247 0.000000
# 6 0.000000 0.000000 0.000000 0.000000 0.000000 0.050025
#
#
# Mechanical properties :
#
#
# Convention : Reuss Voigt Hill
#
# Bulk Modulus (GPa) = 54.15295 57.18802 55.67049
# Shear Modulus (GPa) = 15.39794 17.58946 16.49370
#
# Velocity S-wave (km/s) = 3.33151 3.56070 3.44801
# Velocity P-wave (km/s) = 7.33705 7.62406 7.48193
#
# Compressibility (1/GPa) = 0.01846621
#
# Stress axis : x y z
#
# Youngs Moduli (GPa) = 52.31919 52.31919 76.75581
#
# Poissons Ratio (x) = 0.30862 0.40280
# Poissons Ratio (y) = 0.30862 0.40280
# Poissons Ratio (z) = 0.27456 0.27456
#
# Static dielectric constant tensor:
#      x y z
#    x 2.505670 0.000000 0.000000 
#    y 0.000000 2.505670 0.000000 
#    z 0.000000 0.000000 3.042180 
# 
# 
# High freq. dielectric constant tensor:
#      x y z
#    x 1.490880 0.000000 0.000000 
#    y 0.000000 1.490880 0.000000 
#    z 0.000000 0.000000 1.556070 
# 
# From -- ./inp_files/4430.got.cif
#   From: 2010.03.12/outbox.cif.g09.slc.cpg/sg193_3_cif.got.tgz:4430.got - 2010.04.01 12:20:39.
