data_PCOD8329699
_publ_section_title
;
Structure prediction by ZEFSAII (Michael W. Deem and Ramdas Pophale) SiO2 
 PCOD8329699
Probable space group: P 6/M C C
;
_chemical_formula_sum "Si O2"
_cell_formula_units_Z 104
_cell_length_a 19.809905
_cell_length_b 19.809905
_cell_length_c 14.352120
_cell_angle_alpha 90.000000
_cell_angle_beta 90.000000
_cell_angle_gamma 120.000000
_cell_volume 4877.659439
_symmetry_space_group_name_H-M "P 6/M C C"
_symmetry_group_IT_number 192
_symmetry_cell_setting 'hexagonal'
loop_
_space_group_symop_operation_xyz
x,y,z
x-y,x,z
-y,x-y,z
-x,-y,z
-x+y,-x,z
y,-x+y,z
x-y,-y,1/2-z
-x,-x+y,1/2-z
y,x,1/2-z
-y,-x,1/2-z
-x+y,y,1/2-z
x,x-y,1/2-z
-x,-y,-z
-x+y,-x,-z
y,-x+y,-z
x,y,-z
x-y,x,-z
-y,x-y,-z
-x+y,y,1/2+z
x,x-y,1/2+z
-y,-x,1/2+z
y,x,1/2+z
x-y,-y,1/2+z
-x,-x+y,1/2+z
loop_
_atom_site_type_symbol
_atom_site_label
_atom_site_fract_x
_atom_site_fract_y
_atom_site_fract_z
Si Si1 0.294246 0.248676 0.848117
Si Si2 0.394720 0.197360 0.750000
Si Si3 0.666668 0.333334 0.888567
Si Si4 0.018963 0.849635 0.500000
Si Si5 0.103917 0.566741 0.000000
Si Si6 0.633857 0.034245 0.000000
Si Si7 0.811353 0.346726 0.819194
O O1 0.272412 0.272412 0.750000
O O2 0.339390 0.200713 0.830257
O O3 0.217050 0.193661 0.907016
O O4 0.351032 0.325363 0.907568
O O5 0.448150 0.163098 0.787335
O O6 0.718717 0.299272 0.844150
O O7 0.666667 0.333334 0.000000
O O8 0.938149 0.849379 0.500000
O O9 0.110746 0.487171 0.000000
O O10 0.147595 0.616763 0.913104
O O11 0.022440 0.564376 0.000000
O O12 0.837702 0.418851 0.750000
#
# Coordination Sequence:
#
# PCOD8329699 Si02
#       7
#    24  12   8  12  12  12  24
#     4  11  24  45  70 100 139 175 229 275 336 413
#     4  12  24  38  68  94 125 186 221 274 354 408
#     4  12  22  38  58  88 128 169 211 293 346 382
#     4  11  25  47  77 108 143 173 213 271 342 420
#     4  11  24  39  61  86 125 175 231 279 338 399
#     4  10  24  42  60  91 129 178 225 280 327 394
#     4  12  23  39  60  90 127 165 224 286 346 395
#
# _framework density 21.321701999999998
#
# number of rings (size 3 to 8) (size 9 to 14) (size 15 to 20)
#    0.000    0.692    3.462    4.269    0.000    3.692 
#    0.000    2.308    0.000    1.385    0.000    0.000 
#    0.000    0.000    0.000    0.000    0.000    0.000 
#
# Total GULP energy -1288968.442387 kJ/mol
# GULP energy per Si atom -12393.927331 kJ/mol
# Density = 2.127317 g / cm^3
# Si number density = 21.321702 Si / 1000 Ang^3
#
#
#
# Elastic Constant Matrix: (Units=GPa)
#
#
# Indices 1 2 3 4 5 6 
#
# 1 -43.4115 219.0255 57.3153 0.0062 0.0083 -0.2838
# 2 219.0255 -43.4161 57.2995 -0.0067 -0.0086 0.2907
# 3 57.3153 57.2995 164.9405 0.0001 0.0002 -0.0085
# 4 0.0062 -0.0067 0.0001 40.8482 0.0000 0.0085
# 5 0.0083 -0.0086 0.0002 0.0000 40.8477 -0.0064
# 6 -0.2838 0.2907 -0.0085 0.0085 -0.0064 -130.6459
#
#
#
# Elastic Compliance Matrix: (Units=1/GPa)
#
#
# Indices 1 2 3 4 5 6 
#
# 1 0.001777 0.005587 -0.002558 0.000001 0.000001 0.000009
# 2 0.005587 0.001777 -0.002559 -0.000001 -0.000001 -0.000008
# 3 -0.002558 -0.002559 0.007841 0.000000 0.000000 -0.000001
# 4 0.000001 -0.000001 0.000000 0.024481 0.000000 0.000002
# 5 0.000001 -0.000001 0.000000 0.000000 0.024481 -0.000001
# 6 0.000009 -0.000008 -0.000001 0.000002 -0.000001 -0.007654
#
#
# Mechanical properties :
#
#
# Convention : Reuss Voigt Hill
#
# Bulk Modulus (GPa) = 81.07202 82.82151 81.94676
# Shear Modulus (GPa) = 89.48702 -26.82516 31.33093
#
# Velocity S-wave (km/s) = 6.48545 -3.55084 3.83748
# Velocity P-wave (km/s) = 9.70501 4.70285 7.62574
#
# Compressibility (1/GPa) = 0.01233471
#
# Stress axis : x y z
#
# Youngs Moduli (GPa) = 562.78877 562.73151 127.53820
#
# Poissons Ratio (x) = -3.14419 0.32630
# Poissons Ratio (y) = -3.14451 0.32636
# Poissons Ratio (z) = 1.43988 1.43997
#
# Static dielectric constant tensor:
#      x y z
#    x 4.227740 0.000000 0.000020 
#    y 0.000000 4.227650 0.000000 
#    z 0.000020 0.000000 3.867500 
# 
# 
# High freq. dielectric constant tensor:
#      x y z
#    x 1.839850 0.000000 0.000000 
#    y 0.000000 1.839850 0.000000 
#    z 0.000000 0.000000 1.852870 
# 
# From -- ./inp_files/2973.got.cif
#   From: 2010.03.12/outbox.cif.g09.slc.cpg/sg192_2_cif.got.tgz:2973.got - 2010.04.01 12:16:15.
