data_PCOD8329653
_publ_section_title
;
Structure prediction by ZEFSAII (Michael W. Deem and Ramdas Pophale) SiO2 
 PCOD8329653
Probable space group: P 6/M C C
;
_chemical_formula_sum "Si O2"
_cell_formula_units_Z 102
_cell_length_a 24.642838
_cell_length_b 24.642838
_cell_length_c 9.293398
_cell_angle_alpha 90.000000
_cell_angle_beta 90.000000
_cell_angle_gamma 120.000000
_cell_volume 4887.498222
_symmetry_space_group_name_H-M "P 6/M C C"
_symmetry_group_IT_number 192
_symmetry_cell_setting 'hexagonal'
loop_
_space_group_symop_operation_xyz
x,y,z
x-y,x,z
-y,x-y,z
-x,-y,z
-x+y,-x,z
y,-x+y,z
x-y,-y,1/2-z
-x,-x+y,1/2-z
y,x,1/2-z
-y,-x,1/2-z
-x+y,y,1/2-z
x,x-y,1/2-z
-x,-y,-z
-x+y,-x,-z
y,-x+y,-z
x,y,-z
x-y,x,-z
-y,x-y,-z
-x+y,y,1/2+z
x,x-y,1/2+z
-y,-x,1/2+z
y,x,1/2+z
x-y,-y,1/2+z
-x,-x+y,1/2+z
loop_
_atom_site_type_symbol
_atom_site_label
_atom_site_fract_x
_atom_site_fract_y
_atom_site_fract_z
Si Si1 0.861649 0.615160 0.335457
Si Si2 0.669490 0.235583 0.163071
Si Si3 0.500000 0.000000 0.250000
Si Si4 0.237384 0.064677 0.166820
Si Si5 0.463089 0.365119 0.156346
O O1 0.797007 0.594014 0.250000
O O2 0.843250 0.593541 0.500000
O O3 0.907157 0.688745 0.323053
O O4 0.901884 0.584457 0.274745
O O5 0.735561 0.264440 0.250000
O O6 0.630292 0.260584 0.250000
O O7 0.632914 0.161291 0.170700
O O8 0.681171 0.260315 0.000000
O O9 0.437156 0.957032 0.160413
O O10 0.216674 0.108337 0.250000
O O11 0.204994 0.000000 0.250000
O O12 0.215831 0.056523 0.000000
O O13 0.432398 0.338551 0.000000
#
# Coordination Sequence:
#
# PCOD8329653 Si02
#       5
#    24  24   6  24  24
#     4  10  22  40  65  96 129 166 212 266 324 384
#     4  11  23  41  63  90 118 152 194 247 308 371
#     4  12  26  48  64  94 126 172 220 266 312 392
#     4  10  21  38  61  93 130 171 215 264 317 376
#     4  11  25  43  65  90 122 164 209 258 315 380
#
# _framework density 20.869574
#
# number of rings (size 3 to 8) (size 9 to 14) (size 15 to 20)
#    0.000    1.412    1.176    3.412    1.647    8.471 
#    0.000    0.000    0.000    0.235    0.000    1.647 
#    0.000    0.000    0.000    0.000    0.000    0.000 
#
# Total GULP energy -1264432.645369 kJ/mol
# GULP energy per Si atom -12396.398484 kJ/mol
# Density = 2.082207 g / cm^3
# Si number density = 20.869574 Si / 1000 Ang^3
#
#
#
# Elastic Constant Matrix: (Units=GPa)
#
#
# Indices 1 2 3 4 5 6 
#
# 1 105.3675 35.0449 69.1416 0.0000 0.0000 0.0000
# 2 35.0449 105.3675 69.1416 0.0000 0.0000 0.0000
# 3 69.1416 69.1416 205.8029 0.0000 0.0000 0.0000
# 4 0.0000 0.0000 0.0000 31.4699 0.0000 0.0000
# 5 0.0000 0.0000 0.0000 0.0000 31.4699 0.0000
# 6 0.0000 0.0000 0.0000 0.0000 0.0000 35.1613
#
#
#
# Elastic Compliance Matrix: (Units=1/GPa)
#
#
# Indices 1 2 3 4 5 6 
#
# 1 0.012432 -0.001788 -0.003576 0.000000 0.000000 0.000000
# 2 -0.001788 0.012432 -0.003576 0.000000 0.000000 0.000000
# 3 -0.003576 -0.003576 0.007262 0.000000 0.000000 0.000000
# 4 0.000000 0.000000 0.000000 0.031776 0.000000 0.000000
# 5 0.000000 0.000000 0.000000 0.000000 0.031776 0.000000
# 6 0.000000 0.000000 0.000000 0.000000 0.000000 0.028440
#
#
# Mechanical properties :
#
#
# Convention : Reuss Voigt Hill
#
# Bulk Modulus (GPa) = 70.19795 84.79932 77.49864
# Shear Modulus (GPa) = 34.07232 35.83421 34.95327
#
# Velocity S-wave (km/s) = 4.04497 4.14823 4.09692
# Velocity P-wave (km/s) = 7.45152 7.97903 7.71979
#
# Compressibility (1/GPa) = 0.01424543
#
# Stress axis : x y z
#
# Youngs Moduli (GPa) = 80.43885 80.43885 137.70978
#
# Poissons Ratio (x) = 0.14386 0.49242
# Poissons Ratio (y) = 0.14386 0.49242
# Poissons Ratio (z) = 0.28763 0.28763
#
# Static dielectric constant tensor:
#      x y z
#    x 3.734580 0.000000 0.000000 
#    y 0.000000 3.734580 0.000000 
#    z 0.000000 0.000000 4.048710 
# 
# 
# High freq. dielectric constant tensor:
#      x y z
#    x 1.813800 0.000000 0.000000 
#    y 0.000000 1.813800 0.000000 
#    z 0.000000 0.000000 1.832500 
# 
# From -- ./inp_files/891.got.cif
#   From: 2010.03.12/outbox.cif.g09.slc.cpg/sg192_1_cif.got.tgz:891.got - 2010.04.01 12:16:15.
