data_PCOD8329797
_publ_section_title
;
Structure prediction by ZEFSAII (Michael W. Deem and Ramdas Pophale) SiO2 
 PCOD8329797
Probable space group: P 63/M C M
;
_chemical_formula_sum "Si O2"
_cell_formula_units_Z 192
_cell_length_a 25.290174
_cell_length_b 25.290174
_cell_length_c 18.565479
_cell_angle_alpha 90.000000
_cell_angle_beta 90.000000
_cell_angle_gamma 120.000000
_cell_volume 10283.487516
_symmetry_space_group_name_H-M "P 63/M C M"
_symmetry_group_IT_number 193
_symmetry_cell_setting 'hexagonal'
loop_
_space_group_symop_operation_xyz
x,y,z
x-y,x,1/2+z
-y,x-y,z
-x,-y,1/2+z
-x+y,-x,z
y,-x+y,1/2+z
x-y,-y,1/2-z
-x,-x+y,1/2-z
y,x,1/2-z
-y,-x,-z
-x+y,y,-z
x,x-y,-z
-x,-y,-z
-x+y,-x,1/2-z
y,-x+y,-z
x,y,1/2-z
x-y,x,-z
-y,x-y,1/2-z
-x+y,y,1/2+z
x,x-y,1/2+z
-y,-x,1/2+z
y,x,z
x-y,-y,z
-x,-x+y,z
loop_
_atom_site_type_symbol
_atom_site_label
_atom_site_fract_x
_atom_site_fract_y
_atom_site_fract_z
Si Si1 0.378886 0.273665 0.666600
Si Si2 0.068357 0.811196 0.423077
Si Si3 0.436494 0.605159 0.072905
Si Si4 0.636562 0.569207 0.044177
Si Si5 0.695285 0.624028 0.599231
Si Si6 0.223826 0.502562 0.332543
Si Si7 0.656527 0.499695 0.832361
Si Si8 0.254192 0.184833 0.908759
O O1 0.374415 0.288072 0.750000
O O2 0.398631 0.334047 0.620135
O O3 0.431155 0.255607 0.653849
O O4 0.313469 0.220646 0.640623
O O5 0.087664 0.765143 0.387020
O O6 0.112872 0.881194 0.398109
O O7 0.070230 0.799712 0.508003
O O8 0.000000 0.794086 0.400044
O O9 0.497441 0.607195 0.046594
O O10 0.451376 0.665100 0.117769
O O11 0.401591 0.544526 0.120503
O O12 0.398994 0.601007 0.000000
O O13 0.581975 0.581975 0.026492
O O14 0.687883 0.597710 0.981796
O O15 0.650469 0.650469 0.612758
O O16 0.678207 0.570384 0.655821
O O17 0.220457 0.519910 0.250000
O O18 0.289524 0.513322 0.353389
O O19 0.637556 0.483833 0.750000
O O20 0.202352 0.202352 0.886299
#
# Coordination Sequence:
#
# PCOD8329797 Si02
#       8
#    24  24  24  24  24  24  24  24
#     4  10  19  33  54  82 113 140 173 222 277 330
#     4   9  18  32  51  76 108 148 188 227 275 328
#     4  11  22  38  57  84 106 139 182 233 271 319
#     4  10  20  35  54  79 113 146 175 211 267 328
#     4  10  19  35  58  83 112 145 182 225 273 330
#     4   9  21  40  58  78 109 144 177 223 285 339
#     4  11  23  40  60  81 108 143 183 226 279 335
#     4  10  18  29  49  80 111 141 183 231 275 323
#
# _framework density 18.670708000000001
#
# number of rings (size 3 to 8) (size 9 to 14) (size 15 to 20)
#    0.000    2.000    2.500    1.500    0.000    3.000 
#    0.750    0.000    0.000    1.375    0.000    1.750 
#    0.000    0.000    0.000    0.000    0.000    0.125 
#
# Total GULP energy -2380421.888147 kJ/mol
# GULP energy per Si atom -12398.030667 kJ/mol
# Density = 1.862821 g / cm^3
# Si number density = 18.670708 Si / 1000 Ang^3
#
#
#
# Elastic Constant Matrix: (Units=GPa)
#
#
# Indices 1 2 3 4 5 6 
#
# 1 100.1837 60.1021 34.3921 0.0000 0.0000 0.0000
# 2 60.1021 100.1837 34.3921 0.0000 0.0000 0.0000
# 3 34.3921 34.3921 71.5658 0.0000 0.0000 0.0000
# 4 0.0000 0.0000 0.0000 22.1856 0.0000 0.0000
# 5 0.0000 0.0000 0.0000 0.0000 22.1856 0.0000
# 6 0.0000 0.0000 0.0000 0.0000 0.0000 20.0408
#
#
#
# Elastic Compliance Matrix: (Units=1/GPa)
#
#
# Indices 1 2 3 4 5 6 
#
# 1 0.016404 -0.008545 -0.003777 0.000000 0.000000 0.000000
# 2 -0.008545 0.016404 -0.003777 0.000000 0.000000 0.000000
# 3 -0.003777 -0.003777 0.017603 0.000000 0.000000 0.000000
# 4 0.000000 0.000000 0.000000 0.045074 0.000000 0.000000
# 5 0.000000 0.000000 0.000000 0.000000 0.045074 0.000000
# 6 0.000000 0.000000 0.000000 0.000000 0.000000 0.049898
#
#
# Mechanical properties :
#
#
# Convention : Reuss Voigt Hill
#
# Bulk Modulus (GPa) = 54.90143 58.85619 56.87881
# Shear Modulus (GPa) = 21.85999 22.41887 22.13943
#
# Velocity S-wave (km/s) = 3.42543 3.46894 3.44726
# Velocity P-wave (km/s) = 6.71668 6.90192 6.80993
#
# Compressibility (1/GPa) = 0.01821446
#
# Stress axis : x y z
#
# Youngs Moduli (GPa) = 60.95914 60.95914 56.80698
#
# Poissons Ratio (x) = 0.52088 0.21457
# Poissons Ratio (y) = 0.52088 0.21457
# Poissons Ratio (z) = 0.23025 0.23025
#
# Static dielectric constant tensor:
#      x y z
#    x 3.392900 0.000000 0.000000 
#    y 0.000000 3.392900 0.000000 
#    z 0.000000 0.000000 3.382240 
# 
# 
# High freq. dielectric constant tensor:
#      x y z
#    x 1.715880 0.000000 0.000000 
#    y 0.000000 1.715880 0.000000 
#    z 0.000000 0.000000 1.719930 
# 
# From -- ./inp_files/6891.got.cif
#   From: 2010.03.12/outbox.cif.g09.slc.cpg/sg193_4_cif.got.tgz:6891.got - 2010.04.01 12:20:39.
