data_PCOD8329048
_publ_section_title
;
Structure prediction by ZEFSAII (Michael W. Deem and Ramdas Pophale) SiO2 
 PCOD8329048
Probable space group: P 6/M M M
;
_chemical_formula_sum "Si O2"
_cell_formula_units_Z 120
_cell_length_a 26.787480
_cell_length_b 26.787480
_cell_length_c 12.632144
_cell_angle_alpha 90.000000
_cell_angle_beta 90.000000
_cell_angle_gamma 120.000000
_cell_volume 7850.031854
_symmetry_space_group_name_H-M "P 6/M M M"
_symmetry_group_IT_number 191
_symmetry_cell_setting 'hexagonal'
loop_
_space_group_symop_operation_xyz
x,y,z
x-y,x,z
-y,x-y,z
-x,-y,z
-x+y,-x,z
y,-x+y,z
x-y,-y,-z
-x,-x+y,-z
y,x,-z
-y,-x,-z
-x+y,y,-z
x,x-y,-z
-x,-y,-z
-x+y,-x,-z
y,-x+y,-z
x,y,-z
x-y,x,-z
-y,x-y,-z
-x+y,y,z
x,x-y,z
-y,-x,z
y,x,z
x-y,-y,z
-x,-x+y,z
loop_
_atom_site_type_symbol
_atom_site_label
_atom_site_fract_x
_atom_site_fract_y
_atom_site_fract_z
Si Si1 0.660211 0.518634 0.307004
Si Si2 0.932193 0.466097 0.621954
Si Si3 0.367683 0.241719 0.621652
Si Si4 0.551160 0.217451 0.878256
Si Si5 0.550226 0.331952 0.500000
Si Si6 0.935923 0.174420 0.373758
O O1 0.594863 0.503821 0.321089
O O2 0.702172 0.587481 0.312985
O O3 0.668332 0.499565 0.191247
O O4 0.677919 0.487696 0.396056
O O5 0.911677 0.455839 0.500000
O O6 0.000000 0.500000 0.632351
O O7 0.371411 0.260224 0.500000
O O8 0.384178 0.192089 0.634222
O O9 0.303193 0.219081 0.665963
O O10 0.611123 0.222246 0.845347
O O11 0.557785 0.278893 0.854776
O O12 0.535535 0.199247 0.000000
O O13 0.604638 0.395363 0.500000
O O14 0.571550 0.285775 0.500000
O O15 0.935331 0.174538 0.500000
O O16 0.890360 0.109641 0.333170
O O17 0.000000 0.194299 0.330000
#
# Coordination Sequence:
#
# PCOD8329048 Si02
#       6
#    24  12  24  24  12  24
#     4  12  19  33  47  65  90 118 152 190 236 284
#     4  11  22  36  49  65  91 121 154 189 237 297
#     4   9  16  25  40  61  83 110 140 180 228 279
#     4  10  20  33  50  69  92 121 155 193 234 283
#     4  12  21  30  44  66  92 120 145 184 235 295
#     4   8  14  24  38  58  85 115 148 181 218 260
#
# _framework density 15.286562999999999
#
# number of rings (size 3 to 8) (size 9 to 14) (size 15 to 20)
#    0.000    1.900    4.000    3.300    0.000    1.600 
#    0.000    4.000    0.000    1.400    0.000    1.400 
#    0.000    0.000    0.000    0.000    0.000    0.200 
#
# Total GULP energy -1487998.527942 kJ/mol
# GULP energy per Si atom -12399.987733 kJ/mol
# Density = 1.525177 g / cm^3
# Si number density = 15.286563 Si / 1000 Ang^3
#
#
#
# Elastic Constant Matrix: (Units=GPa)
#
#
# Indices 1 2 3 4 5 6 
#
# 1 101.0267 60.6547 24.1444 0.0000 0.0000 0.0000
# 2 60.6547 101.0267 24.1444 0.0000 0.0000 0.0000
# 3 24.1444 24.1444 48.4418 0.0000 0.0000 0.0000
# 4 0.0000 0.0000 0.0000 10.5018 0.0000 0.0000
# 5 0.0000 0.0000 0.0000 0.0000 10.5018 0.0000
# 6 0.0000 0.0000 0.0000 0.0000 0.0000 20.1860
#
#
#
# Elastic Compliance Matrix: (Units=1/GPa)
#
#
# Indices 1 2 3 4 5 6 
#
# 1 0.016018 -0.008751 -0.003622 0.000000 0.000000 0.000000
# 2 -0.008751 0.016018 -0.003622 0.000000 0.000000 0.000000
# 3 -0.003622 -0.003622 0.024254 0.000000 0.000000 0.000000
# 4 0.000000 0.000000 0.000000 0.095222 0.000000 0.000000
# 5 0.000000 0.000000 0.000000 0.000000 0.095222 0.000000
# 6 0.000000 0.000000 0.000000 0.000000 0.000000 0.049539
#
#
# Mechanical properties :
#
#
# Convention : Reuss Voigt Hill
#
# Bulk Modulus (GPa) = 41.15279 52.04248 46.59763
# Shear Modulus (GPa) = 14.86484 17.67467 16.26975
#
# Velocity S-wave (km/s) = 3.12174 3.40402 3.26593
# Velocity P-wave (km/s) = 6.32242 7.04047 6.69109
#
# Compressibility (1/GPa) = 0.02429969
#
# Stress axis : x y z
#
# Youngs Moduli (GPa) = 62.42895 62.42895 41.23065
#
# Poissons Ratio (x) = 0.54634 0.14933
# Poissons Ratio (y) = 0.54634 0.14933
# Poissons Ratio (z) = 0.22611 0.22611
#
# Static dielectric constant tensor:
#      x y z
#    x 2.995570 0.000000 0.000000 
#    y 0.000000 2.995570 0.000000 
#    z 0.000000 0.000000 2.608680 
# 
# 
# High freq. dielectric constant tensor:
#      x y z
#    x 1.583240 0.000000 0.000000 
#    y 0.000000 1.583240 0.000000 
#    z 0.000000 0.000000 1.537150 
# 
# From -- ./inp_files/3259.got.cif
#   From: 2010.03.12/outbox.cif.g09.slc.cpg/sg191_2_cif.got.tgz:3259.got - 2010.04.01 12:09:02.
