data_PCOD8329582
_publ_section_title
;
Structure prediction by ZEFSAII (Michael W. Deem and Ramdas Pophale) SiO2 
 PCOD8329582
Probable space group: P 6/M C C
;
_chemical_formula_sum "Si O2"
_cell_formula_units_Z 56
_cell_length_a 13.604383
_cell_length_b 13.604383
_cell_length_c 14.041804
_cell_angle_alpha 90.000000
_cell_angle_beta 90.000000
_cell_angle_gamma 120.000000
_cell_volume 2250.666975
_symmetry_space_group_name_H-M "P 6/M C C"
_symmetry_group_IT_number 192
_symmetry_cell_setting 'hexagonal'
loop_
_space_group_symop_operation_xyz
x,y,z
x-y,x,z
-y,x-y,z
-x,-y,z
-x+y,-x,z
y,-x+y,z
x-y,-y,1/2-z
-x,-x+y,1/2-z
y,x,1/2-z
-y,-x,1/2-z
-x+y,y,1/2-z
x,x-y,1/2-z
-x,-y,-z
-x+y,-x,-z
y,-x+y,-z
x,y,-z
x-y,x,-z
-y,x-y,-z
-x+y,y,1/2+z
x,x-y,1/2+z
-y,-x,1/2+z
y,x,1/2+z
x-y,-y,1/2+z
-x,-x+y,1/2+z
loop_
_atom_site_type_symbol
_atom_site_label
_atom_site_fract_x
_atom_site_fract_y
_atom_site_fract_z
Si Si1 0.392427 0.901549 0.849624
Si Si2 0.247590 0.198306 0.887154
Si Si3 0.666667 0.333333 0.863379
O O1 0.445425 0.890850 0.750000
O O2 0.291863 0.929839 0.835504
O O3 0.343024 0.782076 0.904106
O O4 0.500000 0.000000 0.907912
O O5 0.145033 0.217795 0.854458
O O6 0.265833 0.212567 0.000000
O O7 0.666668 0.333334 0.750000
#
# Coordination Sequence:
#
# PCOD8329582 Si02
#       3
#    24  24   8
#     4  10  20  35  58  86 121 165 213 265 321 384
#     4  10  21  39  64  95 131 170 213 265 329 399
#     4   9  18  33  52  80 115 159 208 254 313 384
#
# _framework density 24.881511
#
# number of rings (size 3 to 8) (size 9 to 14) (size 15 to 20)
#    0.000    2.143    0.000    3.000    0.000    6.000 
#    0.000    2.143    0.000    0.000    0.000   12.000 
#    0.000    0.000    0.000    0.000    0.000    0.857 
#
# Total GULP energy -693921.534106 kJ/mol
# GULP energy per Si atom -12391.455966 kJ/mol
# Density = 2.482488 g / cm^3
# Si number density = 24.881511 Si / 1000 Ang^3
#
#
#
# Elastic Constant Matrix: (Units=GPa)
#
#
# Indices 1 2 3 4 5 6 
#
# 1 272.0382 138.4791 17.5666 0.0000 -0.0001 0.0001
# 2 138.4791 272.0387 17.5666 0.0000 0.0000 -0.0002
# 3 17.5666 17.5666 45.1715 0.0000 0.0000 0.0000
# 4 0.0000 0.0000 0.0000 16.4868 0.0000 0.0000
# 5 -0.0001 0.0000 0.0000 0.0000 16.4869 0.0000
# 6 0.0001 -0.0002 0.0000 0.0000 0.0000 66.7797
#
#
#
# Elastic Compliance Matrix: (Units=1/GPa)
#
#
# Indices 1 2 3 4 5 6 
#
# 1 0.005004 -0.002484 -0.000980 0.000000 0.000000 0.000000
# 2 -0.002484 0.005004 -0.000980 0.000000 0.000000 0.000000
# 3 -0.000980 -0.000980 0.022900 0.000000 0.000000 0.000000
# 4 0.000000 0.000000 0.000000 0.060654 0.000000 0.000000
# 5 0.000000 0.000000 0.000000 0.000000 0.060654 0.000000
# 6 0.000000 0.000000 0.000000 0.000000 0.000000 0.014975
#
#
# Mechanical properties :
#
#
# Convention : Reuss Voigt Hill
#
# Bulk Modulus (GPa) = 41.63204 104.05257 72.84231
# Shear Modulus (GPa) = 26.86951 47.65974 37.26463
#
# Velocity S-wave (km/s) = 3.28975 4.38135 3.87419
# Velocity P-wave (km/s) = 5.58555 8.21614 7.02508
#
# Compressibility (1/GPa) = 0.02401996
#
# Stress axis : x y z
#
# Youngs Moduli (GPa) = 199.85748 199.85787 43.66806
#
# Poissons Ratio (x) = 0.49640 0.04279
# Poissons Ratio (y) = 0.49640 0.04279
# Poissons Ratio (z) = 0.19585 0.19585
#
# Static dielectric constant tensor:
#      x y z
#    x 6.043680 0.000020 0.000000 
#    y 0.000020 6.043630 0.000000 
#    z 0.000000 0.000000 3.915000 
# 
# 
# High freq. dielectric constant tensor:
#      x y z
#    x 2.011570 0.000000 0.000000 
#    y 0.000000 2.011570 0.000000 
#    z 0.000000 0.000000 1.962450 
# 
# From -- ./inp_files/3697.got.cif
#   From: 2010.03.12/outbox.cif.g09.slc.cpg/sg192_2_cif.got.tgz:3697.got - 2010.04.01 12:16:15.
