data_PCOD8329631
_publ_section_title
;
Structure prediction by ZEFSAII (Michael W. Deem and Ramdas Pophale) SiO2 
 PCOD8329631
Probable space group: P 6/M C C
;
_chemical_formula_sum "Si O2"
_cell_formula_units_Z 120
_cell_length_a 24.204739
_cell_length_b 24.204739
_cell_length_c 14.219530
_cell_angle_alpha 90.000000
_cell_angle_beta 90.000000
_cell_angle_gamma 120.000000
_cell_volume 7214.673494
_symmetry_space_group_name_H-M "P 6/M C C"
_symmetry_group_IT_number 192
_symmetry_cell_setting 'hexagonal'
loop_
_space_group_symop_operation_xyz
x,y,z
x-y,x,z
-y,x-y,z
-x,-y,z
-x+y,-x,z
y,-x+y,z
x-y,-y,1/2-z
-x,-x+y,1/2-z
y,x,1/2-z
-y,-x,1/2-z
-x+y,y,1/2-z
x,x-y,1/2-z
-x,-y,-z
-x+y,-x,-z
y,-x+y,-z
x,y,-z
x-y,x,-z
-y,x-y,-z
-x+y,y,1/2+z
x,x-y,1/2+z
-y,-x,1/2+z
y,x,1/2+z
x-y,-y,1/2+z
-x,-x+y,1/2+z
loop_
_atom_site_type_symbol
_atom_site_label
_atom_site_fract_x
_atom_site_fract_y
_atom_site_fract_z
Si Si1 0.660017 0.763886 0.749999
Si Si2 0.552431 0.628197 0.250001
Si Si3 0.877467 0.000005 0.111073
Si Si4 0.537759 0.462243 0.603915
Si Si5 0.249173 0.249174 0.388440
O O1 0.659324 0.829662 0.750000
O O2 0.588110 0.704695 0.749995
O O3 0.693253 0.757147 0.655712
O O4 0.693246 0.757141 0.844288
O O5 0.603576 0.603576 0.250000
O O6 0.507087 0.603514 0.341530
O O7 0.507089 0.603516 0.158469
O O8 0.875489 0.937749 0.154303
O O9 0.814404 0.000008 0.141311
O O10 0.883179 0.000005 0.000000
O O11 0.500000 0.500000 0.598155
O O12 0.553219 0.446782 0.500000
O O13 0.259436 0.259436 0.500000
#
# Coordination Sequence:
#
# PCOD8329631 Si02
#       5
#    24  24  24  24  24
#     4  11  22  35  51  73 102 138 175 219 260 306
#     4   9  16  31  46  72 104 129 163 201 236 289
#     4   9  16  27  44  63  80 102 145 210 274 324
#     4   8  15  27  50  75  99 128 155 187 236 291
#     4  10  21  36  50  65  92 134 177 214 265 329
#
# _framework density 16.632770000000001
#
# number of rings (size 3 to 8) (size 9 to 14) (size 15 to 20)
#    0.000    2.600    2.000    2.600    0.000    4.800 
#    0.000    0.000    0.000    0.000    0.000    7.000 
#    8.000    0.000    0.000    0.000    0.000    0.000 
#
# Total GULP energy -1487540.512025 kJ/mol
# GULP energy per Si atom -12396.170934 kJ/mol
# Density = 1.659491 g / cm^3
# Si number density = 16.632770 Si / 1000 Ang^3
#
#
#
# Elastic Constant Matrix: (Units=GPa)
#
#
# Indices 1 2 3 4 5 6 
#
# 1 101.6751 59.7638 44.7228 0.0000 0.0000 0.0000
# 2 59.7638 101.6751 44.7228 0.0000 0.0000 0.0000
# 3 44.7228 44.7228 134.0413 0.0000 0.0000 0.0000
# 4 0.0000 0.0000 0.0000 -7.9705 0.0000 0.0000
# 5 0.0000 0.0000 0.0000 0.0000 -7.9705 0.0000
# 6 0.0000 0.0000 0.0000 0.0000 0.0000 20.9557
#
#
#
# Elastic Compliance Matrix: (Units=1/GPa)
#
#
# Indices 1 2 3 4 5 6 
#
# 1 0.015729 -0.008130 -0.002535 0.000000 0.000000 0.000000
# 2 -0.008130 0.015729 -0.002535 0.000000 0.000000 0.000000
# 3 -0.002535 -0.002535 0.009152 0.000000 0.000000 0.000000
# 4 0.000000 0.000000 0.000000 -0.125463 0.000000 0.000000
# 5 0.000000 0.000000 0.000000 0.000000 -0.125463 0.000000
# 6 0.000000 0.000000 0.000000 0.000000 0.000000 0.047720
#
#
# Mechanical properties :
#
#
# Convention : Reuss Voigt Hill
#
# Bulk Modulus (GPa) = 70.37945 70.64559 70.51252
# Shear Modulus (GPa) = -38.03567 13.54841 -12.24363
#
# Velocity S-wave (km/s) = -4.78723 2.85715 -2.71609
# Velocity P-wave (km/s) = 3.44222 7.31097 5.71398
#
# Compressibility (1/GPa) = 0.01420869
#
# Stress axis : x y z
#
# Youngs Moduli (GPa) = 63.57493 63.57493 109.26257
#
# Poissons Ratio (x) = 0.51689 0.27703
# Poissons Ratio (y) = 0.51689 0.27703
# Poissons Ratio (z) = 0.16119 0.16119
#
# Static dielectric constant tensor:
#      x y z
#    x 2.982280 0.000000 0.000000 
#    y 0.000000 2.982280 0.000000 
#    z 0.000000 0.000000 3.454000 
# 
# 
# High freq. dielectric constant tensor:
#      x y z
#    x 1.615220 0.000000 0.000000 
#    y 0.000000 1.615220 0.000000 
#    z 0.000000 0.000000 1.651770 
# 
# From -- ./inp_files/3134.got.cif
#   From: 2010.03.12/outbox.cif.g09.slc.cpg/sg192_2_cif.got.tgz:3134.got - 2010.04.01 12:16:15.
