data_PCOD8329794
_publ_section_title
;
Structure prediction by ZEFSAII (Michael W. Deem and Ramdas Pophale) SiO2 
 PCOD8329794
Probable space group: P 63/M C M
;
_chemical_formula_sum "Si O2"
_cell_formula_units_Z 144
_cell_length_a 23.592937
_cell_length_b 23.592937
_cell_length_c 17.412642
_cell_angle_alpha 90.000000
_cell_angle_beta 90.000000
_cell_angle_gamma 120.000000
_cell_volume 8393.813564
_symmetry_space_group_name_H-M "P 63/M C M"
_symmetry_group_IT_number 193
_symmetry_cell_setting 'hexagonal'
loop_
_space_group_symop_operation_xyz
x,y,z
x-y,x,1/2+z
-y,x-y,z
-x,-y,1/2+z
-x+y,-x,z
y,-x+y,1/2+z
x-y,-y,1/2-z
-x,-x+y,1/2-z
y,x,1/2-z
-y,-x,-z
-x+y,y,-z
x,x-y,-z
-x,-y,-z
-x+y,-x,1/2-z
y,-x+y,-z
x,y,1/2-z
x-y,x,-z
-y,x-y,1/2-z
-x+y,y,1/2+z
x,x-y,1/2+z
-y,-x,1/2+z
y,x,z
x-y,-y,z
-x,-x+y,z
loop_
_atom_site_type_symbol
_atom_site_label
_atom_site_fract_x
_atom_site_fract_y
_atom_site_fract_z
Si Si1 0.924564 0.727404 0.467839
Si Si2 0.655549 0.927306 0.886323
Si Si3 0.610189 0.413415 0.339350
Si Si4 0.465533 0.393866 0.662228
Si Si5 0.757725 0.271037 0.841801
Si Si6 0.202642 0.838639 0.836411
O O1 0.877369 0.754738 0.500000
O O2 0.921471 0.674382 0.527138
O O3 0.898968 0.687432 0.388332
O O4 0.000000 0.787187 0.457995
O O5 0.581784 0.914109 0.890198
O O6 0.659442 0.874294 0.832751
O O7 0.704048 0.000000 0.852455
O O8 0.615769 0.401228 0.250000
O O9 0.578732 0.458789 0.356269
O O10 0.560041 0.343625 0.376295
O O11 0.683540 0.452099 0.373894
O O12 0.449576 0.368223 0.750000
O O13 0.454845 0.454845 0.647716
O O14 0.758474 0.268723 0.750000
O O15 0.803346 0.241741 0.870889
O O16 0.226271 0.865019 0.750000
#
# Coordination Sequence:
#
# PCOD8329794 Si02
#       6
#    24  24  24  24  24  24
#     4   9  19  34  52  74  99 130 161 191 229 283
#     4   9  16  28  47  70  93 120 155 193 236 285
#     4   9  15  24  37  57  87 120 157 198 239 283
#     4   9  15  23  39  63  87 109 141 192 244 281
#     4   9  16  25  39  61  89 123 160 201 245 290
#     4  10  18  29  46  72 100 124 156 197 244 290
#
# _framework density 17.155491999999999
#
# number of rings (size 3 to 8) (size 9 to 14) (size 15 to 20)
#    0.000    2.833    1.667    0.833    0.000    2.667 
#    0.000    0.833    0.000    4.167    0.000    3.500 
#    0.000    0.000    0.000    0.500    0.000    0.000 
#
# Total GULP energy -1784152.402602 kJ/mol
# GULP energy per Si atom -12389.947240 kJ/mol
# Density = 1.711645 g / cm^3
# Si number density = 17.155492 Si / 1000 Ang^3
#
#
#
# Elastic Constant Matrix: (Units=GPa)
#
#
# Indices 1 2 3 4 5 6 
#
# 1 110.0719 62.1150 25.2383 0.0000 0.0000 0.0000
# 2 62.1150 110.0719 25.2383 0.0000 0.0000 0.0000
# 3 25.2383 25.2383 37.5876 0.0000 0.0000 0.0000
# 4 0.0000 0.0000 0.0000 14.7215 0.0000 0.0000
# 5 0.0000 0.0000 0.0000 0.0000 14.7215 0.0000
# 6 0.0000 0.0000 0.0000 0.0000 0.0000 23.9784
#
#
#
# Elastic Compliance Matrix: (Units=1/GPa)
#
#
# Indices 1 2 3 4 5 6 
#
# 1 0.014042 -0.006811 -0.004855 0.000000 0.000000 0.000000
# 2 -0.006811 0.014042 -0.004855 0.000000 0.000000 0.000000
# 3 -0.004855 -0.004855 0.033125 0.000000 0.000000 0.000000
# 4 0.000000 0.000000 0.000000 0.067928 0.000000 0.000000
# 5 0.000000 0.000000 0.000000 0.000000 0.067928 0.000000
# 6 0.000000 0.000000 0.000000 0.000000 0.000000 0.041704
#
#
# Mechanical properties :
#
#
# Convention : Reuss Voigt Hill
#
# Bulk Modulus (GPa) = 35.50434 53.65718 44.58076
# Shear Modulus (GPa) = 17.78107 20.36028 19.07068
#
# Velocity S-wave (km/s) = 3.22291 3.44875 3.33774
# Velocity P-wave (km/s) = 5.88133 6.87047 6.39505
#
# Compressibility (1/GPa) = 0.02816557
#
# Stress axis : x y z
#
# Youngs Moduli (GPa) = 71.21741 71.21741 30.18902
#
# Poissons Ratio (x) = 0.48503 0.14658
# Poissons Ratio (y) = 0.48503 0.14658
# Poissons Ratio (z) = 0.34578 0.34578
#
# Static dielectric constant tensor:
#      x y z
#    x 3.324480 0.000000 0.000000 
#    y 0.000000 3.324480 0.000000 
#    z 0.000000 0.000000 2.825240 
# 
# 
# High freq. dielectric constant tensor:
#      x y z
#    x 1.656620 0.000000 0.000000 
#    y 0.000000 1.656620 0.000000 
#    z 0.000000 0.000000 1.619850 
# 
# From -- ./inp_files/5541.got.cif
#   From: 2010.03.12/outbox.cif.g09.slc.cpg/sg193_3_cif.got.tgz:5541.got - 2010.04.01 12:20:39.
