data_PCOD8329445
_publ_section_title
;
Structure prediction by ZEFSAII (Michael W. Deem and Ramdas Pophale) SiO2 
 PCOD8329445
Probable space group: P 6/M C C
;
_chemical_formula_sum "Si O2"
_cell_formula_units_Z 120
_cell_length_a 28.014495
_cell_length_b 28.014495
_cell_length_c 10.494279
_cell_angle_alpha 90.000000
_cell_angle_beta 90.000000
_cell_angle_gamma 120.000000
_cell_volume 7132.615846
_symmetry_space_group_name_H-M "P 6/M C C"
_symmetry_group_IT_number 192
_symmetry_cell_setting 'hexagonal'
loop_
_space_group_symop_operation_xyz
x,y,z
x-y,x,z
-y,x-y,z
-x,-y,z
-x+y,-x,z
y,-x+y,z
x-y,-y,1/2-z
-x,-x+y,1/2-z
y,x,1/2-z
-y,-x,1/2-z
-x+y,y,1/2-z
x,x-y,1/2-z
-x,-y,-z
-x+y,-x,-z
y,-x+y,-z
x,y,-z
x-y,x,-z
-y,x-y,-z
-x+y,y,1/2+z
x,x-y,1/2+z
-y,-x,1/2+z
y,x,1/2+z
x-y,-y,1/2+z
-x,-x+y,1/2+z
loop_
_atom_site_type_symbol
_atom_site_label
_atom_site_fract_x
_atom_site_fract_y
_atom_site_fract_z
Si Si1 0.367686 0.735372 0.750000
Si Si2 0.514250 0.701076 0.500000
Si Si3 0.514251 0.701075 0.000000
Si Si4 0.936384 0.170190 0.000000
Si Si5 0.196533 0.598267 0.500000
Si Si6 0.294557 0.063154 0.750000
Si Si7 0.846756 0.584450 0.750000
Si Si8 0.170190 0.233806 0.500000
O O1 0.301451 0.698550 0.750000
O O2 0.384624 0.769244 0.625514
O O3 0.493153 0.746578 0.500000
O O4 0.468024 0.635495 0.500000
O O5 0.549488 0.708271 0.625117
O O6 0.549489 0.708271 0.874883
O O7 0.468025 0.635494 0.000000
O O8 0.922360 0.194088 0.124370
O O9 0.896149 0.103851 0.000000
O O10 0.000000 0.184378 0.000000
O O11 0.360400 0.094736 0.750001
O O12 0.271729 0.077641 0.624370
O O13 0.277975 0.000000 0.750000
O O14 0.801789 0.603578 0.750000
#
# Coordination Sequence:
#
# PCOD8329445 Si02
#       8
#    12  12  12  12  12  24  24  12
#     4  10  20  28  44  64  84 120 153 192 238 260
#     4  10  21  32  48  68  94 127 163 195 240 291
#     4  10  21  32  48  68  94 127 163 195 240 291
#     4  10  19  31  49  76 107 140 173 209 248 293
#     4  12  20  34  46  64  95 122 164 202 228 286
#     4  10  20  33  53  78 102 130 168 208 255 304
#     4  10  19  33  49  71  98 127 156 196 247 303
#     4  10  19  31  49  76 107 140 173 209 248 293
#
# _framework density 16.824121999999999
#
# number of rings (size 3 to 8) (size 9 to 14) (size 15 to 20)
#    0.200    1.600    0.000    6.000    0.000    3.200 
#    0.600    0.000    0.000    0.200    0.000    4.200 
#    0.000    4.800    0.000    0.000    0.000    0.800 
#
# Total GULP energy -1486937.573417 kJ/mol
# GULP energy per Si atom -12391.146445 kJ/mol
# Density = 1.678583 g / cm^3
# Si number density = 16.824122 Si / 1000 Ang^3
#
#
#
# Elastic Constant Matrix: (Units=GPa)
#
#
# Indices 1 2 3 4 5 6 
#
# 1 110.2114 56.4983 45.7976 0.0000 0.0000 0.0000
# 2 56.4983 110.2114 45.7976 0.0000 0.0000 0.0000
# 3 45.7976 45.7976 166.8532 0.0000 0.0000 0.0000
# 4 0.0000 0.0000 0.0000 -143.9546 0.0000 0.0000
# 5 0.0000 0.0000 0.0000 0.0000 -143.9546 0.0000
# 6 0.0000 0.0000 0.0000 0.0000 0.0000 26.8566
#
#
#
# Elastic Compliance Matrix: (Units=1/GPa)
#
#
# Indices 1 2 3 4 5 6 
#
# 1 0.012841 -0.005777 -0.001939 0.000000 0.000000 0.000000
# 2 -0.005777 0.012841 -0.001939 0.000000 0.000000 0.000000
# 3 -0.001939 -0.001939 0.007058 0.000000 0.000000 0.000000
# 4 0.000000 0.000000 0.000000 -0.006947 0.000000 0.000000
# 5 0.000000 0.000000 0.000000 0.000000 -0.006947 0.000000
# 6 0.000000 0.000000 0.000000 0.000000 0.000000 0.037235
#
#
# Mechanical properties :
#
#
# Convention : Reuss Voigt Hill
#
# Bulk Modulus (GPa) = 74.46183 75.94034 75.20109
# Shear Modulus (GPa) = 62.60487 -36.26502 13.16992
#
# Velocity S-wave (km/s) = 6.10673 -4.64781 2.80089
# Velocity P-wave (km/s) = 9.69938 4.05375 7.43340
#
# Compressibility (1/GPa) = 0.01342970
#
# Stress axis : x y z
#
# Youngs Moduli (GPa) = 77.87816 77.87816 141.69064
#
# Poissons Ratio (x) = 0.44989 0.27472
# Poissons Ratio (y) = 0.44989 0.27472
# Poissons Ratio (z) = 0.15099 0.15099
#
# Static dielectric constant tensor:
#      x y z
#    x 3.095160 0.000000 0.000000 
#    y 0.000000 3.095160 0.000000 
#    z 0.000000 0.000000 3.443430 
# 
# 
# High freq. dielectric constant tensor:
#      x y z
#    x 1.624870 0.000000 0.000000 
#    y 0.000000 1.624870 0.000000 
#    z 0.000000 0.000000 1.684510 
# 
# From -- ./inp_files/1887.got.cif
#   From: 2010.03.12/outbox.cif.g09.slc.cpg/sg192_1_cif.got.tgz:1887.got - 2010.04.01 12:16:15.
