data_PCOD8329439
_publ_section_title
;
Structure prediction by ZEFSAII (Michael W. Deem and Ramdas Pophale) SiO2 
 PCOD8329439
Probable space group: P 6/M C C
;
_chemical_formula_sum "Si O2"
_cell_formula_units_Z 168
_cell_length_a 27.371512
_cell_length_b 27.371512
_cell_length_c 15.449586
_cell_angle_alpha 90.000000
_cell_angle_beta 90.000000
_cell_angle_gamma 120.000000
_cell_volume 10024.092252
_symmetry_space_group_name_H-M "P 6/M C C"
_symmetry_group_IT_number 192
_symmetry_cell_setting 'hexagonal'
loop_
_space_group_symop_operation_xyz
x,y,z
x-y,x,z
-y,x-y,z
-x,-y,z
-x+y,-x,z
y,-x+y,z
x-y,-y,1/2-z
-x,-x+y,1/2-z
y,x,1/2-z
-y,-x,1/2-z
-x+y,y,1/2-z
x,x-y,1/2-z
-x,-y,-z
-x+y,-x,-z
y,-x+y,-z
x,y,-z
x-y,x,-z
-y,x-y,-z
-x+y,y,1/2+z
x,x-y,1/2+z
-y,-x,1/2+z
y,x,1/2+z
x-y,-y,1/2+z
-x,-x+y,1/2+z
loop_
_atom_site_type_symbol
_atom_site_label
_atom_site_fract_x
_atom_site_fract_y
_atom_site_fract_z
Si Si1 0.343415 0.934929 0.847859
Si Si2 0.779061 0.779061 0.598507
Si Si3 0.328967 0.109111 0.603168
Si Si4 0.408486 0.065071 0.847859
Si Si5 0.111133 1.000000 0.852134
Si Si6 0.479126 0.066720 0.500000
Si Si7 0.671033 0.890889 0.896832
Si Si8 0.520874 0.933280 0.000000
O O1 0.276677 0.895702 0.859889
O O2 0.360337 0.928910 0.750000
O O3 0.374218 0.913293 0.913573
O O4 0.361785 1.000000 0.868670
O O5 0.761888 0.761888 0.500000
O O6 0.785665 0.728868 0.641353
O O7 0.836985 0.836985 0.602598
O O8 0.728868 0.785665 0.641353
O O9 0.329828 0.108641 0.500000
O O10 0.333814 0.166907 0.637733
O O11 0.380975 0.104298 0.859889
O O12 0.460925 0.086707 0.913573
O O13 0.108690 0.054345 0.883820
O O14 0.118405 0.000000 0.750000
O O15 0.546923 0.093846 0.500000
O O16 0.450312 1.000000 0.500000
O O17 0.670172 0.891359 0.000000
#
# Coordination Sequence:
#
# PCOD8329439 Si02
#       8
#    24  24  24  24  24  12  24  12
#     4  10  19  31  50  72  97 131 170 207 246 297
#     4  10  20  33  51  69  90 117 155 208 263 318
#     4  10  19  31  49  70  94 130 170 210 264 320
#     4  10  19  31  50  72  97 131 170 207 246 297
#     4  10  21  36  50  62  80 108 145 197 266 339
#     4   9  18  32  51  72 100 131 157 194 234 270
#     4  10  19  31  49  70  94 130 170 210 264 320
#     4   9  18  32  51  72 100 131 157 194 234 270
#
# _framework density 16.759623000000001
#
# number of rings (size 3 to 8) (size 9 to 14) (size 15 to 20)
#    0.000    2.143    2.857    1.000    0.000    4.571 
#    0.000    2.857    0.000    0.857    0.000    0.000 
#    0.000    0.000    0.000    3.429    0.000    7.429 
#
# Total GULP energy -2083158.900768 kJ/mol
# GULP energy per Si atom -12399.755362 kJ/mol
# Density = 1.672148 g / cm^3
# Si number density = 16.759623 Si / 1000 Ang^3
#
#
#
# Elastic Constant Matrix: (Units=GPa)
#
#
# Indices 1 2 3 4 5 6 
#
# 1 101.2786 58.4067 37.1350 0.0000 0.0000 0.0000
# 2 58.4067 101.2786 37.1350 0.0000 0.0000 0.0000
# 3 37.1350 37.1350 74.2574 0.0000 0.0000 0.0000
# 4 0.0000 0.0000 0.0000 4.4613 0.0000 0.0000
# 5 0.0000 0.0000 0.0000 0.0000 4.4613 0.0000
# 6 0.0000 0.0000 0.0000 0.0000 0.0000 21.4359
#
#
#
# Elastic Compliance Matrix: (Units=1/GPa)
#
#
# Indices 1 2 3 4 5 6 
#
# 1 0.015743 -0.007582 -0.004081 0.000000 0.000000 0.000000
# 2 -0.007582 0.015743 -0.004081 0.000000 0.000000 0.000000
# 3 -0.004081 -0.004081 0.017548 0.000000 0.000000 0.000000
# 4 0.000000 0.000000 0.000000 0.224150 0.000000 0.000000
# 5 0.000000 0.000000 0.000000 0.000000 0.224150 0.000000
# 6 0.000000 0.000000 0.000000 0.000000 0.000000 0.046651
#
#
# Mechanical properties :
#
#
# Convention : Reuss Voigt Hill
#
# Bulk Modulus (GPa) = 56.99483 60.24090 58.61786
# Shear Modulus (GPa) = 8.60111 15.68089 12.14100
#
# Velocity S-wave (km/s) = 2.26786 3.06213 2.69442
# Velocity P-wave (km/s) = 6.39833 6.96594 6.68816
#
# Compressibility (1/GPa) = 0.01754545
#
# Stress axis : x y z
#
# Youngs Moduli (GPa) = 63.52098 63.52098 56.98581
#
# Poissons Ratio (x) = 0.48165 0.23255
# Poissons Ratio (y) = 0.48165 0.23255
# Poissons Ratio (z) = 0.25922 0.25922
#
# Static dielectric constant tensor:
#      x y z
#    x 3.050220 0.000000 0.000000 
#    y 0.000000 3.050220 0.000000 
#    z 0.000000 0.000000 3.111050 
# 
# 
# High freq. dielectric constant tensor:
#      x y z
#    x 1.618130 0.000000 0.000000 
#    y 0.000000 1.618130 0.000000 
#    z 0.000000 0.000000 1.650420 
# 
# From -- ./inp_files/3468.got.cif
#   From: 2010.03.12/outbox.cif.g09.slc.cpg/sg192_2_cif.got.tgz:3468.got - 2010.04.01 12:16:15.
