data_PCOD8329312
_publ_section_title
;
Structure prediction by ZEFSAII (Michael W. Deem and Ramdas Pophale) SiO2 
 PCOD8329312
Probable space group: P 6/M M M
;
_chemical_formula_sum "Si O2"
_cell_formula_units_Z 96
_cell_length_a 28.807543
_cell_length_b 28.807543
_cell_length_c 9.939080
_cell_angle_alpha 90.000000
_cell_angle_beta 90.000000
_cell_angle_gamma 120.000000
_cell_volume 7143.141539
_symmetry_space_group_name_H-M "P 6/M M M"
_symmetry_group_IT_number 191
_symmetry_cell_setting 'hexagonal'
loop_
_space_group_symop_operation_xyz
x,y,z
x-y,x,z
-y,x-y,z
-x,-y,z
-x+y,-x,z
y,-x+y,z
x-y,-y,-z
-x,-x+y,-z
y,x,-z
-y,-x,-z
-x+y,y,-z
x,x-y,-z
-x,-y,-z
-x+y,-x,-z
y,-x+y,-z
x,y,-z
x-y,x,-z
-y,x-y,-z
-x+y,y,z
x,x-y,z
-y,-x,z
y,x,z
x-y,-y,z
-x,-x+y,z
loop_
_atom_site_type_symbol
_atom_site_label
_atom_site_fract_x
_atom_site_fract_y
_atom_site_fract_z
Si Si1 0.205371 0.513376 0.849901
Si Si2 0.244590 0.386167 0.849052
Si Si3 0.938119 0.611103 0.656450
Si Si4 0.125638 0.511352 0.347035
O O1 0.267788 0.535576 0.813415
O O2 0.174607 0.449708 0.843374
O O3 0.178948 0.535112 0.743919
O O4 0.200778 0.532267 0.000000
O O5 0.182070 0.364139 0.810980
O O6 0.272297 0.365341 0.742602
O O7 0.248373 0.367039 0.000000
O O8 0.928499 0.617320 0.500000
O O9 0.918391 0.549157 0.693311
O O10 0.000000 0.644919 0.695875
O O11 0.144281 0.512725 0.500000
O O12 0.100313 0.550157 0.328332
#
# Coordination Sequence:
#
# PCOD8329312 Si02
#       4
#    24  24  24  24
#     4   8  14  25  40  55  68  82 103 135 174 211
#     4   8  14  25  40  56  72  90 114 144 177 211
#     4   9  17  27  38  54  76 100 124 149 178 213
#     4   9  17  27  38  53  72  94 119 144 172 211
#
# _framework density 13.439465
#
# number of rings (size 3 to 8) (size 9 to 14) (size 15 to 20)
#    0.000    3.500    0.000    1.500    0.000    2.500 
#    0.000    7.500    0.000    0.500    0.000    7.000 
#    0.000    0.000    0.000    0.000    0.000    0.000 
#
# Total GULP energy -1189580.624078 kJ/mol
# GULP energy per Si atom -12391.464834 kJ/mol
# Density = 1.340888 g / cm^3
# Si number density = 13.439465 Si / 1000 Ang^3
#
#
#
# Elastic Constant Matrix: (Units=GPa)
#
#
# Indices 1 2 3 4 5 6 
#
# 1 60.2013 36.2718 43.7558 0.0000 0.0000 0.0000
# 2 36.2718 60.2013 43.7558 0.0000 0.0000 0.0000
# 3 43.7558 43.7558 73.1071 0.0000 0.0000 0.0000
# 4 0.0000 0.0000 0.0000 18.8430 0.0000 0.0000
# 5 0.0000 0.0000 0.0000 0.0000 18.8430 0.0000
# 6 0.0000 0.0000 0.0000 0.0000 0.0000 11.9647
#
#
#
# Elastic Compliance Matrix: (Units=1/GPa)
#
#
# Indices 1 2 3 4 5 6 
#
# 1 0.032234 -0.009556 -0.013573 0.000000 0.000000 0.000000
# 2 -0.009556 0.032234 -0.013573 0.000000 0.000000 0.000000
# 3 -0.013573 -0.013573 0.029926 0.000000 0.000000 0.000000
# 4 0.000000 0.000000 0.000000 0.053070 0.000000 0.000000
# 5 0.000000 0.000000 0.000000 0.000000 0.053070 0.000000
# 6 0.000000 0.000000 0.000000 0.000000 0.000000 0.083579
#
#
# Mechanical properties :
#
#
# Convention : Reuss Voigt Hill
#
# Bulk Modulus (GPa) = 47.64314 49.00853 48.32583
# Shear Modulus (GPa) = 13.71695 14.57858 14.14776
#
# Velocity S-wave (km/s) = 3.19822 3.29714 3.24806
# Velocity P-wave (km/s) = 7.01180 7.14424 7.07833
#
# Compressibility (1/GPa) = 0.02098938
#
# Stress axis : x y z
#
# Youngs Moduli (GPa) = 31.02349 31.02349 33.41584
#
# Poissons Ratio (x) = 0.29646 0.45355
# Poissons Ratio (y) = 0.29646 0.45355
# Poissons Ratio (z) = 0.42108 0.42108
#
# Static dielectric constant tensor:
#      x y z
#    x 2.568560 0.000000 0.000000 
#    y 0.000000 2.568560 0.000000 
#    z 0.000000 0.000000 2.868070 
# 
# 
# High freq. dielectric constant tensor:
#      x y z
#    x 1.476680 0.000000 0.000000 
#    y 0.000000 1.476680 0.000000 
#    z 0.000000 0.000000 1.521170 
# 
# From -- ./inp_files/2742.got.cif
#   From: 2010.03.12/outbox.cif.g09.slc.cpg/sg191_2_cif.got.tgz:2742.got - 2010.04.01 12:09:02.
