data_PCOD8329651
_publ_section_title
;
Structure prediction by ZEFSAII (Michael W. Deem and Ramdas Pophale) SiO2 
 PCOD8329651
Probable space group: P 6/M C C
;
_chemical_formula_sum "Si O2"
_cell_formula_units_Z 104
_cell_length_a 18.415753
_cell_length_b 18.415753
_cell_length_c 16.084165
_cell_angle_alpha 90.000000
_cell_angle_beta 90.000000
_cell_angle_gamma 120.000000
_cell_volume 4723.980695
_symmetry_space_group_name_H-M "P 6/M C C"
_symmetry_group_IT_number 192
_symmetry_cell_setting 'hexagonal'
loop_
_space_group_symop_operation_xyz
x,y,z
x-y,x,z
-y,x-y,z
-x,-y,z
-x+y,-x,z
y,-x+y,z
x-y,-y,1/2-z
-x,-x+y,1/2-z
y,x,1/2-z
-y,-x,1/2-z
-x+y,y,1/2-z
x,x-y,1/2-z
-x,-y,-z
-x+y,-x,-z
y,-x+y,-z
x,y,-z
x-y,x,-z
-y,x-y,-z
-x+y,y,1/2+z
x,x-y,1/2+z
-y,-x,1/2+z
y,x,1/2+z
x-y,-y,1/2+z
-x,-x+y,1/2+z
loop_
_atom_site_type_symbol
_atom_site_label
_atom_site_fract_x
_atom_site_fract_y
_atom_site_fract_z
Si Si1 0.483545 0.210221 0.843017
Si Si2 0.896760 0.248801 0.593538
Si Si3 0.666668 0.333334 0.348182
Si Si4 0.110058 0.928093 0.844898
Si Si5 0.031678 0.435551 0.598060
O O1 0.475830 0.237915 0.750000
O O2 0.428995 0.232055 0.904007
O O3 0.576951 0.261436 0.880088
O O4 0.456112 0.112633 0.847079
O O5 0.919340 0.237530 0.500000
O O6 0.897734 0.177488 0.649581
O O7 0.960898 0.342352 0.625020
O O8 0.666668 0.333334 0.250000
O O9 0.080698 0.919303 0.750000
O O10 0.020154 0.867778 0.888080
O O11 0.052282 0.441402 0.500000
O O12 0.000000 0.500000 0.622184
#
# Coordination Sequence:
#
# PCOD8329651 Si02
#       5
#    24  24   8  24  24
#     4  11  22  39  62  89 122 158 203 255 313 379
#     4  11  23  39  60  87 121 160 204 255 307 366
#     4   9  21  39  58  86 118 150 190 245 307 366
#     4  10  21  38  60  86 115 150 193 244 303 367
#     4  10  22  41  64  92 127 167 212 261 315 378
#
# _framework density 22.015331
#
# number of rings (size 3 to 8) (size 9 to 14) (size 15 to 20)
#    0.000    1.615    0.000    4.385    0.000    6.462 
#    0.000    4.615    0.000    1.385    0.000    0.000 
#    0.000    0.000    0.000    0.000    0.000    0.000 
#
# Total GULP energy -1289423.065822 kJ/mol
# GULP energy per Si atom -12398.298710 kJ/mol
# Density = 2.196522 g / cm^3
# Si number density = 22.015331 Si / 1000 Ang^3
#
#
#
# Elastic Constant Matrix: (Units=GPa)
#
#
# Indices 1 2 3 4 5 6 
#
# 1 191.9483 86.2435 25.3360 0.0000 -0.0001 0.0003
# 2 86.2435 191.9497 25.3359 -0.0001 0.0000 0.0005
# 3 25.3360 25.3359 42.3801 0.0000 0.0000 0.0001
# 4 0.0000 -0.0001 0.0000 27.1215 0.0000 0.0000
# 5 -0.0001 0.0000 0.0000 0.0000 27.1215 0.0000
# 6 0.0003 0.0005 0.0001 0.0000 0.0000 52.8526
#
#
#
# Elastic Compliance Matrix: (Units=1/GPa)
#
#
# Indices 1 2 3 4 5 6 
#
# 1 0.006747 -0.002713 -0.002412 0.000000 0.000000 0.000000
# 2 -0.002713 0.006747 -0.002412 0.000000 0.000000 0.000000
# 3 -0.002412 -0.002412 0.026479 0.000000 0.000000 0.000000
# 4 0.000000 0.000000 0.000000 0.036871 0.000000 0.000000
# 5 0.000000 0.000000 0.000000 0.000000 0.036871 0.000000
# 6 0.000000 0.000000 0.000000 0.000000 0.000000 0.018921
#
#
# Mechanical properties :
#
#
# Convention : Reuss Voigt Hill
#
# Bulk Modulus (GPa) = 40.15921 77.78989 58.97455
# Shear Modulus (GPa) = 32.04939 40.70997 36.37968
#
# Velocity S-wave (km/s) = 3.81960 4.30486 4.06947
# Velocity P-wave (km/s) = 6.14276 7.75372 6.99477
#
# Compressibility (1/GPa) = 0.02490089
#
# Stress axis : x y z
#
# Youngs Moduli (GPa) = 148.21185 148.21311 37.76522
#
# Poissons Ratio (x) = 0.40213 0.09107
# Poissons Ratio (y) = 0.40212 0.09107
# Poissons Ratio (z) = 0.35743 0.35742
#
# Static dielectric constant tensor:
#      x y z
#    x 4.214630 -0.000010 0.000000 
#    y -0.000010 4.214620 0.000000 
#    z 0.000000 0.000000 3.552420 
# 
# 
# High freq. dielectric constant tensor:
#      x y z
#    x 1.882990 0.000000 0.000000 
#    y 0.000000 1.882990 0.000000 
#    z 0.000000 0.000000 1.838420 
# 
# From -- ./inp_files/4880.got.cif
#   From: 2010.03.12/outbox.cif.g09.slc.cpg/sg192_3_cif.got.tgz:4880.got - 2010.04.01 12:16:15.
