data_PCOD8329177
_publ_section_title
;
Structure prediction by ZEFSAII (Michael W. Deem and Ramdas Pophale) SiO2 
 PCOD8329177
Probable space group: P 6/M M M
;
_chemical_formula_sum "Si O2"
_cell_formula_units_Z 72
_cell_length_a 17.418507
_cell_length_b 17.418507
_cell_length_c 15.031603
_cell_angle_alpha 90.000000
_cell_angle_beta 90.000000
_cell_angle_gamma 120.000000
_cell_volume 3949.642465
_symmetry_space_group_name_H-M "P 6/M M M"
_symmetry_group_IT_number 191
_symmetry_cell_setting 'hexagonal'
loop_
_space_group_symop_operation_xyz
x,y,z
x-y,x,z
-y,x-y,z
-x,-y,z
-x+y,-x,z
y,-x+y,z
x-y,-y,-z
-x,-x+y,-z
y,x,-z
-y,-x,-z
-x+y,y,-z
x,x-y,-z
-x,-y,-z
-x+y,-x,-z
y,-x+y,-z
x,y,-z
x-y,x,-z
-y,x-y,-z
-x+y,y,z
x,x-y,z
-y,-x,z
y,x,z
x-y,-y,z
-x,-x+y,z
loop_
_atom_site_type_symbol
_atom_site_label
_atom_site_fract_x
_atom_site_fract_y
_atom_site_fract_z
Si Si1 0.102323 0.897677 0.603588
Si Si2 0.895881 0.104120 0.102178
Si Si3 0.542178 0.904323 0.000000
Si Si4 0.637766 0.532532 0.809478
Si Si5 0.646652 0.823326 0.254791
O O1 0.114182 0.885819 0.500000
O O2 0.148116 0.851885 0.656229
O O3 0.000000 0.852530 0.630796
O O4 0.853806 0.146195 0.167019
O O5 0.000000 0.148473 0.121830
O O6 0.878695 0.121306 0.000000
O O7 0.536659 0.854438 0.092894
O O8 0.460954 0.921907 0.000000
O O9 0.633056 0.000000 0.000000
O O10 0.569734 0.430267 0.780563
O O11 0.583350 0.583350 0.816790
O O12 0.717307 0.582210 0.740186
#
# Coordination Sequence:
#
# PCOD8329177 Si02
#       5
#    12  12  12  24  12
#     4  10  21  38  60  86 116 148 182 225 278 333
#     4  10  21  34  48  72 110 150 182 217 268 333
#     4   7  12  25  44  62  87 129 173 207 248 306
#     4   9  18  32  48  69 100 137 174 217 271 319
#     4  12  22  32  53  82 104 136 187 238 268 322
#
# _framework density 18.229498
#
# number of rings (size 3 to 8) (size 9 to 14) (size 15 to 20)
#    0.000    2.500    0.000    5.333    2.333    1.333 
#    1.000    1.667    0.000    1.000    0.000    4.667 
#    0.000    0.000    0.000    0.000    0.000    0.000 
#
# Total GULP energy -892032.702813 kJ/mol
# GULP energy per Si atom -12389.343095 kJ/mol
# Density = 1.818801 g / cm^3
# Si number density = 18.229498 Si / 1000 Ang^3
#
#
#
# Elastic Constant Matrix: (Units=GPa)
#
#
# Indices 1 2 3 4 5 6 
#
# 1 100.4049 50.7524 40.9672 0.0000 0.0000 0.0000
# 2 50.7524 100.4049 40.9672 0.0000 0.0000 0.0000
# 3 40.9672 40.9672 62.3843 0.0000 0.0000 0.0000
# 4 0.0000 0.0000 0.0000 18.4011 0.0000 0.0000
# 5 0.0000 0.0000 0.0000 0.0000 18.4011 0.0000
# 6 0.0000 0.0000 0.0000 0.0000 0.0000 24.8262
#
#
#
# Elastic Compliance Matrix: (Units=1/GPa)
#
#
# Indices 1 2 3 4 5 6 
#
# 1 0.015206 -0.004934 -0.006746 0.000000 0.000000 0.000000
# 2 -0.004934 0.015206 -0.006746 0.000000 0.000000 0.000000
# 3 -0.006746 -0.006746 0.024889 0.000000 0.000000 0.000000
# 4 0.000000 0.000000 0.000000 0.054345 0.000000 0.000000
# 5 0.000000 0.000000 0.000000 0.000000 0.054345 0.000000
# 6 0.000000 0.000000 0.000000 0.000000 0.000000 0.040280
#
#
# Mechanical properties :
#
#
# Convention : Reuss Voigt Hill
#
# Bulk Modulus (GPa) = 54.19753 58.72973 56.46363
# Shear Modulus (GPa) = 20.22075 21.02617 20.62346
#
# Velocity S-wave (km/s) = 3.33413 3.39988 3.36716
# Velocity P-wave (km/s) = 6.67960 6.90645 6.79397
#
# Compressibility (1/GPa) = 0.01845103
#
# Stress axis : x y z
#
# Youngs Moduli (GPa) = 65.76346 65.76346 40.17809
#
# Poissons Ratio (x) = 0.32447 0.27102
# Poissons Ratio (y) = 0.32447 0.27102
# Poissons Ratio (z) = 0.44361 0.44361
#
# Static dielectric constant tensor:
#      x y z
#    x 3.328730 0.000000 0.000000 
#    y 0.000000 3.328730 0.000000 
#    z 0.000000 0.000000 3.185440 
# 
# 
# High freq. dielectric constant tensor:
#      x y z
#    x 1.700710 0.000000 0.000000 
#    y 0.000000 1.700710 0.000000 
#    z 0.000000 0.000000 1.665400 
# 
# From -- ./inp_files/3963.got.cif
#   From: 2010.03.12/outbox.cif.g09.slc.cpg/sg191_2_cif.got.tgz:3963.got - 2010.04.01 12:09:02.
