data_PCOD8329588
_publ_section_title
;
Structure prediction by ZEFSAII (Michael W. Deem and Ramdas Pophale) SiO2 
 PCOD8329588
Probable space group: P 6/M C C
;
_chemical_formula_sum "Si O2"
_cell_formula_units_Z 104
_cell_length_a 18.460905
_cell_length_b 18.460905
_cell_length_c 18.209101
_cell_angle_alpha 90.000000
_cell_angle_beta 90.000000
_cell_angle_gamma 120.000000
_cell_volume 5374.339670
_symmetry_space_group_name_H-M "P 6/M C C"
_symmetry_group_IT_number 192
_symmetry_cell_setting 'hexagonal'
loop_
_space_group_symop_operation_xyz
x,y,z
x-y,x,z
-y,x-y,z
-x,-y,z
-x+y,-x,z
y,-x+y,z
x-y,-y,1/2-z
-x,-x+y,1/2-z
y,x,1/2-z
-y,-x,1/2-z
-x+y,y,1/2-z
x,x-y,1/2-z
-x,-y,-z
-x+y,-x,-z
y,-x+y,-z
x,y,-z
x-y,x,-z
-y,x-y,-z
-x+y,y,1/2+z
x,x-y,1/2+z
-y,-x,1/2+z
y,x,1/2+z
x-y,-y,1/2+z
-x,-x+y,1/2+z
loop_
_atom_site_type_symbol
_atom_site_label
_atom_site_fract_x
_atom_site_fract_y
_atom_site_fract_z
Si Si1 0.666667 0.333334 0.337152
Si Si2 0.752359 0.102870 0.163147
Si Si3 0.073331 0.487614 0.581689
Si Si4 0.916661 0.654031 0.333459
Si Si5 0.325369 0.521700 0.417852
O O1 0.666668 0.333334 0.250000
O O2 0.722044 0.293481 0.366756
O O3 0.729299 0.099561 0.248270
O O4 0.848914 0.167974 0.142841
O O5 0.695247 0.128851 0.116981
O O6 0.730199 0.008236 0.144118
O O7 0.043300 0.448732 0.500000
O O8 0.097682 0.429330 0.627447
O O9 0.156490 0.575834 0.576873
O O10 0.000000 0.500000 0.618661
O O11 0.285969 0.507626 0.500000
#
# Coordination Sequence:
#
# PCOD8329588 Si02
#       5
#     8  24  24  24  24
#     4  12  28  38  55  84 121 158 202 255 289 362
#     4  10  22  37  60  84 113 151 193 250 295 364
#     4  10  20  36  58  82 114 150 193 240 289 351
#     4  10  21  38  57  85 116 149 197 243 304 354
#     4  11  23  40  57  79 115 161 201 245 299 349
#
# _framework density 19.351215
#
# number of rings (size 3 to 8) (size 9 to 14) (size 15 to 20)
#    0.000    1.615    2.308    2.077    6.462    2.769 
#    0.000    0.000    0.000    0.462    0.000    3.231 
#    0.000    0.000    0.000    4.154    0.000    4.615 
#
# Total GULP energy -1289107.314255 kJ/mol
# GULP energy per Si atom -12395.262637 kJ/mol
# Density = 1.930717 g / cm^3
# Si number density = 19.351215 Si / 1000 Ang^3
#
#
#
# Elastic Constant Matrix: (Units=GPa)
#
#
# Indices 1 2 3 4 5 6 
#
# 1 124.1587 56.0245 51.9628 -0.0002 0.0000 0.0001
# 2 56.0245 124.1594 51.9629 0.0001 0.0001 0.0000
# 3 51.9628 51.9629 83.7194 0.0001 -0.0003 -0.0001
# 4 -0.0002 0.0001 0.0001 16.6230 0.0001 -0.0001
# 5 0.0000 0.0001 -0.0003 0.0001 16.6221 0.0001
# 6 0.0001 0.0000 -0.0001 -0.0001 0.0001 34.0672
#
#
#
# Elastic Compliance Matrix: (Units=1/GPa)
#
#
# Indices 1 2 3 4 5 6 
#
# 1 0.011661 -0.003016 -0.005366 0.000000 0.000000 0.000000
# 2 -0.003016 0.011661 -0.005365 0.000000 0.000000 0.000000
# 3 -0.005366 -0.005365 0.018605 0.000000 0.000000 0.000000
# 4 0.000000 0.000000 0.000000 0.060158 0.000000 0.000000
# 5 0.000000 0.000000 0.000000 0.000000 0.060161 0.000000
# 6 0.000000 0.000000 0.000000 0.000000 0.000000 0.029354
#
#
# Mechanical properties :
#
#
# Convention : Reuss Voigt Hill
#
# Bulk Modulus (GPa) = 69.28895 72.43754 70.86325
# Shear Modulus (GPa) = 22.33103 24.93497 23.63300
#
# Velocity S-wave (km/s) = 3.40072 3.59353 3.49845
# Velocity P-wave (km/s) = 7.16265 7.39813 7.28134
#
# Compressibility (1/GPa) = 0.01443232
#
# Stress axis : x y z
#
# Youngs Moduli (GPa) = 85.75771 85.75829 53.74842
#
# Poissons Ratio (x) = 0.25866 0.28839
# Poissons Ratio (y) = 0.25866 0.28839
# Poissons Ratio (z) = 0.46014 0.46014
#
# Static dielectric constant tensor:
#      x y z
#    x 3.603160 0.000000 0.000000 
#    y 0.000000 3.603150 0.000000 
#    z 0.000000 0.000000 3.545090 
# 
# 
# High freq. dielectric constant tensor:
#      x y z
#    x 1.744440 0.000000 0.000000 
#    y 0.000000 1.744440 0.000000 
#    z 0.000000 0.000000 1.749480 
# 
# From -- ./inp_files/4887.got.cif
#   From: 2010.03.12/outbox.cif.g09.slc.cpg/sg192_3_cif.got.tgz:4887.got - 2010.04.01 12:16:15.
