data_PCOD8329755
_publ_section_title
;
Structure prediction by ZEFSAII (Michael W. Deem and Ramdas Pophale) SiO2 
 PCOD8329755
Probable space group: P 63/M C M
;
_chemical_formula_sum "Si O2"
_cell_formula_units_Z 144
_cell_length_a 22.233041
_cell_length_b 22.233041
_cell_length_c 20.403485
_cell_angle_alpha 90.000000
_cell_angle_beta 90.000000
_cell_angle_gamma 120.000000
_cell_volume 8734.392871
_symmetry_space_group_name_H-M "P 63/M C M"
_symmetry_group_IT_number 193
_symmetry_cell_setting 'hexagonal'
loop_
_space_group_symop_operation_xyz
x,y,z
x-y,x,1/2+z
-y,x-y,z
-x,-y,1/2+z
-x+y,-x,z
y,-x+y,1/2+z
x-y,-y,1/2-z
-x,-x+y,1/2-z
y,x,1/2-z
-y,-x,-z
-x+y,y,-z
x,x-y,-z
-x,-y,-z
-x+y,-x,1/2-z
y,-x+y,-z
x,y,1/2-z
x-y,x,-z
-y,x-y,1/2-z
-x+y,y,1/2+z
x,x-y,1/2+z
-y,-x,1/2+z
y,x,z
x-y,-y,z
-x,-x+y,z
loop_
_atom_site_type_symbol
_atom_site_label
_atom_site_fract_x
_atom_site_fract_y
_atom_site_fract_z
Si Si1 0.265322 0.867356 0.015942
Si Si2 0.832236 0.081319 0.560904
Si Si3 0.421694 0.504273 0.176858
Si Si4 0.080051 0.377809 0.627961
Si Si5 0.503964 0.918622 0.940467
Si Si6 0.169995 0.251529 0.175264
O O1 0.227245 0.897323 0.061652
O O2 0.331816 0.874643 0.053396
O O3 0.213702 0.786299 0.000000
O O4 0.289138 0.911589 0.949666
O O5 0.882869 0.117132 0.500000
O O6 0.875785 0.104346 0.628237
O O7 0.799405 0.000000 0.553526
O O8 0.426206 0.533658 0.250000
O O9 0.458829 0.458829 0.172257
O O10 0.340628 0.456125 0.156324
O O11 0.460074 0.567940 0.126608
O O12 0.110191 0.333549 0.662952
O O13 0.000000 0.341395 0.645950
O O14 0.560717 0.000000 0.938963
O O15 0.451045 0.902089 0.000000
O O16 0.143989 0.239982 0.250000
O O17 0.206303 0.206303 0.158082
#
# Coordination Sequence:
#
# PCOD8329755 Si02
#       6
#    24  24  24  24  24  24
#     4  11  20  31  50  76 104 134 169 208 249 304
#     4  11  21  34  53  75 103 136 172 214 263 318
#     4   9  17  28  47  76 105 131 159 197 243 291
#     4  10  16  29  51  77 104 129 163 205 249 296
#     4  10  18  30  50  74 101 130 162 202 248 295
#     4  10  20  34  53  77 104 134 170 214 262 313
#
# _framework density 16.486550000000001
#
# number of rings (size 3 to 8) (size 9 to 14) (size 15 to 20)
#    0.000    1.833    5.000    2.500    0.000    2.333 
#    0.000    0.833    0.000    5.333    0.000    0.000 
#    0.000    0.000    0.000    0.000    0.000    0.000 
#
# Total GULP energy -1785437.412527 kJ/mol
# GULP energy per Si atom -12398.870920 kJ/mol
# Density = 1.644903 g / cm^3
# Si number density = 16.486550 Si / 1000 Ang^3
#
#
#
# Elastic Constant Matrix: (Units=GPa)
#
#
# Indices 1 2 3 4 5 6 
#
# 1 82.8283 48.1184 35.1373 0.0000 0.0000 0.0000
# 2 48.1184 82.8283 35.1373 0.0000 0.0000 0.0000
# 3 35.1373 35.1373 108.6577 0.0000 0.0000 0.0000
# 4 0.0000 0.0000 0.0000 23.6045 0.0000 0.0000
# 5 0.0000 0.0000 0.0000 0.0000 23.6045 0.0000
# 6 0.0000 0.0000 0.0000 0.0000 0.0000 17.3549
#
#
#
# Elastic Compliance Matrix: (Units=1/GPa)
#
#
# Indices 1 2 3 4 5 6 
#
# 1 0.019025 -0.009785 -0.002988 0.000000 0.000000 0.000000
# 2 -0.009785 0.019025 -0.002988 0.000000 0.000000 0.000000
# 3 -0.002988 -0.002988 0.011136 0.000000 0.000000 0.000000
# 4 0.000000 0.000000 0.000000 0.042365 0.000000 0.000000
# 5 0.000000 0.000000 0.000000 0.000000 0.042365 0.000000
# 6 0.000000 0.000000 0.000000 0.000000 0.000000 0.057620
#
#
# Mechanical properties :
#
#
# Convention : Reuss Voigt Hill
#
# Bulk Modulus (GPa) = 56.61234 56.78895 56.70064
# Shear Modulus (GPa) = 21.83916 23.30756 22.57336
#
# Velocity S-wave (km/s) = 3.64354 3.76404 3.70428
# Velocity P-wave (km/s) = 7.21897 7.30829 7.26377
#
# Compressibility (1/GPa) = 0.01766399
#
# Stress axis : x y z
#
# Youngs Moduli (GPa) = 52.56168 52.56168 89.80070
#
# Poissons Ratio (x) = 0.51431 0.26833
# Poissons Ratio (y) = 0.51431 0.26833
# Poissons Ratio (z) = 0.15706 0.15706
#
# Static dielectric constant tensor:
#      x y z
#    x 3.002770 0.000000 0.000000 
#    y 0.000000 3.002770 0.000000 
#    z 0.000000 0.000000 3.229990 
# 
# 
# High freq. dielectric constant tensor:
#      x y z
#    x 1.610700 0.000000 0.000000 
#    y 0.000000 1.610700 0.000000 
#    z 0.000000 0.000000 1.640290 
# 
# From -- ./inp_files/6572.got.cif
#   From: 2010.03.12/outbox.cif.g09.slc.cpg/sg193_4_cif.got.tgz:6572.got - 2010.04.01 12:20:39.
