data_PCOD8329315
_publ_section_title
;
Structure prediction by ZEFSAII (Michael W. Deem and Ramdas Pophale) SiO2 
 PCOD8329315
Probable space group: P 6/M M M
;
_chemical_formula_sum "Si O2"
_cell_formula_units_Z 96
_cell_length_a 18.689511
_cell_length_b 18.689511
_cell_length_c 19.589569
_cell_angle_alpha 90.000000
_cell_angle_beta 90.000000
_cell_angle_gamma 120.000000
_cell_volume 5925.860036
_symmetry_space_group_name_H-M "P 6/M M M"
_symmetry_group_IT_number 191
_symmetry_cell_setting 'hexagonal'
loop_
_space_group_symop_operation_xyz
x,y,z
x-y,x,z
-y,x-y,z
-x,-y,z
-x+y,-x,z
y,-x+y,z
x-y,-y,-z
-x,-x+y,-z
y,x,-z
-y,-x,-z
-x+y,y,-z
x,x-y,-z
-x,-y,-z
-x+y,-x,-z
y,-x+y,-z
x,y,-z
x-y,x,-z
-y,x-y,-z
-x+y,y,z
x,x-y,z
-y,-x,z
y,x,z
x-y,-y,z
-x,-x+y,z
loop_
_atom_site_type_symbol
_atom_site_label
_atom_site_fract_x
_atom_site_fract_y
_atom_site_fract_z
Si Si1 0.091957 0.746137 0.667147
Si Si2 0.469862 0.371878 0.923851
Si Si3 0.502773 0.169121 0.578861
Si Si4 0.906429 0.655233 0.175864
O O1 0.158760 0.841241 0.648800
O O2 0.106886 0.682823 0.622957
O O3 0.098577 0.726271 0.745909
O O4 0.000000 0.730091 0.651206
O O5 0.566267 0.433734 0.905086
O O6 0.423208 0.423208 0.921851
O O7 0.427756 0.298402 0.869283
O O8 0.463281 0.335250 0.000000
O O9 0.480772 0.145046 0.500000
O O10 0.579628 0.159255 0.602022
O O11 0.526593 0.263297 0.592059
O O12 0.847153 0.694305 0.163828
O O13 0.000000 0.723831 0.155304
#
# Coordination Sequence:
#
# PCOD8329315 Si02
#       4
#    24  24  24  24
#     4   9  18  31  45  62  85 113 144 179 220 261
#     4   8  14  25  41  61  84 109 137 169 205 245
#     4   9  17  29  45  65  90 119 147 172 200 240
#     4   9  17  29  45  64  86 113 145 180 217 258
#
# _framework density 16.20018
#
# number of rings (size 3 to 8) (size 9 to 14) (size 15 to 20)
#    0.000    3.250    0.000    1.000    0.000    3.500 
#    0.000    3.750    0.000    1.000    0.000    3.500 
#    0.000    0.000    0.000   12.500    0.000   13.000 
#
# Total GULP energy -1189830.564570 kJ/mol
# GULP energy per Si atom -12394.068381 kJ/mol
# Density = 1.616331 g / cm^3
# Si number density = 16.200180 Si / 1000 Ang^3
#
#
#
# Elastic Constant Matrix: (Units=GPa)
#
#
# Indices 1 2 3 4 5 6 
#
# 1 94.8199 59.5030 46.4844 0.0000 0.0000 0.0000
# 2 59.5030 94.8199 46.4844 0.0000 0.0000 0.0000
# 3 46.4844 46.4844 61.4796 0.0000 0.0000 0.0000
# 4 0.0000 0.0000 0.0000 21.3678 0.0000 0.0000
# 5 0.0000 0.0000 0.0000 0.0000 21.3678 0.0000
# 6 0.0000 0.0000 0.0000 0.0000 0.0000 17.6584
#
#
#
# Elastic Compliance Matrix: (Units=1/GPa)
#
#
# Indices 1 2 3 4 5 6 
#
# 1 0.020108 -0.008207 -0.008998 0.000000 0.000000 0.000000
# 2 -0.008207 0.020108 -0.008998 0.000000 0.000000 0.000000
# 3 -0.008998 -0.008998 0.029872 0.000000 0.000000 0.000000
# 4 0.000000 0.000000 0.000000 0.046799 0.000000 0.000000
# 5 0.000000 0.000000 0.000000 0.000000 0.046799 0.000000
# 6 0.000000 0.000000 0.000000 0.000000 0.000000 0.056630
#
#
# Mechanical properties :
#
#
# Convention : Reuss Voigt Hill
#
# Bulk Modulus (GPa) = 56.55633 61.78476 59.17055
# Shear Modulus (GPa) = 17.94579 18.65531 18.30055
#
# Velocity S-wave (km/s) = 3.33190 3.39713 3.36467
# Velocity P-wave (km/s) = 7.05612 7.32178 7.19018
#
# Compressibility (1/GPa) = 0.01768149
#
# Stress axis : x y z
#
# Youngs Moduli (GPa) = 49.73188 49.73188 33.47599
#
# Poissons Ratio (x) = 0.40816 0.30122
# Poissons Ratio (y) = 0.40816 0.30122
# Poissons Ratio (z) = 0.44748 0.44748
#
# Static dielectric constant tensor:
#      x y z
#    x 3.053350 0.000000 0.000000 
#    y 0.000000 3.053350 0.000000 
#    z 0.000000 0.000000 3.197350 
# 
# 
# High freq. dielectric constant tensor:
#      x y z
#    x 1.605090 0.000000 0.000000 
#    y 0.000000 1.605090 0.000000 
#    z 0.000000 0.000000 1.626160 
# 
# From -- ./inp_files/4187.got.cif
#   From: 2010.03.12/outbox.cif.g09.slc.cpg/sg191_3_cif.got.tgz:4187.got - 2010.04.01 12:09:02.
