data_PCOD8329060
_publ_section_title
;
Structure prediction by ZEFSAII (Michael W. Deem and Ramdas Pophale) SiO2 
 PCOD8329060
Probable space group: P 6/M M M
;
_chemical_formula_sum "Si O2"
_cell_formula_units_Z 144
_cell_length_a 31.397480
_cell_length_b 31.397480
_cell_length_c 9.495460
_cell_angle_alpha 90.000000
_cell_angle_beta 90.000000
_cell_angle_gamma 120.000000
_cell_volume 8106.552978
_symmetry_space_group_name_H-M "P 6/M M M"
_symmetry_group_IT_number 191
_symmetry_cell_setting 'hexagonal'
loop_
_space_group_symop_operation_xyz
x,y,z
x-y,x,z
-y,x-y,z
-x,-y,z
-x+y,-x,z
y,-x+y,z
x-y,-y,-z
-x,-x+y,-z
y,x,-z
-y,-x,-z
-x+y,y,-z
x,x-y,-z
-x,-y,-z
-x+y,-x,-z
y,-x+y,-z
x,y,-z
x-y,x,-z
-y,x-y,-z
-x+y,y,z
x,x-y,z
-y,-x,z
y,x,z
x-y,-y,z
-x,-x+y,z
loop_
_atom_site_type_symbol
_atom_site_label
_atom_site_fract_x
_atom_site_fract_y
_atom_site_fract_z
Si Si1 0.577113 0.056455 0.663979
Si Si2 0.146963 0.200475 0.667657
Si Si3 0.662031 0.522564 0.837302
Si Si4 0.056164 0.298241 0.663688
Si Si5 0.858688 0.620103 0.162187
Si Si6 0.570831 0.333149 0.167761
O O1 0.590068 0.066260 0.500000
O O2 0.534090 0.068180 0.703358
O O3 0.625645 0.090761 0.752104
O O4 0.559592 0.000000 0.701267
O O5 0.145343 0.199383 0.500000
O O6 0.095174 0.190347 0.731854
O O7 0.158528 0.158528 0.723132
O O8 0.189891 0.253718 0.716217
O O9 0.718136 0.564671 0.816978
O O10 0.658942 0.473134 0.777078
O O11 0.646049 0.516682 0.000000
O O12 0.069325 0.309138 0.500000
O O13 0.092452 0.345909 0.750537
O O14 0.000000 0.284611 0.691197
O O15 0.812123 0.624246 0.217043
O O16 0.869335 0.636064 0.000000
O O17 0.565099 0.282550 0.228590
O O18 0.621978 0.378023 0.223259
O O19 0.569621 0.331092 0.000000
#
# Coordination Sequence:
#
# PCOD8329060 Si02
#       6
#    24  24  24  24  24  24
#     4   9  19  36  55  74  98 128 161 199 244 289
#     4   8  13  22  38  60  84 110 143 185 230 272
#     4  10  20  33  50  73 100 129 162 198 234 278
#     4   9  18  32  50  71  92 118 159 208 249 286
#     4  10  21  35  49  68  99 136 166 195 240 295
#     4   9  16  27  46  72  99 124 152 189 232 275
#
# _framework density 17.763407999999998
#
# number of rings (size 3 to 8) (size 9 to 14) (size 15 to 20)
#    0.000    2.833    0.000    3.167    0.000    6.667 
#    0.000    4.167    0.000    1.667    0.000    1.167 
#    0.000    1.333    0.000    0.000    0.000    0.000 
#
# Total GULP energy -1785364.774585 kJ/mol
# GULP energy per Si atom -12398.366490 kJ/mol
# Density = 1.772298 g / cm^3
# Si number density = 17.763408 Si / 1000 Ang^3
#
#
#
# Elastic Constant Matrix: (Units=GPa)
#
#
# Indices 1 2 3 4 5 6 
#
# 1 111.0374 47.9498 36.3858 0.0000 0.0000 0.0000
# 2 47.9498 111.0374 36.3858 0.0000 0.0000 0.0000
# 3 36.3858 36.3858 39.3305 0.0000 0.0000 0.0000
# 4 0.0000 0.0000 0.0000 21.2932 0.0000 0.0000
# 5 0.0000 0.0000 0.0000 0.0000 21.2932 0.0000
# 6 0.0000 0.0000 0.0000 0.0000 0.0000 31.5438
#
#
#
# Elastic Compliance Matrix: (Units=1/GPa)
#
#
# Indices 1 2 3 4 5 6 
#
# 1 0.013380 -0.002471 -0.010093 0.000000 0.000000 0.000000
# 2 -0.002471 0.013380 -0.010093 0.000000 0.000000 0.000000
# 3 -0.010093 -0.010093 0.044099 0.000000 0.000000 0.000000
# 4 0.000000 0.000000 0.000000 0.046963 0.000000 0.000000
# 5 0.000000 0.000000 0.000000 0.000000 0.046963 0.000000
# 6 0.000000 0.000000 0.000000 0.000000 0.000000 0.031702
#
#
# Mechanical properties :
#
#
# Convention : Reuss Voigt Hill
#
# Bulk Modulus (GPa) = 39.14223 55.87201 47.50712
# Shear Modulus (GPa) = 19.97474 24.20500 22.08987
#
# Velocity S-wave (km/s) = 3.35698 3.69539 3.53024
# Velocity P-wave (km/s) = 6.09171 7.05192 6.58933
#
# Compressibility (1/GPa) = 0.02554785
#
# Stress axis : x y z
#
# Youngs Moduli (GPa) = 74.73743 74.73743 22.67602
#
# Poissons Ratio (x) = 0.18466 0.22886
# Poissons Ratio (y) = 0.18466 0.22886
# Poissons Ratio (z) = 0.75430 0.75430
#
# Static dielectric constant tensor:
#      x y z
#    x 3.397400 0.000000 0.000000 
#    y 0.000000 3.397400 0.000000 
#    z 0.000000 0.000000 2.865240 
# 
# 
# High freq. dielectric constant tensor:
#      x y z
#    x 1.693870 0.000000 0.000000 
#    y 0.000000 1.693870 0.000000 
#    z 0.000000 0.000000 1.641860 
# 
# From -- ./inp_files/1995.got.cif
#   From: 2010.03.12/outbox.cif.g09.slc.cpg/sg191_1_cif.got.tgz:1995.got - 2010.04.01 12:09:02.
