data_PCOD8329825
_publ_section_title
;
Structure prediction by ZEFSAII (Michael W. Deem and Ramdas Pophale) SiO2 
 PCOD8329825
Probable space group: P 63/M C M
;
_chemical_formula_sum "Si O2"
_cell_formula_units_Z 96
_cell_length_a 27.616732
_cell_length_b 27.616732
_cell_length_c 9.785456
_cell_angle_alpha 90.000000
_cell_angle_beta 90.000000
_cell_angle_gamma 120.000000
_cell_volume 6463.329118
_symmetry_space_group_name_H-M "P 63/M C M"
_symmetry_group_IT_number 193
_symmetry_cell_setting 'hexagonal'
loop_
_space_group_symop_operation_xyz
x,y,z
x-y,x,1/2+z
-y,x-y,z
-x,-y,1/2+z
-x+y,-x,z
y,-x+y,1/2+z
x-y,-y,1/2-z
-x,-x+y,1/2-z
y,x,1/2-z
-y,-x,-z
-x+y,y,-z
x,x-y,-z
-x,-y,-z
-x+y,-x,1/2-z
y,-x+y,-z
x,y,1/2-z
x-y,x,-z
-y,x-y,1/2-z
-x+y,y,1/2+z
x,x-y,1/2+z
-y,-x,1/2+z
y,x,z
x-y,-y,z
-x,-x+y,z
loop_
_atom_site_type_symbol
_atom_site_label
_atom_site_fract_x
_atom_site_fract_y
_atom_site_fract_z
Si Si1 0.754806 0.821430 0.750000
Si Si2 0.066531 0.489012 0.593203
Si Si3 0.778119 0.839967 0.250000
Si Si4 0.402539 0.335827 0.596805
Si Si5 0.765774 0.063741 0.989231
O O1 0.797168 0.797168 0.750000
O O2 0.793886 0.889187 0.750000
O O3 0.711512 0.801814 0.624672
O O4 0.088787 0.544394 0.500000
O O5 0.089757 0.502911 0.750000
O O6 0.087932 0.451306 0.516563
O O7 0.000000 0.457003 0.599040
O O8 0.833950 0.833950 0.250000
O O9 0.740355 0.809461 0.378076
O O10 0.426933 0.339211 0.750000
O O11 0.367641 0.367641 0.599389
O O12 0.362697 0.270464 0.556496
O O13 0.721329 0.000000 0.022561
#
# Coordination Sequence:
#
# PCOD8329825 Si02
#       5
#    12  24  12  24  24
#     4  10  20  30  44  65  85  99 123 163 207 261
#     4   9  16  23  32  48  71 100 133 166 197 223
#     4  10  18  32  48  61  79 105 129 155 203 269
#     4   9  15  24  37  51  71  99 129 160 194 232
#     4   9  17  28  42  60  79 100 126 157 198 247
#
# _framework density 14.853027000000001
#
# number of rings (size 3 to 8) (size 9 to 14) (size 15 to 20)
#    0.000    2.750    1.250    1.500    1.750    3.000 
#    0.000    0.000    0.000    0.250    0.000    0.000 
#    0.000    6.000    0.000    0.000    0.000    1.000 
#
# Total GULP energy -1189316.894851 kJ/mol
# GULP energy per Si atom -12388.717655 kJ/mol
# Density = 1.481922 g / cm^3
# Si number density = 14.853027 Si / 1000 Ang^3
#
#
#
# Elastic Constant Matrix: (Units=GPa)
#
#
# Indices 1 2 3 4 5 6 
#
# 1 51.2072 23.5369 31.5752 0.0000 0.0000 0.0000
# 2 23.5369 51.2072 31.5752 0.0000 0.0000 0.0000
# 3 31.5752 31.5752 141.8570 0.0000 0.0000 0.0000
# 4 0.0000 0.0000 0.0000 -16.7769 0.0000 0.0000
# 5 0.0000 0.0000 0.0000 0.0000 -16.7769 0.0000
# 6 0.0000 0.0000 0.0000 0.0000 0.0000 13.8351
#
#
#
# Elastic Compliance Matrix: (Units=1/GPa)
#
#
# Indices 1 2 3 4 5 6 
#
# 1 0.026309 -0.009831 -0.003668 0.000000 0.000000 0.000000
# 2 -0.009831 0.026309 -0.003668 0.000000 0.000000 0.000000
# 3 -0.003668 -0.003668 0.008682 0.000000 0.000000 0.000000
# 4 0.000000 0.000000 0.000000 -0.059606 0.000000 0.000000
# 5 0.000000 0.000000 0.000000 0.000000 -0.059606 0.000000
# 6 0.000000 0.000000 0.000000 0.000000 0.000000 0.072280
#
#
# Mechanical properties :
#
#
# Convention : Reuss Voigt Hill
#
# Bulk Modulus (GPa) = 37.08255 46.40509 41.74382
# Shear Modulus (GPa) = 86.67082 6.56189 46.61635
#
# Velocity S-wave (km/s) = 7.64715 2.10416 5.60832
# Velocity P-wave (km/s) = 10.14852 6.10033 8.37277
#
# Compressibility (1/GPa) = 0.02696686
#
# Stress axis : x y z
#
# Youngs Moduli (GPa) = 38.01008 38.01008 115.17957
#
# Poissons Ratio (x) = 0.37368 0.42244
# Poissons Ratio (y) = 0.37368 0.42244
# Poissons Ratio (z) = 0.13941 0.13941
#
# Static dielectric constant tensor:
#      x y z
#    x 2.650440 0.000000 0.000000 
#    y 0.000000 2.650440 0.000000 
#    z 0.000000 0.000000 3.159330 
# 
# 
# High freq. dielectric constant tensor:
#      x y z
#    x 1.519560 0.000000 0.000000 
#    y 0.000000 1.519560 0.000000 
#    z 0.000000 0.000000 1.597110 
# 
# From -- ./inp_files/1233.got.cif
#   From: 2010.03.12/outbox.cif.g09.slc.cpg/sg193_1_cif.got.tgz:1233.got - 2010.04.01 12:20:39.
