data_PCOD8329008
_publ_section_title
;
Structure prediction by ZEFSAII (Michael W. Deem and Ramdas Pophale) SiO2 
 PCOD8329008
Probable space group: P 6/M M M
;
_chemical_formula_sum "Si O2"
_cell_formula_units_Z 108
_cell_length_a 17.805736
_cell_length_b 17.805736
_cell_length_c 23.254610
_cell_angle_alpha 90.000000
_cell_angle_beta 90.000000
_cell_angle_gamma 120.000000
_cell_volume 6384.980158
_symmetry_space_group_name_H-M "P 6/M M M"
_symmetry_group_IT_number 191
_symmetry_cell_setting 'hexagonal'
loop_
_space_group_symop_operation_xyz
x,y,z
x-y,x,z
-y,x-y,z
-x,-y,z
-x+y,-x,z
y,-x+y,z
x-y,-y,-z
-x,-x+y,-z
y,x,-z
-y,-x,-z
-x+y,y,-z
x,x-y,-z
-x,-y,-z
-x+y,-x,-z
y,-x+y,-z
x,y,-z
x-y,x,-z
-y,x-y,-z
-x+y,y,z
x,x-y,z
-y,-x,z
y,x,z
x-y,-y,z
-x,-x+y,z
loop_
_atom_site_type_symbol
_atom_site_label
_atom_site_fract_x
_atom_site_fract_y
_atom_site_fract_z
Si Si1 0.264329 0.361842 0.065108
Si Si2 0.531868 0.897987 0.167602
Si Si3 0.267103 0.365510 0.273075
Si Si4 0.840365 0.507559 0.500000
Si Si5 0.489540 0.156725 0.624374
O O1 0.161247 0.322494 0.073342
O O2 0.285655 0.285655 0.080148
O O3 0.316180 0.443924 0.106797
O O4 0.292875 0.395463 0.000000
O O5 0.427320 0.854639 0.171145
O O6 0.567606 0.865919 0.219830
O O7 0.574012 0.000000 0.172428
O O8 0.163511 0.327022 0.280100
O O9 0.286809 0.286809 0.263149
O O10 0.319226 0.417533 0.329402
O O11 0.744731 0.489461 0.500000
O O12 0.829947 0.414974 0.500000
O O13 0.884434 0.552622 0.438960
O O14 0.576004 0.152007 0.636069
O O15 0.512921 0.256461 0.629276
#
# Coordination Sequence:
#
# PCOD8329008 Si02
#       5
#    24  24  24  12  24
#     4   9  17  29  46  68  93 122 157 196 236 276
#     4   9  17  29  46  68  91 114 142 176 214 259
#     4  10  20  33  49  68  90 117 149 186 227 269
#     4   8  13  22  37  59  88 121 154 184 215 254
#     4   9  16  26  42  65  93 124 155 185 217 256
#
# _framework density 16.914695999999999
#
# number of rings (size 3 to 8) (size 9 to 14) (size 15 to 20)
#    0.000    2.889    0.000    1.667    0.000    3.556 
#    0.000    2.778    0.000    7.333    0.000    1.556 
#    0.000    5.333    0.000    0.222    0.000   13.111 
#
# Total GULP energy -1338001.701270 kJ/mol
# GULP energy per Si atom -12388.904641 kJ/mol
# Density = 1.687620 g / cm^3
# Si number density = 16.914696 Si / 1000 Ang^3
#
#
#
# Elastic Constant Matrix: (Units=GPa)
#
#
# Indices 1 2 3 4 5 6 
#
# 1 71.3322 38.6878 33.1931 0.0000 0.0000 0.0000
# 2 38.6878 71.3322 33.1931 0.0000 0.0000 0.0000
# 3 33.1931 33.1931 121.4894 0.0000 0.0000 0.0000
# 4 0.0000 0.0000 0.0000 19.2771 0.0000 0.0000
# 5 0.0000 0.0000 0.0000 0.0000 19.2771 0.0000
# 6 0.0000 0.0000 0.0000 0.0000 0.0000 16.3222
#
#
#
# Elastic Compliance Matrix: (Units=1/GPa)
#
#
# Indices 1 2 3 4 5 6 
#
# 1 0.020758 -0.009875 -0.002974 0.000000 0.000000 0.000000
# 2 -0.009875 0.020758 -0.002974 0.000000 0.000000 0.000000
# 3 -0.002974 -0.002974 0.009856 0.000000 0.000000 0.000000
# 4 0.000000 0.000000 0.000000 0.051875 0.000000 0.000000
# 5 0.000000 0.000000 0.000000 0.000000 0.051875 0.000000
# 6 0.000000 0.000000 0.000000 0.000000 0.000000 0.061266
#
#
# Mechanical properties :
#
#
# Convention : Reuss Voigt Hill
#
# Bulk Modulus (GPa) = 50.68739 52.70021 51.69380
# Shear Modulus (GPa) = 19.63795 21.58060 20.60927
#
# Velocity S-wave (km/s) = 3.41104 3.57578 3.49438
# Velocity P-wave (km/s) = 6.74871 6.94783 6.84900
#
# Compressibility (1/GPa) = 0.01972877
#
# Stress axis : x y z
#
# Youngs Moduli (GPa) = 48.17344 48.17344 101.46062
#
# Poissons Ratio (x) = 0.47570 0.30170
# Poissons Ratio (y) = 0.47570 0.30170
# Poissons Ratio (z) = 0.14325 0.14325
#
# Static dielectric constant tensor:
#      x y z
#    x 2.949430 0.000000 0.000000 
#    y 0.000000 2.949430 0.000000 
#    z 0.000000 0.000000 3.715960 
# 
# 
# High freq. dielectric constant tensor:
#      x y z
#    x 1.621030 0.000000 0.000000 
#    y 0.000000 1.621030 0.000000 
#    z 0.000000 0.000000 1.679440 
# 
# From -- ./inp_files/8401.got.cif
#   From: 2010.03.12/outbox.cif.g09.slc.cpg/sg191_5_cif.got.tgz:8401.got - 2010.04.01 12:09:02.
