data_PCOD8329793
_publ_section_title
;
Structure prediction by ZEFSAII (Michael W. Deem and Ramdas Pophale) SiO2 
 PCOD8329793
Probable space group: P 63/M C M
;
_chemical_formula_sum "Si O2"
_cell_formula_units_Z 192
_cell_length_a 23.195478
_cell_length_b 23.195478
_cell_length_c 24.232363
_cell_angle_alpha 90.000000
_cell_angle_beta 90.000000
_cell_angle_gamma 120.000000
_cell_volume 11291.016735
_symmetry_space_group_name_H-M "P 63/M C M"
_symmetry_group_IT_number 193
_symmetry_cell_setting 'hexagonal'
loop_
_space_group_symop_operation_xyz
x,y,z
x-y,x,1/2+z
-y,x-y,z
-x,-y,1/2+z
-x+y,-x,z
y,-x+y,1/2+z
x-y,-y,1/2-z
-x,-x+y,1/2-z
y,x,1/2-z
-y,-x,-z
-x+y,y,-z
x,x-y,-z
-x,-y,-z
-x+y,-x,1/2-z
y,-x+y,-z
x,y,1/2-z
x-y,x,-z
-y,x-y,1/2-z
-x+y,y,1/2+z
x,x-y,1/2+z
-y,-x,1/2+z
y,x,z
x-y,-y,z
-x,-x+y,z
loop_
_atom_site_type_symbol
_atom_site_label
_atom_site_fract_x
_atom_site_fract_y
_atom_site_fract_z
Si Si1 0.743833 0.256168 0.812304
Si Si2 0.719916 0.075975 0.113370
Si Si3 0.356060 0.075976 0.113371
Si Si4 0.491403 0.636474 0.117424
Si Si5 0.177223 0.354446 0.811149
Si Si6 0.295189 0.215711 0.500000
Si Si7 0.795165 0.460302 1.000000
Si Si8 0.145071 0.636474 0.382576
O O1 0.728913 0.271089 0.750000
O O2 0.675602 0.211808 0.845690
O O3 0.783234 0.216767 0.809756
O O4 0.788191 0.324398 0.845691
O O5 0.779822 0.109094 0.156477
O O6 0.749879 0.094221 0.051750
O O7 0.662586 0.093896 0.128068
O O8 0.689147 0.000000 0.125479
O O9 0.431310 0.093896 0.128068
O O10 0.329273 0.109094 0.156479
O O11 0.310853 0.000000 0.125478
O O12 0.344342 0.094223 0.051752
O O13 0.442567 0.557433 0.130199
O O14 0.489670 0.649171 0.053088
O O15 0.161874 0.323750 0.750000
O O16 0.269607 0.134804 0.500000
O O17 0.234516 0.234516 0.500001
O O18 0.840499 0.489670 0.053087
O O19 0.742066 0.484131 0.000000
O O20 0.760073 0.380037 0.000000
#
# Coordination Sequence:
#
# PCOD8329793 Si02
#       8
#    24  24  24  24  24  24  24  24
#     4   9  18  33  49  65  87 122 167 213 260 310
#     4  10  20  33  52  77 103 133 167 205 250 299
#     4  10  20  33  52  77 103 133 167 205 250 299
#     4  10  20  32  48  69  95 129 167 210 262 312
#     4   9  18  33  53  73  97 128 163 206 251 294
#     4  10  19  33  56  84 111 137 165 197 237 288
#     4  10  18  29  46  67  91 120 157 205 255 304
#     4  10  20  32  48  69  95 129 167 210 262 312
#
# _framework density 17.004669
#
# number of rings (size 3 to 8) (size 9 to 14) (size 15 to 20)
#    0.000    2.250    2.500    0.875    0.000    2.500 
#    0.750    0.000    0.000    4.625    0.000    7.000 
#    0.000    0.000    0.000    0.000    0.000   11.375 
#
# Total GULP energy -2378993.445449 kJ/mol
# GULP energy per Si atom -12390.590862 kJ/mol
# Density = 1.696597 g / cm^3
# Si number density = 17.004669 Si / 1000 Ang^3
#
#
#
# Elastic Constant Matrix: (Units=GPa)
#
#
# Indices 1 2 3 4 5 6 
#
# 1 87.0495 48.4515 35.7930 0.0000 0.0000 0.0000
# 2 48.4515 87.0495 35.7930 0.0000 0.0000 0.0000
# 3 35.7930 35.7930 131.2679 0.0000 0.0000 0.0000
# 4 0.0000 0.0000 0.0000 22.4142 0.0000 0.0000
# 5 0.0000 0.0000 0.0000 0.0000 22.4142 0.0000
# 6 0.0000 0.0000 0.0000 0.0000 0.0000 19.2990
#
#
#
# Elastic Compliance Matrix: (Units=1/GPa)
#
#
# Indices 1 2 3 4 5 6 
#
# 1 0.017265 -0.008643 -0.002351 0.000000 0.000000 0.000000
# 2 -0.008643 0.017265 -0.002351 0.000000 0.000000 0.000000
# 3 -0.002351 -0.002351 0.008900 0.000000 0.000000 0.000000
# 4 0.000000 0.000000 0.000000 0.044615 0.000000 0.000000
# 5 0.000000 0.000000 0.000000 0.000000 0.044615 0.000000
# 6 0.000000 0.000000 0.000000 0.000000 0.000000 0.051816
#
#
# Mechanical properties :
#
#
# Convention : Reuss Voigt Hill
#
# Bulk Modulus (GPa) = 59.73620 60.60466 60.17043
# Shear Modulus (GPa) = 23.06852 25.18077 24.12465
#
# Velocity S-wave (km/s) = 3.68720 3.85231 3.77066
# Velocity P-wave (km/s) = 7.30293 7.45013 7.37690
#
# Compressibility (1/GPa) = 0.01674027
#
# Stress axis : x y z
#
# Youngs Moduli (GPa) = 57.92045 57.92045 112.35827
#
# Poissons Ratio (x) = 0.50061 0.26415
# Poissons Ratio (y) = 0.50061 0.26415
# Poissons Ratio (z) = 0.13617 0.13617
#
# Static dielectric constant tensor:
#      x y z
#    x 3.110730 0.000000 0.000000 
#    y 0.000000 3.110730 0.000000 
#    z 0.000000 0.000000 3.454400 
# 
# 
# High freq. dielectric constant tensor:
#      x y z
#    x 1.634620 0.000000 0.000000 
#    y 0.000000 1.634620 0.000000 
#    z 0.000000 0.000000 1.666630 
# 
# From -- ./inp_files/6920.got.cif
#   From: 2010.03.12/outbox.cif.g09.slc.cpg/sg193_4_cif.got.tgz:6920.got - 2010.04.01 12:20:39.
