data_PCOD8329126
_publ_section_title
;
Structure prediction by ZEFSAII (Michael W. Deem and Ramdas Pophale) SiO2 
 PCOD8329126
Probable space group: P 6/M M M
;
_chemical_formula_sum "Si O2"
_cell_formula_units_Z 144
_cell_length_a 21.569930
_cell_length_b 21.569930
_cell_length_c 19.902481
_cell_angle_alpha 90.000000
_cell_angle_beta 90.000000
_cell_angle_gamma 120.000000
_cell_volume 8019.278959
_symmetry_space_group_name_H-M "P 6/M M M"
_symmetry_group_IT_number 191
_symmetry_cell_setting 'hexagonal'
loop_
_space_group_symop_operation_xyz
x,y,z
x-y,x,z
-y,x-y,z
-x,-y,z
-x+y,-x,z
y,-x+y,z
x-y,-y,-z
-x,-x+y,-z
y,x,-z
-y,-x,-z
-x+y,y,-z
x,x-y,-z
-x,-y,-z
-x+y,-x,-z
y,-x+y,-z
x,y,-z
x-y,x,-z
-y,x-y,-z
-x+y,y,z
x,x-y,z
-y,-x,z
y,x,z
x-y,-y,z
-x,-x+y,z
loop_
_atom_site_type_symbol
_atom_site_label
_atom_site_fract_x
_atom_site_fract_y
_atom_site_fract_z
Si Si1 0.854337 0.000000 0.662670
Si Si2 0.863709 0.583224 0.575289
Si Si3 0.725821 0.594315 0.923383
Si Si4 0.613461 0.532070 0.188891
Si Si5 0.143322 0.143322 0.183861
Si Si6 0.000000 0.271171 0.579405
Si Si7 0.750165 0.750165 0.924271
Si Si8 0.187486 0.666656 0.692744
O O1 0.861112 0.930556 0.646918
O O2 0.831291 0.000000 0.739881
O O3 0.794379 0.000000 0.616061
O O4 0.876604 0.564016 0.500000
O O5 0.800277 0.600553 0.576950
O O6 0.845805 0.515258 0.621300
O O7 0.932098 0.654577 0.602173
O O8 0.793195 0.586390 0.902179
O O9 0.658835 0.543228 0.877876
O O10 0.745838 0.675240 0.912525
O O11 0.703178 0.570258 0.000000
O O12 0.541443 0.458558 0.178280
O O13 0.596175 0.596175 0.200608
O O14 0.657457 0.528003 0.251926
O O15 0.067549 0.135097 0.169484
O O16 0.198330 0.198330 0.131648
O O17 0.000000 0.257987 0.500000
O O18 0.778154 0.778154 0.000000
O O19 0.202714 0.601357 0.691922
O O20 0.261310 0.738691 0.708200
#
# Coordination Sequence:
#
# PCOD8329126 Si02
#       8
#    12  24  24  24  12  12  12  24
#     4  10  21  36  54  77 105 140 183 231 281 330
#     4   9  19  35  54  79 109 140 179 224 268 320
#     4  10  20  35  56  81 110 143 179 222 272 324
#     4  10  21  36  55  81 112 144 180 224 270 321
#     4  10  21  36  52  71  99 136 177 221 269 322
#     4  10  20  35  56  78 106 145 181 220 275 332
#     4  10  20  35  54  78 106 137 175 222 271 320
#     4  10  21  37  58  82 111 146 183 224 271 323
#
# _framework density 17.956727000000001
#
# number of rings (size 3 to 8) (size 9 to 14) (size 15 to 20)
#    0.000    2.167    0.833    1.833    1.167    4.667 
#    0.000    2.500    0.000    3.833    0.000    0.000 
#    0.000    0.000    0.000    0.000    0.000    0.000 
#
# Total GULP energy -1785792.922472 kJ/mol
# GULP energy per Si atom -12401.339739 kJ/mol
# Density = 1.791586 g / cm^3
# Si number density = 17.956727 Si / 1000 Ang^3
#
#
#
# Elastic Constant Matrix: (Units=GPa)
#
#
# Indices 1 2 3 4 5 6 
#
# 1 82.7672 51.1153 58.0674 0.0000 0.0000 0.0000
# 2 51.1153 82.7672 58.0674 0.0000 0.0000 0.0000
# 3 58.0674 58.0674 100.2401 0.0000 0.0000 0.0000
# 4 0.0000 0.0000 0.0000 34.1116 0.0000 0.0000
# 5 0.0000 0.0000 0.0000 0.0000 34.1116 0.0000
# 6 0.0000 0.0000 0.0000 0.0000 0.0000 15.8260
#
#
#
# Elastic Compliance Matrix: (Units=1/GPa)
#
#
# Indices 1 2 3 4 5 6 
#
# 1 0.023303 -0.008290 -0.008697 0.000000 0.000000 0.000000
# 2 -0.008290 0.023303 -0.008697 0.000000 0.000000 0.000000
# 3 -0.008697 -0.008697 0.020052 0.000000 0.000000 0.000000
# 4 0.000000 0.000000 0.000000 0.029316 0.000000 0.000000
# 5 0.000000 0.000000 0.000000 0.000000 0.029316 0.000000
# 6 0.000000 0.000000 0.000000 0.000000 0.000000 0.063187
#
#
# Mechanical properties :
#
#
# Convention : Reuss Voigt Hill
#
# Bulk Modulus (GPa) = 65.39863 66.69717 66.04790
# Shear Modulus (GPa) = 20.41297 23.37814 21.89555
#
# Velocity S-wave (km/s) = 3.37528 3.61212 3.49571
# Velocity P-wave (km/s) = 7.18952 7.39057 7.29074
#
# Compressibility (1/GPa) = 0.01529084
#
# Stress axis : x y z
#
# Youngs Moduli (GPa) = 42.91208 42.91208 49.87026
#
# Poissons Ratio (x) = 0.35575 0.43372
# Poissons Ratio (y) = 0.35575 0.43372
# Poissons Ratio (z) = 0.37320 0.37320
#
# Static dielectric constant tensor:
#      x y z
#    x 3.367360 0.000000 0.000000 
#    y 0.000000 3.367360 0.000000 
#    z 0.000000 0.000000 3.473890 
# 
# 
# High freq. dielectric constant tensor:
#      x y z
#    x 1.699340 0.000000 0.000000 
#    y 0.000000 1.699340 0.000000 
#    z 0.000000 0.000000 1.700720 
# 
# From -- ./inp_files/7701.got.cif
#   From: 2010.03.12/outbox.cif.g09.slc.cpg/sg191_4_cif.got.tgz:7701.got - 2010.04.01 12:09:02.
