data_PCOD8329260
_publ_section_title
;
Structure prediction by ZEFSAII (Michael W. Deem and Ramdas Pophale) SiO2 
 PCOD8329260
Probable space group: P 6/M M M
;
_chemical_formula_sum "Si O2"
_cell_formula_units_Z 168
_cell_length_a 21.515231
_cell_length_b 21.515231
_cell_length_c 28.161780
_cell_angle_alpha 90.000000
_cell_angle_beta 90.000000
_cell_angle_gamma 120.000000
_cell_volume 11289.709309
_symmetry_space_group_name_H-M "P 6/M M M"
_symmetry_group_IT_number 191
_symmetry_cell_setting 'hexagonal'
loop_
_space_group_symop_operation_xyz
x,y,z
x-y,x,z
-y,x-y,z
-x,-y,z
-x+y,-x,z
y,-x+y,z
x-y,-y,-z
-x,-x+y,-z
y,x,-z
-y,-x,-z
-x+y,y,-z
x,x-y,-z
-x,-y,-z
-x+y,-x,-z
y,-x+y,-z
x,y,-z
x-y,x,-z
-y,x-y,-z
-x+y,y,z
x,x-y,z
-y,-x,z
y,x,z
x-y,-y,z
-x,-x+y,z
loop_
_atom_site_type_symbol
_atom_site_label
_atom_site_fract_x
_atom_site_fract_y
_atom_site_fract_z
Si Si1 0.916573 0.390699 0.905865
Si Si2 0.481930 0.815923 0.280793
Si Si3 0.613821 0.081098 0.634099
Si Si4 0.666801 0.189526 0.445286
Si Si5 0.366313 0.254908 0.051567
Si Si6 0.782030 0.077190 0.149231
Si Si7 0.344130 0.917290 0.196236
O O1 0.890657 0.445329 0.922263
O O2 0.876024 0.321259 0.938458
O O3 0.901047 0.376362 0.850105
O O4 0.000000 0.421637 0.915314
O O5 0.400447 0.800893 0.282651
O O6 0.480101 0.740050 0.282924
O O7 0.530137 0.867121 0.323737
O O8 0.521662 0.859798 0.234066
O O9 0.536515 0.073029 0.637474
O O10 0.652744 0.119947 0.584917
O O11 0.602423 0.000000 0.636619
O O12 0.668464 0.169911 0.500000
O O13 0.604285 0.208570 0.435649
O O14 0.741341 0.258660 0.429814
O O15 0.379542 0.189771 0.049993
O O16 0.313630 0.245387 0.094756
O O17 0.336747 0.263431 0.000000
O O18 0.864975 0.135026 0.155074
O O19 0.735003 0.096741 0.183792
O O20 0.771592 0.000000 0.163686
O O21 0.395475 0.000000 0.213603
#
# Coordination Sequence:
#
# PCOD8329260 Si02
#       7
#    24  24  24  24  24  24  24
#     4   9  17  28  42  60  79  98 123 156 194 235
#     4  11  21  31  43  59  82 109 137 170 208 252
#     4   9  18  30  42  57  76 101 135 172 208 243
#     4   9  16  26  41  60  82 107 134 165 203 248
#     4   9  17  28  41  57  78 103 129 159 194 230
#     4   9  17  29  45  64  84 105 130 159 192 232
#     4   9  17  30  47  63  80 104 133 166 202 240
#
# _framework density 14.880808999999999
#
# number of rings (size 3 to 8) (size 9 to 14) (size 15 to 20)
#    0.000    2.714    0.000    3.286    0.000    4.286 
#    0.000    3.571    0.000    0.429    0.000    0.000 
#    0.000    0.000    0.000    3.571    0.000    0.000 
#
# Total GULP energy -2081724.003219 kJ/mol
# GULP energy per Si atom -12391.214305 kJ/mol
# Density = 1.484694 g / cm^3
# Si number density = 14.880809 Si / 1000 Ang^3
#
#
#
# Elastic Constant Matrix: (Units=GPa)
#
#
# Indices 1 2 3 4 5 6 
#
# 1 61.9600 45.0488 26.1631 0.0000 0.0000 0.0000
# 2 45.0488 61.9600 26.1631 0.0000 0.0000 0.0000
# 3 26.1631 26.1631 53.3354 0.0000 0.0000 0.0000
# 4 0.0000 0.0000 0.0000 9.4840 0.0000 0.0000
# 5 0.0000 0.0000 0.0000 0.0000 9.4840 0.0000
# 6 0.0000 0.0000 0.0000 0.0000 0.0000 8.4556
#
#
#
# Elastic Compliance Matrix: (Units=1/GPa)
#
#
# Indices 1 2 3 4 5 6 
#
# 1 0.035713 -0.023419 -0.006031 0.000000 0.000000 0.000000
# 2 -0.023419 0.035713 -0.006031 0.000000 0.000000 0.000000
# 3 -0.006031 -0.006031 0.024666 0.000000 0.000000 0.000000
# 4 0.000000 0.000000 0.000000 0.105441 0.000000 0.000000
# 5 0.000000 0.000000 0.000000 0.000000 0.105441 0.000000
# 6 0.000000 0.000000 0.000000 0.000000 0.000000 0.118265
#
#
# Mechanical properties :
#
#
# Convention : Reuss Voigt Hill
#
# Bulk Modulus (GPa) = 39.79136 41.33392 40.56264
# Shear Modulus (GPa) = 9.90927 10.81006 10.35967
#
# Velocity S-wave (km/s) = 2.58332 2.69818 2.64138
# Velocity P-wave (km/s) = 5.97463 6.12731 6.05145
#
# Compressibility (1/GPa) = 0.02513109
#
# Stress axis : x y z
#
# Youngs Moduli (GPa) = 28.00082 28.00082 40.54196
#
# Poissons Ratio (x) = 0.65576 0.24449
# Poissons Ratio (y) = 0.65576 0.24449
# Poissons Ratio (z) = 0.16886 0.16886
#
# Static dielectric constant tensor:
#      x y z
#    x 2.789470 0.000000 0.000000 
#    y 0.000000 2.789470 0.000000 
#    z 0.000000 0.000000 3.093630 
# 
# 
# High freq. dielectric constant tensor:
#      x y z
#    x 1.551440 0.000000 0.000000 
#    y 0.000000 1.551440 0.000000 
#    z 0.000000 0.000000 1.571650 
# 
# From -- ./inp_files/10004.got.cif
#   From: 2010.03.12/outbox.cif.g09.slc.cpg/sg191_6_cif.got.tgz:10004.got - 2010.04.01 12:09:02.
