data_PCOD8329223
_publ_section_title
;
Structure prediction by ZEFSAII (Michael W. Deem and Ramdas Pophale) SiO2 
 PCOD8329223
Probable space group: P 6/M M M
;
_chemical_formula_sum "Si O2"
_cell_formula_units_Z 156
_cell_length_a 20.907794
_cell_length_b 20.907794
_cell_length_c 22.606502
_cell_angle_alpha 90.000000
_cell_angle_beta 90.000000
_cell_angle_gamma 120.000000
_cell_volume 8558.160439
_symmetry_space_group_name_H-M "P 6/M M M"
_symmetry_group_IT_number 191
_symmetry_cell_setting 'hexagonal'
loop_
_space_group_symop_operation_xyz
x,y,z
x-y,x,z
-y,x-y,z
-x,-y,z
-x+y,-x,z
y,-x+y,z
x-y,-y,-z
-x,-x+y,-z
y,x,-z
-y,-x,-z
-x+y,y,-z
x,x-y,-z
-x,-y,-z
-x+y,-x,-z
y,-x+y,-z
x,y,-z
x-y,x,-z
-y,x-y,-z
-x+y,y,z
x,x-y,z
-y,-x,z
y,x,z
x-y,-y,z
-x,-x+y,z
loop_
_atom_site_type_symbol
_atom_site_label
_atom_site_fract_x
_atom_site_fract_y
_atom_site_fract_z
Si Si1 0.919441 0.698439 0.108305
Si Si2 0.441555 0.356197 0.280210
Si Si3 0.083982 0.617838 0.500000
Si Si4 0.220795 0.919747 0.243909
Si Si5 0.336510 0.522685 0.828838
Si Si6 0.083465 0.642659 0.066702
Si Si7 0.335680 0.817181 0.608818
O O1 0.861980 0.723959 0.089258
O O2 0.907136 0.670059 0.176247
O O3 0.908889 0.631837 0.067543
O O4 0.000000 0.769444 0.099650
O O5 0.423326 0.423326 0.282731
O O6 0.366050 0.278574 0.285737
O O7 0.480555 0.358023 0.219150
O O8 0.495151 0.361262 0.332298
O O9 0.077916 0.538958 0.500000
O O10 0.129925 0.664614 0.443025
O O11 0.000000 0.604391 0.500000
O O12 0.138668 0.861333 0.264151
O O13 0.229016 0.000000 0.251338
O O14 0.251145 0.502290 0.823979
O O15 0.389299 0.610702 0.820358
O O16 0.356350 0.502291 0.892200
O O17 0.000000 0.581503 0.086784
O O18 0.097921 0.626065 0.000000
O O19 0.395821 0.791641 0.595604
O O20 0.255199 0.744802 0.615200
#
# Coordination Sequence:
#
# PCOD8329223 Si02
#       7
#    24  24  12  24  24  24  24
#     4   9  16  28  47  70  96 124 157 198 245 297
#     4  11  22  36  56  80 104 134 175 224 273 315
#     4   9  19  36  56  78 106 141 182 226 266 306
#     4   9  16  28  47  71  98 127 161 202 250 302
#     4  12  25  40  56  75 103 136 170 208 256 317
#     4  10  21  37  57  79  99 123 161 212 266 312
#     4  11  22  36  55  79 110 145 182 222 268 324
#
# _framework density 18.228217000000001
#
# number of rings (size 3 to 8) (size 9 to 14) (size 15 to 20)
#    0.000    1.769    1.538    3.769    0.000    4.308 
#    0.000    3.077    0.000    1.231    0.000    2.154 
#    0.000    0.000    0.000    3.846    0.000    4.000 
#
# Total GULP energy -1933902.566756 kJ/mol
# GULP energy per Si atom -12396.811325 kJ/mol
# Density = 1.818673 g / cm^3
# Si number density = 18.228217 Si / 1000 Ang^3
#
#
#
# Elastic Constant Matrix: (Units=GPa)
#
#
# Indices 1 2 3 4 5 6 
#
# 1 94.5577 52.0950 30.9478 0.0000 0.0000 0.0000
# 2 52.0950 94.5577 30.9478 0.0000 0.0000 0.0000
# 3 30.9478 30.9478 74.4761 0.0000 0.0000 0.0000
# 4 0.0000 0.0000 0.0000 17.0735 0.0000 0.0000
# 5 0.0000 0.0000 0.0000 0.0000 17.0735 0.0000
# 6 0.0000 0.0000 0.0000 0.0000 0.0000 21.2314
#
#
#
# Elastic Compliance Matrix: (Units=1/GPa)
#
#
# Indices 1 2 3 4 5 6 
#
# 1 0.015910 -0.007640 -0.003436 0.000000 0.000000 0.000000
# 2 -0.007640 0.015910 -0.003436 0.000000 0.000000 0.000000
# 3 -0.003436 -0.003436 0.016283 0.000000 0.000000 0.000000
# 4 0.000000 0.000000 0.000000 0.058570 0.000000 0.000000
# 5 0.000000 0.000000 0.000000 0.000000 0.058570 0.000000
# 6 0.000000 0.000000 0.000000 0.000000 0.000000 0.047100
#
#
# Mechanical properties :
#
#
# Convention : Reuss Voigt Hill
#
# Bulk Modulus (GPa) = 52.42065 54.61917 53.51991
# Shear Modulus (GPa) = 20.18352 21.04908 20.61630
#
# Velocity S-wave (km/s) = 3.33117 3.40185 3.36670
# Velocity P-wave (km/s) = 6.60424 6.74235 6.67365
#
# Compressibility (1/GPa) = 0.01907645
#
# Stress axis : x y z
#
# Youngs Moduli (GPa) = 62.85525 62.85525 61.41440
#
# Poissons Ratio (x) = 0.48025 0.21103
# Poissons Ratio (y) = 0.48025 0.21103
# Poissons Ratio (z) = 0.21598 0.21598
#
# Static dielectric constant tensor:
#      x y z
#    x 3.363230 0.000000 0.000000 
#    y 0.000000 3.363230 0.000000 
#    z 0.000000 0.000000 3.300460 
# 
# 
# High freq. dielectric constant tensor:
#      x y z
#    x 1.698600 0.000000 0.000000 
#    y 0.000000 1.698600 0.000000 
#    z 0.000000 0.000000 1.692920 
# 
# From -- ./inp_files/7724.got.cif
#   From: 2010.03.12/outbox.cif.g09.slc.cpg/sg191_4_cif.got.tgz:7724.got - 2010.04.01 12:09:02.
