data_PCOD8329313
_publ_section_title
;
Structure prediction by ZEFSAII (Michael W. Deem and Ramdas Pophale) SiO2 
 PCOD8329313
Probable space group: P 6/M M M
;
_chemical_formula_sum "Si O2"
_cell_formula_units_Z 192
_cell_length_a 22.635584
_cell_length_b 22.635584
_cell_length_c 28.406688
_cell_angle_alpha 90.000000
_cell_angle_beta 90.000000
_cell_angle_gamma 120.000000
_cell_volume 12604.761732
_symmetry_space_group_name_H-M "P 6/M M M"
_symmetry_group_IT_number 191
_symmetry_cell_setting 'hexagonal'
loop_
_space_group_symop_operation_xyz
x,y,z
x-y,x,z
-y,x-y,z
-x,-y,z
-x+y,-x,z
y,-x+y,z
x-y,-y,-z
-x,-x+y,-z
y,x,-z
-y,-x,-z
-x+y,y,-z
x,x-y,-z
-x,-y,-z
-x+y,-x,-z
y,-x+y,-z
x,y,-z
x-y,x,-z
-y,x-y,-z
-x+y,y,z
x,x-y,z
-y,-x,z
y,x,z
x-y,-y,z
-x,-x+y,z
loop_
_atom_site_type_symbol
_atom_site_label
_atom_site_fract_x
_atom_site_fract_y
_atom_site_fract_z
Si Si1 0.600679 0.732654 0.804145
Si Si2 0.309599 0.389765 0.551872
Si Si3 0.080950 0.472727 0.133875
Si Si4 0.131975 0.732654 0.304144
Si Si5 0.208893 0.286207 0.121092
Si Si6 0.286207 0.208893 0.378908
Si Si7 0.527274 0.919051 0.633875
Si Si8 0.309599 0.919834 0.051873
O O1 0.576927 0.788464 0.811039
O O2 0.541344 0.660195 0.823341
O O3 0.614672 0.724635 0.750000
O O4 0.670739 0.755566 0.832015
O O5 0.295702 0.410385 0.500000
O O6 0.355335 0.355335 0.546322
O O7 0.238452 0.336477 0.576274
O O8 0.350777 0.456656 0.584470
O O9 0.103775 0.551888 0.134564
O O10 0.105879 0.456657 0.084470
O O11 0.000000 0.424771 0.140247
O O12 0.211538 0.788463 0.311038
O O13 0.084828 0.755566 0.332016
O O14 0.118852 0.660195 0.323341
O O15 0.127399 0.254798 0.122344
O O16 0.224068 0.224068 0.117640
O O17 0.238453 0.336478 0.076274
O O18 0.254798 0.127399 0.377656
O O19 0.224068 0.224068 0.382359
O O20 0.448114 0.896227 0.634563
O O21 0.575231 0.000000 0.640247
O O22 0.355335 0.000000 0.046323
O O23 0.295703 0.885316 0.000000
#
# Coordination Sequence:
#
# PCOD8329313 Si02
#       8
#    24  24  24  24  24  24  24  24
#     4   9  17  29  44  60  80 109 144 179 211 245
#     4   8  14  25  40  58  82 110 136 162 193 232
#     4   9  17  27  40  62  89 112 134 163 203 249
#     4   9  17  29  44  60  80 109 144 179 211 245
#     4   9  17  28  42  61  84 109 138 173 213 256
#     4   9  17  28  42  61  84 109 138 173 213 256
#     4   9  17  27  40  62  89 112 134 163 203 249
#     4   8  14  25  40  58  82 110 136 162 193 232
#
# _framework density 15.232339
#
# number of rings (size 3 to 8) (size 9 to 14) (size 15 to 20)
#    0.000    3.250    0.000    2.250    0.000    3.500 
#    0.000    3.750    0.000    0.750    0.000    0.000 
#    0.000    0.000    0.000   13.250    0.000    1.000 
#
# Total GULP energy -2379870.953669 kJ/mol
# GULP energy per Si atom -12395.161217 kJ/mol
# Density = 1.519767 g / cm^3
# Si number density = 15.232339 Si / 1000 Ang^3
#
#
#
# Elastic Constant Matrix: (Units=GPa)
#
#
# Indices 1 2 3 4 5 6 
#
# 1 77.8651 43.9523 32.1982 0.0000 0.0000 0.0000
# 2 43.9523 77.8651 32.1982 0.0000 0.0000 0.0000
# 3 32.1982 32.1982 113.4527 0.0000 0.0000 0.0000
# 4 0.0000 0.0000 0.0000 14.2434 0.0000 0.0000
# 5 0.0000 0.0000 0.0000 0.0000 14.2434 0.0000
# 6 0.0000 0.0000 0.0000 0.0000 0.0000 16.9564
#
#
#
# Elastic Compliance Matrix: (Units=1/GPa)
#
#
# Indices 1 2 3 4 5 6 
#
# 1 0.019573 -0.009915 -0.002741 0.000000 0.000000 0.000000
# 2 -0.009915 0.019573 -0.002741 0.000000 0.000000 0.000000
# 3 -0.002741 -0.002741 0.010370 0.000000 0.000000 0.000000
# 4 0.000000 0.000000 0.000000 0.070208 0.000000 0.000000
# 5 0.000000 0.000000 0.000000 0.000000 0.070208 0.000000
# 6 0.000000 0.000000 0.000000 0.000000 0.000000 0.058975
#
#
# Mechanical properties :
#
#
# Convention : Reuss Voigt Hill
#
# Bulk Modulus (GPa) = 53.41275 53.98670 53.69972
# Shear Modulus (GPa) = 17.48623 19.81095 18.64859
#
# Velocity S-wave (km/s) = 3.39184 3.61028 3.50276
# Velocity P-wave (km/s) = 7.10499 7.27309 7.18954
#
# Compressibility (1/GPa) = 0.01872212
#
# Stress axis : x y z
#
# Youngs Moduli (GPa) = 51.09170 51.09170 96.43179
#
# Poissons Ratio (x) = 0.50656 0.26432
# Poissons Ratio (y) = 0.50656 0.26432
# Poissons Ratio (z) = 0.14004 0.14004
#
# Static dielectric constant tensor:
#      x y z
#    x 2.743170 0.000000 0.000000 
#    y 0.000000 2.743170 0.000000 
#    z 0.000000 0.000000 3.261960 
# 
# 
# High freq. dielectric constant tensor:
#      x y z
#    x 1.556520 0.000000 0.000000 
#    y 0.000000 1.556520 0.000000 
#    z 0.000000 0.000000 1.595750 
# 
# From -- ./inp_files/10114.got.cif
#   From: 2010.03.12/outbox.cif.g09.slc.cpg/sg191_6_cif.got.tgz:10114.got - 2010.04.01 12:09:02.
