data_PCOD8329409
_publ_section_title
;
Structure prediction by ZEFSAII (Michael W. Deem and Ramdas Pophale) SiO2 
 PCOD8329409
Probable space group: P 6/M C C
;
_chemical_formula_sum "Si O2"
_cell_formula_units_Z 48
_cell_length_a 18.894286
_cell_length_b 18.894286
_cell_length_c 9.289779
_cell_angle_alpha 90.000000
_cell_angle_beta 90.000000
_cell_angle_gamma 120.000000
_cell_volume 2872.082984
_symmetry_space_group_name_H-M "P 6/M C C"
_symmetry_group_IT_number 192
_symmetry_cell_setting 'hexagonal'
loop_
_space_group_symop_operation_xyz
x,y,z
x-y,x,z
-y,x-y,z
-x,-y,z
-x+y,-x,z
y,-x+y,z
x-y,-y,1/2-z
-x,-x+y,1/2-z
y,x,1/2-z
-y,-x,1/2-z
-x+y,y,1/2-z
x,x-y,1/2-z
-x,-y,-z
-x+y,-x,-z
y,-x+y,-z
x,y,-z
x-y,x,-z
-y,x-y,-z
-x+y,y,1/2+z
x,x-y,1/2+z
-y,-x,1/2+z
y,x,1/2+z
x-y,-y,1/2+z
-x,-x+y,1/2+z
loop_
_atom_site_type_symbol
_atom_site_label
_atom_site_fract_x
_atom_site_fract_y
_atom_site_fract_z
Si Si1 0.433354 0.743940 0.500000
Si Si2 0.215529 0.297605 0.165478
Si Si3 0.227223 0.454445 0.750000
O O1 0.354277 0.755809 0.500000
O O2 0.488320 0.786012 0.639003
O O3 0.274955 0.274955 0.250000
O O4 0.128144 0.256288 0.250000
O O5 0.255663 0.396332 0.169993
O O6 0.203567 0.267450 0.000000
#
# Coordination Sequence:
#
# PCOD8329409 Si02
#       3
#    12  24  12
#     4  10  20  32  56  82 105 146 193 238 278 334
#     4  10  20  34  58  84 113 148 187 226 275 335
#     4  10  18  36  52  84 111 144 187 232 278 332
#
# _framework density 16.712609
#
# number of rings (size 3 to 8) (size 9 to 14) (size 15 to 20)
#    2.000    0.000    2.500    3.000    3.500    0.000 
#    0.000    0.000    0.000    9.500    0.000    3.500 
#    0.000    0.000    0.000    0.000    0.000    0.000 
#
# Total GULP energy -594634.309713 kJ/mol
# GULP energy per Si atom -12388.214786 kJ/mol
# Density = 1.667457 g / cm^3
# Si number density = 16.712609 Si / 1000 Ang^3
#
#
#
# Elastic Constant Matrix: (Units=GPa)
#
#
# Indices 1 2 3 4 5 6 
#
# 1 56.2558 19.6043 22.0355 0.0000 0.0000 0.0000
# 2 19.6043 56.2558 22.0355 0.0000 0.0000 0.0000
# 3 22.0355 22.0355 139.4970 0.0000 0.0000 0.0000
# 4 0.0000 0.0000 0.0000 29.2671 0.0000 0.0000
# 5 0.0000 0.0000 0.0000 0.0000 29.2671 0.0000
# 6 0.0000 0.0000 0.0000 0.0000 0.0000 18.3258
#
#
#
# Elastic Compliance Matrix: (Units=1/GPa)
#
#
# Indices 1 2 3 4 5 6 
#
# 1 0.020899 -0.006385 -0.002293 0.000000 0.000000 0.000000
# 2 -0.006385 0.020899 -0.002293 0.000000 0.000000 0.000000
# 3 -0.002293 -0.002293 0.007893 0.000000 0.000000 0.000000
# 4 0.000000 0.000000 0.000000 0.034168 0.000000 0.000000
# 5 0.000000 0.000000 0.000000 0.000000 0.034168 0.000000
# 6 0.000000 0.000000 0.000000 0.000000 0.000000 0.054568
#
#
# Mechanical properties :
#
#
# Convention : Reuss Voigt Hill
#
# Bulk Modulus (GPa) = 36.03560 42.15102 39.09331
# Shear Modulus (GPa) = 24.53555 27.92755 26.23155
#
# Velocity S-wave (km/s) = 3.83572 4.09228 3.96607
# Velocity P-wave (km/s) = 6.42072 6.89963 6.66448
#
# Compressibility (1/GPa) = 0.02775034
#
# Stress axis : x y z
#
# Youngs Moduli (GPa) = 47.84910 47.84910 126.69552
#
# Poissons Ratio (x) = 0.30551 0.29048
# Poissons Ratio (y) = 0.30551 0.29048
# Poissons Ratio (z) = 0.10970 0.10970
#
# Static dielectric constant tensor:
#      x y z
#    x 2.854750 0.000000 0.000000 
#    y 0.000000 2.854750 0.000000 
#    z 0.000000 0.000000 3.473270 
# 
# 
# High freq. dielectric constant tensor:
#      x y z
#    x 1.614700 0.000000 0.000000 
#    y 0.000000 1.614700 0.000000 
#    z 0.000000 0.000000 1.665900 
# 
# From -- ./inp_files/358.got.cif
#   From: 2010.03.12/outbox.cif.g09.slc.cpg/sg192_1_cif.got.tgz:358.got - 2010.04.01 12:16:15.
