data_PCOD8329562
_publ_section_title
;
Structure prediction by ZEFSAII (Michael W. Deem and Ramdas Pophale) SiO2 
 PCOD8329562
Probable space group: P 6/M C C
;
_chemical_formula_sum "Si O2"
_cell_formula_units_Z 136
_cell_length_a 17.537779
_cell_length_b 17.537779
_cell_length_c 26.147677
_cell_angle_alpha 90.000000
_cell_angle_beta 90.000000
_cell_angle_gamma 120.000000
_cell_volume 6964.868632
_symmetry_space_group_name_H-M "P 6/M C C"
_symmetry_group_IT_number 192
_symmetry_cell_setting 'hexagonal'
loop_
_space_group_symop_operation_xyz
x,y,z
x-y,x,z
-y,x-y,z
-x,-y,z
-x+y,-x,z
y,-x+y,z
x-y,-y,1/2-z
-x,-x+y,1/2-z
y,x,1/2-z
-y,-x,1/2-z
-x+y,y,1/2-z
x,x-y,1/2-z
-x,-y,-z
-x+y,-x,-z
y,-x+y,-z
x,y,-z
x-y,x,-z
-y,x-y,-z
-x+y,y,1/2+z
x,x-y,1/2+z
-y,-x,1/2+z
y,x,1/2+z
x-y,-y,1/2+z
-x,-x+y,1/2+z
loop_
_atom_site_type_symbol
_atom_site_label
_atom_site_fract_x
_atom_site_fract_y
_atom_site_fract_z
Si Si1 0.137316 0.550138 0.060074
Si Si2 0.666668 0.333334 0.440486
Si Si3 0.595794 0.544682 0.851813
Si Si4 0.527970 0.777867 0.809376
Si Si5 0.803506 0.857437 0.939617
Si Si6 0.666667 0.333334 0.809517
Si Si7 0.623456 0.720557 0.113628
O O1 0.234421 0.620507 0.079501
O O2 0.075833 0.577373 0.091321
O O3 0.122111 0.453513 0.072176
O O4 0.122102 0.557207 0.000000
O O5 0.666667 0.333334 0.500000
O O6 0.500000 0.500000 0.824032
O O7 0.659274 0.527423 0.816692
O O8 0.639760 0.649530 0.856975
O O9 0.548921 0.774461 0.750000
O O10 0.432614 0.698908 0.827579
O O11 0.599638 0.773022 0.844828
O O12 0.877656 0.834378 0.921994
O O13 0.711079 0.791326 0.914134
O O14 0.790150 0.847716 0.000000
O O15 0.666668 0.333334 0.750000
#
# Coordination Sequence:
#
# PCOD8329562 Si02
#       7
#    24   8  24  24  24   8  24
#     4  10  20  34  54  82 120 161 193 227 276 332
#     4   9  18  31  50  76 109 155 202 232 257 313
#     4  10  22  37  56  84 116 151 192 236 278 336
#     4  11  23  40  60  82 113 152 195 243 291 331
#     4  10  21  38  60  84 110 140 176 223 282 348
#     4   9  18  34  56  79 103 143 190 232 275 322
#     4  11  22  36  56  84 115 146 188 233 280 340
#
# _framework density 19.52657
#
# number of rings (size 3 to 8) (size 9 to 14) (size 15 to 20)
#    0.000    1.765    0.000    4.941    0.000    6.706 
#    0.000    7.059    0.000    0.000    0.000    0.000 
#    0.000    1.412    0.000    0.000    0.000    0.000 
#
# Total GULP energy -1686188.854719 kJ/mol
# GULP energy per Si atom -12398.447461 kJ/mol
# Density = 1.948213 g / cm^3
# Si number density = 19.526570 Si / 1000 Ang^3
#
#
#
# Elastic Constant Matrix: (Units=GPa)
#
#
# Indices 1 2 3 4 5 6 
#
# 1 128.5106 47.8012 35.3593 0.0022 0.0008 0.0008
# 2 47.8012 128.5129 35.3598 -0.0005 0.0004 0.0005
# 3 35.3593 35.3598 87.6039 0.0002 0.0007 0.0002
# 4 0.0022 -0.0005 0.0002 47.2251 -0.0006 0.0002
# 5 0.0008 0.0004 0.0007 -0.0006 47.2076 -0.0013
# 6 0.0008 0.0005 0.0002 0.0002 -0.0013 40.3570
#
#
#
# Elastic Compliance Matrix: (Units=1/GPa)
#
#
# Indices 1 2 3 4 5 6 
#
# 1 0.009579 -0.002811 -0.002731 0.000000 0.000000 0.000000
# 2 -0.002811 0.009579 -0.002732 0.000000 0.000000 0.000000
# 3 -0.002731 -0.002732 0.013620 0.000000 0.000000 0.000000
# 4 0.000000 0.000000 0.000000 0.021175 0.000000 0.000000
# 5 0.000000 0.000000 0.000000 0.000000 0.021183 0.000001
# 6 0.000000 0.000000 0.000000 0.000000 0.000001 0.024779
#
#
# Mechanical properties :
#
#
# Convention : Reuss Voigt Hill
#
# Bulk Modulus (GPa) = 61.61913 64.62978 63.12445
# Shear Modulus (GPa) = 41.02646 42.03175 41.52911
#
# Velocity S-wave (km/s) = 4.58870 4.64458 4.61673
# Velocity P-wave (km/s) = 7.72658 7.86976 7.79850
#
# Compressibility (1/GPa) = 0.01622873
#
# Stress axis : x y z
#
# Youngs Moduli (GPa) = 104.39807 104.39981 73.42115
#
# Poissons Ratio (x) = 0.29350 0.20055
# Poissons Ratio (y) = 0.29349 0.20055
# Poissons Ratio (z) = 0.28516 0.28517
#
# Static dielectric constant tensor:
#      x y z
#    x 20.118570 0.018700 0.000040 
#    y 0.018700 20.228980 0.000080 
#    z 0.000040 0.000080 3.356510 
# 
# 
# High freq. dielectric constant tensor:
#      x y z
#    x 1.767390 0.000000 0.000000 
#    y 0.000000 1.767390 0.000000 
#    z 0.000000 0.000000 1.750240 
# 
# From -- ./inp_files/6548.got.cif
#   From: 2010.03.12/outbox.cif.g09.slc.cpg/sg192_4_cif.got.tgz:6548.got - 2010.04.01 12:16:15.
