data_PCOD8329352
_publ_section_title
;
Structure prediction by ZEFSAII (Michael W. Deem and Ramdas Pophale) SiO2 
 PCOD8329352
Probable space group: P 6/M C C
;
_chemical_formula_sum "Si O2"
_cell_formula_units_Z 92
_cell_length_a 14.160203
_cell_length_b 14.160203
_cell_length_c 30.939808
_cell_angle_alpha 90.000000
_cell_angle_beta 90.000000
_cell_angle_gamma 120.000000
_cell_volume 5372.633366
_symmetry_space_group_name_H-M "P 6/M C C"
_symmetry_group_IT_number 192
_symmetry_cell_setting 'hexagonal'
loop_
_space_group_symop_operation_xyz
x,y,z
x-y,x,z
-y,x-y,z
-x,-y,z
-x+y,-x,z
y,-x+y,z
x-y,-y,1/2-z
-x,-x+y,1/2-z
y,x,1/2-z
-y,-x,1/2-z
-x+y,y,1/2-z
x,x-y,1/2-z
-x,-y,-z
-x+y,-x,-z
y,-x+y,-z
x,y,-z
x-y,x,-z
-y,x-y,-z
-x+y,y,1/2+z
x,x-y,1/2+z
-y,-x,1/2+z
y,x,1/2+z
x-y,-y,1/2+z
-x,-x+y,1/2+z
loop_
_atom_site_type_symbol
_atom_site_label
_atom_site_fract_x
_atom_site_fract_y
_atom_site_fract_z
Si Si1 0.666668 0.333334 0.199050
Si Si2 0.753626 0.924686 0.951689
Si Si3 0.580960 0.128783 0.142102
Si Si4 0.237133 0.787278 0.408607
Si Si5 0.286847 0.756047 0.000000
O O1 0.666668 0.333334 0.250000
O O2 0.601708 0.206271 0.183665
O O3 0.804751 0.849063 0.944809
O O4 0.666964 0.896583 0.912707
O O5 0.701677 0.909761 0.000000
O O6 0.536165 0.175306 0.104307
O O7 0.698404 0.150794 0.125118
O O8 0.500000 0.000000 0.152707
O O9 0.198045 0.734909 0.456215
O O10 0.210265 0.624313 0.000000
#
# Coordination Sequence:
#
# PCOD8329352 Si02
#       5
#     8  24  24  24  12
#     4   9  21  39  57  76  98 121 150 189 240 309
#     4  10  20  31  42  56  81 121 170 212 238 259
#     4  10  20  33  52  75 100 124 152 195 243 292
#     4  11  18  31  45  69  98 130 163 196 236 275
#     4  10  16  28  42  62  96 138 166 198 222 268
#
# _framework density 17.123818
#
# number of rings (size 3 to 8) (size 9 to 14) (size 15 to 20)
#    0.261    1.565    3.913    2.348    0.000    1.565 
#    0.000    1.304    0.000    0.000    0.000    0.000 
#    0.000    0.000    0.000    0.000    0.000   77.739 
#
# Total GULP energy -1139704.709654 kJ/mol
# GULP energy per Si atom -12388.094670 kJ/mol
# Density = 1.708484 g / cm^3
# Si number density = 17.123818 Si / 1000 Ang^3
#
#
#
# Elastic Constant Matrix: (Units=GPa)
#
#
# Indices 1 2 3 4 5 6 
#
# 1 36.6861 29.0586 23.0531 0.0000 0.0000 0.0000
# 2 29.0586 36.6861 23.0533 -0.0001 0.0000 -0.0001
# 3 23.0531 23.0533 87.7316 -0.0001 0.0000 -0.0001
# 4 0.0000 -0.0001 -0.0001 14.5153 0.0001 0.0000
# 5 0.0000 0.0000 0.0000 0.0001 14.5154 0.0000
# 6 0.0000 -0.0001 -0.0001 0.0000 0.0000 3.8135
#
#
#
# Elastic Compliance Matrix: (Units=1/GPa)
#
#
# Indices 1 2 3 4 5 6 
#
# 1 0.074876 -0.056229 -0.004900 0.000000 0.000000 -0.000001
# 2 -0.056229 0.074876 -0.004900 0.000000 0.000000 0.000001
# 3 -0.004900 -0.004900 0.013973 0.000000 0.000000 0.000000
# 4 0.000000 0.000000 0.000000 0.068893 0.000000 0.000000
# 5 0.000000 0.000000 0.000000 0.000000 0.068892 0.000000
# 6 -0.000001 0.000001 0.000000 0.000000 0.000000 0.262225
#
#
# Mechanical properties :
#
#
# Convention : Reuss Voigt Hill
#
# Bulk Modulus (GPa) = 31.57815 34.60377 33.09096
# Shear Modulus (GPa) = 7.07866 12.29809 9.68837
#
# Velocity S-wave (km/s) = 2.03538 2.68281 2.38120
# Velocity P-wave (km/s) = 4.89947 5.46337 5.18909
#
# Compressibility (1/GPa) = 0.03166746
#
# Stress axis : x y z
#
# Youngs Moduli (GPa) = 13.35547 13.35540 71.56445
#
# Poissons Ratio (x) = 0.75097 0.35063
# Poissons Ratio (y) = 0.75097 0.35066
# Poissons Ratio (z) = 0.06544 0.06544
#
# Static dielectric constant tensor:
#      x y z
#    x 3.230590 0.000000 0.000000 
#    y 0.000000 3.230590 0.000000 
#    z 0.000000 0.000000 2.823290 
# 
# 
# High freq. dielectric constant tensor:
#      x y z
#    x 1.660840 0.000000 0.000000 
#    y 0.000000 1.660840 0.000000 
#    z 0.000000 0.000000 1.614580 
# 
# From -- ./inp_files/6820.got.cif
#   From: 2010.03.12/outbox.cif.g09.slc.cpg/sg192_4_cif.got.tgz:6820.got - 2010.04.01 12:16:15.
