data_PCOD8329100
_publ_section_title
;
Structure prediction by ZEFSAII (Michael W. Deem and Ramdas Pophale) SiO2 
 PCOD8329100
Probable space group: P 6/M M M
;
_chemical_formula_sum "Si O2"
_cell_formula_units_Z 144
_cell_length_a 31.773155
_cell_length_b 31.773155
_cell_length_c 9.075662
_cell_angle_alpha 90.000000
_cell_angle_beta 90.000000
_cell_angle_gamma 120.000000
_cell_volume 7934.683858
_symmetry_space_group_name_H-M "P 6/M M M"
_symmetry_group_IT_number 191
_symmetry_cell_setting 'hexagonal'
loop_
_space_group_symop_operation_xyz
x,y,z
x-y,x,z
-y,x-y,z
-x,-y,z
-x+y,-x,z
y,-x+y,z
x-y,-y,-z
-x,-x+y,-z
y,x,-z
-y,-x,-z
-x+y,y,-z
x,x-y,-z
-x,-y,-z
-x+y,-x,-z
y,-x+y,-z
x,y,-z
x-y,x,-z
-y,x-y,-z
-x+y,y,z
x,x-y,z
-y,-x,z
y,x,z
x-y,-y,z
-x,-x+y,z
loop_
_atom_site_type_symbol
_atom_site_label
_atom_site_fract_x
_atom_site_fract_y
_atom_site_fract_z
Si Si1 0.142068 0.476818 0.174752
Si Si2 0.852266 0.798550 0.330014
Si Si3 0.521024 0.944527 0.329595
Si Si4 0.428162 0.761563 0.175250
Si Si5 0.754401 0.608857 0.667141
Si Si6 0.098507 0.297021 0.165182
O O1 0.091144 0.469771 0.229305
O O2 0.186952 0.527886 0.230271
O O3 0.150956 0.435493 0.238605
O O4 0.140753 0.473256 0.000000
O O5 0.844248 0.782531 0.500000
O O6 0.907032 0.814063 0.280094
O O7 0.844245 0.844245 0.302375
O O8 0.812002 0.753272 0.237757
O O9 0.523987 0.932816 0.500000
O O10 0.468334 0.936667 0.291885
O O11 0.561863 0.000000 0.293811
O O12 0.378045 0.756090 0.236623
O O13 0.434194 0.717097 0.237372
O O14 0.427207 0.759913 0.000000
O O15 0.736200 0.605788 0.500000
O O16 0.803734 0.607468 0.672308
O O17 0.761445 0.658378 0.739017
O O18 0.149552 0.299103 0.163371
O O19 0.081841 0.300342 0.000000
#
# Coordination Sequence:
#
# PCOD8329100 Si02
#       6
#    24  24  24  24  24  24
#     4  11  21  32  50  78 109 136 167 212 262 311
#     4   9  17  30  49  73 102 137 176 215 255 302
#     4   9  19  37  58  76  96 126 164 206 254 309
#     4   9  17  29  46  70 102 139 176 213 254 300
#     4  10  20  34  52  73 100 136 174 208 247 301
#     4   9  17  30  49  72  97 125 159 202 250 296
#
# _framework density 18.148171999999999
#
# number of rings (size 3 to 8) (size 9 to 14) (size 15 to 20)
#    0.000    2.500    0.000    3.167    0.000    6.000 
#    0.000    1.667    0.000    5.167    0.000    1.167 
#    0.000    8.000    0.000    4.167    0.000    4.333 
#
# Total GULP energy -1785525.866693 kJ/mol
# GULP energy per Si atom -12399.485185 kJ/mol
# Density = 1.810687 g / cm^3
# Si number density = 18.148172 Si / 1000 Ang^3
#
#
#
# Elastic Constant Matrix: (Units=GPa)
#
#
# Indices 1 2 3 4 5 6 
#
# 1 97.3292 49.3813 39.3865 0.0000 0.0000 0.0000
# 2 49.3813 97.3292 39.3865 0.0000 0.0000 0.0000
# 3 39.3865 39.3865 79.0826 0.0000 0.0000 0.0000
# 4 0.0000 0.0000 0.0000 24.9196 0.0000 0.0000
# 5 0.0000 0.0000 0.0000 0.0000 24.9196 0.0000
# 6 0.0000 0.0000 0.0000 0.0000 0.0000 23.9740
#
#
#
# Elastic Compliance Matrix: (Units=1/GPa)
#
#
# Indices 1 2 3 4 5 6 
#
# 1 0.015080 -0.005776 -0.004634 0.000000 0.000000 0.000000
# 2 -0.005776 0.015080 -0.004634 0.000000 0.000000 0.000000
# 3 -0.004634 -0.004634 0.017261 0.000000 0.000000 0.000000
# 4 0.000000 0.000000 0.000000 0.040129 0.000000 0.000000
# 5 0.000000 0.000000 0.000000 0.000000 0.040129 0.000000
# 6 0.000000 0.000000 0.000000 0.000000 0.000000 0.041712
#
#
# Mechanical properties :
#
#
# Convention : Reuss Voigt Hill
#
# Bulk Modulus (GPa) = 57.69141 58.89443 58.29292
# Shear Modulus (GPa) = 24.35981 24.46843 24.41412
#
# Velocity S-wave (km/s) = 3.66768 3.67585 3.67177
# Velocity P-wave (km/s) = 7.05648 7.10903 7.08280
#
# Compressibility (1/GPa) = 0.01733360
#
# Stress axis : x y z
#
# Youngs Moduli (GPa) = 66.31260 66.31260 57.93482
#
# Poissons Ratio (x) = 0.38301 0.26846
# Poissons Ratio (y) = 0.38301 0.26846
# Poissons Ratio (z) = 0.30729 0.30729
#
# Static dielectric constant tensor:
#      x y z
#    x 3.334070 0.000000 0.000000 
#    y 0.000000 3.334070 0.000000 
#    z 0.000000 0.000000 3.317800 
# 
# 
# High freq. dielectric constant tensor:
#      x y z
#    x 1.696560 0.000000 0.000000 
#    y 0.000000 1.696560 0.000000 
#    z 0.000000 0.000000 1.693700 
# 
# From -- ./inp_files/1948.got.cif
#   From: 2010.03.12/outbox.cif.g09.slc.cpg/sg191_1_cif.got.tgz:1948.got - 2010.04.01 12:09:02.
