data_PCOD8329964
_publ_section_title
;
Structure prediction by ZEFSAII (Michael W. Deem and Ramdas Pophale) SiO2 
 PCOD8329964
Probable space group: P 63/M C M
;
_chemical_formula_sum "Si O2"
_cell_formula_units_Z 108
_cell_length_a 22.308166
_cell_length_b 22.308166
_cell_length_c 13.118245
_cell_angle_alpha 90.000000
_cell_angle_beta 90.000000
_cell_angle_gamma 120.000000
_cell_volume 5653.717502
_symmetry_space_group_name_H-M "P 63/M C M"
_symmetry_group_IT_number 193
_symmetry_cell_setting 'hexagonal'
loop_
_space_group_symop_operation_xyz
x,y,z
x-y,x,1/2+z
-y,x-y,z
-x,-y,1/2+z
-x+y,-x,z
y,-x+y,1/2+z
x-y,-y,1/2-z
-x,-x+y,1/2-z
y,x,1/2-z
-y,-x,-z
-x+y,y,-z
x,x-y,-z
-x,-y,-z
-x+y,-x,1/2-z
y,-x+y,-z
x,y,1/2-z
x-y,x,-z
-y,x-y,1/2-z
-x+y,y,1/2+z
x,x-y,1/2+z
-y,-x,1/2+z
y,x,z
x-y,-y,z
-x,-x+y,z
loop_
_atom_site_type_symbol
_atom_site_label
_atom_site_fract_x
_atom_site_fract_y
_atom_site_fract_z
Si Si1 0.519444 0.918517 0.750000
Si Si2 0.854836 0.396133 0.900209
Si Si3 0.331911 0.589900 0.250000
Si Si4 0.305846 0.386531 0.135136
Si Si5 0.081439 0.735501 0.750000
Si Si6 0.290402 0.208415 0.967543
O O1 0.469978 0.894606 0.653501
O O2 0.570601 0.886104 0.750000
O O3 0.565732 0.000000 0.750000
O O4 0.785757 0.335678 0.848116
O O5 0.905315 0.364787 0.910486
O O6 0.827673 0.413837 0.000000
O O7 0.402350 0.666645 0.250000
O O8 0.280625 0.394342 0.250000
O O9 0.338457 0.338457 0.147342
O O10 0.245872 0.352132 0.050571
O O11 0.103376 0.781572 0.646846
O O12 0.000000 0.687805 0.750000
O O13 0.234559 0.234559 0.974038
O O14 0.254174 0.127087 0.000000
#
# Coordination Sequence:
#
# PCOD8329964 Si02
#       6
#    12  24  12  24  12  24
#     4  10  19  34  55  80 115 150 181 229 290 352
#     4  11  21  35  55  82 104 143 194 242 297 351
#     4   9  22  43  53  63  96 142 186 245 289 333
#     4  10  20  37  57  86 121 147 186 241 296 354
#     4   9  19  37  56  83 123 156 193 236 286 355
#     4  10  22  40  62  90 123 161 196 239 294 351
#
# _framework density 19.102475999999999
#
# number of rings (size 3 to 8) (size 9 to 14) (size 15 to 20)
#    0.222    1.778    2.222    2.000    1.556    4.444 
#   12.000    0.000    0.000    0.222    0.000    0.000 
#    0.000    0.000    0.000    0.000    0.000    0.000 
#
# Total GULP energy -1337966.989466 kJ/mol
# GULP energy per Si atom -12388.583236 kJ/mol
# Density = 1.905900 g / cm^3
# Si number density = 19.102476 Si / 1000 Ang^3
#
#
#
# Elastic Constant Matrix: (Units=GPa)
#
#
# Indices 1 2 3 4 5 6 
#
# 1 68.4940 24.8410 28.6547 0.0000 0.0000 0.0000
# 2 24.8410 68.4940 28.6547 0.0000 0.0000 0.0000
# 3 28.6547 28.6547 125.4872 0.0000 0.0000 0.0000
# 4 0.0000 0.0000 0.0000 19.7203 0.0000 0.0000
# 5 0.0000 0.0000 0.0000 0.0000 19.7203 0.0000
# 6 0.0000 0.0000 0.0000 0.0000 0.0000 21.8265
#
#
#
# Elastic Compliance Matrix: (Units=1/GPa)
#
#
# Indices 1 2 3 4 5 6 
#
# 1 0.017685 -0.005223 -0.002846 0.000000 0.000000 0.000000
# 2 -0.005223 0.017685 -0.002846 0.000000 0.000000 0.000000
# 3 -0.002846 -0.002846 0.009268 0.000000 0.000000 0.000000
# 4 0.000000 0.000000 0.000000 0.050709 0.000000 0.000000
# 5 0.000000 0.000000 0.000000 0.000000 0.050709 0.000000
# 6 0.000000 0.000000 0.000000 0.000000 0.000000 0.045816
#
#
# Mechanical properties :
#
#
# Convention : Reuss Voigt Hill
#
# Bulk Modulus (GPa) = 43.84230 47.41956 45.63093
# Shear Modulus (GPa) = 22.59339 24.27506 23.43422
#
# Velocity S-wave (km/s) = 3.44284 3.56867 3.50632
# Velocity P-wave (km/s) = 6.22938 6.46979 6.35072
#
# Compressibility (1/GPa) = 0.02280902
#
# Stress axis : x y z
#
# Youngs Moduli (GPa) = 56.54635 56.54635 107.89270
#
# Poissons Ratio (x) = 0.29536 0.30701
# Poissons Ratio (y) = 0.29536 0.30701
# Poissons Ratio (z) = 0.16090 0.16090
#
# Static dielectric constant tensor:
#      x y z
#    x 3.302060 0.000000 0.000000 
#    y 0.000000 3.302060 0.000000 
#    z 0.000000 0.000000 3.842620 
# 
# 
# High freq. dielectric constant tensor:
#      x y z
#    x 1.724520 0.000000 0.000000 
#    y 0.000000 1.724520 0.000000 
#    z 0.000000 0.000000 1.757470 
# 
# From -- ./inp_files/2415.got.cif
#   From: 2010.03.12/outbox.cif.g09.slc.cpg/sg193_2_cif.got.tgz:2415.got - 2010.04.01 12:20:39.
