data_PCOD8329310
_publ_section_title
;
Structure prediction by ZEFSAII (Michael W. Deem and Ramdas Pophale) SiO2 
 PCOD8329310
Probable space group: P 6/M M M
;
_chemical_formula_sum "Si O2"
_cell_formula_units_Z 96
_cell_length_a 28.298756
_cell_length_b 28.298756
_cell_length_c 9.922409
_cell_angle_alpha 90.000000
_cell_angle_beta 90.000000
_cell_angle_gamma 120.000000
_cell_volume 6881.489403
_symmetry_space_group_name_H-M "P 6/M M M"
_symmetry_group_IT_number 191
_symmetry_cell_setting 'hexagonal'
loop_
_space_group_symop_operation_xyz
x,y,z
x-y,x,z
-y,x-y,z
-x,-y,z
-x+y,-x,z
y,-x+y,z
x-y,-y,-z
-x,-x+y,-z
y,x,-z
-y,-x,-z
-x+y,y,-z
x,x-y,-z
-x,-y,-z
-x+y,-x,-z
y,-x+y,-z
x,y,-z
x-y,x,-z
-y,x-y,-z
-x+y,y,z
x,x-y,z
-y,-x,z
y,x,z
x-y,-y,z
-x,-x+y,z
loop_
_atom_site_type_symbol
_atom_site_label
_atom_site_fract_x
_atom_site_fract_y
_atom_site_fract_z
Si Si1 0.935226 0.519996 0.849082
Si Si2 0.893904 0.681523 0.659669
Si Si3 0.894180 0.894180 0.660711
Si Si4 0.212151 0.212151 0.660958
Si Si5 0.063876 0.397647 0.655741
O O1 0.913346 0.456673 0.810305
O O2 0.912996 0.547270 0.743400
O O3 0.000000 0.551902 0.843185
O O4 0.915691 0.523588 0.000000
O O5 0.894071 0.686917 0.500000
O O6 0.837237 0.674474 0.718806
O O7 0.945618 0.735866 0.718875
O O8 0.900736 0.630121 0.699576
O O9 0.947019 0.894038 0.717921
O O10 0.894687 0.894687 0.500000
O O11 0.841054 0.841054 0.715059
O O12 0.214756 0.214756 0.500000
O O13 0.073166 0.415167 0.500000
O O14 0.000000 0.355118 0.682832
#
# Coordination Sequence:
#
# PCOD8329310 Si02
#       5
#    24  24  12  12  24
#     4   8  14  24  37  53  73  97 122 144 169 205
#     4   9  15  22  32  46  66  92 122 159 201 238
#     4   9  15  20  25  34  50  74 106 147 196 247
#     4   9  14  21  30  41  56  80 117 158 196 237
#     4   9  15  23  35  52  73  95 123 157 189 220
#
# _framework density 13.950468000000001
#
# number of rings (size 3 to 8) (size 9 to 14) (size 15 to 20)
#    0.000    3.250    1.250    1.625    0.000    4.000 
#    0.000    2.500    0.000    0.750    0.000    0.000 
#    0.000    0.000    0.000    0.750    0.000   11.500 
#
# Total GULP energy -1189739.979703 kJ/mol
# GULP energy per Si atom -12393.124789 kJ/mol
# Density = 1.391872 g / cm^3
# Si number density = 13.950468 Si / 1000 Ang^3
#
#
#
# Elastic Constant Matrix: (Units=GPa)
#
#
# Indices 1 2 3 4 5 6 
#
# 1 98.3820 60.6945 36.5645 0.0000 0.0000 0.0000
# 2 60.6945 98.3820 36.5645 0.0000 0.0000 0.0000
# 3 36.5645 36.5645 35.8270 0.0000 0.0000 0.0000
# 4 0.0000 0.0000 0.0000 4.9722 0.0000 0.0000
# 5 0.0000 0.0000 0.0000 0.0000 4.9722 0.0000
# 6 0.0000 0.0000 0.0000 0.0000 0.0000 18.8438
#
#
#
# Elastic Compliance Matrix: (Units=1/GPa)
#
#
# Indices 1 2 3 4 5 6 
#
# 1 0.019188 -0.007346 -0.012086 0.000000 0.000000 0.000000
# 2 -0.007346 0.019188 -0.012086 0.000000 0.000000 0.000000
# 3 -0.012086 -0.012086 0.052582 0.000000 0.000000 0.000000
# 4 0.000000 0.000000 0.000000 0.201117 0.000000 0.000000
# 5 0.000000 0.000000 0.000000 0.000000 0.201117 0.000000
# 6 0.000000 0.000000 0.000000 0.000000 0.000000 0.053068
#
#
# Mechanical properties :
#
#
# Convention : Reuss Voigt Hill
#
# Bulk Modulus (GPa) = 35.81417 55.58200 45.69809
# Shear Modulus (GPa) = 8.08271 12.34215 10.21243
#
# Velocity S-wave (km/s) = 2.40966 2.97764 2.70858
# Velocity P-wave (km/s) = 5.78533 7.19379 6.52766
#
# Compressibility (1/GPa) = 0.02792191
#
# Stress axis : x y z
#
# Youngs Moduli (GPa) = 52.11539 52.11539 19.01802
#
# Poissons Ratio (x) = 0.38283 0.22985
# Poissons Ratio (y) = 0.38283 0.22985
# Poissons Ratio (z) = 0.62987 0.62987
#
# Static dielectric constant tensor:
#      x y z
#    x 2.809230 0.000000 0.000000 
#    y 0.000000 2.809230 0.000000 
#    z 0.000000 0.000000 2.407940 
# 
# 
# High freq. dielectric constant tensor:
#      x y z
#    x 1.516900 0.000000 0.000000 
#    y 0.000000 1.516900 0.000000 
#    z 0.000000 0.000000 1.483850 
# 
# From -- ./inp_files/1605.got.cif
#   From: 2010.03.12/outbox.cif.g09.slc.cpg/sg191_1_cif.got.tgz:1605.got - 2010.04.01 12:09:02.
