data_PCOD8329367
_publ_section_title
;
Structure prediction by ZEFSAII (Michael W. Deem and Ramdas Pophale) SiO2 
 PCOD8329367
Probable space group: P 6/M C C
;
_chemical_formula_sum "Si O2"
_cell_formula_units_Z 168
_cell_length_a 22.520239
_cell_length_b 22.520239
_cell_length_c 25.345584
_cell_angle_alpha 90.000000
_cell_angle_beta 90.000000
_cell_angle_gamma 120.000000
_cell_volume 11132.146797
_symmetry_space_group_name_H-M "P 6/M C C"
_symmetry_group_IT_number 192
_symmetry_cell_setting 'hexagonal'
loop_
_space_group_symop_operation_xyz
x,y,z
x-y,x,z
-y,x-y,z
-x,-y,z
-x+y,-x,z
y,-x+y,z
x-y,-y,1/2-z
-x,-x+y,1/2-z
y,x,1/2-z
-y,-x,1/2-z
-x+y,y,1/2-z
x,x-y,1/2-z
-x,-y,-z
-x+y,-x,-z
y,-x+y,-z
x,y,-z
x-y,x,-z
-y,x-y,-z
-x+y,y,1/2+z
x,x-y,1/2+z
-y,-x,1/2+z
y,x,1/2+z
x-y,-y,1/2+z
-x,-x+y,1/2+z
loop_
_atom_site_type_symbol
_atom_site_label
_atom_site_fract_x
_atom_site_fract_y
_atom_site_fract_z
Si Si1 0.820245 0.745636 0.603593
Si Si2 0.159999 0.088131 0.810576
Si Si3 0.397522 0.071543 0.061035
Si Si4 0.304820 0.385808 0.438066
Si Si5 0.205196 0.529586 0.937412
Si Si6 0.935466 0.736520 0.440952
Si Si7 0.806508 0.463131 0.436947
O O1 0.864704 0.768146 0.657899
O O2 0.753554 0.669880 0.600790
O O3 0.797591 0.801345 0.591780
O O4 0.871043 0.747653 0.558292
O O5 0.110668 0.118535 0.824946
O O6 0.181619 0.090810 0.750000
O O7 0.337614 0.084437 0.084023
O O8 0.471337 0.124323 0.086526
O O9 0.375029 0.991847 0.069897
O O10 0.406119 0.091045 0.000000
O O11 0.282190 0.372154 0.500000
O O12 0.319263 0.459198 0.418472
O O13 0.274148 0.533348 0.915961
O O14 0.198222 0.592371 0.914027
O O15 0.207206 0.533357 0.000000
O O16 0.962960 0.739241 0.500000
O O17 0.807048 0.461286 0.500000
#
# Coordination Sequence:
#
# PCOD8329367 Si02
#       7
#    24  24  24  24  24  24  24
#     4  11  18  28  43  59  79 105 137 169 207 249
#     4  10  20  35  51  65  80 102 136 176 216 257
#     4   8  15  25  36  50  71 102 139 175 208 242
#     4   9  17  27  38  56  81 109 140 173 208 250
#     4   9  16  24  35  51  74 106 146 185 215 240
#     4  10  18  27  39  57  81 108 137 169 204 246
#     4   9  15  23  34  48  68 100 143 185 215 242
#
# _framework density 15.091429
#
# number of rings (size 3 to 8) (size 9 to 14) (size 15 to 20)
#    0.000    2.571    1.429    3.429    0.000    4.571 
#    0.000    2.857    0.000    0.000    0.000    2.000 
#    0.000    0.000    0.000    5.143   13.143    0.857 
#
# Total GULP energy -2081362.177389 kJ/mol
# GULP energy per Si atom -12389.060580 kJ/mol
# Density = 1.505708 g / cm^3
# Si number density = 15.091429 Si / 1000 Ang^3
#
#
#
# Elastic Constant Matrix: (Units=GPa)
#
#
# Indices 1 2 3 4 5 6 
#
# 1 122.0296 65.8723 19.9349 0.0000 0.0000 0.0000
# 2 65.8723 122.0296 19.9349 0.0000 0.0000 0.0000
# 3 19.9349 19.9349 29.7746 0.0000 0.0000 0.0000
# 4 0.0000 0.0000 0.0000 9.7461 0.0000 0.0000
# 5 0.0000 0.0000 0.0000 0.0000 9.7461 0.0000
# 6 0.0000 0.0000 0.0000 0.0000 0.0000 28.0787
#
#
#
# Elastic Compliance Matrix: (Units=1/GPa)
#
#
# Indices 1 2 3 4 5 6 
#
# 1 0.012005 -0.005802 -0.004153 0.000000 0.000000 0.000000
# 2 -0.005802 0.012005 -0.004153 0.000000 0.000000 0.000000
# 3 -0.004153 -0.004153 0.039147 0.000000 0.000000 0.000000
# 4 0.000000 0.000000 0.000000 0.102605 0.000000 0.000000
# 5 0.000000 0.000000 0.000000 0.000000 0.102605 0.000000
# 6 0.000000 0.000000 0.000000 0.000000 0.000000 0.035614
#
#
# Mechanical properties :
#
#
# Convention : Reuss Voigt Hill
#
# Bulk Modulus (GPa) = 28.61997 53.92423 41.27210
# Shear Modulus (GPa) = 14.54142 20.72029 17.63086
#
# Velocity S-wave (km/s) = 3.10749 3.70940 3.42170
# Velocity P-wave (km/s) = 5.64631 7.35904 6.55882
#
# Compressibility (1/GPa) = 0.03494063
#
# Stress axis : x y z
#
# Youngs Moduli (GPa) = 83.29767 83.29767 25.54469
#
# Poissons Ratio (x) = 0.48329 0.10609
# Poissons Ratio (y) = 0.48329 0.10609
# Poissons Ratio (z) = 0.34595 0.34595
#
# Static dielectric constant tensor:
#      x y z
#    x 3.072040 0.000000 0.000000 
#    y 0.000000 3.072040 0.000000 
#    z 0.000000 0.000000 2.321350 
# 
# 
# High freq. dielectric constant tensor:
#      x y z
#    x 1.589700 0.000000 0.000000 
#    y 0.000000 1.589700 0.000000 
#    z 0.000000 0.000000 1.491720 
# 
# From -- ./inp_files/6650.got.cif
#   From: 2010.03.12/outbox.cif.g09.slc.cpg/sg192_4_cif.got.tgz:6650.got - 2010.04.01 12:16:15.
