data_PCOD8329766
_publ_section_title
;
Structure prediction by ZEFSAII (Michael W. Deem and Ramdas Pophale) SiO2 
 PCOD8329766
Probable space group: P 63/M C M
;
_chemical_formula_sum "Si O2"
_cell_formula_units_Z 156
_cell_length_a 22.409243
_cell_length_b 22.409243
_cell_length_c 19.927261
_cell_angle_alpha 90.000000
_cell_angle_beta 90.000000
_cell_angle_gamma 120.000000
_cell_volume 8666.277928
_symmetry_space_group_name_H-M "P 63/M C M"
_symmetry_group_IT_number 193
_symmetry_cell_setting 'hexagonal'
loop_
_space_group_symop_operation_xyz
x,y,z
x-y,x,1/2+z
-y,x-y,z
-x,-y,1/2+z
-x+y,-x,z
y,-x+y,1/2+z
x-y,-y,1/2-z
-x,-x+y,1/2-z
y,x,1/2-z
-y,-x,-z
-x+y,y,-z
x,x-y,-z
-x,-y,-z
-x+y,-x,1/2-z
y,-x+y,-z
x,y,1/2-z
x-y,x,-z
-y,x-y,1/2-z
-x+y,y,1/2+z
x,x-y,1/2+z
-y,-x,1/2+z
y,x,z
x-y,-y,z
-x,-x+y,z
loop_
_atom_site_type_symbol
_atom_site_label
_atom_site_fract_x
_atom_site_fract_y
_atom_site_fract_z
Si Si1 0.076027 0.669831 0.174586
Si Si2 0.672695 0.466221 0.382382
Si Si3 0.669407 0.077412 0.827243
Si Si4 0.453925 0.794716 0.327388
Si Si5 0.531265 0.765632 0.500000
Si Si6 0.779365 0.704049 0.423992
Si Si7 0.882459 0.657982 0.066960
O O1 0.093109 0.699439 0.250000
O O2 0.130717 0.647667 0.151899
O O3 0.075945 0.729928 0.129924
O O4 0.000000 0.602912 0.169609
O O5 0.646376 0.515633 0.352195
O O6 0.737182 0.475146 0.339176
O O7 0.609722 0.388613 0.375787
O O8 0.693916 0.483141 0.460863
O O9 0.693352 0.091689 0.750000
O O10 0.733352 0.087439 0.870975
O O11 0.605085 0.000000 0.836246
O O12 0.432668 0.793583 0.250000
O O13 0.580411 0.761495 0.556460
O O14 0.772679 0.772679 0.410240
O O15 0.855536 0.712688 0.418309
O O16 0.751800 0.680044 0.499790
#
# Coordination Sequence:
#
# PCOD8329766 Si02
#       7
#    24  24  24  24  12  24  24
#     4  10  21  37  57  81 107 140 182 226 272 325
#     4  12  22  40  55  74 107 131 179 222 265 329
#     4  10  19  31  51  76 101 131 166 215 272 321
#     4  11  23  36  56  76  97 136 173 221 274 323
#     4  10  20  36  56  78  98 138 175 212 269 322
#     4   9  17  29  49  77 107 138 174 216 259 315
#     4  10  17  34  54  77 105 140 180 214 265 327
#
# _framework density 18.000806999999998
#
# number of rings (size 3 to 8) (size 9 to 14) (size 15 to 20)
#    0.000    1.846    4.615    2.154    0.000    3.077 
#    0.000    1.538    0.000    0.923    0.000    0.000 
#    0.000    0.000    0.000   45.692    0.000    6.154 
#
# Total GULP energy -1933397.312349 kJ/mol
# GULP energy per Si atom -12393.572515 kJ/mol
# Density = 1.795984 g / cm^3
# Si number density = 18.000807 Si / 1000 Ang^3
#
#
#
# Elastic Constant Matrix: (Units=GPa)
#
#
# Indices 1 2 3 4 5 6 
#
# 1 81.1241 42.1598 30.2094 0.0000 0.0000 0.0000
# 2 42.1598 81.1241 30.2094 0.0000 0.0000 0.0000
# 3 30.2094 30.2094 69.3667 0.0000 0.0000 0.0000
# 4 0.0000 0.0000 0.0000 21.5695 0.0000 0.0000
# 5 0.0000 0.0000 0.0000 0.0000 21.5695 0.0000
# 6 0.0000 0.0000 0.0000 0.0000 0.0000 19.4821
#
#
#
# Elastic Compliance Matrix: (Units=1/GPa)
#
#
# Indices 1 2 3 4 5 6 
#
# 1 0.017988 -0.007676 -0.004491 0.000000 0.000000 0.000000
# 2 -0.007676 0.017988 -0.004491 0.000000 0.000000 0.000000
# 3 -0.004491 -0.004491 0.018328 0.000000 0.000000 0.000000
# 4 0.000000 0.000000 0.000000 0.046362 0.000000 0.000000
# 5 0.000000 0.000000 0.000000 0.000000 0.046362 0.000000
# 6 0.000000 0.000000 0.000000 0.000000 0.000000 0.051329
#
#
# Mechanical properties :
#
#
# Convention : Reuss Voigt Hill
#
# Bulk Modulus (GPa) = 47.64551 48.53022 48.08786
# Shear Modulus (GPa) = 20.94944 21.12665 21.03804
#
# Velocity S-wave (km/s) = 3.41516 3.42957 3.42237
# Velocity P-wave (km/s) = 6.48669 6.53461 6.51069
#
# Compressibility (1/GPa) = 0.02098834
#
# Stress axis : x y z
#
# Youngs Moduli (GPa) = 55.59131 55.59131 54.56177
#
# Poissons Ratio (x) = 0.42672 0.24504
# Poissons Ratio (y) = 0.42672 0.24504
# Poissons Ratio (z) = 0.24966 0.24966
#
# Static dielectric constant tensor:
#      x y z
#    x 3.272930 0.000000 0.000000 
#    y 0.000000 3.272930 0.000000 
#    z 0.000000 0.000000 3.445920 
# 
# 
# High freq. dielectric constant tensor:
#      x y z
#    x 1.676710 0.000000 0.000000 
#    y 0.000000 1.676710 0.000000 
#    z 0.000000 0.000000 1.708190 
# 
# From -- ./inp_files/6739.got.cif
#   From: 2010.03.12/outbox.cif.g09.slc.cpg/sg193_4_cif.got.tgz:6739.got - 2010.04.01 12:20:39.
