data_PCOD8329271
_publ_section_title
;
Structure prediction by ZEFSAII (Michael W. Deem and Ramdas Pophale) SiO2 
 PCOD8329271
Probable space group: P 6/M M M
;
_chemical_formula_sum "Si O2"
_cell_formula_units_Z 102
_cell_length_a 25.725663
_cell_length_b 25.725663
_cell_length_c 10.253208
_cell_angle_alpha 90.000000
_cell_angle_beta 90.000000
_cell_angle_gamma 120.000000
_cell_volume 5876.565103
_symmetry_space_group_name_H-M "P 6/M M M"
_symmetry_group_IT_number 191
_symmetry_cell_setting 'hexagonal'
loop_
_space_group_symop_operation_xyz
x,y,z
x-y,x,z
-y,x-y,z
-x,-y,z
-x+y,-x,z
y,-x+y,z
x-y,-y,-z
-x,-x+y,-z
y,x,-z
-y,-x,-z
-x+y,y,-z
x,x-y,-z
-x,-y,-z
-x+y,-x,-z
y,-x+y,-z
x,y,-z
x-y,x,-z
-y,x-y,-z
-x+y,y,z
x,x-y,z
-y,-x,z
y,x,z
x-y,-y,z
-x,-x+y,z
loop_
_atom_site_type_symbol
_atom_site_label
_atom_site_fract_x
_atom_site_fract_y
_atom_site_fract_z
Si Si1 0.313142 0.000000 0.649567
Si Si2 0.477470 0.406880 0.000000
Si Si3 0.324855 0.894287 0.249996
Si Si4 0.801071 0.602142 0.157935
Si Si5 0.000000 0.120089 0.500000
Si Si6 0.403070 0.474813 0.500000
Si Si7 0.869530 0.739059 0.848733
Si Si8 0.198993 0.000000 0.729395
O O1 0.361236 0.057161 0.729303
O O2 0.251524 0.000000 0.647079
O O3 0.333618 0.000000 0.500000
O O4 0.458205 0.366987 0.127184
O O5 0.446223 0.446223 0.000000
O O6 0.549397 0.450604 0.000000
O O7 0.264980 0.831766 0.221310
O O8 0.362173 0.894544 0.375528
O O9 0.835658 0.671316 0.208888
O O10 0.798800 0.597600 0.000000
O O11 0.000000 0.152898 0.629411
O O12 0.055888 0.111776 0.500000
O O13 0.427081 0.427081 0.500000
O O14 0.458457 0.541544 0.500000
O O15 0.835533 0.775211 0.813565
O O16 0.865183 0.730366 0.000000
#
# Coordination Sequence:
#
# PCOD8329271 Si02
#       8
#    12  12  24  12   6  12  12  12
#     4  12  22  36  56  88 123 159 192 243 302 351
#     4  11  22  35  58  88 118 160 204 238 289 352
#     4  12  21  38  57  84 128 164 196 249 296 349
#     4  11  24  37  57  87 125 166 207 246 300 356
#     4  12  25  42  64  78 102 136 193 264 324 374
#     4  11  22  38  61  90 125 161 197 239 295 357
#     4  11  24  39  57  85 116 156 201 247 299 365
#     4  12  23  39  61  82 112 154 197 245 300 368
#
# _framework density 17.357077
#
# number of rings (size 3 to 8) (size 9 to 14) (size 15 to 20)
#    0.000    0.471    8.824    1.118    0.000    2.353 
#    2.118    2.353    0.000    0.000    0.000    1.647 
#   23.529    0.000    0.000    0.000    0.000    0.000 
#
# Total GULP energy -1264635.961958 kJ/mol
# GULP energy per Si atom -12398.391784 kJ/mol
# Density = 1.731757 g / cm^3
# Si number density = 17.357077 Si / 1000 Ang^3
#
#
#
# Elastic Constant Matrix: (Units=GPa)
#
#
# Indices 1 2 3 4 5 6 
#
# 1 128.1097 56.8003 55.4010 0.0000 0.0000 0.0000
# 2 56.8003 128.1097 55.4010 0.0000 0.0000 0.0000
# 3 55.4010 55.4010 124.5614 0.0000 0.0000 0.0000
# 4 0.0000 0.0000 0.0000 37.9760 0.0000 0.0000
# 5 0.0000 0.0000 0.0000 0.0000 37.9760 0.0000
# 6 0.0000 0.0000 0.0000 0.0000 0.0000 35.6547
#
#
#
# Elastic Compliance Matrix: (Units=1/GPa)
#
#
# Indices 1 2 3 4 5 6 
#
# 1 0.010698 -0.003325 -0.003279 0.000000 0.000000 0.000000
# 2 -0.003325 0.010698 -0.003279 0.000000 0.000000 0.000000
# 3 -0.003279 -0.003279 0.010945 0.000000 0.000000 0.000000
# 4 0.000000 0.000000 0.000000 0.026332 0.000000 0.000000
# 5 0.000000 0.000000 0.000000 0.000000 0.026332 0.000000
# 6 0.000000 0.000000 0.000000 0.000000 0.000000 0.028047
#
#
# Mechanical properties :
#
#
# Convention : Reuss Voigt Hill
#
# Bulk Modulus (GPa) = 79.52835 79.55396 79.54116
# Shear Modulus (GPa) = 36.49307 36.53323 36.51315
#
# Velocity S-wave (km/s) = 4.59027 4.59279 4.59153
# Velocity P-wave (km/s) = 8.60305 8.60571 8.60438
#
# Compressibility (1/GPa) = 0.01257413
#
# Stress axis : x y z
#
# Youngs Moduli (GPa) = 93.47337 93.47337 91.36398
#
# Poissons Ratio (x) = 0.31081 0.29961
# Poissons Ratio (y) = 0.31081 0.29961
# Poissons Ratio (z) = 0.30653 0.30653
#
# Static dielectric constant tensor:
#      x y z
#    x 3.334580 0.000000 0.000000 
#    y 0.000000 3.334580 0.000000 
#    z 0.000000 0.000000 3.186350 
# 
# 
# High freq. dielectric constant tensor:
#      x y z
#    x 1.668030 0.000000 0.000000 
#    y 0.000000 1.668030 0.000000 
#    z 0.000000 0.000000 1.682620 
# 
# From -- ./inp_files/1499.got.cif
#   From: 2010.03.12/outbox.cif.g09.slc.cpg/sg191_1_cif.got.tgz:1499.got - 2010.04.01 12:09:02.
