data_PCOD8329640
_publ_section_title
;
Structure prediction by ZEFSAII (Michael W. Deem and Ramdas Pophale) SiO2 
 PCOD8329640
Probable space group: P 6/M C C
;
_chemical_formula_sum "Si O2"
_cell_formula_units_Z 108
_cell_length_a 20.999220
_cell_length_b 20.999220
_cell_length_c 14.643019
_cell_angle_alpha 90.000000
_cell_angle_beta 90.000000
_cell_angle_gamma 120.000000
_cell_volume 5592.005432
_symmetry_space_group_name_H-M "P 6/M C C"
_symmetry_group_IT_number 192
_symmetry_cell_setting 'hexagonal'
loop_
_space_group_symop_operation_xyz
x,y,z
x-y,x,z
-y,x-y,z
-x,-y,z
-x+y,-x,z
y,-x+y,z
x-y,-y,1/2-z
-x,-x+y,1/2-z
y,x,1/2-z
-y,-x,1/2-z
-x+y,y,1/2-z
x,x-y,1/2-z
-x,-y,-z
-x+y,-x,-z
y,-x+y,-z
x,y,-z
x-y,x,-z
-y,x-y,-z
-x+y,y,1/2+z
x,x-y,1/2+z
-y,-x,1/2+z
y,x,1/2+z
x-y,-y,1/2+z
-x,-x+y,1/2+z
loop_
_atom_site_type_symbol
_atom_site_label
_atom_site_fract_x
_atom_site_fract_y
_atom_site_fract_z
Si Si1 0.211081 0.328459 0.831823
Si Si2 0.014202 0.395223 0.347703
Si Si3 0.197778 0.427782 0.500000
Si Si4 0.052652 0.164558 0.391787
Si Si5 0.395182 0.891812 0.500000
Si Si6 0.452610 0.351593 0.000000
O O1 0.175733 0.351466 0.750000
O O2 0.295288 0.348641 0.819440
O O3 0.208141 0.373863 0.915825
O O4 0.165155 0.241734 0.845851
O O5 0.064012 0.466327 0.407988
O O6 0.000000 0.422267 0.250000
O O7 0.941008 0.347957 0.408838
O O8 0.180213 0.494706 0.500000
O O9 0.284375 0.466826 0.500000
O O10 0.106741 0.135862 0.358322
O O11 0.055223 0.173497 0.500000
O O12 0.463484 0.879619 0.500000
#
# Coordination Sequence:
#
# PCOD8329640 Si02
#       6
#    24  24  12  24  12  12
#     4  11  23  36  57  87 120 155 199 241 299 350
#     4  10  21  36  60  89 121 153 192 239 295 347
#     4  10  22  42  58  83 128 149 184 248 292 350
#     4  10  22  37  56  77 111 157 206 256 302 347
#     4   9  22  41  57  93 119 151 191 240 291 357
#     4  11  22  37  67  88 118 155 200 236 292 357
#
# _framework density 19.313285
#
# number of rings (size 3 to 8) (size 9 to 14) (size 15 to 20)
#    0.000    1.778    1.111    3.556    6.222    2.667 
#    0.667    0.000    0.000    1.333    0.000    0.000 
#    0.000    0.000    0.000    0.000    0.000    0.000 
#
# Total GULP energy -1338761.610009 kJ/mol
# GULP energy per Si atom -12395.940833 kJ/mol
# Density = 1.926933 g / cm^3
# Si number density = 19.313285 Si / 1000 Ang^3
#
#
#
# Elastic Constant Matrix: (Units=GPa)
#
#
# Indices 1 2 3 4 5 6 
#
# 1 111.0146 61.8231 47.1886 0.0000 0.0000 0.0000
# 2 61.8231 111.0146 47.1886 0.0000 0.0000 0.0000
# 3 47.1886 47.1886 127.8686 0.0000 0.0000 0.0000
# 4 0.0000 0.0000 0.0000 12.6596 0.0000 0.0000
# 5 0.0000 0.0000 0.0000 0.0000 12.6596 0.0000
# 6 0.0000 0.0000 0.0000 0.0000 0.0000 24.5958
#
#
#
# Elastic Compliance Matrix: (Units=1/GPa)
#
#
# Indices 1 2 3 4 5 6 
#
# 1 0.013787 -0.006541 -0.002674 0.000000 0.000000 0.000000
# 2 -0.006541 0.013787 -0.002674 0.000000 0.000000 0.000000
# 3 -0.002674 -0.002674 0.009794 0.000000 0.000000 0.000000
# 4 0.000000 0.000000 0.000000 0.078992 0.000000 0.000000
# 5 0.000000 0.000000 0.000000 0.000000 0.078992 0.000000
# 6 0.000000 0.000000 0.000000 0.000000 0.000000 0.040657
#
#
# Mechanical properties :
#
#
# Convention : Reuss Voigt Hill
#
# Bulk Modulus (GPa) = 73.58415 73.58872 73.58643
# Shear Modulus (GPa) = 18.91658 22.89615 20.90636
#
# Velocity S-wave (km/s) = 3.13303 3.44686 3.29368
# Velocity P-wave (km/s) = 7.16036 7.35027 7.25594
#
# Compressibility (1/GPa) = 0.01358988
#
# Stress axis : x y z
#
# Youngs Moduli (GPa) = 72.53045 72.53045 102.10151
#
# Poissons Ratio (x) = 0.47445 0.27302
# Poissons Ratio (y) = 0.47445 0.27302
# Poissons Ratio (z) = 0.19395 0.19395
#
# Static dielectric constant tensor:
#      x y z
#    x 3.489440 0.000000 0.000000 
#    y 0.000000 3.489440 0.000000 
#    z 0.000000 0.000000 5.120620 
# 
# 
# High freq. dielectric constant tensor:
#      x y z
#    x 1.746230 0.000000 0.000000 
#    y 0.000000 1.746230 0.000000 
#    z 0.000000 0.000000 1.768150 
# 
# From -- ./inp_files/4156.got.cif
#   From: 2010.03.12/outbox.cif.g09.slc.cpg/sg192_3_cif.got.tgz:4156.got - 2010.04.01 12:16:15.
