data_PCOD8329426
_publ_section_title
;
Structure prediction by ZEFSAII (Michael W. Deem and Ramdas Pophale) SiO2 
 PCOD8329426
Probable space group: P 6/M C C
;
_chemical_formula_sum "Si O2"
_cell_formula_units_Z 84
_cell_length_a 32.962290
_cell_length_b 32.962290
_cell_length_c 5.299304
_cell_angle_alpha 90.000000
_cell_angle_beta 90.000000
_cell_angle_gamma 120.000000
_cell_volume 4986.366746
_symmetry_space_group_name_H-M "P 6/M C C"
_symmetry_group_IT_number 192
_symmetry_cell_setting 'hexagonal'
loop_
_space_group_symop_operation_xyz
x,y,z
x-y,x,z
-y,x-y,z
-x,-y,z
-x+y,-x,z
y,-x+y,z
x-y,-y,1/2-z
-x,-x+y,1/2-z
y,x,1/2-z
-y,-x,1/2-z
-x+y,y,1/2-z
x,x-y,1/2-z
-x,-y,-z
-x+y,-x,-z
y,-x+y,-z
x,y,-z
x-y,x,-z
-y,x-y,-z
-x+y,y,1/2+z
x,x-y,1/2+z
-y,-x,1/2+z
y,x,1/2+z
x-y,-y,1/2+z
-x,-x+y,1/2+z
loop_
_atom_site_type_symbol
_atom_site_label
_atom_site_fract_x
_atom_site_fract_y
_atom_site_fract_z
Si Si1 0.972880 0.375068 0.000000
Si Si2 0.438933 0.826465 0.000000
Si Si3 0.816407 0.262666 0.500000
Si Si4 0.507609 0.065811 0.000000
Si Si5 0.420526 0.289966 0.500000
Si Si6 0.188652 0.351688 0.000000
Si Si7 0.461940 0.746655 0.000000
O O1 0.921865 0.330975 0.000000
O O2 0.000000 0.373811 0.750000
O O3 0.968976 0.421526 0.000000
O O4 0.407345 0.814690 0.250000
O O5 0.480214 0.880257 0.000000
O O6 0.465208 0.796712 0.000000
O O7 0.842833 0.292613 0.748577
O O8 0.815466 0.213980 0.500000
O O9 0.762559 0.249628 0.500000
O O10 0.527416 0.054832 0.250000
O O11 0.368587 0.243425 0.500000
O O12 0.161154 0.322307 0.250000
O O13 0.434687 0.717344 0.250000
#
# Coordination Sequence:
#
# PCOD8329426 Si02
#       7
#    12  12  12  12  12  12  12
#     4  12  26  40  55  76  98 134 167 192 227 258
#     4  10  23  43  59  80 114 133 158 184 230 271
#     4  10  19  30  51  84 102 125 142 179 238 275
#     4  10  23  41  60  77  92 129 156 201 230 258
#     4  10  20  35  49  72 111 126 146 188 218 272
#     4   8  14  25  42  67  93 118 141 167 220 270
#     4  12  23  34  58  92 110 126 150 182 221 284
#
# _framework density 16.845934
#
# number of rings (size 3 to 8) (size 9 to 14) (size 15 to 20)
#    0.000    1.714    0.000    6.000    6.000    1.714 
#    0.000    0.000    0.000    5.714    0.000    0.000 
#    0.000    0.000    0.000    0.000    0.000    0.000 
#
# Total GULP energy -1041120.085561 kJ/mol
# GULP energy per Si atom -12394.286733 kJ/mol
# Density = 1.680759 g / cm^3
# Si number density = 16.845934 Si / 1000 Ang^3
#
#
#
# Elastic Constant Matrix: (Units=GPa)
#
#
# Indices 1 2 3 4 5 6 
#
# 1 61.9848 16.2284 29.7750 0.0000 0.0000 0.0000
# 2 16.2284 61.9848 29.7750 0.0000 0.0000 0.0000
# 3 29.7750 29.7750 184.0323 0.0000 0.0000 0.0000
# 4 0.0000 0.0000 0.0000 16.5484 0.0000 0.0000
# 5 0.0000 0.0000 0.0000 0.0000 16.5484 0.0000
# 6 0.0000 0.0000 0.0000 0.0000 0.0000 22.8782
#
#
#
# Elastic Compliance Matrix: (Units=1/GPa)
#
#
# Indices 1 2 3 4 5 6 
#
# 1 0.018218 -0.003637 -0.002359 0.000000 0.000000 0.000000
# 2 -0.003637 0.018218 -0.002359 0.000000 0.000000 0.000000
# 3 -0.002359 -0.002359 0.006197 0.000000 0.000000 0.000000
# 4 0.000000 0.000000 0.000000 0.060429 0.000000 0.000000
# 5 0.000000 0.000000 0.000000 0.000000 0.060429 0.000000
# 6 0.000000 0.000000 0.000000 0.000000 0.000000 0.043710
#
#
# Mechanical properties :
#
#
# Convention : Reuss Voigt Hill
#
# Bulk Modulus (GPa) = 38.57429 51.06209 44.81819
# Shear Modulus (GPa) = 21.50054 26.67657 24.08856
#
# Velocity S-wave (km/s) = 3.57642 3.98372 3.78555
# Velocity P-wave (km/s) = 6.32474 7.17893 6.76533
#
# Compressibility (1/GPa) = 0.02592400
#
# Stress axis : x y z
#
# Youngs Moduli (GPa) = 54.88969 54.88969 161.36210
#
# Poissons Ratio (x) = 0.19961 0.38069
# Poissons Ratio (y) = 0.19961 0.38069
# Poissons Ratio (z) = 0.12950 0.12950
#
# Static dielectric constant tensor:
#      x y z
#    x 2.812700 0.000000 0.000000 
#    y 0.000000 2.812700 0.000000 
#    z 0.000000 0.000000 5.623680 
# 
# 
# High freq. dielectric constant tensor:
#      x y z
#    x 1.599430 0.000000 0.000000 
#    y 0.000000 1.599430 0.000000 
#    z 0.000000 0.000000 1.698150 
# 
# From -- ./inp_files/73.got.cif
#   From: 2010.03.12/outbox.cif.g09.slc.cpg/sg192_1_cif.got.tgz:73.got - 2010.04.01 12:16:15.
