data_PCOD8329288
_publ_section_title
;
Structure prediction by ZEFSAII (Michael W. Deem and Ramdas Pophale) SiO2 
 PCOD8329288
Probable space group: P 6/M M M
;
_chemical_formula_sum "Si O2"
_cell_formula_units_Z 96
_cell_length_a 22.861649
_cell_length_b 22.861649
_cell_length_c 14.379943
_cell_angle_alpha 90.000000
_cell_angle_beta 90.000000
_cell_angle_gamma 120.000000
_cell_volume 6508.829594
_symmetry_space_group_name_H-M "P 6/M M M"
_symmetry_group_IT_number 191
_symmetry_cell_setting 'hexagonal'
loop_
_space_group_symop_operation_xyz
x,y,z
x-y,x,z
-y,x-y,z
-x,-y,z
-x+y,-x,z
y,-x+y,z
x-y,-y,-z
-x,-x+y,-z
y,x,-z
-y,-x,-z
-x+y,y,-z
x,x-y,-z
-x,-y,-z
-x+y,-x,-z
y,-x+y,-z
x,y,-z
x-y,x,-z
-y,x-y,-z
-x+y,y,z
x,x-y,z
-y,-x,z
y,x,z
x-y,-y,z
-x,-x+y,z
loop_
_atom_site_type_symbol
_atom_site_label
_atom_site_fract_x
_atom_site_fract_y
_atom_site_fract_z
Si Si1 0.616801 0.696253 0.102828
Si Si2 0.696253 0.616801 0.602828
Si Si3 0.792577 0.714729 0.750000
Si Si4 0.605979 0.525190 0.250000
O O1 0.649421 0.649421 0.093599
O O2 0.668135 0.763317 0.158746
O O3 0.546285 0.653786 0.158695
O O4 0.602769 0.715562 0.000000
O O5 0.715562 0.602769 0.500000
O O6 0.649421 0.649421 0.593599
O O7 0.763317 0.668135 0.658745
O O8 0.653786 0.546285 0.658695
O O9 0.873666 0.747331 0.750000
O O10 0.774686 0.774686 0.750000
O O11 0.555234 0.444767 0.250000
O O12 0.564946 0.564946 0.250000
#
# Coordination Sequence:
#
# PCOD8329288 Si02
#       4
#    24  24  24  24
#     4   8  14  24  36  51  73  99 125 153 185 224
#     4   8  14  24  36  51  73  99 125 153 185 224
#     4   9  17  28  41  56  73  95 127 168 213 261
#     4   8  13  20  31  50  75 102 130 152 168 192
#
# _framework density 14.749195
#
# number of rings (size 3 to 8) (size 9 to 14) (size 15 to 20)
#    0.000    3.750    0.000    3.000    0.000    2.000 
#    0.000    5.000    0.000    0.250    0.000    0.000 
#    0.000    0.000    0.000   60.500    0.000  136.000 
#
# Total GULP energy -1189295.579180 kJ/mol
# GULP energy per Si atom -12388.495616 kJ/mol
# Density = 1.471563 g / cm^3
# Si number density = 14.749195 Si / 1000 Ang^3
#
#
#
# Elastic Constant Matrix: (Units=GPa)
#
#
# Indices 1 2 3 4 5 6 
#
# 1 62.6155 39.3978 32.9456 0.0000 0.0000 0.0000
# 2 39.3978 62.6155 32.9456 0.0000 0.0000 0.0000
# 3 32.9456 32.9456 140.6954 0.0000 0.0000 0.0000
# 4 0.0000 0.0000 0.0000 6.6696 0.0000 0.0000
# 5 0.0000 0.0000 0.0000 0.0000 6.6696 0.0000
# 6 0.0000 0.0000 0.0000 0.0000 0.0000 11.6089
#
#
#
# Elastic Compliance Matrix: (Units=1/GPa)
#
#
# Indices 1 2 3 4 5 6 
#
# 1 0.027310 -0.015761 -0.002704 0.000000 0.000000 0.000000
# 2 -0.015761 0.027310 -0.002704 0.000000 0.000000 0.000000
# 3 -0.002704 -0.002704 0.008374 0.000000 0.000000 0.000000
# 4 0.000000 0.000000 0.000000 0.149935 0.000000 0.000000
# 5 0.000000 0.000000 0.000000 0.000000 0.149935 0.000000
# 6 0.000000 0.000000 0.000000 0.000000 0.000000 0.086141
#
#
# Mechanical properties :
#
#
# Convention : Reuss Voigt Hill
#
# Bulk Modulus (GPa) = 48.41384 52.94491 50.67938
# Shear Modulus (GPa) = 10.03554 15.69876 12.86715
#
# Velocity S-wave (km/s) = 2.61130 3.26602 2.95684
# Velocity P-wave (km/s) = 6.47980 7.08500 6.78915
#
# Compressibility (1/GPa) = 0.02065525
#
# Stress axis : x y z
#
# Youngs Moduli (GPa) = 36.61662 36.61662 119.41553
#
# Poissons Ratio (x) = 0.57710 0.32295
# Poissons Ratio (y) = 0.57710 0.32295
# Poissons Ratio (z) = 0.09903 0.09903
#
# Static dielectric constant tensor:
#      x y z
#    x 2.510890 0.000000 0.000000 
#    y 0.000000 2.510890 0.000000 
#    z 0.000000 0.000000 3.615620 
# 
# 
# High freq. dielectric constant tensor:
#      x y z
#    x 1.518950 0.000000 0.000000 
#    y 0.000000 1.518950 0.000000 
#    z 0.000000 0.000000 1.580920 
# 
# From -- ./inp_files/4180.got.cif
#   From: 2010.03.12/outbox.cif.g09.slc.cpg/sg191_3_cif.got.tgz:4180.got - 2010.04.01 12:09:02.
