data_PCOD8329612
_publ_section_title
;
Structure prediction by ZEFSAII (Michael W. Deem and Ramdas Pophale) SiO2 
 PCOD8329612
Probable space group: P 6/M C C
;
_chemical_formula_sum "Si O2"
_cell_formula_units_Z 162
_cell_length_a 21.871807
_cell_length_b 21.871807
_cell_length_c 20.952197
_cell_angle_alpha 90.000000
_cell_angle_beta 90.000000
_cell_angle_gamma 120.000000
_cell_volume 8680.195975
_symmetry_space_group_name_H-M "P 6/M C C"
_symmetry_group_IT_number 192
_symmetry_cell_setting 'hexagonal'
loop_
_space_group_symop_operation_xyz
x,y,z
x-y,x,z
-y,x-y,z
-x,-y,z
-x+y,-x,z
y,-x+y,z
x-y,-y,1/2-z
-x,-x+y,1/2-z
y,x,1/2-z
-y,-x,1/2-z
-x+y,y,1/2-z
x,x-y,1/2-z
-x,-y,-z
-x+y,-x,-z
y,-x+y,-z
x,y,-z
x-y,x,-z
-y,x-y,-z
-x+y,y,1/2+z
x,x-y,1/2+z
-y,-x,1/2+z
y,x,1/2+z
x-y,-y,1/2+z
-x,-x+y,1/2+z
loop_
_atom_site_type_symbol
_atom_site_label
_atom_site_fract_x
_atom_site_fract_y
_atom_site_fract_z
Si Si1 0.490396 0.642315 0.392851
Si Si2 0.500000 0.500000 0.750000
Si Si3 0.754877 0.360895 0.000000
Si Si4 0.853473 0.701798 0.824397
Si Si5 0.905606 0.398749 0.651748
Si Si6 0.368112 0.376901 0.926863
Si Si7 0.454381 0.240622 0.175647
Si Si8 0.737060 0.001675 0.674051
O O1 0.426637 0.621491 0.440613
O O2 0.459441 0.574894 0.348007
O O3 0.561546 0.651917 0.424809
O O4 0.500484 0.711079 0.357155
O O5 0.573836 0.530266 0.712193
O O6 0.721130 0.412248 0.000000
O O7 0.844685 0.689370 0.750000
O O8 0.821963 0.624114 0.854626
O O9 0.935983 0.748896 0.841990
O O10 0.810014 0.739426 0.846431
O O11 0.951919 0.401627 0.589695
O O12 0.837028 0.322674 0.661272
O O13 0.324083 0.320293 0.871703
O O14 0.352826 0.347101 0.000000
O O15 0.455176 0.227588 0.250000
O O16 0.717371 0.000000 0.750000
#
# Coordination Sequence:
#
# PCOD8329612 Si02
#       8
#    24   6  12  24  24  24  24  24
#     4  12  23  43  61  86 119 161 211 260 311 375
#     4  12  24  40  66  96 116 164 198 260 318 388
#     4  10  24  44  65  78 110 168 218 252 311 385
#     4   9  18  33  61  90 121 158 200 251 299 364
#     4  12  26  40  65  91 125 159 206 257 319 374
#     4  12  25  40  63  94 126 158 202 263 321 368
#     4  11  23  39  61  91 120 157 202 259 314 369
#     4  10  20  38  63  93 126 164 207 248 307 375
#
# _framework density 18.663171999999999
#
# number of rings (size 3 to 8) (size 9 to 14) (size 15 to 20)
#    0.148    0.889    5.185    1.778    2.074    0.593 
#    2.222    2.222    1.630    0.296    0.000    2.074 
#    0.000    0.000    0.000    1.333    0.000    1.481 
#
# Total GULP energy -2007301.635210 kJ/mol
# GULP energy per Si atom -12390.750835 kJ/mol
# Density = 1.862069 g / cm^3
# Si number density = 18.663172 Si / 1000 Ang^3
#
#
#
# Elastic Constant Matrix: (Units=GPa)
#
#
# Indices 1 2 3 4 5 6 
#
# 1 110.9818 42.5172 31.6408 0.0000 0.0000 0.0000
# 2 42.5172 110.9818 31.6408 0.0000 0.0000 0.0000
# 3 31.6408 31.6408 84.0326 0.0000 0.0000 0.0000
# 4 0.0000 0.0000 0.0000 20.4004 0.0000 0.0000
# 5 0.0000 0.0000 0.0000 0.0000 20.4004 0.0000
# 6 0.0000 0.0000 0.0000 0.0000 0.0000 34.2323
#
#
#
# Elastic Compliance Matrix: (Units=1/GPa)
#
#
# Indices 1 2 3 4 5 6 
#
# 1 0.011159 -0.003447 -0.002904 0.000000 0.000000 0.000000
# 2 -0.003447 0.011159 -0.002904 0.000000 0.000000 0.000000
# 3 -0.002904 -0.002904 0.014087 0.000000 0.000000 0.000000
# 4 0.000000 0.000000 0.000000 0.049019 0.000000 0.000000
# 5 0.000000 0.000000 0.000000 0.000000 0.049019 0.000000
# 6 0.000000 0.000000 0.000000 0.000000 0.000000 0.029212
#
#
# Mechanical properties :
#
#
# Convention : Reuss Voigt Hill
#
# Bulk Modulus (GPa) = 55.87995 57.51045 56.69520
# Shear Modulus (GPa) = 26.57760 28.35313 27.46536
#
# Velocity S-wave (km/s) = 3.77777 3.90192 3.84035
# Velocity P-wave (km/s) = 7.00250 7.15415 7.07873
#
# Compressibility (1/GPa) = 0.01789551
#
# Stress axis : x y z
#
# Youngs Moduli (GPa) = 89.61429 89.61429 70.98835
#
# Poissons Ratio (x) = 0.30891 0.20613
# Poissons Ratio (y) = 0.30891 0.20613
# Poissons Ratio (z) = 0.26022 0.26022
#
# Static dielectric constant tensor:
#      x y z
#    x 3.683910 0.000000 0.000000 
#    y 0.000000 3.683910 0.000000 
#    z 0.000000 0.000000 3.159750 
# 
# 
# High freq. dielectric constant tensor:
#      x y z
#    x 1.725030 0.000000 0.000000 
#    y 0.000000 1.725030 0.000000 
#    z 0.000000 0.000000 1.707420 
# 
# From -- ./inp_files/6068.got.cif
#   From: 2010.03.12/outbox.cif.g09.slc.cpg/sg192_4_cif.got.tgz:6068.got - 2010.04.01 12:16:15.
