data_PCOD8329927
_publ_section_title
;
Structure prediction by ZEFSAII (Michael W. Deem and Ramdas Pophale) SiO2 
 PCOD8329927
Probable space group: P 63/M C M
;
_chemical_formula_sum "Si O2"
_cell_formula_units_Z 96
_cell_length_a 25.637440
_cell_length_b 25.637440
_cell_length_c 10.251762
_cell_angle_alpha 90.000000
_cell_angle_beta 90.000000
_cell_angle_gamma 120.000000
_cell_volume 5835.505207
_symmetry_space_group_name_H-M "P 63/M C M"
_symmetry_group_IT_number 193
_symmetry_cell_setting 'hexagonal'
loop_
_space_group_symop_operation_xyz
x,y,z
x-y,x,1/2+z
-y,x-y,z
-x,-y,1/2+z
-x+y,-x,z
y,-x+y,1/2+z
x-y,-y,1/2-z
-x,-x+y,1/2-z
y,x,1/2-z
-y,-x,-z
-x+y,y,-z
x,x-y,-z
-x,-y,-z
-x+y,-x,1/2-z
y,-x+y,-z
x,y,1/2-z
x-y,x,-z
-y,x-y,1/2-z
-x+y,y,1/2+z
x,x-y,1/2+z
-y,-x,1/2+z
y,x,z
x-y,-y,z
-x,-x+y,z
loop_
_atom_site_type_symbol
_atom_site_label
_atom_site_fract_x
_atom_site_fract_y
_atom_site_fract_z
Si Si1 0.332582 0.790110 0.250000
Si Si2 0.467290 0.172703 0.501675
Si Si3 0.228850 0.069690 0.898531
Si Si4 0.068961 0.720026 0.099657
Si Si5 0.333187 0.788036 0.750000
O O1 0.329455 0.826192 0.373949
O O2 0.280342 0.720903 0.250000
O O3 0.393709 0.789109 0.250000
O O4 0.451677 0.225839 0.500000
O O5 0.404748 0.110121 0.506506
O O6 0.507841 0.177182 0.623715
O O7 0.229463 0.091672 0.750000
O O8 0.294004 0.079511 0.935706
O O9 0.178898 0.000000 0.911066
O O10 0.211323 0.105661 0.000000
O O11 0.086678 0.719155 0.250000
O O12 0.000000 0.669679 0.074469
#
# Coordination Sequence:
#
# PCOD8329927 Si02
#       5
#    12  24  24  24  12
#     4  10  21  32  51  75  99 127 160 207 249 297
#     4  10  19  32  51  74  98 128 163 204 248 292
#     4   9  18  32  51  76 106 138 171 210 254 301
#     4   9  17  32  53  73  98 134 169 201 246 302
#     4  10  19  34  51  71  99 129 162 197 251 303
#
# _framework density 16.451017
#
# number of rings (size 3 to 8) (size 9 to 14) (size 15 to 20)
#    0.000    2.500    1.250    3.250    0.000    0.500 
#    2.250    3.125    0.000    4.750    0.000    0.000 
#    0.000    0.000    0.000    0.000    0.000    0.000 
#
# Total GULP energy -1190511.850097 kJ/mol
# GULP energy per Si atom -12401.165105 kJ/mol
# Density = 1.641357 g / cm^3
# Si number density = 16.451017 Si / 1000 Ang^3
#
#
#
# Elastic Constant Matrix: (Units=GPa)
#
#
# Indices 1 2 3 4 5 6 
#
# 1 89.8980 42.5634 53.5538 0.0000 0.0000 0.0000
# 2 42.5634 89.8980 53.5538 0.0000 0.0000 0.0000
# 3 53.5538 53.5538 123.5853 0.0000 0.0000 0.0000
# 4 0.0000 0.0000 0.0000 60.1722 0.0000 0.0000
# 5 0.0000 0.0000 0.0000 0.0000 60.1722 0.0000
# 6 0.0000 0.0000 0.0000 0.0000 0.0000 23.6673
#
#
#
# Elastic Compliance Matrix: (Units=1/GPa)
#
#
# Indices 1 2 3 4 5 6 
#
# 1 0.016374 -0.004752 -0.005036 0.000000 0.000000 0.000000
# 2 -0.004752 0.016374 -0.005036 0.000000 0.000000 0.000000
# 3 -0.005036 -0.005036 0.012456 0.000000 0.000000 0.000000
# 4 0.000000 0.000000 0.000000 0.016619 0.000000 0.000000
# 5 0.000000 0.000000 0.000000 0.000000 0.016619 0.000000
# 6 0.000000 0.000000 0.000000 0.000000 0.000000 0.042252
#
#
# Mechanical properties :
#
#
# Convention : Reuss Voigt Hill
#
# Bulk Modulus (GPa) = 64.28768 66.96925 65.62846
# Shear Modulus (GPa) = 32.14865 39.04972 35.59918
#
# Velocity S-wave (km/s) = 4.42543 4.87734 4.65687
# Velocity P-wave (km/s) = 8.07934 8.51555 8.30031
#
# Compressibility (1/GPa) = 0.01555508
#
# Stress axis : x y z
#
# Youngs Moduli (GPa) = 61.07322 61.07322 80.28202
#
# Poissons Ratio (x) = 0.29024 0.40430
# Poissons Ratio (y) = 0.29024 0.40430
# Poissons Ratio (z) = 0.30756 0.30756
#
# Static dielectric constant tensor:
#      x y z
#    x 2.940010 0.000000 0.000000 
#    y 0.000000 2.940010 0.000000 
#    z 0.000000 0.000000 3.137300 
# 
# 
# High freq. dielectric constant tensor:
#      x y z
#    x 1.624080 0.000000 0.000000 
#    y 0.000000 1.624080 0.000000 
#    z 0.000000 0.000000 1.636700 
# 
# From -- ./inp_files/2275.got.cif
#   From: 2010.03.12/outbox.cif.g09.slc.cpg/sg193_2_cif.got.tgz:2275.got - 2010.04.01 12:20:39.
