data_PCOD8329860
_publ_section_title
;
Structure prediction by ZEFSAII (Michael W. Deem and Ramdas Pophale) SiO2 
 PCOD8329860
Probable space group: P 63/M C M
;
_chemical_formula_sum "Si O2"
_cell_formula_units_Z 96
_cell_length_a 28.760912
_cell_length_b 28.760912
_cell_length_c 9.364974
_cell_angle_alpha 90.000000
_cell_angle_beta 90.000000
_cell_angle_gamma 120.000000
_cell_volume 6708.763994
_symmetry_space_group_name_H-M "P 63/M C M"
_symmetry_group_IT_number 193
_symmetry_cell_setting 'hexagonal'
loop_
_space_group_symop_operation_xyz
x,y,z
x-y,x,1/2+z
-y,x-y,z
-x,-y,1/2+z
-x+y,-x,z
y,-x+y,1/2+z
x-y,-y,1/2-z
-x,-x+y,1/2-z
y,x,1/2-z
-y,-x,-z
-x+y,y,-z
x,x-y,-z
-x,-y,-z
-x+y,-x,1/2-z
y,-x+y,-z
x,y,1/2-z
x-y,x,-z
-y,x-y,1/2-z
-x+y,y,1/2+z
x,x-y,1/2+z
-y,-x,1/2+z
y,x,z
x-y,-y,z
-x,-x+y,z
loop_
_atom_site_type_symbol
_atom_site_label
_atom_site_fract_x
_atom_site_fract_y
_atom_site_fract_z
Si Si1 0.663280 0.877829 0.917983
Si Si2 0.573291 0.509650 0.906915
Si Si3 0.676669 0.614142 0.583139
Si Si4 0.061057 0.212411 0.084140
O O1 0.651650 0.866713 0.750000
O O2 0.725682 0.918896 0.948962
O O3 0.644628 0.822314 0.000000
O O4 0.629484 0.903075 0.981261
O O5 0.579748 0.491425 0.750000
O O6 0.536216 0.536216 0.900243
O O7 0.631741 0.554012 0.964576
O O8 0.544673 0.455328 0.000000
O O9 0.691731 0.615593 0.750000
O O10 0.655232 0.655232 0.555921
O O11 0.066397 0.203401 0.250000
O O12 0.000000 0.177943 0.030947
O O13 0.096047 0.192094 0.000000
#
# Coordination Sequence:
#
# PCOD8329860 Si02
#       4
#    24  24  24  24
#     4  10  19  30  43  59  80 106 136 169 205 244
#     4   8  14  24  37  54  77 104 133 164 195 225
#     4   9  17  28  41  58  81 108 137 169 203 237
#     4   9  18  31  45  62  82 101 125 159 197 240
#
# _framework density 14.30964
#
# number of rings (size 3 to 8) (size 9 to 14) (size 15 to 20)
#    0.000    3.000    0.000    3.000    0.000    4.000 
#    0.000    2.500    0.000    0.250    0.000    0.000 
#    0.000    0.000    0.000    0.750    0.000   12.000 
#
# Total GULP energy -1190045.079955 kJ/mol
# GULP energy per Si atom -12396.302916 kJ/mol
# Density = 1.427707 g / cm^3
# Si number density = 14.309640 Si / 1000 Ang^3
#
#
#
# Elastic Constant Matrix: (Units=GPa)
#
#
# Indices 1 2 3 4 5 6 
#
# 1 90.3372 46.7642 52.8405 0.0000 0.0000 0.0000
# 2 46.7642 90.3372 52.8405 0.0000 0.0000 0.0000
# 3 52.8405 52.8405 77.2283 0.0000 0.0000 0.0000
# 4 0.0000 0.0000 0.0000 26.0671 0.0000 0.0000
# 5 0.0000 0.0000 0.0000 0.0000 26.0671 0.0000
# 6 0.0000 0.0000 0.0000 0.0000 0.0000 21.7865
#
#
#
# Elastic Compliance Matrix: (Units=1/GPa)
#
#
# Indices 1 2 3 4 5 6 
#
# 1 0.019192 -0.003758 -0.010560 0.000000 0.000000 0.000000
# 2 -0.003758 0.019192 -0.010560 0.000000 0.000000 0.000000
# 3 -0.010560 -0.010560 0.027399 0.000000 0.000000 0.000000
# 4 0.000000 0.000000 0.000000 0.038363 0.000000 0.000000
# 5 0.000000 0.000000 0.000000 0.000000 0.038363 0.000000
# 6 0.000000 0.000000 0.000000 0.000000 0.000000 0.045900
#
#
# Mechanical properties :
#
#
# Convention : Reuss Voigt Hill
#
# Bulk Modulus (GPa) = 62.39553 62.53258 62.46406
# Shear Modulus (GPa) = 20.53336 21.81463 21.17399
#
# Velocity S-wave (km/s) = 3.79216 3.90868 3.85086
# Velocity P-wave (km/s) = 7.92922 8.01030 7.96986
#
# Compressibility (1/GPa) = 0.01602679
#
# Stress axis : x y z
#
# Youngs Moduli (GPa) = 52.10544 52.10544 36.49757
#
# Poissons Ratio (x) = 0.19582 0.38541
# Poissons Ratio (y) = 0.19582 0.38541
# Poissons Ratio (z) = 0.55023 0.55023
#
# Static dielectric constant tensor:
#      x y z
#    x 2.692520 0.000000 0.000000 
#    y 0.000000 2.692520 0.000000 
#    z 0.000000 0.000000 2.940900 
# 
# 
# High freq. dielectric constant tensor:
#      x y z
#    x 1.523860 0.000000 0.000000 
#    y 0.000000 1.523860 0.000000 
#    z 0.000000 0.000000 1.553940 
# 
# From -- ./inp_files/2253.got.cif
#   From: 2010.03.12/outbox.cif.g09.slc.cpg/sg193_2_cif.got.tgz:2253.got - 2010.04.01 12:20:39.
