data_PCOD8329033
_publ_section_title
;
Structure prediction by ZEFSAII (Michael W. Deem and Ramdas Pophale) SiO2 
 PCOD8329033
Probable space group: P 6/M M M
;
_chemical_formula_sum "Si O2"
_cell_formula_units_Z 132
_cell_length_a 17.907159
_cell_length_b 17.907159
_cell_length_c 27.841654
_cell_angle_alpha 90.000000
_cell_angle_beta 90.000000
_cell_angle_gamma 120.000000
_cell_volume 7731.772080
_symmetry_space_group_name_H-M "P 6/M M M"
_symmetry_group_IT_number 191
_symmetry_cell_setting 'hexagonal'
loop_
_space_group_symop_operation_xyz
x,y,z
x-y,x,z
-y,x-y,z
-x,-y,z
-x+y,-x,z
y,-x+y,z
x-y,-y,-z
-x,-x+y,-z
y,x,-z
-y,-x,-z
-x+y,y,-z
x,x-y,-z
-x,-y,-z
-x+y,-x,-z
y,-x+y,-z
x,y,-z
x-y,x,-z
-y,x-y,-z
-x+y,y,z
x,x-y,z
-y,-x,z
y,x,z
x-y,-y,z
-x,-x+y,z
loop_
_atom_site_type_symbol
_atom_site_label
_atom_site_fract_x
_atom_site_fract_y
_atom_site_fract_z
Si Si1 0.640925 0.903028 0.945733
Si Si2 0.492984 0.331779 0.412144
Si Si3 0.641830 0.738811 0.220826
Si Si4 0.269184 0.902172 0.500000
Si Si5 0.637347 0.902979 0.669819
Si Si6 0.367193 0.898337 0.862197
O O1 0.681559 0.840780 0.940015
O O2 0.559523 0.869477 0.910356
O O3 0.715397 0.000000 0.932460
O O4 0.607162 0.899032 0.000000
O O5 0.525648 0.262824 0.415022
O O6 0.573454 0.426547 0.418276
O O7 0.424614 0.314223 0.453616
O O8 0.447044 0.325406 0.361485
O O9 0.683448 0.841724 0.214666
O O10 0.715749 0.715749 0.207644
O O11 0.607910 0.710714 0.274996
O O12 0.560211 0.691165 0.185532
O O13 0.166188 0.833813 0.500000
O O14 0.286042 0.000000 0.500000
O O15 0.671378 0.835689 0.658990
O O16 0.714154 0.000000 0.657857
O O17 0.427368 0.854735 0.861979
O O18 0.426836 0.000000 0.861969
#
# Coordination Sequence:
#
# PCOD8329033 Si02
#       6
#    24  24  24  12  24  24
#     4   9  17  29  46  68  93 121 153 188 225 266
#     4  10  20  33  49  70  97 127 157 189 228 274
#     4   9  17  30  48  69  93 121 154 190 228 271
#     4  10  21  35  51  72  97 125 156 192 233 273
#     4   9  18  31  47  68  93 122 155 192 233 273
#     4   9  17  28  43  64  87 111 143 184 226 266
#
# _framework density 17.072413000000001
#
# number of rings (size 3 to 8) (size 9 to 14) (size 15 to 20)
#    0.000    2.727    0.000    1.545    0.000    2.909 
#    0.000    4.545    0.000    3.545    0.000    3.818 
#    0.000    8.727    0.000    0.545    0.000    0.364 
#
# Total GULP energy -1636147.181279 kJ/mol
# GULP energy per Si atom -12395.054404 kJ/mol
# Density = 1.703356 g / cm^3
# Si number density = 17.072413 Si / 1000 Ang^3
#
#
#
# Elastic Constant Matrix: (Units=GPa)
#
#
# Indices 1 2 3 4 5 6 
#
# 1 99.3012 64.1947 45.2724 0.0000 0.0000 0.0000
# 2 64.1947 99.3012 45.2724 0.0000 0.0000 0.0000
# 3 45.2724 45.2724 100.2200 0.0000 0.0000 0.0000
# 4 0.0000 0.0000 0.0000 21.5994 0.0000 0.0000
# 5 0.0000 0.0000 0.0000 0.0000 21.5994 0.0000
# 6 0.0000 0.0000 0.0000 0.0000 0.0000 17.5532
#
#
#
# Elastic Compliance Matrix: (Units=1/GPa)
#
#
# Indices 1 2 3 4 5 6 
#
# 1 0.018321 -0.010164 -0.003685 0.000000 0.000000 0.000000
# 2 -0.010164 0.018321 -0.003685 0.000000 0.000000 0.000000
# 3 -0.003685 -0.003685 0.013307 0.000000 0.000000 0.000000
# 4 0.000000 0.000000 0.000000 0.046298 0.000000 0.000000
# 5 0.000000 0.000000 0.000000 0.000000 0.046298 0.000000
# 6 0.000000 0.000000 0.000000 0.000000 0.000000 0.056970
#
#
# Mechanical properties :
#
#
# Convention : Reuss Voigt Hill
#
# Bulk Modulus (GPa) = 67.19511 67.58904 67.39207
# Shear Modulus (GPa) = 20.87325 21.75594 21.31459
#
# Velocity S-wave (km/s) = 3.50041 3.57365 3.53722
# Velocity P-wave (km/s) = 7.46870 7.53018 7.49950
#
# Compressibility (1/GPa) = 0.01488204
#
# Stress axis : x y z
#
# Youngs Moduli (GPa) = 54.58246 54.58246 75.14794
#
# Poissons Ratio (x) = 0.55477 0.27690
# Poissons Ratio (y) = 0.55477 0.27690
# Poissons Ratio (z) = 0.20112 0.20112
#
# Static dielectric constant tensor:
#      x y z
#    x 3.164430 0.000000 0.000000 
#    y 0.000000 3.164430 0.000000 
#    z 0.000000 0.000000 3.455910 
# 
# 
# High freq. dielectric constant tensor:
#      x y z
#    x 1.638550 0.000000 0.000000 
#    y 0.000000 1.638550 0.000000 
#    z 0.000000 0.000000 1.679940 
# 
# From -- ./inp_files/9742.got.cif
#   From: 2010.03.12/outbox.cif.g09.slc.cpg/sg191_5_cif.got.tgz:9742.got - 2010.04.01 12:09:02.
