data_PCOD8329874
_publ_section_title
;
Structure prediction by ZEFSAII (Michael W. Deem and Ramdas Pophale) SiO2 
 PCOD8329874
Probable space group: P 63/M C M
;
_chemical_formula_sum "Si O2"
_cell_formula_units_Z 144
_cell_length_a 22.677634
_cell_length_b 22.677634
_cell_length_c 18.258980
_cell_angle_alpha 90.000000
_cell_angle_beta 90.000000
_cell_angle_gamma 120.000000
_cell_volume 8132.098460
_symmetry_space_group_name_H-M "P 63/M C M"
_symmetry_group_IT_number 193
_symmetry_cell_setting 'hexagonal'
loop_
_space_group_symop_operation_xyz
x,y,z
x-y,x,1/2+z
-y,x-y,z
-x,-y,1/2+z
-x+y,-x,z
y,-x+y,1/2+z
x-y,-y,1/2-z
-x,-x+y,1/2-z
y,x,1/2-z
-y,-x,-z
-x+y,y,-z
x,x-y,-z
-x,-y,-z
-x+y,-x,1/2-z
y,-x+y,-z
x,y,1/2-z
x-y,x,-z
-y,x-y,1/2-z
-x+y,y,1/2+z
x,x-y,1/2+z
-y,-x,1/2+z
y,x,z
x-y,-y,z
-x,-x+y,z
loop_
_atom_site_type_symbol
_atom_site_label
_atom_site_fract_x
_atom_site_fract_y
_atom_site_fract_z
Si Si1 0.540572 0.617089 0.077091
Si Si2 0.403639 0.079695 0.570178
Si Si3 0.431055 0.919386 0.667611
Si Si4 0.152743 0.075918 0.912798
Si Si5 0.833896 0.695795 0.916604
Si Si6 0.075617 0.729031 0.666097
O O1 0.562219 0.562219 0.052704
O O2 0.463548 0.575317 0.109838
O O3 0.584385 0.661474 0.145343
O O4 0.552399 0.664587 0.005117
O O5 0.455661 0.098459 0.637567
O O6 0.351219 0.104573 0.592285
O O7 0.357417 0.000000 0.556872
O O8 0.422000 0.888786 0.750000
O O9 0.481049 0.000000 0.671284
O O10 0.127394 0.127394 0.883559
O O11 0.228089 0.096379 0.881959
O O12 0.100789 0.000000 0.883935
O O13 0.152895 0.076448 0.000000
O O14 0.867395 0.656203 0.880626
O O15 0.853635 0.707270 0.000000
O O16 0.094939 0.745507 0.750000
O O17 0.000000 0.717147 0.649574
#
# Coordination Sequence:
#
# PCOD8329874 Si02
#       6
#    24  24  24  24  24  24
#     4   9  16  29  49  71  96 127 165 205 246 294
#     4  10  19  30  47  71 102 137 172 209 257 320
#     4   9  17  29  46  70 100 131 161 194 238 296
#     4   9  17  28  45  67  92 125 173 231 285 333
#     4  11  20  31  47  70 102 137 171 215 276 340
#     4  10  20  33  50  72  99 133 175 222 268 319
#
# _framework density 17.707605999999998
#
# number of rings (size 3 to 8) (size 9 to 14) (size 15 to 20)
#    0.000    2.333    1.667    2.167    0.000    6.667 
#    0.000    0.000    0.000    1.500    0.000    0.000 
#    1.667    1.667    1.000    0.000    0.000    0.000 
#
# Total GULP energy -1784263.979153 kJ/mol
# GULP energy per Si atom -12390.722077 kJ/mol
# Density = 1.766730 g / cm^3
# Si number density = 17.707606 Si / 1000 Ang^3
#
#
#
# Elastic Constant Matrix: (Units=GPa)
#
#
# Indices 1 2 3 4 5 6 
#
# 1 98.1778 45.7080 31.0256 0.0000 0.0000 0.0000
# 2 45.7080 98.1778 31.0256 0.0000 0.0000 0.0000
# 3 31.0256 31.0256 71.7958 0.0000 0.0000 0.0000
# 4 0.0000 0.0000 0.0000 17.7669 0.0000 0.0000
# 5 0.0000 0.0000 0.0000 0.0000 17.7669 0.0000
# 6 0.0000 0.0000 0.0000 0.0000 0.0000 26.2349
#
#
#
# Elastic Compliance Matrix: (Units=1/GPa)
#
#
# Indices 1 2 3 4 5 6 
#
# 1 0.013800 -0.005258 -0.003691 0.000000 0.000000 0.000000
# 2 -0.005258 0.013800 -0.003691 0.000000 0.000000 0.000000
# 3 -0.003691 -0.003691 0.017119 0.000000 0.000000 0.000000
# 4 0.000000 0.000000 0.000000 0.056285 0.000000 0.000000
# 5 0.000000 0.000000 0.000000 0.000000 0.056285 0.000000
# 6 0.000000 0.000000 0.000000 0.000000 0.000000 0.038117
#
#
# Mechanical properties :
#
#
# Convention : Reuss Voigt Hill
#
# Bulk Modulus (GPa) = 51.44738 53.74107 52.59422
# Shear Modulus (GPa) = 22.01032 23.04653 22.52843
#
# Velocity S-wave (km/s) = 3.52943 3.61155 3.57073
# Velocity P-wave (km/s) = 6.76210 6.91420 6.83857
#
# Compressibility (1/GPa) = 0.01943734
#
# Stress axis : x y z
#
# Youngs Moduli (GPa) = 72.46271 72.46271 58.41590
#
# Poissons Ratio (x) = 0.38104 0.21563
# Poissons Ratio (y) = 0.38104 0.21563
# Poissons Ratio (z) = 0.26748 0.26748
#
# Static dielectric constant tensor:
#      x y z
#    x 3.187050 0.000000 0.000000 
#    y 0.000000 3.187050 0.000000 
#    z 0.000000 0.000000 3.203760 
# 
# 
# High freq. dielectric constant tensor:
#      x y z
#    x 1.661330 0.000000 0.000000 
#    y 0.000000 1.661330 0.000000 
#    z 0.000000 0.000000 1.674340 
# 
# From -- ./inp_files/6574.got.cif
#   From: 2010.03.12/outbox.cif.g09.slc.cpg/sg193_4_cif.got.tgz:6574.got - 2010.04.01 12:20:39.
