data_PCOD8329917
_publ_section_title
;
Structure prediction by ZEFSAII (Michael W. Deem and Ramdas Pophale) SiO2 
 PCOD8329917
Probable space group: P 63/M C M
;
_chemical_formula_sum "Si O2"
_cell_formula_units_Z 164
_cell_length_a 20.787850
_cell_length_b 20.787850
_cell_length_c 25.056519
_cell_angle_alpha 90.000000
_cell_angle_beta 90.000000
_cell_angle_gamma 120.000000
_cell_volume 9377.142516
_symmetry_space_group_name_H-M "P 63/M C M"
_symmetry_group_IT_number 193
_symmetry_cell_setting 'hexagonal'
loop_
_space_group_symop_operation_xyz
x,y,z
x-y,x,1/2+z
-y,x-y,z
-x,-y,1/2+z
-x+y,-x,z
y,-x+y,1/2+z
x-y,-y,1/2-z
-x,-x+y,1/2-z
y,x,1/2-z
-y,-x,-z
-x+y,y,-z
x,x-y,-z
-x,-y,-z
-x+y,-x,1/2-z
y,-x+y,-z
x,y,1/2-z
x-y,x,-z
-y,x-y,1/2-z
-x+y,y,1/2+z
x,x-y,1/2+z
-y,-x,1/2+z
y,x,z
x-y,-y,z
-x,-x+y,z
loop_
_atom_site_type_symbol
_atom_site_label
_atom_site_fract_x
_atom_site_fract_y
_atom_site_fract_z
Si Si1 0.829321 0.580891 0.945205
Si Si2 0.568326 0.652864 0.812654
Si Si3 0.826912 0.087230 0.900290
Si Si4 0.918789 0.385435 0.990982
Si Si5 0.517304 0.322428 0.101690
Si Si6 0.913167 0.086834 0.000000
Si Si7 0.333333 0.666667 0.434746
Si Si8 0.801496 0.716199 0.810242
O O1 0.886129 0.656058 0.916278
O O2 0.766637 0.527659 0.903249
O O3 0.797590 0.595180 0.000000
O O4 0.875786 0.540393 0.958381
O O5 0.552315 0.648506 0.750000
O O6 0.588035 0.588035 0.828131
O O7 0.495480 0.647338 0.841714
O O8 0.638165 0.732070 0.829140
O O9 0.886095 0.110238 0.947603
O O10 0.868409 0.127035 0.846425
O O11 0.782865 0.000000 0.889428
O O12 0.873140 0.350599 0.938194
O O13 0.000000 0.393098 0.984606
O O14 0.929616 0.464808 0.000000
O O15 0.603526 0.350471 0.087616
O O16 0.000000 0.122088 0.995216
O O17 0.333334 0.666667 0.500000
O O18 0.823469 0.708528 0.750000
O O19 0.779792 0.779792 0.813620
#
# Coordination Sequence:
#
# PCOD8329917 Si02
#       8
#    24  24  24  24  24  12   8  24
#     4  10  19  32  48  72 105 140 176 219 266 316
#     4   9  18  34  58  85 109 136 180 236 284 325
#     4  11  20  31  48  76 107 136 174 222 274 329
#     4  10  20  33  50  75 106 140 178 216 261 323
#     4  11  20  35  56  78 108 146 185 222 272 325
#     4  10  21  34  48  68 102 144 180 214 264 332
#     4  12  24  39  58  83 118 156 192 225 274 344
#     4   9  18  34  54  76 102 133 174 224 272 320
#
# _framework density 17.489336999999999
#
# number of rings (size 3 to 8) (size 9 to 14) (size 15 to 20)
#    0.000    1.902    2.195    4.902    0.000    0.293 
#    0.000    0.732    0.000    0.293    0.000    0.000 
#    0.000    0.000    0.000    0.000    0.000    0.000 
#
# Total GULP energy -2032888.560151 kJ/mol
# GULP energy per Si atom -12395.661952 kJ/mol
# Density = 1.744953 g / cm^3
# Si number density = 17.489337 Si / 1000 Ang^3
#
#
#
# Elastic Constant Matrix: (Units=GPa)
#
#
# Indices 1 2 3 4 5 6 
#
# 1 84.7760 34.4062 40.9266 0.0000 0.0000 0.0000
# 2 34.4062 84.7761 40.9266 0.0000 0.0000 0.0000
# 3 40.9266 40.9266 83.2825 0.0000 0.0000 0.0000
# 4 0.0000 0.0000 0.0000 12.6820 0.0001 0.0000
# 5 0.0000 0.0000 0.0000 0.0001 12.6821 0.0000
# 6 0.0000 0.0000 0.0000 0.0000 0.0000 25.1849
#
#
#
# Elastic Compliance Matrix: (Units=1/GPa)
#
#
# Indices 1 2 3 4 5 6 
#
# 1 0.016259 -0.003594 -0.006224 0.000000 0.000000 0.000000
# 2 -0.003594 0.016259 -0.006224 0.000000 0.000000 0.000000
# 3 -0.006224 -0.006224 0.018124 0.000000 0.000000 0.000000
# 4 0.000000 0.000000 0.000000 0.078852 -0.000001 0.000000
# 5 0.000000 0.000000 0.000000 -0.000001 0.078851 0.000000
# 6 0.000000 0.000000 0.000000 0.000000 0.000000 0.039706
#
#
# Mechanical properties :
#
#
# Convention : Reuss Voigt Hill
#
# Bulk Modulus (GPa) = 53.88213 53.92814 53.90513
# Shear Modulus (GPa) = 17.46289 19.21482 18.33886
#
# Velocity S-wave (km/s) = 3.16331 3.31820 3.24168
# Velocity P-wave (km/s) = 6.64962 6.75147 6.70074
#
# Compressibility (1/GPa) = 0.01855903
#
# Stress axis : x y z
#
# Youngs Moduli (GPa) = 61.50417 61.50421 55.17450
#
# Poissons Ratio (x) = 0.22105 0.34340
# Poissons Ratio (y) = 0.22105 0.34340
# Poissons Ratio (z) = 0.38279 0.38279
#
# Static dielectric constant tensor:
#      x y z
#    x 3.157420 0.000000 0.000000 
#    y 0.000000 3.157410 0.000000 
#    z 0.000000 0.000000 3.169590 
# 
# 
# High freq. dielectric constant tensor:
#      x y z
#    x 1.675520 0.000000 0.000000 
#    y 0.000000 1.675520 0.000000 
#    z 0.000000 0.000000 1.661380 
# 
# From -- ./inp_files/7757.got.cif
#   From: 2010.03.12/outbox.cif.g09.slc.cpg/sg193_4_cif.got.tgz:7757.got - 2010.04.01 12:20:39.
