data_PCOD8329994
_publ_section_title
;
Structure prediction by ZEFSAII (Michael W. Deem and Ramdas Pophale) SiO2 
 PCOD8329994
Probable space group: P 63/M C M
;
_chemical_formula_sum "Si O2"
_cell_formula_units_Z 80
_cell_length_a 17.559258
_cell_length_b 17.559258
_cell_length_c 16.621556
_cell_angle_alpha 90.000000
_cell_angle_beta 90.000000
_cell_angle_gamma 120.000000
_cell_volume 4438.279300
_symmetry_space_group_name_H-M "P 63/M C M"
_symmetry_group_IT_number 193
_symmetry_cell_setting 'hexagonal'
loop_
_space_group_symop_operation_xyz
x,y,z
x-y,x,1/2+z
-y,x-y,z
-x,-y,1/2+z
-x+y,-x,z
y,-x+y,1/2+z
x-y,-y,1/2-z
-x,-x+y,1/2-z
y,x,1/2-z
-y,-x,-z
-x+y,y,-z
x,x-y,-z
-x,-y,-z
-x+y,-x,1/2-z
y,-x+y,-z
x,y,1/2-z
x-y,x,-z
-y,x-y,1/2-z
-x+y,y,1/2+z
x,x-y,1/2+z
-y,-x,1/2+z
y,x,z
x-y,-y,z
-x,-x+y,z
loop_
_atom_site_type_symbol
_atom_site_label
_atom_site_fract_x
_atom_site_fract_y
_atom_site_fract_z
Si Si1 0.200894 0.100179 0.904918
Si Si2 0.810521 0.338922 0.054118
Si Si3 0.666668 0.333334 0.343427
Si Si4 0.361724 0.258495 0.839447
O O1 0.135882 0.135882 0.878358
O O2 0.297749 0.157264 0.865740
O O3 0.159269 0.000000 0.874663
O O4 0.212938 0.106469 0.000000
O O5 0.762789 0.357998 0.126711
O O6 0.876819 0.312422 0.093791
O O7 0.740349 0.259652 0.000000
O O8 0.857934 0.428967 0.000000
O O9 0.666667 0.333334 0.250000
O O10 0.400555 0.260068 0.750000
O O11 0.303022 0.303022 0.835942
#
# Coordination Sequence:
#
# PCOD8329994 Si02
#       4
#    24  24   8  24
#     4   9  17  30  49  72  99 134 175 213 247 289
#     4   9  18  32  50  72  94 119 158 201 243 297
#     4   9  16  29  52  75  94 119 148 186 235 287
#     4  10  20  32  47  70 100 132 165 204 251 299
#
# _framework density 18.025003000000002
#
# number of rings (size 3 to 8) (size 9 to 14) (size 15 to 20)
#    0.000    2.700    0.000    3.300    0.000    2.400 
#    0.000    0.000    0.000    3.600    0.000    0.000 
#    0.000    0.000    0.000    0.000    0.000    0.000 
#
# Total GULP energy -991393.251420 kJ/mol
# GULP energy per Si atom -12392.415643 kJ/mol
# Density = 1.798398 g / cm^3
# Si number density = 18.025003 Si / 1000 Ang^3
#
#
#
# Elastic Constant Matrix: (Units=GPa)
#
#
# Indices 1 2 3 4 5 6 
#
# 1 85.2318 41.7723 43.4145 0.0001 0.0000 0.0000
# 2 41.7723 85.2313 43.4143 0.0001 0.0000 -0.0001
# 3 43.4145 43.4143 106.0409 0.0002 0.0000 0.0000
# 4 0.0001 0.0001 0.0002 20.8912 0.0000 0.0000
# 5 0.0000 0.0000 0.0000 0.0000 20.8914 0.0000
# 6 0.0000 -0.0001 0.0000 0.0000 0.0000 21.7294
#
#
#
# Elastic Compliance Matrix: (Units=1/GPa)
#
#
# Indices 1 2 3 4 5 6 
#
# 1 0.016972 -0.006038 -0.004477 0.000000 0.000000 0.000000
# 2 -0.006038 0.016972 -0.004477 0.000000 0.000000 0.000000
# 3 -0.004477 -0.004477 0.013096 0.000000 0.000000 0.000000
# 4 0.000000 0.000000 0.000000 0.047867 0.000000 0.000000
# 5 0.000000 0.000000 0.000000 0.000000 0.047866 0.000000
# 6 0.000000 0.000000 0.000000 0.000000 0.000000 0.046021
#
#
# Mechanical properties :
#
#
# Convention : Reuss Voigt Hill
#
# Bulk Modulus (GPa) = 58.62356 59.30068 58.96212
# Shear Modulus (GPa) = 22.27542 22.56261 22.41901
#
# Velocity S-wave (km/s) = 3.51922 3.54183 3.53054
# Velocity P-wave (km/s) = 7.00766 7.04958 7.02865
#
# Compressibility (1/GPa) = 0.01705799
#
# Stress axis : x y z
#
# Youngs Moduli (GPa) = 58.91999 58.91976 76.35981
#
# Poissons Ratio (x) = 0.35575 0.34184
# Poissons Ratio (y) = 0.35575 0.34183
# Poissons Ratio (z) = 0.26376 0.26376
#
# Static dielectric constant tensor:
#      x y z
#    x 3.325610 0.000000 0.000000 
#    y 0.000000 3.325600 0.000000 
#    z 0.000000 0.000000 3.518550 
# 
# 
# High freq. dielectric constant tensor:
#      x y z
#    x 1.681790 0.000000 0.000000 
#    y 0.000000 1.681790 0.000000 
#    z 0.000000 0.000000 1.705160 
# 
# From -- ./inp_files/5001.got.cif
#   From: 2010.03.12/outbox.cif.g09.slc.cpg/sg193_3_cif.got.tgz:5001.got - 2010.04.01 12:20:39.
