data_PCOD8329456
_publ_section_title
;
Structure prediction by ZEFSAII (Michael W. Deem and Ramdas Pophale) SiO2 
 PCOD8329456
Probable space group: P 6/M C C
;
_chemical_formula_sum "Si O2"
_cell_formula_units_Z 120
_cell_length_a 22.115569
_cell_length_b 22.115569
_cell_length_c 15.148619
_cell_angle_alpha 90.000000
_cell_angle_beta 90.000000
_cell_angle_gamma 120.000000
_cell_volume 6416.525281
_symmetry_space_group_name_H-M "P 6/M C C"
_symmetry_group_IT_number 192
_symmetry_cell_setting 'hexagonal'
loop_
_space_group_symop_operation_xyz
x,y,z
x-y,x,z
-y,x-y,z
-x,-y,z
-x+y,-x,z
y,-x+y,z
x-y,-y,1/2-z
-x,-x+y,1/2-z
y,x,1/2-z
-y,-x,1/2-z
-x+y,y,1/2-z
x,x-y,1/2-z
-x,-y,-z
-x+y,-x,-z
y,-x+y,-z
x,y,-z
x-y,x,-z
-y,x-y,-z
-x+y,y,1/2+z
x,x-y,1/2+z
-y,-x,1/2+z
y,x,1/2+z
x-y,-y,1/2+z
-x,-x+y,1/2+z
loop_
_atom_site_type_symbol
_atom_site_label
_atom_site_fract_x
_atom_site_fract_y
_atom_site_fract_z
Si Si1 0.734141 0.825713 0.163002
Si Si2 0.258649 0.207674 0.403305
Si Si3 0.281759 0.418818 0.898590
Si Si4 0.141924 0.417013 0.897547
Si Si5 0.469339 0.388245 0.752173
O O1 0.732046 0.866023 0.250000
O O2 0.758975 0.886305 0.089190
O O3 0.786267 0.794337 0.164975
O O4 0.660973 0.758315 0.139350
O O5 0.250463 0.233102 0.500000
O O6 0.338466 0.251487 0.369378
O O7 0.223633 0.441973 0.886205
O O8 0.345923 0.465620 0.835677
O O9 0.307102 0.429627 0.000000
O O10 0.119579 0.463650 0.839847
O O11 0.123907 0.420791 0.000000
O O12 0.409551 0.409551 0.750000
O O13 0.544919 0.455082 0.750000
#
# Coordination Sequence:
#
# PCOD8329456 Si02
#       5
#    24  24  24  24  24
#     4  11  20  31  50  77 107 138 176 223 273 320
#     4  10  19  32  50  75 104 137 176 221 269 319
#     4   9  19  36  59  81 103 136 180 225 269 311
#     4  10  20  36  57  79 103 137 179 225 268 308
#     4  11  23  35  51  80 115 147 174 205 258 328
#
# _framework density 18.701712000000001
#
# number of rings (size 3 to 8) (size 9 to 14) (size 15 to 20)
#    0.000    1.800    0.000    7.800    0.000    3.200 
#    0.000    2.000    0.000    3.600    0.000    2.800 
#    0.000    0.000    0.000    0.000    0.000    0.000 
#
# Total GULP energy -1487199.687369 kJ/mol
# GULP energy per Si atom -12393.330728 kJ/mol
# Density = 1.865915 g / cm^3
# Si number density = 18.701712 Si / 1000 Ang^3
#
#
#
# Elastic Constant Matrix: (Units=GPa)
#
#
# Indices 1 2 3 4 5 6 
#
# 1 92.7788 45.0867 49.6003 0.0000 0.0000 0.0000
# 2 45.0867 92.7788 49.6003 0.0000 0.0000 0.0000
# 3 49.6003 49.6003 126.3681 0.0000 0.0000 0.0000
# 4 0.0000 0.0000 0.0000 24.0375 0.0000 0.0000
# 5 0.0000 0.0000 0.0000 0.0000 24.0375 0.0000
# 6 0.0000 0.0000 0.0000 0.0000 0.0000 23.8460
#
#
#
# Elastic Compliance Matrix: (Units=1/GPa)
#
#
# Indices 1 2 3 4 5 6 
#
# 1 0.015538 -0.005430 -0.003968 0.000000 0.000000 0.000000
# 2 -0.005430 0.015538 -0.003968 0.000000 0.000000 0.000000
# 3 -0.003968 -0.003968 0.011028 0.000000 0.000000 0.000000
# 4 0.000000 0.000000 0.000000 0.041602 0.000000 0.000000
# 5 0.000000 0.000000 0.000000 0.000000 0.041602 0.000000
# 6 0.000000 0.000000 0.000000 0.000000 0.000000 0.041936
#
#
# Mechanical properties :
#
#
# Convention : Reuss Voigt Hill
#
# Bulk Modulus (GPa) = 65.04364 66.72224 65.88294
# Shear Modulus (GPa) = 25.11330 25.56011 25.33670
#
# Velocity S-wave (km/s) = 3.66845 3.70094 3.68473
# Velocity P-wave (km/s) = 7.26625 7.34963 7.30806
#
# Compressibility (1/GPa) = 0.01537429
#
# Stress axis : x y z
#
# Youngs Moduli (GPa) = 64.35805 64.35805 90.67844
#
# Poissons Ratio (x) = 0.34945 0.35977
# Poissons Ratio (y) = 0.34945 0.35977
# Poissons Ratio (z) = 0.25534 0.25534
#
# Static dielectric constant tensor:
#      x y z
#    x 3.378110 0.000000 0.000000 
#    y 0.000000 3.378110 0.000000 
#    z 0.000000 0.000000 3.741790 
# 
# 
# High freq. dielectric constant tensor:
#      x y z
#    x 1.706010 0.000000 0.000000 
#    y 0.000000 1.706010 0.000000 
#    z 0.000000 0.000000 1.749280 
# 
# From -- ./inp_files/3163.got.cif
#   From: 2010.03.12/outbox.cif.g09.slc.cpg/sg192_2_cif.got.tgz:3163.got - 2010.04.01 12:16:15.
