data_PCOD8329968
_publ_section_title
;
Structure prediction by ZEFSAII (Michael W. Deem and Ramdas Pophale) SiO2 
 PCOD8329968
Probable space group: P 63/M C M
;
_chemical_formula_sum "Si O2"
_cell_formula_units_Z 144
_cell_length_a 20.133511
_cell_length_b 20.133511
_cell_length_c 22.715739
_cell_angle_alpha 90.000000
_cell_angle_beta 90.000000
_cell_angle_gamma 120.000000
_cell_volume 7974.372790
_symmetry_space_group_name_H-M "P 63/M C M"
_symmetry_group_IT_number 193
_symmetry_cell_setting 'hexagonal'
loop_
_space_group_symop_operation_xyz
x,y,z
x-y,x,1/2+z
-y,x-y,z
-x,-y,1/2+z
-x+y,-x,z
y,-x+y,1/2+z
x-y,-y,1/2-z
-x,-x+y,1/2-z
y,x,1/2-z
-y,-x,-z
-x+y,y,-z
x,x-y,-z
-x,-y,-z
-x+y,-x,1/2-z
y,-x+y,-z
x,y,1/2-z
x-y,x,-z
-y,x-y,1/2-z
-x+y,y,1/2+z
x,x-y,1/2+z
-y,-x,1/2+z
y,x,z
x-y,-y,z
-x,-x+y,z
loop_
_atom_site_type_symbol
_atom_site_label
_atom_site_fract_x
_atom_site_fract_y
_atom_site_fract_z
Si Si1 0.402862 0.090546 0.448012
Si Si2 0.673872 0.583527 0.917515
Si Si3 0.911624 0.088476 0.317604
Si Si4 0.264521 0.350608 0.750000
Si Si5 0.495682 0.579662 0.250000
Si Si6 0.469207 0.908420 0.623236
Si Si7 0.173490 0.337049 0.634449
O O1 0.414152 0.115004 0.515869
O O2 0.485502 0.123642 0.415743
O O3 0.352963 0.124444 0.420768
O O4 0.356134 0.000000 0.440732
O O5 0.635976 0.635976 0.907879
O O6 0.613023 0.494856 0.905097
O O7 0.744802 0.613270 0.872615
O O8 0.898939 0.106529 0.250000
O O9 0.863000 0.110088 0.361954
O O10 0.000000 0.136614 0.335537
O O11 0.885304 0.000000 0.325207
O O12 0.273663 0.273663 0.750000
O O13 0.348499 0.420689 0.750000
O O14 0.222563 0.358366 0.693397
O O15 0.503217 0.503217 0.250000
O O16 0.453289 0.580249 0.310373
O O17 0.521010 0.000000 0.625912
#
# Coordination Sequence:
#
# PCOD8329968 Si02
#       7
#    24  24  24  12  12  24  24
#     4  10  19  34  57  79 104 140 185 232 274 330
#     4  10  22  36  50  78 114 147 180 220 281 343
#     4  10  20  34  52  75 106 147 193 243 301 365
#     4  11  20  33  53  81 111 137 182 237 289 341
#     4   9  16  29  52  81 103 127 168 219 263 311
#     4   9  17  32  55  79 105 134 170 216 268 325
#     4  12  21  33  53  81 113 144 185 239 292 342
#
# _framework density 18.057846999999999
#
# number of rings (size 3 to 8) (size 9 to 14) (size 15 to 20)
#    0.000    1.833    2.500    3.167    0.000    3.333 
#    0.000    0.833    0.000    0.667    0.000    2.333 
#    0.000    8.000    0.000    0.000    0.000    0.000 
#
# Total GULP energy -1785245.132654 kJ/mol
# GULP energy per Si atom -12397.535643 kJ/mol
# Density = 1.801675 g / cm^3
# Si number density = 18.057847 Si / 1000 Ang^3
#
#
#
# Elastic Constant Matrix: (Units=GPa)
#
#
# Indices 1 2 3 4 5 6 
#
# 1 72.4059 26.4714 38.0113 0.0000 0.0000 0.0000
# 2 26.4714 72.4059 38.0113 0.0000 0.0000 0.0000
# 3 38.0113 38.0113 89.9350 0.0000 0.0000 0.0000
# 4 0.0000 0.0000 0.0000 34.7736 0.0000 0.0000
# 5 0.0000 0.0000 0.0000 0.0000 34.7736 0.0000
# 6 0.0000 0.0000 0.0000 0.0000 0.0000 22.9673
#
#
#
# Elastic Compliance Matrix: (Units=1/GPa)
#
#
# Indices 1 2 3 4 5 6 
#
# 1 0.018376 -0.003394 -0.006332 0.000000 0.000000 0.000000
# 2 -0.003394 0.018376 -0.006332 0.000000 0.000000 0.000000
# 3 -0.006332 -0.006332 0.016472 0.000000 0.000000 0.000000
# 4 0.000000 0.000000 0.000000 0.028757 0.000000 0.000000
# 5 0.000000 0.000000 0.000000 0.000000 0.028757 0.000000
# 6 0.000000 0.000000 0.000000 0.000000 0.000000 0.043540
#
#
# Mechanical properties :
#
#
# Convention : Reuss Voigt Hill
#
# Bulk Modulus (GPa) = 47.37735 48.85940 48.11838
# Shear Modulus (GPa) = 25.84891 27.31976 26.58434
#
# Velocity S-wave (km/s) = 3.78756 3.89382 3.84106
# Velocity P-wave (km/s) = 6.73950 6.87981 6.81001
#
# Compressibility (1/GPa) = 0.02110713
#
# Stress axis : x y z
#
# Youngs Moduli (GPa) = 54.41848 54.41848 60.70979
#
# Poissons Ratio (x) = 0.18470 0.38443
# Poissons Ratio (y) = 0.18470 0.38443
# Poissons Ratio (z) = 0.34459 0.34459
#
# Static dielectric constant tensor:
#      x y z
#    x 3.230510 0.000000 0.000000 
#    y 0.000000 3.230510 0.000000 
#    z 0.000000 0.000000 3.486180 
# 
# 
# High freq. dielectric constant tensor:
#      x y z
#    x 1.684000 0.000000 0.000000 
#    y 0.000000 1.684000 0.000000 
#    z 0.000000 0.000000 1.703520 
# 
# From -- ./inp_files/6664.got.cif
#   From: 2010.03.12/outbox.cif.g09.slc.cpg/sg193_4_cif.got.tgz:6664.got - 2010.04.01 12:20:39.
