data_PCOD8329180
_publ_section_title
;
Structure prediction by ZEFSAII (Michael W. Deem and Ramdas Pophale) SiO2 
 PCOD8329180
Probable space group: P 6/M M M
;
_chemical_formula_sum "Si O2"
_cell_formula_units_Z 120
_cell_length_a 17.989796
_cell_length_b 17.989796
_cell_length_c 25.438975
_cell_angle_alpha 90.000000
_cell_angle_beta 90.000000
_cell_angle_gamma 120.000000
_cell_volume 7129.888157
_symmetry_space_group_name_H-M "P 6/M M M"
_symmetry_group_IT_number 191
_symmetry_cell_setting 'hexagonal'
loop_
_space_group_symop_operation_xyz
x,y,z
x-y,x,z
-y,x-y,z
-x,-y,z
-x+y,-x,z
y,-x+y,z
x-y,-y,-z
-x,-x+y,-z
y,x,-z
-y,-x,-z
-x+y,y,-z
x,x-y,-z
-x,-y,-z
-x+y,-x,-z
y,-x+y,-z
x,y,-z
x-y,x,-z
-y,x-y,-z
-x+y,y,z
x,x-y,z
-y,-x,z
y,x,z
x-y,-y,z
-x,-x+y,z
loop_
_atom_site_type_symbol
_atom_site_label
_atom_site_fract_x
_atom_site_fract_y
_atom_site_fract_z
Si Si1 0.163466 0.666794 0.292135
Si Si2 0.496712 0.163491 0.587721
Si Si3 0.665598 0.165932 0.000000
Si Si4 0.505355 0.665147 0.113768
Si Si5 0.734945 0.095307 0.500000
Si Si6 0.734453 0.095478 0.204144
O O1 0.150373 0.575187 0.275231
O O2 0.263349 0.736652 0.284044
O O3 0.134884 0.665349 0.352210
O O4 0.105042 0.689743 0.256252
O O5 0.575289 0.150577 0.570770
O O6 0.526592 0.263296 0.579760
O O7 0.415801 0.104971 0.551569
O O8 0.650181 0.115210 0.944566
O O9 0.763208 0.236792 0.000000
O O10 0.603447 0.206893 0.000000
O O11 0.482755 0.741378 0.111996
O O12 0.420851 0.579150 0.133066
O O13 0.581844 0.687237 0.153530
O O14 0.836374 0.163627 0.500000
O O15 0.722117 0.000000 0.500000
O O16 0.835899 0.164102 0.203386
O O17 0.721434 0.000000 0.203727
#
# Coordination Sequence:
#
# PCOD8329180 Si02
#       6
#    24  24  12  24  12  24
#     4   9  17  29  46  69  98 131 162 186 207 238
#     4   9  17  29  46  69  98 131 162 187 210 242
#     4   8  13  22  37  59  88 123 160 190 211 234
#     4   9  16  26  42  65  94 127 159 186 210 241
#     4  10  21  35  49  66  89 117 150 190 237 283
#     4  10  21  35  49  65  86 113 145 184 231 278
#
# _framework density 16.830559000000001
#
# number of rings (size 3 to 8) (size 9 to 14) (size 15 to 20)
#    0.000    2.800    0.000    1.600    0.000    6.400 
#    0.000    5.500    0.000    2.100    0.000    0.000 
#    0.000    0.000    0.000   10.000    0.000   11.800 
#
# Total GULP energy -1487250.335826 kJ/mol
# GULP energy per Si atom -12393.752799 kJ/mol
# Density = 1.679225 g / cm^3
# Si number density = 16.830559 Si / 1000 Ang^3
#
#
#
# Elastic Constant Matrix: (Units=GPa)
#
#
# Indices 1 2 3 4 5 6 
#
# 1 82.4859 57.5433 38.5100 0.0000 0.0000 0.0000
# 2 57.5433 82.4859 38.5100 0.0000 0.0000 0.0000
# 3 38.5100 38.5100 98.1714 0.0000 0.0000 0.0000
# 4 0.0000 0.0000 0.0000 11.1453 0.0000 0.0000
# 5 0.0000 0.0000 0.0000 0.0000 11.1453 0.0000
# 6 0.0000 0.0000 0.0000 0.0000 0.0000 12.4713
#
#
#
# Elastic Compliance Matrix: (Units=1/GPa)
#
#
# Indices 1 2 3 4 5 6 
#
# 1 0.024599 -0.015493 -0.003572 0.000000 0.000000 0.000000
# 2 -0.015493 0.024599 -0.003572 0.000000 0.000000 0.000000
# 3 -0.003572 -0.003572 0.012989 0.000000 0.000000 0.000000
# 4 0.000000 0.000000 0.000000 0.089724 0.000000 0.000000
# 5 0.000000 0.000000 0.000000 0.000000 0.089724 0.000000
# 6 0.000000 0.000000 0.000000 0.000000 0.000000 0.080184
#
#
# Mechanical properties :
#
#
# Convention : Reuss Voigt Hill
#
# Bulk Modulus (GPa) = 59.12741 59.14107 59.13424
# Shear Modulus (GPa) = 13.41453 15.52439 14.46946
#
# Velocity S-wave (km/s) = 2.82624 3.04039 2.93527
# Velocity P-wave (km/s) = 6.77181 6.89497 6.83367
#
# Compressibility (1/GPa) = 0.01691263
#
# Stress axis : x y z
#
# Youngs Moduli (GPa) = 40.65196 40.65196 76.98984
#
# Poissons Ratio (x) = 0.62982 0.27501
# Poissons Ratio (y) = 0.62982 0.27501
# Poissons Ratio (z) = 0.14521 0.14521
#
# Static dielectric constant tensor:
#      x y z
#    x 2.836710 0.000000 0.000000 
#    y 0.000000 2.836710 0.000000 
#    z 0.000000 0.000000 3.624770 
# 
# 
# High freq. dielectric constant tensor:
#      x y z
#    x 1.612250 0.000000 0.000000 
#    y 0.000000 1.612250 0.000000 
#    z 0.000000 0.000000 1.674720 
# 
# From -- ./inp_files/8549.got.cif
#   From: 2010.03.12/outbox.cif.g09.slc.cpg/sg191_5_cif.got.tgz:8549.got - 2010.04.01 12:09:02.
