data_PCOD8329127
_publ_section_title
;
Structure prediction by ZEFSAII (Michael W. Deem and Ramdas Pophale) SiO2 
 PCOD8329127
Probable space group: P 6/M M M
;
_chemical_formula_sum "Si O2"
_cell_formula_units_Z 144
_cell_length_a 31.410090
_cell_length_b 31.410090
_cell_length_c 9.036811
_cell_angle_alpha 90.000000
_cell_angle_beta 90.000000
_cell_angle_gamma 120.000000
_cell_volume 7721.189166
_symmetry_space_group_name_H-M "P 6/M M M"
_symmetry_group_IT_number 191
_symmetry_cell_setting 'hexagonal'
loop_
_space_group_symop_operation_xyz
x,y,z
x-y,x,z
-y,x-y,z
-x,-y,z
-x+y,-x,z
y,-x+y,z
x-y,-y,-z
-x,-x+y,-z
y,x,-z
-y,-x,-z
-x+y,y,-z
x,x-y,-z
-x,-y,-z
-x+y,-x,-z
y,-x+y,-z
x,y,-z
x-y,x,-z
-y,x-y,-z
-x+y,y,z
x,x-y,z
-y,-x,z
y,x,z
x-y,-y,z
-x,-x+y,z
loop_
_atom_site_type_symbol
_atom_site_label
_atom_site_fract_x
_atom_site_fract_y
_atom_site_fract_z
Si Si1 0.900002 0.201225 0.834184
Si Si2 0.431052 0.764242 0.670815
Si Si3 0.147541 0.395997 0.334010
Si Si4 0.850521 0.796125 0.328812
Si Si5 0.422546 0.478561 0.329228
Si Si6 0.663334 0.146111 0.175188
O O1 0.848048 0.151953 0.835386
O O2 0.895952 0.242673 0.740784
O O3 0.940034 0.190433 0.760690
O O4 0.917123 0.221036 0.000000
O O5 0.446950 0.776790 0.500000
O O6 0.374493 0.748986 0.692833
O O7 0.437389 0.718695 0.724014
O O8 0.464270 0.812482 0.766773
O O9 0.131060 0.400348 0.500000
O O10 0.196803 0.393605 0.339243
O O11 0.158180 0.442525 0.237269
O O12 0.843007 0.780858 0.500000
O O13 0.905826 0.811652 0.277609
O O14 0.842041 0.842041 0.298832
O O15 0.407122 0.475840 0.500000
O O16 0.468353 0.531648 0.293063
O O17 0.436799 0.436799 0.294663
O O18 0.377704 0.469747 0.226224
O O19 0.665220 0.147836 0.000000
#
# Coordination Sequence:
#
# PCOD8329127 Si02
#       6
#    24  24  24  24  24  24
#     4   9  17  30  49  73 100 128 160 203 254 304
#     4  10  21  38  59  81 107 143 189 237 280 322
#     4  10  20  35  55  76 101 137 178 216 255 303
#     4   9  17  30  49  73 102 138 180 222 263 311
#     4   9  19  38  62  82 100 128 168 212 257 307
#     4  12  24  35  52  81 114 144 174 213 264 321
#
# _framework density 18.649977
#
# number of rings (size 3 to 8) (size 9 to 14) (size 15 to 20)
#    0.000    2.167    0.000    4.167    0.000    9.333 
#    0.000    1.667    0.000    6.167    0.000    1.167 
#    0.000    0.000    0.000    4.167    0.000    4.333 
#
# Total GULP energy -1785799.829842 kJ/mol
# GULP energy per Si atom -12401.387707 kJ/mol
# Density = 1.860753 g / cm^3
# Si number density = 18.649977 Si / 1000 Ang^3
#
#
#
# Elastic Constant Matrix: (Units=GPa)
#
#
# Indices 1 2 3 4 5 6 
#
# 1 80.4783 32.1332 43.8375 0.0000 0.0000 0.0000
# 2 32.1332 80.4783 43.8375 0.0000 0.0000 0.0000
# 3 43.8375 43.8375 119.5680 0.0000 0.0000 0.0000
# 4 0.0000 0.0000 0.0000 18.6977 0.0000 0.0000
# 5 0.0000 0.0000 0.0000 0.0000 18.6977 0.0000
# 6 0.0000 0.0000 0.0000 0.0000 0.0000 24.1725
#
#
#
# Elastic Compliance Matrix: (Units=1/GPa)
#
#
# Indices 1 2 3 4 5 6 
#
# 1 0.016556 -0.004129 -0.004556 0.000000 0.000000 0.000000
# 2 -0.004129 0.016556 -0.004556 0.000000 0.000000 0.000000
# 3 -0.004556 -0.004556 0.011704 0.000000 0.000000 0.000000
# 4 0.000000 0.000000 0.000000 0.053483 0.000000 0.000000
# 5 0.000000 0.000000 0.000000 0.000000 0.053483 0.000000
# 6 0.000000 0.000000 0.000000 0.000000 0.000000 0.041369
#
#
# Mechanical properties :
#
#
# Convention : Reuss Voigt Hill
#
# Bulk Modulus (GPa) = 54.54318 57.79343 56.16830
# Shear Modulus (GPa) = 22.14890 23.02800 22.58845
#
# Velocity S-wave (km/s) = 3.44991 3.51771 3.48397
# Velocity P-wave (km/s) = 6.72149 6.89600 6.80930
#
# Compressibility (1/GPa) = 0.01833410
#
# Stress axis : x y z
#
# Youngs Moduli (GPa) = 60.40092 60.40092 85.43784
#
# Poissons Ratio (x) = 0.24937 0.38928
# Poissons Ratio (y) = 0.24937 0.38928
# Poissons Ratio (z) = 0.27520 0.27520
#
# Static dielectric constant tensor:
#      x y z
#    x 3.354630 0.000000 0.000000 
#    y 0.000000 3.354630 0.000000 
#    z 0.000000 0.000000 3.532400 
# 
# 
# High freq. dielectric constant tensor:
#      x y z
#    x 1.714500 0.000000 0.000000 
#    y 0.000000 1.714500 0.000000 
#    z 0.000000 0.000000 1.724640 
# 
# From -- ./inp_files/1953.got.cif
#   From: 2010.03.12/outbox.cif.g09.slc.cpg/sg191_1_cif.got.tgz:1953.got - 2010.04.01 12:09:02.
