data_PCOD8329659
_publ_section_title
;
Structure prediction by ZEFSAII (Michael W. Deem and Ramdas Pophale) SiO2 
 PCOD8329659
Probable space group: P 6/M C C
;
_chemical_formula_sum "Si O2"
_cell_formula_units_Z 72
_cell_length_a 10.912771
_cell_length_b 10.912771
_cell_length_c 29.793701
_cell_angle_alpha 90.000000
_cell_angle_beta 90.000000
_cell_angle_gamma 120.000000
_cell_volume 3072.735446
_symmetry_space_group_name_H-M "P 6/M C C"
_symmetry_group_IT_number 192
_symmetry_cell_setting 'hexagonal'
loop_
_space_group_symop_operation_xyz
x,y,z
x-y,x,z
-y,x-y,z
-x,-y,z
-x+y,-x,z
y,-x+y,z
x-y,-y,1/2-z
-x,-x+y,1/2-z
y,x,1/2-z
-y,-x,1/2-z
-x+y,y,1/2-z
x,x-y,1/2-z
-x,-y,-z
-x+y,-x,-z
y,-x+y,-z
x,y,-z
x-y,x,-z
-y,x-y,-z
-x+y,y,1/2+z
x,x-y,1/2+z
-y,-x,1/2+z
y,x,1/2+z
x-y,-y,1/2+z
-x,-x+y,1/2+z
loop_
_atom_site_type_symbol
_atom_site_label
_atom_site_fract_x
_atom_site_fract_y
_atom_site_fract_z
Si Si1 0.726415 0.019743 0.801173
Si Si2 0.829885 0.482868 0.129757
Si Si3 0.314670 0.070122 0.551249
O O1 0.627262 0.056978 0.831349
O O2 0.880929 0.148802 0.813068
O O3 0.672314 0.000000 0.750000
O O4 0.678420 0.478209 0.133773
O O5 0.899441 0.551511 0.082008
O O6 0.264931 0.182528 0.562108
O O7 0.365211 0.081554 0.500000
#
# Coordination Sequence:
#
# PCOD8329659 Si02
#       3
#    24  24  24
#     4  10  21  40  66  93 118 153 204 270 331 382
#     4  10  24  42  60  90 133 176 220 257 312 395
#     4  10  21  38  64  98 133 171 219 277 332 378
#
# _framework density 23.431891
#
# number of rings (size 3 to 8) (size 9 to 14) (size 15 to 20)
#    0.667    1.333    0.000    2.667    0.000    9.333 
#    0.000   18.333    0.000    0.000    0.000    0.000 
#    0.000    0.000    0.000    0.000    0.000    0.000 
#
# Total GULP energy -892179.664439 kJ/mol
# GULP energy per Si atom -12391.384228 kJ/mol
# Density = 2.337856 g / cm^3
# Si number density = 23.431891 Si / 1000 Ang^3
#
#
#
# Elastic Constant Matrix: (Units=GPa)
#
#
# Indices 1 2 3 4 5 6 
#
# 1 103.7625 6.5455 47.5692 0.0000 0.0000 0.0000
# 2 6.5455 103.7625 47.5692 0.0000 0.0000 0.0000
# 3 47.5692 47.5692 136.7733 0.0000 0.0000 0.0000
# 4 0.0000 0.0000 0.0000 80.9831 0.0000 0.0000
# 5 0.0000 0.0000 0.0000 0.0000 80.9831 0.0000
# 6 0.0000 0.0000 0.0000 0.0000 0.0000 48.6085
#
#
#
# Elastic Compliance Matrix: (Units=1/GPa)
#
#
# Indices 1 2 3 4 5 6 
#
# 1 0.011618 0.001332 -0.004504 0.000000 0.000000 0.000000
# 2 0.001332 0.011618 -0.004504 0.000000 0.000000 0.000000
# 3 -0.004504 -0.004504 0.010444 0.000000 0.000000 0.000000
# 4 0.000000 0.000000 0.000000 0.012348 0.000000 0.000000
# 5 0.000000 0.000000 0.000000 0.000000 0.012348 0.000000
# 6 0.000000 0.000000 0.000000 0.000000 0.000000 0.020573
#
#
# Mechanical properties :
#
#
# Convention : Reuss Voigt Hill
#
# Bulk Modulus (GPa) = 54.55961 60.85180 57.70570
# Shear Modulus (GPa) = 49.79509 58.28922 54.04215
#
# Velocity S-wave (km/s) = 4.61488 4.99300 4.80766
# Velocity P-wave (km/s) = 7.19243 7.69845 7.44974
#
# Compressibility (1/GPa) = 0.01832858
#
# Stress axis : x y z
#
# Youngs Moduli (GPa) = 86.07175 86.07175 95.74572
#
# Poissons Ratio (x) = -0.11464 0.43124
# Poissons Ratio (y) = -0.11464 0.43124
# Poissons Ratio (z) = 0.38767 0.38767
#
# Static dielectric constant tensor:
#      x y z
#    x 4.178100 0.000000 0.000000 
#    y 0.000000 4.178100 0.000000 
#    z 0.000000 0.000000 4.181890 
# 
# 
# High freq. dielectric constant tensor:
#      x y z
#    x 1.937580 0.000000 0.000000 
#    y 0.000000 1.937580 0.000000 
#    z 0.000000 0.000000 1.924360 
# 
# From -- ./inp_files/6730.got.cif
#   From: 2010.03.12/outbox.cif.g09.slc.cpg/sg192_4_cif.got.tgz:6730.got - 2010.04.01 12:16:15.
