data_PCOD8329514
_publ_section_title
;
Structure prediction by ZEFSAII (Michael W. Deem and Ramdas Pophale) SiO2 
 PCOD8329514
Probable space group: P 6/M C C
;
_chemical_formula_sum "Si O2"
_cell_formula_units_Z 96
_cell_length_a 14.844083
_cell_length_b 14.844083
_cell_length_c 23.442176
_cell_angle_alpha 90.000000
_cell_angle_beta 90.000000
_cell_angle_gamma 120.000000
_cell_volume 4473.374955
_symmetry_space_group_name_H-M "P 6/M C C"
_symmetry_group_IT_number 192
_symmetry_cell_setting 'hexagonal'
loop_
_space_group_symop_operation_xyz
x,y,z
x-y,x,z
-y,x-y,z
-x,-y,z
-x+y,-x,z
y,-x+y,z
x-y,-y,1/2-z
-x,-x+y,1/2-z
y,x,1/2-z
-y,-x,1/2-z
-x+y,y,1/2-z
x,x-y,1/2-z
-x,-y,-z
-x+y,-x,-z
y,-x+y,-z
x,y,-z
x-y,x,-z
-y,x-y,-z
-x+y,y,1/2+z
x,x-y,1/2+z
-y,-x,1/2+z
y,x,1/2+z
x-y,-y,1/2+z
-x,-x+y,1/2+z
loop_
_atom_site_type_symbol
_atom_site_label
_atom_site_fract_x
_atom_site_fract_y
_atom_site_fract_z
Si Si1 0.200346 0.600173 0.000000
Si Si2 0.118269 0.236539 0.567504
Si Si3 0.125005 0.250010 0.250000
Si Si4 0.792037 0.207963 0.649168
Si Si5 0.441089 0.558911 0.124608
O O1 0.274213 0.548426 0.000000
O O2 0.130968 0.565484 0.056334
O O3 0.175772 0.175772 0.590449
O O4 0.120376 0.240752 0.500000
O O5 0.177611 0.355222 0.588954
O O6 0.177267 0.177267 0.250000
O O7 0.162768 0.325534 0.304180
O O8 0.836922 0.330214 0.654372
O O9 0.669786 0.163077 0.654372
O O10 0.500000 0.500000 0.140684
#
# Coordination Sequence:
#
# PCOD8329514 Si02
#       5
#    12  24  12  24  24
#     4  10  19  40  62  92 136 174 218 280 327 396
#     4  10  21  38  62  94 134 176 223 282 352 424
#     4  12  27  50  78 106 138 174 223 284 350 418
#     4  12  26  46  65 100 135 176 230 287 330 408
#     4  12  24  41  66  94 132 181 223 273 342 394
#
# _framework density 21.460305999999999
#
# number of rings (size 3 to 8) (size 9 to 14) (size 15 to 20)
#    0.250    0.500    2.500    5.750    3.500    2.000 
#    0.000    5.000    0.000    0.000    0.000    0.000 
#    0.000    0.000    0.000    0.000    0.000    0.000 
#
# Total GULP energy -1190360.736311 kJ/mol
# GULP energy per Si atom -12399.591003 kJ/mol
# Density = 2.141146 g / cm^3
# Si number density = 21.460306 Si / 1000 Ang^3
#
#
#
# Elastic Constant Matrix: (Units=GPa)
#
#
# Indices 1 2 3 4 5 6 
#
# 1 201.2303 100.8668 40.2147 0.0000 0.0000 0.0000
# 2 100.8668 201.2303 40.2147 0.0000 0.0000 0.0000
# 3 40.2147 40.2147 66.1093 0.0000 0.0000 0.0000
# 4 0.0000 0.0000 0.0000 37.6964 0.0000 0.0000
# 5 0.0000 0.0000 0.0000 0.0000 37.6964 0.0000
# 6 0.0000 0.0000 0.0000 0.0000 0.0000 50.1818
#
#
#
# Elastic Compliance Matrix: (Units=1/GPa)
#
#
# Indices 1 2 3 4 5 6 
#
# 1 0.006957 -0.003007 -0.002403 0.000000 0.000000 0.000000
# 2 -0.003007 0.006957 -0.002403 0.000000 0.000000 0.000000
# 3 -0.002403 -0.002403 0.018050 0.000000 0.000000 0.000000
# 4 0.000000 0.000000 0.000000 0.026528 0.000000 0.000000
# 5 0.000000 0.000000 0.000000 0.000000 0.026528 0.000000
# 6 0.000000 0.000000 0.000000 0.000000 0.000000 0.019928
#
#
# Mechanical properties :
#
#
# Convention : Reuss Voigt Hill
#
# Bulk Modulus (GPa) = 61.20516 92.35136 76.77826
# Shear Modulus (GPa) = 39.67703 44.26647 41.97175
#
# Velocity S-wave (km/s) = 4.30450 4.54664 4.42722
# Velocity P-wave (km/s) = 7.29980 8.40771 7.87326
#
# Compressibility (1/GPa) = 0.01633849
#
# Stress axis : x y z
#
# Youngs Moduli (GPa) = 143.74350 143.74350 55.40262
#
# Poissons Ratio (x) = 0.43223 0.13312
# Poissons Ratio (y) = 0.43223 0.13312
# Poissons Ratio (z) = 0.34538 0.34538
#
# Static dielectric constant tensor:
#      x y z
#    x 4.053190 0.000000 0.000000 
#    y 0.000000 4.053190 0.000000 
#    z 0.000000 0.000000 3.741200 
# 
# 
# High freq. dielectric constant tensor:
#      x y z
#    x 1.858520 0.000000 0.000000 
#    y 0.000000 1.858520 0.000000 
#    z 0.000000 0.000000 1.828380 
# 
# From -- ./inp_files/6390.got.cif
#   From: 2010.03.12/outbox.cif.g09.slc.cpg/sg192_4_cif.got.tgz:6390.got - 2010.04.01 12:16:15.
