data_PCOD8329911
_publ_section_title
;
Structure prediction by ZEFSAII (Michael W. Deem and Ramdas Pophale) SiO2 
 PCOD8329911
Probable space group: P 63/M C M
;
_chemical_formula_sum "Si O2"
_cell_formula_units_Z 120
_cell_length_a 23.170291
_cell_length_b 23.170291
_cell_length_c 14.260618
_cell_angle_alpha 90.000000
_cell_angle_beta 90.000000
_cell_angle_gamma 120.000000
_cell_volume 6630.281304
_symmetry_space_group_name_H-M "P 63/M C M"
_symmetry_group_IT_number 193
_symmetry_cell_setting 'hexagonal'
loop_
_space_group_symop_operation_xyz
x,y,z
x-y,x,1/2+z
-y,x-y,z
-x,-y,1/2+z
-x+y,-x,z
y,-x+y,1/2+z
x-y,-y,1/2-z
-x,-x+y,1/2-z
y,x,1/2-z
-y,-x,-z
-x+y,y,-z
x,x-y,-z
-x,-y,-z
-x+y,-x,1/2-z
y,-x+y,-z
x,y,1/2-z
x-y,x,-z
-y,x-y,1/2-z
-x+y,y,1/2+z
x,x-y,1/2+z
-y,-x,1/2+z
y,x,z
x-y,-y,z
-x,-x+y,z
loop_
_atom_site_type_symbol
_atom_site_label
_atom_site_fract_x
_atom_site_fract_y
_atom_site_fract_z
Si Si1 0.529175 0.795365 0.142948
Si Si2 0.887016 0.742863 0.102320
Si Si3 0.707193 0.073255 0.444246
Si Si4 0.365526 0.112996 0.147621
Si Si5 0.581337 0.290669 0.000000
Si Si6 0.851199 0.922759 0.750000
O O1 0.511700 0.801678 0.250000
O O2 0.563202 0.868970 0.095728
O O3 0.578722 0.767361 0.132794
O O4 0.462768 0.740557 0.092169
O O5 0.917734 0.693890 0.096694
O O6 0.814591 0.705155 0.149717
O O7 0.929020 0.809210 0.160833
O O8 0.884029 0.768058 0.000000
O O9 0.704019 0.072817 0.558161
O O10 0.648524 0.000000 0.412201
O O11 0.374430 0.086133 0.250000
O O12 0.628744 0.257488 0.000000
O O13 0.918872 0.918872 0.750000
O O14 0.869986 0.000000 0.750000
#
# Coordination Sequence:
#
# PCOD8329911 Si02
#       6
#    24  24  24  24  12  12
#     4  10  19  36  57  82 123 153 186 239 284 331
#     4   9  19  36  52  73 100 130 176 235 286 345
#     4  10  19  31  54  85 117 149 182 224 288 352
#     4   9  16  31  55  80 111 149 178 224 291 337
#     4  10  22  38  64  92 117 150 198 234 277 314
#     4  12  25  38  50  64  94 136 186 240 292 342
#
# _framework density 18.098779
#
# number of rings (size 3 to 8) (size 9 to 14) (size 15 to 20)
#    0.200    2.000    3.000    1.900    1.400    5.600 
#    0.000    0.000    0.000    1.800    0.000    0.000 
#    0.000    0.000    0.000    0.000    0.000    0.000 
#
# Total GULP energy -1486676.497833 kJ/mol
# GULP energy per Si atom -12388.970815 kJ/mol
# Density = 1.805759 g / cm^3
# Si number density = 18.098779 Si / 1000 Ang^3
#
#
#
# Elastic Constant Matrix: (Units=GPa)
#
#
# Indices 1 2 3 4 5 6 
#
# 1 75.2103 33.6922 46.5142 0.0000 0.0000 0.0000
# 2 33.6922 75.2103 46.5142 0.0000 0.0000 0.0000
# 3 46.5142 46.5142 126.1116 0.0000 0.0000 0.0000
# 4 0.0000 0.0000 0.0000 15.2261 0.0000 0.0000
# 5 0.0000 0.0000 0.0000 0.0000 15.2261 0.0000
# 6 0.0000 0.0000 0.0000 0.0000 0.0000 20.7591
#
#
#
# Elastic Compliance Matrix: (Units=1/GPa)
#
#
# Indices 1 2 3 4 5 6 
#
# 1 0.018746 -0.005340 -0.004945 0.000000 0.000000 0.000000
# 2 -0.005340 0.018746 -0.004945 0.000000 0.000000 0.000000
# 3 -0.004945 -0.004945 0.011577 0.000000 0.000000 0.000000
# 4 0.000000 0.000000 0.000000 0.065677 0.000000 0.000000
# 5 0.000000 0.000000 0.000000 0.000000 0.065677 0.000000
# 6 0.000000 0.000000 0.000000 0.000000 0.000000 0.048172
#
#
# Mechanical properties :
#
#
# Convention : Reuss Voigt Hill
#
# Bulk Modulus (GPa) = 53.73158 58.88596 56.30877
# Shear Modulus (GPa) = 18.84968 20.22970 19.53969
#
# Velocity S-wave (km/s) = 3.23071 3.34689 3.28931
# Velocity P-wave (km/s) = 6.60826 6.89507 6.75319
#
# Compressibility (1/GPa) = 0.01861103
#
# Stress axis : x y z
#
# Youngs Moduli (GPa) = 53.34411 53.34411 86.37747
#
# Poissons Ratio (x) = 0.28484 0.42712
# Poissons Ratio (y) = 0.28484 0.42712
# Poissons Ratio (z) = 0.26378 0.26378
#
# Static dielectric constant tensor:
#      x y z
#    x 3.077860 0.000000 0.000000 
#    y 0.000000 3.077860 0.000000 
#    z 0.000000 0.000000 3.352600 
# 
# 
# High freq. dielectric constant tensor:
#      x y z
#    x 1.669250 0.000000 0.000000 
#    y 0.000000 1.669250 0.000000 
#    z 0.000000 0.000000 1.719200 
# 
# From -- ./inp_files/4089.got.cif
#   From: 2010.03.12/outbox.cif.g09.slc.cpg/sg193_3_cif.got.tgz:4089.got - 2010.04.01 12:20:39.
