data_PCOD8329344
_publ_section_title
;
Structure prediction by ZEFSAII (Michael W. Deem and Ramdas Pophale) SiO2 
 PCOD8329344
Probable space group: P 6/M M M
;
_chemical_formula_sum "Si O2"
_cell_formula_units_Z 144
_cell_length_a 32.168943
_cell_length_b 32.168943
_cell_length_c 9.698977
_cell_angle_alpha 90.000000
_cell_angle_beta 90.000000
_cell_angle_gamma 120.000000
_cell_volume 8692.208667
_symmetry_space_group_name_H-M "P 6/M M M"
_symmetry_group_IT_number 191
_symmetry_cell_setting 'hexagonal'
loop_
_space_group_symop_operation_xyz
x,y,z
x-y,x,z
-y,x-y,z
-x,-y,z
-x+y,-x,z
y,-x+y,z
x-y,-y,-z
-x,-x+y,-z
y,x,-z
-y,-x,-z
-x+y,y,-z
x,x-y,-z
-x,-y,-z
-x+y,-x,-z
y,-x+y,-z
x,y,-z
x-y,x,-z
-y,x-y,-z
-x+y,y,z
x,x-y,z
-y,-x,z
y,x,z
x-y,-y,z
-x,-x+y,z
loop_
_atom_site_type_symbol
_atom_site_label
_atom_site_fract_x
_atom_site_fract_y
_atom_site_fract_z
Si Si1 0.055318 0.777128 0.842313
Si Si2 0.053391 0.432358 0.342463
Si Si3 0.852238 0.378603 0.339520
Si Si4 0.807899 0.520234 0.159612
Si Si5 0.095799 0.710224 0.841206
Si Si6 0.053789 0.853733 0.658916
O O1 0.088448 0.754616 0.801804
O O2 0.071047 0.823086 0.747042
O O3 0.000000 0.737231 0.817040
O O4 0.063999 0.794830 0.000000
O O5 0.059839 0.421195 0.500000
O O6 0.092546 0.487027 0.305013
O O7 0.060047 0.395296 0.248893
O O8 0.000000 0.424107 0.317394
O O9 0.840824 0.365778 0.500000
O O10 0.844313 0.422157 0.296232
O O11 0.815821 0.332582 0.251008
O O12 0.757597 0.515194 0.203253
O O13 0.849159 0.574821 0.189079
O O14 0.808032 0.506952 0.000000
O O15 0.081944 0.695707 0.000000
O O16 0.055515 0.840956 0.500000
O O17 0.089879 0.910122 0.687634
O O18 0.000000 0.841083 0.701258
#
# Coordination Sequence:
#
# PCOD8329344 Si02
#       6
#    24  24  24  24  24  24
#     4   9  17  28  43  65  92 122 155 187 217 250
#     4   9  17  28  43  65  93 125 158 188 218 254
#     4   9  18  32  49  69  92 118 149 185 225 267
#     4   9  18  32  49  69  92 118 148 182 223 270
#     4   9  17  29  45  65  91 123 156 188 220 254
#     4   9  18  32  48  65  86 113 144 179 222 270
#
# _framework density 16.566561
#
# number of rings (size 3 to 8) (size 9 to 14) (size 15 to 20)
#    0.000    3.000    0.000    0.500    0.000    3.667 
#    0.000    5.000    0.000    0.500    0.000    5.833 
#    0.000    0.000    0.000    4.167    0.000    4.333 
#
# Total GULP energy -1785493.547933 kJ/mol
# GULP energy per Si atom -12399.260750 kJ/mol
# Density = 1.652885 g / cm^3
# Si number density = 16.566561 Si / 1000 Ang^3
#
#
#
# Elastic Constant Matrix: (Units=GPa)
#
#
# Indices 1 2 3 4 5 6 
#
# 1 106.3367 70.9488 50.3083 0.0000 0.0000 0.0000
# 2 70.9488 106.3367 50.3083 0.0000 0.0000 0.0000
# 3 50.3083 50.3083 57.5019 0.0000 0.0000 0.0000
# 4 0.0000 0.0000 0.0000 24.8239 0.0000 0.0000
# 5 0.0000 0.0000 0.0000 0.0000 24.8239 0.0000
# 6 0.0000 0.0000 0.0000 0.0000 0.0000 17.6939
#
#
#
# Elastic Compliance Matrix: (Units=1/GPa)
#
#
# Indices 1 2 3 4 5 6 
#
# 1 0.019731 -0.008527 -0.009802 0.000000 0.000000 0.000000
# 2 -0.008527 0.019731 -0.009802 0.000000 0.000000 0.000000
# 3 -0.009802 -0.009802 0.034542 0.000000 0.000000 0.000000
# 4 0.000000 0.000000 0.000000 0.040284 0.000000 0.000000
# 5 0.000000 0.000000 0.000000 0.000000 0.040284 0.000000
# 6 0.000000 0.000000 0.000000 0.000000 0.000000 0.056516
#
#
# Mechanical properties :
#
#
# Convention : Reuss Voigt Hill
#
# Bulk Modulus (GPa) = 56.36527 68.14510 62.25519
# Shear Modulus (GPa) = 18.29725 20.04235 19.16980
#
# Velocity S-wave (km/s) = 3.32696 3.48200 3.40536
# Velocity P-wave (km/s) = 6.98968 7.57557 7.28851
#
# Compressibility (1/GPa) = 0.01774142
#
# Stress axis : x y z
#
# Youngs Moduli (GPa) = 50.68173 50.68173 28.94993
#
# Poissons Ratio (x) = 0.43218 0.28377
# Poissons Ratio (y) = 0.43218 0.28377
# Poissons Ratio (z) = 0.49679 0.49679
#
# Static dielectric constant tensor:
#      x y z
#    x 3.050130 0.000000 0.000000 
#    y 0.000000 3.050130 0.000000 
#    z 0.000000 0.000000 3.165690 
# 
# 
# High freq. dielectric constant tensor:
#      x y z
#    x 1.625290 0.000000 0.000000 
#    y 0.000000 1.625290 0.000000 
#    z 0.000000 0.000000 1.639410 
# 
# From -- ./inp_files/1967.got.cif
#   From: 2010.03.12/outbox.cif.g09.slc.cpg/sg191_1_cif.got.tgz:1967.got - 2010.04.01 12:09:02.
