data_PCOD8329618
_publ_section_title
;
Structure prediction by ZEFSAII (Michael W. Deem and Ramdas Pophale) SiO2 
 PCOD8329618
Probable space group: P 6/M C C
;
_chemical_formula_sum "Si O2"
_cell_formula_units_Z 132
_cell_length_a 25.518698
_cell_length_b 25.518698
_cell_length_c 14.215675
_cell_angle_alpha 90.000000
_cell_angle_beta 90.000000
_cell_angle_gamma 120.000000
_cell_volume 8017.060156
_symmetry_space_group_name_H-M "P 6/M C C"
_symmetry_group_IT_number 192
_symmetry_cell_setting 'hexagonal'
loop_
_space_group_symop_operation_xyz
x,y,z
x-y,x,z
-y,x-y,z
-x,-y,z
-x+y,-x,z
y,-x+y,z
x-y,-y,1/2-z
-x,-x+y,1/2-z
y,x,1/2-z
-y,-x,1/2-z
-x+y,y,1/2-z
x,x-y,1/2-z
-x,-y,-z
-x+y,-x,-z
y,-x+y,-z
x,y,-z
x-y,x,-z
-y,x-y,-z
-x+y,y,1/2+z
x,x-y,1/2+z
-y,-x,1/2+z
y,x,1/2+z
x-y,-y,1/2+z
-x,-x+y,1/2+z
loop_
_atom_site_type_symbol
_atom_site_label
_atom_site_fract_x
_atom_site_fract_y
_atom_site_fract_z
Si Si1 0.099277 0.322675 0.746728
Si Si2 0.401524 0.733218 0.000000
Si Si3 0.273261 0.271756 0.104074
Si Si4 0.554062 0.652093 0.742814
Si Si5 0.667509 0.442579 0.795205
Si Si6 0.399084 0.393890 0.103759
O O1 0.162238 0.324475 0.750000
O O2 0.061611 0.287080 0.839197
O O3 0.112030 0.391050 0.740931
O O4 0.059856 0.284558 0.656726
O O5 0.334816 0.727001 0.000000
O O6 0.438727 0.769020 0.091839
O O7 0.335244 0.333779 0.097699
O O8 0.248570 0.245554 0.000000
O O9 0.490136 0.647531 0.733532
O O10 0.554469 0.620428 0.840892
O O11 0.557495 0.611973 0.658187
O O12 0.622154 0.377847 0.750000
O O13 0.732803 0.465605 0.750000
O O14 0.425561 0.418457 0.000000
#
# Coordination Sequence:
#
# PCOD8329618 Si02
#       6
#    24  12  24  24  24  24
#     4   9  16  28  44  68  96 123 160 203 236 279
#     4  10  20  40  60  74  93 131 161 192 256 308
#     4   8  15  27  44  61  91 132 160 189 241 285
#     4   9  19  31  53  76  99 127 160 200 243 285
#     4  12  22  39  58  77 101 128 158 205 252 301
#     4   8  15  33  50  71 101 132 160 191 234 290
#
# _framework density 16.464888999999999
#
# number of rings (size 3 to 8) (size 9 to 14) (size 15 to 20)
#    0.182    2.545    1.818    2.909    1.273    0.727 
#    3.273    1.818    4.000    1.091    0.000    0.000 
#    0.000    0.000    0.000   17.455    0.000   37.818 
#
# Total GULP energy -1636149.257416 kJ/mol
# GULP energy per Si atom -12395.070132 kJ/mol
# Density = 1.642741 g / cm^3
# Si number density = 16.464889 Si / 1000 Ang^3
#
#
#
# Elastic Constant Matrix: (Units=GPa)
#
#
# Indices 1 2 3 4 5 6 
#
# 1 69.2703 20.9369 34.3115 0.0000 0.0000 0.0000
# 2 20.9369 69.2703 34.3115 0.0000 0.0000 0.0000
# 3 34.3115 34.3115 156.0806 0.0000 0.0000 0.0000
# 4 0.0000 0.0000 0.0000 13.6970 0.0000 0.0000
# 5 0.0000 0.0000 0.0000 0.0000 13.6970 0.0000
# 6 0.0000 0.0000 0.0000 0.0000 0.0000 24.1667
#
#
#
# Elastic Compliance Matrix: (Units=1/GPa)
#
#
# Indices 1 2 3 4 5 6 
#
# 1 0.017001 -0.003689 -0.002926 0.000000 0.000000 0.000000
# 2 -0.003689 0.017001 -0.002926 0.000000 0.000000 0.000000
# 3 -0.002926 -0.002926 0.007694 0.000000 0.000000 0.000000
# 4 0.000000 0.000000 0.000000 0.073009 0.000000 0.000000
# 5 0.000000 0.000000 0.000000 0.000000 0.073009 0.000000
# 6 0.000000 0.000000 0.000000 0.000000 0.000000 0.041379
#
#
# Mechanical properties :
#
#
# Convention : Reuss Voigt Hill
#
# Bulk Modulus (GPa) = 44.22495 52.63786 48.43140
# Shear Modulus (GPa) = 19.55322 23.98288 21.76805
#
# Velocity S-wave (km/s) = 3.44985 3.82069 3.64000
# Velocity P-wave (km/s) = 6.54119 7.17654 6.86622
#
# Compressibility (1/GPa) = 0.02261167
#
# Stress axis : x y z
#
# Youngs Moduli (GPa) = 58.82114 58.82114 129.97896
#
# Poissons Ratio (x) = 0.21699 0.38036
# Poissons Ratio (y) = 0.21699 0.38036
# Poissons Ratio (z) = 0.17213 0.17213
#
# Static dielectric constant tensor:
#      x y z
#    x 2.812390 0.000000 0.000000 
#    y 0.000000 2.812390 0.000000 
#    z 0.000000 0.000000 3.817640 
# 
# 
# High freq. dielectric constant tensor:
#      x y z
#    x 1.608190 0.000000 0.000000 
#    y 0.000000 1.608190 0.000000 
#    z 0.000000 0.000000 1.649120 
# 
# From -- ./inp_files/3257.got.cif
#   From: 2010.03.12/outbox.cif.g09.slc.cpg/sg192_2_cif.got.tgz:3257.got - 2010.04.01 12:16:15.
