data_PCOD8329147
_publ_section_title
;
Structure prediction by ZEFSAII (Michael W. Deem and Ramdas Pophale) SiO2 
 PCOD8329147
Probable space group: P 6/M M M
;
_chemical_formula_sum "Si O2"
_cell_formula_units_Z 138
_cell_length_a 30.951169
_cell_length_b 30.951169
_cell_length_c 8.512827
_cell_angle_alpha 90.000000
_cell_angle_beta 90.000000
_cell_angle_gamma 120.000000
_cell_volume 7062.501491
_symmetry_space_group_name_H-M "P 6/M M M"
_symmetry_group_IT_number 191
_symmetry_cell_setting 'hexagonal'
loop_
_space_group_symop_operation_xyz
x,y,z
x-y,x,z
-y,x-y,z
-x,-y,z
-x+y,-x,z
y,-x+y,z
x-y,-y,-z
-x,-x+y,-z
y,x,-z
-y,-x,-z
-x+y,y,-z
x,x-y,-z
-x,-y,-z
-x+y,-x,-z
y,-x+y,-z
x,y,-z
x-y,x,-z
-y,x-y,-z
-x+y,y,z
x,x-y,z
-y,-x,z
y,x,z
x-y,-y,z
-x,-x+y,z
loop_
_atom_site_type_symbol
_atom_site_label
_atom_site_fract_x
_atom_site_fract_y
_atom_site_fract_z
Si Si1 0.514882 0.855632 0.175854
Si Si2 0.803073 0.803073 0.187030
Si Si3 0.000000 0.900374 0.686264
Si Si4 0.364806 0.729612 0.500000
Si Si5 0.795001 0.397501 0.813982
Si Si6 0.849994 0.603250 0.682416
Si Si7 0.055426 0.577383 0.324166
Si Si8 0.098312 0.803778 0.185340
O O1 0.456458 0.825888 0.218223
O O2 0.549549 0.844071 0.285024
O O3 0.533223 0.913634 0.197849
O O4 0.524125 0.844617 0.000000
O O5 0.851971 0.851971 0.247595
O O6 0.800936 0.752809 0.251770
O O7 0.804839 0.804839 0.000000
O O8 0.950634 0.901268 0.745788
O O9 0.000000 0.897898 0.500000
O O10 0.304641 0.695360 0.500000
O O11 0.378214 0.756428 0.669956
O O12 0.775377 0.387689 0.000000
O O13 0.856916 0.613312 0.500000
O O14 0.799470 0.598939 0.747616
O O15 0.896231 0.652277 0.762233
O O16 0.077830 0.594005 0.500000
O O17 0.055544 0.527772 0.274300
O O18 0.000000 0.568599 0.319887
O O19 0.145335 0.854666 0.251271
O O20 0.096825 0.804337 0.000000
#
# Coordination Sequence:
#
# PCOD8329147 Si02
#       8
#    24  12  12   6  12  24  24  24
#     4  11  22  37  59  88 119 156 197 241 296 354
#     4  10  20  35  59  89 116 151 197 244 302 369
#     4  10  21  36  54  80 118 164 213 261 312 365
#     4  10  26  46  66  96 121 166 208 244 320 368
#     4  10  24  42  65  97 129 162 204 254 304 368
#     4  10  22  39  59  84 110 145 192 243 292 348
#     4   9  18  33  55  83 114 151 190 233 285 339
#     4   9  18  35  57  80 112 148 185 235 293 352
#
# _framework density 19.539818
#
# number of rings (size 3 to 8) (size 9 to 14) (size 15 to 20)
#    0.087    2.087    0.870    2.174    2.435    4.522 
#    1.565    4.348    0.000    0.522    0.000    0.000 
#    0.000    0.000    0.000    0.000    0.000    0.000 
#
# Total GULP energy -1709941.283502 kJ/mol
# GULP energy per Si atom -12390.878866 kJ/mol
# Density = 1.949534 g / cm^3
# Si number density = 19.539818 Si / 1000 Ang^3
#
#
#
# Elastic Constant Matrix: (Units=GPa)
#
#
# Indices 1 2 3 4 5 6 
#
# 1 122.0128 68.4517 36.1465 0.0000 0.0000 0.0000
# 2 68.4517 122.0128 36.1465 0.0000 0.0000 0.0000
# 3 36.1465 36.1465 50.2177 0.0000 0.0000 0.0000
# 4 0.0000 0.0000 0.0000 29.4670 0.0000 0.0000
# 5 0.0000 0.0000 0.0000 0.0000 29.4670 0.0000
# 6 0.0000 0.0000 0.0000 0.0000 0.0000 26.7806
#
#
#
# Elastic Compliance Matrix: (Units=1/GPa)
#
#
# Indices 1 2 3 4 5 6 
#
# 1 0.012947 -0.005723 -0.005200 0.000000 0.000000 0.000000
# 2 -0.005723 0.012947 -0.005200 0.000000 0.000000 0.000000
# 3 -0.005200 -0.005200 0.027399 0.000000 0.000000 0.000000
# 4 0.000000 0.000000 0.000000 0.033936 0.000000 0.000000
# 5 0.000000 0.000000 0.000000 0.000000 0.033936 0.000000
# 6 0.000000 0.000000 0.000000 0.000000 0.000000 0.037341
#
#
# Mechanical properties :
#
#
# Convention : Reuss Voigt Hill
#
# Bulk Modulus (GPa) = 47.51117 63.97026 55.74072
# Shear Modulus (GPa) = 25.28222 27.37615 26.32919
#
# Velocity S-wave (km/s) = 3.60096 3.74711 3.67476
# Velocity P-wave (km/s) = 6.45423 7.17848 6.82597
#
# Compressibility (1/GPa) = 0.02104768
#
# Stress axis : x y z
#
# Youngs Moduli (GPa) = 77.23735 77.23735 36.49787
#
# Poissons Ratio (x) = 0.44204 0.18978
# Poissons Ratio (y) = 0.44204 0.18978
# Poissons Ratio (z) = 0.40162 0.40162
#
# Static dielectric constant tensor:
#      x y z
#    x 3.683850 0.000000 0.000000 
#    y 0.000000 3.683850 0.000000 
#    z 0.000000 0.000000 3.473930 
# 
# 
# High freq. dielectric constant tensor:
#      x y z
#    x 1.758820 0.000000 0.000000 
#    y 0.000000 1.758820 0.000000 
#    z 0.000000 0.000000 1.757150 
# 
# From -- ./inp_files/2079.got.cif
#   From: 2010.03.12/outbox.cif.g09.slc.cpg/sg191_2_cif.got.tgz:2079.got - 2010.04.01 12:09:02.
