data_PCOD8329538
_publ_section_title
;
Structure prediction by ZEFSAII (Michael W. Deem and Ramdas Pophale) SiO2 
 PCOD8329538
Probable space group: P 6/M C C
;
_chemical_formula_sum "Si O2"
_cell_formula_units_Z 78
_cell_length_a 23.923951
_cell_length_b 23.923951
_cell_length_c 8.933792
_cell_angle_alpha 90.000000
_cell_angle_beta 90.000000
_cell_angle_gamma 120.000000
_cell_volume 4428.251486
_symmetry_space_group_name_H-M "P 6/M C C"
_symmetry_group_IT_number 192
_symmetry_cell_setting 'hexagonal'
loop_
_space_group_symop_operation_xyz
x,y,z
x-y,x,z
-y,x-y,z
-x,-y,z
-x+y,-x,z
y,-x+y,z
x-y,-y,1/2-z
-x,-x+y,1/2-z
y,x,1/2-z
-y,-x,1/2-z
-x+y,y,1/2-z
x,x-y,1/2-z
-x,-y,-z
-x+y,-x,-z
y,-x+y,-z
x,y,-z
x-y,x,-z
-y,x-y,-z
-x+y,y,1/2+z
x,x-y,1/2+z
-y,-x,1/2+z
y,x,1/2+z
x-y,-y,1/2+z
-x,-x+y,1/2+z
loop_
_atom_site_type_symbol
_atom_site_label
_atom_site_fract_x
_atom_site_fract_y
_atom_site_fract_z
Si Si1 0.742814 0.812069 0.322953
Si Si2 0.739588 0.594892 0.824943
Si Si3 0.500000 0.500000 0.250000
Si Si4 0.878377 0.386535 0.335015
O O1 0.788130 0.788130 0.250000
O O2 0.761035 0.880518 0.250000
O O3 0.755164 0.821258 0.500000
O O4 0.668480 0.759614 0.286212
O O5 0.788005 0.576010 0.750000
O O6 0.669802 0.545913 0.763186
O O7 0.740549 0.584695 0.000000
O O8 0.561280 0.515609 0.354227
O O9 0.843584 0.421792 0.250000
O O10 0.847691 0.362510 0.500000
#
# Coordination Sequence:
#
# PCOD8329538 Si02
#       4
#    24  24   6  24
#     4  10  21  36  55  80 109 143 179 219 264 316
#     4  10  21  36  54  78 108 143 181 221 267 318
#     4   8  22  32  50  76 110 140 178 212 268 316
#     4  10  20  33  51  75 106 140 177 219 264 315
#
# _framework density 17.614176
#
# number of rings (size 3 to 8) (size 9 to 14) (size 15 to 20)
#    0.923    1.231    0.000    3.231    2.154    3.692 
#    0.000    0.000    0.000    0.923    0.000    6.462 
#    0.000    0.000    0.000    0.000    0.000    0.000 
#
# Total GULP energy -966606.293018 kJ/mol
# GULP energy per Si atom -12392.388372 kJ/mol
# Density = 1.757409 g / cm^3
# Si number density = 17.614176 Si / 1000 Ang^3
#
#
#
# Elastic Constant Matrix: (Units=GPa)
#
#
# Indices 1 2 3 4 5 6 
#
# 1 105.3567 70.3732 53.5431 0.0000 0.0000 0.0000
# 2 70.3732 105.3567 53.5431 0.0000 0.0000 0.0000
# 3 53.5431 53.5431 119.1281 0.0000 0.0000 0.0000
# 4 0.0000 0.0000 0.0000 39.3286 0.0000 0.0000
# 5 0.0000 0.0000 0.0000 0.0000 39.3286 0.0000
# 6 0.0000 0.0000 0.0000 0.0000 0.0000 17.4918
#
#
#
# Elastic Compliance Matrix: (Units=1/GPa)
#
#
# Indices 1 2 3 4 5 6 
#
# 1 0.018211 -0.010374 -0.003522 0.000000 0.000000 0.000000
# 2 -0.010374 0.018211 -0.003522 0.000000 0.000000 0.000000
# 3 -0.003522 -0.003522 0.011561 0.000000 0.000000 0.000000
# 4 0.000000 0.000000 0.000000 0.025427 0.000000 0.000000
# 5 0.000000 0.000000 0.000000 0.000000 0.025427 0.000000
# 6 0.000000 0.000000 0.000000 0.000000 0.000000 0.057170
#
#
# Mechanical properties :
#
#
# Convention : Reuss Voigt Hill
#
# Bulk Modulus (GPa) = 76.07407 76.08448 76.07928
# Shear Modulus (GPa) = 25.61144 29.38858 27.50001
#
# Velocity S-wave (km/s) = 3.81730 4.08911 3.95554
# Velocity P-wave (km/s) = 7.91909 8.09835 8.00922
#
# Compressibility (1/GPa) = 0.01314508
#
# Stress axis : x y z
#
# Youngs Moduli (GPa) = 54.91195 54.91195 86.50002
#
# Poissons Ratio (x) = 0.56965 0.30469
# Poissons Ratio (y) = 0.56965 0.30469
# Poissons Ratio (z) = 0.19342 0.19342
#
# Static dielectric constant tensor:
#      x y z
#    x 3.164050 0.000000 0.000000 
#    y 0.000000 3.164050 0.000000 
#    z 0.000000 0.000000 3.343350 
# 
# 
# High freq. dielectric constant tensor:
#      x y z
#    x 1.665930 0.000000 0.000000 
#    y 0.000000 1.665930 0.000000 
#    z 0.000000 0.000000 1.699500 
# 
# From -- ./inp_files/725.got.cif
#   From: 2010.03.12/outbox.cif.g09.slc.cpg/sg192_1_cif.got.tgz:725.got - 2010.04.01 12:16:15.
