data_PCOD8329648
_publ_section_title
;
Structure prediction by ZEFSAII (Michael W. Deem and Ramdas Pophale) SiO2 
 PCOD8329648
Probable space group: P 6/M C C
;
_chemical_formula_sum "Si O2"
_cell_formula_units_Z 168
_cell_length_a 27.614777
_cell_length_b 27.614777
_cell_length_c 16.090451
_cell_angle_alpha 90.000000
_cell_angle_beta 90.000000
_cell_angle_gamma 120.000000
_cell_volume 10626.296504
_symmetry_space_group_name_H-M "P 6/M C C"
_symmetry_group_IT_number 192
_symmetry_cell_setting 'hexagonal'
loop_
_space_group_symop_operation_xyz
x,y,z
x-y,x,z
-y,x-y,z
-x,-y,z
-x+y,-x,z
y,-x+y,z
x-y,-y,1/2-z
-x,-x+y,1/2-z
y,x,1/2-z
-y,-x,1/2-z
-x+y,y,1/2-z
x,x-y,1/2-z
-x,-y,-z
-x+y,-x,-z
y,-x+y,-z
x,y,-z
x-y,x,-z
-y,x-y,-z
-x+y,y,1/2+z
x,x-y,1/2+z
-y,-x,1/2+z
y,x,1/2+z
x-y,-y,1/2+z
-x,-x+y,1/2+z
loop_
_atom_site_type_symbol
_atom_site_label
_atom_site_fract_x
_atom_site_fract_y
_atom_site_fract_z
Si Si1 0.066659 0.648214 0.407473
Si Si2 0.754754 0.691736 0.096231
Si Si3 0.062297 0.124592 0.404093
Si Si4 0.521487 0.933328 0.750000
Si Si5 0.648214 0.581554 0.907473
Si Si6 0.246748 0.123374 0.157865
Si Si7 0.691735 0.754753 0.096231
O O1 0.087200 0.641419 0.500000
O O2 0.089809 0.625263 0.334077
O O3 0.088016 0.713427 0.389576
O O4 1.000000 0.615117 0.407761
O O5 0.713427 0.625411 0.110424
O O6 0.811033 0.712938 0.146286
O O7 0.725170 0.725170 0.130006
O O8 0.769851 0.704636 0.000000
O O9 0.097362 0.097361 0.363339
O O10 0.054771 0.109541 0.500000
O O11 0.095915 0.191827 0.398812
O O12 0.455554 0.911108 0.750000
O O13 0.535453 0.910190 0.834077
O O14 0.556571 0.000000 0.750000
O O15 0.641420 0.554219 0.000000
O O16 0.222489 0.111245 0.250000
O O17 0.287063 0.188968 0.146286
O O18 0.704636 0.769850 0.000000
#
# Coordination Sequence:
#
# PCOD8329648 Si02
#       7
#    24  24  24  24  24  24  24
#     4   8  15  27  42  59  80 110 144 175 211 250
#     4   9  18  33  49  61  78 109 144 180 224 268
#     4  10  21  38  56  68  80 102 134 174 228 302
#     4   9  16  24  38  61  86 112 139 170 205 233
#     4   8  15  27  42  59  80 110 144 175 211 250
#     4  12  24  31  43  69  90 106 134 178 230 286
#     4   9  18  33  49  61  78 109 144 180 224 268
#
# _framework density 15.809836000000001
#
# number of rings (size 3 to 8) (size 9 to 14) (size 15 to 20)
#    0.000    2.714    0.000    4.000    2.000    5.714 
#    0.000    2.857    0.000    0.857    0.000    0.000 
#    0.000    0.000    0.000    0.000    0.000    0.000 
#
# Total GULP energy -2082077.375233 kJ/mol
# GULP energy per Si atom -12393.317710 kJ/mol
# Density = 1.577385 g / cm^3
# Si number density = 15.809836 Si / 1000 Ang^3
#
#
#
# Elastic Constant Matrix: (Units=GPa)
#
#
# Indices 1 2 3 4 5 6 
#
# 1 70.2808 36.0151 39.1801 0.0000 0.0000 0.0000
# 2 36.0151 70.2808 39.1801 0.0000 0.0000 0.0000
# 3 39.1801 39.1801 90.8433 0.0000 0.0000 0.0000
# 4 0.0000 0.0000 0.0000 14.7314 0.0000 0.0000
# 5 0.0000 0.0000 0.0000 0.0000 14.7314 0.0000
# 6 0.0000 0.0000 0.0000 0.0000 0.0000 17.1328
#
#
#
# Elastic Compliance Matrix: (Units=1/GPa)
#
#
# Indices 1 2 3 4 5 6 
#
# 1 0.021488 -0.007695 -0.005949 0.000000 0.000000 0.000000
# 2 -0.007695 0.021488 -0.005949 0.000000 0.000000 0.000000
# 3 -0.005949 -0.005949 0.016139 0.000000 0.000000 0.000000
# 4 0.000000 0.000000 0.000000 0.067882 0.000000 0.000000
# 5 0.000000 0.000000 0.000000 0.000000 0.067882 0.000000
# 6 0.000000 0.000000 0.000000 0.000000 0.000000 0.058367
#
#
# Mechanical properties :
#
#
# Convention : Reuss Voigt Hill
#
# Bulk Modulus (GPa) = 50.17524 51.12838 50.65181
# Shear Modulus (GPa) = 16.71804 17.12108 16.91956
#
# Velocity S-wave (km/s) = 3.25537 3.29437 3.27493
# Velocity P-wave (km/s) = 6.77757 6.84692 6.81234
#
# Compressibility (1/GPa) = 0.01993015
#
# Stress axis : x y z
#
# Youngs Moduli (GPa) = 46.53662 46.53662 61.96018
#
# Poissons Ratio (x) = 0.35811 0.36859
# Poissons Ratio (y) = 0.35811 0.36859
# Poissons Ratio (z) = 0.27684 0.27684
#
# Static dielectric constant tensor:
#      x y z
#    x 2.813060 0.000000 0.000000 
#    y 0.000000 2.813060 0.000000 
#    z 0.000000 0.000000 3.173470 
# 
# 
# High freq. dielectric constant tensor:
#      x y z
#    x 1.570220 0.000000 0.000000 
#    y 0.000000 1.570220 0.000000 
#    z 0.000000 0.000000 1.616730 
# 
# From -- ./inp_files/3525.got.cif
#   From: 2010.03.12/outbox.cif.g09.slc.cpg/sg192_2_cif.got.tgz:3525.got - 2010.04.01 12:16:15.
