data_PCOD8329899
_publ_section_title
;
Structure prediction by ZEFSAII (Michael W. Deem and Ramdas Pophale) SiO2 
 PCOD8329899
Probable space group: P 63/M C M
;
_chemical_formula_sum "Si O2"
_cell_formula_units_Z 72
_cell_length_a 27.759728
_cell_length_b 27.759728
_cell_length_c 7.602363
_cell_angle_alpha 90.000000
_cell_angle_beta 90.000000
_cell_angle_gamma 120.000000
_cell_volume 5073.523159
_symmetry_space_group_name_H-M "P 63/M C M"
_symmetry_group_IT_number 193
_symmetry_cell_setting 'hexagonal'
loop_
_space_group_symop_operation_xyz
x,y,z
x-y,x,1/2+z
-y,x-y,z
-x,-y,1/2+z
-x+y,-x,z
y,-x+y,1/2+z
x-y,-y,1/2-z
-x,-x+y,1/2-z
y,x,1/2-z
-y,-x,-z
-x+y,y,-z
x,x-y,-z
-x,-y,-z
-x+y,-x,1/2-z
y,-x+y,-z
x,y,1/2-z
x-y,x,-z
-y,x-y,1/2-z
-x+y,y,1/2+z
x,x-y,1/2+z
-y,-x,1/2+z
y,x,z
x-y,-y,z
-x,-x+y,z
loop_
_atom_site_type_symbol
_atom_site_label
_atom_site_fract_x
_atom_site_fract_y
_atom_site_fract_z
Si Si1 0.304597 0.065402 0.250000
Si Si2 0.519182 0.933834 0.054253
Si Si3 0.769054 0.832651 0.952366
Si Si4 0.933530 0.345813 0.250000
O O1 0.285368 0.083744 0.425913
O O2 0.371279 0.092197 0.250000
O O3 0.278087 0.000000 0.250000
O O4 0.522020 0.913219 0.250000
O O5 0.550450 0.000000 0.045573
O O6 0.455044 0.910087 0.000000
O O7 0.548660 0.911213 0.922190
O O8 0.749902 0.820249 0.750000
O O9 0.815658 0.815658 0.994378
O O10 0.795678 0.897839 0.000000
O O11 0.000000 0.377738 0.250000
#
# Coordination Sequence:
#
# PCOD8329899 Si02
#       4
#    12  24  24  12
#     4   9  18  30  41  59  84 101 126 166 204 243
#     4   9  14  20  31  46  65  93 130 163 193 229
#     4  10  19  31  49  68  84 105 131 160 202 259
#     4   9  16  24  34  49  72  99 123 162 206 229
#
# _framework density 14.191321
#
# number of rings (size 3 to 8) (size 9 to 14) (size 15 to 20)
#    0.000    2.667    3.333    0.000    0.000    1.333 
#    0.000    6.667    0.000    0.333    0.000    0.000 
#    0.000    0.000    0.000    0.000    0.000    0.000 
#
# Total GULP energy -892381.531361 kJ/mol
# GULP energy per Si atom -12394.187936 kJ/mol
# Density = 1.415902 g / cm^3
# Si number density = 14.191321 Si / 1000 Ang^3
#
#
#
# Elastic Constant Matrix: (Units=GPa)
#
#
# Indices 1 2 3 4 5 6 
#
# 1 64.7171 35.9896 42.5706 0.0000 0.0000 0.0000
# 2 35.9896 64.7171 42.5706 0.0000 0.0000 0.0000
# 3 42.5706 42.5706 139.5526 0.0000 0.0000 0.0000
# 4 0.0000 0.0000 0.0000 15.5445 0.0000 0.0000
# 5 0.0000 0.0000 0.0000 0.0000 15.5445 0.0000
# 6 0.0000 0.0000 0.0000 0.0000 0.0000 14.3638
#
#
#
# Elastic Compliance Matrix: (Units=1/GPa)
#
#
# Indices 1 2 3 4 5 6 
#
# 1 0.024095 -0.010715 -0.004082 0.000000 0.000000 0.000000
# 2 -0.010715 0.024095 -0.004082 0.000000 0.000000 0.000000
# 3 -0.004082 -0.004082 0.009656 0.000000 0.000000 0.000000
# 4 0.000000 0.000000 0.000000 0.064332 0.000000 0.000000
# 5 0.000000 0.000000 0.000000 0.000000 0.064332 0.000000
# 6 0.000000 0.000000 0.000000 0.000000 0.000000 0.069620
#
#
# Mechanical properties :
#
#
# Convention : Reuss Voigt Hill
#
# Bulk Modulus (GPa) = 49.77516 56.80535 53.29025
# Shear Modulus (GPa) = 16.63437 18.94762 17.79099
#
# Velocity S-wave (km/s) = 3.42738 3.65794 3.54454
# Velocity P-wave (km/s) = 7.12833 7.61287 7.37458
#
# Compressibility (1/GPa) = 0.02009034
#
# Stress axis : x y z
#
# Youngs Moduli (GPa) = 41.50189 41.50189 103.56191
#
# Poissons Ratio (x) = 0.44467 0.42272
# Poissons Ratio (y) = 0.44467 0.42272
# Poissons Ratio (z) = 0.16940 0.16940
#
# Static dielectric constant tensor:
#      x y z
#    x 2.594530 0.000000 0.000000 
#    y 0.000000 2.594530 0.000000 
#    z 0.000000 0.000000 3.083280 
# 
# 
# High freq. dielectric constant tensor:
#      x y z
#    x 1.496990 0.000000 0.000000 
#    y 0.000000 1.496990 0.000000 
#    z 0.000000 0.000000 1.567560 
# 
# From -- ./inp_files/823.got.cif
#   From: 2010.03.12/outbox.cif.g09.slc.cpg/sg193_1_cif.got.tgz:823.got - 2010.04.01 12:20:39.
