data_PCOD8329468
_publ_section_title
;
Structure prediction by ZEFSAII (Michael W. Deem and Ramdas Pophale) SiO2 
 PCOD8329468
Probable space group: P 6/M C C
;
_chemical_formula_sum "Si O2"
_cell_formula_units_Z 144
_cell_length_a 31.306150
_cell_length_b 31.306150
_cell_length_c 8.603753
_cell_angle_alpha 90.000000
_cell_angle_beta 90.000000
_cell_angle_gamma 120.000000
_cell_volume 7302.606330
_symmetry_space_group_name_H-M "P 6/M C C"
_symmetry_group_IT_number 192
_symmetry_cell_setting 'hexagonal'
loop_
_space_group_symop_operation_xyz
x,y,z
x-y,x,z
-y,x-y,z
-x,-y,z
-x+y,-x,z
y,-x+y,z
x-y,-y,1/2-z
-x,-x+y,1/2-z
y,x,1/2-z
-y,-x,1/2-z
-x+y,y,1/2-z
x,x-y,1/2-z
-x,-y,-z
-x+y,-x,-z
y,-x+y,-z
x,y,-z
x-y,x,-z
-y,x-y,-z
-x+y,y,1/2+z
x,x-y,1/2+z
-y,-x,1/2+z
y,x,1/2+z
x-y,-y,1/2+z
-x,-x+y,1/2+z
loop_
_atom_site_type_symbol
_atom_site_label
_atom_site_fract_x
_atom_site_fract_y
_atom_site_fract_z
Si Si1 0.293810 0.242548 0.816509
Si Si2 0.427359 0.479710 0.815100
Si Si3 0.852200 0.240276 0.682907
Si Si4 0.241384 0.666799 0.815520
Si Si5 0.854899 0.803108 0.683694
Si Si6 0.146439 0.484494 0.184143
O O1 0.286180 0.286180 0.750000
O O2 0.345563 0.250331 0.751590
O O3 0.250012 0.189360 0.759832
O O4 0.294446 0.246306 0.000000
O O5 0.437469 0.437469 0.750000
O O6 0.467304 0.532696 0.750000
O O7 0.374472 0.467729 0.754733
O O8 0.429626 0.480475 0.000000
O O9 0.810484 0.189517 0.750000
O O10 0.851784 0.235131 0.500000
O O11 0.841845 0.283694 0.732102
O O12 0.279295 0.720706 0.750000
O O13 0.256215 0.628108 0.750000
O O14 0.186704 0.651255 0.760402
O O15 0.243852 0.667433 0.000000
O O16 0.845946 0.845946 0.750000
O O17 0.905799 0.811598 0.750000
O O18 0.857904 0.806669 0.500000
O O19 0.146162 0.491434 0.000000
#
# Coordination Sequence:
#
# PCOD8329468 Si02
#       6
#    24  24  24  24  24  24
#     4   9  19  35  54  80 110 144 184 230 278 327
#     4  11  22  39  62  88 117 151 191 238 290 343
#     4  10  22  38  57  81 113 150 190 232 278 332
#     4  12  25  43  65  91 120 152 190 235 288 345
#     4  10  19  32  52  77 107 140 180 225 274 325
#     4  11  23  40  60  86 119 155 195 239 284 339
#
# _framework density 19.718986999999998
#
# number of rings (size 3 to 8) (size 9 to 14) (size 15 to 20)
#    0.000    1.500    0.000    6.167    0.000    4.667 
#    0.000    1.667    0.000    0.167    0.000    1.167 
#    0.000    0.000    0.000    0.000    0.000    0.000 
#
# Total GULP energy -1786353.960403 kJ/mol
# GULP energy per Si atom -12405.235836 kJ/mol
# Density = 1.967411 g / cm^3
# Si number density = 19.718987 Si / 1000 Ang^3
#
#
#
# Elastic Constant Matrix: (Units=GPa)
#
#
# Indices 1 2 3 4 5 6 
#
# 1 108.7827 40.5643 41.4970 0.0000 0.0000 0.0000
# 2 40.5643 108.7827 41.4970 0.0000 0.0000 0.0000
# 3 41.4970 41.4970 105.8631 0.0000 0.0000 0.0000
# 4 0.0000 0.0000 0.0000 30.8429 0.0000 0.0000
# 5 0.0000 0.0000 0.0000 0.0000 30.8429 0.0000
# 6 0.0000 0.0000 0.0000 0.0000 0.0000 34.1092
#
#
#
# Elastic Compliance Matrix: (Units=1/GPa)
#
#
# Indices 1 2 3 4 5 6 
#
# 1 0.011610 -0.003049 -0.003356 0.000000 0.000000 0.000000
# 2 -0.003049 0.011610 -0.003356 0.000000 0.000000 0.000000
# 3 -0.003356 -0.003356 0.012077 0.000000 0.000000 0.000000
# 4 0.000000 0.000000 0.000000 0.032422 0.000000 0.000000
# 5 0.000000 0.000000 0.000000 0.000000 0.032422 0.000000
# 6 0.000000 0.000000 0.000000 0.000000 0.000000 0.029318
#
#
# Mechanical properties :
#
#
# Convention : Reuss Voigt Hill
#
# Bulk Modulus (GPa) = 63.38941 63.39391 63.39166
# Shear Modulus (GPa) = 32.41745 32.48368 32.45057
#
# Velocity S-wave (km/s) = 4.05899 4.06313 4.06106
# Velocity P-wave (km/s) = 7.36094 7.36414 7.36254
#
# Compressibility (1/GPa) = 0.01577551
#
# Stress axis : x y z
#
# Youngs Moduli (GPa) = 86.13488 86.13488 82.80267
#
# Poissons Ratio (x) = 0.26263 0.27786
# Poissons Ratio (y) = 0.26263 0.27786
# Poissons Ratio (z) = 0.28904 0.28904
#
# Static dielectric constant tensor:
#      x y z
#    x 3.581730 0.000000 0.000000 
#    y 0.000000 3.581730 0.000000 
#    z 0.000000 0.000000 3.644140 
# 
# 
# High freq. dielectric constant tensor:
#      x y z
#    x 1.773760 0.000000 0.000000 
#    y 0.000000 1.773760 0.000000 
#    z 0.000000 0.000000 1.776020 
# 
# From -- ./inp_files/1175.got.cif
#   From: 2010.03.12/outbox.cif.g09.slc.cpg/sg192_1_cif.got.tgz:1175.got - 2010.04.01 12:16:15.
