data_PCOD8329520
_publ_section_title
;
Structure prediction by ZEFSAII (Michael W. Deem and Ramdas Pophale) SiO2 
 PCOD8329520
Probable space group: P 6/M C C
;
_chemical_formula_sum "Si O2"
_cell_formula_units_Z 144
_cell_length_a 32.238181
_cell_length_b 32.238181
_cell_length_c 8.757335
_cell_angle_alpha 90.000000
_cell_angle_beta 90.000000
_cell_angle_gamma 120.000000
_cell_volume 7882.131093
_symmetry_space_group_name_H-M "P 6/M C C"
_symmetry_group_IT_number 192
_symmetry_cell_setting 'hexagonal'
loop_
_space_group_symop_operation_xyz
x,y,z
x-y,x,z
-y,x-y,z
-x,-y,z
-x+y,-x,z
y,-x+y,z
x-y,-y,1/2-z
-x,-x+y,1/2-z
y,x,1/2-z
-y,-x,1/2-z
-x+y,y,1/2-z
x,x-y,1/2-z
-x,-y,-z
-x+y,-x,-z
y,-x+y,-z
x,y,-z
x-y,x,-z
-y,x-y,-z
-x+y,y,1/2+z
x,x-y,1/2+z
-y,-x,1/2+z
y,x,1/2+z
x-y,-y,1/2+z
-x,-x+y,1/2+z
loop_
_atom_site_type_symbol
_atom_site_label
_atom_site_fract_x
_atom_site_fract_y
_atom_site_fract_z
Si Si1 0.234498 0.950479 0.821725
Si Si2 0.195395 0.716392 0.820150
Si Si3 0.382024 0.103629 0.824429
Si Si4 0.190369 0.050451 0.319156
Si Si5 0.439362 0.051393 0.819741
Si Si6 0.614024 0.140614 0.181498
O O1 0.242993 0.907347 0.773226
O O2 0.181804 0.938594 0.768428
O O3 0.275268 0.000000 0.750000
O O4 0.239913 0.957356 0.000000
O O5 0.245903 0.754098 0.750000
O O6 0.157290 0.733800 0.786227
O O7 0.179368 0.666533 0.737967
O O8 0.199344 0.710048 0.000000
O O9 0.400112 0.066761 0.780623
O O10 0.367049 0.098182 0.000000
O O11 0.180942 0.090471 0.250000
O O12 0.184886 0.049152 0.500000
O O13 0.150670 0.000000 0.250000
O O14 0.489539 0.087957 0.743289
O O15 0.422877 0.000000 0.750000
O O16 0.447260 0.051627 0.000000
O O17 0.578452 0.156905 0.250000
O O18 0.612145 0.139841 0.000000
#
# Coordination Sequence:
#
# PCOD8329520 Si02
#       6
#    24  24  24  24  24  24
#     4  10  20  32  49  73 104 142 184 224 264 307
#     4  10  21  38  58  82 109 140 177 218 265 319
#     4   9  19  33  50  73 106 144 183 224 264 307
#     4  10  21  37  56  79 105 136 172 214 261 313
#     4  10  20  34  51  76 108 145 187 229 270 315
#     4  11  22  38  59  82 108 140 176 219 268 321
#
# _framework density 18.269171
#
# number of rings (size 3 to 8) (size 9 to 14) (size 15 to 20)
#    0.000    2.000    0.000    5.000    0.000    8.333 
#    0.000    5.000    0.000    0.500    0.000    3.500 
#    0.000    0.000    0.000    0.000    0.000    0.000 
#
# Total GULP energy -1786174.641472 kJ/mol
# GULP energy per Si atom -12403.990566 kJ/mol
# Density = 1.822759 g / cm^3
# Si number density = 18.269171 Si / 1000 Ang^3
#
#
#
# Elastic Constant Matrix: (Units=GPa)
#
#
# Indices 1 2 3 4 5 6 
#
# 1 99.5662 72.9370 51.4562 0.0000 0.0000 0.0000
# 2 72.9370 99.5662 51.4562 0.0000 0.0000 0.0000
# 3 51.4562 51.4562 110.6851 0.0000 0.0000 0.0000
# 4 0.0000 0.0000 0.0000 31.3153 0.0000 0.0000
# 5 0.0000 0.0000 0.0000 0.0000 31.3153 0.0000
# 6 0.0000 0.0000 0.0000 0.0000 0.0000 13.3146
#
#
#
# Elastic Compliance Matrix: (Units=1/GPa)
#
#
# Indices 1 2 3 4 5 6 
#
# 1 0.022787 -0.014765 -0.003729 0.000000 0.000000 0.000000
# 2 -0.014765 0.022787 -0.003729 0.000000 0.000000 0.000000
# 3 -0.003729 -0.003729 0.012502 0.000000 0.000000 0.000000
# 4 0.000000 0.000000 0.000000 0.031933 0.000000 0.000000
# 5 0.000000 0.000000 0.000000 0.000000 0.031933 0.000000
# 6 0.000000 0.000000 0.000000 0.000000 0.000000 0.075106
#
#
# Mechanical properties :
#
#
# Convention : Reuss Voigt Hill
#
# Bulk Modulus (GPa) = 73.37492 73.50180 73.43836
# Shear Modulus (GPa) = 20.32195 24.12025 22.22110
#
# Velocity S-wave (km/s) = 3.33883 3.63749 3.49136
# Velocity P-wave (km/s) = 7.42389 7.61327 7.51918
#
# Compressibility (1/GPa) = 0.01362863
#
# Stress axis : x y z
#
# Youngs Moduli (GPa) = 43.88413 43.88413 79.98721
#
# Poissons Ratio (x) = 0.64797 0.29829
# Poissons Ratio (y) = 0.64797 0.29829
# Poissons Ratio (z) = 0.16365 0.16365
#
# Static dielectric constant tensor:
#      x y z
#    x 3.286530 0.000000 0.000000 
#    y 0.000000 3.286530 0.000000 
#    z 0.000000 0.000000 3.431040 
# 
# 
# High freq. dielectric constant tensor:
#      x y z
#    x 1.699340 0.000000 0.000000 
#    y 0.000000 1.699340 0.000000 
#    z 0.000000 0.000000 1.723520 
# 
# From -- ./inp_files/1136.got.cif
#   From: 2010.03.12/outbox.cif.g09.slc.cpg/sg192_1_cif.got.tgz:1136.got - 2010.04.01 12:16:15.
