data_PCOD8329128
_publ_section_title
;
Structure prediction by ZEFSAII (Michael W. Deem and Ramdas Pophale) SiO2 
 PCOD8329128
Probable space group: P 6/M M M
;
_chemical_formula_sum "Si O2"
_cell_formula_units_Z 156
_cell_length_a 21.701638
_cell_length_b 21.701638
_cell_length_c 20.296912
_cell_angle_alpha 90.000000
_cell_angle_beta 90.000000
_cell_angle_gamma 120.000000
_cell_volume 8278.385191
_symmetry_space_group_name_H-M "P 6/M M M"
_symmetry_group_IT_number 191
_symmetry_cell_setting 'hexagonal'
loop_
_space_group_symop_operation_xyz
x,y,z
x-y,x,z
-y,x-y,z
-x,-y,z
-x+y,-x,z
y,-x+y,z
x-y,-y,-z
-x,-x+y,-z
y,x,-z
-y,-x,-z
-x+y,y,-z
x,x-y,-z
-x,-y,-z
-x+y,-x,-z
y,-x+y,-z
x,y,-z
x-y,x,-z
-y,x-y,-z
-x+y,y,z
x,x-y,z
-y,-x,z
y,x,z
x-y,-y,z
-x,-x+y,z
loop_
_atom_site_type_symbol
_atom_site_label
_atom_site_fract_x
_atom_site_fract_y
_atom_site_fract_z
Si Si1 0.391492 0.310458 0.573876
Si Si2 0.526348 0.192709 0.779766
Si Si3 0.666814 0.194509 0.373426
Si Si4 0.079537 0.786807 0.680656
Si Si5 0.916631 0.347076 0.880918
Si Si6 0.921548 0.217605 0.169916
Si Si7 0.480271 0.815341 0.000000
O O1 0.370285 0.278887 0.500000
O O2 0.368818 0.368818 0.587506
O O3 0.475838 0.350038 0.583824
O O4 0.355862 0.248000 0.627704
O O5 0.608274 0.216548 0.794688
O O6 0.513592 0.256796 0.804675
O O7 0.509346 0.178457 0.703173
O O8 0.474584 0.117526 0.814443
O O9 0.607705 0.215410 0.388672
O O10 0.741138 0.258863 0.397721
O O11 0.128154 0.871847 0.675141
O O12 0.086352 0.762595 0.754523
O O13 0.000000 0.767943 0.663558
O O14 0.912826 0.271151 0.878416
O O15 0.000000 0.409800 0.888532
O O16 0.865758 0.345431 0.938500
O O17 0.863056 0.136945 0.151838
O O18 0.000000 0.227113 0.160273
O O19 0.397498 0.794996 0.000000
O O20 0.484074 0.742037 0.000000
#
# Coordination Sequence:
#
# PCOD8329128 Si02
#       7
#    24  24  24  24  24  24  12
#     4  10  21  35  50  70  96 126 162 206 257 309
#     4  10  20  35  55  77 102 132 169 210 249 293
#     4  10  21  36  54  75  99 129 165 206 250 297
#     4   9  17  30  50  75 102 132 167 208 251 297
#     4  11  23  37  55  80 109 138 167 207 257 303
#     4   9  17  31  52  77 104 134 170 209 250 297
#     4  12  26  43  61  79 104 139 179 217 253 298
#
# _framework density 18.844256000000001
#
# number of rings (size 3 to 8) (size 9 to 14) (size 15 to 20)
#    0.000    2.000    0.000    3.846    0.000    8.923 
#    0.000    3.846    0.000    1.231    0.000    2.154 
#    0.000    0.000    0.000    3.846    0.000   20.000 
#
# Total GULP energy -1933810.681340 kJ/mol
# GULP energy per Si atom -12396.222316 kJ/mol
# Density = 1.880137 g / cm^3
# Si number density = 18.844256 Si / 1000 Ang^3
#
#
#
# Elastic Constant Matrix: (Units=GPa)
#
#
# Indices 1 2 3 4 5 6 
#
# 1 107.9907 57.3351 34.6096 0.0000 0.0000 0.0000
# 2 57.3351 107.9907 34.6096 0.0000 0.0000 0.0000
# 3 34.6096 34.6096 39.7782 0.0000 0.0000 0.0000
# 4 0.0000 0.0000 0.0000 19.9090 0.0000 0.0000
# 5 0.0000 0.0000 0.0000 0.0000 19.9090 0.0000
# 6 0.0000 0.0000 0.0000 0.0000 0.0000 25.3278
#
#
#
# Elastic Compliance Matrix: (Units=1/GPa)
#
#
# Indices 1 2 3 4 5 6 
#
# 1 0.014628 -0.005113 -0.008278 0.000000 0.000000 0.000000
# 2 -0.005113 0.014628 -0.008278 0.000000 0.000000 0.000000
# 3 -0.008278 -0.008278 0.039545 0.000000 0.000000 0.000000
# 4 0.000000 0.000000 0.000000 0.050228 0.000000 0.000000
# 5 0.000000 0.000000 0.000000 0.000000 0.050228 0.000000
# 6 0.000000 0.000000 0.000000 0.000000 0.000000 0.039482
#
#
# Mechanical properties :
#
#
# Convention : Reuss Voigt Hill
#
# Bulk Modulus (GPa) = 39.27625 56.54093 47.90859
# Shear Modulus (GPa) = 19.18892 21.64285 20.41588
#
# Velocity S-wave (km/s) = 3.19453 3.39265 3.29508
# Velocity P-wave (km/s) = 5.87320 6.73915 6.32102
#
# Compressibility (1/GPa) = 0.02546068
#
# Stress axis : x y z
#
# Youngs Moduli (GPa) = 68.36233 68.36233 25.28770
#
# Poissons Ratio (x) = 0.34955 0.20934
# Poissons Ratio (y) = 0.34955 0.20934
# Poissons Ratio (z) = 0.56593 0.56593
#
# Static dielectric constant tensor:
#      x y z
#    x 3.483150 0.000000 0.000000 
#    y 0.000000 3.483150 0.000000 
#    z 0.000000 0.000000 3.519540 
# 
# 
# High freq. dielectric constant tensor:
#      x y z
#    x 1.727200 0.000000 0.000000 
#    y 0.000000 1.727200 0.000000 
#    z 0.000000 0.000000 1.727810 
# 
# From -- ./inp_files/7746.got.cif
#   From: 2010.03.12/outbox.cif.g09.slc.cpg/sg191_4_cif.got.tgz:7746.got - 2010.04.01 12:09:02.
