data_PCOD8329441
_publ_section_title
;
Structure prediction by ZEFSAII (Michael W. Deem and Ramdas Pophale) SiO2 
 PCOD8329441
Probable space group: P 6/M C C
;
_chemical_formula_sum "Si O2"
_cell_formula_units_Z 144
_cell_length_a 32.187446
_cell_length_b 32.187446
_cell_length_c 8.944755
_cell_angle_alpha 90.000000
_cell_angle_beta 90.000000
_cell_angle_gamma 120.000000
_cell_volume 8025.500328
_symmetry_space_group_name_H-M "P 6/M C C"
_symmetry_group_IT_number 192
_symmetry_cell_setting 'hexagonal'
loop_
_space_group_symop_operation_xyz
x,y,z
x-y,x,z
-y,x-y,z
-x,-y,z
-x+y,-x,z
y,-x+y,z
x-y,-y,1/2-z
-x,-x+y,1/2-z
y,x,1/2-z
-y,-x,1/2-z
-x+y,y,1/2-z
x,x-y,1/2-z
-x,-y,-z
-x+y,-x,-z
y,-x+y,-z
x,y,-z
x-y,x,-z
-y,x-y,-z
-x+y,y,1/2+z
x,x-y,1/2+z
-y,-x,1/2+z
y,x,1/2+z
x-y,-y,1/2+z
-x,-x+y,1/2+z
loop_
_atom_site_type_symbol
_atom_site_label
_atom_site_fract_x
_atom_site_fract_y
_atom_site_fract_z
Si Si1 0.561192 0.612462 0.325510
Si Si2 0.049144 0.766490 0.174354
Si Si3 0.720648 0.524705 0.325511
Si Si4 0.811297 0.861585 0.676888
Si Si5 0.863152 0.473861 0.176571
Si Si6 0.276755 0.887507 0.327206
O O1 0.583326 0.583326 0.250000
O O2 0.552723 0.599893 0.500000
O O3 0.510360 0.596099 0.248589
O O4 0.597005 0.668622 0.297522
O O5 0.063223 0.820468 0.217842
O O6 0.091778 0.757304 0.226102
O O7 0.000000 0.727872 0.250000
O O8 0.040074 0.757115 0.000000
O O9 0.752217 0.504433 0.250000
O O10 0.729302 0.527125 0.500000
O O11 0.665342 0.489492 0.282662
O O12 0.737953 0.578326 0.268906
O O13 0.848973 0.848973 0.750000
O O14 0.821126 0.910563 0.750000
O O15 0.819571 0.867586 0.500000
O O16 0.843811 0.421906 0.250000
O O17 0.869437 0.472076 0.000000
O O18 0.268684 0.872164 0.500000
#
# Coordination Sequence:
#
# PCOD8329441 Si02
#       6
#    24  24  24  24  24  24
#     4  10  19  31  49  73 104 141 179 218 256 296
#     4   9  18  31  48  72 103 139 178 216 253 293
#     4  10  21  36  55  78 103 132 166 205 251 304
#     4  10  20  35  54  76 102 132 167 207 252 301
#     4  10  21  37  56  78 102 130 166 207 254 306
#     4   9  18  32  49  72 104 141 179 217 254 292
#
# _framework density 17.942806999999998
#
# number of rings (size 3 to 8) (size 9 to 14) (size 15 to 20)
#    0.000    2.333    0.000    2.500    0.000    5.000 
#    0.000    3.333    0.000    0.500    0.000    1.167 
#    0.000    0.000    0.000    0.000    0.000    0.000 
#
# Total GULP energy -1786038.647681 kJ/mol
# GULP energy per Si atom -12403.046164 kJ/mol
# Density = 1.790197 g / cm^3
# Si number density = 17.942807 Si / 1000 Ang^3
#
#
#
# Elastic Constant Matrix: (Units=GPa)
#
#
# Indices 1 2 3 4 5 6 
#
# 1 106.6506 72.3281 55.1234 0.0000 0.0000 0.0000
# 2 72.3281 106.6506 55.1234 0.0000 0.0000 0.0000
# 3 55.1234 55.1234 89.2702 0.0000 0.0000 0.0000
# 4 0.0000 0.0000 0.0000 31.5602 0.0000 0.0000
# 5 0.0000 0.0000 0.0000 0.0000 31.5602 0.0000
# 6 0.0000 0.0000 0.0000 0.0000 0.0000 17.1612
#
#
#
# Elastic Compliance Matrix: (Units=1/GPa)
#
#
# Indices 1 2 3 4 5 6 
#
# 1 0.019076 -0.010059 -0.005568 0.000000 0.000000 0.000000
# 2 -0.010059 0.019076 -0.005568 0.000000 0.000000 0.000000
# 3 -0.005568 -0.005568 0.018078 0.000000 0.000000 0.000000
# 4 0.000000 0.000000 0.000000 0.031685 0.000000 0.000000
# 5 0.000000 0.000000 0.000000 0.000000 0.031685 0.000000
# 6 0.000000 0.000000 0.000000 0.000000 0.000000 0.058271
#
#
# Mechanical properties :
#
#
# Convention : Reuss Voigt Hill
#
# Bulk Modulus (GPa) = 72.25140 74.19123 73.22132
# Shear Modulus (GPa) = 22.23451 24.05611 23.14531
#
# Velocity S-wave (km/s) = 3.52403 3.66554 3.59548
# Velocity P-wave (km/s) = 7.54410 7.70412 7.62453
#
# Compressibility (1/GPa) = 0.01384056
#
# Stress axis : x y z
#
# Youngs Moduli (GPa) = 52.42140 52.42140 55.31545
#
# Poissons Ratio (x) = 0.52732 0.30799
# Poissons Ratio (y) = 0.52732 0.30799
# Poissons Ratio (z) = 0.29187 0.29187
#
# Static dielectric constant tensor:
#      x y z
#    x 3.302670 0.000000 0.000000 
#    y 0.000000 3.302670 0.000000 
#    z 0.000000 0.000000 3.381070 
# 
# 
# High freq. dielectric constant tensor:
#      x y z
#    x 1.686120 0.000000 0.000000 
#    y 0.000000 1.686120 0.000000 
#    z 0.000000 0.000000 1.705740 
# 
# From -- ./inp_files/1178.got.cif
#   From: 2010.03.12/outbox.cif.g09.slc.cpg/sg192_1_cif.got.tgz:1178.got - 2010.04.01 12:16:15.
