data_PCOD8329931
_publ_section_title
;
Structure prediction by ZEFSAII (Michael W. Deem and Ramdas Pophale) SiO2 
 PCOD8329931
Probable space group: P 63/M C M
;
_chemical_formula_sum "Si O2"
_cell_formula_units_Z 144
_cell_length_a 32.410248
_cell_length_b 32.410248
_cell_length_c 8.629403
_cell_angle_alpha 90.000000
_cell_angle_beta 90.000000
_cell_angle_gamma 120.000000
_cell_volume 7850.116311
_symmetry_space_group_name_H-M "P 63/M C M"
_symmetry_group_IT_number 193
_symmetry_cell_setting 'hexagonal'
loop_
_space_group_symop_operation_xyz
x,y,z
x-y,x,1/2+z
-y,x-y,z
-x,-y,1/2+z
-x+y,-x,z
y,-x+y,1/2+z
x-y,-y,1/2-z
-x,-x+y,1/2-z
y,x,1/2-z
-y,-x,-z
-x+y,y,-z
x,x-y,-z
-x,-y,-z
-x+y,-x,1/2-z
y,-x+y,-z
x,y,1/2-z
x-y,x,-z
-y,x-y,1/2-z
-x+y,y,1/2+z
x,x-y,1/2+z
-y,-x,1/2+z
y,x,z
x-y,-y,z
-x,-x+y,z
loop_
_atom_site_type_symbol
_atom_site_label
_atom_site_fract_x
_atom_site_fract_y
_atom_site_fract_z
Si Si1 0.528132 0.383851 0.566190
Si Si2 0.945375 0.228199 0.568186
Si Si3 0.614769 0.562749 0.066780
Si Si4 0.722099 0.614794 0.432311
Si Si5 0.945485 0.805238 0.931593
Si Si6 0.280816 0.474158 0.066926
O O1 0.579650 0.420351 0.500000
O O2 0.529941 0.382101 0.750000
O O3 0.490185 0.399743 0.509666
O O4 0.511820 0.331985 0.501028
O O5 0.937233 0.228545 0.750000
O O6 0.910979 0.242299 0.479994
O O7 0.931098 0.175404 0.515507
O O8 0.000000 0.264752 0.521533
O O9 0.611351 0.563047 0.250000
O O10 0.579535 0.579535 0.992412
O O11 0.668653 0.600170 0.015427
O O12 0.725094 0.608385 0.250000
O O13 0.736796 0.579955 0.516125
O O14 0.936992 0.795659 0.750000
O O15 0.000000 0.844538 0.968649
O O16 0.912502 0.825003 0.000000
O O17 0.282564 0.477604 0.250000
O O18 0.244952 0.489903 0.000000
#
# Coordination Sequence:
#
# PCOD8329931 Si02
#       6
#    24  24  24  24  24  24
#     4  10  20  35  55  80 108 140 177 216 262 314
#     4  10  20  33  50  75 108 145 184 224 264 308
#     4   8  15  28  47  72 104 142 181 219 257 297
#     4  10  19  32  51  76 107 144 185 225 265 310
#     4  10  21  37  57  80 105 135 171 212 261 315
#     4  11  22  38  58  80 106 136 173 218 268 322
#
# _framework density 18.343677
#
# number of rings (size 3 to 8) (size 9 to 14) (size 15 to 20)
#    0.000    2.167    0.000    5.000    0.000    3.667 
#    0.000    3.333    0.000   10.000    0.000    2.333 
#    0.000    0.000    0.000    0.000    0.000    0.000 
#
# Total GULP energy -1785788.370053 kJ/mol
# GULP energy per Si atom -12401.308125 kJ/mol
# Density = 1.830193 g / cm^3
# Si number density = 18.343677 Si / 1000 Ang^3
#
#
#
# Elastic Constant Matrix: (Units=GPa)
#
#
# Indices 1 2 3 4 5 6 
#
# 1 107.8071 76.4492 40.5503 0.0000 0.0000 0.0000
# 2 76.4492 107.8071 40.5503 0.0000 0.0000 0.0000
# 3 40.5503 40.5503 91.3835 0.0000 0.0000 0.0000
# 4 0.0000 0.0000 0.0000 28.6357 0.0000 0.0000
# 5 0.0000 0.0000 0.0000 0.0000 28.6357 0.0000
# 6 0.0000 0.0000 0.0000 0.0000 0.0000 15.6789
#
#
#
# Elastic Compliance Matrix: (Units=1/GPa)
#
#
# Indices 1 2 3 4 5 6 
#
# 1 0.019317 -0.012573 -0.002993 0.000000 0.000000 0.000000
# 2 -0.012573 0.019317 -0.002993 0.000000 0.000000 0.000000
# 3 -0.002993 -0.002993 0.013599 0.000000 0.000000 0.000000
# 4 0.000000 0.000000 0.000000 0.034921 0.000000 0.000000
# 5 0.000000 0.000000 0.000000 0.000000 0.034921 0.000000
# 6 0.000000 0.000000 0.000000 0.000000 0.000000 0.063780
#
#
# Mechanical properties :
#
#
# Convention : Reuss Voigt Hill
#
# Bulk Modulus (GPa) = 66.15172 69.12194 67.63683
# Shear Modulus (GPa) = 21.92872 24.55326 23.24099
#
# Velocity S-wave (km/s) = 3.46126 3.66254 3.56332
# Velocity P-wave (km/s) = 7.21904 7.45983 7.34042
#
# Compressibility (1/GPa) = 0.01511676
#
# Stress axis : x y z
#
# Youngs Moduli (GPa) = 51.76734 51.76734 73.53528
#
# Poissons Ratio (x) = 0.65086 0.22008
# Poissons Ratio (y) = 0.65086 0.22008
# Poissons Ratio (z) = 0.15493 0.15493
#
# Static dielectric constant tensor:
#      x y z
#    x 3.471190 0.000000 0.000000 
#    y 0.000000 3.471190 0.000000 
#    z 0.000000 0.000000 3.324080 
# 
# 
# High freq. dielectric constant tensor:
#      x y z
#    x 1.703450 0.000000 0.000000 
#    y 0.000000 1.703450 0.000000 
#    z 0.000000 0.000000 1.713770 
# 
# From -- ./inp_files/1493.got.cif
#   From: 2010.03.12/outbox.cif.g09.slc.cpg/sg193_1_cif.got.tgz:1493.got - 2010.04.01 12:20:39.
