data_PCOD8329643
_publ_section_title
;
Structure prediction by ZEFSAII (Michael W. Deem and Ramdas Pophale) SiO2 
 PCOD8329643
Probable space group: P 6/M C C
;
_chemical_formula_sum "Si O2"
_cell_formula_units_Z 144
_cell_length_a 31.085994
_cell_length_b 31.085994
_cell_length_c 8.633969
_cell_angle_alpha 90.000000
_cell_angle_beta 90.000000
_cell_angle_gamma 120.000000
_cell_volume 7225.545404
_symmetry_space_group_name_H-M "P 6/M C C"
_symmetry_group_IT_number 192
_symmetry_cell_setting 'hexagonal'
loop_
_space_group_symop_operation_xyz
x,y,z
x-y,x,z
-y,x-y,z
-x,-y,z
-x+y,-x,z
y,-x+y,z
x-y,-y,1/2-z
-x,-x+y,1/2-z
y,x,1/2-z
-y,-x,1/2-z
-x+y,y,1/2-z
x,x-y,1/2-z
-x,-y,-z
-x+y,-x,-z
y,-x+y,-z
x,y,-z
x-y,x,-z
-y,x-y,-z
-x+y,y,1/2+z
x,x-y,1/2+z
-y,-x,1/2+z
y,x,1/2+z
x-y,-y,1/2+z
-x,-x+y,1/2+z
loop_
_atom_site_type_symbol
_atom_site_label
_atom_site_fract_x
_atom_site_fract_y
_atom_site_fract_z
Si Si1 0.667064 0.241439 0.682370
Si Si2 0.332079 0.849376 0.181005
Si Si3 0.479497 0.428153 0.181074
Si Si4 0.709930 0.761569 0.680868
Si Si5 0.389524 0.239961 0.680729
Si Si6 0.801012 0.854296 0.816474
O O1 0.721041 0.278960 0.750000
O O2 0.627348 0.254696 0.750000
O O3 0.667894 0.246860 0.500000
O O4 0.653047 0.186029 0.727836
O O5 0.372916 0.905696 0.222785
O O6 0.278800 0.839736 0.232230
O O7 0.331345 0.838177 0.000000
O O8 0.435580 0.435580 0.250000
O O9 0.532626 0.467375 0.250000
O O10 0.482009 0.437375 0.000000
O O11 0.717874 0.717874 0.750000
O O12 0.723284 0.768192 0.500000
O O13 0.653343 0.746592 0.711631
O O14 0.745758 0.813445 0.764468
O O15 0.371520 0.185760 0.750000
O O16 0.401034 0.240786 0.500000
O O17 0.841024 0.841024 0.750000
O O18 0.814917 0.907459 0.750000
O O19 0.803636 0.856334 0.000000
#
# Coordination Sequence:
#
# PCOD8329643 Si02
#       6
#    24  24  24  24  24  24
#     4  12  25  43  66  92 122 154 191 236 287 344
#     4  11  24  41  61  87 118 155 196 239 288 341
#     4  10  21  37  60  87 116 150 189 235 285 337
#     4  10  21  37  58  85 115 150 192 239 291 343
#     4  11  24  40  59  83 114 154 195 237 286 341
#     4  11  21  35  56  83 114 149 190 237 289 343
#
# _framework density 19.929292
#
# number of rings (size 3 to 8) (size 9 to 14) (size 15 to 20)
#    0.000    1.167    0.000    8.167    0.000    8.667 
#    0.000    3.333    0.000    0.167    0.000    1.167 
#    0.000    0.000    0.000    0.000    0.000    0.000 
#
# Total GULP energy -1786592.942650 kJ/mol
# GULP energy per Si atom -12406.895435 kJ/mol
# Density = 1.988393 g / cm^3
# Si number density = 19.929292 Si / 1000 Ang^3
#
#
#
# Elastic Constant Matrix: (Units=GPa)
#
#
# Indices 1 2 3 4 5 6 
#
# 1 324.2529 -193.5859 48.6315 0.0000 0.0000 0.0001
# 2 -193.5859 324.2529 48.6315 0.0000 0.0000 -0.0001
# 3 48.6315 48.6315 155.8450 0.0000 0.0000 0.0000
# 4 0.0000 0.0000 0.0000 24.0578 0.0000 0.0000
# 5 0.0000 0.0000 0.0000 0.0000 24.0578 0.0000
# 6 0.0001 -0.0001 0.0000 0.0000 0.0000 258.9192
#
#
#
# Elastic Compliance Matrix: (Units=1/GPa)
#
#
# Indices 1 2 3 4 5 6 
#
# 1 0.005950 0.004019 -0.003111 0.000000 0.000000 0.000000
# 2 0.004019 0.005950 -0.003111 0.000000 0.000000 0.000000
# 3 -0.003111 -0.003111 0.008358 0.000000 0.000000 0.000000
# 4 0.000000 0.000000 0.000000 0.041567 0.000000 0.000000
# 5 0.000000 0.000000 0.000000 0.000000 0.041567 0.000000
# 6 0.000000 0.000000 0.000000 0.000000 0.000000 0.003862
#
#
# Mechanical properties :
#
#
# Convention : Reuss Voigt Hill
#
# Bulk Modulus (GPa) = 63.08234 67.96724 65.52479
# Shear Modulus (GPa) = 42.75613 121.45189 82.10401
#
# Velocity S-wave (km/s) = 4.63686 7.81497 6.42550
# Velocity P-wave (km/s) = 7.77104 10.75220 9.38080
#
# Compressibility (1/GPa) = 0.01585230
#
# Stress axis : x y z
#
# Youngs Moduli (GPa) = 168.07297 168.07297 119.64581
#
# Poissons Ratio (x) = -0.67543 0.37218
# Poissons Ratio (y) = -0.67543 0.37218
# Poissons Ratio (z) = 0.52282 0.52282
#
# Static dielectric constant tensor:
#      x y z
#    x 3.520260 0.000000 0.000000 
#    y 0.000000 3.520260 0.000000 
#    z 0.000000 0.000000 3.793930 
# 
# 
# High freq. dielectric constant tensor:
#      x y z
#    x 1.780440 0.000000 0.000000 
#    y 0.000000 1.780440 0.000000 
#    z 0.000000 0.000000 1.798380 
# 
# From -- ./inp_files/1215.got.cif
#   From: 2010.03.12/outbox.cif.g09.slc.cpg/sg192_1_cif.got.tgz:1215.got - 2010.04.01 12:16:15.
