data_PCOD8329453
_publ_section_title
;
Structure prediction by ZEFSAII (Michael W. Deem and Ramdas Pophale) SiO2 
 PCOD8329453
Probable space group: P 6/M C C
;
_chemical_formula_sum "Si O2"
_cell_formula_units_Z 120
_cell_length_a 16.926645
_cell_length_b 16.926645
_cell_length_c 28.313053
_cell_angle_alpha 90.000000
_cell_angle_beta 90.000000
_cell_angle_gamma 120.000000
_cell_volume 7025.206677
_symmetry_space_group_name_H-M "P 6/M C C"
_symmetry_group_IT_number 192
_symmetry_cell_setting 'hexagonal'
loop_
_space_group_symop_operation_xyz
x,y,z
x-y,x,z
-y,x-y,z
-x,-y,z
-x+y,-x,z
y,-x+y,z
x-y,-y,1/2-z
-x,-x+y,1/2-z
y,x,1/2-z
-y,-x,1/2-z
-x+y,y,1/2-z
x,x-y,1/2-z
-x,-y,-z
-x+y,-x,-z
y,-x+y,-z
x,y,-z
x-y,x,-z
-y,x-y,-z
-x+y,y,1/2+z
x,x-y,1/2+z
-y,-x,1/2+z
y,x,1/2+z
x-y,-y,1/2+z
-x,-x+y,1/2+z
loop_
_atom_site_type_symbol
_atom_site_label
_atom_site_fract_x
_atom_site_fract_y
_atom_site_fract_z
Si Si1 0.154677 0.472653 0.500000
Si Si2 0.817645 0.980979 0.445201
Si Si3 0.408536 0.000403 0.826053
Si Si4 0.508288 0.647947 0.000000
Si Si5 0.647021 0.646474 0.430343
Si Si6 0.333986 0.852277 0.249299
O O1 0.250299 0.475077 0.500000
O O2 0.175072 0.576111 0.500000
O O3 0.098001 0.419237 0.453519
O O4 0.820283 0.895325 0.421446
O O5 0.839115 0.983747 0.500000
O O6 0.718337 0.966904 0.439191
O O7 0.429957 0.088256 0.795050
O O8 0.500000 0.000000 0.838066
O O9 0.364440 0.005223 0.874549
O O10 0.340584 0.908651 0.797763
O O11 0.551774 0.628891 0.953542
O O12 0.237984 0.762017 0.250000
O O13 0.413534 0.827068 0.250000
#
# Coordination Sequence:
#
# PCOD8329453 Si02
#       6
#    12  24  24  12  24  24
#     4  11  22  35  50  72 102 137 176 217 258 300
#     4  10  19  32  49  72  99 127 162 208 256 299
#     4   9  19  35  51  73 102 132 164 205 254 300
#     4  11  22  35  50  72 102 137 176 217 258 300
#     4  11  20  34  55  73  99 137 177 212 250 306
#     4   9  18  33  54  77 101 127 162 205 254 305
#
# _framework density 17.081347999999998
#
# number of rings (size 3 to 8) (size 9 to 14) (size 15 to 20)
#    0.000    2.000    2.000    5.400    0.000    4.000 
#    0.000    0.000    0.000    4.800    0.000    0.000 
#    0.000    0.000    0.000   10.200    0.000    0.000 
#
# Total GULP energy -1487884.598911 kJ/mol
# GULP energy per Si atom -12399.038324 kJ/mol
# Density = 1.704247 g / cm^3
# Si number density = 17.081348 Si / 1000 Ang^3
#
#
#
# Elastic Constant Matrix: (Units=GPa)
#
#
# Indices 1 2 3 4 5 6 
#
# 1 92.2620 24.4921 32.5760 0.0000 0.0000 0.0000
# 2 24.4921 92.2620 32.5760 0.0000 0.0000 0.0000
# 3 32.5760 32.5760 100.7855 0.0000 0.0000 0.0000
# 4 0.0000 0.0000 0.0000 -5.2629 0.0000 0.0000
# 5 0.0000 0.0000 0.0000 0.0000 -5.2629 0.0000
# 6 0.0000 0.0000 0.0000 0.0000 0.0000 33.8850
#
#
#
# Elastic Compliance Matrix: (Units=1/GPa)
#
#
# Indices 1 2 3 4 5 6 
#
# 1 0.012603 -0.002153 -0.003378 0.000000 0.000000 0.000000
# 2 -0.002153 0.012603 -0.003378 0.000000 0.000000 0.000000
# 3 -0.003378 -0.003378 0.012105 0.000000 0.000000 0.000000
# 4 0.000000 0.000000 0.000000 -0.190011 0.000000 0.000000
# 5 0.000000 0.000000 0.000000 0.000000 -0.190011 0.000000
# 6 0.000000 0.000000 0.000000 0.000000 0.000000 0.029512
#
#
# Mechanical properties :
#
#
# Convention : Reuss Voigt Hill
#
# Bulk Modulus (GPa) = 51.29599 51.62197 51.45898
# Shear Modulus (GPa) = -17.30800 17.71621 0.20411
#
# Velocity S-wave (km/s) = -3.18664 3.22400 0.34605
# Velocity P-wave (km/s) = 4.06891 6.64423 5.50916
#
# Compressibility (1/GPa) = 0.01949470
#
# Stress axis : x y z
#
# Youngs Moduli (GPa) = 79.34740 79.34740 82.60722
#
# Poissons Ratio (x) = 0.17083 0.27901
# Poissons Ratio (y) = 0.17083 0.27901
# Poissons Ratio (z) = 0.26800 0.26800
#
# Static dielectric constant tensor:
#      x y z
#    x 3.198040 0.000000 0.000000 
#    y 0.000000 3.198040 0.000000 
#    z 0.000000 0.000000 3.234150 
# 
# 
# High freq. dielectric constant tensor:
#      x y z
#    x 1.664480 0.000000 0.000000 
#    y 0.000000 1.664480 0.000000 
#    z 0.000000 0.000000 1.635980 
# 
# From -- ./inp_files/6485.got.cif
#   From: 2010.03.12/outbox.cif.g09.slc.cpg/sg192_4_cif.got.tgz:6485.got - 2010.04.01 12:16:15.
