data_PCOD8329800
_publ_section_title
;
Structure prediction by ZEFSAII (Michael W. Deem and Ramdas Pophale) SiO2 
 PCOD8329800
Probable space group: P 63/M C M
;
_chemical_formula_sum "Si O2"
_cell_formula_units_Z 168
_cell_length_a 20.782884
_cell_length_b 20.782884
_cell_length_c 28.480011
_cell_angle_alpha 90.000000
_cell_angle_beta 90.000000
_cell_angle_gamma 120.000000
_cell_volume 10653.257184
_symmetry_space_group_name_H-M "P 63/M C M"
_symmetry_group_IT_number 193
_symmetry_cell_setting 'hexagonal'
loop_
_space_group_symop_operation_xyz
x,y,z
x-y,x,1/2+z
-y,x-y,z
-x,-y,1/2+z
-x+y,-x,z
y,-x+y,1/2+z
x-y,-y,1/2-z
-x,-x+y,1/2-z
y,x,1/2-z
-y,-x,-z
-x+y,y,-z
x,x-y,-z
-x,-y,-z
-x+y,-x,1/2-z
y,-x+y,-z
x,y,1/2-z
x-y,x,-z
-y,x-y,1/2-z
-x+y,y,1/2+z
x,x-y,1/2+z
-y,-x,1/2+z
y,x,z
x-y,-y,z
-x,-x+y,z
loop_
_atom_site_type_symbol
_atom_site_label
_atom_site_fract_x
_atom_site_fract_y
_atom_site_fract_z
Si Si1 0.327952 0.415972 0.896789
Si Si2 0.831065 0.168938 0.556091
Si Si3 0.616311 0.088161 0.698476
Si Si4 0.088208 0.544106 0.947761
Si Si5 0.415975 0.088020 0.603211
Si Si6 0.383690 0.911839 0.698476
Si Si7 0.916414 0.832828 0.555723
O O1 0.363401 0.363401 0.901607
O O2 0.249777 0.375208 0.921995
O O3 0.321327 0.435297 0.842213
O O4 0.378092 0.494952 0.921765
O O5 0.826493 0.173508 0.500000
O O6 0.874570 0.249781 0.578004
O O7 0.873855 0.126150 0.571793
O O8 0.654266 0.115027 0.750000
O O9 0.559599 0.119198 0.689165
O O10 0.568070 0.000000 0.697039
O O11 0.116860 0.494956 0.921764
O O12 0.000000 0.500002 0.948342
O O13 0.121357 0.560678 0.000000
O O14 0.435298 0.113969 0.657787
O O15 0.363404 0.000000 0.598393
O O16 0.345735 0.884973 0.750000
O O17 0.431931 0.000000 0.697039
O O18 0.918966 0.837931 0.500000
O O19 0.873516 0.873516 0.576205
O O20 0.000000 0.873511 0.576205
#
# Coordination Sequence:
#
# PCOD8329800 Si02
#       7
#    24  24  24  24  24  24  24
#     4  10  18  30  46  66  91 120 154 191 231 280
#     4  11  22  31  41  63  97 131 160 198 247 287
#     4   8  13  24  45  71  93 112 141 184 230 274
#     4   9  16  26  43  64  84 111 149 187 216 251
#     4  10  18  30  46  66  91 120 154 191 231 280
#     4   8  13  24  45  71  93 112 141 184 230 274
#     4   9  17  30  47  65  86 119 164 209 252 300
#
# _framework density 15.769824
#
# number of rings (size 3 to 8) (size 9 to 14) (size 15 to 20)
#    0.000    2.714    1.429    2.714    0.000    3.429 
#    0.000    0.714    0.000    0.571    0.000    2.000 
#    0.000    0.000    0.000    0.857    0.000   26.429 
#
# Total GULP energy -2081898.625427 kJ/mol
# GULP energy per Si atom -12392.253723 kJ/mol
# Density = 1.573393 g / cm^3
# Si number density = 15.769824 Si / 1000 Ang^3
#
#
#
# Elastic Constant Matrix: (Units=GPa)
#
#
# Indices 1 2 3 4 5 6 
#
# 1 89.6899 54.8229 50.0812 0.0000 0.0000 0.0000
# 2 54.8229 89.6899 50.0812 0.0000 0.0000 0.0000
# 3 50.0812 50.0812 128.4013 0.0000 0.0000 0.0000
# 4 0.0000 0.0000 0.0000 18.0399 0.0000 0.0000
# 5 0.0000 0.0000 0.0000 0.0000 18.0399 0.0000
# 6 0.0000 0.0000 0.0000 0.0000 0.0000 17.4335
#
#
#
# Elastic Compliance Matrix: (Units=1/GPa)
#
#
# Indices 1 2 3 4 5 6 
#
# 1 0.019082 -0.009598 -0.003699 0.000000 0.000000 0.000000
# 2 -0.009598 0.019082 -0.003699 0.000000 0.000000 0.000000
# 3 -0.003699 -0.003699 0.010674 0.000000 0.000000 0.000000
# 4 0.000000 0.000000 0.000000 0.055433 0.000000 0.000000
# 5 0.000000 0.000000 0.000000 0.000000 0.055433 0.000000
# 6 0.000000 0.000000 0.000000 0.000000 0.000000 0.057361
#
#
# Mechanical properties :
#
#
# Convention : Reuss Voigt Hill
#
# Bulk Modulus (GPa) = 67.36323 68.63907 68.00115
# Shear Modulus (GPa) = 19.53091 20.88906 20.20998
#
# Velocity S-wave (km/s) = 3.52305 3.64348 3.58377
# Velocity P-wave (km/s) = 7.70444 7.83071 7.76783
#
# Compressibility (1/GPa) = 0.01484489
#
# Stress axis : x y z
#
# Youngs Moduli (GPa) = 52.40542 52.40542 93.68992
#
# Poissons Ratio (x) = 0.50301 0.34655
# Poissons Ratio (y) = 0.50301 0.34655
# Poissons Ratio (z) = 0.19384 0.19384
#
# Static dielectric constant tensor:
#      x y z
#    x 2.839720 0.000000 0.000000 
#    y 0.000000 2.839720 0.000000 
#    z 0.000000 0.000000 3.352360 
# 
# 
# High freq. dielectric constant tensor:
#      x y z
#    x 1.579820 0.000000 0.000000 
#    y 0.000000 1.579820 0.000000 
#    z 0.000000 0.000000 1.606900 
# 
# From -- ./inp_files/8527.got.cif
#   From: 2010.03.12/outbox.cif.g09.slc.cpg/sg193_5_cif.got.tgz:8527.got - 2010.04.01 12:20:39.
