data_PCOD8329519
_publ_section_title
;
Structure prediction by ZEFSAII (Michael W. Deem and Ramdas Pophale) SiO2 
 PCOD8329519
Probable space group: P 6/M C C
;
_chemical_formula_sum "Si O2"
_cell_formula_units_Z 144
_cell_length_a 32.215212
_cell_length_b 32.215212
_cell_length_c 8.759180
_cell_angle_alpha 90.000000
_cell_angle_beta 90.000000
_cell_angle_gamma 120.000000
_cell_volume 7872.561648
_symmetry_space_group_name_H-M "P 6/M C C"
_symmetry_group_IT_number 192
_symmetry_cell_setting 'hexagonal'
loop_
_space_group_symop_operation_xyz
x,y,z
x-y,x,z
-y,x-y,z
-x,-y,z
-x+y,-x,z
y,-x+y,z
x-y,-y,1/2-z
-x,-x+y,1/2-z
y,x,1/2-z
-y,-x,1/2-z
-x+y,y,1/2-z
x,x-y,1/2-z
-x,-y,-z
-x+y,-x,-z
y,-x+y,-z
x,y,-z
x-y,x,-z
-y,x-y,-z
-x+y,y,1/2+z
x,x-y,1/2+z
-y,-x,1/2+z
y,x,1/2+z
x-y,-y,1/2+z
-x,-x+y,1/2+z
loop_
_atom_site_type_symbol
_atom_site_label
_atom_site_fract_x
_atom_site_fract_y
_atom_site_fract_z
Si Si1 0.106868 0.299581 0.321792
Si Si2 0.050963 0.440759 0.180346
Si Si3 0.899615 0.618708 0.824488
Si Si4 0.860898 0.051683 0.319231
Si Si5 0.614629 0.141810 0.318526
Si Si6 0.194304 0.477643 0.820326
O O1 0.159015 0.318029 0.250000
O O2 0.114119 0.302075 0.500000
O O3 0.086677 0.334157 0.273189
O O4 0.069570 0.245531 0.268812
O O5 0.063504 0.399307 0.219339
O O6 0.089074 0.490199 0.257000
O O7 0.000000 0.426685 0.250000
O O8 0.051885 0.448914 0.000000
O O9 0.845860 0.577077 0.786441
O O10 0.904637 0.633624 0.000000
O O11 0.912968 0.087033 0.250000
O O12 0.864874 0.049997 0.500000
O O13 0.843189 0.000000 0.250000
O O14 0.579098 0.158196 0.250000
O O15 0.612751 0.141034 0.500000
O O16 0.667188 0.180488 0.261747
O O17 0.243938 0.487875 0.750000
O O18 0.198991 0.488121 0.000000
#
# Coordination Sequence:
#
# PCOD8329519 Si02
#       6
#    24  24  24  24  24  24
#     4  10  20  32  49  73 103 138 177 216 257 304
#     4  10  21  37  54  76 105 140 182 227 272 320
#     4   9  19  33  50  73 106 143 180 221 263 308
#     4  10  21  37  56  79 105 136 172 213 257 306
#     4  11  22  38  59  82 108 140 177 222 271 323
#     4  10  20  35  55  82 111 142 179 220 267 320
#
# _framework density 18.291377000000001
#
# number of rings (size 3 to 8) (size 9 to 14) (size 15 to 20)
#    0.000    2.000    0.000    5.000    0.000    8.333 
#    0.000    5.000    0.000    0.500    0.000    3.500 
#    0.000    0.000    0.000    0.000    0.000    0.000 
#
# Total GULP energy -1786174.905834 kJ/mol
# GULP energy per Si atom -12403.992402 kJ/mol
# Density = 1.824975 g / cm^3
# Si number density = 18.291377 Si / 1000 Ang^3
#
#
#
# Elastic Constant Matrix: (Units=GPa)
#
#
# Indices 1 2 3 4 5 6 
#
# 1 97.8876 49.8053 47.2789 0.0000 0.0000 0.0000
# 2 49.8053 97.8876 47.2789 0.0000 0.0000 0.0000
# 3 47.2789 47.2789 110.6215 0.0000 0.0000 0.0000
# 4 0.0000 0.0000 0.0000 32.5465 0.0000 0.0000
# 5 0.0000 0.0000 0.0000 0.0000 32.5465 0.0000
# 6 0.0000 0.0000 0.0000 0.0000 0.0000 24.0412
#
#
#
# Elastic Compliance Matrix: (Units=1/GPa)
#
#
# Indices 1 2 3 4 5 6 
#
# 1 0.015060 -0.005738 -0.003984 0.000000 0.000000 0.000000
# 2 -0.005738 0.015060 -0.003984 0.000000 0.000000 0.000000
# 3 -0.003984 -0.003984 0.012445 0.000000 0.000000 0.000000
# 4 0.000000 0.000000 0.000000 0.030725 0.000000 0.000000
# 5 0.000000 0.000000 0.000000 0.000000 0.030725 0.000000
# 6 0.000000 0.000000 0.000000 0.000000 0.000000 0.041595
#
#
# Mechanical properties :
#
#
# Convention : Reuss Voigt Hill
#
# Bulk Modulus (GPa) = 65.99599 66.12476 66.06038
# Shear Modulus (GPa) = 28.07839 28.62908 28.35373
#
# Velocity S-wave (km/s) = 3.92224 3.96051 3.94142
# Velocity P-wave (km/s) = 7.52799 7.55933 7.54368
#
# Compressibility (1/GPa) = 0.01515243
#
# Stress axis : x y z
#
# Youngs Moduli (GPa) = 66.40304 66.40304 80.35200
#
# Poissons Ratio (x) = 0.38103 0.32012
# Poissons Ratio (y) = 0.38103 0.32012
# Poissons Ratio (z) = 0.26454 0.26454
#
# Static dielectric constant tensor:
#      x y z
#    x 3.305060 0.000000 0.000000 
#    y 0.000000 3.305060 0.000000 
#    z 0.000000 0.000000 3.433980 
# 
# 
# High freq. dielectric constant tensor:
#      x y z
#    x 1.701450 0.000000 0.000000 
#    y 0.000000 1.701450 0.000000 
#    z 0.000000 0.000000 1.724390 
# 
# From -- ./inp_files/1167.got.cif
#   From: 2010.03.12/outbox.cif.g09.slc.cpg/sg192_1_cif.got.tgz:1167.got - 2010.04.01 12:16:15.
