data_PCOD8329589
_publ_section_title
;
Structure prediction by ZEFSAII (Michael W. Deem and Ramdas Pophale) SiO2 
 PCOD8329589
Probable space group: P 6/M C C
;
_chemical_formula_sum "Si O2"
_cell_formula_units_Z 152
_cell_length_a 17.714736
_cell_length_b 17.714736
_cell_length_c 31.534809
_cell_angle_alpha 90.000000
_cell_angle_beta 90.000000
_cell_angle_gamma 120.000000
_cell_volume 8570.185171
_symmetry_space_group_name_H-M "P 6/M C C"
_symmetry_group_IT_number 192
_symmetry_cell_setting 'hexagonal'
loop_
_space_group_symop_operation_xyz
x,y,z
x-y,x,z
-y,x-y,z
-x,-y,z
-x+y,-x,z
y,-x+y,z
x-y,-y,1/2-z
-x,-x+y,1/2-z
y,x,1/2-z
-y,-x,1/2-z
-x+y,y,1/2-z
x,x-y,1/2-z
-x,-y,-z
-x+y,-x,-z
y,-x+y,-z
x,y,-z
x-y,x,-z
-y,x-y,-z
-x+y,y,1/2+z
x,x-y,1/2+z
-y,-x,1/2+z
y,x,1/2+z
x-y,-y,1/2+z
-x,-x+y,1/2+z
loop_
_atom_site_type_symbol
_atom_site_label
_atom_site_fract_x
_atom_site_fract_y
_atom_site_fract_z
Si Si1 0.334618 0.281418 0.413850
Si Si2 0.167171 0.533558 0.590061
Si Si3 0.202246 0.876347 0.871006
Si Si4 0.797722 0.896791 0.797455
Si Si5 0.871805 0.434685 0.500000
Si Si6 0.364893 0.993427 0.000000
Si Si7 0.310098 0.522583 0.639519
Si Si8 0.333334 0.666667 0.199743
O O1 0.435641 0.349337 0.402738
O O2 0.263666 0.287379 0.384503
O O3 0.321510 0.183814 0.409207
O O4 0.318803 0.306084 0.460821
O O5 0.181125 0.570998 0.542321
O O6 0.258794 0.543229 0.603338
O O7 0.147176 0.593890 0.621034
O O8 0.142083 0.863190 0.831111
O O9 0.264120 0.843139 0.852185
O O10 0.858844 0.856847 0.805480
O O11 0.757851 0.878926 0.750000
O O12 0.897197 0.356841 0.500000
O O13 0.951926 0.531945 0.500000
O O14 0.314505 0.572593 0.682962
O O15 0.333334 0.666667 0.250000
#
# Coordination Sequence:
#
# PCOD8329589 Si02
#       8
#    24  24  24  24  12  12  24   8
#     4  10  21  34  53  75 107 142 184 221 269 321
#     4   9  18  33  48  76 107 141 182 223 264 316
#     4  11  20  34  54  79 104 140 172 217 271 325
#     4  10  20  36  58  83 108 130 162 210 270 334
#     4   9  16  28  50  72 103 137 175 216 268 305
#     4   9  18  32  48  74 101 140 179 218 252 301
#     4   9  19  32  51  75 104 137 179 222 264 308
#     4   9  18  36  54  70  98 139 180 216 252 318
#
# _framework density 17.735906
#
# number of rings (size 3 to 8) (size 9 to 14) (size 15 to 20)
#    0.000    2.368    1.579    1.421    0.000    4.421 
#    0.000    3.158    0.000    0.000    0.000    1.105 
#    0.000    2.526    0.000    0.000    0.000    0.000 
#
# Total GULP energy -1883455.025180 kJ/mol
# GULP energy per Si atom -12391.151481 kJ/mol
# Density = 1.769554 g / cm^3
# Si number density = 17.735906 Si / 1000 Ang^3
#
#
#
# Elastic Constant Matrix: (Units=GPa)
#
#
# Indices 1 2 3 4 5 6 
#
# 1 82.6354 36.1486 40.2807 0.0000 0.0000 -0.0001
# 2 36.1486 82.6353 40.2805 0.0000 0.0000 0.0000
# 3 40.2807 40.2805 107.6462 -0.0001 0.0000 -0.0001
# 4 0.0000 0.0000 -0.0001 23.5290 0.0000 0.0000
# 5 0.0000 0.0000 0.0000 0.0000 23.5291 0.0000
# 6 -0.0001 0.0000 -0.0001 0.0000 0.0000 23.2433
#
#
#
# Elastic Compliance Matrix: (Units=1/GPa)
#
#
# Indices 1 2 3 4 5 6 
#
# 1 0.016397 -0.005115 -0.004222 0.000000 0.000000 0.000000
# 2 -0.005115 0.016397 -0.004222 0.000000 0.000000 0.000000
# 3 -0.004222 -0.004222 0.012449 0.000000 0.000000 0.000000
# 4 0.000000 0.000000 0.000000 0.042501 0.000000 0.000000
# 5 0.000000 0.000000 0.000000 0.000000 0.042500 0.000000
# 6 0.000000 0.000000 0.000000 0.000000 0.000000 0.043023
#
#
# Mechanical properties :
#
#
# Convention : Reuss Voigt Hill
#
# Bulk Modulus (GPa) = 55.16836 56.25960 55.71398
# Shear Modulus (GPa) = 24.22190 24.47411 24.34800
#
# Velocity S-wave (km/s) = 3.69954 3.71876 3.70916
# Velocity P-wave (km/s) = 7.03007 7.08720 7.05869
#
# Compressibility (1/GPa) = 0.01812633
#
# Stress axis : x y z
#
# Youngs Moduli (GPa) = 60.98804 60.98803 80.32726
#
# Poissons Ratio (x) = 0.31195 0.33911
# Poissons Ratio (y) = 0.31195 0.33911
# Poissons Ratio (z) = 0.25747 0.25747
#
# Static dielectric constant tensor:
#      x y z
#    x 3.332480 0.000000 0.000000 
#    y 0.000000 3.332480 0.000000 
#    z 0.000000 0.000000 3.243120 
# 
# 
# High freq. dielectric constant tensor:
#      x y z
#    x 1.684660 0.000000 0.000000 
#    y 0.000000 1.684660 0.000000 
#    z 0.000000 0.000000 1.671660 
# 
# From -- ./inp_files/7157.got.cif
#   From: 2010.03.12/outbox.cif.g09.slc.cpg/sg192_4_cif.got.tgz:7157.got - 2010.04.01 12:16:15.
