data_PCOD8329202
_publ_section_title
;
Structure prediction by ZEFSAII (Michael W. Deem and Ramdas Pophale) SiO2 
 PCOD8329202
Probable space group: P 6/M M M
;
_chemical_formula_sum "Si O2"
_cell_formula_units_Z 144
_cell_length_a 21.721825
_cell_length_b 21.721825
_cell_length_c 20.276335
_cell_angle_alpha 90.000000
_cell_angle_beta 90.000000
_cell_angle_gamma 120.000000
_cell_volume 8285.385322
_symmetry_space_group_name_H-M "P 6/M M M"
_symmetry_group_IT_number 191
_symmetry_cell_setting 'hexagonal'
loop_
_space_group_symop_operation_xyz
x,y,z
x-y,x,z
-y,x-y,z
-x,-y,z
-x+y,-x,z
y,-x+y,z
x-y,-y,-z
-x,-x+y,-z
y,x,-z
-y,-x,-z
-x+y,y,-z
x,x-y,-z
-x,-y,-z
-x+y,-x,-z
y,-x+y,-z
x,y,-z
x-y,x,-z
-y,x-y,-z
-x+y,y,z
x,x-y,z
-y,-x,z
y,x,z
x-y,-y,z
-x,-x+y,z
loop_
_atom_site_type_symbol
_atom_site_label
_atom_site_fract_x
_atom_site_fract_y
_atom_site_fract_z
Si Si1 0.579863 0.860538 0.925329
Si Si2 0.000000 0.720019 0.885762
Si Si3 0.861236 0.000000 0.729943
Si Si4 0.420352 0.282337 0.310701
Si Si5 0.667014 0.188869 0.189763
Si Si6 0.278776 0.000000 0.270873
Si Si7 0.470127 0.388179 0.575071
Si Si8 0.139347 0.000000 0.886890
O O1 0.597262 0.798631 0.908734
O O2 0.517682 0.852607 0.876951
O O3 0.651916 0.932753 0.914728
O O4 0.552576 0.855752 0.000000
O O5 0.000000 0.716948 0.807475
O O6 0.000000 0.790210 0.911482
O O7 0.860937 0.930469 0.702138
O O8 0.862690 0.000000 0.808472
O O9 0.791453 0.000000 0.704465
O O10 0.408080 0.204040 0.315822
O O11 0.472146 0.325567 0.250934
O O12 0.345100 0.276016 0.299849
O O13 0.454887 0.322793 0.378468
O O14 0.593800 0.187600 0.196814
O O15 0.729954 0.270046 0.188088
O O16 0.454275 0.360570 0.500000
O O17 0.552112 0.447889 0.582876
O O18 0.420434 0.420434 0.595760
O O19 0.140025 0.070013 0.914658
#
# Coordination Sequence:
#
# PCOD8329202 Si02
#       8
#    24  12  12  24  24  12  24  12
#     4  10  21  36  53  75 102 131 172 221 264 317
#     4  11  19  33  53  72 100 140 174 213 270 321
#     4   9  17  28  44  67  99 138 178 219 263 309
#     4  11  21  34  54  81 113 146 179 218 264 313
#     4  10  21  37  57  80 105 135 171 213 263 318
#     4  11  20  32  49  76 107 142 181 221 261 317
#     4   9  18  34  56  81 110 144 182 222 262 310
#     4   9  17  27  45  71 100 133 171 214 259 310
#
# _framework density 17.379999000000002
#
# number of rings (size 3 to 8) (size 9 to 14) (size 15 to 20)
#    0.000    2.000    2.500    2.583    0.000    2.667 
#    0.000    1.250    0.000    2.333    0.000    0.000 
#    0.000    4.000    0.000    0.000    0.000    5.917 
#
# Total GULP energy -1785920.631957 kJ/mol
# GULP energy per Si atom -12402.226611 kJ/mol
# Density = 1.734044 g / cm^3
# Si number density = 17.379999 Si / 1000 Ang^3
#
#
#
# Elastic Constant Matrix: (Units=GPa)
#
#
# Indices 1 2 3 4 5 6 
#
# 1 123.4706 65.8527 46.9193 0.0000 0.0000 0.0000
# 2 65.8527 123.4706 46.9193 0.0000 0.0000 0.0000
# 3 46.9193 46.9193 95.0629 0.0000 0.0000 0.0000
# 4 0.0000 0.0000 0.0000 17.4518 0.0000 0.0000
# 5 0.0000 0.0000 0.0000 0.0000 17.4518 0.0000
# 6 0.0000 0.0000 0.0000 0.0000 0.0000 28.8090
#
#
#
# Elastic Compliance Matrix: (Units=1/GPa)
#
#
# Indices 1 2 3 4 5 6 
#
# 1 0.012174 -0.005182 -0.003451 0.000000 0.000000 0.000000
# 2 -0.005182 0.012174 -0.003451 0.000000 0.000000 0.000000
# 3 -0.003451 -0.003451 0.013926 0.000000 0.000000 0.000000
# 4 0.000000 0.000000 0.000000 0.057301 0.000000 0.000000
# 5 0.000000 0.000000 0.000000 0.000000 0.057301 0.000000
# 6 0.000000 0.000000 0.000000 0.000000 0.000000 0.034711
#
#
# Mechanical properties :
#
#
# Convention : Reuss Voigt Hill
#
# Bulk Modulus (GPa) = 70.89040 73.48743 72.18891
# Shear Modulus (GPa) = 23.09918 24.89668 23.99793
#
# Velocity S-wave (km/s) = 3.64959 3.78893 3.71991
# Velocity P-wave (km/s) = 7.65744 7.84321 7.75088
#
# Compressibility (1/GPa) = 0.01410628
#
# Stress axis : x y z
#
# Youngs Moduli (GPa) = 82.14120 82.14120 71.80723
#
# Poissons Ratio (x) = 0.42562 0.24783
# Poissons Ratio (y) = 0.42562 0.24783
# Poissons Ratio (z) = 0.28349 0.28349
#
# Static dielectric constant tensor:
#      x y z
#    x 3.236190 0.000000 0.000000 
#    y 0.000000 3.236190 0.000000 
#    z 0.000000 0.000000 3.173960 
# 
# 
# High freq. dielectric constant tensor:
#      x y z
#    x 1.674240 0.000000 0.000000 
#    y 0.000000 1.674240 0.000000 
#    z 0.000000 0.000000 1.657650 
# 
# From -- ./inp_files/7709.got.cif
#   From: 2010.03.12/outbox.cif.g09.slc.cpg/sg191_4_cif.got.tgz:7709.got - 2010.04.01 12:09:02.
