data_PCOD8329974
_publ_section_title
;
Structure prediction by ZEFSAII (Michael W. Deem and Ramdas Pophale) SiO2 
 PCOD8329974
Probable space group: P 63/M C M
;
_chemical_formula_sum "Si O2"
_cell_formula_units_Z 84
_cell_length_a 17.639186
_cell_length_b 17.639186
_cell_length_c 15.428873
_cell_angle_alpha 90.000000
_cell_angle_beta 90.000000
_cell_angle_gamma 120.000000
_cell_volume 4157.400993
_symmetry_space_group_name_H-M "P 63/M C M"
_symmetry_group_IT_number 193
_symmetry_cell_setting 'hexagonal'
loop_
_space_group_symop_operation_xyz
x,y,z
x-y,x,1/2+z
-y,x-y,z
-x,-y,1/2+z
-x+y,-x,z
y,-x+y,1/2+z
x-y,-y,1/2-z
-x,-x+y,1/2-z
y,x,1/2-z
-y,-x,-z
-x+y,y,-z
x,x-y,-z
-x,-y,-z
-x+y,-x,1/2-z
y,-x+y,-z
x,y,1/2-z
x-y,x,-z
-y,x-y,1/2-z
-x+y,y,1/2+z
x,x-y,1/2+z
-y,-x,1/2+z
y,x,z
x-y,-y,z
-x,-x+y,z
loop_
_atom_site_type_symbol
_atom_site_label
_atom_site_fract_x
_atom_site_fract_y
_atom_site_fract_z
Si Si1 0.096818 0.901993 0.146598
Si Si2 0.102900 0.742554 0.654016
Si Si3 0.384629 0.605415 0.250000
Si Si4 0.519836 0.417145 0.592828
O O1 0.094909 0.904509 0.250000
O O2 0.158578 0.861446 0.118281
O O3 0.000000 0.839213 0.108321
O O4 0.132988 0.000000 0.109871
O O5 0.140200 0.741788 0.750000
O O6 0.125596 0.683952 0.591448
O O7 0.000000 0.703055 0.662282
O O8 0.432677 0.712219 0.250000
O O9 0.409543 0.568971 0.165562
O O10 0.565281 0.434720 0.500000
O O11 0.482140 0.482140 0.612790
#
# Coordination Sequence:
#
# PCOD8329974 Si02
#       4
#    24  24  12  24
#     4   8  12  17  29  55  95 146 199 242 277 321
#     4   8  13  23  42  68 102 144 191 237 281 336
#     4  10  23  38  58  88 122 154 185 240 308 356
#     4  10  19  34  60  88 115 153 199 246 298 364
#
# _framework density 20.204931999999999
#
# number of rings (size 3 to 8) (size 9 to 14) (size 15 to 20)
#    0.286    2.857    1.429    2.429    0.000    2.286 
#    0.000    0.000    0.000    3.429    0.000    4.000 
#    0.000    0.000    0.000    0.000    0.000    0.000 
#
# Total GULP energy -1040704.522811 kJ/mol
# GULP energy per Si atom -12389.339557 kJ/mol
# Density = 2.015894 g / cm^3
# Si number density = 20.204932 Si / 1000 Ang^3
#
#
#
# Elastic Constant Matrix: (Units=GPa)
#
#
# Indices 1 2 3 4 5 6 
#
# 1 97.7064 45.4519 56.9209 0.0000 0.0000 0.0000
# 2 45.4519 97.7064 56.9209 0.0000 0.0000 0.0000
# 3 56.9209 56.9209 108.3775 0.0000 0.0000 0.0000
# 4 0.0000 0.0000 0.0000 12.4299 0.0000 0.0000
# 5 0.0000 0.0000 0.0000 0.0000 12.4299 0.0000
# 6 0.0000 0.0000 0.0000 0.0000 0.0000 26.1272
#
#
#
# Elastic Compliance Matrix: (Units=1/GPa)
#
#
# Indices 1 2 3 4 5 6 
#
# 1 0.015566 -0.003571 -0.006300 0.000000 0.000000 0.000000
# 2 -0.003571 0.015566 -0.006300 0.000000 0.000000 0.000000
# 3 -0.006300 -0.006300 0.015845 0.000000 0.000000 0.000000
# 4 0.000000 0.000000 0.000000 0.080451 0.000000 0.000000
# 5 0.000000 0.000000 0.000000 0.000000 0.080451 0.000000
# 6 0.000000 0.000000 0.000000 0.000000 0.000000 0.038274
#
#
# Mechanical properties :
#
#
# Convention : Reuss Voigt Hill
#
# Bulk Modulus (GPa) = 68.32927 69.15305 68.74116
# Shear Modulus (GPa) = 17.64457 19.83051 18.73754
#
# Velocity S-wave (km/s) = 2.95834 3.13624 3.04859
# Velocity P-wave (km/s) = 6.74986 6.88584 6.81819
#
# Compressibility (1/GPa) = 0.01463502
#
# Stress axis : x y z
#
# Youngs Moduli (GPa) = 64.24215 64.24215 63.11311
#
# Poissons Ratio (x) = 0.22941 0.39761
# Poissons Ratio (y) = 0.22941 0.39761
# Poissons Ratio (z) = 0.40472 0.40472
#
# Static dielectric constant tensor:
#      x y z
#    x 3.759550 0.000000 0.000000 
#    y 0.000000 3.759550 0.000000 
#    z 0.000000 0.000000 3.220790 
# 
# 
# High freq. dielectric constant tensor:
#      x y z
#    x 1.778110 0.000000 0.000000 
#    y 0.000000 1.778110 0.000000 
#    z 0.000000 0.000000 1.753900 
# 
# From -- ./inp_files/3319.got.cif
#   From: 2010.03.12/outbox.cif.g09.slc.cpg/sg193_2_cif.got.tgz:3319.got - 2010.04.01 12:20:39.
