data_PCOD8329499
_publ_section_title
;
Structure prediction by ZEFSAII (Michael W. Deem and Ramdas Pophale) SiO2 
 PCOD8329499
Probable space group: P 6/M C C
;
_chemical_formula_sum "Si O2"
_cell_formula_units_Z 60
_cell_length_a 16.537361
_cell_length_b 16.537361
_cell_length_c 14.272930
_cell_angle_alpha 90.000000
_cell_angle_beta 90.000000
_cell_angle_gamma 120.000000
_cell_volume 3380.462957
_symmetry_space_group_name_H-M "P 6/M C C"
_symmetry_group_IT_number 192
_symmetry_cell_setting 'hexagonal'
loop_
_space_group_symop_operation_xyz
x,y,z
x-y,x,z
-y,x-y,z
-x,-y,z
-x+y,-x,z
y,-x+y,z
x-y,-y,1/2-z
-x,-x+y,1/2-z
y,x,1/2-z
-y,-x,1/2-z
-x+y,y,1/2-z
x,x-y,1/2-z
-x,-y,-z
-x+y,-x,-z
y,-x+y,-z
x,y,-z
x-y,x,-z
-y,x-y,-z
-x+y,y,1/2+z
x,x-y,1/2+z
-y,-x,1/2+z
y,x,1/2+z
x-y,-y,1/2+z
-x,-x+y,1/2+z
loop_
_atom_site_type_symbol
_atom_site_label
_atom_site_fract_x
_atom_site_fract_y
_atom_site_fract_z
Si Si1 0.332176 0.476371 0.000000
Si Si2 0.523629 0.855805 0.500000
Si Si3 0.654298 0.654299 0.853594
Si Si4 0.000000 0.190219 0.250000
O O1 0.250029 0.500058 0.000000
O O2 0.429049 0.570951 0.000000
O O3 0.325786 0.418655 0.092516
O O4 0.581345 0.907131 0.592516
O O5 0.613472 0.613472 0.750000
O O6 0.752067 0.752067 0.842295
O O7 0.089157 0.178314 0.250000
#
# Coordination Sequence:
#
# PCOD8329499 Si02
#       4
#    12  12  24  12
#     4  11  22  37  58  86 116 149 192 243 288 334
#     4  11  22  37  58  86 116 149 192 243 288 334
#     4   9  21  38  59  79 111 155 197 223 281 356
#     4  10  19  34  57  84 110 140 182 234 281 330
#
# _framework density 17.749048999999999
#
# number of rings (size 3 to 8) (size 9 to 14) (size 15 to 20)
#    1.200    0.800    0.000    5.400    0.000    3.200 
#    0.000    0.000    0.000    4.800    0.000   14.000 
#    0.000    0.000    0.000    0.000    0.000    0.000 
#
# Total GULP energy -743751.648133 kJ/mol
# GULP energy per Si atom -12395.860802 kJ/mol
# Density = 1.770865 g / cm^3
# Si number density = 17.749049 Si / 1000 Ang^3
#
#
#
# Elastic Constant Matrix: (Units=GPa)
#
#
# Indices 1 2 3 4 5 6 
#
# 1 144.2074 100.3904 55.5872 0.0000 0.0000 0.0000
# 2 100.3904 144.2074 55.5872 0.0000 0.0000 0.0000
# 3 55.5872 55.5872 142.0679 0.0000 0.0000 0.0000
# 4 0.0000 0.0000 0.0000 260.6339 0.0000 0.0000
# 5 0.0000 0.0000 0.0000 0.0000 260.6339 0.0000
# 6 0.0000 0.0000 0.0000 0.0000 0.0000 21.9085
#
#
#
# Elastic Compliance Matrix: (Units=1/GPa)
#
#
# Indices 1 2 3 4 5 6 
#
# 1 0.013897 -0.008925 -0.001946 0.000000 0.000000 0.000000
# 2 -0.008925 0.013897 -0.001946 0.000000 0.000000 0.000000
# 3 -0.001946 -0.001946 0.008561 0.000000 0.000000 0.000000
# 4 0.000000 0.000000 0.000000 0.003837 0.000000 0.000000
# 5 0.000000 0.000000 0.000000 0.000000 0.003837 0.000000
# 6 0.000000 0.000000 0.000000 0.000000 0.000000 0.045644
#
#
# Mechanical properties :
#
#
# Convention : Reuss Voigt Hill
#
# Bulk Modulus (GPa) = 93.24750 94.84580 94.04665
# Shear Modulus (GPa) = 42.05877 123.22978 82.64428
#
# Velocity S-wave (km/s) = 4.87317 8.34144 6.83109
# Velocity P-wave (km/s) = 9.18229 12.09653 10.73872
#
# Compressibility (1/GPa) = 0.01072415
#
# Stress axis : x y z
#
# Youngs Moduli (GPa) = 71.95569 71.95569 116.80245
#
# Poissons Ratio (x) = 0.64219 0.22726
# Poissons Ratio (y) = 0.64219 0.22726
# Poissons Ratio (z) = 0.14000 0.14000
#
# Static dielectric constant tensor:
#      x y z
#    x 3.229030 0.000000 0.000000 
#    y 0.000000 3.229030 0.000000 
#    z 0.000000 0.000000 3.239940 
# 
# 
# High freq. dielectric constant tensor:
#      x y z
#    x 1.691180 0.000000 0.000000 
#    y 0.000000 1.691180 0.000000 
#    z 0.000000 0.000000 1.684250 
# 
# From -- ./inp_files/2262.got.cif
#   From: 2010.03.12/outbox.cif.g09.slc.cpg/sg192_2_cif.got.tgz:2262.got - 2010.04.01 12:16:15.
