data_PCOD8329986
_publ_section_title
;
Structure prediction by ZEFSAII (Michael W. Deem and Ramdas Pophale) SiO2 
 PCOD8329986
Probable space group: P 63/M C M
;
_chemical_formula_sum "Si O2"
_cell_formula_units_Z 56
_cell_length_a 12.879398
_cell_length_b 12.879398
_cell_length_c 20.732762
_cell_angle_alpha 90.000000
_cell_angle_beta 90.000000
_cell_angle_gamma 120.000000
_cell_volume 2978.371874
_symmetry_space_group_name_H-M "P 63/M C M"
_symmetry_group_IT_number 193
_symmetry_cell_setting 'hexagonal'
loop_
_space_group_symop_operation_xyz
x,y,z
x-y,x,1/2+z
-y,x-y,z
-x,-y,1/2+z
-x+y,-x,z
y,-x+y,1/2+z
x-y,-y,1/2-z
-x,-x+y,1/2-z
y,x,1/2-z
-y,-x,-z
-x+y,y,-z
x,x-y,-z
-x,-y,-z
-x+y,-x,1/2-z
y,-x+y,-z
x,y,1/2-z
x-y,x,-z
-y,x-y,1/2-z
-x+y,y,1/2+z
x,x-y,1/2+z
-y,-x,1/2+z
y,x,z
x-y,-y,z
-x,-x+y,z
loop_
_atom_site_type_symbol
_atom_site_label
_atom_site_fract_x
_atom_site_fract_y
_atom_site_fract_z
Si Si1 0.333335 0.666668 0.074704
Si Si2 0.718799 0.859400 0.000000
Si Si3 0.511343 0.246765 0.250000
Si Si4 0.711578 0.570960 0.119066
O O1 0.430891 0.633543 0.100486
O O2 0.333334 0.666667 0.000000
O O3 0.638255 0.811394 0.064176
O O4 0.802187 0.802187 0.991576
O O5 0.607405 0.197652 0.250000
O O6 0.422929 0.195187 0.188268
O O7 0.622490 0.622490 0.124304
#
# Coordination Sequence:
#
# PCOD8329986 Si02
#       4
#     8  12  12  24
#     4  12  21  37  56  88 123 148 194 247 294 340
#     4  10  23  42  64  88 115 152 198 246 294 346
#     4  10  19  38  58  82 123 156 192 236 290 344
#     4  11  22  37  59  85 117 157 196 236 289 349
#
# _framework density 18.802219000000001
#
# number of rings (size 3 to 8) (size 9 to 14) (size 15 to 20)
#    0.429    0.857    6.429    0.857    0.000    2.571 
#    0.000    1.071    0.000    0.000    0.000    3.000 
#    0.000    0.000    0.000    0.000    0.000    0.000 
#
# Total GULP energy -694131.112776 kJ/mol
# GULP energy per Si atom -12395.198442 kJ/mol
# Density = 1.875942 g / cm^3
# Si number density = 18.802219 Si / 1000 Ang^3
#
#
#
# Elastic Constant Matrix: (Units=GPa)
#
#
# Indices 1 2 3 4 5 6 
#
# 1 88.1082 32.4739 51.3286 0.0000 -0.0002 0.0007
# 2 32.4739 88.1068 51.3283 0.0003 0.0001 -0.0010
# 3 51.3286 51.3283 196.9919 0.0000 0.0000 -0.0001
# 4 0.0000 0.0003 0.0000 26.1130 0.0000 -0.0002
# 5 -0.0002 0.0001 0.0000 0.0000 26.1132 0.0002
# 6 0.0007 -0.0010 -0.0001 -0.0002 0.0002 27.8177
#
#
#
# Elastic Compliance Matrix: (Units=1/GPa)
#
#
# Indices 1 2 3 4 5 6 
#
# 1 0.014316 -0.003659 -0.002777 0.000000 0.000000 -0.000001
# 2 -0.003659 0.014316 -0.002777 0.000000 0.000000 0.000001
# 3 -0.002777 -0.002777 0.006523 0.000000 0.000000 0.000000
# 4 0.000000 0.000000 0.000000 0.038295 0.000000 0.000000
# 5 0.000000 0.000000 0.000000 0.000000 0.038295 0.000000
# 6 -0.000001 0.000001 0.000000 0.000000 0.000000 0.035948
#
#
# Mechanical properties :
#
#
# Convention : Reuss Voigt Hill
#
# Bulk Modulus (GPa) = 59.77123 71.49650 65.63386
# Shear Modulus (GPa) = 29.12132 31.88051 30.50092
#
# Velocity S-wave (km/s) = 3.93978 4.12220 4.03202
# Velocity P-wave (km/s) = 7.24943 7.79518 7.52725
#
# Compressibility (1/GPa) = 0.01673046
#
# Stress axis : x y z
#
# Youngs Moduli (GPa) = 69.85256 69.85134 153.29345
#
# Poissons Ratio (x) = 0.25557 0.42567
# Poissons Ratio (y) = 0.25557 0.42568
# Poissons Ratio (z) = 0.19397 0.19397
#
# Static dielectric constant tensor:
#      x y z
#    x 3.232080 -0.000010 0.000000 
#    y -0.000010 3.232070 -0.000010 
#    z 0.000000 -0.000010 3.867650 
# 
# 
# High freq. dielectric constant tensor:
#      x y z
#    x 1.710220 0.000000 0.000000 
#    y 0.000000 1.710230 0.000000 
#    z 0.000000 0.000000 1.761410 
# 
# From -- ./inp_files/5846.got.cif
#   From: 2010.03.12/outbox.cif.g09.slc.cpg/sg193_3_cif.got.tgz:5846.got - 2010.04.01 12:20:39.
