data_PCOD8329604
_publ_section_title
;
Structure prediction by ZEFSAII (Michael W. Deem and Ramdas Pophale) SiO2 
 PCOD8329604
Probable space group: P 6/M C C
;
_chemical_formula_sum "Si O2"
_cell_formula_units_Z 104
_cell_length_a 19.379972
_cell_length_b 19.379972
_cell_length_c 17.355621
_cell_angle_alpha 90.000000
_cell_angle_beta 90.000000
_cell_angle_gamma 120.000000
_cell_volume 5645.170715
_symmetry_space_group_name_H-M "P 6/M C C"
_symmetry_group_IT_number 192
_symmetry_cell_setting 'hexagonal'
loop_
_space_group_symop_operation_xyz
x,y,z
x-y,x,z
-y,x-y,z
-x,-y,z
-x+y,-x,z
y,-x+y,z
x-y,-y,1/2-z
-x,-x+y,1/2-z
y,x,1/2-z
-y,-x,1/2-z
-x+y,y,1/2-z
x,x-y,1/2-z
-x,-y,-z
-x+y,-x,-z
y,-x+y,-z
x,y,-z
x-y,x,-z
-y,x-y,-z
-x+y,y,1/2+z
x,x-y,1/2+z
-y,-x,1/2+z
y,x,1/2+z
x-y,-y,1/2+z
-x,-x+y,1/2+z
loop_
_atom_site_type_symbol
_atom_site_label
_atom_site_fract_x
_atom_site_fract_y
_atom_site_fract_z
Si Si1 0.333334 0.666668 0.656661
Si Si2 0.966150 0.409685 0.166839
Si Si3 0.787240 0.502015 0.331658
Si Si4 0.836622 0.672290 0.657906
Si Si5 0.715445 0.713613 0.090438
O O1 0.333334 0.666667 0.750000
O O2 0.273114 0.578625 0.623075
O O3 0.871098 0.366988 0.174997
O O4 0.000000 0.500000 0.137507
O O5 0.000000 0.406809 0.250000
O O6 0.993349 0.363625 0.108561
O O7 0.748627 0.497254 0.250000
O O8 0.799081 0.581426 0.373899
O O9 0.836532 0.673064 0.750000
O O10 0.787212 0.710137 0.624236
O O11 0.926932 0.721385 0.628606
O O12 0.727052 0.723229 0.000000
#
# Coordination Sequence:
#
# PCOD8329604 Si02
#       5
#     8  24  24  24  24
#     4   9  18  24  45  72 106 131 178 237 301 329
#     4  10  21  32  54  77 108 147 199 246 293 344
#     4   9  18  29  47  77 107 139 181 242 296 334
#     4  10  20  37  60  84 114 146 193 234 282 340
#     4  11  22  37  57  85 116 151 185 234 295 352
#
# _framework density 18.422826000000001
#
# number of rings (size 3 to 8) (size 9 to 14) (size 15 to 20)
#    0.000    2.077    0.000    5.538   12.923    0.462 
#    0.000    0.000    0.000    0.462    0.000    3.231 
#    0.000    0.000    0.000    0.000    0.000    0.000 
#
# Total GULP energy -1289319.824975 kJ/mol
# GULP energy per Si atom -12397.306009 kJ/mol
# Density = 1.838089 g / cm^3
# Si number density = 18.422826 Si / 1000 Ang^3
#
#
#
# Elastic Constant Matrix: (Units=GPa)
#
#
# Indices 1 2 3 4 5 6 
#
# 1 156.1186 90.1170 39.8231 -0.0001 0.0000 0.0000
# 2 90.1170 156.1177 39.8231 0.0000 0.0000 -0.0001
# 3 39.8231 39.8231 81.3688 0.0000 0.0000 0.0000
# 4 -0.0001 0.0000 0.0000 18.7147 0.0000 0.0000
# 5 0.0000 0.0000 0.0000 0.0000 18.7146 0.0000
# 6 0.0000 -0.0001 0.0000 0.0000 0.0000 33.0005
#
#
#
# Elastic Compliance Matrix: (Units=1/GPa)
#
#
# Indices 1 2 3 4 5 6 
#
# 1 0.009988 -0.005163 -0.002361 0.000000 0.000000 0.000000
# 2 -0.005163 0.009988 -0.002361 0.000000 0.000000 0.000000
# 3 -0.002361 -0.002361 0.014601 0.000000 0.000000 0.000000
# 4 0.000000 0.000000 0.000000 0.053434 0.000000 0.000000
# 5 0.000000 0.000000 0.000000 0.000000 0.053434 0.000000
# 6 0.000000 0.000000 0.000000 0.000000 0.000000 0.030303
#
#
# Mechanical properties :
#
#
# Convention : Reuss Voigt Hill
#
# Bulk Modulus (GPa) = 67.54276 81.45905 74.50091
# Shear Modulus (GPa) = 25.45112 29.00876 27.22994
#
# Velocity S-wave (km/s) = 3.72088 3.97244 3.84872
# Velocity P-wave (km/s) = 7.42981 8.08410 7.76385
#
# Compressibility (1/GPa) = 0.01480544
#
# Stress axis : x y z
#
# Youngs Moduli (GPa) = 100.11935 100.11864 68.48776
#
# Poissons Ratio (x) = 0.51693 0.16173
# Poissons Ratio (y) = 0.51693 0.16173
# Poissons Ratio (z) = 0.23642 0.23642
#
# Static dielectric constant tensor:
#      x y z
#    x 3.625230 0.000000 0.000000 
#    y 0.000000 3.625230 0.000000 
#    z 0.000000 0.000000 3.022230 
# 
# 
# High freq. dielectric constant tensor:
#      x y z
#    x 1.723190 0.000000 0.000000 
#    y 0.000000 1.723190 0.000000 
#    z 0.000000 0.000000 1.676140 
# 
# From -- ./inp_files/2852.got.cif
#   From: 2010.03.12/outbox.cif.g09.slc.cpg/sg192_2_cif.got.tgz:2852.got - 2010.04.01 12:16:15.
