data_PCOD8329098
_publ_section_title
;
Structure prediction by ZEFSAII (Michael W. Deem and Ramdas Pophale) SiO2 
 PCOD8329098
Probable space group: P 6/M M M
;
_chemical_formula_sum "Si O2"
_cell_formula_units_Z 144
_cell_length_a 22.506884
_cell_length_b 22.506884
_cell_length_c 19.095652
_cell_angle_alpha 90.000000
_cell_angle_beta 90.000000
_cell_angle_gamma 120.000000
_cell_volume 8377.141830
_symmetry_space_group_name_H-M "P 6/M M M"
_symmetry_group_IT_number 191
_symmetry_cell_setting 'hexagonal'
loop_
_space_group_symop_operation_xyz
x,y,z
x-y,x,z
-y,x-y,z
-x,-y,z
-x+y,-x,z
y,-x+y,z
x-y,-y,-z
-x,-x+y,-z
y,x,-z
-y,-x,-z
-x+y,y,-z
x,x-y,-z
-x,-y,-z
-x+y,-x,-z
y,-x+y,-z
x,y,-z
x-y,x,-z
-y,x-y,-z
-x+y,y,z
x,x-y,z
-y,-x,z
y,x,z
x-y,-y,z
-x,-x+y,z
loop_
_atom_site_type_symbol
_atom_site_label
_atom_site_fract_x
_atom_site_fract_y
_atom_site_fract_z
Si Si1 0.526238 0.192756 0.691066
Si Si2 0.469088 0.391683 0.197637
Si Si3 0.306918 0.387556 0.077151
Si Si4 0.859877 0.279455 0.422603
Si Si5 0.281096 0.076538 0.824746
Si Si6 0.923544 0.710579 0.334622
O O1 0.603876 0.207752 0.690033
O O2 0.526595 0.263298 0.708136
O O3 0.478531 0.134939 0.746922
O O4 0.491083 0.161335 0.616334
O O5 0.537861 0.462140 0.190105
O O6 0.407262 0.407262 0.218495
O O7 0.455274 0.355770 0.121772
O O8 0.342196 0.342196 0.067653
O O9 0.237450 0.343899 0.120996
O O10 0.292146 0.407774 0.000000
O O11 0.888708 0.309952 0.500000
O O12 0.794252 0.205749 0.430139
O O13 0.915329 0.269136 0.379247
O O14 0.245106 0.122553 0.830685
O O15 0.311243 0.082073 0.746757
O O16 0.223014 0.000000 0.843481
O O17 0.865676 0.731351 0.353337
O O18 0.000000 0.775015 0.349921
#
# Coordination Sequence:
#
# PCOD8329098 Si02
#       6
#    24  24  24  24  24  24
#     4  10  20  34  52  72  95 125 162 201 239 283
#     4   9  18  32  49  69  94 124 156 191 233 281
#     4   9  17  28  43  66  94 120 148 186 233 282
#     4   9  18  31  46  67  94 121 151 189 233 278
#     4   9  17  29  45  65  90 121 156 193 234 280
#     4   9  17  30  49  71  96 128 164 200 238 284
#
# _framework density 17.189633000000001
#
# number of rings (size 3 to 8) (size 9 to 14) (size 15 to 20)
#    0.000    2.833    0.000    1.167    0.000    5.333 
#    0.000    1.667    0.000    1.333    0.000    5.833 
#    0.000    1.333    0.000    8.333    0.000    8.667 
#
# Total GULP energy -1784318.215520 kJ/mol
# GULP energy per Si atom -12391.098719 kJ/mol
# Density = 1.715051 g / cm^3
# Si number density = 17.189633 Si / 1000 Ang^3
#
#
#
# Elastic Constant Matrix: (Units=GPa)
#
#
# Indices 1 2 3 4 5 6 
#
# 1 74.6856 43.8805 49.9765 0.0000 0.0000 0.0000
# 2 43.8805 74.6856 49.9765 0.0000 0.0000 0.0000
# 3 49.9765 49.9765 127.2367 0.0000 0.0000 0.0000
# 4 0.0000 0.0000 0.0000 17.2260 0.0000 0.0000
# 5 0.0000 0.0000 0.0000 0.0000 17.2260 0.0000
# 6 0.0000 0.0000 0.0000 0.0000 0.0000 15.4025
#
#
#
# Elastic Compliance Matrix: (Units=1/GPa)
#
#
# Indices 1 2 3 4 5 6 
#
# 1 0.022536 -0.009926 -0.004953 0.000000 0.000000 0.000000
# 2 -0.009926 0.022536 -0.004953 0.000000 0.000000 0.000000
# 3 -0.004953 -0.004953 0.011750 0.000000 0.000000 0.000000
# 4 0.000000 0.000000 0.000000 0.058052 0.000000 0.000000
# 5 0.000000 0.000000 0.000000 0.000000 0.058052 0.000000
# 6 0.000000 0.000000 0.000000 0.000000 0.000000 0.064924
#
#
# Mechanical properties :
#
#
# Convention : Reuss Voigt Hill
#
# Bulk Modulus (GPa) = 58.28251 62.69719 60.48985
# Shear Modulus (GPa) = 17.65333 18.82253 18.23793
#
# Velocity S-wave (km/s) = 3.20812 3.31266 3.26081
# Velocity P-wave (km/s) = 6.90666 7.15434 7.03159
#
# Compressibility (1/GPa) = 0.01715781
#
# Stress axis : x y z
#
# Youngs Moduli (GPa) = 44.37391 44.37391 85.10584
#
# Poissons Ratio (x) = 0.44047 0.42151
# Poissons Ratio (y) = 0.44047 0.42151
# Poissons Ratio (z) = 0.21977 0.21977
#
# Static dielectric constant tensor:
#      x y z
#    x 3.130920 0.000000 0.000000 
#    y 0.000000 3.130920 0.000000 
#    z 0.000000 0.000000 3.591730 
# 
# 
# High freq. dielectric constant tensor:
#      x y z
#    x 1.648590 0.000000 0.000000 
#    y 0.000000 1.648590 0.000000 
#    z 0.000000 0.000000 1.664900 
# 
# From -- ./inp_files/6564.got.cif
#   From: 2010.03.12/outbox.cif.g09.slc.cpg/sg191_4_cif.got.tgz:6564.got - 2010.04.01 12:09:02.
