data_PCOD8329834
_publ_section_title
;
Structure prediction by ZEFSAII (Michael W. Deem and Ramdas Pophale) SiO2 
 PCOD8329834
Probable space group: P 63/M C M
;
_chemical_formula_sum "Si O2"
_cell_formula_units_Z 120
_cell_length_a 18.315136
_cell_length_b 18.315136
_cell_length_c 22.698790
_cell_angle_alpha 90.000000
_cell_angle_beta 90.000000
_cell_angle_gamma 120.000000
_cell_volume 6594.071234
_symmetry_space_group_name_H-M "P 63/M C M"
_symmetry_group_IT_number 193
_symmetry_cell_setting 'hexagonal'
loop_
_space_group_symop_operation_xyz
x,y,z
x-y,x,1/2+z
-y,x-y,z
-x,-y,1/2+z
-x+y,-x,z
y,-x+y,1/2+z
x-y,-y,1/2-z
-x,-x+y,1/2-z
y,x,1/2-z
-y,-x,-z
-x+y,y,-z
x,x-y,-z
-x,-y,-z
-x+y,-x,1/2-z
y,-x+y,-z
x,y,1/2-z
x-y,x,-z
-y,x-y,1/2-z
-x+y,y,1/2+z
x,x-y,1/2+z
-y,-x,1/2+z
y,x,z
x-y,-y,z
-x,-x+y,z
loop_
_atom_site_type_symbol
_atom_site_label
_atom_site_fract_x
_atom_site_fract_y
_atom_site_fract_z
Si Si1 0.227635 0.824518 0.182431
Si Si2 0.902552 0.507145 0.868194
Si Si3 0.500308 0.664675 0.494244
Si Si4 0.562328 0.657607 0.883481
Si Si5 0.909913 0.909913 0.319188
Si Si6 0.000000 0.248584 0.320298
O O1 0.197704 0.807252 0.250000
O O2 0.321426 0.837653 0.175598
O O3 0.158731 0.747962 0.143956
O O4 0.241013 0.913303 0.157227
O O5 0.885700 0.531227 0.933199
O O6 0.881748 0.411506 0.859707
O O7 0.000000 0.570922 0.851596
O O8 0.401088 0.598912 0.500000
O O9 0.514651 0.757326 0.500000
O O10 0.555637 0.656034 0.545864
O O11 0.631892 0.631892 0.865970
O O12 0.895359 0.895359 0.250000
O O13 0.831955 0.831955 0.350036
O O14 0.000000 0.916924 0.335920
O O15 0.000000 0.250171 0.250000
#
# Coordination Sequence:
#
# PCOD8329834 Si02
#       6
#    24  24  24  24  12  12
#     4  11  22  36  54  79 109 150 190 221 265 324
#     4  10  20  37  59  79 107 146 183 227 275 328
#     4  10  18  32  57  85 109 135 175 229 285 333
#     4  10  22  38  56  82 112 141 181 229 281 328
#     4   7  12  24  44  70  97 125 161 213 273 308
#     4   9  18  32  52  76 104 139 187 227 258 318
#
# _framework density 18.198166000000001
#
# number of rings (size 3 to 8) (size 9 to 14) (size 15 to 20)
#    0.200    2.000    3.000    0.800    0.000    4.400 
#    1.200    4.000    0.000    0.000    0.000    0.000 
#    0.000    0.000    0.000    2.900    0.000    1.200 
#
# Total GULP energy -1486902.938950 kJ/mol
# GULP energy per Si atom -12390.857825 kJ/mol
# Density = 1.815675 g / cm^3
# Si number density = 18.198166 Si / 1000 Ang^3
#
#
#
# Elastic Constant Matrix: (Units=GPa)
#
#
# Indices 1 2 3 4 5 6 
#
# 1 111.5892 58.2019 24.1977 0.0000 0.0000 0.0000
# 2 58.2019 111.5892 24.1977 0.0000 0.0000 0.0000
# 3 24.1977 24.1977 48.2371 0.0000 0.0000 0.0000
# 4 0.0000 0.0000 0.0000 21.2475 0.0000 0.0000
# 5 0.0000 0.0000 0.0000 0.0000 21.2475 0.0000
# 6 0.0000 0.0000 0.0000 0.0000 0.0000 26.6936
#
#
#
# Elastic Compliance Matrix: (Units=1/GPa)
#
#
# Indices 1 2 3 4 5 6 
#
# 1 0.012802 -0.005929 -0.003447 0.000000 0.000000 0.000000
# 2 -0.005929 0.012802 -0.003447 0.000000 0.000000 0.000000
# 3 -0.003447 -0.003447 0.024190 0.000000 0.000000 0.000000
# 4 0.000000 0.000000 0.000000 0.047064 0.000000 0.000000
# 5 0.000000 0.000000 0.000000 0.000000 0.047064 0.000000
# 6 0.000000 0.000000 0.000000 0.000000 0.000000 0.037462
#
#
# Mechanical properties :
#
#
# Convention : Reuss Voigt Hill
#
# Bulk Modulus (GPa) = 41.41728 53.84557 47.63143
# Shear Modulus (GPa) = 23.24715 24.82562 24.03639
#
# Velocity S-wave (km/s) = 3.57801 3.69749 3.63824
# Velocity P-wave (km/s) = 6.31490 6.91963 6.62417
#
# Compressibility (1/GPa) = 0.02414451
#
# Stress axis : x y z
#
# Youngs Moduli (GPa) = 78.11513 78.11513 41.34007
#
# Poissons Ratio (x) = 0.46318 0.14251
# Poissons Ratio (y) = 0.46318 0.14251
# Poissons Ratio (z) = 0.26929 0.26929
#
# Static dielectric constant tensor:
#      x y z
#    x 3.457340 0.000000 0.000000 
#    y 0.000000 3.457340 0.000000 
#    z 0.000000 0.000000 3.121570 
# 
# 
# High freq. dielectric constant tensor:
#      x y z
#    x 1.706190 0.000000 0.000000 
#    y 0.000000 1.706190 0.000000 
#    z 0.000000 0.000000 1.678360 
# 
# From -- ./inp_files/7389.got.cif
#   From: 2010.03.12/outbox.cif.g09.slc.cpg/sg193_4_cif.got.tgz:7389.got - 2010.04.01 12:20:39.
