data_PCOD8329689
_publ_section_title
;
Structure prediction by ZEFSAII (Michael W. Deem and Ramdas Pophale) SiO2 
 PCOD8329689
Probable space group: P 6/M C C
;
_chemical_formula_sum "Si O2"
_cell_formula_units_Z 168
_cell_length_a 19.063252
_cell_length_b 19.063252
_cell_length_c 25.769329
_cell_angle_alpha 90.000000
_cell_angle_beta 90.000000
_cell_angle_gamma 120.000000
_cell_volume 8110.128208
_symmetry_space_group_name_H-M "P 6/M C C"
_symmetry_group_IT_number 192
_symmetry_cell_setting 'hexagonal'
loop_
_space_group_symop_operation_xyz
x,y,z
x-y,x,z
-y,x-y,z
-x,-y,z
-x+y,-x,z
y,-x+y,z
x-y,-y,1/2-z
-x,-x+y,1/2-z
y,x,1/2-z
-y,-x,1/2-z
-x+y,y,1/2-z
x,x-y,1/2-z
-x,-y,-z
-x+y,-x,-z
y,-x+y,-z
x,y,-z
x-y,x,-z
-y,x-y,-z
-x+y,y,1/2+z
x,x-y,1/2+z
-y,-x,1/2+z
y,x,1/2+z
x-y,-y,1/2+z
-x,-x+y,1/2+z
loop_
_atom_site_type_symbol
_atom_site_label
_atom_site_fract_x
_atom_site_fract_y
_atom_site_fract_z
Si Si1 0.153400 0.728582 0.560343
Si Si2 0.447945 0.305436 0.379390
Si Si3 0.024379 0.173338 0.558335
Si Si4 0.821710 0.331882 0.234131
Si Si5 0.090180 0.549271 0.439046
Si Si6 0.013925 0.296286 0.118841
Si Si7 0.756644 0.088156 0.227109
O O1 0.178286 0.748059 0.500000
O O2 0.217559 0.797688 0.597701
O O3 0.141373 0.642421 0.579093
O O4 0.066500 0.721997 0.568604
O O5 0.499327 0.323598 0.327437
O O6 0.506187 0.366349 0.422853
O O7 0.372992 0.319046 0.366139
O O8 0.030409 0.207374 0.500000
O O9 0.035233 0.238347 0.601582
O O10 0.093018 0.151883 0.568404
O O11 0.729427 0.270574 0.250000
O O12 0.846378 0.423189 0.250000
O O13 0.883583 0.308731 0.261668
O O14 0.081229 0.547581 0.500000
O O15 0.000000 0.500000 0.413910
O O16 0.077670 0.316400 0.165553
O O17 0.844369 0.155632 0.250000
O O18 0.729374 0.000000 0.250000
#
# Coordination Sequence:
#
# PCOD8329689 Si02
#       7
#    24  24  24  24  24  24  24
#     4  11  24  42  66  96 135 175 216 269 329 400
#     4  12  25  42  69  96 129 173 218 275 330 391
#     4  10  22  39  62  94 132 171 212 261 324 396
#     4  11  26  46  69  97 131 170 220 279 338 398
#     4  10  22  42  65  94 132 174 217 264 323 393
#     4  12  24  40  66  98 127 168 219 271 330 388
#     4  11  25  46  66  96 134 173 220 274 333 396
#
# _framework density 20.714839000000001
#
# number of rings (size 3 to 8) (size 9 to 14) (size 15 to 20)
#    0.000    1.000    2.857    3.714    6.000    3.714 
#    0.857    0.000    0.000    0.143    0.000    0.000 
#    0.000    0.000    0.000    0.000    0.000    0.000 
#
# Total GULP energy -2083326.106880 kJ/mol
# GULP energy per Si atom -12400.750636 kJ/mol
# Density = 2.066769 g / cm^3
# Si number density = 20.714839 Si / 1000 Ang^3
#
#
#
# Elastic Constant Matrix: (Units=GPa)
#
#
# Indices 1 2 3 4 5 6 
#
# 1 95.6711 51.6605 37.4718 0.0000 0.0000 0.0000
# 2 51.6605 95.6711 37.4718 0.0000 0.0000 0.0000
# 3 37.4718 37.4718 58.8163 0.0000 0.0000 0.0000
# 4 0.0000 0.0000 0.0000 30.3499 0.0000 0.0000
# 5 0.0000 0.0000 0.0000 0.0000 30.3499 0.0000
# 6 0.0000 0.0000 0.0000 0.0000 0.0000 22.0053
#
#
#
# Elastic Compliance Matrix: (Units=1/GPa)
#
#
# Indices 1 2 3 4 5 6 
#
# 1 0.016382 -0.006340 -0.006398 0.000000 0.000000 0.000000
# 2 -0.006340 0.016382 -0.006398 0.000000 0.000000 0.000000
# 3 -0.006398 -0.006398 0.025154 0.000000 0.000000 0.000000
# 4 0.000000 0.000000 0.000000 0.032949 0.000000 0.000000
# 5 0.000000 0.000000 0.000000 0.000000 0.032949 0.000000
# 6 0.000000 0.000000 0.000000 0.000000 0.000000 0.045444
#
#
# Mechanical properties :
#
#
# Convention : Reuss Voigt Hill
#
# Bulk Modulus (GPa) = 50.89833 55.92963 53.41398
# Shear Modulus (GPa) = 23.35595 24.77797 24.06696
#
# Velocity S-wave (km/s) = 3.36147 3.46229 3.41225
# Velocity P-wave (km/s) = 6.30002 6.56061 6.43164
#
# Compressibility (1/GPa) = 0.01964701
#
# Stress axis : x y z
#
# Youngs Moduli (GPa) = 61.04362 61.04362 39.75541
#
# Poissons Ratio (x) = 0.38702 0.25434
# Poissons Ratio (y) = 0.38702 0.25434
# Poissons Ratio (z) = 0.39053 0.39053
#
# Static dielectric constant tensor:
#      x y z
#    x 3.859760 0.000000 0.000000 
#    y 0.000000 3.859760 0.000000 
#    z 0.000000 0.000000 3.764840 
# 
# 
# High freq. dielectric constant tensor:
#      x y z
#    x 1.814810 0.000000 0.000000 
#    y 0.000000 1.814810 0.000000 
#    z 0.000000 0.000000 1.812980 
# 
# From -- ./inp_files/7186.got.cif
#   From: 2010.03.12/outbox.cif.g09.slc.cpg/sg192_4_cif.got.tgz:7186.got - 2010.04.01 12:16:15.
