data_PCOD8329114
_publ_section_title
;
Structure prediction by ZEFSAII (Michael W. Deem and Ramdas Pophale) SiO2 
 PCOD8329114
Probable space group: P 6/M M M
;
_chemical_formula_sum "Si O2"
_cell_formula_units_Z 100
_cell_length_a 27.750502
_cell_length_b 27.750502
_cell_length_c 7.809915
_cell_angle_alpha 90.000000
_cell_angle_beta 90.000000
_cell_angle_gamma 120.000000
_cell_volume 5208.571455
_symmetry_space_group_name_H-M "P 6/M M M"
_symmetry_group_IT_number 191
_symmetry_cell_setting 'hexagonal'
loop_
_space_group_symop_operation_xyz
x,y,z
x-y,x,z
-y,x-y,z
-x,-y,z
-x+y,-x,z
y,-x+y,z
x-y,-y,-z
-x,-x+y,-z
y,x,-z
-y,-x,-z
-x+y,y,-z
x,x-y,-z
-x,-y,-z
-x+y,-x,-z
y,-x+y,-z
x,y,-z
x-y,x,-z
-y,x-y,-z
-x+y,y,z
x,x-y,z
-y,-x,z
y,x,z
x-y,-y,z
-x,-x+y,z
loop_
_atom_site_type_symbol
_atom_site_label
_atom_site_fract_x
_atom_site_fract_y
_atom_site_fract_z
Si Si1 0.729448 0.270553 0.804148
Si Si2 0.475192 0.842989 0.698403
Si Si3 0.666668 0.333334 0.704678
Si Si4 0.590024 0.651840 0.296631
Si Si5 0.236587 0.065398 0.000000
Si Si6 0.694678 0.760379 0.689702
O O1 0.789674 0.306816 0.719892
O O2 0.696900 0.303101 0.779863
O O3 0.738019 0.261982 0.000000
O O4 0.473672 0.854083 0.500000
O O5 0.417733 0.835465 0.781776
O O6 0.529076 0.896112 0.781176
O O7 0.666667 0.333334 0.500000
O O8 0.587369 0.646436 0.500000
O O9 0.612136 0.612136 0.219165
O O10 0.631739 0.716789 0.249708
O O11 0.275225 0.083112 0.168540
O O12 0.207447 0.103724 0.000000
O O13 0.189774 0.000000 0.000000
O O14 0.695633 0.785844 0.500000
O O15 0.725525 0.725525 0.674493
#
# Coordination Sequence:
#
# PCOD8329114 Si02
#       6
#    12  24   4  24  12  24
#     4  12  24  38  54  74 100 131 165 210 262 312
#     4  10  20  34  54  77 102 134 171 212 256 308
#     4  12  22  38  64  78  85 119 172 216 268 323
#     4   8  15  31  54  78 105 137 172 211 257 306
#     4  10  20  34  54  81 109 141 181 221 261 311
#     4   8  15  31  53  75 104 141 177 215 260 310
#
# _framework density 19.199120000000001
#
# number of rings (size 3 to 8) (size 9 to 14) (size 15 to 20)
#    0.000    2.640    1.200    2.880    0.000    0.960 
#    4.320    2.400    0.000    0.120    0.000    1.680 
#    0.000    0.000    0.000    6.000    0.000    0.000 
#
# Total GULP energy -1239035.299552 kJ/mol
# GULP energy per Si atom -12390.352996 kJ/mol
# Density = 1.915542 g / cm^3
# Si number density = 19.199120 Si / 1000 Ang^3
#
#
#
# Elastic Constant Matrix: (Units=GPa)
#
#
# Indices 1 2 3 4 5 6 
#
# 1 128.9107 54.7262 20.5585 -0.0001 0.0000 0.0004
# 2 54.7262 128.9111 20.5591 0.0006 0.0000 -0.0004
# 3 20.5585 20.5591 59.9402 -0.0002 0.0000 0.0000
# 4 -0.0001 0.0006 -0.0002 0.5885 0.0002 0.0000
# 5 0.0000 0.0000 0.0000 0.0002 0.5920 0.0003
# 6 0.0004 -0.0004 0.0000 0.0000 0.0003 37.0928
#
#
#
# Elastic Compliance Matrix: (Units=1/GPa)
#
#
# Indices 1 2 3 4 5 6 
#
# 1 0.009689 -0.003791 -0.002023 0.000004 0.000000 0.000000
# 2 -0.003791 0.009689 -0.002023 -0.000011 0.000000 0.000000
# 3 -0.002023 -0.002023 0.018071 0.000009 0.000000 0.000000
# 4 0.000004 -0.000011 0.000009 1.699376 -0.000482 0.000000
# 5 0.000000 0.000000 0.000000 -0.000482 1.689231 -0.000015
# 6 0.000000 0.000000 0.000000 0.000000 -0.000015 0.026959
#
#
# Mechanical properties :
#
#
# Convention : Reuss Voigt Hill
#
# Bulk Modulus (GPa) = 45.92286 56.60551 51.26419
# Shear Modulus (GPa) = 1.43846 22.44920 11.94383
#
# Velocity S-wave (km/s) = 0.86652 3.42319 2.49690
# Velocity P-wave (km/s) = 4.99723 6.72099 5.92216
#
# Compressibility (1/GPa) = 0.02177565
#
# Stress axis : x y z
#
# Youngs Moduli (GPa) = 103.20780 103.20779 55.33695
#
# Poissons Ratio (x) = 0.39123 0.11195
# Poissons Ratio (y) = 0.39123 0.11196
# Poissons Ratio (z) = 0.20880 0.20881
#
# Static dielectric constant tensor:
#      x y z
#    x 3.566180 0.000000 0.000000 
#    y 0.000000 3.566170 0.000000 
#    z 0.000000 0.000000 3.701600 
# 
# 
# High freq. dielectric constant tensor:
#      x y z
#    x 1.731130 0.000000 0.000000 
#    y 0.000000 1.731130 0.000000 
#    z 0.000000 0.000000 1.732980 
# 
# From -- ./inp_files/1450.got.cif
#   From: 2010.03.12/outbox.cif.g09.slc.cpg/sg191_1_cif.got.tgz:1450.got - 2010.04.01 12:09:02.
