data_PCOD8329913
_publ_section_title
;
Structure prediction by ZEFSAII (Michael W. Deem and Ramdas Pophale) SiO2 
 PCOD8329913
Probable space group: P 63/M C M
;
_chemical_formula_sum "Si O2"
_cell_formula_units_Z 80
_cell_length_a 18.618721
_cell_length_b 18.618721
_cell_length_c 17.772702
_cell_angle_alpha 90.000000
_cell_angle_beta 90.000000
_cell_angle_gamma 120.000000
_cell_volume 5335.606328
_symmetry_space_group_name_H-M "P 63/M C M"
_symmetry_group_IT_number 193
_symmetry_cell_setting 'hexagonal'
loop_
_space_group_symop_operation_xyz
x,y,z
x-y,x,1/2+z
-y,x-y,z
-x,-y,1/2+z
-x+y,-x,z
y,-x+y,1/2+z
x-y,-y,1/2-z
-x,-x+y,1/2-z
y,x,1/2-z
-y,-x,-z
-x+y,y,-z
x,x-y,-z
-x,-y,-z
-x+y,-x,1/2-z
y,-x+y,-z
x,y,1/2-z
x-y,x,-z
-y,x-y,1/2-z
-x+y,y,1/2+z
x,x-y,1/2+z
-y,-x,1/2+z
y,x,z
x-y,-y,z
-x,-x+y,z
loop_
_atom_site_type_symbol
_atom_site_label
_atom_site_fract_x
_atom_site_fract_y
_atom_site_fract_z
Si Si1 0.515914 0.092855 0.080449
Si Si2 0.333334 0.666668 0.339233
Si Si3 0.338078 0.907752 0.837575
Si Si4 0.758322 0.253491 0.412035
O O1 0.579804 0.096085 0.142167
O O2 0.478449 0.150140 0.108347
O O3 0.438590 0.000000 0.071403
O O4 0.562236 0.124472 0.000000
O O5 0.333334 0.666668 0.250000
O O6 0.265547 0.688232 0.370463
O O7 0.320004 0.889995 0.750000
O O8 0.258299 0.836539 0.883180
O O9 0.354466 0.000000 0.858432
O O10 0.746590 0.253411 0.500000
#
# Coordination Sequence:
#
# PCOD8329913 Si02
#       4
#    24   8  24  24
#     4  10  19  32  48  66  90 117 149 191 237 278
#     4  12  22  29  40  63  88 113 148 192 232 269
#     4  10  21  34  46  62  87 118 150 186 231 280
#     4  12  20  30  46  65  87 115 153 193 231 272
#
# _framework density 14.993608999999999
#
# number of rings (size 3 to 8) (size 9 to 14) (size 15 to 20)
#    0.000    1.200    6.000    1.800    0.000    1.200 
#    0.000    0.000    0.000    0.000    0.000    0.000 
#    0.000    0.000    0.000    0.900    0.000    6.000 
#
# Total GULP energy -991735.969873 kJ/mol
# GULP energy per Si atom -12396.699623 kJ/mol
# Density = 1.495948 g / cm^3
# Si number density = 14.993609 Si / 1000 Ang^3
#
#
#
# Elastic Constant Matrix: (Units=GPa)
#
#
# Indices 1 2 3 4 5 6 
#
# 1 79.1255 34.1137 26.1996 0.0000 0.0000 0.0000
# 2 34.1137 79.1251 26.2000 0.0000 0.0000 0.0000
# 3 26.1996 26.2000 91.3438 0.0002 0.0001 0.0001
# 4 0.0000 0.0000 0.0002 15.1881 0.0000 0.0000
# 5 0.0000 0.0000 0.0001 0.0000 15.1883 0.0000
# 6 0.0000 0.0000 0.0001 0.0000 0.0000 22.5062
#
#
#
# Elastic Compliance Matrix: (Units=1/GPa)
#
#
# Indices 1 2 3 4 5 6 
#
# 1 0.016199 -0.006017 -0.002920 0.000000 0.000000 0.000000
# 2 -0.006017 0.016199 -0.002921 0.000000 0.000000 0.000000
# 3 -0.002920 -0.002921 0.012623 0.000000 0.000000 0.000000
# 4 0.000000 0.000000 0.000000 0.065841 0.000000 0.000000
# 5 0.000000 0.000000 0.000000 0.000000 0.065840 0.000000
# 6 0.000000 0.000000 0.000000 0.000000 0.000000 0.044432
#
#
# Mechanical properties :
#
#
# Convention : Reuss Voigt Hill
#
# Bulk Modulus (GPa) = 46.93636 46.95791 46.94713
# Shear Modulus (GPa) = 19.84493 21.44859 20.64676
#
# Velocity S-wave (km/s) = 3.64202 3.78632 3.71487
# Velocity P-wave (km/s) = 7.00414 7.10644 7.05548
#
# Compressibility (1/GPa) = 0.02130544
#
# Stress axis : x y z
#
# Youngs Moduli (GPa) = 61.73092 61.73040 79.22024
#
# Poissons Ratio (x) = 0.37144 0.23136
# Poissons Ratio (y) = 0.37144 0.23137
# Poissons Ratio (z) = 0.18028 0.18029
#
# Static dielectric constant tensor:
#      x y z
#    x 2.957280 0.000000 0.000000 
#    y 0.000000 2.957280 0.000000 
#    z 0.000000 0.000000 2.939380 
# 
# 
# High freq. dielectric constant tensor:
#      x y z
#    x 1.544930 0.000000 0.000000 
#    y 0.000000 1.544930 0.000000 
#    z 0.000000 0.000000 1.586750 
# 
# From -- ./inp_files/3480.got.cif
#   From: 2010.03.12/outbox.cif.g09.slc.cpg/sg193_2_cif.got.tgz:3480.got - 2010.04.01 12:20:39.
