data_PCOD8329385
_publ_section_title
;
Structure prediction by ZEFSAII (Michael W. Deem and Ramdas Pophale) SiO2 
 PCOD8329385
Probable space group: P 6/M C C
;
_chemical_formula_sum "Si O2"
_cell_formula_units_Z 192
_cell_length_a 30.963898
_cell_length_b 30.963898
_cell_length_c 15.231722
_cell_angle_alpha 90.000000
_cell_angle_beta 90.000000
_cell_angle_gamma 120.000000
_cell_volume 12647.098256
_symmetry_space_group_name_H-M "P 6/M C C"
_symmetry_group_IT_number 192
_symmetry_cell_setting 'hexagonal'
loop_
_space_group_symop_operation_xyz
x,y,z
x-y,x,z
-y,x-y,z
-x,-y,z
-x+y,-x,z
y,-x+y,z
x-y,-y,1/2-z
-x,-x+y,1/2-z
y,x,1/2-z
-y,-x,1/2-z
-x+y,y,1/2-z
x,x-y,1/2-z
-x,-y,-z
-x+y,-x,-z
y,-x+y,-z
x,y,-z
x-y,x,-z
-y,x-y,-z
-x+y,y,1/2+z
x,x-y,1/2+z
-y,-x,1/2+z
y,x,1/2+z
x-y,-y,1/2+z
-x,-x+y,1/2+z
loop_
_atom_site_type_symbol
_atom_site_label
_atom_site_fract_x
_atom_site_fract_y
_atom_site_fract_z
Si Si1 0.487972 0.877643 0.099716
Si Si2 0.057520 0.337956 0.750000
Si Si3 0.529749 0.716652 0.352329
Si Si4 0.641308 0.869821 0.598696
Si Si5 0.771486 0.641308 0.901304
Si Si6 0.383189 0.943080 0.750000
Si Si7 0.813097 0.529749 0.147671
Si Si8 0.389672 0.512028 0.599716
O O1 0.489092 0.826257 0.110606
O O2 0.528841 0.919446 0.162070
O O3 0.433072 0.866144 0.126786
O O4 0.500601 0.897229 0.000000
O O5 0.083538 0.330963 0.836164
O O6 0.083538 0.330963 0.663836
O O7 0.063234 0.392122 0.750000
O O8 0.000000 0.294892 0.750000
O O9 0.581922 0.734936 0.400527
O O10 0.539262 0.712800 0.250000
O O11 0.509331 0.754666 0.369848
O O12 0.660294 0.888562 0.500000
O O13 0.653595 0.826798 0.627330
O O14 0.581922 0.846986 0.599473
O O15 0.771732 0.660294 0.000000
O O16 0.390605 0.919446 0.837930
O O17 0.426108 0.000000 0.750000
O O18 0.826257 0.489092 0.110606
O O19 0.396627 0.499399 0.500000
#
# Coordination Sequence:
#
# PCOD8329385 Si02
#       8
#    24  24  24  24  24  24  24  24
#     4  11  22  35  52  71  90 115 149 183 217 266
#     4  11  21  32  47  69  98 125 149 185 232 279
#     4  10  18  31  52  73  91 111 139 177 221 267
#     4  10  18  30  50  70  90 118 153 192 226 262
#     4  10  18  30  50  70  90 118 153 192 226 262
#     4  11  23  37  50  64  91 125 151 185 224 261
#     4  10  18  31  52  73  91 111 139 177 221 267
#     4  11  22  35  52  71  90 115 149 183 217 266
#
# _framework density 15.181348
#
# number of rings (size 3 to 8) (size 9 to 14) (size 15 to 20)
#    0.000    1.500    5.000    1.500    0.000    3.500 
#    0.000    3.750    0.000    0.500    0.000    0.000 
#    0.000    0.000    0.000    0.000    0.000    0.000 
#
# Total GULP energy -2380870.320807 kJ/mol
# GULP energy per Si atom -12400.366254 kJ/mol
# Density = 1.514679 g / cm^3
# Si number density = 15.181348 Si / 1000 Ang^3
#
#
#
# Elastic Constant Matrix: (Units=GPa)
#
#
# Indices 1 2 3 4 5 6 
#
# 1 86.9113 49.5236 44.8076 0.0000 0.0000 0.0000
# 2 49.5236 86.9113 44.8076 0.0000 0.0000 0.0000
# 3 44.8076 44.8076 101.0693 0.0000 0.0000 0.0000
# 4 0.0000 0.0000 0.0000 16.5852 0.0000 0.0000
# 5 0.0000 0.0000 0.0000 0.0000 16.5852 0.0000
# 6 0.0000 0.0000 0.0000 0.0000 0.0000 18.6938
#
#
#
# Elastic Compliance Matrix: (Units=1/GPa)
#
#
# Indices 1 2 3 4 5 6 
#
# 1 0.018544 -0.008203 -0.004584 0.000000 0.000000 0.000000
# 2 -0.008203 0.018544 -0.004584 0.000000 0.000000 0.000000
# 3 -0.004584 -0.004584 0.013959 0.000000 0.000000 0.000000
# 4 0.000000 0.000000 0.000000 0.060295 0.000000 0.000000
# 5 0.000000 0.000000 0.000000 0.000000 0.060295 0.000000
# 6 0.000000 0.000000 0.000000 0.000000 0.000000 0.053494
#
#
# Mechanical properties :
#
#
# Convention : Reuss Voigt Hill
#
# Bulk Modulus (GPa) = 61.33894 61.46327 61.40110
# Shear Modulus (GPa) = 18.84604 19.42304 19.13454
#
# Velocity S-wave (km/s) = 3.52717 3.58075 3.55406
# Velocity P-wave (km/s) = 7.55511 7.59405 7.57461
#
# Compressibility (1/GPa) = 0.01630286
#
# Stress axis : x y z
#
# Youngs Moduli (GPa) = 53.92656 53.92656 71.63814
#
# Poissons Ratio (x) = 0.44236 0.32842
# Poissons Ratio (y) = 0.44236 0.32842
# Poissons Ratio (z) = 0.24722 0.24722
#
# Static dielectric constant tensor:
#      x y z
#    x 2.862740 0.000000 0.000000 
#    y 0.000000 2.862740 0.000000 
#    z 0.000000 0.000000 3.099730 
# 
# 
# High freq. dielectric constant tensor:
#      x y z
#    x 1.553080 0.000000 0.000000 
#    y 0.000000 1.553080 0.000000 
#    z 0.000000 0.000000 1.603900 
# 
# From -- ./inp_files/3589.got.cif
#   From: 2010.03.12/outbox.cif.g09.slc.cpg/sg192_2_cif.got.tgz:3589.got - 2010.04.01 12:16:15.
