data_PCOD8329581
_publ_section_title
;
Structure prediction by ZEFSAII (Michael W. Deem and Ramdas Pophale) SiO2 
 PCOD8329581
Probable space group: P 6/M C C
;
_chemical_formula_sum "Si O2"
_cell_formula_units_Z 128
_cell_length_a 20.737397
_cell_length_b 20.737397
_cell_length_c 17.872154
_cell_angle_alpha 90.000000
_cell_angle_beta 90.000000
_cell_angle_gamma 120.000000
_cell_volume 6656.041385
_symmetry_space_group_name_H-M "P 6/M C C"
_symmetry_group_IT_number 192
_symmetry_cell_setting 'hexagonal'
loop_
_space_group_symop_operation_xyz
x,y,z
x-y,x,z
-y,x-y,z
-x,-y,z
-x+y,-x,z
y,-x+y,z
x-y,-y,1/2-z
-x,-x+y,1/2-z
y,x,1/2-z
-y,-x,1/2-z
-x+y,y,1/2-z
x,x-y,1/2-z
-x,-y,-z
-x+y,-x,-z
y,-x+y,-z
x,y,-z
x-y,x,-z
-y,x-y,-z
-x+y,y,1/2+z
x,x-y,1/2+z
-y,-x,1/2+z
y,x,1/2+z
x-y,-y,1/2+z
-x,-x+y,1/2+z
loop_
_atom_site_type_symbol
_atom_site_label
_atom_site_fract_x
_atom_site_fract_y
_atom_site_fract_z
Si Si1 0.709179 0.710682 0.338575
Si Si2 0.830630 0.418846 0.588438
Si Si3 0.333334 0.666668 0.910132
Si Si4 0.002161 0.145473 0.160916
Si Si5 0.570027 0.704745 0.087903
Si Si6 0.858298 0.574970 0.587899
O O1 0.705602 0.705602 0.250000
O O2 0.785303 0.780147 0.367914
O O3 0.706539 0.637716 0.369495
O O4 0.644135 0.724463 0.366677
O O5 0.823235 0.413772 0.500000
O O6 0.748829 0.377697 0.623450
O O7 0.870986 0.373133 0.614381
O O8 0.868926 0.505226 0.612675
O O9 0.333334 0.666668 0.000000
O O10 0.074145 0.145058 0.128512
O O11 0.000000 0.142108 0.250000
O O12 0.560567 0.775847 0.108156
O O13 0.583270 0.703510 0.000000
O O14 0.873231 0.590394 0.500000
#
# Coordination Sequence:
#
# PCOD8329581 Si02
#       6
#    24  24   8  24  24  24
#     4  11  23  37  52  74 113 156 183 208 256 329
#     4   9  16  29  54  85 110 132 170 230 287 327
#     4   9  12  24  51  84 109 128 166 225 289 332
#     4   9  17  31  53  78 100 126 167 218 264 304
#     4  10  20  35  57  83 108 137 178 228 278 326
#     4  10  20  35  57  83 108 137 178 228 278 326
#
# _framework density 19.230649
#
# number of rings (size 3 to 8) (size 9 to 14) (size 15 to 20)
#    0.000    2.250    1.875    1.875    0.000    3.750 
#    0.000    4.688    0.000    0.000    0.000    0.000 
#    0.000    9.000    0.000    0.000    0.000    0.000 
#
# Total GULP energy -1586577.139336 kJ/mol
# GULP energy per Si atom -12395.133901 kJ/mol
# Density = 1.918688 g / cm^3
# Si number density = 19.230649 Si / 1000 Ang^3
#
#
#
# Elastic Constant Matrix: (Units=GPa)
#
#
# Indices 1 2 3 4 5 6 
#
# 1 78.4319 0.1591 5.7298 0.0003 0.0000 0.0008
# 2 0.1591 78.4351 5.7303 0.0003 0.0000 0.0008
# 3 5.7298 5.7303 23.7719 0.0001 0.0002 0.0002
# 4 0.0003 0.0003 0.0001 16.2554 0.0007 0.0000
# 5 0.0000 0.0000 0.0002 0.0007 16.2536 0.0000
# 6 0.0008 0.0008 0.0002 0.0000 0.0000 39.1371
#
#
#
# Elastic Compliance Matrix: (Units=1/GPa)
#
#
# Indices 1 2 3 4 5 6 
#
# 1 0.012982 0.000206 -0.003179 0.000000 0.000000 0.000000
# 2 0.000206 0.012981 -0.003179 0.000000 0.000000 0.000000
# 3 -0.003179 -0.003179 0.043599 0.000000 0.000000 0.000000
# 4 0.000000 0.000000 0.000000 0.061518 -0.000003 0.000000
# 5 0.000000 0.000000 0.000000 -0.000003 0.061525 0.000000
# 6 0.000000 0.000000 0.000000 0.000000 0.000000 0.025551
#
#
# Mechanical properties :
#
#
# Convention : Reuss Voigt Hill
#
# Bulk Modulus (GPa) = 17.46457 22.65302 20.05879
# Shear Modulus (GPa) = 20.03645 25.59721 22.81683
#
# Velocity S-wave (km/s) = 3.23135 3.65233 3.44827
# Velocity P-wave (km/s) = 4.79828 5.43978 5.12907
#
# Compressibility (1/GPa) = 0.05725878
#
# Stress axis : x y z
#
# Youngs Moduli (GPa) = 77.03144 77.03447 22.93635
#
# Poissons Ratio (x) = -0.01586 0.07291
# Poissons Ratio (y) = -0.01586 0.07291
# Poissons Ratio (z) = 0.24486 0.24488
#
# Static dielectric constant tensor:
#      x y z
#    x 3.743800 0.000000 0.000000 
#    y 0.000000 3.743790 0.000000 
#    z 0.000000 0.000000 3.015850 
# 
# 
# High freq. dielectric constant tensor:
#      x y z
#    x 1.763270 0.000000 0.000000 
#    y 0.000000 1.763270 0.000000 
#    z 0.000000 0.000000 1.694020 
# 
# From -- ./inp_files/5038.got.cif
#   From: 2010.03.12/outbox.cif.g09.slc.cpg/sg192_3_cif.got.tgz:5038.got - 2010.04.01 12:16:15.
