data_PCOD8329334
_publ_section_title
;
Structure prediction by ZEFSAII (Michael W. Deem and Ramdas Pophale) SiO2 
 PCOD8329334
Probable space group: P 6/M M M
;
_chemical_formula_sum "Si O2"
_cell_formula_units_Z 96
_cell_length_a 30.822475
_cell_length_b 30.822475
_cell_length_c 7.764716
_cell_angle_alpha 90.000000
_cell_angle_beta 90.000000
_cell_angle_gamma 120.000000
_cell_volume 6388.387120
_symmetry_space_group_name_H-M "P 6/M M M"
_symmetry_group_IT_number 191
_symmetry_cell_setting 'hexagonal'
loop_
_space_group_symop_operation_xyz
x,y,z
x-y,x,z
-y,x-y,z
-x,-y,z
-x+y,-x,z
y,-x+y,z
x-y,-y,-z
-x,-x+y,-z
y,x,-z
-y,-x,-z
-x+y,y,-z
x,x-y,-z
-x,-y,-z
-x+y,-x,-z
y,-x+y,-z
x,y,-z
x-y,x,-z
-y,x-y,-z
-x+y,y,z
x,x-y,z
-y,-x,z
y,x,z
x-y,-y,z
-x,-x+y,z
loop_
_atom_site_type_symbol
_atom_site_label
_atom_site_fract_x
_atom_site_fract_y
_atom_site_fract_z
Si Si1 0.701199 0.196042 0.500000
Si Si2 0.767756 0.333206 0.195288
Si Si3 0.847961 0.792534 0.296720
Si Si4 0.756729 0.617399 0.500000
Si Si5 0.209512 0.316192 0.810392
O O1 0.754355 0.245646 0.500000
O O2 0.671115 0.194313 0.672510
O O3 0.709624 0.148514 0.500000
O O4 0.768232 0.384116 0.234875
O O5 0.711417 0.288584 0.225484
O O6 0.785450 0.332025 0.000000
O O7 0.846504 0.785933 0.500000
O O8 0.902854 0.805708 0.225895
O O9 0.836702 0.836702 0.242632
O O10 0.803747 0.740706 0.220328
O O11 0.808578 0.617155 0.500000
O O12 0.752313 0.645801 0.668570
O O13 0.158505 0.317009 0.795296
O O14 0.233792 0.333730 0.000000
#
# Coordination Sequence:
#
# PCOD8329334 Si02
#       5
#    12  24  24  12  24
#     4   9  17  25  35  50  69  94 125 164 207 249
#     4   9  16  25  36  50  69  95 130 171 211 246
#     4   9  16  27  43  62  85 111 140 174 207 237
#     4   9  16  27  38  52  75  98 125 163 203 242
#     4   9  16  26  41  58  76 101 131 162 197 237
#
# _framework density 15.027267
#
# number of rings (size 3 to 8) (size 9 to 14) (size 15 to 20)
#    0.000    3.000    1.250    0.625    0.000    2.500 
#    0.000    6.250    0.000    0.250    0.000    1.750 
#    0.000    0.000    0.000    6.250    0.000   16.500 
#
# Total GULP energy -1189808.044292 kJ/mol
# GULP energy per Si atom -12393.833795 kJ/mol
# Density = 1.499306 g / cm^3
# Si number density = 15.027267 Si / 1000 Ang^3
#
#
#
# Elastic Constant Matrix: (Units=GPa)
#
#
# Indices 1 2 3 4 5 6 
#
# 1 64.9221 42.9472 44.9841 0.0000 0.0000 0.0000
# 2 42.9472 64.9221 44.9841 0.0000 0.0000 0.0000
# 3 44.9841 44.9841 103.5835 0.0000 0.0000 0.0000
# 4 0.0000 0.0000 0.0000 9.2173 0.0000 0.0000
# 5 0.0000 0.0000 0.0000 0.0000 9.2173 0.0000
# 6 0.0000 0.0000 0.0000 0.0000 0.0000 10.9875
#
#
#
# Elastic Compliance Matrix: (Units=1/GPa)
#
#
# Indices 1 2 3 4 5 6 
#
# 1 0.030021 -0.015486 -0.006312 0.000000 0.000000 0.000000
# 2 -0.015486 0.030021 -0.006312 0.000000 0.000000 0.000000
# 3 -0.006312 -0.006312 0.015137 0.000000 0.000000 0.000000
# 4 0.000000 0.000000 0.000000 0.108491 0.000000 0.000000
# 5 0.000000 0.000000 0.000000 0.000000 0.108491 0.000000
# 6 0.000000 0.000000 0.000000 0.000000 0.000000 0.091013
#
#
# Mechanical properties :
#
#
# Convention : Reuss Voigt Hill
#
# Bulk Modulus (GPa) = 52.74866 55.47315 54.11090
# Shear Modulus (GPa) = 11.21797 12.58525 11.90161
#
# Velocity S-wave (km/s) = 2.73519 2.89709 2.81730
# Velocity P-wave (km/s) = 6.71961 6.94161 6.83151
#
# Compressibility (1/GPa) = 0.01895783
#
# Stress axis : x y z
#
# Youngs Moduli (GPa) = 33.31023 33.31023 66.06459
#
# Poissons Ratio (x) = 0.51583 0.41702
# Poissons Ratio (y) = 0.51583 0.41702
# Poissons Ratio (z) = 0.21027 0.21027
#
# Static dielectric constant tensor:
#      x y z
#    x 2.735400 0.000000 0.000000 
#    y 0.000000 2.735400 0.000000 
#    z 0.000000 0.000000 3.142410 
# 
# 
# High freq. dielectric constant tensor:
#      x y z
#    x 1.533860 0.000000 0.000000 
#    y 0.000000 1.533860 0.000000 
#    z 0.000000 0.000000 1.593870 
# 
# From -- ./inp_files/1587.got.cif
#   From: 2010.03.12/outbox.cif.g09.slc.cpg/sg191_1_cif.got.tgz:1587.got - 2010.04.01 12:09:02.
