data_PCOD8329941
_publ_section_title
;
Structure prediction by ZEFSAII (Michael W. Deem and Ramdas Pophale) SiO2 
 PCOD8329941
Probable space group: P 63/M C M
;
_chemical_formula_sum "Si O2"
_cell_formula_units_Z 168
_cell_length_a 18.227033
_cell_length_b 18.227033
_cell_length_c 31.736142
_cell_angle_alpha 90.000000
_cell_angle_beta 90.000000
_cell_angle_gamma 120.000000
_cell_volume 9130.965926
_symmetry_space_group_name_H-M "P 63/M C M"
_symmetry_group_IT_number 193
_symmetry_cell_setting 'hexagonal'
loop_
_space_group_symop_operation_xyz
x,y,z
x-y,x,1/2+z
-y,x-y,z
-x,-y,1/2+z
-x+y,-x,z
y,-x+y,1/2+z
x-y,-y,1/2-z
-x,-x+y,1/2-z
y,x,1/2-z
-y,-x,-z
-x+y,y,-z
x,x-y,-z
-x,-y,-z
-x+y,-x,1/2-z
y,-x+y,-z
x,y,1/2-z
x-y,x,-z
-y,x-y,1/2-z
-x+y,y,1/2+z
x,x-y,1/2+z
-y,-x,1/2+z
y,x,z
x-y,-y,z
-x,-x+y,z
loop_
_atom_site_type_symbol
_atom_site_label
_atom_site_fract_x
_atom_site_fract_y
_atom_site_fract_z
Si Si1 0.098390 0.327540 0.528014
Si Si2 0.280967 0.468739 0.750000
Si Si3 0.618524 0.096457 0.342198
Si Si4 0.379045 0.529808 0.250000
Si Si5 0.474429 0.373611 0.982667
Si Si6 0.652232 0.901824 0.672360
Si Si7 0.520269 0.617717 0.110327
Si Si8 0.675469 0.774886 0.873846
O O1 0.144555 0.289110 0.500000
O O2 0.131596 0.423892 0.512737
O O3 0.118349 0.324357 0.576894
O O4 0.000000 0.269408 0.518614
O O5 0.379070 0.537468 0.750000
O O6 0.237363 0.526813 0.750000
O O7 0.254012 0.405654 0.710921
O O8 0.617208 0.099988 0.291726
O O9 0.569919 0.140993 0.364339
O O10 0.713353 0.135678 0.359860
O O11 0.571228 0.000000 0.356375
O O12 0.424785 0.424785 0.982186
O O13 0.485718 0.347266 0.935417
O O14 0.568870 0.431131 0.000000
O O15 0.590001 0.893315 0.635356
O O16 0.706715 0.860306 0.653991
O O17 0.715410 0.000000 0.685074
O O18 0.547773 0.547773 0.104160
O O19 0.736247 0.736247 0.863449
#
# Coordination Sequence:
#
# PCOD8329941 Si02
#       8
#    24  12  24  12  24  24  24  24
#     4  10  20  34  55  81 112 150 191 239 293 349
#     4  12  24  39  57  84 117 156 189 222 270 334
#     4  10  19  32  53  78 106 144 183 223 272 335
#     4  12  22  37  55  76 116 150 181 214 262 324
#     4   9  16  28  48  75 105 136 174 220 270 327
#     4  11  22  37  58  83 112 145 192 247 291 335
#     4   9  17  29  49  76 104 137 175 220 273 325
#     4  10  21  37  55  80 114 152 192 235 293 357
#
# _framework density 18.398928999999999
#
# number of rings (size 3 to 8) (size 9 to 14) (size 15 to 20)
#    0.000    1.857    2.857    2.286    0.000    5.714 
#    0.000    0.357    0.000    0.714    0.000    4.000 
#    0.000    0.000    0.000    0.000    0.000    0.000 
#
# Total GULP energy -2082262.250576 kJ/mol
# GULP energy per Si atom -12394.418158 kJ/mol
# Density = 1.835705 g / cm^3
# Si number density = 18.398929 Si / 1000 Ang^3
#
#
#
# Elastic Constant Matrix: (Units=GPa)
#
#
# Indices 1 2 3 4 5 6 
#
# 1 69.3956 31.4648 34.2985 0.0000 0.0000 0.0000
# 2 31.4648 69.3956 34.2985 0.0000 0.0000 0.0000
# 3 34.2985 34.2985 117.4013 0.0000 0.0000 0.0000
# 4 0.0000 0.0000 0.0000 11.6868 0.0000 0.0000
# 5 0.0000 0.0000 0.0000 0.0000 11.6868 0.0000
# 6 0.0000 0.0000 0.0000 0.0000 0.0000 18.9654
#
#
#
# Elastic Compliance Matrix: (Units=1/GPa)
#
#
# Indices 1 2 3 4 5 6 
#
# 1 0.019369 -0.006995 -0.003615 0.000000 0.000000 0.000000
# 2 -0.006995 0.019369 -0.003615 0.000000 0.000000 0.000000
# 3 -0.003615 -0.003615 0.010630 0.000000 0.000000 0.000000
# 4 0.000000 0.000000 0.000000 0.085567 0.000000 0.000000
# 5 0.000000 0.000000 0.000000 0.000000 0.085567 0.000000
# 6 0.000000 0.000000 0.000000 0.000000 0.000000 0.052728
#
#
# Mechanical properties :
#
#
# Convention : Reuss Voigt Hill
#
# Bulk Modulus (GPa) = 47.80780 50.70180 49.25480
# Shear Modulus (GPa) = 16.19956 18.87650 17.53803
#
# Velocity S-wave (km/s) = 2.97048 3.20653 3.09076
# Velocity P-wave (km/s) = 6.14861 6.42852 6.29012
#
# Compressibility (1/GPa) = 0.02091709
#
# Stress axis : x y z
#
# Youngs Moduli (GPa) = 51.63022 51.63022 94.07423
#
# Poissons Ratio (x) = 0.36117 0.34006
# Poissons Ratio (y) = 0.36117 0.34006
# Poissons Ratio (z) = 0.18663 0.18663
#
# Static dielectric constant tensor:
#      x y z
#    x 3.290180 0.000000 0.000000 
#    y 0.000000 3.290180 0.000000 
#    z 0.000000 0.000000 3.580550 
# 
# 
# High freq. dielectric constant tensor:
#      x y z
#    x 1.690210 0.000000 0.000000 
#    y 0.000000 1.690210 0.000000 
#    z 0.000000 0.000000 1.733460 
# 
# From -- ./inp_files/9370.got.cif
#   From: 2010.03.12/outbox.cif.g09.slc.cpg/sg193_5_cif.got.tgz:9370.got - 2010.04.01 12:20:39.
