data_PCOD8329924
_publ_section_title
;
Structure prediction by ZEFSAII (Michael W. Deem and Ramdas Pophale) SiO2 
 PCOD8329924
Probable space group: P 63/M C M
;
_chemical_formula_sum "Si O2"
_cell_formula_units_Z 144
_cell_length_a 20.892478
_cell_length_b 20.892478
_cell_length_c 23.154275
_cell_angle_alpha 90.000000
_cell_angle_beta 90.000000
_cell_angle_gamma 120.000000
_cell_volume 8752.693602
_symmetry_space_group_name_H-M "P 63/M C M"
_symmetry_group_IT_number 193
_symmetry_cell_setting 'hexagonal'
loop_
_space_group_symop_operation_xyz
x,y,z
x-y,x,1/2+z
-y,x-y,z
-x,-y,1/2+z
-x+y,-x,z
y,-x+y,1/2+z
x-y,-y,1/2-z
-x,-x+y,1/2-z
y,x,1/2-z
-y,-x,-z
-x+y,y,-z
x,x-y,-z
-x,-y,-z
-x+y,-x,1/2-z
y,-x+y,-z
x,y,1/2-z
x-y,x,-z
-y,x-y,1/2-z
-x+y,y,1/2+z
x,x-y,1/2+z
-y,-x,1/2+z
y,x,z
x-y,-y,z
-x,-x+y,z
loop_
_atom_site_type_symbol
_atom_site_label
_atom_site_fract_x
_atom_site_fract_y
_atom_site_fract_z
Si Si1 0.461233 0.547113 0.312970
Si Si2 0.513912 0.332238 0.496601
Si Si3 0.918030 0.696096 0.315138
Si Si4 0.917464 0.227264 0.315315
Si Si5 0.569187 0.913092 0.895937
Si Si6 0.343632 0.915461 0.611015
O O1 0.447888 0.571872 0.250000
O O2 0.520245 0.520245 0.306723
O O3 0.495545 0.615172 0.357088
O O4 0.383835 0.483208 0.336277
O O5 0.589678 0.410323 0.500000
O O6 0.532422 0.266211 0.500000
O O7 0.455589 0.321855 0.545861
O O8 0.471847 0.327683 0.437820
O O9 0.910540 0.663991 0.250000
O O10 0.859869 0.723968 0.324959
O O11 0.901876 0.634609 0.362801
O O12 0.000000 0.765681 0.324209
O O13 0.909449 0.251203 0.250000
O O14 0.897350 0.271314 0.361357
O O15 0.000000 0.242930 0.325785
O O16 0.604179 0.000000 0.910550
O O17 0.393760 0.000000 0.587770
#
# Coordination Sequence:
#
# PCOD8329924 Si02
#       6
#    24  24  24  24  24  24
#     4   9  16  27  47  75  99 116 141 185 243 299
#     4  12  24  37  49  65  90 131 169 203 239 290
#     4   9  17  30  49  74 102 130 160 197 242 289
#     4   9  17  30  49  74 102 130 160 197 242 289
#     4  10  19  32  51  73  96 120 154 201 248 293
#     4  10  19  32  51  73  96 120 154 201 248 293
#
# _framework density 16.452079000000001
#
# number of rings (size 3 to 8) (size 9 to 14) (size 15 to 20)
#    0.000    2.167    1.667    2.667    0.000    4.667 
#    0.000    0.000    0.000    0.333    0.000    2.333 
#    0.000    0.000    0.000    0.000    0.000   34.667 
#
# Total GULP energy -1785003.784667 kJ/mol
# GULP energy per Si atom -12395.859616 kJ/mol
# Density = 1.641463 g / cm^3
# Si number density = 16.452079 Si / 1000 Ang^3
#
#
#
# Elastic Constant Matrix: (Units=GPa)
#
#
# Indices 1 2 3 4 5 6 
#
# 1 89.2855 48.2761 34.1812 0.0000 0.0000 0.0000
# 2 48.2761 89.2855 34.1812 0.0000 0.0000 0.0000
# 3 34.1812 34.1812 78.7732 0.0000 0.0000 0.0000
# 4 0.0000 0.0000 0.0000 17.4030 0.0000 0.0000
# 5 0.0000 0.0000 0.0000 0.0000 17.4030 0.0000
# 6 0.0000 0.0000 0.0000 0.0000 0.0000 20.5047
#
#
#
# Elastic Compliance Matrix: (Units=1/GPa)
#
#
# Indices 1 2 3 4 5 6 
#
# 1 0.016826 -0.007558 -0.004022 0.000000 0.000000 0.000000
# 2 -0.007558 0.016826 -0.004022 0.000000 0.000000 0.000000
# 3 -0.004022 -0.004022 0.016185 0.000000 0.000000 0.000000
# 4 0.000000 0.000000 0.000000 0.057461 0.000000 0.000000
# 5 0.000000 0.000000 0.000000 0.000000 0.057461 0.000000
# 6 0.000000 0.000000 0.000000 0.000000 0.000000 0.048769
#
#
# Mechanical properties :
#
#
# Convention : Reuss Voigt Hill
#
# Bulk Modulus (GPa) = 53.66391 54.51348 54.08870
# Shear Modulus (GPa) = 19.92478 20.44252 20.18365
#
# Velocity S-wave (km/s) = 3.48383 3.52881 3.50639
# Velocity P-wave (km/s) = 6.99085 7.05762 7.02431
#
# Compressibility (1/GPa) = 0.01863450
#
# Stress axis : x y z
#
# Youngs Moduli (GPa) = 59.43057 59.43057 61.78654
#
# Poissons Ratio (x) = 0.44920 0.24848
# Poissons Ratio (y) = 0.44920 0.24848
# Poissons Ratio (z) = 0.23900 0.23900
#
# Static dielectric constant tensor:
#      x y z
#    x 3.004240 0.000000 0.000000 
#    y 0.000000 3.004240 0.000000 
#    z 0.000000 0.000000 3.190430 
# 
# 
# High freq. dielectric constant tensor:
#      x y z
#    x 1.617440 0.000000 0.000000 
#    y 0.000000 1.617440 0.000000 
#    z 0.000000 0.000000 1.641130 
# 
# From -- ./inp_files/6562.got.cif
#   From: 2010.03.12/outbox.cif.g09.slc.cpg/sg193_4_cif.got.tgz:6562.got - 2010.04.01 12:20:39.
