data_PCOD8329233
_publ_section_title
;
Structure prediction by ZEFSAII (Michael W. Deem and Ramdas Pophale) SiO2 
 PCOD8329233
Probable space group: P 6/M M M
;
_chemical_formula_sum "Si O2"
_cell_formula_units_Z 72
_cell_length_a 22.668400
_cell_length_b 22.668400
_cell_length_c 8.790862
_cell_angle_alpha 90.000000
_cell_angle_beta 90.000000
_cell_angle_gamma 120.000000
_cell_volume 3912.044886
_symmetry_space_group_name_H-M "P 6/M M M"
_symmetry_group_IT_number 191
_symmetry_cell_setting 'hexagonal'
loop_
_space_group_symop_operation_xyz
x,y,z
x-y,x,z
-y,x-y,z
-x,-y,z
-x+y,-x,z
y,-x+y,z
x-y,-y,-z
-x,-x+y,-z
y,x,-z
-y,-x,-z
-x+y,y,-z
x,x-y,-z
-x,-y,-z
-x+y,-x,-z
y,-x+y,-z
x,y,-z
x-y,x,-z
-y,x-y,-z
-x+y,y,z
x,x-y,z
-y,-x,z
y,x,z
x-y,-y,z
-x,-x+y,z
loop_
_atom_site_type_symbol
_atom_site_label
_atom_site_fract_x
_atom_site_fract_y
_atom_site_fract_z
Si Si1 0.464288 0.797839 0.319091
Si Si2 0.000000 0.133389 0.680495
Si Si3 0.739256 0.000000 0.176068
Si Si4 0.384384 0.261936 0.327188
O O1 0.461067 0.793482 0.500000
O O2 0.406866 0.813732 0.254144
O O3 0.450294 0.725147 0.254317
O O4 0.539598 0.857370 0.271413
O O5 0.000000 0.200810 0.729635
O O6 0.066917 0.133834 0.744879
O O7 0.000000 0.131502 0.500000
O O8 0.733767 0.065904 0.214053
O O9 0.755627 0.000000 0.000000
O O10 0.371452 0.277177 0.500000
O O11 0.374960 0.187480 0.318522
#
# Coordination Sequence:
#
# PCOD8329233 Si02
#       4
#    24  12  12  24
#     4   8  13  23  44  75 105 128 154 196 250 300
#     4  10  21  38  60  83 105 128 155 191 239 296
#     4  12  24  35  50  72  98 133 173 208 243 280
#     4   9  18  33  52  73  98 129 164 201 242 291
#
# _framework density 18.404698
#
# number of rings (size 3 to 8) (size 9 to 14) (size 15 to 20)
#    0.000    2.667    0.000    5.000    0.000    7.333 
#    0.000    0.833    0.000    7.000    0.000    0.000 
#    0.000    2.667    0.000    0.000    0.000    0.000 
#
# Total GULP energy -892590.255069 kJ/mol
# GULP energy per Si atom -12397.086876 kJ/mol
# Density = 1.836281 g / cm^3
# Si number density = 18.404698 Si / 1000 Ang^3
#
#
#
# Elastic Constant Matrix: (Units=GPa)
#
#
# Indices 1 2 3 4 5 6 
#
# 1 120.4562 64.3723 11.7650 0.0000 0.0000 0.0000
# 2 64.3723 120.4562 11.7650 0.0000 0.0000 0.0000
# 3 11.7650 11.7650 21.9244 0.0000 0.0000 0.0000
# 4 0.0000 0.0000 0.0000 0.0286 0.0000 0.0000
# 5 0.0000 0.0000 0.0000 0.0000 0.0286 0.0000
# 6 0.0000 0.0000 0.0000 0.0000 0.0000 28.0419
#
#
#
# Elastic Compliance Matrix: (Units=1/GPa)
#
#
# Indices 1 2 3 4 5 6 
#
# 1 0.011819 -0.006012 -0.003116 0.000000 0.000000 0.000000
# 2 -0.006012 0.011819 -0.003116 0.000000 0.000000 0.000000
# 3 -0.003116 -0.003116 0.048956 0.000000 0.000000 0.000000
# 4 0.000000 0.000000 0.000000 34.969289 0.000029 0.000000
# 5 0.000000 0.000000 0.000000 0.000029 34.969256 0.000000
# 6 0.000000 0.000000 0.000000 0.000000 0.000000 0.035661
#
#
# Mechanical properties :
#
#
# Convention : Reuss Voigt Hill
#
# Bulk Modulus (GPa) = 20.78783 48.73793 34.76288
# Shear Modulus (GPa) = 0.07134 17.28213 8.67673
#
# Velocity S-wave (km/s) = 0.19709 3.06765 2.17363
# Velocity P-wave (km/s) = 3.37212 6.25188 5.02281
#
# Compressibility (1/GPa) = 0.04810507
#
# Stress axis : x y z
#
# Youngs Moduli (GPa) = 84.61106 84.61106 20.42667
#
# Poissons Ratio (x) = 0.50865 0.06365
# Poissons Ratio (y) = 0.50865 0.06365
# Poissons Ratio (z) = 0.26367 0.26367
#
# Static dielectric constant tensor:
#      x y z
#    x 3.613040 0.000000 0.000000 
#    y 0.000000 3.613040 0.000000 
#    z 0.000000 0.000000 2.907630 
# 
# 
# High freq. dielectric constant tensor:
#      x y z
#    x 1.718730 0.000000 0.000000 
#    y 0.000000 1.718730 0.000000 
#    z 0.000000 0.000000 1.664050 
# 
# From -- ./inp_files/939.got.cif
#   From: 2010.03.12/outbox.cif.g09.slc.cpg/sg191_1_cif.got.tgz:939.got - 2010.04.01 12:09:02.
