data_PCOD8329444
_publ_section_title
;
Structure prediction by ZEFSAII (Michael W. Deem and Ramdas Pophale) SiO2 
 PCOD8329444
Probable space group: P 6/M C C
;
_chemical_formula_sum "Si O2"
_cell_formula_units_Z 120
_cell_length_a 23.738796
_cell_length_b 23.738796
_cell_length_c 14.040718
_cell_angle_alpha 90.000000
_cell_angle_beta 90.000000
_cell_angle_gamma 120.000000
_cell_volume 6852.315095
_symmetry_space_group_name_H-M "P 6/M C C"
_symmetry_group_IT_number 192
_symmetry_cell_setting 'hexagonal'
loop_
_space_group_symop_operation_xyz
x,y,z
x-y,x,z
-y,x-y,z
-x,-y,z
-x+y,-x,z
y,-x+y,z
x-y,-y,1/2-z
-x,-x+y,1/2-z
y,x,1/2-z
-y,-x,1/2-z
-x+y,y,1/2-z
x,x-y,1/2-z
-x,-y,-z
-x+y,-x,-z
y,-x+y,-z
x,y,-z
x-y,x,-z
-y,x-y,-z
-x+y,y,1/2+z
x,x-y,1/2+z
-y,-x,1/2+z
y,x,1/2+z
x-y,-y,1/2+z
-x,-x+y,1/2+z
loop_
_atom_site_type_symbol
_atom_site_label
_atom_site_fract_x
_atom_site_fract_y
_atom_site_fract_z
Si Si1 0.575622 0.687163 0.000000
Si Si2 0.527654 0.934183 0.205064
Si Si3 0.777641 0.046931 0.000000
Si Si4 0.425903 0.033287 0.000000
Si Si5 0.276225 0.838086 0.201898
Si Si6 0.697830 0.832686 0.155041
Si Si7 0.331314 0.238223 0.500000
O O1 0.652051 0.739247 0.000000
O O2 0.540119 0.697250 0.907225
O O3 0.571974 0.617306 0.000000
O O4 0.459729 0.919457 0.250000
O O5 0.527281 0.943489 0.091502
O O6 0.539265 0.875143 0.226699
O O7 0.586555 0.000000 0.250000
O O8 0.822350 0.073121 0.906188
O O9 0.739542 0.970413 0.000000
O O10 0.383943 0.069899 0.000000
O O11 0.233862 0.766138 0.250000
O O12 0.234252 0.874033 0.199075
O O13 0.738044 0.869022 0.250000
O O14 0.664232 0.866643 0.094646
#
# Coordination Sequence:
#
# PCOD8329444 Si02
#       7
#    12  24  12  12  24  24  12
#     4   9  17  30  51  73 103 136 167 215 271 304
#     4  11  24  37  54  81 108 142 181 223 285 344
#     4   8  17  27  41  68  98 131 171 216 247 295
#     4  11  19  35  56  74 110 144 173 220 278 334
#     4  10  19  34  52  75 103 134 178 220 259 323
#     4   9  17  30  45  69 101 133 173 215 255 304
#     4  10  19  31  49  76 100 137 183 213 258 318
#
# _framework density 17.512329999999999
#
# number of rings (size 3 to 8) (size 9 to 14) (size 15 to 20)
#    0.000    2.200    2.000    3.000    0.000    4.000 
#    0.000    0.000    0.000    0.400    0.000    0.000 
#    0.000    3.200    0.000   19.200    0.000   41.600 
#
# Total GULP energy -1486626.262246 kJ/mol
# GULP energy per Si atom -12388.552185 kJ/mol
# Density = 1.747247 g / cm^3
# Si number density = 17.512330 Si / 1000 Ang^3
#
#
#
# Elastic Constant Matrix: (Units=GPa)
#
#
# Indices 1 2 3 4 5 6 
#
# 1 72.5792 37.8927 40.3501 0.0000 0.0000 0.0000
# 2 37.8927 72.5792 40.3501 0.0000 0.0000 0.0000
# 3 40.3501 40.3501 170.9280 0.0000 0.0000 0.0000
# 4 0.0000 0.0000 0.0000 16.7762 0.0000 0.0000
# 5 0.0000 0.0000 0.0000 0.0000 16.7762 0.0000
# 6 0.0000 0.0000 0.0000 0.0000 0.0000 17.3433
#
#
#
# Elastic Compliance Matrix: (Units=1/GPa)
#
#
# Indices 1 2 3 4 5 6 
#
# 1 0.019884 -0.008946 -0.002582 0.000000 0.000000 0.000000
# 2 -0.008946 0.019884 -0.002582 0.000000 0.000000 0.000000
# 3 -0.002582 -0.002582 0.007070 0.000000 0.000000 0.000000
# 4 0.000000 0.000000 0.000000 0.059608 0.000000 0.000000
# 5 0.000000 0.000000 0.000000 0.000000 0.059608 0.000000
# 6 0.000000 0.000000 0.000000 0.000000 0.000000 0.057659
#
#
# Mechanical properties :
#
#
# Convention : Reuss Voigt Hill
#
# Bulk Modulus (GPa) = 53.71262 61.47468 57.59365
# Shear Modulus (GPa) = 19.36943 23.34539 21.35741
#
# Velocity S-wave (km/s) = 3.32933 3.65510 3.49601
# Velocity P-wave (km/s) = 6.74664 7.27962 7.01819
#
# Compressibility (1/GPa) = 0.01861760
#
# Stress axis : x y z
#
# Youngs Moduli (GPa) = 50.29171 50.29171 141.45213
#
# Poissons Ratio (x) = 0.44989 0.36525
# Poissons Ratio (y) = 0.44989 0.36525
# Poissons Ratio (z) = 0.12986 0.12986
#
# Static dielectric constant tensor:
#      x y z
#    x 3.002350 0.000000 0.000000 
#    y 0.000000 3.002350 0.000000 
#    z 0.000000 0.000000 3.977070 
# 
# 
# High freq. dielectric constant tensor:
#      x y z
#    x 1.636630 0.000000 0.000000 
#    y 0.000000 1.636630 0.000000 
#    z 0.000000 0.000000 1.711960 
# 
# From -- ./inp_files/3189.got.cif
#   From: 2010.03.12/outbox.cif.g09.slc.cpg/sg192_2_cif.got.tgz:3189.got - 2010.04.01 12:16:15.
