data_PCOD8329248
_publ_section_title
;
Structure prediction by ZEFSAII (Michael W. Deem and Ramdas Pophale) SiO2 
 PCOD8329248
Probable space group: P 6/M M M
;
_chemical_formula_sum "Si O2"
_cell_formula_units_Z 88
_cell_length_a 25.909332
_cell_length_b 25.909332
_cell_length_c 9.381470
_cell_angle_alpha 90.000000
_cell_angle_beta 90.000000
_cell_angle_gamma 120.000000
_cell_volume 5453.985236
_symmetry_space_group_name_H-M "P 6/M M M"
_symmetry_group_IT_number 191
_symmetry_cell_setting 'hexagonal'
loop_
_space_group_symop_operation_xyz
x,y,z
x-y,x,z
-y,x-y,z
-x,-y,z
-x+y,-x,z
y,-x+y,z
x-y,-y,-z
-x,-x+y,-z
y,x,-z
-y,-x,-z
-x+y,y,-z
x,x-y,-z
-x,-y,-z
-x+y,-x,-z
y,-x+y,-z
x,y,-z
x-y,x,-z
-y,x-y,-z
-x+y,y,z
x,x-y,z
-y,-x,z
y,x,z
x-y,-y,z
-x,-x+y,z
loop_
_atom_site_type_symbol
_atom_site_label
_atom_site_fract_x
_atom_site_fract_y
_atom_site_fract_z
Si Si1 0.801500 0.400750 0.670460
Si Si2 0.666667 0.333334 0.332013
Si Si3 0.247622 0.181617 0.333397
Si Si4 0.305943 0.492161 0.167702
Si Si5 0.640686 0.881481 0.156536
O O1 0.809129 0.404565 0.500000
O O2 0.733563 0.366782 0.724720
O O3 0.830512 0.466391 0.738062
O O4 0.666667 0.333334 0.500000
O O5 0.259826 0.186788 0.500000
O O6 0.231008 0.115504 0.278608
O O7 0.193385 0.193385 0.294942
O O8 0.308187 0.233820 0.264050
O O9 0.250776 0.501551 0.211750
O O10 0.291324 0.425138 0.205451
O O11 0.319546 0.505208 0.000000
O O12 0.639831 0.819916 0.148234
O O13 0.655190 0.911478 0.000000
#
# Coordination Sequence:
#
# PCOD8329248 Si02
#       5
#    12   4  24  24  24
#     4  11  19  27  37  53  80 112 147 187 227 270
#     4   9  18  27  31  47  79 108 142 185 223 261
#     4   9  17  29  46  69  96 123 149 176 208 247
#     4   9  17  28  40  55  77 108 145 183 225 272
#     4   8  15  28  44  62  85 111 143 184 223 260
#
# _framework density 16.134989999999998
#
# number of rings (size 3 to 8) (size 9 to 14) (size 15 to 20)
#    0.000    3.000    1.364    2.045    0.000    1.636 
#    0.000    2.727    0.000    0.273    0.000    2.864 
#    0.000    7.636    0.000    6.818    0.000    7.091 
#
# Total GULP energy -1090553.958336 kJ/mol
# GULP energy per Si atom -12392.658617 kJ/mol
# Density = 1.609827 g / cm^3
# Si number density = 16.134990 Si / 1000 Ang^3
#
#
#
# Elastic Constant Matrix: (Units=GPa)
#
#
# Indices 1 2 3 4 5 6 
#
# 1 87.6743 49.6253 40.8026 0.0000 0.0000 0.0000
# 2 49.6253 87.6742 40.8026 0.0000 0.0000 0.0000
# 3 40.8026 40.8026 54.0904 0.0000 0.0000 0.0000
# 4 0.0000 0.0000 0.0000 19.1799 0.0000 0.0000
# 5 0.0000 0.0000 0.0000 0.0000 19.1799 0.0000
# 6 0.0000 0.0000 0.0000 0.0000 0.0000 19.0245
#
#
#
# Elastic Compliance Matrix: (Units=1/GPa)
#
#
# Indices 1 2 3 4 5 6 
#
# 1 0.019742 -0.006540 -0.009959 0.000000 0.000000 0.000000
# 2 -0.006540 0.019742 -0.009959 0.000000 0.000000 0.000000
# 3 -0.009959 -0.009959 0.033513 0.000000 0.000000 0.000000
# 4 0.000000 0.000000 0.000000 0.052138 0.000000 0.000000
# 5 0.000000 0.000000 0.000000 0.000000 0.052138 0.000000
# 6 0.000000 0.000000 0.000000 0.000000 0.000000 0.052564
#
#
# Mechanical properties :
#
#
# Convention : Reuss Voigt Hill
#
# Bulk Modulus (GPa) = 49.79804 54.65554 52.22679
# Shear Modulus (GPa) = 17.27425 18.02408 17.64916
#
# Velocity S-wave (km/s) = 3.27556 3.34590 3.31092
# Velocity P-wave (km/s) = 6.72578 6.99101 6.85968
#
# Compressibility (1/GPa) = 0.02008111
#
# Stress axis : x y z
#
# Youngs Moduli (GPa) = 50.65256 50.65243 29.83901
#
# Poissons Ratio (x) = 0.33124 0.29718
# Poissons Ratio (y) = 0.33124 0.29718
# Poissons Ratio (z) = 0.50447 0.50447
#
# Static dielectric constant tensor:
#      x y z
#    x 3.030480 0.000000 0.000000 
#    y 0.000000 3.030480 0.000000 
#    z 0.000000 0.000000 3.097400 
# 
# 
# High freq. dielectric constant tensor:
#      x y z
#    x 1.595780 0.000000 0.000000 
#    y 0.000000 1.595780 0.000000 
#    z 0.000000 0.000000 1.617370 
# 
# From -- ./inp_files/1300.got.cif
#   From: 2010.03.12/outbox.cif.g09.slc.cpg/sg191_1_cif.got.tgz:1300.got - 2010.04.01 12:09:02.
