data_PCOD8329758
_publ_section_title
;
Structure prediction by ZEFSAII (Michael W. Deem and Ramdas Pophale) SiO2 
 PCOD8329758
Probable space group: P 63/M C M
;
_chemical_formula_sum "Si O2"
_cell_formula_units_Z 168
_cell_length_a 21.365985
_cell_length_b 21.365985
_cell_length_c 25.415229
_cell_angle_alpha 90.000000
_cell_angle_beta 90.000000
_cell_angle_gamma 120.000000
_cell_volume 10047.788786
_symmetry_space_group_name_H-M "P 63/M C M"
_symmetry_group_IT_number 193
_symmetry_cell_setting 'hexagonal'
loop_
_space_group_symop_operation_xyz
x,y,z
x-y,x,1/2+z
-y,x-y,z
-x,-y,1/2+z
-x+y,-x,z
y,-x+y,1/2+z
x-y,-y,1/2-z
-x,-x+y,1/2-z
y,x,1/2-z
-y,-x,-z
-x+y,y,-z
x,x-y,-z
-x,-y,-z
-x+y,-x,1/2-z
y,-x+y,-z
x,y,1/2-z
x-y,x,-z
-y,x-y,1/2-z
-x+y,y,1/2+z
x,x-y,1/2+z
-y,-x,1/2+z
y,x,z
x-y,-y,z
-x,-x+y,z
loop_
_atom_site_type_symbol
_atom_site_label
_atom_site_fract_x
_atom_site_fract_y
_atom_site_fract_z
Si Si1 0.883038 0.259047 0.497932
Si Si2 0.420638 0.085805 0.809306
Si Si3 0.920552 0.406556 0.458791
Si Si4 0.553795 0.086204 0.848729
Si Si5 0.598236 0.914579 0.692881
Si Si6 0.918535 0.701620 0.891670
Si Si7 0.311714 0.081599 0.610660
O O1 0.800769 0.199232 0.500000
O O2 0.877303 0.329339 0.485908
O O3 0.924311 0.243509 0.451363
O O4 0.921391 0.263383 0.553165
O O5 0.419967 0.112881 0.750000
O O6 0.504249 0.118473 0.827533
O O7 0.378173 0.111891 0.847895
O O8 0.381585 0.000000 0.811142
O O9 0.929034 0.464517 0.500000
O O10 0.883051 0.416318 0.407008
O O11 0.000000 0.419604 0.443318
O O12 0.626042 0.113003 0.813960
O O13 0.504926 0.000000 0.849422
O O14 0.608379 0.886644 0.750000
O O15 0.631489 0.889374 0.646191
O O16 0.639856 0.000000 0.691729
O O17 0.857428 0.725371 0.887695
O O18 0.000000 0.766080 0.875740
O O19 0.249846 0.000000 0.625343
#
# Coordination Sequence:
#
# PCOD8329758 Si02
#       7
#    24  24  24  24  24  24  24
#     4  10  19  31  47  68  97 129 161 199 246 301
#     4   9  17  29  44  66  98 130 157 186 228 284
#     4  10  17  25  42  67  95 124 153 189 230 273
#     4   9  15  24  41  65  93 124 153 182 220 270
#     4   9  16  26  42  65  92 119 148 187 235 284
#     4  10  19  32  49  68  94 127 163 209 259 308
#     4  10  20  32  48  69  95 129 166 205 255 313
#
# _framework density 16.720096999999999
#
# number of rings (size 3 to 8) (size 9 to 14) (size 15 to 20)
#    0.000    2.429    1.429    2.571    0.000    4.571 
#    0.000    0.000    0.000    0.571    0.000    0.000 
#    1.429    3.429    0.857    7.143    0.000    0.000 
#
# Total GULP energy -2081757.035437 kJ/mol
# GULP energy per Si atom -12391.410925 kJ/mol
# Density = 1.668204 g / cm^3
# Si number density = 16.720097 Si / 1000 Ang^3
#
#
#
# Elastic Constant Matrix: (Units=GPa)
#
#
# Indices 1 2 3 4 5 6 
#
# 1 94.8560 14.5666 28.8858 0.0000 0.0000 0.0000
# 2 14.5666 94.8560 28.8858 0.0000 0.0000 0.0000
# 3 28.8858 28.8858 118.8013 0.0000 0.0000 0.0000
# 4 0.0000 0.0000 0.0000 19.2470 0.0000 0.0000
# 5 0.0000 0.0000 0.0000 0.0000 19.2470 0.0000
# 6 0.0000 0.0000 0.0000 0.0000 0.0000 40.1447
#
#
#
# Elastic Compliance Matrix: (Units=1/GPa)
#
#
# Indices 1 2 3 4 5 6 
#
# 1 0.011470 -0.000985 -0.002549 0.000000 0.000000 0.000000
# 2 -0.000985 0.011470 -0.002549 0.000000 0.000000 0.000000
# 3 -0.002549 -0.002549 0.009657 0.000000 0.000000 0.000000
# 4 0.000000 0.000000 0.000000 0.051956 0.000000 0.000000
# 5 0.000000 0.000000 0.000000 0.000000 0.051956 0.000000
# 6 0.000000 0.000000 0.000000 0.000000 0.000000 0.024910
#
#
# Mechanical properties :
#
#
# Convention : Reuss Voigt Hill
#
# Bulk Modulus (GPa) = 48.94884 50.35444 49.65164
# Shear Modulus (GPa) = 27.71677 31.47275 29.59476
#
# Velocity S-wave (km/s) = 4.07589 4.34329 4.21171
# Velocity P-wave (km/s) = 7.17562 7.43866 7.30833
#
# Compressibility (1/GPa) = 0.02042949
#
# Stress axis : x y z
#
# Youngs Moduli (GPa) = 87.18480 87.18480 103.55050
#
# Poissons Ratio (x) = 0.08588 0.26398
# Poissons Ratio (y) = 0.08588 0.26398
# Poissons Ratio (z) = 0.22226 0.22226
#
# Static dielectric constant tensor:
#      x y z
#    x 2.975100 0.000000 0.000000 
#    y 0.000000 2.975100 0.000000 
#    z 0.000000 0.000000 3.110920 
# 
# 
# High freq. dielectric constant tensor:
#      x y z
#    x 1.608540 0.000000 0.000000 
#    y 0.000000 1.608540 0.000000 
#    z 0.000000 0.000000 1.665930 
# 
# From -- ./inp_files/8498.got.cif
#   From: 2010.03.12/outbox.cif.g09.slc.cpg/sg193_5_cif.got.tgz:8498.got - 2010.04.01 12:20:39.
