data_PCOD8329837
_publ_section_title
;
Structure prediction by ZEFSAII (Michael W. Deem and Ramdas Pophale) SiO2 
 PCOD8329837
Probable space group: P 63/M C M
;
_chemical_formula_sum "Si O2"
_cell_formula_units_Z 104
_cell_length_a 21.287518
_cell_length_b 21.287518
_cell_length_c 15.155812
_cell_angle_alpha 90.000000
_cell_angle_beta 90.000000
_cell_angle_gamma 120.000000
_cell_volume 5947.848495
_symmetry_space_group_name_H-M "P 63/M C M"
_symmetry_group_IT_number 193
_symmetry_cell_setting 'hexagonal'
loop_
_space_group_symop_operation_xyz
x,y,z
x-y,x,1/2+z
-y,x-y,z
-x,-y,1/2+z
-x+y,-x,z
y,-x+y,1/2+z
x-y,-y,1/2-z
-x,-x+y,1/2-z
y,x,1/2-z
-y,-x,-z
-x+y,y,-z
x,x-y,-z
-x,-y,-z
-x+y,-x,1/2-z
y,-x+y,-z
x,y,1/2-z
x-y,x,-z
-y,x-y,1/2-z
-x+y,y,1/2+z
x,x-y,1/2+z
-y,-x,1/2+z
y,x,z
x-y,-y,z
-x,-x+y,z
loop_
_atom_site_type_symbol
_atom_site_label
_atom_site_fract_x
_atom_site_fract_y
_atom_site_fract_z
Si Si1 0.918657 0.213923 0.965056
Si Si2 0.517175 0.315701 0.648630
Si Si3 0.569606 0.918603 0.517521
Si Si4 0.666668 0.333334 0.145264
Si Si5 0.576830 0.722294 0.650679
O O1 0.917706 0.272706 0.033244
O O2 0.000000 0.227642 0.954066
O O3 0.867556 0.132445 0.000000
O O4 0.888992 0.226276 0.871320
O O5 0.522309 0.340448 0.750000
O O6 0.489578 0.360108 0.590354
O O7 0.595386 0.333738 0.611313
O O8 0.461846 0.231028 0.637514
O O9 0.541707 0.887149 0.418124
O O10 0.583360 0.000000 0.524214
O O11 0.666667 0.333334 0.250000
O O12 0.566859 0.691899 0.750000
#
# Coordination Sequence:
#
# PCOD8329837 Si02
#       5
#    24  24  24   8  24
#     4   9  16  28  48  70 103 134 167 211 256 309
#     4  10  18  33  54  76 103 131 170 213 256 311
#     4   9  17  30  50  74 104 132 165 212 259 308
#     4   9  21  36  55  80 101 137 178 213 250 302
#     4   9  16  28  49  72 100 135 168 213 255 298
#
# _framework density 17.485315
#
# number of rings (size 3 to 8) (size 9 to 14) (size 15 to 20)
#    1.385    1.385    2.308    0.692    0.000    2.308 
#    0.000    4.615    0.000    5.077    0.000   12.923 
#    0.000    0.000    0.000    0.000    0.000    0.000 
#
# Total GULP energy -1288383.415442 kJ/mol
# GULP energy per Si atom -12388.302072 kJ/mol
# Density = 1.744552 g / cm^3
# Si number density = 17.485315 Si / 1000 Ang^3
#
#
#
# Elastic Constant Matrix: (Units=GPa)
#
#
# Indices 1 2 3 4 5 6 
#
# 1 73.2751 28.2704 46.8951 0.0000 0.0000 -0.0002
# 2 28.2704 73.2721 46.8952 0.0000 -0.0001 -0.0004
# 3 46.8951 46.8952 108.8862 -0.0001 0.0001 0.0000
# 4 0.0000 0.0000 -0.0001 18.2466 0.0000 0.0000
# 5 0.0000 -0.0001 0.0001 0.0000 18.2469 0.0000
# 6 -0.0002 -0.0004 0.0000 0.0000 0.0000 22.5010
#
#
#
# Elastic Compliance Matrix: (Units=1/GPa)
#
#
# Indices 1 2 3 4 5 6 
#
# 1 0.019286 -0.002934 -0.007043 0.000000 0.000000 0.000000
# 2 -0.002934 0.019287 -0.007043 0.000000 0.000000 0.000000
# 3 -0.007043 -0.007043 0.015250 0.000000 0.000000 0.000000
# 4 0.000000 0.000000 0.000000 0.054805 0.000000 0.000000
# 5 0.000000 0.000000 0.000000 0.000000 0.054804 0.000000
# 6 0.000000 0.000000 0.000000 0.000000 0.000000 0.044442
#
#
# Mechanical properties :
#
#
# Convention : Reuss Voigt Hill
#
# Bulk Modulus (GPa) = 50.54385 55.50611 53.02498
# Shear Modulus (GPa) = 20.11994 20.69041 20.40518
#
# Velocity S-wave (km/s) = 3.39584 3.44365 3.41983
# Velocity P-wave (km/s) = 6.65919 6.90108 6.78122
#
# Compressibility (1/GPa) = 0.01978480
#
# Stress axis : x y z
#
# Youngs Moduli (GPa) = 51.85021 51.84724 65.57191
#
# Poissons Ratio (x) = 0.15211 0.46180
# Poissons Ratio (y) = 0.15212 0.46184
# Poissons Ratio (z) = 0.36517 0.36517
#
# Static dielectric constant tensor:
#      x y z
#    x 3.047520 0.000000 0.000000 
#    y 0.000000 3.047530 0.000000 
#    z 0.000000 0.000000 3.120700 
# 
# 
# High freq. dielectric constant tensor:
#      x y z
#    x 1.652840 0.000000 0.000000 
#    y 0.000000 1.652850 0.000000 
#    z 0.000000 0.000000 1.661360 
# 
# From -- ./inp_files/3706.got.cif
#   From: 2010.03.12/outbox.cif.g09.slc.cpg/sg193_2_cif.got.tgz:3706.got - 2010.04.01 12:20:39.
