data_PCOD8329564
_publ_section_title
;
Structure prediction by ZEFSAII (Michael W. Deem and Ramdas Pophale) SiO2 
 PCOD8329564
Probable space group: P 6/M C C
;
_chemical_formula_sum "Si O2"
_cell_formula_units_Z 144
_cell_length_a 31.108324
_cell_length_b 31.108324
_cell_length_c 8.777526
_cell_angle_alpha 90.000000
_cell_angle_beta 90.000000
_cell_angle_gamma 120.000000
_cell_volume 7356.241586
_symmetry_space_group_name_H-M "P 6/M C C"
_symmetry_group_IT_number 192
_symmetry_cell_setting 'hexagonal'
loop_
_space_group_symop_operation_xyz
x,y,z
x-y,x,z
-y,x-y,z
-x,-y,z
-x+y,-x,z
y,-x+y,z
x-y,-y,1/2-z
-x,-x+y,1/2-z
y,x,1/2-z
-y,-x,1/2-z
-x+y,y,1/2-z
x,x-y,1/2-z
-x,-y,-z
-x+y,-x,-z
y,-x+y,-z
x,y,-z
x-y,x,-z
-y,x-y,-z
-x+y,y,1/2+z
x,x-y,1/2+z
-y,-x,1/2+z
y,x,1/2+z
x-y,-y,1/2+z
-x,-x+y,1/2+z
loop_
_atom_site_type_symbol
_atom_site_label
_atom_site_fract_x
_atom_site_fract_y
_atom_site_fract_z
Si Si1 0.853242 0.525770 0.324161
Si Si2 0.947799 0.144693 0.821124
Si Si3 0.704250 0.947844 0.820903
Si Si4 0.571401 0.519967 0.179487
Si Si5 0.757360 0.332543 0.823057
Si Si6 0.238124 0.384345 0.320761
O O1 0.851692 0.539709 0.500000
O O2 0.906668 0.533581 0.279219
O O3 0.812960 0.468830 0.291899
O O4 0.840804 0.560188 0.219585
O O5 0.905914 0.094087 0.750000
O O6 0.935872 0.188160 0.780817
O O7 0.000000 0.156695 0.750000
O O8 0.950084 0.138238 0.000000
O O9 0.653490 0.907219 0.746326
O O10 0.716389 0.000000 0.750000
O O11 0.696886 0.949341 0.000000
O O12 0.562794 0.562794 0.250000
O O13 0.533197 0.466804 0.250000
O O14 0.562469 0.516959 0.000000
O O15 0.720218 0.279783 0.750000
O O16 0.749666 0.374833 0.750000
O O17 0.745455 0.330394 0.000000
O O18 0.186129 0.372258 0.250000
O O19 0.231472 0.377777 0.500000
#
# Coordination Sequence:
#
# PCOD8329564 Si02
#       6
#    24  24  24  24  24  24
#     4  10  23  41  60  84 115 151 192 237 283 337
#     4  10  20  34  55  82 112 147 187 233 283 335
#     4  10  21  38  60  86 117 151 191 238 287 340
#     4  10  20  36  59  86 116 149 188 234 284 338
#     4  11  23  40  62  87 115 147 184 230 283 340
#     4  12  25  40  60  84 115 155 195 237 286 341
#
# _framework density 19.575213000000002
#
# number of rings (size 3 to 8) (size 9 to 14) (size 15 to 20)
#    0.000    1.500    0.000    5.667    0.000    8.000 
#    0.000    1.667    0.000    0.167    0.000    1.167 
#    0.000    0.000    0.000    0.000    0.000    0.000 
#
# Total GULP energy -1786580.599336 kJ/mol
# GULP energy per Si atom -12406.809718 kJ/mol
# Density = 1.953066 g / cm^3
# Si number density = 19.575213 Si / 1000 Ang^3
#
#
#
# Elastic Constant Matrix: (Units=GPa)
#
#
# Indices 1 2 3 4 5 6 
#
# 1 98.2991 34.0491 46.7237 0.0000 0.0000 0.0000
# 2 34.0491 98.2991 46.7237 0.0000 0.0000 0.0000
# 3 46.7237 46.7237 118.1854 0.0000 0.0000 0.0000
# 4 0.0000 0.0000 0.0000 33.8194 0.0000 0.0000
# 5 0.0000 0.0000 0.0000 0.0000 33.8194 0.0000
# 6 0.0000 0.0000 0.0000 0.0000 0.0000 32.1250
#
#
#
# Elastic Compliance Matrix: (Units=1/GPa)
#
#
# Indices 1 2 3 4 5 6 
#
# 1 0.013023 -0.002541 -0.004144 0.000000 0.000000 0.000000
# 2 -0.002541 0.013023 -0.004144 0.000000 0.000000 0.000000
# 3 -0.004144 -0.004144 0.011738 0.000000 0.000000 0.000000
# 4 0.000000 0.000000 0.000000 0.029569 0.000000 0.000000
# 5 0.000000 0.000000 0.000000 0.000000 0.029569 0.000000
# 6 0.000000 0.000000 0.000000 0.000000 0.000000 0.031128
#
#
# Mechanical properties :
#
#
# Convention : Reuss Voigt Hill
#
# Bulk Modulus (GPa) = 62.01274 63.30852 62.66063
# Shear Modulus (GPa) = 32.24080 32.43855 32.33968
#
# Velocity S-wave (km/s) = 4.06275 4.07519 4.06898
# Velocity P-wave (km/s) = 7.33185 7.38609 7.35902
#
# Compressibility (1/GPa) = 0.01612572
#
# Stress axis : x y z
#
# Youngs Moduli (GPa) = 76.78750 76.78750 85.19503
#
# Poissons Ratio (x) = 0.19514 0.35304
# Poissons Ratio (y) = 0.19514 0.35304
# Poissons Ratio (z) = 0.31820 0.31820
#
# Static dielectric constant tensor:
#      x y z
#    x 3.595270 0.000000 0.000000 
#    y 0.000000 3.595270 0.000000 
#    z 0.000000 0.000000 3.706490 
# 
# 
# High freq. dielectric constant tensor:
#      x y z
#    x 1.766940 0.000000 0.000000 
#    y 0.000000 1.766940 0.000000 
#    z 0.000000 0.000000 1.776330 
# 
# From -- ./inp_files/1161.got.cif
#   From: 2010.03.12/outbox.cif.g09.slc.cpg/sg192_1_cif.got.tgz:1161.got - 2010.04.01 12:16:15.
