data_PCOD8329394
_publ_section_title
;
Structure prediction by ZEFSAII (Michael W. Deem and Ramdas Pophale) SiO2 
 PCOD8329394
Probable space group: P 6/M C C
;
_chemical_formula_sum "Si O2"
_cell_formula_units_Z 56
_cell_length_a 14.515353
_cell_length_b 14.515353
_cell_length_c 17.981593
_cell_angle_alpha 90.000000
_cell_angle_beta 90.000000
_cell_angle_gamma 120.000000
_cell_volume 3281.058691
_symmetry_space_group_name_H-M "P 6/M C C"
_symmetry_group_IT_number 192
_symmetry_cell_setting 'hexagonal'
loop_
_space_group_symop_operation_xyz
x,y,z
x-y,x,z
-y,x-y,z
-x,-y,z
-x+y,-x,z
y,-x+y,z
x-y,-y,1/2-z
-x,-x+y,1/2-z
y,x,1/2-z
-y,-x,1/2-z
-x+y,y,1/2-z
x,x-y,1/2-z
-x,-y,-z
-x+y,-x,-z
y,-x+y,-z
x,y,-z
x-y,x,-z
-y,x-y,-z
-x+y,y,1/2+z
x,x-y,1/2+z
-y,-x,1/2+z
y,x,1/2+z
x-y,-y,1/2+z
-x,-x+y,1/2+z
loop_
_atom_site_type_symbol
_atom_site_label
_atom_site_fract_x
_atom_site_fract_y
_atom_site_fract_z
Si Si1 0.666668 0.333334 0.162142
Si Si2 0.610936 0.016049 0.587052
Si Si3 0.452153 0.241154 0.087286
O O1 0.666668 0.333334 0.250000
O O2 0.558254 0.321466 0.130942
O O3 0.607245 0.033290 0.500000
O O4 0.715589 0.121106 0.618617
O O5 0.500000 0.000000 0.621619
O O6 0.626277 0.914570 0.603777
O O7 0.478342 0.248740 0.000000
#
# Coordination Sequence:
#
# PCOD8329394 Si02
#       3
#     8  24  24
#     4  12  22  29  43  72 100 125 151 189 238 272
#     4   9  16  26  48  73  89 117 154 193 227 262
#     4  10  18  32  49  68  94 124 159 187 222 276
#
# _framework density 17.067661000000001
#
# number of rings (size 3 to 8) (size 9 to 14) (size 15 to 20)
#    0.000    2.143    4.286    1.286    0.000    0.000 
#    0.000    4.286    0.000    0.857    0.000    6.000 
#    0.000    0.000    0.000    3.857    0.000    4.286 
#
# Total GULP energy -693898.042974 kJ/mol
# GULP energy per Si atom -12391.036482 kJ/mol
# Density = 1.702881 g / cm^3
# Si number density = 17.067661 Si / 1000 Ang^3
#
#
#
# Elastic Constant Matrix: (Units=GPa)
#
#
# Indices 1 2 3 4 5 6 
#
# 1 111.4251 51.5831 11.7865 0.0000 0.0001 0.0003
# 2 51.5831 111.4261 11.7867 0.0001 0.0000 0.0003
# 3 11.7865 11.7867 37.4256 -0.0002 0.0002 0.0001
# 4 0.0000 0.0001 -0.0002 3.4558 0.0000 0.0000
# 5 0.0001 0.0000 0.0002 0.0000 3.4559 0.0000
# 6 0.0003 0.0003 0.0001 0.0000 0.0000 29.9213
#
#
#
# Elastic Compliance Matrix: (Units=1/GPa)
#
#
# Indices 1 2 3 4 5 6 
#
# 1 0.011569 -0.005142 -0.002024 0.000000 0.000000 0.000000
# 2 -0.005142 0.011569 -0.002024 0.000000 0.000000 0.000000
# 3 -0.002024 -0.002024 0.027995 0.000002 -0.000001 0.000000
# 4 0.000000 0.000000 0.000002 0.289368 -0.000001 0.000000
# 5 0.000000 0.000000 -0.000001 -0.000001 0.289360 0.000000
# 6 0.000000 0.000000 0.000000 0.000000 0.000000 0.033421
#
#
# Mechanical properties :
#
#
# Convention : Reuss Voigt Hill
#
# Bulk Modulus (GPa) = 30.53192 45.62103 38.07648
# Shear Modulus (GPa) = 7.21939 19.70796 13.46368
#
# Velocity S-wave (km/s) = 2.05890 3.40177 2.81168
# Velocity P-wave (km/s) = 4.85589 6.49745 5.73570
#
# Compressibility (1/GPa) = 0.03275261
#
# Stress axis : x y z
#
# Youngs Moduli (GPa) = 86.43788 86.43858 35.72113
#
# Poissons Ratio (x) = 0.44443 0.07231
# Poissons Ratio (y) = 0.44443 0.07231
# Poissons Ratio (z) = 0.17496 0.17497
#
# Static dielectric constant tensor:
#      x y z
#    x 3.312000 0.000000 0.000000 
#    y 0.000000 3.311990 0.000000 
#    z 0.000000 0.000000 2.685280 
# 
# 
# High freq. dielectric constant tensor:
#      x y z
#    x 1.651340 0.000000 0.000000 
#    y 0.000000 1.651340 0.000000 
#    z 0.000000 0.000000 1.603330 
# 
# From -- ./inp_files/2152.got.cif
#   From: 2010.03.12/outbox.cif.g09.slc.cpg/sg192_2_cif.got.tgz:2152.got - 2010.04.01 12:16:15.
