data_PCOD8329505
_publ_section_title
;
Structure prediction by ZEFSAII (Michael W. Deem and Ramdas Pophale) SiO2 
 PCOD8329505
Probable space group: P 6/M C C
;
_chemical_formula_sum "Si O2"
_cell_formula_units_Z 168
_cell_length_a 21.546429
_cell_length_b 21.546429
_cell_length_c 21.677359
_cell_angle_alpha 90.000000
_cell_angle_beta 90.000000
_cell_angle_gamma 120.000000
_cell_volume 8715.405675
_symmetry_space_group_name_H-M "P 6/M C C"
_symmetry_group_IT_number 192
_symmetry_cell_setting 'hexagonal'
loop_
_space_group_symop_operation_xyz
x,y,z
x-y,x,z
-y,x-y,z
-x,-y,z
-x+y,-x,z
y,-x+y,z
x-y,-y,1/2-z
-x,-x+y,1/2-z
y,x,1/2-z
-y,-x,1/2-z
-x+y,y,1/2-z
x,x-y,1/2-z
-x,-y,-z
-x+y,-x,-z
y,-x+y,-z
x,y,-z
x-y,x,-z
-y,x-y,-z
-x+y,y,1/2+z
x,x-y,1/2+z
-y,-x,1/2+z
y,x,1/2+z
x-y,-y,1/2+z
-x,-x+y,1/2+z
loop_
_atom_site_type_symbol
_atom_site_label
_atom_site_fract_x
_atom_site_fract_y
_atom_site_fract_z
Si Si1 0.907772 0.283135 0.133767
Si Si2 0.053238 0.391034 0.068435
Si Si3 0.109474 0.950444 0.927486
Si Si4 0.191481 0.876253 0.111477
Si Si5 0.220573 0.918298 0.242880
Si Si6 0.482553 0.684491 0.573471
Si Si7 0.817065 0.466164 0.072771
O O1 0.873997 0.204636 0.101932
O O2 0.905747 0.269476 0.207255
O O3 0.861157 0.318213 0.113948
O O4 0.988150 0.338796 0.112513
O O5 0.106527 0.358488 0.060476
O O6 0.103556 0.471850 0.095820
O O7 0.023837 0.393384 0.000000
O O8 0.161680 0.930477 0.892319
O O9 0.028985 0.898700 0.906158
O O10 0.118227 0.944610 0.000000
O O11 0.235993 0.895789 0.176115
O O12 0.134605 0.865396 0.250000
O O13 0.237916 0.000000 0.250000
O O14 0.497011 0.686137 0.500000
O O15 0.477715 0.752849 0.596906
O O16 0.411232 0.612327 0.593397
O O17 0.817907 0.471670 0.000000
#
# Coordination Sequence:
#
# PCOD8329505 Si02
#       7
#    24  24  24  24  24  24  24
#     4  11  22  36  57  83 113 151 192 241 292 345
#     4  11  21  33  54  85 119 149 184 233 285 346
#     4  10  21  35  53  79 115 155 193 237 296 361
#     4  11  21  36  55  81 109 148 195 241 287 344
#     4  10  22  39  58  81 104 148 198 248 297 343
#     4  10  19  35  59  89 122 158 191 230 288 350
#     4   9  19  34  55  86 124 157 189 228 278 350
#
# _framework density 19.276211
#
# number of rings (size 3 to 8) (size 9 to 14) (size 15 to 20)
#    0.000    1.714    2.857    2.143    2.000    5.143 
#    0.000    2.143    0.000    1.000    0.000    0.000 
#    0.000    0.000    0.000    0.000    0.000    0.000 
#
# Total GULP energy -2081984.988882 kJ/mol
# GULP energy per Si atom -12392.767791 kJ/mol
# Density = 1.923234 g / cm^3
# Si number density = 19.276211 Si / 1000 Ang^3
#
#
#
# Elastic Constant Matrix: (Units=GPa)
#
#
# Indices 1 2 3 4 5 6 
#
# 1 114.2363 41.4502 29.4321 0.0000 0.0000 0.0000
# 2 41.4502 114.2363 29.4321 0.0000 0.0000 0.0000
# 3 29.4321 29.4321 51.4879 0.0000 0.0000 0.0000
# 4 0.0000 0.0000 0.0000 22.0813 0.0000 0.0000
# 5 0.0000 0.0000 0.0000 0.0000 22.0813 0.0000
# 6 0.0000 0.0000 0.0000 0.0000 0.0000 36.3930
#
#
#
# Elastic Compliance Matrix: (Units=1/GPa)
#
#
# Indices 1 2 3 4 5 6 
#
# 1 0.010967 -0.002772 -0.004684 0.000000 0.000000 0.000000
# 2 -0.002772 0.010967 -0.004684 0.000000 0.000000 0.000000
# 3 -0.004684 -0.004684 0.024777 0.000000 0.000000 0.000000
# 4 0.000000 0.000000 0.000000 0.045287 0.000000 0.000000
# 5 0.000000 0.000000 0.000000 0.000000 0.045287 0.000000
# 6 0.000000 0.000000 0.000000 0.000000 0.000000 0.027478
#
#
# Mechanical properties :
#
#
# Convention : Reuss Voigt Hill
#
# Bulk Modulus (GPa) = 44.58453 53.39880 48.99167
# Shear Modulus (GPa) = 25.44276 28.08753 26.76515
#
# Velocity S-wave (km/s) = 3.63699 3.82135 3.73031
# Velocity P-wave (km/s) = 6.38877 6.87258 6.63509
#
# Compressibility (1/GPa) = 0.02242930
#
# Stress axis : x y z
#
# Youngs Moduli (GPa) = 91.18647 91.18647 40.35980
#
# Poissons Ratio (x) = 0.25280 0.18905
# Poissons Ratio (y) = 0.25280 0.18905
# Poissons Ratio (z) = 0.42712 0.42712
#
# Static dielectric constant tensor:
#      x y z
#    x 3.629020 0.000000 0.000000 
#    y 0.000000 3.629020 0.000000 
#    z 0.000000 0.000000 3.411920 
# 
# 
# High freq. dielectric constant tensor:
#      x y z
#    x 1.752250 0.000000 0.000000 
#    y 0.000000 1.752250 0.000000 
#    z 0.000000 0.000000 1.719810 
# 
# From -- ./inp_files/6035.got.cif
#   From: 2010.03.12/outbox.cif.g09.slc.cpg/sg192_4_cif.got.tgz:6035.got - 2010.04.01 12:16:15.
