data_PCOD8329733
_publ_section_title
;
Structure prediction by ZEFSAII (Michael W. Deem and Ramdas Pophale) SiO2 
 PCOD8329733
Probable space group: P 6/M C C
;
_chemical_formula_sum "Si O2"
_cell_formula_units_Z 44
_cell_length_a 12.830357
_cell_length_b 12.830357
_cell_length_c 13.878548
_cell_angle_alpha 90.000000
_cell_angle_beta 90.000000
_cell_angle_gamma 120.000000
_cell_volume 1978.573303
_symmetry_space_group_name_H-M "P 6/M C C"
_symmetry_group_IT_number 192
_symmetry_cell_setting 'hexagonal'
loop_
_space_group_symop_operation_xyz
x,y,z
x-y,x,z
-y,x-y,z
-x,-y,z
-x+y,-x,z
y,-x+y,z
x-y,-y,1/2-z
-x,-x+y,1/2-z
y,x,1/2-z
-y,-x,1/2-z
-x+y,y,1/2-z
x,x-y,1/2-z
-x,-y,-z
-x+y,-x,-z
y,-x+y,-z
x,y,-z
x-y,x,-z
-y,x-y,-z
-x+y,y,1/2+z
x,x-y,1/2+z
-y,-x,1/2+z
y,x,1/2+z
x-y,-y,1/2+z
-x,-x+y,1/2+z
loop_
_atom_site_type_symbol
_atom_site_label
_atom_site_fract_x
_atom_site_fract_y
_atom_site_fract_z
Si Si1 0.626446 0.551639 0.150864
Si Si2 0.333334 0.666667 0.617161
Si Si3 0.055655 0.265126 0.500000
O O1 0.500000 0.500000 0.092654
O O2 0.604797 0.604797 0.250000
O O3 0.658892 0.445835 0.160647
O O4 0.734126 0.659494 0.095844
O O5 0.333334 0.666668 0.500000
O O6 0.149693 0.221437 0.500000
#
# Coordination Sequence:
#
# PCOD8329733 Si02
#       3
#    24   8  12
#     4  11  26  45  72 109 148 189 245 311 377 443
#     4  12  24  46  80 107 149 202 255 301 374 458
#     4  12  26  46  70 100 141 194 246 310 378 462
#
# _framework density 22.238246
#
# number of rings (size 3 to 8) (size 9 to 14) (size 15 to 20)
#    0.000    0.545    2.727    4.364    0.000   19.636 
#    0.000    0.000    0.000    3.273    0.000    0.000 
#    0.000    0.000    0.000    0.000    0.000    0.000 
#
# Total GULP energy -545208.835244 kJ/mol
# GULP energy per Si atom -12391.109892 kJ/mol
# Density = 2.218763 g / cm^3
# Si number density = 22.238246 Si / 1000 Ang^3
#
#
#
# Elastic Constant Matrix: (Units=GPa)
#
#
# Indices 1 2 3 4 5 6 
#
# 1 225.7016 117.2466 71.3141 0.0001 -0.0001 -0.0002
# 2 117.2466 225.7008 71.3142 0.0002 -0.0002 -0.0002
# 3 71.3141 71.3142 144.9822 0.0001 0.0000 -0.0001
# 4 0.0001 0.0002 0.0001 30.0057 -0.0001 0.0000
# 5 -0.0001 -0.0002 0.0000 -0.0001 30.0060 0.0001
# 6 -0.0002 -0.0002 -0.0001 0.0000 0.0001 54.2269
#
#
#
# Elastic Compliance Matrix: (Units=1/GPa)
#
#
# Indices 1 2 3 4 5 6 
#
# 1 0.006443 -0.002777 -0.001803 0.000000 0.000000 0.000000
# 2 -0.002777 0.006443 -0.001803 0.000000 0.000000 0.000000
# 3 -0.001803 -0.001803 0.008671 0.000000 0.000000 0.000000
# 4 0.000000 0.000000 0.000000 0.033327 0.000000 0.000000
# 5 0.000000 0.000000 0.000000 0.000000 0.033327 0.000000
# 6 0.000000 0.000000 0.000000 0.000000 0.000000 0.018441
#
#
# Mechanical properties :
#
#
# Convention : Reuss Voigt Hill
#
# Bulk Modulus (GPa) = 113.76177 124.01494 118.88836
# Shear Modulus (GPa) = 40.86655 45.28172 43.07414
#
# Velocity S-wave (km/s) = 4.29146 4.51733 4.40584
# Velocity P-wave (km/s) = 8.70761 9.11570 8.91399
#
# Compressibility (1/GPa) = 0.00879030
#
# Stress axis : x y z
#
# Youngs Moduli (GPa) = 155.20454 155.20389 115.32341
#
# Poissons Ratio (x) = 0.43105 0.20794
# Poissons Ratio (y) = 0.43105 0.20795
# Poissons Ratio (z) = 0.27985 0.27986
#
# Static dielectric constant tensor:
#      x y z
#    x 4.282040 0.000010 0.000000 
#    y 0.000010 4.282060 -0.000010 
#    z 0.000000 -0.000010 4.143750 
# 
# 
# High freq. dielectric constant tensor:
#      x y z
#    x 1.890230 0.000000 0.000000 
#    y 0.000000 1.890230 0.000000 
#    z 0.000000 0.000000 1.883870 
# 
# From -- ./inp_files/3642.got.cif
#   From: 2010.03.12/outbox.cif.g09.slc.cpg/sg192_2_cif.got.tgz:3642.got - 2010.04.01 12:16:15.
