data_PCOD8329789
_publ_section_title
;
Structure prediction by ZEFSAII (Michael W. Deem and Ramdas Pophale) SiO2 
 PCOD8329789
Probable space group: P 63/M C M
;
_chemical_formula_sum "Si O2"
_cell_formula_units_Z 152
_cell_length_a 25.048504
_cell_length_b 25.048504
_cell_length_c 15.866650
_cell_angle_alpha 90.000000
_cell_angle_beta 90.000000
_cell_angle_gamma 120.000000
_cell_volume 8621.433044
_symmetry_space_group_name_H-M "P 63/M C M"
_symmetry_group_IT_number 193
_symmetry_cell_setting 'hexagonal'
loop_
_space_group_symop_operation_xyz
x,y,z
x-y,x,1/2+z
-y,x-y,z
-x,-y,1/2+z
-x+y,-x,z
y,-x+y,1/2+z
x-y,-y,1/2-z
-x,-x+y,1/2-z
y,x,1/2-z
-y,-x,-z
-x+y,y,-z
x,x-y,-z
-x,-y,-z
-x+y,-x,1/2-z
y,-x+y,-z
x,y,1/2-z
x-y,x,-z
-y,x-y,1/2-z
-x+y,y,1/2+z
x,x-y,1/2+z
-y,-x,1/2+z
y,x,z
x-y,-y,z
-x,-x+y,z
loop_
_atom_site_type_symbol
_atom_site_label
_atom_site_fract_x
_atom_site_fract_y
_atom_site_fract_z
Si Si1 0.702686 0.527991 0.598237
Si Si2 0.666668 0.333334 0.399747
Si Si3 0.233949 0.342291 0.342891
Si Si4 0.739749 0.806923 0.499322
Si Si5 0.596276 0.401435 0.347462
Si Si6 0.822424 0.296202 0.096539
Si Si7 0.764528 0.655534 0.156949
O O1 0.709294 0.588528 0.643910
O O2 0.633838 0.473043 0.616855
O O3 0.713800 0.543851 0.500604
O O4 0.754629 0.511108 0.629473
O O5 0.666668 0.333334 0.500000
O O6 0.623052 0.356983 0.365310
O O7 0.240281 0.318292 0.250000
O O8 0.229483 0.296620 0.416678
O O9 0.173776 0.347909 0.348202
O O10 0.756712 0.878356 0.500000
O O11 0.802296 0.802296 0.497965
O O12 0.701246 0.769150 0.417071
O O13 0.595167 0.413954 0.250000
O O14 0.636394 0.467342 0.391532
O O15 0.877142 0.291525 0.143697
O O16 0.757077 0.678679 0.250000
#
# Coordination Sequence:
#
# PCOD8329789 Si02
#       7
#    24   8  24  24  24  24  24
#     4  10  18  29  44  61  89 129 172 220 274 330
#     4  12  22  32  34  48  82 128 175 225 286 347
#     4   9  17  31  51  75 103 136 174 217 261 303
#     4  10  20  36  58  86 117 145 171 201 239 285
#     4  12  22  28  38  58  86 127 175 225 279 342
#     4  10  18  29  44  61  89 129 172 220 274 330
#     4   9  17  31  51  75 103 136 174 217 261 303
#
# _framework density 17.630479999999999
#
# number of rings (size 3 to 8) (size 9 to 14) (size 15 to 20)
#    0.000    1.895    3.158    2.842    0.000    1.895 
#    0.000    0.000    0.000    0.158    0.000    2.211 
#    0.000    3.789    0.000    7.895    0.000    0.000 
#
# Total GULP energy -1883880.575789 kJ/mol
# GULP energy per Si atom -12393.951157 kJ/mol
# Density = 1.759035 g / cm^3
# Si number density = 17.630480 Si / 1000 Ang^3
#
#
#
# Elastic Constant Matrix: (Units=GPa)
#
#
# Indices 1 2 3 4 5 6 
#
# 1 69.2769 37.3661 24.8561 0.0000 0.0000 0.0001
# 2 37.3661 69.2772 24.8561 -0.0001 0.0000 0.0001
# 3 24.8561 24.8561 116.9318 0.0000 0.0000 0.0000
# 4 0.0000 -0.0001 0.0000 2.5816 -0.0001 0.0000
# 5 0.0000 0.0000 0.0000 -0.0001 2.5818 0.0000
# 6 0.0001 0.0001 0.0000 0.0000 0.0000 15.9555
#
#
#
# Elastic Compliance Matrix: (Units=1/GPa)
#
#
# Indices 1 2 3 4 5 6 
#
# 1 0.020873 -0.010464 -0.002213 0.000000 0.000000 0.000000
# 2 -0.010464 0.020873 -0.002213 0.000000 0.000000 0.000000
# 3 -0.002213 -0.002213 0.009493 0.000000 0.000000 0.000000
# 4 0.000000 0.000000 0.000000 0.387360 0.000014 0.000000
# 5 0.000000 0.000000 0.000000 0.000014 0.387328 0.000000
# 6 0.000000 0.000000 0.000000 0.000000 0.000000 0.062674
#
#
# Mechanical properties :
#
#
# Convention : Reuss Voigt Hill
#
# Bulk Modulus (GPa) = 46.59952 47.73804 47.16878
# Shear Modulus (GPa) = 5.40229 15.45096 10.42663
#
# Velocity S-wave (km/s) = 1.75238 2.96358 2.43451
# Velocity P-wave (km/s) = 5.53019 6.23267 5.89191
#
# Compressibility (1/GPa) = 0.02145945
#
# Stress axis : x y z
#
# Youngs Moduli (GPa) = 47.90917 47.90936 105.34500
#
# Poissons Ratio (x) = 0.50134 0.23308
# Poissons Ratio (y) = 0.50134 0.23308
# Poissons Ratio (z) = 0.10600 0.10600
#
# Static dielectric constant tensor:
#      x y z
#    x 2.958160 0.000000 0.000000 
#    y 0.000000 2.958160 0.000000 
#    z 0.000000 0.000000 3.597440 
# 
# 
# High freq. dielectric constant tensor:
#      x y z
#    x 1.641990 0.000000 0.000000 
#    y 0.000000 1.641990 0.000000 
#    z 0.000000 0.000000 1.704160 
# 
# From -- ./inp_files/4308.got.cif
#   From: 2010.03.12/outbox.cif.g09.slc.cpg/sg193_3_cif.got.tgz:4308.got - 2010.04.01 12:20:39.
