data_PCOD8329122
_publ_section_title
;
Structure prediction by ZEFSAII (Michael W. Deem and Ramdas Pophale) SiO2 
 PCOD8329122
Probable space group: P 6/M M M
;
_chemical_formula_sum "Si O2"
_cell_formula_units_Z 100
_cell_length_a 27.443110
_cell_length_b 27.443110
_cell_length_c 7.672900
_cell_angle_alpha 90.000000
_cell_angle_beta 90.000000
_cell_angle_gamma 120.000000
_cell_volume 5004.455394
_symmetry_space_group_name_H-M "P 6/M M M"
_symmetry_group_IT_number 191
_symmetry_cell_setting 'hexagonal'
loop_
_space_group_symop_operation_xyz
x,y,z
x-y,x,z
-y,x-y,z
-x,-y,z
-x+y,-x,z
y,-x+y,z
x-y,-y,-z
-x,-x+y,-z
y,x,-z
-y,-x,-z
-x+y,y,-z
x,x-y,-z
-x,-y,-z
-x+y,-x,-z
y,-x+y,-z
x,y,-z
x-y,x,-z
-y,x-y,-z
-x+y,y,z
x,x-y,z
-y,-x,z
y,x,z
x-y,-y,z
-x,-x+y,z
loop_
_atom_site_type_symbol
_atom_site_label
_atom_site_fract_x
_atom_site_fract_y
_atom_site_fract_z
Si Si1 0.730544 0.269457 0.801398
Si Si2 0.475765 0.842959 0.202262
Si Si3 0.666668 0.333334 0.708032
Si Si4 0.594424 0.657436 0.295004
Si Si5 0.172115 0.937313 0.000000
Si Si6 0.676936 0.783192 0.700600
O O1 0.690985 0.207684 0.712554
O O2 0.697334 0.302667 0.787302
O O3 0.740721 0.259280 0.000000
O O4 0.422304 0.844607 0.287088
O O5 0.531053 0.903032 0.226913
O O6 0.463180 0.829545 0.000000
O O7 0.666667 0.333334 0.500000
O O8 0.593352 0.652753 0.500000
O O9 0.624974 0.624974 0.214891
O O10 0.627616 0.722543 0.237196
O O11 0.199605 0.929279 0.825265
O O12 0.105400 0.894601 0.000000
O O13 0.181959 0.000000 0.000000
O O14 0.695020 0.781825 0.500000
O O15 0.654546 0.827273 0.722235
#
# Coordination Sequence:
#
# PCOD8329122 Si02
#       6
#    12  24   4  24  12  24
#     4  10  20  40  60  78 108 141 169 216 286 340
#     4  10  22  38  58  80 102 138 183 227 272 326
#     4  12  22  32  58  90 109 131 172 222 280 341
#     4  10  22  38  55  77 110 148 179 219 277 332
#     4  10  20  34  56  85 115 153 193 235 279 327
#     4   9  19  36  57  84 116 149 186 231 284 340
#
# _framework density 19.982192999999999
#
# number of rings (size 3 to 8) (size 9 to 14) (size 15 to 20)
#    0.000    2.160    1.200    1.080    3.360    3.840 
#    0.000    2.400    0.000    0.120    0.000    0.000 
#    0.000    0.000    0.000    6.000    0.000    0.000 
#
# Total GULP energy -1239550.694188 kJ/mol
# GULP energy per Si atom -12395.506942 kJ/mol
# Density = 1.993671 g / cm^3
# Si number density = 19.982193 Si / 1000 Ang^3
#
#
#
# Elastic Constant Matrix: (Units=GPa)
#
#
# Indices 1 2 3 4 5 6 
#
# 1 148.0215 90.6595 20.3358 0.0001 0.0000 0.0005
# 2 90.6595 148.0214 20.3361 -0.0001 0.0000 -0.0005
# 3 20.3358 20.3361 45.4404 0.0001 0.0000 0.0000
# 4 0.0001 -0.0001 0.0001 16.7202 0.0000 0.0000
# 5 0.0000 0.0000 0.0000 0.0000 16.7202 -0.0001
# 6 0.0005 -0.0005 0.0000 0.0000 -0.0001 28.6823
#
#
#
# Elastic Compliance Matrix: (Units=1/GPa)
#
#
# Indices 1 2 3 4 5 6 
#
# 1 0.010984 -0.006449 -0.002030 0.000000 0.000000 0.000000
# 2 -0.006449 0.010984 -0.002030 0.000000 0.000000 0.000000
# 3 -0.002030 -0.002030 0.023824 0.000000 0.000000 0.000000
# 4 0.000000 0.000000 0.000000 0.059808 0.000000 0.000000
# 5 0.000000 0.000000 0.000000 0.000000 0.059808 0.000000
# 6 0.000000 0.000000 0.000000 0.000000 0.000000 0.034865
#
#
# Mechanical properties :
#
#
# Convention : Reuss Voigt Hill
#
# Bulk Modulus (GPa) = 40.36233 67.12734 53.74484
# Shear Modulus (GPa) = 21.78190 26.43466 24.10828
#
# Velocity S-wave (km/s) = 3.30520 3.64113 3.47722
# Velocity P-wave (km/s) = 5.89990 7.16545 6.56325
#
# Compressibility (1/GPa) = 0.02477557
#
# Stress axis : x y z
#
# Youngs Moduli (GPa) = 91.03862 91.03842 41.97510
#
# Poissons Ratio (x) = 0.58709 0.08520
# Poissons Ratio (y) = 0.58709 0.08520
# Poissons Ratio (z) = 0.18479 0.18480
#
# Static dielectric constant tensor:
#      x y z
#    x 3.815710 0.000000 0.000000 
#    y 0.000000 3.815700 0.000000 
#    z 0.000000 0.000000 3.525940 
# 
# 
# High freq. dielectric constant tensor:
#      x y z
#    x 1.772120 0.000000 0.000000 
#    y 0.000000 1.772110 0.000000 
#    z 0.000000 0.000000 1.771520 
# 
# From -- ./inp_files/1449.got.cif
#   From: 2010.03.12/outbox.cif.g09.slc.cpg/sg191_1_cif.got.tgz:1449.got - 2010.04.01 12:09:02.
