data_PCOD8329442
_publ_section_title
;
Structure prediction by ZEFSAII (Michael W. Deem and Ramdas Pophale) SiO2 
 PCOD8329442
Probable space group: P 6/M C C
;
_chemical_formula_sum "Si O2"
_cell_formula_units_Z 104
_cell_length_a 18.514526
_cell_length_b 18.514526
_cell_length_c 17.387379
_cell_angle_alpha 90.000000
_cell_angle_beta 90.000000
_cell_angle_gamma 120.000000
_cell_volume 5161.666587
_symmetry_space_group_name_H-M "P 6/M C C"
_symmetry_group_IT_number 192
_symmetry_cell_setting 'hexagonal'
loop_
_space_group_symop_operation_xyz
x,y,z
x-y,x,z
-y,x-y,z
-x,-y,z
-x+y,-x,z
y,-x+y,z
x-y,-y,1/2-z
-x,-x+y,1/2-z
y,x,1/2-z
-y,-x,1/2-z
-x+y,y,1/2-z
x,x-y,1/2-z
-x,-y,-z
-x+y,-x,-z
y,-x+y,-z
x,y,-z
x-y,x,-z
-y,x-y,-z
-x+y,y,1/2+z
x,x-y,1/2+z
-y,-x,1/2+z
y,x,1/2+z
x-y,-y,1/2+z
-x,-x+y,1/2+z
loop_
_atom_site_type_symbol
_atom_site_label
_atom_site_fract_x
_atom_site_fract_y
_atom_site_fract_z
Si Si1 0.666668 0.333334 0.408533
Si Si2 0.254805 0.911708 0.587534
Si Si3 0.151040 0.169253 0.159882
Si Si4 0.963525 0.553395 0.087613
Si Si5 0.211484 0.480288 0.908124
O O1 0.666667 0.333334 0.500000
O O2 0.571263 0.282333 0.378150
O O3 0.222839 0.904884 0.500000
O O4 0.223796 0.963114 0.638133
O O5 0.226916 0.820387 0.622546
O O6 0.353066 0.963687 0.591941
O O7 0.161943 0.095049 0.124407
O O8 0.154495 0.154495 0.250000
O O9 0.877703 0.538468 0.125923
O O10 0.000000 0.500000 0.129122
O O11 0.940154 0.522023 0.000000
O O12 0.212422 0.477782 0.000000
#
# Coordination Sequence:
#
# PCOD8329442 Si02
#       5
#     8  24  24  24  24
#     4   9  15  24  39  63  99 139 173 202 238 287
#     4  10  19  31  49  74 102 129 161 205 253 295
#     4  10  21  37  55  73  95 126 163 200 240 292
#     4   9  16  26  41  64  96 131 163 197 241 291
#     4   9  16  25  39  62  94 131 166 201 242 288
#
# _framework density 20.148531999999999
#
# number of rings (size 3 to 8) (size 9 to 14) (size 15 to 20)
#    0.000    2.538    0.000    3.000    0.000    9.231 
#    0.000    0.000    0.000    2.077    0.000    0.000 
#    0.000    5.538    0.000    0.000    0.000    0.000 
#
# Total GULP energy -1288950.192555 kJ/mol
# GULP energy per Si atom -12393.751851 kJ/mol
# Density = 2.010267 g / cm^3
# Si number density = 20.148532 Si / 1000 Ang^3
#
#
#
# Elastic Constant Matrix: (Units=GPa)
#
#
# Indices 1 2 3 4 5 6 
#
# 1 143.1167 50.3868 19.0686 0.0000 0.0000 0.0002
# 2 50.3868 143.1181 19.0685 -0.0001 0.0000 0.0001
# 3 19.0686 19.0685 7.9978 0.0000 0.0000 0.0000
# 4 0.0000 -0.0001 0.0000 13.8468 0.0000 0.0000
# 5 0.0000 0.0000 0.0000 0.0000 13.8470 0.0000
# 6 0.0002 0.0001 0.0000 0.0000 0.0000 46.3649
#
#
#
# Elastic Compliance Matrix: (Units=1/GPa)
#
#
# Indices 1 2 3 4 5 6 
#
# 1 0.010266 -0.000518 -0.023243 0.000000 0.000000 0.000000
# 2 -0.000518 0.010266 -0.023243 0.000000 0.000000 0.000000
# 3 -0.023243 -0.023243 0.235867 0.000000 0.000000 0.000000
# 4 0.000000 0.000000 0.000000 0.072219 0.000000 0.000000
# 5 0.000000 0.000000 0.000000 0.000000 0.072218 0.000000
# 6 0.000000 0.000000 0.000000 0.000000 0.000000 0.021568
#
#
# Mechanical properties :
#
#
# Convention : Reuss Voigt Hill
#
# Bulk Modulus (GPa) = 6.15793 52.36447 29.26120
# Shear Modulus (GPa) = 8.76358 28.52566 18.64462
#
# Velocity S-wave (km/s) = 2.08781 3.76675 3.04527
# Velocity P-wave (km/s) = 2.97906 6.70549 5.18837
#
# Compressibility (1/GPa) = 0.16239226
#
# Stress axis : x y z
#
# Youngs Moduli (GPa) = 97.40481 97.40656 4.23967
#
# Poissons Ratio (x) = 0.05042 0.09854
# Poissons Ratio (y) = 0.05042 0.09854
# Poissons Ratio (z) = 2.26402 2.26401
#
# Static dielectric constant tensor:
#      x y z
#    x 3.903600 0.000000 0.000000 
#    y 0.000000 3.903600 0.000000 
#    z 0.000000 0.000000 2.974230 
# 
# 
# High freq. dielectric constant tensor:
#      x y z
#    x 1.807300 0.000000 0.000000 
#    y 0.000000 1.807300 0.000000 
#    z 0.000000 0.000000 1.700900 
# 
# From -- ./inp_files/4868.got.cif
#   From: 2010.03.12/outbox.cif.g09.slc.cpg/sg192_3_cif.got.tgz:4868.got - 2010.04.01 12:16:15.
