data_PCOD8329764
_publ_section_title
;
Structure prediction by ZEFSAII (Michael W. Deem and Ramdas Pophale) SiO2 
 PCOD8329764
Probable space group: P 63/M C M
;
_chemical_formula_sum "Si O2"
_cell_formula_units_Z 144
_cell_length_a 21.214514
_cell_length_b 21.214514
_cell_length_c 21.058879
_cell_angle_alpha 90.000000
_cell_angle_beta 90.000000
_cell_angle_gamma 120.000000
_cell_volume 8207.899969
_symmetry_space_group_name_H-M "P 63/M C M"
_symmetry_group_IT_number 193
_symmetry_cell_setting 'hexagonal'
loop_
_space_group_symop_operation_xyz
x,y,z
x-y,x,1/2+z
-y,x-y,z
-x,-y,1/2+z
-x+y,-x,z
y,-x+y,1/2+z
x-y,-y,1/2-z
-x,-x+y,1/2-z
y,x,1/2-z
-y,-x,-z
-x+y,y,-z
x,x-y,-z
-x,-y,-z
-x+y,-x,1/2-z
y,-x+y,-z
x,y,1/2-z
x-y,x,-z
-y,x-y,1/2-z
-x+y,y,1/2+z
x,x-y,1/2+z
-y,-x,1/2+z
y,x,z
x-y,-y,z
-x,-x+y,z
loop_
_atom_site_type_symbol
_atom_site_label
_atom_site_fract_x
_atom_site_fract_y
_atom_site_fract_z
Si Si1 0.238912 0.080561 0.060248
Si Si2 0.916191 0.596020 0.130265
Si Si3 0.876421 0.267278 0.008335
Si Si4 0.913597 0.331945 0.364750
Si Si5 0.839774 0.672569 0.822209
Si Si6 0.549046 0.082280 0.177157
O O1 0.308750 0.079895 0.033296
O O2 0.262694 0.130724 0.124296
O O3 0.178105 0.000000 0.081398
O O4 0.207124 0.103562 0.000000
O O5 0.869624 0.623128 0.169391
O O6 0.882369 0.509231 0.141603
O O7 0.000000 0.641462 0.153565
O O8 0.912803 0.605893 0.055885
O O9 0.889700 0.326501 0.061663
O O10 0.790919 0.209082 0.000000
O O11 0.875909 0.253545 0.331300
O O12 0.881157 0.380402 0.335214
O O13 0.000000 0.367728 0.354774
O O14 0.856402 0.704346 0.750000
O O15 0.568745 0.086836 0.250000
O O16 0.500949 0.000000 0.152520
#
# Coordination Sequence:
#
# PCOD8329764 Si02
#       6
#    24  24  24  24  24  24
#     4  10  19  33  52  76 105 141 177 215 264 315
#     4  11  20  33  52  76 109 139 170 210 260 322
#     4  10  17  31  51  77 104 133 171 214 260 307
#     4  10  19  33  53  75 100 133 175 216 257 304
#     4  11  21  32  51  79 107 140 176 216 266 314
#     4   9  19  33  48  70 101 135 167 208 259 306
#
# _framework density 17.544073000000001
#
# number of rings (size 3 to 8) (size 9 to 14) (size 15 to 20)
#    0.000    1.833    5.000    4.000    0.000    3.667 
#    0.000    2.500    0.000    0.833    0.000    2.333 
#    0.000    0.000    0.000    0.000    0.000    0.000 
#
# Total GULP energy -1784351.174467 kJ/mol
# GULP energy per Si atom -12391.327600 kJ/mol
# Density = 1.750414 g / cm^3
# Si number density = 17.544073 Si / 1000 Ang^3
#
#
#
# Elastic Constant Matrix: (Units=GPa)
#
#
# Indices 1 2 3 4 5 6 
#
# 1 70.5833 26.1206 20.1073 0.0000 0.0000 0.0000
# 2 26.1206 70.5833 20.1073 0.0000 0.0000 0.0000
# 3 20.1073 20.1073 106.7008 0.0000 0.0000 0.0000
# 4 0.0000 0.0000 0.0000 19.3170 0.0000 0.0000
# 5 0.0000 0.0000 0.0000 0.0000 19.3170 0.0000
# 6 0.0000 0.0000 0.0000 0.0000 0.0000 22.2313
#
#
#
# Elastic Compliance Matrix: (Units=1/GPa)
#
#
# Indices 1 2 3 4 5 6 
#
# 1 0.016855 -0.005635 -0.002114 0.000000 0.000000 0.000000
# 2 -0.005635 0.016855 -0.002114 0.000000 0.000000 0.000000
# 3 -0.002114 -0.002114 0.010169 0.000000 0.000000 0.000000
# 4 0.000000 0.000000 0.000000 0.051768 0.000000 0.000000
# 5 0.000000 0.000000 0.000000 0.000000 0.051768 0.000000
# 6 0.000000 0.000000 0.000000 0.000000 0.000000 0.044982
#
#
# Mechanical properties :
#
#
# Convention : Reuss Voigt Hill
#
# Bulk Modulus (GPa) = 41.40514 42.28200 41.84357
# Shear Modulus (GPa) = 22.70913 24.27521 23.49217
#
# Velocity S-wave (km/s) = 3.60169 3.72381 3.66326
# Velocity P-wave (km/s) = 6.39907 6.53007 6.46490
#
# Compressibility (1/GPa) = 0.02415159
#
# Stress axis : x y z
#
# Youngs Moduli (GPa) = 59.32799 59.32799 98.33914
#
# Poissons Ratio (x) = 0.33433 0.20793
# Poissons Ratio (y) = 0.33433 0.20793
# Poissons Ratio (z) = 0.12544 0.12544
#
# Static dielectric constant tensor:
#      x y z
#    x 3.166020 0.000000 0.000000 
#    y 0.000000 3.166020 0.000000 
#    z 0.000000 0.000000 3.510980 
# 
# 
# High freq. dielectric constant tensor:
#      x y z
#    x 1.652440 0.000000 0.000000 
#    y 0.000000 1.652440 0.000000 
#    z 0.000000 0.000000 1.694230 
# 
# From -- ./inp_files/6616.got.cif
#   From: 2010.03.12/outbox.cif.g09.slc.cpg/sg193_4_cif.got.tgz:6616.got - 2010.04.01 12:20:39.
