data_PCOD8329292
_publ_section_title
;
Structure prediction by ZEFSAII (Michael W. Deem and Ramdas Pophale) SiO2 
 PCOD8329292
Probable space group: P 6/M M M
;
_chemical_formula_sum "Si O2"
_cell_formula_units_Z 96
_cell_length_a 22.850132
_cell_length_b 22.850132
_cell_length_c 14.949800
_cell_angle_alpha 90.000000
_cell_angle_beta 90.000000
_cell_angle_gamma 120.000000
_cell_volume 6759.949333
_symmetry_space_group_name_H-M "P 6/M M M"
_symmetry_group_IT_number 191
_symmetry_cell_setting 'hexagonal'
loop_
_space_group_symop_operation_xyz
x,y,z
x-y,x,z
-y,x-y,z
-x,-y,z
-x+y,-x,z
y,-x+y,z
x-y,-y,-z
-x,-x+y,-z
y,x,-z
-y,-x,-z
-x+y,y,-z
x,x-y,-z
-x,-y,-z
-x+y,-x,-z
y,-x+y,-z
x,y,-z
x-y,x,-z
-y,x-y,-z
-x+y,y,z
x,x-y,z
-y,-x,z
y,x,z
x-y,-y,z
-x,-x+y,z
loop_
_atom_site_type_symbol
_atom_site_label
_atom_site_fract_x
_atom_site_fract_y
_atom_site_fract_z
Si Si1 0.725429 0.926202 0.894013
Si Si2 0.671869 0.592169 0.902200
Si Si3 0.198057 0.531119 0.395635
Si Si4 0.076251 0.607042 0.727414
O O1 0.744724 0.872362 0.854027
O O2 0.647300 0.900054 0.871292
O O3 0.775012 0.000000 0.851272
O O4 0.734117 0.931151 0.000000
O O5 0.629105 0.629105 0.913274
O O6 0.639472 0.535846 0.825324
O O7 0.672271 0.560300 0.000000
O O8 0.184128 0.515632 0.500000
O O9 0.263047 0.526094 0.364671
O O10 0.212638 0.606319 0.372995
O O11 0.130629 0.474216 0.345458
O O12 0.072347 0.536174 0.725020
O O13 0.000000 0.594173 0.708353
#
# Coordination Sequence:
#
# PCOD8329292 Si02
#       4
#    24  24  24  24
#     4   8  13  21  33  48  66  90 120 152 183 213
#     4   8  14  24  36  51  73  99 124 148 175 212
#     4   9  17  29  44  59  74  95 125 158 188 219
#     4   9  17  27  39  58  81 100 119 147 186 227
#
# _framework density 14.201288999999999
#
# number of rings (size 3 to 8) (size 9 to 14) (size 15 to 20)
#    0.000    3.500    0.000    1.750    0.000    3.000 
#    0.000    5.000    0.000    0.250    0.000    1.750 
#    0.000    2.000    0.000    0.000    0.000    0.000 
#
# Total GULP energy -1189272.536855 kJ/mol
# GULP energy per Si atom -12388.255592 kJ/mol
# Density = 1.416897 g / cm^3
# Si number density = 14.201289 Si / 1000 Ang^3
#
#
#
# Elastic Constant Matrix: (Units=GPa)
#
#
# Indices 1 2 3 4 5 6 
#
# 1 49.7603 31.1184 34.3689 0.0000 0.0000 0.0000
# 2 31.1184 49.7603 34.3689 0.0000 0.0000 0.0000
# 3 34.3689 34.3689 60.4843 0.0000 0.0000 0.0000
# 4 0.0000 0.0000 0.0000 14.3789 0.0000 0.0000
# 5 0.0000 0.0000 0.0000 0.0000 14.3789 0.0000
# 6 0.0000 0.0000 0.0000 0.0000 0.0000 9.3209
#
#
#
# Elastic Compliance Matrix: (Units=1/GPa)
#
#
# Indices 1 2 3 4 5 6 
#
# 1 0.038777 -0.014865 -0.013587 0.000000 0.000000 0.000000
# 2 -0.014865 0.038777 -0.013587 0.000000 0.000000 0.000000
# 3 -0.013587 -0.013587 0.031975 0.000000 0.000000 0.000000
# 4 0.000000 0.000000 0.000000 0.069546 0.000000 0.000000
# 5 0.000000 0.000000 0.000000 0.000000 0.069546 0.000000
# 6 0.000000 0.000000 0.000000 0.000000 0.000000 0.107285
#
#
# Mechanical properties :
#
#
# Convention : Reuss Voigt Hill
#
# Bulk Modulus (GPa) = 39.29439 39.96856 39.63147
# Shear Modulus (GPa) = 11.14900 11.62566 11.38733
#
# Velocity S-wave (km/s) = 2.80495 2.86428 2.83477
# Velocity P-wave (km/s) = 6.18223 6.25654 6.21949
#
# Compressibility (1/GPa) = 0.02544893
#
# Stress axis : x y z
#
# Youngs Moduli (GPa) = 25.78827 25.78827 31.27468
#
# Poissons Ratio (x) = 0.38335 0.42494
# Poissons Ratio (y) = 0.38335 0.42494
# Poissons Ratio (z) = 0.35040 0.35040
#
# Static dielectric constant tensor:
#      x y z
#    x 2.935730 0.000000 0.000000 
#    y 0.000000 2.935730 0.000000 
#    z 0.000000 0.000000 3.871590 
# 
# 
# High freq. dielectric constant tensor:
#      x y z
#    x 1.527380 0.000000 0.000000 
#    y 0.000000 1.527380 0.000000 
#    z 0.000000 0.000000 1.514820 
# 
# From -- ./inp_files/2720.got.cif
#   From: 2010.03.12/outbox.cif.g09.slc.cpg/sg191_2_cif.got.tgz:2720.got - 2010.04.01 12:09:02.
