data_PCOD8329382
_publ_section_title
;
Structure prediction by ZEFSAII (Michael W. Deem and Ramdas Pophale) SiO2 
 PCOD8329382
Probable space group: P 6/M C C
;
_chemical_formula_sum "Si O2"
_cell_formula_units_Z 120
_cell_length_a 20.207328
_cell_length_b 20.207328
_cell_length_c 20.608450
_cell_angle_alpha 90.000000
_cell_angle_beta 90.000000
_cell_angle_gamma 120.000000
_cell_volume 7287.754635
_symmetry_space_group_name_H-M "P 6/M C C"
_symmetry_group_IT_number 192
_symmetry_cell_setting 'hexagonal'
loop_
_space_group_symop_operation_xyz
x,y,z
x-y,x,z
-y,x-y,z
-x,-y,z
-x+y,-x,z
y,-x+y,z
x-y,-y,1/2-z
-x,-x+y,1/2-z
y,x,1/2-z
-y,-x,1/2-z
-x+y,y,1/2-z
x,x-y,1/2-z
-x,-y,-z
-x+y,-x,-z
y,-x+y,-z
x,y,-z
x-y,x,-z
-y,x-y,-z
-x+y,y,1/2+z
x,x-y,1/2+z
-y,-x,1/2+z
y,x,1/2+z
x-y,-y,1/2+z
-x,-x+y,1/2+z
loop_
_atom_site_type_symbol
_atom_site_label
_atom_site_fract_x
_atom_site_fract_y
_atom_site_fract_z
Si Si1 0.761250 0.670168 0.500000
Si Si2 0.908497 0.454249 0.324247
Si Si3 0.087828 0.769699 0.750000
Si Si4 0.089331 0.406736 0.627720
Si Si5 0.091082 0.329831 0.500000
Si Si6 0.089332 0.406736 0.127720
O O1 0.735302 0.735302 0.500000
O O2 0.854524 0.709049 0.500000
O O3 0.729591 0.613637 0.438698
O O4 0.879403 0.439702 0.250000
O O5 0.875157 0.502307 0.361414
O O6 0.875156 0.372850 0.361414
O O7 0.000000 0.500000 0.324207
O O8 0.138197 0.861804 0.750000
O O9 0.111605 0.739757 0.812434
O O10 0.111605 0.739757 0.687566
O O11 0.000000 0.747695 0.750000
O O12 0.115953 0.386363 0.561302
O O13 1.000000 0.371725 0.625432
#
# Coordination Sequence:
#
# PCOD8329382 Si02
#       6
#    12  24  24  24  12  24
#     4  10  20  33  47  68 101 135 169 211 262 310
#     4   9  14  25  45  69  99 123 141 175 231 291
#     4  10  18  29  45  66  93 125 163 207 256 304
#     4   9  17  28  45  68  95 123 150 190 241 294
#     4  10  20  33  47  68 101 135 169 211 262 310
#     4   9  17  28  45  68  95 123 150 190 241 294
#
# _framework density 16.465976999999999
#
# number of rings (size 3 to 8) (size 9 to 14) (size 15 to 20)
#    0.000    2.600    2.000    1.200    0.000    0.800 
#    0.000    4.000    0.000    0.400    0.000    0.000 
#   40.000    9.600    0.000    0.000    0.000    1.600 
#
# Total GULP energy -1486762.036619 kJ/mol
# GULP energy per Si atom -12389.683638 kJ/mol
# Density = 1.642850 g / cm^3
# Si number density = 16.465977 Si / 1000 Ang^3
#
#
#
# Elastic Constant Matrix: (Units=GPa)
#
#
# Indices 1 2 3 4 5 6 
#
# 1 85.1448 56.1221 38.8759 0.0000 0.0000 0.0000
# 2 56.1221 85.1448 38.8759 0.0000 0.0000 0.0000
# 3 38.8759 38.8759 138.8801 0.0000 0.0000 0.0000
# 4 0.0000 0.0000 0.0000 50.1317 0.0000 0.0000
# 5 0.0000 0.0000 0.0000 0.0000 50.1317 0.0000
# 6 0.0000 0.0000 0.0000 0.0000 0.0000 14.5114
#
#
#
# Elastic Compliance Matrix: (Units=1/GPa)
#
#
# Indices 1 2 3 4 5 6 
#
# 1 0.021412 -0.013044 -0.002342 0.000000 0.000000 0.000000
# 2 -0.013044 0.021412 -0.002342 0.000000 0.000000 0.000000
# 3 -0.002342 -0.002342 0.008512 0.000000 0.000000 0.000000
# 4 0.000000 0.000000 0.000000 0.019947 0.000000 0.000000
# 5 0.000000 0.000000 0.000000 0.000000 0.019947 0.000000
# 6 0.000000 0.000000 0.000000 0.000000 0.000000 0.068911
#
#
# Mechanical properties :
#
#
# Convention : Reuss Voigt Hill
#
# Bulk Modulus (GPa) = 62.97919 64.10197 63.54058
# Shear Modulus (GPa) = 24.88897 34.64133 29.76515
#
# Velocity S-wave (km/s) = 3.89207 4.59171 4.25629
# Velocity P-wave (km/s) = 7.65041 8.19306 7.92638
#
# Compressibility (1/GPa) = 0.01587826
#
# Stress axis : x y z
#
# Youngs Moduli (GPa) = 46.70302 46.70302 117.48315
#
# Poissons Ratio (x) = 0.60919 0.27519
# Poissons Ratio (y) = 0.60919 0.27519
# Poissons Ratio (z) = 0.10940 0.10940
#
# Static dielectric constant tensor:
#      x y z
#    x 3.015200 0.000000 0.000000 
#    y 0.000000 3.015200 0.000000 
#    z 0.000000 0.000000 3.046300 
# 
# 
# High freq. dielectric constant tensor:
#      x y z
#    x 1.604120 0.000000 0.000000 
#    y 0.000000 1.604120 0.000000 
#    z 0.000000 0.000000 1.650120 
# 
# From -- ./inp_files/4229.got.cif
#   From: 2010.03.12/outbox.cif.g09.slc.cpg/sg192_3_cif.got.tgz:4229.got - 2010.04.01 12:16:15.
