data_PCOD8329374
_publ_section_title
;
Structure prediction by ZEFSAII (Michael W. Deem and Ramdas Pophale) SiO2 
 PCOD8329374
Probable space group: P 6/M C C
;
_chemical_formula_sum "Si O2"
_cell_formula_units_Z 192
_cell_length_a 29.074476
_cell_length_b 29.074476
_cell_length_c 17.789690
_cell_angle_alpha 90.000000
_cell_angle_beta 90.000000
_cell_angle_gamma 120.000000
_cell_volume 13023.352766
_symmetry_space_group_name_H-M "P 6/M C C"
_symmetry_group_IT_number 192
_symmetry_cell_setting 'hexagonal'
loop_
_space_group_symop_operation_xyz
x,y,z
x-y,x,z
-y,x-y,z
-x,-y,z
-x+y,-x,z
y,-x+y,z
x-y,-y,1/2-z
-x,-x+y,1/2-z
y,x,1/2-z
-y,-x,1/2-z
-x+y,y,1/2-z
x,x-y,1/2-z
-x,-y,-z
-x+y,-x,-z
y,-x+y,-z
x,y,-z
x-y,x,-z
-y,x-y,-z
-x+y,y,1/2+z
x,x-y,1/2+z
-y,-x,1/2+z
y,x,1/2+z
x-y,-y,1/2+z
-x,-x+y,1/2+z
loop_
_atom_site_type_symbol
_atom_site_label
_atom_site_fract_x
_atom_site_fract_y
_atom_site_fract_z
Si Si1 0.692361 0.580764 0.160433
Si Si2 0.888402 0.307638 0.339567
Si Si3 0.417174 0.938651 0.086541
Si Si4 0.849789 0.699577 0.333233
Si Si5 0.692471 0.938747 0.412842
Si Si6 0.417174 0.478523 0.086541
Si Si7 0.213104 0.786897 0.331923
Si Si8 0.692471 0.753723 0.587158
O O1 0.698426 0.587654 0.250000
O O2 0.632931 0.537381 0.139097
O O3 0.730971 0.558848 0.128231
O O4 0.709425 0.637780 0.125166
O O5 0.904449 0.367068 0.360903
O O6 0.928354 0.290574 0.374835
O O7 0.827876 0.269028 0.371769
O O8 0.459927 0.919853 0.101305
O O9 0.442476 1.000000 0.108329
O O10 0.399213 0.929823 0.000000
O O11 0.862847 0.725694 0.250000
O O12 0.812371 0.716883 0.377272
O O13 0.818452 0.636904 0.325058
O O14 0.904513 0.716882 0.377273
O O15 0.680575 0.923944 0.500000
O O16 0.735975 1.000000 0.400653
O O17 0.399213 0.469390 0.000000
O O18 0.226598 0.773403 0.250000
O O19 0.680575 0.756630 0.500000
#
# Coordination Sequence:
#
# PCOD8329374 Si02
#       8
#    24  24  24  24  24  24  24  24
#     4  10  18  28  43  61  82 107 138 174 208 243
#     4  10  18  28  43  61  82 107 138 174 208 243
#     4   9  18  31  43  56  80 112 139 166 205 251
#     4   9  17  29  43  59  81 107 138 178 213 239
#     4  10  19  29  42  60  83 113 145 173 206 250
#     4   9  18  31  43  56  80 112 139 166 205 251
#     4   7  14  27  39  55  79 103 125 158 204 241
#     4  10  19  29  42  60  83 113 145 173 206 250
#
# _framework density 14.742747
#
# number of rings (size 3 to 8) (size 9 to 14) (size 15 to 20)
#    0.000    2.750    0.000    4.875    0.000    6.000 
#    0.000    3.125    0.000    0.000    0.000    0.000 
#    1.250    0.000    0.750    0.375    1.000    7.250 
#
# Total GULP energy -2379338.503859 kJ/mol
# GULP energy per Si atom -12392.388041 kJ/mol
# Density = 1.470919 g / cm^3
# Si number density = 14.742747 Si / 1000 Ang^3
#
#
#
# Elastic Constant Matrix: (Units=GPa)
#
#
# Indices 1 2 3 4 5 6 
#
# 1 83.6897 40.8859 39.5499 0.0000 0.0000 0.0000
# 2 40.8859 83.6897 39.5499 0.0000 0.0000 0.0000
# 3 39.5499 39.5499 80.4882 0.0000 0.0000 0.0000
# 4 0.0000 0.0000 0.0000 21.7740 0.0000 0.0000
# 5 0.0000 0.0000 0.0000 0.0000 21.7740 0.0000
# 6 0.0000 0.0000 0.0000 0.0000 0.0000 21.4019
#
#
#
# Elastic Compliance Matrix: (Units=1/GPa)
#
#
# Indices 1 2 3 4 5 6 
#
# 1 0.017515 -0.005847 -0.005733 0.000000 0.000000 0.000000
# 2 -0.005847 0.017515 -0.005733 0.000000 0.000000 0.000000
# 3 -0.005733 -0.005733 0.018058 0.000000 0.000000 0.000000
# 4 0.000000 0.000000 0.000000 0.045926 0.000000 0.000000
# 5 0.000000 0.000000 0.000000 0.000000 0.045926 0.000000
# 6 0.000000 0.000000 0.000000 0.000000 0.000000 0.046725
#
#
# Mechanical properties :
#
#
# Convention : Reuss Voigt Hill
#
# Bulk Modulus (GPa) = 54.16840 54.20432 54.18636
# Shear Modulus (GPa) = 21.51029 21.51545 21.51287
#
# Velocity S-wave (km/s) = 3.82389 3.82434 3.82411
# Velocity P-wave (km/s) = 7.50455 7.50649 7.50552
#
# Compressibility (1/GPa) = 0.01846095
#
# Stress axis : x y z
#
# Youngs Moduli (GPa) = 57.09401 57.09401 55.37585
#
# Poissons Ratio (x) = 0.33385 0.31748
# Poissons Ratio (y) = 0.33385 0.31748
# Poissons Ratio (z) = 0.32733 0.32733
#
# Static dielectric constant tensor:
#      x y z
#    x 2.846440 0.000000 0.000000 
#    y 0.000000 2.846440 0.000000 
#    z 0.000000 0.000000 2.895630 
# 
# 
# High freq. dielectric constant tensor:
#      x y z
#    x 1.542370 0.000000 0.000000 
#    y 0.000000 1.542370 0.000000 
#    z 0.000000 0.000000 1.568870 
# 
# From -- ./inp_files/3584.got.cif
#   From: 2010.03.12/outbox.cif.g09.slc.cpg/sg192_2_cif.got.tgz:3584.got - 2010.04.01 12:16:15.
