data_PCOD8329949
_publ_section_title
;
Structure prediction by ZEFSAII (Michael W. Deem and Ramdas Pophale) SiO2 
 PCOD8329949
Probable space group: P 63/M C M
;
_chemical_formula_sum "Si O2"
_cell_formula_units_Z 144
_cell_length_a 22.823305
_cell_length_b 22.823305
_cell_length_c 18.595561
_cell_angle_alpha 90.000000
_cell_angle_beta 90.000000
_cell_angle_gamma 120.000000
_cell_volume 8388.744839
_symmetry_space_group_name_H-M "P 63/M C M"
_symmetry_group_IT_number 193
_symmetry_cell_setting 'hexagonal'
loop_
_space_group_symop_operation_xyz
x,y,z
x-y,x,1/2+z
-y,x-y,z
-x,-y,1/2+z
-x+y,-x,z
y,-x+y,1/2+z
x-y,-y,1/2-z
-x,-x+y,1/2-z
y,x,1/2-z
-y,-x,-z
-x+y,y,-z
x,x-y,-z
-x,-y,-z
-x+y,-x,1/2-z
y,-x+y,-z
x,y,1/2-z
x-y,x,-z
-y,x-y,1/2-z
-x+y,y,1/2+z
x,x-y,1/2+z
-y,-x,1/2+z
y,x,z
x-y,-y,z
-x,-x+y,z
loop_
_atom_site_type_symbol
_atom_site_label
_atom_site_fract_x
_atom_site_fract_y
_atom_site_fract_z
Si Si1 0.152116 0.075928 0.835514
Si Si2 0.281844 0.920918 0.600189
Si Si3 0.694679 0.834962 0.334094
Si Si4 0.629129 0.920466 0.563054
Si Si5 0.919911 0.399710 0.829076
Si Si6 0.919770 0.422759 0.433409
O O1 0.151338 0.073383 0.750000
O O2 0.104894 0.104894 0.864083
O O3 0.228163 0.125418 0.862678
O O4 0.123082 0.000000 0.866514
O O5 0.219381 0.883066 0.653484
O O6 0.260017 0.903721 0.517078
O O7 0.335009 0.896156 0.619416
O O8 0.313915 0.000000 0.615418
O O9 0.691013 0.816811 0.250000
O O10 0.651689 0.766672 0.378279
O O11 0.548397 0.890809 0.570785
O O12 0.670078 0.000000 0.578045
O O13 0.887108 0.377140 0.750000
O O14 0.897775 0.451097 0.861837
O O15 0.000000 0.437783 0.823419
O O16 0.889752 0.444876 0.500000
O O17 0.000000 0.458332 0.443090
#
# Coordination Sequence:
#
# PCOD8329949 Si02
#       6
#    24  24  24  24  24  24
#     4   9  17  30  48  68  91 125 174 231 286 337
#     4  10  19  33  51  70  96 134 177 218 261 314
#     4  11  22  33  46  70 106 139 171 217 277 340
#     4  10  20  33  51  71  98 136 172 207 255 318
#     4   9  16  26  45  73  99 123 157 199 239 284
#     4   9  15  28  48  70  97 128 157 188 234 291
#
# _framework density 17.165858
#
# number of rings (size 3 to 8) (size 9 to 14) (size 15 to 20)
#    0.000    2.333    1.667    2.167    0.000    4.000 
#    0.000    1.667    0.000    0.000    0.000    0.000 
#    1.667    8.333    1.000    0.000    0.000    0.000 
#
# Total GULP energy -1785225.027743 kJ/mol
# GULP energy per Si atom -12397.396026 kJ/mol
# Density = 1.712679 g / cm^3
# Si number density = 17.165858 Si / 1000 Ang^3
#
#
#
# Elastic Constant Matrix: (Units=GPa)
#
#
# Indices 1 2 3 4 5 6 
#
# 1 85.6194 45.0350 35.8139 0.0000 0.0000 0.0000
# 2 45.0350 85.6194 35.8139 0.0000 0.0000 0.0000
# 3 35.8139 35.8139 91.1432 0.0000 0.0000 0.0000
# 4 0.0000 0.0000 0.0000 24.2977 0.0000 0.0000
# 5 0.0000 0.0000 0.0000 0.0000 24.2977 0.0000
# 6 0.0000 0.0000 0.0000 0.0000 0.0000 20.2922
#
#
#
# Elastic Compliance Matrix: (Units=1/GPa)
#
#
# Indices 1 2 3 4 5 6 
#
# 1 0.017198 -0.007442 -0.003833 0.000000 0.000000 0.000000
# 2 -0.007442 0.017198 -0.003833 0.000000 0.000000 0.000000
# 3 -0.003833 -0.003833 0.013984 0.000000 0.000000 0.000000
# 4 0.000000 0.000000 0.000000 0.041156 0.000000 0.000000
# 5 0.000000 0.000000 0.000000 0.000000 0.041156 0.000000
# 6 0.000000 0.000000 0.000000 0.000000 0.000000 0.049280
#
#
# Mechanical properties :
#
#
# Convention : Reuss Voigt Hill
#
# Bulk Modulus (GPa) = 55.06075 55.07865 55.06970
# Shear Modulus (GPa) = 23.12207 23.49211 23.30709
#
# Velocity S-wave (km/s) = 3.67410 3.70339 3.68878
# Velocity P-wave (km/s) = 7.08125 7.10229 7.09178
#
# Compressibility (1/GPa) = 0.01816176
#
# Stress axis : x y z
#
# Youngs Moduli (GPa) = 58.14751 58.14751 71.50910
#
# Poissons Ratio (x) = 0.43276 0.27411
# Poissons Ratio (y) = 0.43276 0.27411
# Poissons Ratio (z) = 0.22289 0.22289
#
# Static dielectric constant tensor:
#      x y z
#    x 3.120780 0.000000 0.000000 
#    y 0.000000 3.120780 0.000000 
#    z 0.000000 0.000000 3.200880 
# 
# 
# High freq. dielectric constant tensor:
#      x y z
#    x 1.641930 0.000000 0.000000 
#    y 0.000000 1.641930 0.000000 
#    z 0.000000 0.000000 1.658340 
# 
# From -- ./inp_files/6594.got.cif
#   From: 2010.03.12/outbox.cif.g09.slc.cpg/sg193_4_cif.got.tgz:6594.got - 2010.04.01 12:20:39.
