data_PCOD8329470
_publ_section_title
;
Structure prediction by ZEFSAII (Michael W. Deem and Ramdas Pophale) SiO2 
 PCOD8329470
Probable space group: P 6/M C C
;
_chemical_formula_sum "Si O2"
_cell_formula_units_Z 144
_cell_length_a 20.330177
_cell_length_b 20.330177
_cell_length_c 18.238601
_cell_angle_alpha 90.000000
_cell_angle_beta 90.000000
_cell_angle_gamma 120.000000
_cell_volume 6528.365690
_symmetry_space_group_name_H-M "P 6/M C C"
_symmetry_group_IT_number 192
_symmetry_cell_setting 'hexagonal'
loop_
_space_group_symop_operation_xyz
x,y,z
x-y,x,z
-y,x-y,z
-x,-y,z
-x+y,-x,z
y,-x+y,z
x-y,-y,1/2-z
-x,-x+y,1/2-z
y,x,1/2-z
-y,-x,1/2-z
-x+y,y,1/2-z
x,x-y,1/2-z
-x,-y,-z
-x+y,-x,-z
y,-x+y,-z
x,y,-z
x-y,x,-z
-y,x-y,-z
-x+y,y,1/2+z
x,x-y,1/2+z
-y,-x,1/2+z
y,x,1/2+z
x-y,-y,1/2+z
-x,-x+y,1/2+z
loop_
_atom_site_type_symbol
_atom_site_label
_atom_site_fract_x
_atom_site_fract_y
_atom_site_fract_z
Si Si1 0.159281 0.607074 0.500000
Si Si2 0.026481 0.715122 0.584202
Si Si3 0.299201 0.425747 0.129788
Si Si4 0.995363 0.850285 0.913484
Si Si5 0.088366 0.553480 0.354653
Si Si6 0.914490 0.319850 0.720187
Si Si7 0.729652 0.222393 0.500000
O O1 0.107741 0.599349 0.430929
O O2 0.235079 0.688410 0.500000
O O3 0.182050 0.542607 0.500000
O O4 0.058144 0.727052 0.500000
O O5 0.951815 0.632735 0.589931
O O6 0.005307 0.778650 0.606794
O O7 0.089598 0.722700 0.643622
O O8 0.374707 0.505445 0.148318
O O9 0.263353 0.398089 0.212018
O O10 0.246015 0.440555 0.074080
O O11 0.921271 0.849676 0.880108
O O12 0.995693 0.859264 0.000000
O O13 0.112916 0.618010 0.291871
O O14 0.000000 0.500000 0.348822
O O15 0.000000 0.363550 0.750000
#
# Coordination Sequence:
#
# PCOD8329470 Si02
#       7
#    12  24  24  24  24  24  12
#     4  10  24  36  62  85 112 165 206 261 304 346
#     4  10  19  32  52  87 126 164 192 242 317 371
#     4  10  20  35  59  83 123 167 198 250 302 368
#     4   9  18  35  59  87 116 156 207 255 300 358
#     4  11  19  33  58  92 119 149 207 257 303 367
#     4  10  20  32  57  86 123 163 194 244 312 371
#     4  10  21  44  58  83 124 159 216 254 299 365
#
# _framework density 22.057587000000002
#
# number of rings (size 3 to 8) (size 9 to 14) (size 15 to 20)
#    0.000    2.000    4.167    1.083    1.167    0.667 
#    3.000    0.833    3.667    3.000    0.000    2.333 
#    0.000   12.000    0.000    0.000    0.000    0.000 
#
# Total GULP energy -1784071.732723 kJ/mol
# GULP energy per Si atom -12389.387033 kJ/mol
# Density = 2.200738 g / cm^3
# Si number density = 22.057587 Si / 1000 Ang^3
#
#
#
# Elastic Constant Matrix: (Units=GPa)
#
#
# Indices 1 2 3 4 5 6 
#
# 1 55.3730 12.6243 35.3037 0.0000 0.0000 0.0000
# 2 12.6243 55.3730 35.3037 0.0000 0.0000 0.0000
# 3 35.3037 35.3037 147.1570 0.0000 0.0000 0.0000
# 4 0.0000 0.0000 0.0000 9.3947 0.0000 0.0000
# 5 0.0000 0.0000 0.0000 0.0000 9.3947 0.0000
# 6 0.0000 0.0000 0.0000 0.0000 0.0000 21.3743
#
#
#
# Elastic Compliance Matrix: (Units=1/GPa)
#
#
# Indices 1 2 3 4 5 6 
#
# 1 0.021489 -0.001904 -0.004699 0.000000 0.000000 0.000000
# 2 -0.001904 0.021489 -0.004699 0.000000 0.000000 0.000000
# 3 -0.004699 -0.004699 0.009050 0.000000 0.000000 0.000000
# 4 0.000000 0.000000 0.000000 0.106443 0.000000 0.000000
# 5 0.000000 0.000000 0.000000 0.000000 0.106443 0.000000
# 6 0.000000 0.000000 0.000000 0.000000 0.000000 0.046785
#
#
# Mechanical properties :
#
#
# Convention : Reuss Voigt Hill
#
# Bulk Modulus (GPa) = 33.98328 47.15183 40.56755
# Shear Modulus (GPa) = 14.53028 19.67751 17.10389
#
# Velocity S-wave (km/s) = 2.56938 2.99004 2.78766
# Velocity P-wave (km/s) = 4.92365 5.77439 5.36591
#
# Compressibility (1/GPa) = 0.02942624
#
# Stress axis : x y z
#
# Youngs Moduli (GPa) = 46.53545 46.53545 110.49822
#
# Poissons Ratio (x) = 0.08858 0.51919
# Poissons Ratio (y) = 0.08858 0.51919
# Poissons Ratio (z) = 0.21865 0.21865
#
# Static dielectric constant tensor:
#      x y z
#    x 3.857320 0.000000 0.000000 
#    y 0.000000 3.857320 0.000000 
#    z 0.000000 0.000000 4.682660 
# 
# 
# High freq. dielectric constant tensor:
#      x y z
#    x 1.844200 0.000000 0.000000 
#    y 0.000000 1.844200 0.000000 
#    z 0.000000 0.000000 1.880000 
# 
# From -- ./inp_files/4387.got.cif
#   From: 2010.03.12/outbox.cif.g09.slc.cpg/sg192_3_cif.got.tgz:4387.got - 2010.04.01 12:16:15.
