data_PCOD8329664
_publ_section_title
;
Structure prediction by ZEFSAII (Michael W. Deem and Ramdas Pophale) SiO2 
 PCOD8329664
Probable space group: P 6/M C C
;
_chemical_formula_sum "Si O2"
_cell_formula_units_Z 138
_cell_length_a 18.797722
_cell_length_b 18.797722
_cell_length_c 20.384560
_cell_angle_alpha 90.000000
_cell_angle_beta 90.000000
_cell_angle_gamma 120.000000
_cell_volume 6237.957599
_symmetry_space_group_name_H-M "P 6/M C C"
_symmetry_group_IT_number 192
_symmetry_cell_setting 'hexagonal'
loop_
_space_group_symop_operation_xyz
x,y,z
x-y,x,z
-y,x-y,z
-x,-y,z
-x+y,-x,z
y,-x+y,z
x-y,-y,1/2-z
-x,-x+y,1/2-z
y,x,1/2-z
-y,-x,1/2-z
-x+y,y,1/2-z
x,x-y,1/2-z
-x,-y,-z
-x+y,-x,-z
y,-x+y,-z
x,y,-z
x-y,x,-z
-y,x-y,-z
-x+y,y,1/2+z
x,x-y,1/2+z
-y,-x,1/2+z
y,x,1/2+z
x-y,-y,1/2+z
-x,-x+y,1/2+z
loop_
_atom_site_type_symbol
_atom_site_label
_atom_site_fract_x
_atom_site_fract_y
_atom_site_fract_z
Si Si1 0.928059 0.115174 0.500000
Si Si2 0.312634 0.495258 0.574729
Si Si3 0.500000 0.000000 0.250000
Si Si4 0.648577 0.168328 0.573162
Si Si5 0.194469 0.076218 0.357531
Si Si6 0.101875 0.358004 0.815237
Si Si7 0.925228 0.591735 0.315201
O O1 0.909367 0.144392 0.431022
O O2 0.019559 0.136922 0.500000
O O3 0.311527 0.462851 0.500000
O O4 0.405280 0.561134 0.596879
O O5 0.263679 0.545334 0.574774
O O6 0.271261 0.421221 0.626440
O O7 0.423505 0.943549 0.295642
O O8 0.638192 0.132076 0.500000
O O9 0.685015 0.122761 0.617035
O O10 0.149329 0.128995 0.343690
O O11 0.276725 0.110846 0.314209
O O12 0.269916 0.399669 0.757293
O O13 0.006235 0.327875 0.825936
#
# Coordination Sequence:
#
# PCOD8329664 Si02
#       7
#    12  24   6  24  24  24  24
#     4   8  15  30  54  86 118 161 203 259 315 383
#     4  10  22  39  63  96 131 167 216 263 321 387
#     4   8  16  36  62  80 120 160 210 250 304 372
#     4  10  21  40  64  93 128 170 209 263 323 393
#     4  10  21  39  63  93 131 177 226 275 334 396
#     4  10  23  39  60  93 128 169 213 274 325 387
#     4  10  21  40  60  88 121 165 211 261 329 388
#
# _framework density 22.122623999999998
#
# number of rings (size 3 to 8) (size 9 to 14) (size 15 to 20)
#    0.000    2.435    0.000    2.696    3.652    4.174 
#    3.130    2.174    0.000    2.087    0.000    4.870 
#    0.000    0.000    0.000    0.000    0.000    0.000 
#
# Total GULP energy -1709639.797626 kJ/mol
# GULP energy per Si atom -12388.694186 kJ/mol
# Density = 2.207227 g / cm^3
# Si number density = 22.122624 Si / 1000 Ang^3
#
#
#
# Elastic Constant Matrix: (Units=GPa)
#
#
# Indices 1 2 3 4 5 6 
#
# 1 86.0006 19.0044 44.9230 0.0000 0.0000 0.0000
# 2 19.0044 86.0006 44.9230 0.0000 0.0000 0.0000
# 3 44.9230 44.9230 115.2446 0.0000 0.0000 0.0000
# 4 0.0000 0.0000 0.0000 48.0007 0.0000 0.0000
# 5 0.0000 0.0000 0.0000 0.0000 48.0007 0.0000
# 6 0.0000 0.0000 0.0000 0.0000 0.0000 33.4981
#
#
#
# Elastic Compliance Matrix: (Units=1/GPa)
#
#
# Indices 1 2 3 4 5 6 
#
# 1 0.014608 -0.000318 -0.005570 0.000000 0.000000 0.000000
# 2 -0.000318 0.014608 -0.005570 0.000000 0.000000 0.000000
# 3 -0.005570 -0.005570 0.013020 0.000000 0.000000 0.000000
# 4 0.000000 0.000000 0.000000 0.020833 0.000000 0.000000
# 5 0.000000 0.000000 0.000000 0.000000 0.020833 0.000000
# 6 0.000000 0.000000 0.000000 0.000000 0.000000 0.029852
#
#
# Mechanical properties :
#
#
# Convention : Reuss Voigt Hill
#
# Bulk Modulus (GPa) = 51.76502 56.10517 53.93510
# Shear Modulus (GPa) = 34.93812 37.79292 36.36552
#
# Velocity S-wave (km/s) = 3.97834 4.13769 4.05880
# Velocity P-wave (km/s) = 6.67480 6.94574 6.81162
#
# Compressibility (1/GPa) = 0.01931806
#
# Stress axis : x y z
#
# Youngs Moduli (GPa) = 68.45676 68.45676 76.80691
#
# Poissons Ratio (x) = 0.02180 0.42782
# Poissons Ratio (y) = 0.02180 0.42782
# Poissons Ratio (z) = 0.38131 0.38131
#
# Static dielectric constant tensor:
#      x y z
#    x 3.838730 0.000000 0.000000 
#    y 0.000000 3.838730 0.000000 
#    z 0.000000 0.000000 4.461620 
# 
# 
# High freq. dielectric constant tensor:
#      x y z
#    x 1.865530 0.000000 0.000000 
#    y 0.000000 1.865530 0.000000 
#    z 0.000000 0.000000 1.882410 
# 
# From -- ./inp_files/6544.got.cif
#   From: 2010.03.12/outbox.cif.g09.slc.cpg/sg192_4_cif.got.tgz:6544.got - 2010.04.01 12:16:15.
