data_PCOD8329191
_publ_section_title
;
Structure prediction by ZEFSAII (Michael W. Deem and Ramdas Pophale) SiO2 
 PCOD8329191
Probable space group: P 6/M M M
;
_chemical_formula_sum "Si O2"
_cell_formula_units_Z 84
_cell_length_a 19.285359
_cell_length_b 19.285359
_cell_length_c 13.797179
_cell_angle_alpha 90.000000
_cell_angle_beta 90.000000
_cell_angle_gamma 120.000000
_cell_volume 4444.023900
_symmetry_space_group_name_H-M "P 6/M M M"
_symmetry_group_IT_number 191
_symmetry_cell_setting 'hexagonal'
loop_
_space_group_symop_operation_xyz
x,y,z
x-y,x,z
-y,x-y,z
-x,-y,z
-x+y,-x,z
y,-x+y,z
x-y,-y,-z
-x,-x+y,-z
y,x,-z
-y,-x,-z
-x+y,y,-z
x,x-y,-z
-x,-y,-z
-x+y,-x,-z
y,-x+y,-z
x,y,-z
x-y,x,-z
-y,x-y,-z
-x+y,y,z
x,x-y,z
-y,-x,z
y,x,z
x-y,-y,z
-x,-x+y,z
loop_
_atom_site_type_symbol
_atom_site_label
_atom_site_fract_x
_atom_site_fract_y
_atom_site_fract_z
Si Si1 0.247926 0.337460 0.798668
Si Si2 0.868865 0.287010 0.392644
Si Si3 0.175787 0.509393 0.114713
Si Si4 0.911130 0.455565 0.384968
O O1 0.156491 0.312982 0.828692
O O2 0.269851 0.269851 0.832973
O O3 0.257369 0.344388 0.681630
O O4 0.311759 0.422930 0.843542
O O5 0.909598 0.302125 0.500000
O O6 0.776219 0.223782 0.400239
O O7 0.868968 0.364583 0.348364
O O8 0.264881 0.529762 0.145441
O O9 0.160283 0.580142 0.153960
O O10 0.166669 0.503957 0.000000
O O11 0.910755 0.455378 0.500000
O O12 0.000000 0.500000 0.342459
#
# Coordination Sequence:
#
# PCOD8329191 Si02
#       4
#    24  24  24  12
#     4  10  21  35  52  74  99 128 163 206 254 302
#     4   9  18  32  47  67  95 127 166 206 244 286
#     4   9  18  33  53  77 105 137 171 205 241 282
#     4   9  16  26  42  62  85 119 159 195 232 276
#
# _framework density 18.901789000000001
#
# number of rings (size 3 to 8) (size 9 to 14) (size 15 to 20)
#    0.000    2.714    0.000    1.143    2.000    4.000 
#    0.857    1.429    0.000    0.286    0.000    0.000 
#    0.000    0.000    0.000   14.286    0.000    0.000 
#
# Total GULP energy -1040755.449559 kJ/mol
# GULP energy per Si atom -12389.945828 kJ/mol
# Density = 1.885877 g / cm^3
# Si number density = 18.901789 Si / 1000 Ang^3
#
#
#
# Elastic Constant Matrix: (Units=GPa)
#
#
# Indices 1 2 3 4 5 6 
#
# 1 111.8735 71.2421 11.8927 0.0000 0.0000 0.0000
# 2 71.2421 111.8735 11.8927 0.0000 0.0000 0.0000
# 3 11.8927 11.8927 19.2036 0.0000 0.0000 0.0000
# 4 0.0000 0.0000 0.0000 14.9612 0.0000 0.0000
# 5 0.0000 0.0000 0.0000 0.0000 14.9612 0.0000
# 6 0.0000 0.0000 0.0000 0.0000 0.0000 20.3157
#
#
#
# Elastic Compliance Matrix: (Units=1/GPa)
#
#
# Indices 1 2 3 4 5 6 
#
# 1 0.015275 -0.009336 -0.003678 0.000000 0.000000 0.000000
# 2 -0.009336 0.015275 -0.003678 0.000000 0.000000 0.000000
# 3 -0.003678 -0.003678 0.056629 0.000000 0.000000 0.000000
# 4 0.000000 0.000000 0.000000 0.066839 0.000000 0.000000
# 5 0.000000 0.000000 0.000000 0.000000 0.066839 0.000000
# 6 0.000000 0.000000 0.000000 0.000000 0.000000 0.049223
#
#
# Mechanical properties :
#
#
# Convention : Reuss Voigt Hill
#
# Bulk Modulus (GPa) = 18.58904 48.11172 33.35038
# Shear Modulus (GPa) = 15.55708 19.90917 17.73313
#
# Velocity S-wave (km/s) = 2.87199 3.24897 3.06628
# Velocity P-wave (km/s) = 4.56658 6.29152 5.49713
#
# Compressibility (1/GPa) = 0.05379514
#
# Stress axis : x y z
#
# Youngs Moduli (GPa) = 65.46593 65.46593 17.65879
#
# Poissons Ratio (x) = 0.61121 0.06495
# Poissons Ratio (y) = 0.61121 0.06495
# Poissons Ratio (z) = 0.24077 0.24077
#
# Static dielectric constant tensor:
#      x y z
#    x 3.364160 0.000000 0.000000 
#    y 0.000000 3.364160 0.000000 
#    z 0.000000 0.000000 3.620330 
# 
# 
# High freq. dielectric constant tensor:
#      x y z
#    x 1.709310 0.000000 0.000000 
#    y 0.000000 1.709310 0.000000 
#    z 0.000000 0.000000 1.740570 
# 
# From -- ./inp_files/3996.got.cif
#   From: 2010.03.12/outbox.cif.g09.slc.cpg/sg191_2_cif.got.tgz:3996.got - 2010.04.01 12:09:02.
