data_PCOD8329299
_publ_section_title
;
Structure prediction by ZEFSAII (Michael W. Deem and Ramdas Pophale) SiO2 
 PCOD8329299
Probable space group: P 6/M M M
;
_chemical_formula_sum "Si O2"
_cell_formula_units_Z 120
_cell_length_a 23.630727
_cell_length_b 23.630727
_cell_length_c 15.425621
_cell_angle_alpha 90.000000
_cell_angle_beta 90.000000
_cell_angle_gamma 120.000000
_cell_volume 7459.804642
_symmetry_space_group_name_H-M "P 6/M M M"
_symmetry_group_IT_number 191
_symmetry_cell_setting 'hexagonal'
loop_
_space_group_symop_operation_xyz
x,y,z
x-y,x,z
-y,x-y,z
-x,-y,z
-x+y,-x,z
y,-x+y,z
x-y,-y,-z
-x,-x+y,-z
y,x,-z
-y,-x,-z
-x+y,y,-z
x,x-y,-z
-x,-y,-z
-x+y,-x,-z
y,-x+y,-z
x,y,-z
x-y,x,-z
-y,x-y,-z
-x+y,y,z
x,x-y,z
-y,-x,z
y,x,z
x-y,-y,z
-x,-x+y,z
loop_
_atom_site_type_symbol
_atom_site_label
_atom_site_fract_x
_atom_site_fract_y
_atom_site_fract_z
Si Si1 0.196827 0.927934 0.896933
Si Si2 0.475085 0.078115 0.250001
Si Si3 0.679111 0.077211 0.904122
Si Si4 0.077211 0.398099 0.595878
Si Si5 0.072066 0.268892 0.396933
O O1 0.125844 0.874157 0.859899
O O2 0.249582 0.906611 0.870317
O O3 0.217826 0.000000 0.858949
O O4 0.195256 0.930843 0.000000
O O5 0.552254 0.104508 0.250002
O O6 0.457492 0.105748 0.164346
O O7 0.457491 0.105748 0.335655
O O8 0.434292 0.000000 0.250001
O O9 0.633979 0.000000 0.910986
O O10 0.683246 0.107736 0.000000
O O11 0.107736 0.424489 0.500000
O O12 0.093389 0.342970 0.629683
O O13 0.000000 0.366020 0.589014
O O14 0.069157 0.264412 0.500000
O O15 0.125843 0.251686 0.359897
O O16 0.000000 0.217825 0.358949
#
# Coordination Sequence:
#
# PCOD8329299 Si02
#       5
#    24  24  24  24  24
#     4   8  13  22  37  55  75 103 140 180 220 261
#     4   9  16  24  35  52  73  98 126 151 176 214
#     4   8  14  24  36  51  73 100 129 160 194 234
#     4   8  14  24  36  51  73 100 129 160 194 234
#     4   8  13  22  37  55  75 103 140 180 220 261
#
# _framework density 16.086213000000001
#
# number of rings (size 3 to 8) (size 9 to 14) (size 15 to 20)
#    0.000    3.800    0.000    2.400    0.000    0.800 
#    0.000    5.000    0.000    0.400    0.000    2.800 
#    0.000    0.000    0.000    4.800    0.000   58.000 
#
# Total GULP energy -1486607.883566 kJ/mol
# GULP energy per Si atom -12388.399030 kJ/mol
# Density = 1.604960 g / cm^3
# Si number density = 16.086213 Si / 1000 Ang^3
#
#
#
# Elastic Constant Matrix: (Units=GPa)
#
#
# Indices 1 2 3 4 5 6 
#
# 1 87.3221 53.7073 35.7144 0.0000 0.0000 0.0000
# 2 53.7073 87.3221 35.7144 0.0000 0.0000 0.0000
# 3 35.7144 35.7144 71.1493 0.0000 0.0000 0.0000
# 4 0.0000 0.0000 0.0000 7.4898 0.0000 0.0000
# 5 0.0000 0.0000 0.0000 0.0000 7.4898 0.0000
# 6 0.0000 0.0000 0.0000 0.0000 0.0000 16.8074
#
#
#
# Elastic Compliance Matrix: (Units=1/GPa)
#
#
# Indices 1 2 3 4 5 6 
#
# 1 0.019628 -0.010120 -0.004773 0.000000 0.000000 0.000000
# 2 -0.010120 0.019628 -0.004773 0.000000 0.000000 0.000000
# 3 -0.004773 -0.004773 0.018846 0.000000 0.000000 0.000000
# 4 0.000000 0.000000 0.000000 0.133515 0.000000 0.000000
# 5 0.000000 0.000000 0.000000 0.000000 0.133515 0.000000
# 6 0.000000 0.000000 0.000000 0.000000 0.000000 0.059498
#
#
# Mechanical properties :
#
#
# Convention : Reuss Voigt Hill
#
# Bulk Modulus (GPa) = 53.27175 55.11839 54.19507
# Shear Modulus (GPa) = 11.62197 14.40122 13.01159
#
# Velocity S-wave (km/s) = 2.69081 2.99532 2.84714
# Velocity P-wave (km/s) = 6.54540 6.80451 6.67621
#
# Compressibility (1/GPa) = 0.01877167
#
# Stress axis : x y z
#
# Youngs Moduli (GPa) = 50.94656 50.94656 53.06067
#
# Poissons Ratio (x) = 0.51560 0.25324
# Poissons Ratio (y) = 0.51560 0.25324
# Poissons Ratio (z) = 0.24315 0.24315
#
# Static dielectric constant tensor:
#      x y z
#    x 2.993990 0.000000 0.000000 
#    y 0.000000 2.993990 0.000000 
#    z 0.000000 0.000000 3.269300 
# 
# 
# High freq. dielectric constant tensor:
#      x y z
#    x 1.575890 0.000000 0.000000 
#    y 0.000000 1.575890 0.000000 
#    z 0.000000 0.000000 1.615320 
# 
# From -- ./inp_files/4736.got.cif
#   From: 2010.03.12/outbox.cif.g09.slc.cpg/sg191_3_cif.got.tgz:4736.got - 2010.04.01 12:09:02.
