data_PCOD8329307
_publ_section_title
;
Structure prediction by ZEFSAII (Michael W. Deem and Ramdas Pophale) SiO2 
 PCOD8329307
Probable space group: P 6/M M M
;
_chemical_formula_sum "Si O2"
_cell_formula_units_Z 156
_cell_length_a 21.722030
_cell_length_b 21.722030
_cell_length_c 29.478580
_cell_angle_alpha 90.000000
_cell_angle_beta 90.000000
_cell_angle_gamma 120.000000
_cell_volume 12045.865495
_symmetry_space_group_name_H-M "P 6/M M M"
_symmetry_group_IT_number 191
_symmetry_cell_setting 'hexagonal'
loop_
_space_group_symop_operation_xyz
x,y,z
x-y,x,z
-y,x-y,z
-x,-y,z
-x+y,-x,z
y,-x+y,z
x-y,-y,-z
-x,-x+y,-z
y,x,-z
-y,-x,-z
-x+y,y,-z
x,x-y,-z
-x,-y,-z
-x+y,-x,-z
y,-x+y,-z
x,y,-z
x-y,x,-z
-y,x-y,-z
-x+y,y,z
x,x-y,z
-y,-x,z
y,x,z
x-y,-y,z
-x,-x+y,z
loop_
_atom_site_type_symbol
_atom_site_label
_atom_site_fract_x
_atom_site_fract_y
_atom_site_fract_z
Si Si1 0.468963 0.387643 0.698603
Si Si2 0.332887 0.809522 0.122284
Si Si3 0.084004 0.660167 0.603091
Si Si4 0.333136 0.808790 0.225277
Si Si5 0.915055 0.457528 0.448841
Si Si6 0.533573 0.612588 0.050428
Si Si7 0.700033 0.780890 0.552456
O O1 0.545206 0.454795 0.685945
O O2 0.413624 0.413624 0.711029
O O3 0.441593 0.334304 0.655645
O O4 0.472675 0.345434 0.742026
O O5 0.399168 0.798336 0.113469
O O6 0.263932 0.736069 0.110660
O O7 0.331997 0.833536 0.173893
O O8 0.334154 0.868611 0.088599
O O9 0.116634 0.619319 0.575103
O O10 0.108835 0.737538 0.582330
O O11 0.000000 0.613618 0.599289
O O12 0.394317 0.788634 0.231190
O O13 0.259713 0.740288 0.238778
O O14 0.887264 0.443632 0.500000
O O15 0.000000 0.500000 0.446468
O O16 0.461523 0.538478 0.054064
O O17 0.599339 0.599339 0.059518
O O18 0.540364 0.645177 0.000000
O O19 0.678418 0.761387 0.500000
O O20 0.730115 0.865058 0.561134
O O21 0.760344 0.760344 0.565735
#
# Coordination Sequence:
#
# PCOD8329307 Si02
#       7
#    24  24  24  24  12  24  24
#     4   9  16  26  38  53  73  94 116 146 180 208
#     4   9  16  25  36  50  67  87 113 144 180 215
#     4   9  15  24  37  54  75  95 114 141 176 211
#     4   9  17  27  38  50  66  90 117 147 178 210
#     4   9  14  20  34  54  74  94 112 132 165 209
#     4   8  14  24  36  49  66  87 109 134 165 204
#     4   9  17  28  41  57  77  99 122 149 182 220
#
# _framework density 12.950500999999999
#
# number of rings (size 3 to 8) (size 9 to 14) (size 15 to 20)
#    0.000    3.154    0.769    1.231    0.000    4.615 
#    0.000    3.077    0.000    1.077    0.000    1.077 
#    0.769    0.000    0.923    0.000    0.000    0.000 
#
# Total GULP energy -1933569.660966 kJ/mol
# GULP energy per Si atom -12394.677314 kJ/mol
# Density = 1.292103 g / cm^3
# Si number density = 12.950501 Si / 1000 Ang^3
#
#
#
# Elastic Constant Matrix: (Units=GPa)
#
#
# Indices 1 2 3 4 5 6 
#
# 1 57.4737 31.4712 44.9759 0.0000 0.0000 0.0000
# 2 31.4712 57.4737 44.9759 0.0000 0.0000 0.0000
# 3 44.9759 44.9759 94.9045 0.0000 0.0000 0.0000
# 4 0.0000 0.0000 0.0000 17.1082 0.0000 0.0000
# 5 0.0000 0.0000 0.0000 0.0000 17.1082 0.0000
# 6 0.0000 0.0000 0.0000 0.0000 0.0000 13.0013
#
#
#
# Elastic Compliance Matrix: (Units=1/GPa)
#
#
# Indices 1 2 3 4 5 6 
#
# 1 0.030024 -0.008433 -0.010232 0.000000 0.000000 0.000000
# 2 -0.008433 0.030024 -0.010232 0.000000 0.000000 0.000000
# 3 -0.010232 -0.010232 0.020235 0.000000 0.000000 0.000000
# 4 0.000000 0.000000 0.000000 0.058451 0.000000 0.000000
# 5 0.000000 0.000000 0.000000 0.000000 0.058451 0.000000
# 6 0.000000 0.000000 0.000000 0.000000 0.000000 0.076915
#
#
# Mechanical properties :
#
#
# Convention : Reuss Voigt Hill
#
# Bulk Modulus (GPa) = 44.46732 50.29976 47.38354
# Shear Modulus (GPa) = 14.73219 15.33882 15.03551
#
# Velocity S-wave (km/s) = 3.37646 3.44527 3.41104
# Velocity P-wave (km/s) = 7.04355 7.39938 7.22366
#
# Compressibility (1/GPa) = 0.02248843
#
# Stress axis : x y z
#
# Youngs Moduli (GPa) = 33.30641 33.30641 49.41943
#
# Poissons Ratio (x) = 0.28089 0.50566
# Poissons Ratio (y) = 0.28089 0.50566
# Poissons Ratio (z) = 0.34079 0.34079
#
# Static dielectric constant tensor:
#      x y z
#    x 2.467300 0.000000 0.000000 
#    y 0.000000 2.467300 0.000000 
#    z 0.000000 0.000000 2.778330 
# 
# 
# High freq. dielectric constant tensor:
#      x y z
#    x 1.462080 0.000000 0.000000 
#    y 0.000000 1.462080 0.000000 
#    z 0.000000 0.000000 1.500610 
# 
# From -- ./inp_files/10806.got.cif
#   From: 2010.03.12/outbox.cif.g09.slc.cpg/sg191_6_cif.got.tgz:10806.got - 2010.04.01 12:09:02.
