data_PCOD8329567
_publ_section_title
;
Structure prediction by ZEFSAII (Michael W. Deem and Ramdas Pophale) SiO2 
 PCOD8329567
Probable space group: P 6/M C C
;
_chemical_formula_sum "Si O2"
_cell_formula_units_Z 144
_cell_length_a 30.942235
_cell_length_b 30.942235
_cell_length_c 8.524638
_cell_angle_alpha 90.000000
_cell_angle_beta 90.000000
_cell_angle_gamma 120.000000
_cell_volume 7068.218034
_symmetry_space_group_name_H-M "P 6/M C C"
_symmetry_group_IT_number 192
_symmetry_cell_setting 'hexagonal'
loop_
_space_group_symop_operation_xyz
x,y,z
x-y,x,z
-y,x-y,z
-x,-y,z
-x+y,-x,z
y,-x+y,z
x-y,-y,1/2-z
-x,-x+y,1/2-z
y,x,1/2-z
-y,-x,1/2-z
-x+y,y,1/2-z
x,x-y,1/2-z
-x,-y,-z
-x+y,-x,-z
y,-x+y,-z
x,y,-z
x-y,x,-z
-y,x-y,-z
-x+y,y,1/2+z
x,x-y,1/2+z
-y,-x,1/2+z
y,x,1/2+z
x-y,-y,1/2+z
-x,-x+y,1/2+z
loop_
_atom_site_type_symbol
_atom_site_label
_atom_site_fract_x
_atom_site_fract_y
_atom_site_fract_z
Si Si1 0.758914 0.149071 0.814974
Si Si2 0.754150 0.700863 0.185792
Si Si3 0.147230 0.947200 0.315767
Si Si4 0.053710 0.480142 0.814327
Si Si5 0.481836 0.334843 0.685303
Si Si6 0.759314 0.333278 0.685777
O O1 0.814038 0.185963 0.750000
O O2 0.744087 0.093261 0.770341
O O3 0.721290 0.163782 0.734469
O O4 0.757226 0.154666 0.000000
O O5 0.712130 0.712130 0.250000
O O6 0.808612 0.745505 0.236114
O O7 0.749184 0.692979 0.000000
O O8 0.095321 0.904680 0.250000
O O9 0.143816 0.948528 0.500000
O O10 0.157405 0.000000 0.250000
O O11 0.069743 0.534872 0.750000
O O12 0.092844 0.464083 0.757425
O O13 0.000000 0.439189 0.750000
O O14 0.051839 0.481138 0.000000
O O15 0.485348 0.340188 0.500000
O O16 0.535789 0.350231 0.753588
O O17 0.721611 0.278390 0.750000
O O18 0.742532 0.371266 0.750000
O O19 0.758417 0.332984 0.500000
#
# Coordination Sequence:
#
# PCOD8329567 Si02
#       6
#    24  24  24  24  24  24
#     4  12  25  42  62  87 119 159 201 245 295 354
#     4  10  21  38  60  88 119 155 196 244 295 349
#     4  10  20  34  55  82 114 149 191 238 290 344
#     4  11  22  40  64  93 124 159 200 247 299 354
#     4  12  25  43  64  90 122 160 202 248 297 353
#     4  12  25  44  67  95 126 160 199 245 298 355
#
# _framework density 20.372886999999999
#
# number of rings (size 3 to 8) (size 9 to 14) (size 15 to 20)
#    0.000    0.833    0.000    9.167    0.000    4.000 
#    0.000    3.333    0.000    0.167    0.000    1.167 
#    0.000    0.000    0.000    0.000    0.000    0.000 
#
# Total GULP energy -1786916.321038 kJ/mol
# GULP energy per Si atom -12409.141118 kJ/mol
# Density = 2.032652 g / cm^3
# Si number density = 20.372887 Si / 1000 Ang^3
#
#
#
# Elastic Constant Matrix: (Units=GPa)
#
#
# Indices 1 2 3 4 5 6 
#
# 1 92.3198 38.2595 43.3320 0.0000 0.0000 0.0000
# 2 38.2595 92.3198 43.3320 0.0000 0.0000 0.0000
# 3 43.3320 43.3320 174.1249 0.0000 0.0000 0.0000
# 4 0.0000 0.0000 0.0000 28.5772 0.0000 0.0000
# 5 0.0000 0.0000 0.0000 0.0000 28.5772 0.0000
# 6 0.0000 0.0000 0.0000 0.0000 0.0000 27.0302
#
#
#
# Elastic Compliance Matrix: (Units=1/GPa)
#
#
# Indices 1 2 3 4 5 6 
#
# 1 0.013836 -0.004662 -0.002283 0.000000 0.000000 0.000000
# 2 -0.004662 0.013836 -0.002283 0.000000 0.000000 0.000000
# 3 -0.002283 -0.002283 0.006879 0.000000 0.000000 0.000000
# 4 0.000000 0.000000 0.000000 0.034993 0.000000 0.000000
# 5 0.000000 0.000000 0.000000 0.000000 0.034993 0.000000
# 6 0.000000 0.000000 0.000000 0.000000 0.000000 0.036996
#
#
# Mechanical properties :
#
#
# Convention : Reuss Voigt Hill
#
# Bulk Modulus (GPa) = 62.13327 67.62351 64.87839
# Shear Modulus (GPa) = 30.23842 32.42632 31.33237
#
# Velocity S-wave (km/s) = 3.85677 3.99387 3.92592
# Velocity P-wave (km/s) = 7.09910 7.38464 7.24328
#
# Compressibility (1/GPa) = 0.01609444
#
# Stress axis : x y z
#
# Youngs Moduli (GPa) = 72.27755 72.27755 145.36595
#
# Poissons Ratio (x) = 0.33698 0.33184
# Poissons Ratio (y) = 0.33698 0.33184
# Poissons Ratio (z) = 0.16500 0.16500
#
# Static dielectric constant tensor:
#      x y z
#    x 3.722610 0.000000 0.000000 
#    y 0.000000 3.722610 0.000000 
#    z 0.000000 0.000000 3.833350 
# 
# 
# High freq. dielectric constant tensor:
#      x y z
#    x 1.800000 0.000000 0.000000 
#    y 0.000000 1.800000 0.000000 
#    z 0.000000 0.000000 1.818530 
# 
# From -- ./inp_files/1176.got.cif
#   From: 2010.03.12/outbox.cif.g09.slc.cpg/sg192_1_cif.got.tgz:1176.got - 2010.04.01 12:16:15.
