data_PCOD8329239
_publ_section_title
;
Structure prediction by ZEFSAII (Michael W. Deem and Ramdas Pophale) SiO2 
 PCOD8329239
Probable space group: P 6/M M M
;
_chemical_formula_sum "Si O2"
_cell_formula_units_Z 138
_cell_length_a 30.014817
_cell_length_b 30.014817
_cell_length_c 8.404233
_cell_angle_alpha 90.000000
_cell_angle_beta 90.000000
_cell_angle_gamma 120.000000
_cell_volume 6556.923483
_symmetry_space_group_name_H-M "P 6/M M M"
_symmetry_group_IT_number 191
_symmetry_cell_setting 'hexagonal'
loop_
_space_group_symop_operation_xyz
x,y,z
x-y,x,z
-y,x-y,z
-x,-y,z
-x+y,-x,z
y,-x+y,z
x-y,-y,-z
-x,-x+y,-z
y,x,-z
-y,-x,-z
-x+y,y,-z
x,x-y,-z
-x,-y,-z
-x+y,-x,-z
y,-x+y,-z
x,y,-z
x-y,x,-z
-y,x-y,-z
-x+y,y,z
x,x-y,z
-y,-x,z
y,x,z
x-y,-y,z
-x,-x+y,z
loop_
_atom_site_type_symbol
_atom_site_label
_atom_site_fract_x
_atom_site_fract_y
_atom_site_fract_z
Si Si1 0.433722 0.667009 0.311762
Si Si2 0.941004 0.058997 0.000000
Si Si3 0.748818 0.805562 0.820052
Si Si4 0.909194 0.818388 0.678359
Si Si5 0.487710 0.612865 0.186701
Si Si6 0.941568 0.345719 0.312873
Si Si7 0.129246 0.358336 0.315437
O O1 0.432441 0.668433 0.500000
O O2 0.441451 0.720726 0.242148
O O3 0.379991 0.620010 0.245652
O O4 0.480998 0.659164 0.259155
O O5 0.927321 0.072680 0.170324
O O6 0.000000 0.082964 0.000000
O O7 0.755952 0.755952 0.795291
O O8 0.783866 0.847852 0.691583
O O9 0.691092 0.791811 0.794517
O O10 0.765275 0.827415 0.000000
O O11 0.922064 0.844128 0.500000
O O12 0.441625 0.558376 0.249290
O O13 0.540447 0.615881 0.239418
O O14 0.486400 0.616986 0.000000
O O15 0.943023 0.351178 0.500000
O O16 0.896157 0.288532 0.261944
O O17 0.000000 0.362651 0.252700
O O18 0.116284 0.343062 0.500000
O O19 0.191599 0.383198 0.287687
#
# Coordination Sequence:
#
# PCOD8329239 Si02
#       7
#    24   6  24  12  24  24  24
#     4   9  17  31  54  84 118 156 198 244 295 356
#     4  12  27  48  68  92 124 160 208 264 322 386
#     4  11  22  37  59  89 125 161 200 248 298 355
#     4  12  24  41  65  93 124 160 202 254 312 372
#     4  10  22  39  58  83 116 153 198 254 311 366
#     4  10  22  40  61  86 118 156 200 250 302 360
#     4  10  21  38  60  89 123 158 196 237 291 361
#
# _framework density 21.046457
#
# number of rings (size 3 to 8) (size 9 to 14) (size 15 to 20)
#    0.000    1.739    1.739    2.304    0.000    7.304 
#    0.000    3.478    0.000    1.565    0.000    0.000 
#    0.000    0.000    0.000    0.000    0.000    0.000 
#
# Total GULP energy -1710089.484425 kJ/mol
# GULP energy per Si atom -12391.952786 kJ/mol
# Density = 2.099855 g / cm^3
# Si number density = 21.046457 Si / 1000 Ang^3
#
#
#
# Elastic Constant Matrix: (Units=GPa)
#
#
# Indices 1 2 3 4 5 6 
#
# 1 121.5424 60.0547 30.3568 0.0000 0.0000 0.0000
# 2 60.0547 121.5424 30.3568 0.0000 0.0000 0.0000
# 3 30.3568 30.3568 65.7918 0.0000 0.0000 0.0000
# 4 0.0000 0.0000 0.0000 22.9089 0.0000 0.0000
# 5 0.0000 0.0000 0.0000 0.0000 22.9089 0.0000
# 6 0.0000 0.0000 0.0000 0.0000 0.0000 30.7439
#
#
#
# Elastic Compliance Matrix: (Units=1/GPa)
#
#
# Indices 1 2 3 4 5 6 
#
# 1 0.011387 -0.004876 -0.003004 0.000000 0.000000 0.000000
# 2 -0.004876 0.011387 -0.003004 0.000000 0.000000 0.000000
# 3 -0.003004 -0.003004 0.017972 0.000000 0.000000 0.000000
# 4 0.000000 0.000000 0.000000 0.043651 0.000000 0.000000
# 5 0.000000 0.000000 0.000000 0.000000 0.043651 0.000000
# 6 0.000000 0.000000 0.000000 0.000000 0.000000 0.032527
#
#
# Mechanical properties :
#
#
# Convention : Reuss Voigt Hill
#
# Bulk Modulus (GPa) = 52.69538 61.15701 56.92620
# Shear Modulus (GPa) = 26.50122 27.85289 27.17706
#
# Velocity S-wave (km/s) = 3.55234 3.64180 3.59735
# Velocity P-wave (km/s) = 6.47437 6.84141 6.66042
#
# Compressibility (1/GPa) = 0.01897699
#
# Stress axis : x y z
#
# Youngs Moduli (GPa) = 87.81741 87.81741 55.64258
#
# Poissons Ratio (x) = 0.42821 0.16717
# Poissons Ratio (y) = 0.42821 0.16717
# Poissons Ratio (z) = 0.26383 0.26383
#
# Static dielectric constant tensor:
#      x y z
#    x 3.596910 0.000000 0.000000 
#    y 0.000000 3.596910 0.000000 
#    z 0.000000 0.000000 3.555090 
# 
# 
# High freq. dielectric constant tensor:
#      x y z
#    x 1.820550 0.000000 0.000000 
#    y 0.000000 1.820550 0.000000 
#    z 0.000000 0.000000 1.814790 
# 
# From -- ./inp_files/2036.got.cif
#   From: 2010.03.12/outbox.cif.g09.slc.cpg/sg191_2_cif.got.tgz:2036.got - 2010.04.01 12:09:02.
