data_PCOD8329869
_publ_section_title
;
Structure prediction by ZEFSAII (Michael W. Deem and Ramdas Pophale) SiO2 
 PCOD8329869
Probable space group: P 63/M C M
;
_chemical_formula_sum "Si O2"
_cell_formula_units_Z 120
_cell_length_a 24.523552
_cell_length_b 24.523552
_cell_length_c 14.457961
_cell_angle_alpha 90.000000
_cell_angle_beta 90.000000
_cell_angle_gamma 120.000000
_cell_volume 7530.163884
_symmetry_space_group_name_H-M "P 63/M C M"
_symmetry_group_IT_number 193
_symmetry_cell_setting 'hexagonal'
loop_
_space_group_symop_operation_xyz
x,y,z
x-y,x,1/2+z
-y,x-y,z
-x,-y,1/2+z
-x+y,-x,z
y,-x+y,1/2+z
x-y,-y,1/2-z
-x,-x+y,1/2-z
y,x,1/2-z
-y,-x,-z
-x+y,y,-z
x,x-y,-z
-x,-y,-z
-x+y,-x,1/2-z
y,-x+y,-z
x,y,1/2-z
x-y,x,-z
-y,x-y,1/2-z
-x+y,y,1/2+z
x,x-y,1/2+z
-y,-x,1/2+z
y,x,z
x-y,-y,z
-x,-x+y,z
loop_
_atom_site_type_symbol
_atom_site_label
_atom_site_fract_x
_atom_site_fract_y
_atom_site_fract_z
Si Si1 0.068761 0.312562 0.144563
Si Si2 0.203896 0.355508 0.145661
Si Si3 0.476394 0.649871 0.992405
Si Si4 0.500060 0.753881 0.856839
Si Si5 0.684105 0.069896 0.478307
O O1 0.076375 0.335901 0.250000
O O2 0.130167 0.305946 0.120394
O O3 0.069385 0.367957 0.085072
O O4 0.000000 0.248222 0.130225
O O5 0.219309 0.345044 0.250000
O O6 0.214724 0.425237 0.132088
O O7 0.250523 0.346711 0.078476
O O8 0.481554 0.681209 0.092154
O O9 0.539697 0.649307 0.965746
O O10 0.421138 0.578862 0.000000
O O11 0.464154 0.686782 0.909574
O O12 0.478500 0.744542 0.750000
O O13 0.636416 0.000000 0.441713
#
# Coordination Sequence:
#
# PCOD8329869 Si02
#       5
#    24  24  24  24  24
#     4   9  16  26  44  70  92 113 148 188 224 266
#     4   9  16  29  49  67  87 119 153 186 224 270
#     4  10  20  33  49  68  91 115 150 194 237 290
#     4   9  18  34  52  66  83 113 149 188 236 288
#     4  10  19  30  46  68  94 124 155 188 229 280
#
# _framework density 15.935908
#
# number of rings (size 3 to 8) (size 9 to 14) (size 15 to 20)
#    0.000    2.600    2.000    0.600    0.000    1.600 
#    4.800    0.000    0.000    0.000    0.000    5.600 
#    0.000    0.000    0.000    0.600    0.000   16.800 
#
# Total GULP energy -1487038.700996 kJ/mol
# GULP energy per Si atom -12391.989175 kJ/mol
# Density = 1.589964 g / cm^3
# Si number density = 15.935908 Si / 1000 Ang^3
#
#
#
# Elastic Constant Matrix: (Units=GPa)
#
#
# Indices 1 2 3 4 5 6 
#
# 1 88.4948 54.6214 33.9809 0.0000 0.0000 0.0000
# 2 54.6214 88.4948 33.9809 0.0000 0.0000 0.0000
# 3 33.9809 33.9809 90.3256 0.0000 0.0000 0.0000
# 4 0.0000 0.0000 0.0000 16.5552 0.0000 0.0000
# 5 0.0000 0.0000 0.0000 0.0000 16.5552 0.0000
# 6 0.0000 0.0000 0.0000 0.0000 0.0000 16.9367
#
#
#
# Elastic Compliance Matrix: (Units=1/GPa)
#
#
# Indices 1 2 3 4 5 6 
#
# 1 0.019014 -0.010507 -0.003200 0.000000 0.000000 0.000000
# 2 -0.010507 0.019014 -0.003200 0.000000 0.000000 0.000000
# 3 -0.003200 -0.003200 0.013479 0.000000 0.000000 0.000000
# 4 0.000000 0.000000 0.000000 0.060404 0.000000 0.000000
# 5 0.000000 0.000000 0.000000 0.000000 0.060404 0.000000
# 6 0.000000 0.000000 0.000000 0.000000 0.000000 0.059043
#
#
# Mechanical properties :
#
#
# Convention : Reuss Voigt Hill
#
# Bulk Modulus (GPa) = 56.52384 56.94240 56.73312
# Shear Modulus (GPa) = 18.44527 19.65825 19.05176
#
# Velocity S-wave (km/s) = 3.40585 3.51605 3.46139
# Velocity P-wave (km/s) = 7.14233 7.23140 7.18700
#
# Compressibility (1/GPa) = 0.01769165
#
# Stress axis : x y z
#
# Youngs Moduli (GPa) = 52.59177 52.59177 74.18903
#
# Poissons Ratio (x) = 0.55260 0.23744
# Poissons Ratio (y) = 0.55260 0.23744
# Poissons Ratio (z) = 0.16832 0.16832
#
# Static dielectric constant tensor:
#      x y z
#    x 2.943750 0.000000 0.000000 
#    y 0.000000 2.943750 0.000000 
#    z 0.000000 0.000000 3.220000 
# 
# 
# High freq. dielectric constant tensor:
#      x y z
#    x 1.585530 0.000000 0.000000 
#    y 0.000000 1.585530 0.000000 
#    z 0.000000 0.000000 1.626920 
# 
# From -- ./inp_files/3992.got.cif
#   From: 2010.03.12/outbox.cif.g09.slc.cpg/sg193_2_cif.got.tgz:3992.got - 2010.04.01 12:20:39.
