data_PCOD8329720
_publ_section_title
;
Structure prediction by ZEFSAII (Michael W. Deem and Ramdas Pophale) SiO2 
 PCOD8329720
Probable space group: P 6/M C C
;
_chemical_formula_sum "Si O2"
_cell_formula_units_Z 126
_cell_length_a 30.677188
_cell_length_b 30.677188
_cell_length_c 9.153715
_cell_angle_alpha 90.000000
_cell_angle_beta 90.000000
_cell_angle_gamma 120.000000
_cell_volume 7460.348475
_symmetry_space_group_name_H-M "P 6/M C C"
_symmetry_group_IT_number 192
_symmetry_cell_setting 'hexagonal'
loop_
_space_group_symop_operation_xyz
x,y,z
x-y,x,z
-y,x-y,z
-x,-y,z
-x+y,-x,z
y,-x+y,z
x-y,-y,1/2-z
-x,-x+y,1/2-z
y,x,1/2-z
-y,-x,1/2-z
-x+y,y,1/2-z
x,x-y,1/2-z
-x,-y,-z
-x+y,-x,-z
y,-x+y,-z
x,y,-z
x-y,x,-z
-y,x-y,-z
-x+y,y,1/2+z
x,x-y,1/2+z
-y,-x,1/2+z
y,x,1/2+z
x-y,-y,1/2+z
-x,-x+y,1/2+z
loop_
_atom_site_type_symbol
_atom_site_label
_atom_site_fract_x
_atom_site_fract_y
_atom_site_fract_z
Si Si1 0.390576 0.239758 0.167825
Si Si2 0.312770 0.361475 0.176945
Si Si3 0.541756 0.610316 0.832688
Si Si4 0.000000 0.500000 0.250000
Si Si5 0.554753 0.237485 0.000000
Si Si6 0.766937 0.346183 0.500000
Si Si7 0.822810 0.499942 0.767613
O O1 0.375974 0.187987 0.250000
O O2 0.364262 0.265331 0.259668
O O3 0.450529 0.276535 0.163490
O O4 0.371021 0.228818 0.000000
O O5 0.313040 0.313040 0.250000
O O6 0.365235 0.408651 0.232672
O O7 0.311145 0.359146 0.000000
O O8 0.513937 0.549767 0.843621
O O9 0.507044 0.628677 0.751012
O O10 0.554337 0.631290 0.000000
O O11 0.598870 0.225270 0.000000
O O12 0.586741 0.297991 0.000000
O O13 0.513896 0.211218 0.874170
O O14 0.793883 0.343514 0.641286
#
# Coordination Sequence:
#
# PCOD8329720 Si02
#       7
#    24  24  24   6  12  12  24
#     4  11  22  38  61  87 113 140 178 222 262 314
#     4  11  22  38  58  80 111 146 178 212 262 313
#     4  11  24  41  56  79 105 134 164 204 245 303
#     4  12  26  36  64  78 110 132 170 200 250 312
#     4  12  27  38  64  76  98 126 162 202 253 310
#     4  12  23  46  54  80  96 126 154 210 247 306
#     4  11  24  40  61  77 104 128 164 202 254 301
#
# _framework density 16.889291
#
# number of rings (size 3 to 8) (size 9 to 14) (size 15 to 20)
#    0.000    0.762    2.857    6.190    9.333    0.762 
#    0.000    1.905    0.000    0.000    0.000    0.000 
#    0.000    0.000    0.000    0.000    0.000    0.000 
#
# Total GULP energy -1561024.452466 kJ/mol
# GULP energy per Si atom -12389.082956 kJ/mol
# Density = 1.685085 g / cm^3
# Si number density = 16.889291 Si / 1000 Ang^3
#
#
#
# Elastic Constant Matrix: (Units=GPa)
#
#
# Indices 1 2 3 4 5 6 
#
# 1 77.5107 34.2686 31.2155 0.0000 0.0000 0.0000
# 2 34.2686 77.5107 31.2155 0.0000 0.0000 0.0000
# 3 31.2155 31.2155 104.6304 0.0000 0.0000 0.0000
# 4 0.0000 0.0000 0.0000 21.1082 0.0000 0.0000
# 5 0.0000 0.0000 0.0000 0.0000 21.1082 0.0000
# 6 0.0000 0.0000 0.0000 0.0000 0.0000 21.6211
#
#
#
# Elastic Compliance Matrix: (Units=1/GPa)
#
#
# Indices 1 2 3 4 5 6 
#
# 1 0.016930 -0.006195 -0.003203 0.000000 0.000000 0.000000
# 2 -0.006195 0.016930 -0.003203 0.000000 0.000000 0.000000
# 3 -0.003203 -0.003203 0.011468 0.000000 0.000000 0.000000
# 4 0.000000 0.000000 0.000000 0.047375 0.000000 0.000000
# 5 0.000000 0.000000 0.000000 0.000000 0.047375 0.000000
# 6 0.000000 0.000000 0.000000 0.000000 0.000000 0.046251
#
#
# Mechanical properties :
#
#
# Convention : Reuss Voigt Hill
#
# Bulk Modulus (GPa) = 49.68294 50.33904 50.01099
# Shear Modulus (GPa) = 22.91051 23.63099 23.27075
#
# Velocity S-wave (km/s) = 3.68708 3.74461 3.71595
# Velocity P-wave (km/s) = 6.89977 6.96894 6.93444
#
# Compressibility (1/GPa) = 0.02012763
#
# Stress axis : x y z
#
# Youngs Moduli (GPa) = 59.06577 59.06577 87.19589
#
# Poissons Ratio (x) = 0.36593 0.27926
# Poissons Ratio (y) = 0.36593 0.27926
# Poissons Ratio (z) = 0.18917 0.18917
#
# Static dielectric constant tensor:
#      x y z
#    x 3.670010 0.000000 0.000000 
#    y 0.000000 3.670010 0.000000 
#    z 0.000000 0.000000 3.381500 
# 
# 
# High freq. dielectric constant tensor:
#      x y z
#    x 1.627270 0.000000 0.000000 
#    y 0.000000 1.627270 0.000000 
#    z 0.000000 0.000000 1.669080 
# 
# From -- ./inp_files/1121.got.cif
#   From: 2010.03.12/outbox.cif.g09.slc.cpg/sg192_1_cif.got.tgz:1121.got - 2010.04.01 12:16:15.
