data_PCOD8329933
_publ_section_title
;
Structure prediction by ZEFSAII (Michael W. Deem and Ramdas Pophale) SiO2 
 PCOD8329933
Probable space group: P 63/M C M
;
_chemical_formula_sum "Si O2"
_cell_formula_units_Z 144
_cell_length_a 22.985462
_cell_length_b 22.985462
_cell_length_c 18.253927
_cell_angle_alpha 90.000000
_cell_angle_beta 90.000000
_cell_angle_gamma 120.000000
_cell_volume 8352.056350
_symmetry_space_group_name_H-M "P 63/M C M"
_symmetry_group_IT_number 193
_symmetry_cell_setting 'hexagonal'
loop_
_space_group_symop_operation_xyz
x,y,z
x-y,x,1/2+z
-y,x-y,z
-x,-y,1/2+z
-x+y,-x,z
y,-x+y,1/2+z
x-y,-y,1/2-z
-x,-x+y,1/2-z
y,x,1/2-z
-y,-x,-z
-x+y,y,-z
x,x-y,-z
-x,-y,-z
-x+y,-x,1/2-z
y,-x+y,-z
x,y,1/2-z
x-y,x,-z
-y,x-y,1/2-z
-x+y,y,1/2+z
x,x-y,1/2+z
-y,-x,1/2+z
y,x,z
x-y,-y,z
-x,-x+y,z
loop_
_atom_site_type_symbol
_atom_site_label
_atom_site_fract_x
_atom_site_fract_y
_atom_site_fract_z
Si Si1 0.921536 0.730923 0.456689
Si Si2 0.635366 0.924538 0.924725
Si Si3 0.610683 0.422582 0.336152
Si Si4 0.497491 0.420278 0.563825
Si Si5 0.760684 0.274665 0.836920
Si Si6 0.187328 0.824394 0.836403
O O1 0.881221 0.762442 0.500000
O O2 0.914122 0.669699 0.504541
O O3 0.887367 0.697882 0.378730
O O4 0.000000 0.788284 0.445462
O O5 0.562458 0.907846 0.953129
O O6 0.634219 0.879219 0.857403
O O7 0.676728 0.000000 0.894284
O O8 0.611905 0.419199 0.250000
O O9 0.579432 0.468081 0.359885
O O10 0.562841 0.348475 0.368636
O O11 0.685811 0.456704 0.369392
O O12 0.553495 0.446506 0.500000
O O13 0.472782 0.472782 0.575263
O O14 0.755440 0.273265 0.750000
O O15 0.812432 0.248915 0.859219
O O16 0.186791 0.838010 0.750000
#
# Coordination Sequence:
#
# PCOD8329933 Si02
#       6
#    24  24  24  24  24  24
#     4   9  19  35  56  79 107 143 173 203 247 306
#     4   9  18  34  53  73 100 137 174 210 260 316
#     4  10  19  34  52  68  92 128 168 212 261 313
#     4  10  21  34  49  71  97 127 166 215 264 310
#     4   9  18  31  48  69  93 126 168 215 265 315
#     4  10  19  32  51  79 106 130 169 217 265 313
#
# _framework density 17.241261999999999
#
# number of rings (size 3 to 8) (size 9 to 14) (size 15 to 20)
#    0.000    2.500    1.667    0.333    2.333    2.333 
#    0.000    2.500    0.000    3.167    0.000    0.000 
#    0.000    0.000    0.000    0.500    0.000    0.000 
#
# Total GULP energy -1784706.023432 kJ/mol
# GULP energy per Si atom -12393.791829 kJ/mol
# Density = 1.720202 g / cm^3
# Si number density = 17.241262 Si / 1000 Ang^3
#
#
#
# Elastic Constant Matrix: (Units=GPa)
#
#
# Indices 1 2 3 4 5 6 
#
# 1 103.3684 50.4166 37.1244 0.0000 0.0000 0.0000
# 2 50.4166 103.3684 37.1244 0.0000 0.0000 0.0000
# 3 37.1244 37.1244 50.6863 0.0000 0.0000 0.0000
# 4 0.0000 0.0000 0.0000 20.8931 0.0000 0.0000
# 5 0.0000 0.0000 0.0000 0.0000 20.8931 0.0000
# 6 0.0000 0.0000 0.0000 0.0000 0.0000 26.4759
#
#
#
# Elastic Compliance Matrix: (Units=1/GPa)
#
#
# Indices 1 2 3 4 5 6 
#
# 1 0.014473 -0.004412 -0.007368 0.000000 0.000000 0.000000
# 2 -0.004412 0.014473 -0.007368 0.000000 0.000000 0.000000
# 3 -0.007368 -0.007368 0.030523 0.000000 0.000000 0.000000
# 4 0.000000 0.000000 0.000000 0.047863 0.000000 0.000000
# 5 0.000000 0.000000 0.000000 0.000000 0.047863 0.000000
# 6 0.000000 0.000000 0.000000 0.000000 0.000000 0.037770
#
#
# Mechanical properties :
#
#
# Convention : Reuss Voigt Hill
#
# Bulk Modulus (GPa) = 47.23752 56.30600 51.77176
# Shear Modulus (GPa) = 20.98030 22.50292 21.74161
#
# Velocity S-wave (km/s) = 3.49214 3.61664 3.55494
# Velocity P-wave (km/s) = 6.61192 7.08299 6.85151
#
# Compressibility (1/GPa) = 0.02116961
#
# Stress axis : x y z
#
# Youngs Moduli (GPa) = 69.09611 69.09611 32.76233
#
# Poissons Ratio (x) = 0.30489 0.24140
# Poissons Ratio (y) = 0.30489 0.24140
# Poissons Ratio (z) = 0.50912 0.50912
#
# Static dielectric constant tensor:
#      x y z
#    x 3.386900 0.000000 0.000000 
#    y 0.000000 3.386900 0.000000 
#    z 0.000000 0.000000 2.941670 
# 
# 
# High freq. dielectric constant tensor:
#      x y z
#    x 1.663300 0.000000 0.000000 
#    y 0.000000 1.663300 0.000000 
#    z 0.000000 0.000000 1.644930 
# 
# From -- ./inp_files/5538.got.cif
#   From: 2010.03.12/outbox.cif.g09.slc.cpg/sg193_3_cif.got.tgz:5538.got - 2010.04.01 12:20:39.
