data_PCOD8329455
_publ_section_title
;
Structure prediction by ZEFSAII (Michael W. Deem and Ramdas Pophale) SiO2 
 PCOD8329455
Probable space group: P 6/M C C
;
_chemical_formula_sum "Si O2"
_cell_formula_units_Z 144
_cell_length_a 31.684105
_cell_length_b 31.684105
_cell_length_c 8.701575
_cell_angle_alpha 90.000000
_cell_angle_beta 90.000000
_cell_angle_gamma 120.000000
_cell_volume 7565.042761
_symmetry_space_group_name_H-M "P 6/M C C"
_symmetry_group_IT_number 192
_symmetry_cell_setting 'hexagonal'
loop_
_space_group_symop_operation_xyz
x,y,z
x-y,x,z
-y,x-y,z
-x,-y,z
-x+y,-x,z
y,-x+y,z
x-y,-y,1/2-z
-x,-x+y,1/2-z
y,x,1/2-z
-y,-x,1/2-z
-x+y,y,1/2-z
x,x-y,1/2-z
-x,-y,-z
-x+y,-x,-z
y,-x+y,-z
x,y,-z
x-y,x,-z
-y,x-y,-z
-x+y,y,1/2+z
x,x-y,1/2+z
-y,-x,1/2+z
y,x,1/2+z
x-y,-y,1/2+z
-x,-x+y,1/2+z
loop_
_atom_site_type_symbol
_atom_site_label
_atom_site_fract_x
_atom_site_fract_y
_atom_site_fract_z
Si Si1 0.666904 0.241243 0.182901
Si Si2 0.333084 0.854633 0.182062
Si Si3 0.479081 0.428828 0.182942
Si Si4 0.761291 0.711011 0.319053
Si Si5 0.383949 0.237922 0.182649
Si Si6 0.806935 0.857714 0.818256
O O1 0.717570 0.282431 0.250000
O O2 0.623913 0.247825 0.250000
O O3 0.660029 0.189742 0.240051
O O4 0.667284 0.245289 0.000000
O O5 0.377507 0.905634 0.241152
O O6 0.282825 0.848698 0.246959
O O7 0.331791 0.854675 0.000000
O O8 0.434931 0.434931 0.250000
O O9 0.529850 0.470151 0.250000
O O10 0.479996 0.432909 0.000000
O O11 0.718364 0.718364 0.250000
O O12 0.756350 0.710587 0.500000
O O13 0.754835 0.660218 0.258576
O O14 0.813950 0.754279 0.264829
O O15 0.376655 0.188328 0.250000
O O16 0.384094 0.234929 0.000000
O O17 0.848931 0.848931 0.750000
O O18 0.814906 0.907453 0.750000
O O19 0.811503 0.861534 0.000000
#
# Coordination Sequence:
#
# PCOD8329455 Si02
#       6
#    24  24  24  24  24  24
#     4  11  22  38  58  81 106 136 171 213 261 314
#     4   9  20  36  55  77 106 139 174 214 258 305
#     4  10  19  34  54  78 105 136 172 215 261 308
#     4   9  19  33  52  76 105 137 173 214 258 303
#     4  10  20  36  54  76 105 139 174 213 257 306
#     4  10  19  32  50  75 103 135 172 214 258 305
#
# _framework density 19.034922999999999
#
# number of rings (size 3 to 8) (size 9 to 14) (size 15 to 20)
#    0.000    2.167    0.000    3.667    0.000    2.000 
#    0.000    5.000    0.000    0.167    0.000    1.167 
#    0.000    0.000    0.000    0.000    0.000    0.000 
#
# Total GULP energy -1785901.000357 kJ/mol
# GULP energy per Si atom -12402.090280 kJ/mol
# Density = 1.899160 g / cm^3
# Si number density = 19.034923 Si / 1000 Ang^3
#
#
#
# Elastic Constant Matrix: (Units=GPa)
#
#
# Indices 1 2 3 4 5 6 
#
# 1 136.1527 64.8963 32.2656 0.0000 0.0000 0.0000
# 2 64.8963 136.1527 32.2656 0.0000 0.0000 0.0000
# 3 32.2656 32.2656 54.3474 0.0000 0.0000 0.0000
# 4 0.0000 0.0000 0.0000 22.3532 0.0000 0.0000
# 5 0.0000 0.0000 0.0000 0.0000 22.3532 0.0000
# 6 0.0000 0.0000 0.0000 0.0000 0.0000 35.6282
#
#
#
# Elastic Compliance Matrix: (Units=1/GPa)
#
#
# Indices 1 2 3 4 5 6 
#
# 1 0.010089 -0.003944 -0.003648 0.000000 0.000000 0.000000
# 2 -0.003944 0.010089 -0.003648 0.000000 0.000000 0.000000
# 3 -0.003648 -0.003648 0.022732 0.000000 0.000000 0.000000
# 4 0.000000 0.000000 0.000000 0.044736 0.000000 0.000000
# 5 0.000000 0.000000 0.000000 0.000000 0.044736 0.000000
# 6 0.000000 0.000000 0.000000 0.000000 0.000000 0.028068
#
#
# Mechanical properties :
#
#
# Convention : Reuss Voigt Hill
#
# Bulk Modulus (GPa) = 48.94998 65.05644 57.00321
# Shear Modulus (GPa) = 26.35154 29.21527 27.78340
#
# Velocity S-wave (km/s) = 3.72476 3.92193 3.82462
# Velocity P-wave (km/s) = 6.65358 7.40002 7.03671
#
# Compressibility (1/GPa) = 0.02042902
#
# Stress axis : x y z
#
# Youngs Moduli (GPa) = 99.11439 99.11439 43.99097
#
# Poissons Ratio (x) = 0.39095 0.16049
# Poissons Ratio (y) = 0.39095 0.16049
# Poissons Ratio (z) = 0.36159 0.36159
#
# Static dielectric constant tensor:
#      x y z
#    x 3.688000 0.000000 0.000000 
#    y 0.000000 3.688000 0.000000 
#    z 0.000000 0.000000 3.366780 
# 
# 
# High freq. dielectric constant tensor:
#      x y z
#    x 1.747500 0.000000 0.000000 
#    y 0.000000 1.747500 0.000000 
#    z 0.000000 0.000000 1.728110 
# 
# From -- ./inp_files/1212.got.cif
#   From: 2010.03.12/outbox.cif.g09.slc.cpg/sg192_1_cif.got.tgz:1212.got - 2010.04.01 12:16:15.
