data_PCOD8329244
_publ_section_title
;
Structure prediction by ZEFSAII (Michael W. Deem and Ramdas Pophale) SiO2 
 PCOD8329244
Probable space group: P 6/M M M
;
_chemical_formula_sum "Si O2"
_cell_formula_units_Z 72
_cell_length_a 17.545049
_cell_length_b 17.545049
_cell_length_c 13.906301
_cell_angle_alpha 90.000000
_cell_angle_beta 90.000000
_cell_angle_gamma 120.000000
_cell_volume 3707.246194
_symmetry_space_group_name_H-M "P 6/M M M"
_symmetry_group_IT_number 191
_symmetry_cell_setting 'hexagonal'
loop_
_space_group_symop_operation_xyz
x,y,z
x-y,x,z
-y,x-y,z
-x,-y,z
-x+y,-x,z
y,-x+y,z
x-y,-y,-z
-x,-x+y,-z
y,x,-z
-y,-x,-z
-x+y,y,-z
x,x-y,-z
-x,-y,-z
-x+y,-x,-z
y,-x+y,-z
x,y,-z
x-y,x,-z
-y,x-y,-z
-x+y,y,z
x,x-y,z
-y,-x,z
y,x,z
x-y,-y,z
-x,-x+y,z
loop_
_atom_site_type_symbol
_atom_site_label
_atom_site_fract_x
_atom_site_fract_y
_atom_site_fract_z
Si Si1 0.278628 0.721373 0.613186
Si Si2 0.665265 0.150661 0.000000
Si Si3 0.822664 0.822664 0.108638
Si Si4 0.637910 0.818955 0.385831
Si Si5 0.287917 0.000000 0.714803
Si Si6 0.000000 0.588538 0.146644
O O1 0.233552 0.616776 0.641913
O O2 0.271320 0.728681 0.500000
O O3 0.230432 0.769569 0.660918
O O4 0.656587 0.090216 0.908445
O O5 0.760275 0.239726 0.000000
O O6 0.587714 0.175427 0.000000
O O7 0.916664 0.833327 0.127728
O O8 0.753920 0.753920 0.182707
O O9 0.789265 0.789265 0.000000
O O10 0.634981 0.817491 0.500000
O O11 0.691033 0.773110 0.350558
O O12 0.375834 0.000000 0.746625
O O13 0.000000 0.500000 0.162258
#
# Coordination Sequence:
#
# PCOD8329244 Si02
#       6
#    12  12  12  12  12  12
#     4   7  14  34  64  90 116 151 196 254 318 366
#     4   9  18  35  62  87 123 169 208 249 306 369
#     4  10  21  39  63  92 120 150 194 251 312 365
#     4  11  24  42  63  90 125 167 210 258 312 369
#     4  12  24  39  62  89 125 164 205 254 305 376
#     4   9  22  39  54  87 129 160 199 259 310 367
#
# _framework density 19.421423000000001
#
# number of rings (size 3 to 8) (size 9 to 14) (size 15 to 20)
#    0.333    2.000    1.667    1.833    4.667    2.000 
#    0.000    0.000    0.000    5.000    0.000    2.333 
#    0.000    0.000    0.000    0.000    0.000    0.000 
#
# Total GULP energy -892167.303533 kJ/mol
# GULP energy per Si atom -12391.212549 kJ/mol
# Density = 1.937722 g / cm^3
# Si number density = 19.421423 Si / 1000 Ang^3
#
#
#
# Elastic Constant Matrix: (Units=GPa)
#
#
# Indices 1 2 3 4 5 6 
#
# 1 134.0772 71.7978 45.3269 0.0000 0.0000 0.0000
# 2 71.7978 134.0772 45.3269 0.0000 0.0000 0.0000
# 3 45.3269 45.3269 81.4394 0.0000 0.0000 0.0000
# 4 0.0000 0.0000 0.0000 22.0085 0.0000 0.0000
# 5 0.0000 0.0000 0.0000 0.0000 22.0085 0.0000
# 6 0.0000 0.0000 0.0000 0.0000 0.0000 31.1397
#
#
#
# Elastic Compliance Matrix: (Units=1/GPa)
#
#
# Indices 1 2 3 4 5 6 
#
# 1 0.011245 -0.004811 -0.003581 0.000000 0.000000 0.000000
# 2 -0.004811 0.011245 -0.003581 0.000000 0.000000 0.000000
# 3 -0.003581 -0.003581 0.016265 0.000000 0.000000 0.000000
# 4 0.000000 0.000000 0.000000 0.045437 0.000000 0.000000
# 5 0.000000 0.000000 0.000000 0.000000 0.045437 0.000000
# 6 0.000000 0.000000 0.000000 0.000000 0.000000 0.032113
#
#
# Mechanical properties :
#
#
# Convention : Reuss Voigt Hill
#
# Bulk Modulus (GPa) = 67.52488 74.94412 71.23450
# Shear Modulus (GPa) = 26.22927 27.50750 26.86839
#
# Velocity S-wave (km/s) = 3.67895 3.76752 3.72350
# Velocity P-wave (km/s) = 7.27255 7.58932 7.43262
#
# Compressibility (1/GPa) = 0.01480936
#
# Stress axis : x y z
#
# Youngs Moduli (GPa) = 88.92496 88.92496 61.48040
#
# Poissons Ratio (x) = 0.42784 0.22017
# Poissons Ratio (y) = 0.42784 0.22017
# Poissons Ratio (z) = 0.31845 0.31845
#
# Static dielectric constant tensor:
#      x y z
#    x 3.685860 0.000000 0.000000 
#    y 0.000000 3.685860 0.000000 
#    z 0.000000 0.000000 3.397080 
# 
# 
# High freq. dielectric constant tensor:
#      x y z
#    x 1.762500 0.000000 0.000000 
#    y 0.000000 1.762500 0.000000 
#    z 0.000000 0.000000 1.736370 
# 
# From -- ./inp_files/3970.got.cif
#   From: 2010.03.12/outbox.cif.g09.slc.cpg/sg191_2_cif.got.tgz:3970.got - 2010.04.01 12:09:02.
