data_PCOD8329065
_publ_section_title
;
Structure prediction by ZEFSAII (Michael W. Deem and Ramdas Pophale) SiO2 
 PCOD8329065
Probable space group: P 6/M M M
;
_chemical_formula_sum "Si O2"
_cell_formula_units_Z 132
_cell_length_a 17.532117
_cell_length_b 17.532117
_cell_length_c 28.764139
_cell_angle_alpha 90.000000
_cell_angle_beta 90.000000
_cell_angle_gamma 120.000000
_cell_volume 7656.860433
_symmetry_space_group_name_H-M "P 6/M M M"
_symmetry_group_IT_number 191
_symmetry_cell_setting 'hexagonal'
loop_
_space_group_symop_operation_xyz
x,y,z
x-y,x,z
-y,x-y,z
-x,-y,z
-x+y,-x,z
y,-x+y,z
x-y,-y,-z
-x,-x+y,-z
y,x,-z
-y,-x,-z
-x+y,y,-z
x,x-y,-z
-x,-y,-z
-x+y,-x,-z
y,-x+y,-z
x,y,-z
x-y,x,-z
-y,x-y,-z
-x+y,y,z
x,x-y,z
-y,-x,z
y,x,z
x-y,-y,z
-x,-x+y,z
loop_
_atom_site_type_symbol
_atom_site_label
_atom_site_fract_x
_atom_site_fract_y
_atom_site_fract_z
Si Si1 0.727801 0.629720 0.736408
Si Si2 0.901917 0.630690 0.088139
Si Si3 0.510047 0.841686 0.549063
Si Si4 0.331744 0.487593 0.350159
Si Si5 0.331676 0.842101 0.000000
Si Si6 0.509803 0.841426 0.175745
O O1 0.832453 0.664905 0.737977
O O2 0.712360 0.712360 0.744081
O O3 0.684610 0.585886 0.687368
O O4 0.677031 0.556478 0.775367
O O5 0.833245 0.666490 0.086471
O O6 0.887772 0.567180 0.045333
O O7 0.892699 0.578448 0.135136
O O8 0.000000 0.714691 0.085859
O O9 0.564323 0.883793 0.500000
O O10 0.426529 0.853057 0.547737
O O11 0.477288 0.738644 0.549527
O O12 0.557750 0.881692 0.598613
O O13 0.258466 0.516932 0.344325
O O14 0.426906 0.573095 0.342806
O O15 0.261719 0.738281 0.000000
O O16 0.428393 0.856786 0.000000
O O17 0.429015 0.858030 0.170531
O O18 0.474754 0.737377 0.172393
#
# Coordination Sequence:
#
# PCOD8329065 Si02
#       6
#    24  24  24  24  12  24
#     4  10  21  35  50  68  89 115 147 185 230 275
#     4  10  21  35  51  72  97 127 162 202 247 288
#     4   8  12  18  30  50  78 113 152 189 219 246
#     4   9  16  25  39  61  90 123 156 187 217 251
#     4  10  20  33  50  73 102 134 165 196 232 277
#     4  10  20  33  50  73 102 134 164 191 219 255
#
# _framework density 17.239443000000001
#
# number of rings (size 3 to 8) (size 9 to 14) (size 15 to 20)
#    0.000    2.545    0.000    2.545    0.000    6.182 
#    0.000    3.636    0.000    0.909    0.000    2.545 
#    0.000    6.545    0.000    0.000    0.000    0.727 
#
# Total GULP energy -1635457.690536 kJ/mol
# GULP energy per Si atom -12389.830989 kJ/mol
# Density = 1.720020 g / cm^3
# Si number density = 17.239443 Si / 1000 Ang^3
#
#
#
# Elastic Constant Matrix: (Units=GPa)
#
#
# Indices 1 2 3 4 5 6 
#
# 1 80.6008 59.2680 25.4762 0.0000 0.0000 0.0000
# 2 59.2680 80.6008 25.4762 0.0000 0.0000 0.0000
# 3 25.4762 25.4762 119.3654 0.0000 0.0000 0.0000
# 4 0.0000 0.0000 0.0000 28.0768 0.0000 0.0000
# 5 0.0000 0.0000 0.0000 0.0000 28.0768 0.0000
# 6 0.0000 0.0000 0.0000 0.0000 0.0000 10.6664
#
#
#
# Elastic Compliance Matrix: (Units=1/GPa)
#
#
# Indices 1 2 3 4 5 6 
#
# 1 0.027314 -0.019562 -0.001655 0.000000 0.000000 0.000000
# 2 -0.019562 0.027314 -0.001655 0.000000 0.000000 0.000000
# 3 -0.001655 -0.001655 0.009084 0.000000 0.000000 0.000000
# 4 0.000000 0.000000 0.000000 0.035617 0.000000 0.000000
# 5 0.000000 0.000000 0.000000 0.000000 0.035617 0.000000
# 6 0.000000 0.000000 0.000000 0.000000 0.000000 0.093753
#
#
# Mechanical properties :
#
#
# Convention : Reuss Voigt Hill
#
# Bulk Modulus (GPa) = 55.64769 55.66755 55.65762
# Shear Modulus (GPa) = 17.82972 24.72043 21.27508
#
# Velocity S-wave (km/s) = 3.21945 3.79086 3.51678
# Velocity P-wave (km/s) = 6.79479 7.17786 6.98895
#
# Compressibility (1/GPa) = 0.01797020
#
# Stress axis : x y z
#
# Youngs Moduli (GPa) = 36.61085 36.61085 110.08475
#
# Poissons Ratio (x) = 0.71618 0.18214
# Poissons Ratio (y) = 0.71618 0.18214
# Poissons Ratio (z) = 0.06058 0.06058
#
# Static dielectric constant tensor:
#      x y z
#    x 2.982610 0.000000 0.000000 
#    y 0.000000 2.982610 0.000000 
#    z 0.000000 0.000000 3.551450 
# 
# 
# High freq. dielectric constant tensor:
#      x y z
#    x 1.630540 0.000000 0.000000 
#    y 0.000000 1.630540 0.000000 
#    z 0.000000 0.000000 1.702990 
# 
# From -- ./inp_files/9703.got.cif
#   From: 2010.03.12/outbox.cif.g09.slc.cpg/sg191_5_cif.got.tgz:9703.got - 2010.04.01 12:09:02.
