data_PCOD8329586
_publ_section_title
;
Structure prediction by ZEFSAII (Michael W. Deem and Ramdas Pophale) SiO2 
 PCOD8329586
Probable space group: P 6/M C C
;
_chemical_formula_sum "Si O2"
_cell_formula_units_Z 102
_cell_length_a 25.320289
_cell_length_b 25.320289
_cell_length_c 8.870693
_cell_angle_alpha 90.000000
_cell_angle_beta 90.000000
_cell_angle_gamma 120.000000
_cell_volume 4925.218449
_symmetry_space_group_name_H-M "P 6/M C C"
_symmetry_group_IT_number 192
_symmetry_cell_setting 'hexagonal'
loop_
_space_group_symop_operation_xyz
x,y,z
x-y,x,z
-y,x-y,z
-x,-y,z
-x+y,-x,z
y,-x+y,z
x-y,-y,1/2-z
-x,-x+y,1/2-z
y,x,1/2-z
-y,-x,1/2-z
-x+y,y,1/2-z
x,x-y,1/2-z
-x,-y,-z
-x+y,-x,-z
y,-x+y,-z
x,y,-z
x-y,x,-z
-y,x-y,-z
-x+y,y,1/2+z
x,x-y,1/2+z
-y,-x,1/2+z
y,x,1/2+z
x-y,-y,1/2+z
-x,-x+y,1/2+z
loop_
_atom_site_type_symbol
_atom_site_label
_atom_site_fract_x
_atom_site_fract_y
_atom_site_fract_z
Si Si1 0.438013 0.770856 0.324162
Si Si2 0.483812 0.374254 0.664049
Si Si3 0.066720 0.242362 0.180233
Si Si4 0.500000 0.500000 0.750000
Si Si5 0.283162 0.346274 0.173868
O O1 0.371424 0.742848 0.250000
O O2 0.469618 0.734809 0.250000
O O3 0.432841 0.759743 0.500000
O O4 0.474722 0.843645 0.292474
O O5 0.508741 0.369229 0.500000
O O6 0.483095 0.437957 0.660708
O O7 0.418347 0.314829 0.688444
O O8 0.108910 0.217820 0.250000
O O9 0.093044 0.312341 0.235200
O O10 0.000000 0.201230 0.250000
O O11 0.065409 0.238176 0.000000
O O12 0.329739 0.329739 0.250000
O O13 0.271291 0.324465 0.000000
#
# Coordination Sequence:
#
# PCOD8329586 Si02
#       5
#    24  24  24   6  24
#     4  12  26  45  68  91 120 156 204 259 318 381
#     4  11  24  40  63  96 131 169 214 262 322 388
#     4  11  22  39  63  93 127 169 215 264 319 382
#     4  12  22  40  68  98 138 176 218 268 328 400
#     4  10  20  36  57  86 122 161 204 252 305 368
#
# _framework density 20.70974
#
# number of rings (size 3 to 8) (size 9 to 14) (size 15 to 20)
#    0.000    0.941    2.353    6.941    0.000    3.765 
#    0.000    0.000    0.000    0.235    0.000    1.647 
#    0.000    0.000    0.000    0.000    0.000    0.000 
#
# Total GULP energy -1264284.348528 kJ/mol
# GULP energy per Si atom -12394.944593 kJ/mol
# Density = 2.066260 g / cm^3
# Si number density = 20.709740 Si / 1000 Ang^3
#
#
#
# Elastic Constant Matrix: (Units=GPa)
#
#
# Indices 1 2 3 4 5 6 
#
# 1 72.3412 73.1450 54.5683 0.0000 0.0000 0.0000
# 2 73.1450 72.3412 54.5683 0.0000 0.0000 0.0000
# 3 54.5683 54.5683 198.2218 0.0000 0.0000 0.0000
# 4 0.0000 0.0000 0.0000 29.4343 0.0000 0.0000
# 5 0.0000 0.0000 0.0000 0.0000 29.4343 0.0000
# 6 0.0000 0.0000 0.0000 0.0000 0.0000 -0.4019
#
#
#
# Elastic Compliance Matrix: (Units=1/GPa)
#
#
# Indices 1 2 3 4 5 6 
#
# 1 -0.617739 0.626401 -0.002385 0.000000 0.000000 -0.000001
# 2 0.626401 -0.617739 -0.002385 0.000000 0.000000 0.000001
# 3 -0.002385 -0.002385 0.006358 0.000000 0.000000 0.000000
# 4 0.000000 0.000000 0.000000 0.033974 0.000000 0.000000
# 5 0.000000 0.000000 0.000000 0.000000 0.033974 0.000000
# 6 -0.000001 0.000001 0.000000 0.000000 0.000000 -2.488278
#
#
# Mechanical properties :
#
#
# Convention : Reuss Voigt Hill
#
# Bulk Modulus (GPa) = 70.70193 78.60751 74.65472
# Shear Modulus (GPa) = -1.02291 22.40153 10.68931
#
# Velocity S-wave (km/s) = -0.70356 3.29247 2.27436
# Velocity P-wave (km/s) = 5.79254 7.24521 6.55922
#
# Compressibility (1/GPa) = 0.01414389
#
# Stress axis : x y z
#
# Youngs Moduli (GPa) = -1.61881 -1.61881 157.28736
#
# Poissons Ratio (x) = 1.01402 0.37508
# Poissons Ratio (y) = 1.01402 0.37508
# Poissons Ratio (z) = -0.00386 -0.00386
#
# Static dielectric constant tensor:
#      x y z
#    x 3.779130 0.000000 0.000000 
#    y 0.000000 3.779130 0.000000 
#    z 0.000000 0.000000 3.788300 
# 
# 
# High freq. dielectric constant tensor:
#      x y z
#    x 1.805610 0.000000 0.000000 
#    y 0.000000 1.805610 0.000000 
#    z 0.000000 0.000000 1.822870 
# 
# From -- ./inp_files/890.got.cif
#   From: 2010.03.12/outbox.cif.g09.slc.cpg/sg192_1_cif.got.tgz:890.got - 2010.04.01 12:16:15.
