data_PCOD8329169
_publ_section_title
;
Structure prediction by ZEFSAII (Michael W. Deem and Ramdas Pophale) SiO2 
 PCOD8329169
Probable space group: P 6/M M M
;
_chemical_formula_sum "Si O2"
_cell_formula_units_Z 138
_cell_length_a 31.284528
_cell_length_b 31.284528
_cell_length_c 8.109162
_cell_angle_alpha 90.000000
_cell_angle_beta 90.000000
_cell_angle_gamma 120.000000
_cell_volume 6873.308266
_symmetry_space_group_name_H-M "P 6/M M M"
_symmetry_group_IT_number 191
_symmetry_cell_setting 'hexagonal'
loop_
_space_group_symop_operation_xyz
x,y,z
x-y,x,z
-y,x-y,z
-x,-y,z
-x+y,-x,z
y,-x+y,z
x-y,-y,-z
-x,-x+y,-z
y,x,-z
-y,-x,-z
-x+y,y,-z
x,x-y,-z
-x,-y,-z
-x+y,-x,-z
y,-x+y,-z
x,y,-z
x-y,x,-z
-y,x-y,-z
-x+y,y,z
x,x-y,z
-y,-x,z
y,x,z
x-y,-y,z
-x,-x+y,z
loop_
_atom_site_type_symbol
_atom_site_label
_atom_site_fract_x
_atom_site_fract_y
_atom_site_fract_z
Si Si1 0.000000 0.827898 0.704693
Si Si2 0.087431 0.274441 0.688465
Si Si3 0.521618 0.944537 0.690270
Si Si4 0.571688 0.333318 0.690526
Si Si5 0.896625 0.000000 0.000000
Si Si6 0.758702 0.139950 0.311686
Si Si7 0.669743 0.147251 0.817213
O O1 0.955100 0.775720 0.766086
O O2 0.000000 0.838660 0.500000
O O3 0.000000 0.869392 0.825970
O O4 0.073416 0.274254 0.500000
O O5 0.136136 0.272271 0.712631
O O6 0.097653 0.327452 0.760225
O O7 0.531685 0.939358 0.500000
O O8 0.465737 0.931474 0.716307
O O9 0.530489 0.906920 0.794578
O O10 0.558956 0.000000 0.752257
O O11 0.583073 0.333482 0.500000
O O12 0.568836 0.284418 0.772153
O O13 0.616700 0.383301 0.771297
O O14 0.519652 0.331841 0.701670
O O15 0.901800 0.950900 0.000000
O O16 0.740065 0.127636 0.500000
O O17 0.807790 0.192211 0.303178
O O18 0.717776 0.142398 0.204270
O O19 0.669509 0.165850 0.000000
#
# Coordination Sequence:
#
# PCOD8329169 Si02
#       7
#    12  24  24  24   6  24  24
#     4  10  20  39  67  97 126 162 213 269 317 371
#     4   8  15  31  57  86 113 144 187 239 293 346
#     4   9  19  38  62  82  99 129 179 232 278 330
#     4  10  21  38  60  83 108 143 192 248 299 350
#     4  12  27  44  64  96 136 180 224 266 315 372
#     4   9  18  35  57  78 106 148 194 237 283 336
#     4  12  24  35  51  81 117 151 184 225 283 355
#
# _framework density 20.077667999999999
#
# number of rings (size 3 to 8) (size 9 to 14) (size 15 to 20)
#    0.000    2.261    0.000    4.913    0.000    7.652 
#    3.130    0.870    0.000    1.565    0.000    0.000 
#    0.000    0.000    0.000    0.000    0.000    0.000 
#
# Total GULP energy -1709626.693746 kJ/mol
# GULP energy per Si atom -12388.599230 kJ/mol
# Density = 2.003197 g / cm^3
# Si number density = 20.077668 Si / 1000 Ang^3
#
#
#
# Elastic Constant Matrix: (Units=GPa)
#
#
# Indices 1 2 3 4 5 6 
#
# 1 124.5610 60.7836 22.5228 0.0000 0.0000 0.0000
# 2 60.7836 124.5610 22.5228 0.0000 0.0000 0.0000
# 3 22.5228 22.5228 52.0737 0.0000 0.0000 0.0000
# 4 0.0000 0.0000 0.0000 -8.4052 0.0000 0.0000
# 5 0.0000 0.0000 0.0000 0.0000 -8.4052 0.0000
# 6 0.0000 0.0000 0.0000 0.0000 0.0000 31.8887
#
#
#
# Elastic Compliance Matrix: (Units=1/GPa)
#
#
# Indices 1 2 3 4 5 6 
#
# 1 0.010854 -0.004825 -0.002608 0.000000 0.000000 0.000000
# 2 -0.004825 0.010854 -0.002608 0.000000 0.000000 0.000000
# 3 -0.002608 -0.002608 0.021459 0.000000 0.000000 0.000000
# 4 0.000000 0.000000 0.000000 -0.118974 0.000000 0.000000
# 5 0.000000 0.000000 0.000000 0.000000 -0.118974 0.000000
# 6 0.000000 0.000000 0.000000 0.000000 0.000000 0.031359
#
#
# Mechanical properties :
#
#
# Convention : Reuss Voigt Hill
#
# Bulk Modulus (GPa) = 43.31487 56.98376 50.14932
# Shear Modulus (GPa) = -36.86119 16.04009 -10.41055
#
# Velocity S-wave (km/s) = -4.28942 2.82955 -2.27956
# Velocity P-wave (km/s) = 1.70638 6.25447 4.25480
#
# Compressibility (1/GPa) = 0.02308676
#
# Stress axis : x y z
#
# Youngs Moduli (GPa) = 92.12913 92.12913 46.59982
#
# Poissons Ratio (x) = 0.44454 0.12152
# Poissons Ratio (y) = 0.44454 0.12152
# Poissons Ratio (z) = 0.24025 0.24025
#
# Static dielectric constant tensor:
#      x y z
#    x 3.793410 0.000000 0.000000 
#    y 0.000000 3.793410 0.000000 
#    z 0.000000 0.000000 3.424210 
# 
# 
# High freq. dielectric constant tensor:
#      x y z
#    x 1.789720 0.000000 0.000000 
#    y 0.000000 1.789720 0.000000 
#    z 0.000000 0.000000 1.753140 
# 
# From -- ./inp_files/2017.got.cif
#   From: 2010.03.12/outbox.cif.g09.slc.cpg/sg191_2_cif.got.tgz:2017.got - 2010.04.01 12:09:02.
