data_PCOD8329242
_publ_section_title
;
Structure prediction by ZEFSAII (Michael W. Deem and Ramdas Pophale) SiO2 
 PCOD8329242
Probable space group: P 6/M M M
;
_chemical_formula_sum "Si O2"
_cell_formula_units_Z 36
_cell_length_a 16.941725
_cell_length_b 16.941725
_cell_length_c 7.055622
_cell_angle_alpha 90.000000
_cell_angle_beta 90.000000
_cell_angle_gamma 120.000000
_cell_volume 1753.804553
_symmetry_space_group_name_H-M "P 6/M M M"
_symmetry_group_IT_number 191
_symmetry_cell_setting 'hexagonal'
loop_
_space_group_symop_operation_xyz
x,y,z
x-y,x,z
-y,x-y,z
-x,-y,z
-x+y,-x,z
y,-x+y,z
x-y,-y,-z
-x,-x+y,-z
y,x,-z
-y,-x,-z
-x+y,y,-z
x,x-y,-z
-x,-y,-z
-x+y,-x,-z
y,-x+y,-z
x,y,-z
x-y,x,-z
-y,x-y,-z
-x+y,y,z
x,x-y,z
-y,-x,z
y,x,z
x-y,-y,z
-x,-x+y,z
loop_
_atom_site_type_symbol
_atom_site_label
_atom_site_fract_x
_atom_site_fract_y
_atom_site_fract_z
Si Si1 0.000000 0.642344 0.724462
Si Si2 0.000000 0.176410 0.724004
Si Si3 0.850063 0.514483 0.000000
O O1 0.090096 0.647882 0.811186
O O2 0.000000 0.629693 0.500000
O O3 0.000000 0.733304 0.787560
O O4 0.089282 0.178563 0.808548
O O5 0.000000 0.170047 0.500000
O O6 0.765484 0.530967 0.000000
O O7 0.814183 0.407092 0.000000
#
# Coordination Sequence:
#
# PCOD8329242 Si02
#       3
#    12  12  12
#     4  10  21  39  62  87 117 157 202 245 296 361
#     4   9  16  27  47  77 112 148 186 230 280 336
#     4  11  24  41  62  88 118 153 196 249 306 362
#
# _framework density 20.526803999999998
#
# number of rings (size 3 to 8) (size 9 to 14) (size 15 to 20)
#    0.000    2.000    0.000    4.667    0.000    8.000 
#    0.000    0.000    0.000    4.000    0.000   11.667 
#    0.000    0.000    0.000    0.000    0.000    0.000 
#
# Total GULP energy -446447.547123 kJ/mol
# GULP energy per Si atom -12401.320753 kJ/mol
# Density = 2.048008 g / cm^3
# Si number density = 20.526804 Si / 1000 Ang^3
#
#
#
# Elastic Constant Matrix: (Units=GPa)
#
#
# Indices 1 2 3 4 5 6 
#
# 1 127.6962 39.9560 34.4826 0.0000 0.0000 0.0000
# 2 39.9560 127.6962 34.4826 0.0000 0.0000 0.0000
# 3 34.4826 34.4826 136.4047 0.0000 0.0000 0.0000
# 4 0.0000 0.0000 0.0000 -409.3401 0.0000 0.0000
# 5 0.0000 0.0000 0.0000 0.0000 -409.3401 0.0000
# 6 0.0000 0.0000 0.0000 0.0000 0.0000 43.8701
#
#
#
# Elastic Compliance Matrix: (Units=1/GPa)
#
#
# Indices 1 2 3 4 5 6 
#
# 1 0.009027 -0.002370 -0.001683 0.000000 0.000000 0.000000
# 2 -0.002370 0.009027 -0.001683 0.000000 0.000000 0.000000
# 3 -0.001683 -0.001683 0.008182 0.000000 0.000000 0.000000
# 4 0.000000 0.000000 0.000000 -0.002443 0.000000 0.000000
# 5 0.000000 0.000000 0.000000 0.000000 -0.002443 0.000000
# 6 0.000000 0.000000 0.000000 0.000000 0.000000 0.022795
#
#
# Mechanical properties :
#
#
# Convention : Reuss Voigt Hill
#
# Bulk Modulus (GPa) = 67.73003 67.73772 67.73388
# Shear Modulus (GPa) = 82.59260 -136.10361 -26.75551
#
# Velocity S-wave (km/s) = 6.35010 -8.15164 -3.61424
# Velocity P-wave (km/s) = 9.31840 7.45169 3.95632
#
# Compressibility (1/GPa) = 0.01476450
#
# Stress axis : x y z
#
# Youngs Moduli (GPa) = 110.77715 110.77715 122.22002
#
# Poissons Ratio (x) = 0.26256 0.20568
# Poissons Ratio (y) = 0.26256 0.20568
# Poissons Ratio (z) = 0.18642 0.18642
#
# Static dielectric constant tensor:
#      x y z
#    x 3.804810 0.000000 0.000000 
#    y 0.000000 3.804810 0.000000 
#    z 0.000000 0.000000 3.522860 
# 
# 
# High freq. dielectric constant tensor:
#      x y z
#    x 1.807560 0.000000 0.000000 
#    y 0.000000 1.807560 0.000000 
#    z 0.000000 0.000000 1.803790 
# 
# From -- ./inp_files/239.got.cif
#   From: 2010.03.12/outbox.cif.g09.slc.cpg/sg191_1_cif.got.tgz:239.got - 2010.04.01 12:09:02.
