data_PCOD8329215
_publ_section_title
;
Structure prediction by ZEFSAII (Michael W. Deem and Ramdas Pophale) SiO2 
 PCOD8329215
Probable space group: P 6/M M M
;
_chemical_formula_sum "Si O2"
_cell_formula_units_Z 84
_cell_length_a 17.896710
_cell_length_b 17.896710
_cell_length_c 17.220644
_cell_angle_alpha 90.000000
_cell_angle_beta 90.000000
_cell_angle_gamma 120.000000
_cell_volume 4776.683015
_symmetry_space_group_name_H-M "P 6/M M M"
_symmetry_group_IT_number 191
_symmetry_cell_setting 'hexagonal'
loop_
_space_group_symop_operation_xyz
x,y,z
x-y,x,z
-y,x-y,z
-x,-y,z
-x+y,-x,z
y,-x+y,z
x-y,-y,-z
-x,-x+y,-z
y,x,-z
-y,-x,-z
-x+y,y,-z
x,x-y,-z
-x,-y,-z
-x+y,-x,-z
y,-x+y,-z
x,y,-z
x-y,x,-z
-y,x-y,-z
-x+y,y,z
x,x-y,z
-y,-x,z
y,x,z
x-y,-y,z
-x,-x+y,z
loop_
_atom_site_type_symbol
_atom_site_label
_atom_site_fract_x
_atom_site_fract_y
_atom_site_fract_z
Si Si1 0.901895 0.098106 0.092486
Si Si2 0.803430 0.196571 0.091902
Si Si3 0.257159 0.351238 0.500000
Si Si4 0.534218 0.899549 0.813093
Si Si5 0.267973 0.366130 0.668844
O O1 0.852712 0.147289 0.123325
O O2 0.000000 0.147518 0.124092
O O3 0.902168 0.097833 0.000000
O O4 0.706017 0.148392 0.121599
O O5 0.802177 0.197823 0.000000
O O6 0.268364 0.268364 0.500000
O O7 0.155040 0.310080 0.500000
O O8 0.296326 0.404540 0.580473
O O9 0.432219 0.864438 0.815840
O O10 0.556027 0.880130 0.727239
O O11 0.587413 0.000000 0.832790
O O12 0.166146 0.332292 0.682554
O O13 0.287442 0.287442 0.682553
#
# Coordination Sequence:
#
# PCOD8329215 Si02
#       5
#    12  12  12  24  24
#     4   9  17  30  51  80 111 139 167 203 251 309
#     4  11  22  37  56  76  99 133 178 223 265 316
#     4   8  14  24  45  76 105 133 167 205 242 289
#     4  10  21  37  55  75 101 132 168 213 266 317
#     4   9  16  30  52  78 107 138 171 206 248 301
#
# _framework density 17.585425000000001
#
# number of rings (size 3 to 8) (size 9 to 14) (size 15 to 20)
#    0.000    2.571    1.429    1.000    0.000    2.857 
#    0.857    2.143    0.000    4.714    0.000    4.000 
#    0.000    0.000    0.000    0.000    0.000    0.000 
#
# Total GULP energy -1040798.930395 kJ/mol
# GULP energy per Si atom -12390.463457 kJ/mol
# Density = 1.754540 g / cm^3
# Si number density = 17.585425 Si / 1000 Ang^3
#
#
#
# Elastic Constant Matrix: (Units=GPa)
#
#
# Indices 1 2 3 4 5 6 
#
# 1 111.7426 67.0192 51.7864 0.0000 0.0000 0.0000
# 2 67.0192 111.7426 51.7864 0.0000 0.0000 0.0000
# 3 51.7864 51.7864 103.7050 0.0000 0.0000 0.0000
# 4 0.0000 0.0000 0.0000 22.2662 0.0000 0.0000
# 5 0.0000 0.0000 0.0000 0.0000 22.2662 0.0000
# 6 0.0000 0.0000 0.0000 0.0000 0.0000 22.3617
#
#
#
# Elastic Compliance Matrix: (Units=1/GPa)
#
#
# Indices 1 2 3 4 5 6 
#
# 1 0.015116 -0.007244 -0.003931 0.000000 0.000000 0.000000
# 2 -0.007244 0.015116 -0.003931 0.000000 0.000000 0.000000
# 3 -0.003931 -0.003931 0.013568 0.000000 0.000000 0.000000
# 4 0.000000 0.000000 0.000000 0.044911 0.000000 0.000000
# 5 0.000000 0.000000 0.000000 0.000000 0.044911 0.000000
# 6 0.000000 0.000000 0.000000 0.000000 0.000000 0.044719
#
#
# Mechanical properties :
#
#
# Convention : Reuss Voigt Hill
#
# Bulk Modulus (GPa) = 73.59163 74.26380 73.92771
# Shear Modulus (GPa) = 23.46519 23.81870 23.64194
#
# Velocity S-wave (km/s) = 3.65684 3.68429 3.67059
# Velocity P-wave (km/s) = 7.73104 7.77307 7.75208
#
# Compressibility (1/GPa) = 0.01358850
#
# Stress axis : x y z
#
# Youngs Moduli (GPa) = 66.15703 66.15703 73.70049
#
# Poissons Ratio (x) = 0.47925 0.28970
# Poissons Ratio (y) = 0.47925 0.28970
# Poissons Ratio (z) = 0.26004 0.26004
#
# Static dielectric constant tensor:
#      x y z
#    x 3.255200 0.000000 0.000000 
#    y 0.000000 3.255200 0.000000 
#    z 0.000000 0.000000 3.441490 
# 
# 
# High freq. dielectric constant tensor:
#      x y z
#    x 1.663970 0.000000 0.000000 
#    y 0.000000 1.663970 0.000000 
#    z 0.000000 0.000000 1.688630 
# 
# From -- ./inp_files/4017.got.cif
#   From: 2010.03.12/outbox.cif.g09.slc.cpg/sg191_3_cif.got.tgz:4017.got - 2010.04.01 12:09:02.
