data_PCOD8329259
_publ_section_title
;
Structure prediction by ZEFSAII (Michael W. Deem and Ramdas Pophale) SiO2 
 PCOD8329259
Probable space group: P 6/M M M
;
_chemical_formula_sum "Si O2"
_cell_formula_units_Z 144
_cell_length_a 21.522648
_cell_length_b 21.522648
_cell_length_c 27.378541
_cell_angle_alpha 90.000000
_cell_angle_beta 90.000000
_cell_angle_gamma 120.000000
_cell_volume 10983.287159
_symmetry_space_group_name_H-M "P 6/M M M"
_symmetry_group_IT_number 191
_symmetry_cell_setting 'hexagonal'
loop_
_space_group_symop_operation_xyz
x,y,z
x-y,x,z
-y,x-y,z
-x,-y,z
-x+y,-x,z
y,-x+y,z
x-y,-y,-z
-x,-x+y,-z
y,x,-z
-y,-x,-z
-x+y,y,-z
x,x-y,-z
-x,-y,-z
-x+y,-x,-z
y,-x+y,-z
x,y,-z
x-y,x,-z
-y,x-y,-z
-x+y,y,z
x,x-y,z
-y,-x,z
y,x,z
x-y,-y,z
-x,-x+y,z
loop_
_atom_site_type_symbol
_atom_site_label
_atom_site_fract_x
_atom_site_fract_y
_atom_site_fract_z
Si Si1 0.664421 0.081753 0.929103
Si Si2 0.469692 0.388173 0.173134
Si Si3 0.525577 0.335828 0.000000
Si Si4 0.666981 0.477196 0.743692
Si Si5 0.386336 0.920187 0.554160
Si Si6 0.478227 0.811053 0.633496
Si Si7 0.306024 0.224753 0.000000
O O1 0.667200 0.096057 0.871202
O O2 0.601445 0.000000 0.940519
O O3 0.647410 0.139365 0.952996
O O4 0.738991 0.092795 0.951342
O O5 0.549654 0.450347 0.157014
O O6 0.424214 0.424214 0.190755
O O7 0.471449 0.343299 0.219080
O O8 0.610887 0.389113 0.000000
O O9 0.508693 0.254347 0.000000
O O10 0.740078 0.480156 0.757716
O O11 0.604529 0.395471 0.748935
O O12 0.668496 0.505163 0.688744
O O13 0.353219 0.892963 0.500000
O O14 0.461156 0.922312 0.558330
O O15 0.332803 0.868656 0.595877
O O16 0.399595 0.000000 0.562976
O O17 0.400535 0.801071 0.624708
O O18 0.471459 0.735730 0.622021
O O19 0.237560 0.237560 0.000000
O O20 0.279706 0.139853 0.000000
#
# Coordination Sequence:
#
# PCOD8329259 Si02
#       7
#    24  24  12  24  24  24  12
#     4   9  17  29  45  60  72  90 118 152 184 211
#     4   9  17  28  40  55  73  90 114 149 183 212
#     4  11  21  30  39  53  75  99 121 144 174 214
#     4   9  17  27  38  51  68  92 118 143 172 208
#     4   8  14  24  36  49  65  85 109 137 170 209
#     4   9  16  25  36  50  68  89 114 143 175 210
#     4   9  17  29  45  64  82  99 119 142 171 206
#
# _framework density 13.110829000000001
#
# number of rings (size 3 to 8) (size 9 to 14) (size 15 to 20)
#    0.000    3.000    0.000    3.167    0.000    5.000 
#    0.000    3.333    0.000    3.083    0.000    0.000 
#    0.000    0.000    0.000    0.000    0.000    0.000 
#
# Total GULP energy -1784659.550347 kJ/mol
# GULP energy per Si atom -12393.469100 kJ/mol
# Density = 1.308099 g / cm^3
# Si number density = 13.110829 Si / 1000 Ang^3
#
#
#
# Elastic Constant Matrix: (Units=GPa)
#
#
# Indices 1 2 3 4 5 6 
#
# 1 60.5561 30.7781 47.2707 0.0000 0.0000 0.0000
# 2 30.7781 60.5561 47.2707 0.0000 0.0000 0.0000
# 3 47.2707 47.2707 106.7636 0.0000 0.0000 0.0000
# 4 0.0000 0.0000 0.0000 17.2797 0.0000 0.0000
# 5 0.0000 0.0000 0.0000 0.0000 17.2797 0.0000
# 6 0.0000 0.0000 0.0000 0.0000 0.0000 14.8890
#
#
#
# Elastic Compliance Matrix: (Units=1/GPa)
#
#
# Indices 1 2 3 4 5 6 
#
# 1 0.026897 -0.006685 -0.008949 0.000000 0.000000 0.000000
# 2 -0.006685 0.026897 -0.008949 0.000000 0.000000 0.000000
# 3 -0.008949 -0.008949 0.017291 0.000000 0.000000 0.000000
# 4 0.000000 0.000000 0.000000 0.057871 0.000000 0.000000
# 5 0.000000 0.000000 0.000000 0.000000 0.057871 0.000000
# 6 0.000000 0.000000 0.000000 0.000000 0.000000 0.067164
#
#
# Mechanical properties :
#
#
# Convention : Reuss Voigt Hill
#
# Bulk Modulus (GPa) = 45.62263 53.16831 49.39547
# Shear Modulus (GPa) = 16.10491 16.72677 16.41584
#
# Velocity S-wave (km/s) = 3.50861 3.57571 3.54232
# Velocity P-wave (km/s) = 7.16149 7.59530 7.38158
#
# Compressibility (1/GPa) = 0.02191895
#
# Stress axis : x y z
#
# Youngs Moduli (GPa) = 37.17877 37.17877 57.83285
#
# Poissons Ratio (x) = 0.24853 0.51756
# Poissons Ratio (y) = 0.24853 0.51756
# Poissons Ratio (z) = 0.33272 0.33272
#
# Static dielectric constant tensor:
#      x y z
#    x 2.492970 0.000000 0.000000 
#    y 0.000000 2.492970 0.000000 
#    z 0.000000 0.000000 2.802240 
# 
# 
# High freq. dielectric constant tensor:
#      x y z
#    x 1.472260 0.000000 0.000000 
#    y 0.000000 1.472260 0.000000 
#    z 0.000000 0.000000 1.505460 
# 
# From -- ./inp_files/9969.got.cif
#   From: 2010.03.12/outbox.cif.g09.slc.cpg/sg191_5_cif.got.tgz:9969.got - 2010.04.01 12:09:02.
