data_PCOD8329997
_publ_section_title
;
Structure prediction by ZEFSAII (Michael W. Deem and Ramdas Pophale) SiO2 
 PCOD8329997
Probable space group: P 63/M C M
;
_chemical_formula_sum "Si O2"
_cell_formula_units_Z 144
_cell_length_a 22.937233
_cell_length_b 22.937233
_cell_length_c 19.540578
_cell_angle_alpha 90.000000
_cell_angle_beta 90.000000
_cell_angle_gamma 120.000000
_cell_volume 8903.281193
_symmetry_space_group_name_H-M "P 63/M C M"
_symmetry_group_IT_number 193
_symmetry_cell_setting 'hexagonal'
loop_
_space_group_symop_operation_xyz
x,y,z
x-y,x,1/2+z
-y,x-y,z
-x,-y,1/2+z
-x+y,-x,z
y,-x+y,1/2+z
x-y,-y,1/2-z
-x,-x+y,1/2-z
y,x,1/2-z
-y,-x,-z
-x+y,y,-z
x,x-y,-z
-x,-y,-z
-x+y,-x,1/2-z
y,-x+y,-z
x,y,1/2-z
x-y,x,-z
-y,x-y,1/2-z
-x+y,y,1/2+z
x,x-y,1/2+z
-y,-x,1/2+z
y,x,z
x-y,-y,z
-x,-x+y,z
loop_
_atom_site_type_symbol
_atom_site_label
_atom_site_fract_x
_atom_site_fract_y
_atom_site_fract_z
Si Si1 0.155774 0.078245 0.828815
Si Si2 0.286204 0.924531 0.600742
Si Si3 0.713957 0.849203 0.419390
Si Si4 0.621717 0.924557 0.559572
Si Si5 0.919719 0.397013 0.826419
Si Si6 0.919628 0.491154 0.568270
O O1 0.180879 0.088978 0.750000
O O2 0.098153 0.098153 0.837568
O O3 0.216986 0.126799 0.878781
O O4 0.124152 0.000000 0.850178
O O5 0.207670 0.886553 0.615695
O O6 0.300469 0.922920 0.521641
O O7 0.322720 0.890505 0.641522
O O8 0.314223 0.000000 0.627197
O O9 0.730756 0.865378 0.500000
O O10 0.659057 0.771093 0.408035
O O11 0.542500 0.890831 0.579183
O O12 0.662341 0.000000 0.587961
O O13 0.892245 0.389752 0.750000
O O14 0.894151 0.440312 0.867964
O O15 0.000000 0.434769 0.830097
O O16 0.891613 0.445807 0.500000
O O17 0.000000 0.535658 0.562839
#
# Coordination Sequence:
#
# PCOD8329997 Si02
#       6
#    24  24  24  24  24  24
#     4  10  21  37  54  69  88 122 171 223 273 324
#     4   9  16  27  42  62  91 125 154 187 236 289
#     4  10  20  32  48  72 100 126 158 201 251 310
#     4   9  16  27  44  65  91 124 156 185 226 284
#     4   9  16  25  40  65  92 115 147 189 224 261
#     4   9  14  24  43  63  87 121 152 175 211 267
#
# _framework density 16.173812000000002
#
# number of rings (size 3 to 8) (size 9 to 14) (size 15 to 20)
#    0.000    2.667    1.667    1.167    0.000    3.333 
#    0.000    2.500    0.000    4.000    0.000    0.000 
#    1.667    1.667    0.000    0.000    0.000    0.000 
#
# Total GULP energy -1784755.780501 kJ/mol
# GULP energy per Si atom -12394.137365 kJ/mol
# Density = 1.613700 g / cm^3
# Si number density = 16.173812 Si / 1000 Ang^3
#
#
#
# Elastic Constant Matrix: (Units=GPa)
#
#
# Indices 1 2 3 4 5 6 
#
# 1 90.8963 41.6275 38.7673 0.0000 0.0000 0.0000
# 2 41.6275 90.8963 38.7673 0.0000 0.0000 0.0000
# 3 38.7673 38.7673 67.9392 0.0000 0.0000 0.0000
# 4 0.0000 0.0000 0.0000 19.2190 0.0000 0.0000
# 5 0.0000 0.0000 0.0000 0.0000 19.2190 0.0000
# 6 0.0000 0.0000 0.0000 0.0000 0.0000 24.6344
#
#
#
# Elastic Compliance Matrix: (Units=1/GPa)
#
#
# Indices 1 2 3 4 5 6 
#
# 1 0.015812 -0.004485 -0.006464 0.000000 0.000000 0.000000
# 2 -0.004485 0.015812 -0.006464 0.000000 0.000000 0.000000
# 3 -0.006464 -0.006464 0.022096 0.000000 0.000000 0.000000
# 4 0.000000 0.000000 0.000000 0.052032 0.000000 0.000000
# 5 0.000000 0.000000 0.000000 0.000000 0.052032 0.000000
# 6 0.000000 0.000000 0.000000 0.000000 0.000000 0.040594
#
#
# Mechanical properties :
#
#
# Convention : Reuss Voigt Hill
#
# Bulk Modulus (GPa) = 52.92153 54.22847 53.57500
# Shear Modulus (GPa) = 20.87686 21.31914 21.09800
#
# Velocity S-wave (km/s) = 3.59664 3.63454 3.61564
# Velocity P-wave (km/s) = 7.07385 7.15643 7.11526
#
# Compressibility (1/GPa) = 0.01889590
#
# Stress axis : x y z
#
# Youngs Moduli (GPa) = 63.24258 63.24258 45.25789
#
# Poissons Ratio (x) = 0.28362 0.29253
# Poissons Ratio (y) = 0.28362 0.29253
# Poissons Ratio (z) = 0.40878 0.40878
#
# Static dielectric constant tensor:
#      x y z
#    x 3.032940 0.000000 0.000000 
#    y 0.000000 3.032940 0.000000 
#    z 0.000000 0.000000 2.980270 
# 
# 
# High freq. dielectric constant tensor:
#      x y z
#    x 1.603320 0.000000 0.000000 
#    y 0.000000 1.603320 0.000000 
#    z 0.000000 0.000000 1.610150 
# 
# From -- ./inp_files/6593.got.cif
#   From: 2010.03.12/outbox.cif.g09.slc.cpg/sg193_4_cif.got.tgz:6593.got - 2010.04.01 12:20:39.
