data_PCOD8329662
_publ_section_title
;
Structure prediction by ZEFSAII (Michael W. Deem and Ramdas Pophale) SiO2 
 PCOD8329662
Probable space group: P 6/M C C
;
_chemical_formula_sum "Si O2"
_cell_formula_units_Z 92
_cell_length_a 17.792340
_cell_length_b 17.792340
_cell_length_c 14.573567
_cell_angle_alpha 90.000000
_cell_angle_beta 90.000000
_cell_angle_gamma 120.000000
_cell_volume 3995.421771
_symmetry_space_group_name_H-M "P 6/M C C"
_symmetry_group_IT_number 192
_symmetry_cell_setting 'hexagonal'
loop_
_space_group_symop_operation_xyz
x,y,z
x-y,x,z
-y,x-y,z
-x,-y,z
-x+y,-x,z
y,-x+y,z
x-y,-y,1/2-z
-x,-x+y,1/2-z
y,x,1/2-z
-y,-x,1/2-z
-x+y,y,1/2-z
x,x-y,1/2-z
-x,-y,-z
-x+y,-x,-z
y,-x+y,-z
x,y,-z
x-y,x,-z
-y,x-y,-z
-x+y,y,1/2+z
x,x-y,1/2+z
-y,-x,1/2+z
y,x,1/2+z
x-y,-y,1/2+z
-x,-x+y,1/2+z
loop_
_atom_site_type_symbol
_atom_site_label
_atom_site_fract_x
_atom_site_fract_y
_atom_site_fract_z
Si Si1 0.406981 0.451592 0.397394
Si Si2 0.072403 0.322767 0.397178
Si Si3 0.666667 0.333333 0.891371
Si Si4 0.177789 0.000000 0.250000
Si Si5 0.219450 0.473573 0.890314
O O1 0.500000 0.500000 0.345483
O O2 0.419859 0.491353 0.500000
O O3 0.377594 0.352314 0.401488
O O4 0.334458 0.466381 0.348385
O O5 0.081862 0.293405 0.500000
O O6 0.166468 0.389857 0.352400
O O7 0.012748 0.236190 0.339122
O O8 0.730338 0.297838 0.857007
O O9 0.666667 0.333334 0.000000
O O10 0.166808 0.083404 0.250000
O O11 0.217480 0.466850 0.000000
#
# Coordination Sequence:
#
# PCOD8329662 Si02
#       5
#    24  24   8  12  24
#     4   9  16  28  50  82 119 158 200 244 290 344
#     4  10  21  39  63  90 121 159 203 249 298 357
#     4   9  15  24  45  84 130 170 206 242 286 348
#     4  12  27  46  67  90 116 148 190 246 313 378
#     4   9  16  27  47  79 119 160 200 242 290 348
#
# _framework density 23.026354000000001
#
# number of rings (size 3 to 8) (size 9 to 14) (size 15 to 20)
#    0.000    2.348    0.000    3.261    0.000    9.391 
#    0.000    0.652    0.000    1.565    0.000    5.478 
#    0.000    0.000    0.000    0.000    0.000    0.000 
#
# Total GULP energy -1139896.565436 kJ/mol
# GULP energy per Si atom -12390.180059 kJ/mol
# Density = 2.297395 g / cm^3
# Si number density = 23.026354 Si / 1000 Ang^3
#
#
#
# Elastic Constant Matrix: (Units=GPa)
#
#
# Indices 1 2 3 4 5 6 
#
# 1 152.0135 58.7722 36.8577 0.0000 0.0000 -0.0001
# 2 58.7722 152.0131 36.8577 0.0000 0.0000 0.0000
# 3 36.8577 36.8577 61.8409 0.0000 0.0000 0.0000
# 4 0.0000 0.0000 0.0000 6.9134 0.0000 0.0000
# 5 0.0000 0.0000 0.0000 0.0000 6.9134 0.0000
# 6 -0.0001 0.0000 0.0000 0.0000 0.0000 46.6205
#
#
#
# Elastic Compliance Matrix: (Units=1/GPa)
#
#
# Indices 1 2 3 4 5 6 
#
# 1 0.008359 -0.002366 -0.003572 0.000000 0.000000 0.000000
# 2 -0.002366 0.008359 -0.003572 0.000000 0.000000 0.000000
# 3 -0.003572 -0.003572 0.020429 0.000000 0.000000 0.000000
# 4 0.000000 0.000000 0.000000 0.144646 0.000000 0.000000
# 5 0.000000 0.000000 0.000000 0.000000 0.144647 0.000000
# 6 0.000000 0.000000 0.000000 0.000000 0.000000 0.021450
#
#
# Mechanical properties :
#
#
# Convention : Reuss Voigt Hill
#
# Bulk Modulus (GPa) = 55.16668 70.09363 62.63015
# Shear Modulus (GPa) = 13.40656 27.64813 20.52735
#
# Velocity S-wave (km/s) = 2.41556 3.46890 2.98899
# Velocity P-wave (km/s) = 5.63826 6.82283 6.25863
#
# Compressibility (1/GPa) = 0.01812689
#
# Stress axis : x y z
#
# Youngs Moduli (GPa) = 119.62973 119.62941 48.95110
#
# Poissons Ratio (x) = 0.28301 0.17486
# Poissons Ratio (y) = 0.28301 0.17486
# Poissons Ratio (z) = 0.42733 0.42733
#
# Static dielectric constant tensor:
#      x y z
#    x 4.319050 0.000000 0.000000 
#    y 0.000000 4.319050 0.000000 
#    z 0.000000 0.000000 3.957030 
# 
# 
# High freq. dielectric constant tensor:
#      x y z
#    x 1.917980 0.000000 0.000000 
#    y 0.000000 1.917980 0.000000 
#    z 0.000000 0.000000 1.866850 
# 
# From -- ./inp_files/4014.got.cif
#   From: 2010.03.12/outbox.cif.g09.slc.cpg/sg192_3_cif.got.tgz:4014.got - 2010.04.01 12:16:15.
