data_PCOD8329759
_publ_section_title
;
Structure prediction by ZEFSAII (Michael W. Deem and Ramdas Pophale) SiO2 
 PCOD8329759
Probable space group: P 63/M C M
;
_chemical_formula_sum "Si O2"
_cell_formula_units_Z 144
_cell_length_a 21.846660
_cell_length_b 21.846660
_cell_length_c 20.864674
_cell_angle_alpha 90.000000
_cell_angle_beta 90.000000
_cell_angle_gamma 120.000000
_cell_volume 8624.071228
_symmetry_space_group_name_H-M "P 63/M C M"
_symmetry_group_IT_number 193
_symmetry_cell_setting 'hexagonal'
loop_
_space_group_symop_operation_xyz
x,y,z
x-y,x,1/2+z
-y,x-y,z
-x,-y,1/2+z
-x+y,-x,z
y,-x+y,1/2+z
x-y,-y,1/2-z
-x,-x+y,1/2-z
y,x,1/2-z
-y,-x,-z
-x+y,y,-z
x,x-y,-z
-x,-y,-z
-x+y,-x,1/2-z
y,-x+y,-z
x,y,1/2-z
x-y,x,-z
-y,x-y,1/2-z
-x+y,y,1/2+z
x,x-y,1/2+z
-y,-x,1/2+z
y,x,z
x-y,-y,z
-x,-x+y,z
loop_
_atom_site_type_symbol
_atom_site_label
_atom_site_fract_x
_atom_site_fract_y
_atom_site_fract_z
Si Si1 0.704791 0.921092 0.925691
Si Si2 0.521356 0.187540 0.750000
Si Si3 0.150248 0.705227 0.122641
Si Si4 0.187540 0.521356 0.250000
Si Si5 0.150248 0.705227 0.622641
Si Si6 0.809838 0.474762 1.000000
Si Si7 0.078908 0.783698 0.074309
O O1 0.637691 0.908091 0.883228
O O2 0.730208 0.865104 0.907611
O O3 0.769065 0.000000 0.911682
O O4 0.681504 0.911664 1.000000
O O5 0.477668 0.141430 0.688638
O O6 0.599115 0.198229 0.750000
O O7 0.529473 0.264736 0.750000
O O8 0.226705 0.773294 0.120643
O O9 0.091909 0.729600 0.116772
O O10 0.143203 0.655335 0.062918
O O11 0.141430 0.477668 0.311362
O O12 0.143203 0.655335 0.562918
O O13 0.740729 0.481457 0.000000
O O14 0.785983 0.392992 0.000000
O O15 0.000000 0.769065 0.088318
#
# Coordination Sequence:
#
# PCOD8329759 Si02
#       7
#    24  12  24  12  24  24  24
#     4   9  16  29  51  75  96 119 152 191 228 270
#     4  10  19  30  45  65  92 125 162 204 251 293
#     4   9  17  29  44  64  90 122 157 195 236 277
#     4  10  19  30  45  65  92 125 162 204 251 293
#     4   9  17  29  44  64  90 122 157 195 236 277
#     4  10  17  26  41  61  86 115 154 202 247 285
#     4   9  16  29  51  75  96 119 152 191 228 270
#
# _framework density 16.697451000000001
#
# number of rings (size 3 to 8) (size 9 to 14) (size 15 to 20)
#    0.000    2.667    1.667    1.333    0.000    0.000 
#    0.000    4.167    0.000    6.333    0.000    2.333 
#    0.000    0.000    0.000    0.000    0.000   19.667 
#
# Total GULP energy -1784962.734553 kJ/mol
# GULP energy per Si atom -12395.574546 kJ/mol
# Density = 1.665945 g / cm^3
# Si number density = 16.697451 Si / 1000 Ang^3
#
#
#
# Elastic Constant Matrix: (Units=GPa)
#
#
# Indices 1 2 3 4 5 6 
#
# 1 81.6289 41.7083 42.1238 0.0000 0.0000 0.0000
# 2 41.7083 81.6289 42.1238 0.0000 0.0000 0.0000
# 3 42.1238 42.1238 117.0618 0.0000 0.0000 0.0000
# 4 0.0000 0.0000 0.0000 14.5344 0.0000 0.0000
# 5 0.0000 0.0000 0.0000 0.0000 14.5344 0.0000
# 6 0.0000 0.0000 0.0000 0.0000 0.0000 19.9603
#
#
#
# Elastic Compliance Matrix: (Units=1/GPa)
#
#
# Indices 1 2 3 4 5 6 
#
# 1 0.017900 -0.007150 -0.003868 0.000000 0.000000 0.000000
# 2 -0.007150 0.017900 -0.003868 0.000000 0.000000 0.000000
# 3 -0.003868 -0.003868 0.011327 0.000000 0.000000 0.000000
# 4 0.000000 0.000000 0.000000 0.068802 0.000000 0.000000
# 5 0.000000 0.000000 0.000000 0.000000 0.068802 0.000000
# 6 0.000000 0.000000 0.000000 0.000000 0.000000 0.050099
#
#
# Mechanical properties :
#
#
# Convention : Reuss Voigt Hill
#
# Bulk Modulus (GPa) = 57.62554 59.13682 58.38118
# Shear Modulus (GPa) = 18.49197 20.09675 19.29436
#
# Velocity S-wave (km/s) = 3.33148 3.47303 3.40299
# Velocity P-wave (km/s) = 7.02744 7.18165 7.10496
#
# Compressibility (1/GPa) = 0.01735342
#
# Stress axis : x y z
#
# Youngs Moduli (GPa) = 55.86604 55.86604 88.28835
#
# Poissons Ratio (x) = 0.39943 0.34153
# Poissons Ratio (y) = 0.39943 0.34153
# Poissons Ratio (z) = 0.21611 0.21611
#
# Static dielectric constant tensor:
#      x y z
#    x 2.908320 0.000000 0.000000 
#    y 0.000000 2.908320 0.000000 
#    z 0.000000 0.000000 3.458590 
# 
# 
# High freq. dielectric constant tensor:
#      x y z
#    x 1.617500 0.000000 0.000000 
#    y 0.000000 1.617500 0.000000 
#    z 0.000000 0.000000 1.640780 
# 
# From -- ./inp_files/5613.got.cif
#   From: 2010.03.12/outbox.cif.g09.slc.cpg/sg193_3_cif.got.tgz:5613.got - 2010.04.01 12:20:39.
