data_PCOD8329558
_publ_section_title
;
Structure prediction by ZEFSAII (Michael W. Deem and Ramdas Pophale) SiO2 
 PCOD8329558
Probable space group: P 6/M C C
;
_chemical_formula_sum "Si O2"
_cell_formula_units_Z 168
_cell_length_a 21.918659
_cell_length_b 21.918659
_cell_length_c 22.262212
_cell_angle_alpha 90.000000
_cell_angle_beta 90.000000
_cell_angle_gamma 120.000000
_cell_volume 9262.471958
_symmetry_space_group_name_H-M "P 6/M C C"
_symmetry_group_IT_number 192
_symmetry_cell_setting 'hexagonal'
loop_
_space_group_symop_operation_xyz
x,y,z
x-y,x,z
-y,x-y,z
-x,-y,z
-x+y,-x,z
y,-x+y,z
x-y,-y,1/2-z
-x,-x+y,1/2-z
y,x,1/2-z
-y,-x,1/2-z
-x+y,y,1/2-z
x,x-y,1/2-z
-x,-y,-z
-x+y,-x,-z
y,-x+y,-z
x,y,-z
x-y,x,-z
-y,x-y,-z
-x+y,y,1/2+z
x,x-y,1/2+z
-y,-x,1/2+z
y,x,1/2+z
x-y,-y,1/2+z
-x,-x+y,1/2+z
loop_
_atom_site_type_symbol
_atom_site_label
_atom_site_fract_x
_atom_site_fract_y
_atom_site_fract_z
Si Si1 0.010997 0.869123 0.071770
Si Si2 0.114938 0.391065 0.637092
Si Si3 0.002737 0.272732 0.566995
Si Si4 0.916707 0.224847 0.744739
Si Si5 0.802570 0.476688 0.931325
Si Si6 0.470166 0.659023 0.430434
Si Si7 0.868724 0.623445 0.118718
O O1 0.939885 0.863648 0.097329
O O2 0.016466 0.803244 0.096746
O O3 0.007824 0.867549 0.000000
O O4 0.104931 0.371915 0.707590
O O5 0.139362 0.471237 0.618738
O O6 0.171207 0.372576 0.609296
O O7 0.040791 0.343214 0.605357
O O8 0.032480 0.288188 0.500000
O O9 0.920140 0.246931 0.566594
O O10 0.860634 0.139367 0.750000
O O11 0.906954 0.253628 0.681825
O O12 0.000000 0.245993 0.750000
O O13 0.720587 0.451475 0.922386
O O14 0.815372 0.413627 0.912616
O O15 0.851414 0.543249 0.889166
O O16 0.824970 0.499143 0.000000
O O17 0.493468 0.657960 0.500000
#
# Coordination Sequence:
#
# PCOD8329558 Si02
#       7
#    24  24  24  24  24  24  24
#     4   9  17  28  42  62  91 126 161 196 240 299
#     4  10  20  34  53  76 103 135 176 223 266 312
#     4  11  20  30  48  72 101 134 166 207 261 319
#     4  10  20  38  61  80 101 137 183 229 273 316
#     4   9  17  31  53  81 112 144 177 215 262 316
#     4   9  17  31  53  81 112 144 177 215 262 316
#     4  10  20  34  53  76 103 135 176 223 266 312
#
# _framework density 18.137706999999999
#
# number of rings (size 3 to 8) (size 9 to 14) (size 15 to 20)
#    0.000    2.286    1.429    2.143    0.000    4.571 
#    0.000    1.429    0.000    3.571    0.000    2.000 
#    0.000    0.000    0.000    0.000    0.000    0.000 
#
# Total GULP energy -2082364.502153 kJ/mol
# GULP energy per Si atom -12395.026799 kJ/mol
# Density = 1.809642 g / cm^3
# Si number density = 18.137707 Si / 1000 Ang^3
#
#
#
# Elastic Constant Matrix: (Units=GPa)
#
#
# Indices 1 2 3 4 5 6 
#
# 1 94.1618 40.8696 30.3727 0.0000 0.0000 0.0000
# 2 40.8696 94.1618 30.3727 0.0000 0.0000 0.0000
# 3 30.3727 30.3727 52.9444 0.0000 0.0000 0.0000
# 4 0.0000 0.0000 0.0000 22.2094 0.0000 0.0000
# 5 0.0000 0.0000 0.0000 0.0000 22.2094 0.0000
# 6 0.0000 0.0000 0.0000 0.0000 0.0000 26.6461
#
#
#
# Elastic Compliance Matrix: (Units=1/GPa)
#
#
# Indices 1 2 3 4 5 6 
#
# 1 0.014373 -0.004391 -0.005726 0.000000 0.000000 0.000000
# 2 -0.004391 0.014373 -0.005726 0.000000 0.000000 0.000000
# 3 -0.005726 -0.005726 0.025458 0.000000 0.000000 0.000000
# 4 0.000000 0.000000 0.000000 0.045026 0.000000 0.000000
# 5 0.000000 0.000000 0.000000 0.000000 0.045026 0.000000
# 6 0.000000 0.000000 0.000000 0.000000 0.000000 0.037529
#
#
# Mechanical properties :
#
#
# Convention : Reuss Voigt Hill
#
# Bulk Modulus (GPa) = 44.41244 49.38864 46.90054
# Shear Modulus (GPa) = 22.62670 23.52317 23.07493
#
# Velocity S-wave (km/s) = 3.53582 3.60519 3.57067
# Velocity P-wave (km/s) = 6.41941 6.67973 6.55086
#
# Compressibility (1/GPa) = 0.02251621
#
# Stress axis : x y z
#
# Youngs Moduli (GPa) = 69.57449 69.57449 39.28090
#
# Poissons Ratio (x) = 0.30553 0.22493
# Poissons Ratio (y) = 0.30553 0.22493
# Poissons Ratio (z) = 0.39840 0.39840
#
# Static dielectric constant tensor:
#      x y z
#    x 3.355350 0.000000 0.000000 
#    y 0.000000 3.355350 0.000000 
#    z 0.000000 0.000000 3.181500 
# 
# 
# High freq. dielectric constant tensor:
#      x y z
#    x 1.697900 0.000000 0.000000 
#    y 0.000000 1.697900 0.000000 
#    z 0.000000 0.000000 1.681570 
# 
# From -- ./inp_files/6020.got.cif
#   From: 2010.03.12/outbox.cif.g09.slc.cpg/sg192_4_cif.got.tgz:6020.got - 2010.04.01 12:16:15.
