data_PCOD8329387
_publ_section_title
;
Structure prediction by ZEFSAII (Michael W. Deem and Ramdas Pophale) SiO2 
 PCOD8329387
Probable space group: P 6/M C C
;
_chemical_formula_sum "Si O2"
_cell_formula_units_Z 150
_cell_length_a 26.168720
_cell_length_b 26.168720
_cell_length_c 16.273879
_cell_angle_alpha 90.000000
_cell_angle_beta 90.000000
_cell_angle_gamma 120.000000
_cell_volume 9651.319103
_symmetry_space_group_name_H-M "P 6/M C C"
_symmetry_group_IT_number 192
_symmetry_cell_setting 'hexagonal'
loop_
_space_group_symop_operation_xyz
x,y,z
x-y,x,z
-y,x-y,z
-x,-y,z
-x+y,-x,z
y,-x+y,z
x-y,-y,1/2-z
-x,-x+y,1/2-z
y,x,1/2-z
-y,-x,1/2-z
-x+y,y,1/2-z
x,x-y,1/2-z
-x,-y,-z
-x+y,-x,-z
y,-x+y,-z
x,y,-z
x-y,x,-z
-y,x-y,-z
-x+y,y,1/2+z
x,x-y,1/2+z
-y,-x,1/2+z
y,x,1/2+z
x-y,-y,1/2+z
-x,-x+y,1/2+z
loop_
_atom_site_type_symbol
_atom_site_label
_atom_site_fract_x
_atom_site_fract_y
_atom_site_fract_z
Si Si1 0.495990 0.598196 0.647554
Si Si2 0.687342 0.487472 0.260770
Si Si3 0.511849 0.373371 0.910903
Si Si4 0.071187 0.379493 0.591101
Si Si5 0.869433 0.626633 0.752016
Si Si6 0.000000 0.500000 0.750000
Si Si7 0.932499 0.623092 0.907200
O O1 0.469062 0.632907 0.698467
O O2 0.443964 0.551948 0.589675
O O3 0.550947 0.645396 0.595342
O O4 0.516890 0.560351 0.701850
O O5 0.729181 0.458361 0.250000
O O6 0.658933 0.465554 0.350055
O O7 0.727753 0.557099 0.257151
O O8 0.445159 0.356564 0.888517
O O9 0.514736 0.349431 0.000000
O O10 0.090212 0.368221 0.500000
O O11 0.095031 0.356713 0.665891
O O12 0.001808 0.344025 0.599127
O O13 0.828051 0.656101 0.750000
O O14 0.908739 0.648818 0.835237
O O15 0.912395 0.630259 0.000000
#
# Coordination Sequence:
#
# PCOD8329387 Si02
#       7
#    24  24  24  24  24   6  24
#     4  11  20  30  48  71  94 119 144 174 235 285
#     4   9  18  33  46  60  81 113 149 170 201 260
#     4  10  18  31  47  69  93 110 139 180 227 277
#     4  10  20  30  44  67  94 121 147 178 224 282
#     4   9  18  30  45  61  82 113 148 184 214 254
#     4  12  20  28  50  76 100 120 142 180 234 308
#     4   9  18  30  45  66  92 121 144 174 223 282
#
# _framework density 15.541917
#
# number of rings (size 3 to 8) (size 9 to 14) (size 15 to 20)
#    0.000    2.240    1.600    1.920    4.480    0.640 
#    0.000   12.000    0.000    2.560    0.000    0.000 
#    0.000    0.000    0.000    0.000    0.000    0.000 
#
# Total GULP energy -1858304.288501 kJ/mol
# GULP energy per Si atom -12388.695257 kJ/mol
# Density = 1.550654 g / cm^3
# Si number density = 15.541917 Si / 1000 Ang^3
#
#
#
# Elastic Constant Matrix: (Units=GPa)
#
#
# Indices 1 2 3 4 5 6 
#
# 1 59.8297 23.2906 40.8796 0.0000 0.0000 0.0000
# 2 23.2906 59.8297 40.8796 0.0000 0.0000 0.0000
# 3 40.8796 40.8796 133.7595 0.0000 0.0000 0.0000
# 4 0.0000 0.0000 0.0000 15.0313 0.0000 0.0000
# 5 0.0000 0.0000 0.0000 0.0000 15.0313 0.0000
# 6 0.0000 0.0000 0.0000 0.0000 0.0000 18.2695
#
#
#
# Elastic Compliance Matrix: (Units=1/GPa)
#
#
# Indices 1 2 3 4 5 6 
#
# 1 0.022285 -0.005083 -0.005257 0.000000 0.000000 0.000000
# 2 -0.005083 0.022285 -0.005257 0.000000 0.000000 0.000000
# 3 -0.005257 -0.005257 0.010690 0.000000 0.000000 0.000000
# 4 0.000000 0.000000 0.000000 0.066528 0.000000 0.000000
# 5 0.000000 0.000000 0.000000 0.000000 0.066528 0.000000
# 6 0.000000 0.000000 0.000000 0.000000 0.000000 0.054736
#
#
# Mechanical properties :
#
#
# Convention : Reuss Voigt Hill
#
# Bulk Modulus (GPa) = 41.55518 51.50203 46.52861
# Shear Modulus (GPa) = 17.71369 19.55770 18.63570
#
# Velocity S-wave (km/s) = 3.37966 3.55122 3.46650
# Velocity P-wave (km/s) = 6.48267 7.07279 6.78415
#
# Compressibility (1/GPa) = 0.02406439
#
# Stress axis : x y z
#
# Youngs Moduli (GPa) = 44.87334 44.87334 93.54927
#
# Poissons Ratio (x) = 0.22809 0.49181
# Poissons Ratio (y) = 0.22809 0.49181
# Poissons Ratio (z) = 0.23591 0.23591
#
# Static dielectric constant tensor:
#      x y z
#    x 2.875050 0.000000 0.000000 
#    y 0.000000 2.875050 0.000000 
#    z 0.000000 0.000000 3.304200 
# 
# 
# High freq. dielectric constant tensor:
#      x y z
#    x 1.558380 0.000000 0.000000 
#    y 0.000000 1.558380 0.000000 
#    z 0.000000 0.000000 1.614740 
# 
# From -- ./inp_files/3394.got.cif
#   From: 2010.03.12/outbox.cif.g09.slc.cpg/sg192_2_cif.got.tgz:3394.got - 2010.04.01 12:16:15.
