data_PCOD8329014
_publ_section_title
;
Structure prediction by ZEFSAII (Michael W. Deem and Ramdas Pophale) SiO2 
 PCOD8329014
Probable space group: P 6/M M M
;
_chemical_formula_sum "Si O2"
_cell_formula_units_Z 120
_cell_length_a 17.516155
_cell_length_b 17.516155
_cell_length_c 25.981165
_cell_angle_alpha 90.000000
_cell_angle_beta 90.000000
_cell_angle_gamma 120.000000
_cell_volume 6903.459986
_symmetry_space_group_name_H-M "P 6/M M M"
_symmetry_group_IT_number 191
_symmetry_cell_setting 'hexagonal'
loop_
_space_group_symop_operation_xyz
x,y,z
x-y,x,z
-y,x-y,z
-x,-y,z
-x+y,-x,z
y,-x+y,z
x-y,-y,-z
-x,-x+y,-z
y,x,-z
-y,-x,-z
-x+y,y,-z
x,x-y,-z
-x,-y,-z
-x+y,-x,-z
y,-x+y,-z
x,y,-z
x-y,x,-z
-y,x-y,-z
-x+y,y,z
x,x-y,z
-y,-x,z
y,x,z
x-y,-y,z
-x,-x+y,z
loop_
_atom_site_type_symbol
_atom_site_label
_atom_site_fract_x
_atom_site_fract_y
_atom_site_fract_z
Si Si1 0.512746 0.844237 0.388555
Si Si2 0.507436 0.839084 0.500000
Si Si3 0.467315 0.103954 0.197619
Si Si4 0.332063 0.844576 0.000000
Si Si5 0.271361 0.371898 0.098303
Si Si6 0.632007 0.730672 0.705210
O O1 0.426513 0.853025 0.382894
O O2 0.485429 0.742715 0.379338
O O3 0.558398 0.877667 0.445642
O O4 0.583882 0.905113 0.346609
O O5 0.429254 0.858507 0.500000
O O6 0.468554 0.734277 0.500000
O O7 0.573624 0.147247 0.196846
O O8 0.435847 0.133930 0.147558
O O9 0.438713 0.134801 0.248648
O O10 0.423953 0.000000 0.197825
O O11 0.324140 0.894131 0.950383
O O12 0.257948 0.742052 0.000000
O O13 0.426841 0.853682 0.000000
O O14 0.165924 0.331848 0.091482
O O15 0.291778 0.291778 0.104649
O O16 0.671297 0.835649 0.699304
O O17 0.712297 0.712297 0.716358
#
# Coordination Sequence:
#
# PCOD8329014 Si02
#       6
#    24  12  24  12  24  24
#     4   9  16  26  42  65  93 124 155 185 217 257
#     4   8  13  22  37  59  88 121 154 184 215 254
#     4   9  17  30  49  72  96 121 149 180 216 264
#     4  10  20  33  50  73 100 128 157 192 236 285
#     4  10  20  33  50  72  97 127 163 202 242 282
#     4  10  20  33  49  68  90 118 152 191 234 277
#
# _framework density 17.382587000000001
#
# number of rings (size 3 to 8) (size 9 to 14) (size 15 to 20)
#    0.000    2.600    0.000    2.500    0.000    4.400 
#    0.000    0.500    0.000    7.800    0.000    0.000 
#    0.000    7.200    0.000    0.000    0.000   12.600 
#
# Total GULP energy -1487104.094216 kJ/mol
# GULP energy per Si atom -12392.534118 kJ/mol
# Density = 1.734302 g / cm^3
# Si number density = 17.382587 Si / 1000 Ang^3
#
#
#
# Elastic Constant Matrix: (Units=GPa)
#
#
# Indices 1 2 3 4 5 6 
#
# 1 75.6146 46.1594 28.3451 0.0000 0.0000 0.0000
# 2 46.1594 75.6146 28.3451 0.0000 0.0000 0.0000
# 3 28.3451 28.3451 142.5764 0.0000 0.0000 0.0000
# 4 0.0000 0.0000 0.0000 20.3281 0.0000 0.0000
# 5 0.0000 0.0000 0.0000 0.0000 20.3281 0.0000
# 6 0.0000 0.0000 0.0000 0.0000 0.0000 14.7276
#
#
#
# Elastic Compliance Matrix: (Units=1/GPa)
#
#
# Indices 1 2 3 4 5 6 
#
# 1 0.021500 -0.012450 -0.001799 0.000000 0.000000 0.000000
# 2 -0.012450 0.021500 -0.001799 0.000000 0.000000 0.000000
# 3 -0.001799 -0.001799 0.007729 0.000000 0.000000 0.000000
# 4 0.000000 0.000000 0.000000 0.049193 0.000000 0.000000
# 5 0.000000 0.000000 0.000000 0.000000 0.049193 0.000000
# 6 0.000000 0.000000 0.000000 0.000000 0.000000 0.067900
#
#
# Mechanical properties :
#
#
# Convention : Reuss Voigt Hill
#
# Bulk Modulus (GPa) = 53.67196 55.50055 54.58625
# Shear Modulus (GPa) = 19.58317 23.80717 21.69517
#
# Velocity S-wave (km/s) = 3.36012 3.70482 3.53668
# Velocity P-wave (km/s) = 6.78217 7.09219 6.93891
#
# Compressibility (1/GPa) = 0.01863170
#
# Stress axis : x y z
#
# Youngs Moduli (GPa) = 46.51235 46.51235 129.38071
#
# Poissons Ratio (x) = 0.57909 0.23277
# Poissons Ratio (y) = 0.57909 0.23277
# Poissons Ratio (z) = 0.08368 0.08368
#
# Static dielectric constant tensor:
#      x y z
#    x 2.984270 0.000000 0.000000 
#    y 0.000000 2.984270 0.000000 
#    z 0.000000 0.000000 3.700690 
# 
# 
# High freq. dielectric constant tensor:
#      x y z
#    x 1.641080 0.000000 0.000000 
#    y 0.000000 1.641080 0.000000 
#    z 0.000000 0.000000 1.700500 
# 
# From -- ./inp_files/8588.got.cif
#   From: 2010.03.12/outbox.cif.g09.slc.cpg/sg191_5_cif.got.tgz:8588.got - 2010.04.01 12:09:02.
