data_PCOD8329398
_publ_section_title
;
Structure prediction by ZEFSAII (Michael W. Deem and Ramdas Pophale) SiO2 
 PCOD8329398
Probable space group: P 6/M C C
;
_chemical_formula_sum "Si O2"
_cell_formula_units_Z 132
_cell_length_a 26.114761
_cell_length_b 26.114761
_cell_length_c 14.088343
_cell_angle_alpha 90.000000
_cell_angle_beta 90.000000
_cell_angle_gamma 120.000000
_cell_volume 8320.753559
_symmetry_space_group_name_H-M "P 6/M C C"
_symmetry_group_IT_number 192
_symmetry_cell_setting 'hexagonal'
loop_
_space_group_symop_operation_xyz
x,y,z
x-y,x,z
-y,x-y,z
-x,-y,z
-x+y,-x,z
y,-x+y,z
x-y,-y,1/2-z
-x,-x+y,1/2-z
y,x,1/2-z
-y,-x,1/2-z
-x+y,y,1/2-z
x,x-y,1/2-z
-x,-y,-z
-x+y,-x,-z
y,-x+y,-z
x,y,-z
x-y,x,-z
-y,x-y,-z
-x+y,y,1/2+z
x,x-y,1/2+z
-y,-x,1/2+z
y,x,1/2+z
x-y,-y,1/2+z
-x,-x+y,1/2+z
loop_
_atom_site_type_symbol
_atom_site_label
_atom_site_fract_x
_atom_site_fract_y
_atom_site_fract_z
Si Si1 0.180003 0.245410 0.251077
Si Si2 0.266925 0.665903 0.000000
Si Si3 0.069169 0.731318 0.609183
Si Si4 0.152762 0.425147 0.746104
Si Si5 0.334527 0.066014 0.891425
Si Si6 0.334002 0.773611 0.293671
O O1 0.188659 0.188659 0.250000
O O2 0.110396 0.220792 0.250000
O O3 0.209326 0.285991 0.343455
O O4 0.209589 0.284060 0.157722
O O5 0.275437 0.608148 0.000000
O O6 0.230625 0.665820 0.907854
O O7 0.087606 0.744722 0.500000
O O8 0.112535 0.712222 0.659459
O O9 0.001240 0.679041 0.621741
O O10 0.203880 0.407759 0.750000
O O11 0.111151 0.397317 0.654567
O O12 0.179897 0.494839 0.739824
O O13 0.336439 0.083279 0.000000
O O14 0.290757 0.709244 0.250000
O O15 0.398532 0.797063 0.250000
#
# Coordination Sequence:
#
# PCOD8329398 Si02
#       6
#    24  12  24  24  24  24
#     4   9  17  28  44  66  93 123 158 195 234 278
#     4  10  18  32  58  68  88 133 159 191 236 276
#     4   9  17  32  49  68  94 127 155 186 233 285
#     4  10  21  30  46  74 100 122 148 196 237 276
#     4   9  17  30  49  69  94 125 156 188 231 285
#     4  11  20  36  50  72  99 123 162 193 234 288
#
# _framework density 15.863948000000001
#
# number of rings (size 3 to 8) (size 9 to 14) (size 15 to 20)
#    0.182    2.182    1.818    4.000    1.273    2.909 
#    6.545    0.000    0.000    2.364    0.000    2.545 
#    0.000    0.000    0.000    9.091    0.000    0.000 
#
# Total GULP energy -1636570.571351 kJ/mol
# GULP energy per Si atom -12398.261904 kJ/mol
# Density = 1.582784 g / cm^3
# Si number density = 15.863948 Si / 1000 Ang^3
#
#
#
# Elastic Constant Matrix: (Units=GPa)
#
#
# Indices 1 2 3 4 5 6 
#
# 1 99.0488 51.4073 47.3971 0.0000 0.0000 0.0000
# 2 51.4073 99.0488 47.3971 0.0000 0.0000 0.0000
# 3 47.3971 47.3971 151.5668 0.0000 0.0000 0.0000
# 4 0.0000 0.0000 0.0000 17.6578 0.0000 0.0000
# 5 0.0000 0.0000 0.0000 0.0000 17.6578 0.0000
# 6 0.0000 0.0000 0.0000 0.0000 0.0000 23.8208
#
#
#
# Elastic Compliance Matrix: (Units=1/GPa)
#
#
# Indices 1 2 3 4 5 6 
#
# 1 0.014634 -0.006356 -0.002588 0.000000 0.000000 0.000000
# 2 -0.006356 0.014634 -0.002588 0.000000 0.000000 0.000000
# 3 -0.002588 -0.002588 0.008217 0.000000 0.000000 0.000000
# 4 0.000000 0.000000 0.000000 0.056632 0.000000 0.000000
# 5 0.000000 0.000000 0.000000 0.000000 0.056632 0.000000
# 6 0.000000 0.000000 0.000000 0.000000 0.000000 0.041980
#
#
# Mechanical properties :
#
#
# Convention : Reuss Voigt Hill
#
# Bulk Modulus (GPa) = 69.36018 71.34081 70.35049
# Shear Modulus (GPa) = 22.66538 25.39149 24.02843
#
# Velocity S-wave (km/s) = 3.78396 4.00506 3.89608
# Velocity P-wave (km/s) = 7.93145 8.15202 8.04249
#
# Compressibility (1/GPa) = 0.01441749
#
# Stress axis : x y z
#
# Youngs Moduli (GPa) = 68.33550 68.33550 121.70455
#
# Poissons Ratio (x) = 0.43437 0.31502
# Poissons Ratio (y) = 0.43437 0.31502
# Poissons Ratio (z) = 0.17688 0.17688
#
# Static dielectric constant tensor:
#      x y z
#    x 2.880180 0.000000 0.000000 
#    y 0.000000 2.880180 0.000000 
#    z 0.000000 0.000000 3.191430 
# 
# 
# High freq. dielectric constant tensor:
#      x y z
#    x 1.590110 0.000000 0.000000 
#    y 0.000000 1.590110 0.000000 
#    z 0.000000 0.000000 1.623350 
# 
# From -- ./inp_files/3336.got.cif
#   From: 2010.03.12/outbox.cif.g09.slc.cpg/sg192_2_cif.got.tgz:3336.got - 2010.04.01 12:16:15.
