data_PCOD8329325
_publ_section_title
;
Structure prediction by ZEFSAII (Michael W. Deem and Ramdas Pophale) SiO2 
 PCOD8329325
Probable space group: P 6/M M M
;
_chemical_formula_sum "Si O2"
_cell_formula_units_Z 144
_cell_length_a 22.156862
_cell_length_b 22.156862
_cell_length_c 25.312394
_cell_angle_alpha 90.000000
_cell_angle_beta 90.000000
_cell_angle_gamma 120.000000
_cell_volume 10761.687063
_symmetry_space_group_name_H-M "P 6/M M M"
_symmetry_group_IT_number 191
_symmetry_cell_setting 'hexagonal'
loop_
_space_group_symop_operation_xyz
x,y,z
x-y,x,z
-y,x-y,z
-x,-y,z
-x+y,-x,z
y,-x+y,z
x-y,-y,-z
-x,-x+y,-z
y,x,-z
-y,-x,-z
-x+y,y,-z
x,x-y,-z
-x,-y,-z
-x+y,-x,-z
y,-x+y,-z
x,y,-z
x-y,x,-z
-y,x-y,-z
-x+y,y,z
x,x-y,z
-y,-x,z
y,x,z
x-y,-y,z
-x,-x+y,z
loop_
_atom_site_type_symbol
_atom_site_label
_atom_site_fract_x
_atom_site_fract_y
_atom_site_fract_z
Si Si1 0.389239 0.920785 0.500000
Si Si2 0.666738 0.193045 0.416677
Si Si3 0.472425 0.805513 0.294689
Si Si4 0.389338 0.469732 0.000000
Si Si5 0.079432 0.610527 0.211713
Si Si6 0.076622 0.286238 0.939888
Si Si7 0.413877 0.332993 0.895138
O O1 0.464836 0.929671 0.500000
O O2 0.346319 0.875655 0.448832
O O3 0.400561 0.000000 0.500000
O O4 0.604961 0.209921 0.428321
O O5 0.739347 0.260654 0.433916
O O6 0.668569 0.175476 0.355542
O O7 0.393128 0.786256 0.284660
O O8 0.479140 0.739570 0.277080
O O9 0.525946 0.872954 0.261219
O O10 0.346168 0.462733 0.946487
O O11 0.407993 0.407993 0.000000
O O12 0.455597 0.544404 0.000000
O O13 0.081719 0.540860 0.200980
O O14 0.112451 0.659348 0.159952
O O15 0.000000 0.591941 0.223486
O O16 0.129004 0.258008 0.928370
O O17 0.092300 0.348061 0.899533
O O18 0.000000 0.221219 0.930225
O O19 0.083829 0.314590 0.000000
O O20 0.391774 0.391774 0.894479
#
# Coordination Sequence:
#
# PCOD8329325 Si02
#       7
#    12  24  24  12  24  24  24
#     4   9  17  26  36  54  78  99 116 138 176 226
#     4   9  16  26  40  56  73  94 123 158 190 217
#     4   9  17  28  41  55  71  94 125 158 188 217
#     4   9  14  20  33  50  67  88 110 135 170 208
#     4   9  17  27  38  54  76  99 122 150 185 224
#     4   9  16  26  39  54  72  93 116 143 177 217
#     4   9  15  24  36  52  72  92 115 143 176 216
#
# _framework density 13.380801
#
# number of rings (size 3 to 8) (size 9 to 14) (size 15 to 20)
#    0.000    3.000    0.833    1.083    0.000    4.667 
#    0.000    4.167    0.000    0.167    0.000    1.167 
#    0.000    0.000    0.000    0.333    0.000    0.333 
#
# Total GULP energy -1784703.606076 kJ/mol
# GULP energy per Si atom -12393.775042 kJ/mol
# Density = 1.335035 g / cm^3
# Si number density = 13.380801 Si / 1000 Ang^3
#
#
#
# Elastic Constant Matrix: (Units=GPa)
#
#
# Indices 1 2 3 4 5 6 
#
# 1 61.5066 34.8683 44.0220 0.0000 0.0000 0.0000
# 2 34.8683 61.5066 44.0220 0.0000 0.0000 0.0000
# 3 44.0220 44.0220 87.4973 0.0000 0.0000 0.0000
# 4 0.0000 0.0000 0.0000 15.9507 0.0000 0.0000
# 5 0.0000 0.0000 0.0000 0.0000 15.9507 0.0000
# 6 0.0000 0.0000 0.0000 0.0000 0.0000 13.3191
#
#
#
# Elastic Compliance Matrix: (Units=1/GPa)
#
#
# Indices 1 2 3 4 5 6 
#
# 1 0.028371 -0.009169 -0.009661 0.000000 0.000000 0.000000
# 2 -0.009169 0.028371 -0.009661 0.000000 0.000000 0.000000
# 3 -0.009661 -0.009661 0.021150 0.000000 0.000000 0.000000
# 4 0.000000 0.000000 0.000000 0.062693 0.000000 0.000000
# 5 0.000000 0.000000 0.000000 0.000000 0.062693 0.000000
# 6 0.000000 0.000000 0.000000 0.000000 0.000000 0.075080
#
#
# Mechanical properties :
#
#
# Convention : Reuss Voigt Hill
#
# Bulk Modulus (GPa) = 47.82323 50.70388 49.26356
# Shear Modulus (GPa) = 14.60661 14.88397 14.74529
#
# Velocity S-wave (km/s) = 3.30754 3.33879 3.32320
# Velocity P-wave (km/s) = 7.09959 7.26902 7.18480
#
# Compressibility (1/GPa) = 0.02091034
#
# Stress axis : x y z
#
# Youngs Moduli (GPa) = 35.24728 35.24728 47.28067
#
# Poissons Ratio (x) = 0.32318 0.45678
# Poissons Ratio (y) = 0.32318 0.45678
# Poissons Ratio (z) = 0.34052 0.34052
#
# Static dielectric constant tensor:
#      x y z
#    x 2.516890 0.000000 0.000000 
#    y 0.000000 2.516890 0.000000 
#    z 0.000000 0.000000 2.791050 
# 
# 
# High freq. dielectric constant tensor:
#      x y z
#    x 1.481810 0.000000 0.000000 
#    y 0.000000 1.481810 0.000000 
#    z 0.000000 0.000000 1.511870 
# 
# From -- ./inp_files/9139.got.cif
#   From: 2010.03.12/outbox.cif.g09.slc.cpg/sg191_5_cif.got.tgz:9139.got - 2010.04.01 12:09:02.
