data_PCOD8329744
_publ_section_title
;
Structure prediction by ZEFSAII (Michael W. Deem and Ramdas Pophale) SiO2 
 PCOD8329744
Probable space group: P 6/M C C
;
_chemical_formula_sum "Si O2"
_cell_formula_units_Z 168
_cell_length_a 28.195713
_cell_length_b 28.195713
_cell_length_c 15.435449
_cell_angle_alpha 90.000000
_cell_angle_beta 90.000000
_cell_angle_gamma 120.000000
_cell_volume 10627.131668
_symmetry_space_group_name_H-M "P 6/M C C"
_symmetry_group_IT_number 192
_symmetry_cell_setting 'hexagonal'
loop_
_space_group_symop_operation_xyz
x,y,z
x-y,x,z
-y,x-y,z
-x,-y,z
-x+y,-x,z
y,-x+y,z
x-y,-y,1/2-z
-x,-x+y,1/2-z
y,x,1/2-z
-y,-x,1/2-z
-x+y,y,1/2-z
x,x-y,1/2-z
-x,-y,-z
-x+y,-x,-z
y,-x+y,-z
x,y,-z
x-y,x,-z
-y,x-y,-z
-x+y,y,1/2+z
x,x-y,1/2+z
-y,-x,1/2+z
y,x,1/2+z
x-y,-y,1/2+z
-x,-x+y,1/2+z
loop_
_atom_site_type_symbol
_atom_site_label
_atom_site_fract_x
_atom_site_fract_y
_atom_site_fract_z
Si Si1 0.065388 0.651405 0.403523
Si Si2 0.753144 0.692697 0.102617
Si Si3 0.062353 0.124706 0.396858
Si Si4 0.520702 0.934651 0.750000
Si Si5 0.651405 0.586017 0.903523
Si Si6 0.249555 0.124778 0.103517
Si Si7 0.692697 0.753144 0.102617
O O1 0.087034 0.649152 0.500000
O O2 0.087640 0.623782 0.335674
O O3 0.085944 0.714171 0.374602
O O4 1.000000 0.619850 0.404663
O O5 0.714171 0.628227 0.125398
O O6 0.813764 0.717370 0.141169
O O7 0.727666 0.727666 0.143411
O O8 0.755899 0.699355 0.000000
O O9 0.093581 0.093581 0.361791
O O10 0.062261 0.124522 0.500000
O O11 0.093555 0.187110 0.362005
O O12 0.455716 0.911432 0.750000
O O13 0.536141 0.912359 0.835674
O O14 0.553216 0.000000 0.750000
O O15 0.649152 0.562117 0.000000
O O16 0.282630 0.186237 0.141169
O O17 0.249333 0.124667 0.000000
O O18 0.699355 0.755898 0.000000
#
# Coordination Sequence:
#
# PCOD8329744 Si02
#       7
#    24  24  24  24  24  24  24
#     4   8  14  24  36  50  71  98 124 153 189 224
#     4   8  13  21  32  46  65  90 122 162 208 250
#     4   9  15  20  25  36  59  91 125 165 220 284
#     4   9  16  24  36  55  74  94 123 152 177 207
#     4   8  14  24  36  50  71  98 124 153 189 224
#     4   9  14  19  30  46  61  83 124 174 212 253
#     4   8  13  21  32  46  65  90 122 162 208 250
#
# _framework density 15.808593
#
# number of rings (size 3 to 8) (size 9 to 14) (size 15 to 20)
#    0.000    3.571    0.000    2.714    0.000    4.571 
#    0.000    2.857    0.000    0.857    0.000    0.000 
#    0.000    0.000    0.000    0.000    0.000    3.571 
#
# Total GULP energy -2081679.800216 kJ/mol
# GULP energy per Si atom -12390.951192 kJ/mol
# Density = 1.577261 g / cm^3
# Si number density = 15.808593 Si / 1000 Ang^3
#
#
#
# Elastic Constant Matrix: (Units=GPa)
#
#
# Indices 1 2 3 4 5 6 
#
# 1 103.6982 54.2029 35.4091 0.0000 0.0000 0.0000
# 2 54.2029 103.6982 35.4091 0.0000 0.0000 0.0000
# 3 35.4091 35.4091 56.6508 0.0000 0.0000 0.0000
# 4 0.0000 0.0000 0.0000 1.0143 0.0000 0.0000
# 5 0.0000 0.0000 0.0000 0.0000 1.0143 0.0000
# 6 0.0000 0.0000 0.0000 0.0000 0.0000 24.7476
#
#
#
# Elastic Compliance Matrix: (Units=1/GPa)
#
#
# Indices 1 2 3 4 5 6 
#
# 1 0.014502 -0.005702 -0.005500 0.000000 0.000000 0.000000
# 2 -0.005702 0.014502 -0.005500 0.000000 0.000000 0.000000
# 3 -0.005500 -0.005500 0.024528 0.000000 0.000000 0.000000
# 4 0.000000 0.000000 0.000000 0.985875 0.000000 0.000000
# 5 0.000000 0.000000 0.000000 0.000000 0.985875 0.000000
# 6 0.000000 0.000000 0.000000 0.000000 0.000000 0.040408
#
#
# Mechanical properties :
#
#
# Convention : Reuss Voigt Hill
#
# Bulk Modulus (GPa) = 49.68583 57.12101 53.40342
# Shear Modulus (GPa) = 2.37439 14.62366 8.49903
#
# Velocity S-wave (km/s) = 1.22687 3.04476 2.32118
# Velocity P-wave (km/s) = 5.78834 6.96936 6.40612
#
# Compressibility (1/GPa) = 0.02012646
#
# Stress axis : x y z
#
# Youngs Moduli (GPa) = 68.95620 68.95620 40.76992
#
# Poissons Ratio (x) = 0.39319 0.22425
# Poissons Ratio (y) = 0.39319 0.22425
# Poissons Ratio (z) = 0.37928 0.37928
#
# Static dielectric constant tensor:
#      x y z
#    x 2.978160 0.000000 0.000000 
#    y 0.000000 2.978160 0.000000 
#    z 0.000000 0.000000 2.846260 
# 
# 
# High freq. dielectric constant tensor:
#      x y z
#    x 1.571480 0.000000 0.000000 
#    y 0.000000 1.571480 0.000000 
#    z 0.000000 0.000000 1.591220 
# 
# From -- ./inp_files/3527.got.cif
#   From: 2010.03.12/outbox.cif.g09.slc.cpg/sg192_2_cif.got.tgz:3527.got - 2010.04.01 12:16:15.
