data_PCOD8329103
_publ_section_title
;
Structure prediction by ZEFSAII (Michael W. Deem and Ramdas Pophale) SiO2 
 PCOD8329103
Probable space group: P 6/M M M
;
_chemical_formula_sum "Si O2"
_cell_formula_units_Z 132
_cell_length_a 18.043804
_cell_length_b 18.043804
_cell_length_c 27.549439
_cell_angle_alpha 90.000000
_cell_angle_beta 90.000000
_cell_angle_gamma 120.000000
_cell_volume 7767.827867
_symmetry_space_group_name_H-M "P 6/M M M"
_symmetry_group_IT_number 191
_symmetry_cell_setting 'hexagonal'
loop_
_space_group_symop_operation_xyz
x,y,z
x-y,x,z
-y,x-y,z
-x,-y,z
-x+y,-x,z
y,-x+y,z
x-y,-y,-z
-x,-x+y,-z
y,x,-z
-y,-x,-z
-x+y,y,-z
x,x-y,-z
-x,-y,-z
-x+y,-x,-z
y,-x+y,-z
x,y,-z
x-y,x,-z
-y,x-y,-z
-x+y,y,z
x,x-y,z
-y,-x,z
y,x,z
x-y,-y,z
-x,-x+y,z
loop_
_atom_site_type_symbol
_atom_site_label
_atom_site_fract_x
_atom_site_fract_y
_atom_site_fract_z
Si Si1 0.666600 0.499953 0.942691
Si Si2 0.503919 0.836791 0.739004
Si Si3 0.333184 0.836522 0.371376
Si Si4 0.663191 0.663191 0.904814
Si Si5 0.906220 0.647822 0.554698
Si Si6 0.586095 0.000000 0.196203
Si Si7 0.173779 0.173779 0.056580
O O1 0.749213 0.498426 0.921090
O O2 0.580447 0.419554 0.920731
O O3 0.671490 0.587985 0.929718
O O4 0.665741 0.491522 0.000000
O O5 0.404569 0.809138 0.743593
O O6 0.514046 0.757023 0.755721
O O7 0.534981 0.864013 0.683760
O O8 0.563024 0.916500 0.772723
O O9 0.423585 0.847169 0.383978
O O10 0.261600 0.738400 0.379967
O O11 0.321907 0.898483 0.408045
O O12 0.641976 0.641976 0.848591
O O13 0.751805 0.751805 0.911226
O O14 0.890804 0.610097 0.500000
O O15 0.839552 0.679103 0.567976
O O16 0.000000 0.730101 0.559847
O O17 0.500000 0.000000 0.179486
O O18 0.167030 0.083515 0.069348
O O19 0.196425 0.196425 0.000000
#
# Coordination Sequence:
#
# PCOD8329103 Si02
#       7
#    24  24  24  12  24  12  12
#     4  10  20  34  52  74 101 134 170 205 241 286
#     4   9  18  33  52  71  92 123 164 207 248 291
#     4   9  17  29  47  69  94 125 162 201 239 280
#     4  12  22  34  52  76 105 133 166 205 249 299
#     4   9  18  31  46  67  96 128 161 196 240 294
#     4  10  22  36  49  70  99 130 164 206 255 294
#     4  10  21  38  60  85 110 135 164 199 241 291
#
# _framework density 16.993168000000001
#
# number of rings (size 3 to 8) (size 9 to 14) (size 15 to 20)
#    0.000    2.364    0.000    2.818    1.273    6.909 
#    0.000    0.909    0.000    3.455    0.000    1.273 
#    0.000    0.000    0.000    0.000    0.000    0.000 
#
# Total GULP energy -1636740.075131 kJ/mol
# GULP energy per Si atom -12399.546024 kJ/mol
# Density = 1.695449 g / cm^3
# Si number density = 16.993168 Si / 1000 Ang^3
#
#
#
# Elastic Constant Matrix: (Units=GPa)
#
#
# Indices 1 2 3 4 5 6 
#
# 1 121.7197 69.8466 45.6348 0.0000 0.0000 0.0000
# 2 69.8466 121.7197 45.6348 0.0000 0.0000 0.0000
# 3 45.6348 45.6348 70.4340 0.0000 0.0000 0.0000
# 4 0.0000 0.0000 0.0000 -4.8040 0.0000 0.0000
# 5 0.0000 0.0000 0.0000 0.0000 -4.8040 0.0000
# 6 0.0000 0.0000 0.0000 0.0000 0.0000 25.9366
#
#
#
# Elastic Compliance Matrix: (Units=1/GPa)
#
#
# Indices 1 2 3 4 5 6 
#
# 1 0.013414 -0.005863 -0.004892 0.000000 0.000000 0.000000
# 2 -0.005863 0.013414 -0.004892 0.000000 0.000000 0.000000
# 3 -0.004892 -0.004892 0.020537 0.000000 0.000000 0.000000
# 4 0.000000 0.000000 0.000000 -0.208159 0.000000 0.000000
# 5 0.000000 0.000000 0.000000 0.000000 -0.208159 0.000000
# 6 0.000000 0.000000 0.000000 0.000000 0.000000 0.038556
#
#
# Mechanical properties :
#
#
# Convention : Reuss Voigt Hill
#
# Bulk Modulus (GPa) = 62.22827 70.67842 66.45334
# Shear Modulus (GPa) = -17.02161 13.44953 -1.78604
#
# Velocity S-wave (km/s) = -3.16836 2.81635 -1.02631
# Velocity P-wave (km/s) = 4.82850 7.22899 6.14706
#
# Compressibility (1/GPa) = 0.01606987
#
# Stress axis : x y z
#
# Youngs Moduli (GPa) = 74.54665 74.54665 48.69183
#
# Poissons Ratio (x) = 0.43709 0.23822
# Poissons Ratio (y) = 0.43709 0.23822
# Poissons Ratio (z) = 0.36471 0.36471
#
# Static dielectric constant tensor:
#      x y z
#    x 3.228080 0.000000 0.000000 
#    y 0.000000 3.228080 0.000000 
#    z 0.000000 0.000000 3.166180 
# 
# 
# High freq. dielectric constant tensor:
#      x y z
#    x 1.654430 0.000000 0.000000 
#    y 0.000000 1.654430 0.000000 
#    z 0.000000 0.000000 1.647040 
# 
# From -- ./inp_files/8720.got.cif
#   From: 2010.03.12/outbox.cif.g09.slc.cpg/sg191_5_cif.got.tgz:8720.got - 2010.04.01 12:09:02.
