data_PCOD8329904
_publ_section_title
;
Structure prediction by ZEFSAII (Michael W. Deem and Ramdas Pophale) SiO2 
 PCOD8329904
Probable space group: P 63/M C M
;
_chemical_formula_sum "Si O2"
_cell_formula_units_Z 168
_cell_length_a 28.069156
_cell_length_b 28.069156
_cell_length_c 14.998334
_cell_angle_alpha 90.000000
_cell_angle_beta 90.000000
_cell_angle_gamma 120.000000
_cell_volume 10233.692444
_symmetry_space_group_name_H-M "P 63/M C M"
_symmetry_group_IT_number 193
_symmetry_cell_setting 'hexagonal'
loop_
_space_group_symop_operation_xyz
x,y,z
x-y,x,1/2+z
-y,x-y,z
-x,-y,1/2+z
-x+y,-x,z
y,-x+y,1/2+z
x-y,-y,1/2-z
-x,-x+y,1/2-z
y,x,1/2-z
-y,-x,-z
-x+y,y,-z
x,x-y,-z
-x,-y,-z
-x+y,-x,1/2-z
y,-x+y,-z
x,y,1/2-z
x-y,x,-z
-y,x-y,1/2-z
-x+y,y,1/2+z
x,x-y,1/2+z
-y,-x,1/2+z
y,x,z
x-y,-y,z
-x,-x+y,z
loop_
_atom_site_type_symbol
_atom_site_label
_atom_site_fract_x
_atom_site_fract_y
_atom_site_fract_z
Si Si1 0.606767 0.782540 0.905467
Si Si2 0.647847 0.938337 0.466125
Si Si3 0.815489 0.323503 0.350079
Si Si4 0.512658 0.289835 0.352456
Si Si5 0.273740 0.386580 0.649010
Si Si6 0.441507 0.848784 0.403721
Si Si7 0.557327 0.938848 0.151301
O O1 0.653670 0.764809 0.919730
O O2 0.552876 0.732694 0.859347
O O3 0.629757 0.838913 0.848955
O O4 0.587603 0.793802 0.000000
O O5 0.647792 0.933135 0.574266
O O6 0.590611 0.930137 0.428069
O O7 0.697635 0.000000 0.441696
O O8 0.808129 0.300982 0.250000
O O9 0.755521 0.282344 0.392768
O O10 0.862681 0.312081 0.387575
O O11 0.830934 0.386171 0.349388
O O12 0.531195 0.306379 0.250000
O O13 0.546689 0.344860 0.411320
O O14 0.289121 0.376877 0.750000
O O15 0.433728 0.867456 0.500000
O O16 0.492195 0.899228 0.355985
O O17 0.576160 0.929977 0.250000
O O18 0.566831 0.000000 0.143936
#
# Coordination Sequence:
#
# PCOD8329904 Si02
#       7
#    24  24  24  24  24  24  24
#     4   9  17  29  52  72  92 120 157 192 223 270
#     4  10  19  31  49  77 103 123 154 197 242 285
#     4   9  19  34  50  66  83 108 146 182 216 273
#     4  10  20  34  52  67  83 110 142 179 224 276
#     4   9  18  33  52  72  96 128 161 191 228 283
#     4  12  23  32  50  69  91 117 143 183 232 279
#     4  10  21  36  53  72  95 124 157 190 231 288
#
# _framework density 16.416360999999998
#
# number of rings (size 3 to 8) (size 9 to 14) (size 15 to 20)
#    0.000    2.143    1.429    3.429    4.000    1.143 
#    0.857    0.714    0.000    0.857    0.000    0.000 
#    0.000    0.000    0.000    0.000    0.000    0.000 
#
# Total GULP energy -2081312.393255 kJ/mol
# GULP energy per Si atom -12388.764246 kJ/mol
# Density = 1.637900 g / cm^3
# Si number density = 16.416361 Si / 1000 Ang^3
#
#
#
# Elastic Constant Matrix: (Units=GPa)
#
#
# Indices 1 2 3 4 5 6 
#
# 1 62.3085 32.5747 13.6057 0.0000 0.0000 0.0000
# 2 32.5747 62.3085 13.6057 0.0000 0.0000 0.0000
# 3 13.6057 13.6057 65.5067 0.0000 0.0000 0.0000
# 4 0.0000 0.0000 0.0000 17.1264 0.0000 0.0000
# 5 0.0000 0.0000 0.0000 0.0000 17.1264 0.0000
# 6 0.0000 0.0000 0.0000 0.0000 0.0000 14.8669
#
#
#
# Elastic Compliance Matrix: (Units=1/GPa)
#
#
# Indices 1 2 3 4 5 6 
#
# 1 0.022419 -0.011212 -0.002328 0.000000 0.000000 0.000000
# 2 -0.011212 0.022419 -0.002328 0.000000 0.000000 0.000000
# 3 -0.002328 -0.002328 0.016233 0.000000 0.000000 0.000000
# 4 0.000000 0.000000 0.000000 0.058389 0.000000 0.000000
# 5 0.000000 0.000000 0.000000 0.000000 0.058389 0.000000
# 6 0.000000 0.000000 0.000000 0.000000 0.000000 0.067264
#
#
# Mechanical properties :
#
#
# Convention : Reuss Voigt Hill
#
# Bulk Modulus (GPa) = 34.08833 34.41066 34.24950
# Shear Modulus (GPa) = 17.44425 18.51311 17.97868
#
# Velocity S-wave (km/s) = 3.26331 3.36180 3.31292
# Velocity P-wave (km/s) = 5.91683 6.00630 5.96173
#
# Compressibility (1/GPa) = 0.02933555
#
# Stress axis : x y z
#
# Youngs Moduli (GPa) = 44.60439 44.60439 61.60469
#
# Poissons Ratio (x) = 0.50013 0.14339
# Poissons Ratio (y) = 0.50013 0.14339
# Poissons Ratio (z) = 0.10382 0.10382
#
# Static dielectric constant tensor:
#      x y z
#    x 2.955460 0.000000 0.000000 
#    y 0.000000 2.955460 0.000000 
#    z 0.000000 0.000000 3.224790 
# 
# 
# High freq. dielectric constant tensor:
#      x y z
#    x 1.596550 0.000000 0.000000 
#    y 0.000000 1.596550 0.000000 
#    z 0.000000 0.000000 1.648960 
# 
# From -- ./inp_files/4449.got.cif
#   From: 2010.03.12/outbox.cif.g09.slc.cpg/sg193_3_cif.got.tgz:4449.got - 2010.04.01 12:20:39.
