data_PCOD8329763
_publ_section_title
;
Structure prediction by ZEFSAII (Michael W. Deem and Ramdas Pophale) SiO2 
 PCOD8329763
Probable space group: P 63/M C M
;
_chemical_formula_sum "Si O2"
_cell_formula_units_Z 144
_cell_length_a 22.983242
_cell_length_b 22.983242
_cell_length_c 16.913752
_cell_angle_alpha 90.000000
_cell_angle_beta 90.000000
_cell_angle_gamma 120.000000
_cell_volume 7737.366521
_symmetry_space_group_name_H-M "P 63/M C M"
_symmetry_group_IT_number 193
_symmetry_cell_setting 'hexagonal'
loop_
_space_group_symop_operation_xyz
x,y,z
x-y,x,1/2+z
-y,x-y,z
-x,-y,1/2+z
-x+y,-x,z
y,-x+y,1/2+z
x-y,-y,1/2-z
-x,-x+y,1/2-z
y,x,1/2-z
-y,-x,-z
-x+y,y,-z
x,x-y,-z
-x,-y,-z
-x+y,-x,1/2-z
y,-x+y,-z
x,y,1/2-z
x-y,x,-z
-y,x-y,1/2-z
-x+y,y,1/2+z
x,x-y,1/2+z
-y,-x,1/2+z
y,x,z
x-y,-y,z
-x,-x+y,z
loop_
_atom_site_type_symbol
_atom_site_label
_atom_site_fract_x
_atom_site_fract_y
_atom_site_fract_z
Si Si1 0.000000 0.373596 0.906996
Si Si2 0.244971 0.244971 0.157376
Si Si3 0.779852 0.559703 0.094446
Si Si4 0.713335 0.856668 0.593640
Si Si5 0.865690 0.497149 0.906254
Si Si6 0.000000 0.373596 0.406997
Si Si7 0.244971 0.244971 0.657376
Si Si8 0.134310 0.502851 0.906253
O O1 0.061964 0.443793 0.880744
O O2 0.000000 0.313111 0.861543
O O3 0.000000 0.358757 1.000000
O O4 0.235168 0.235168 0.250000
O O5 0.247669 0.181191 0.122540
O O6 0.818178 0.636355 0.126509
O O7 0.704381 0.517479 0.127584
O O8 0.813099 0.517479 0.127584
O O9 0.781435 0.562870 0.000000
O O10 0.712219 0.856110 0.500000
O O11 0.752332 0.933523 0.622540
O O12 0.938036 0.556207 0.880745
O O13 0.852741 0.426370 0.870001
O O14 0.860383 0.491057 0.000000
O O15 0.000000 0.313110 0.361544
O O16 0.235168 0.235168 0.750000
#
# Coordination Sequence:
#
# PCOD8329763 Si02
#       8
#    12  12  24  24  24  12  12  24
#     4  10  17  30  52  76 103 145 189 230 283 347
#     4  12  24  37  57  90 123 150 183 236 293 340
#     4   9  16  27  47  75 104 140 189 242 294 341
#     4  11  21  39  63  86 114 153 195 233 278 346
#     4   9  16  26  43  71 104 139 186 241 291 334
#     4  10  17  30  52  76 103 145 189 230 283 347
#     4  12  24  37  57  90 123 150 183 236 293 340
#     4   9  16  26  43  71 104 139 186 241 291 334
#
# _framework density 18.610983000000001
#
# number of rings (size 3 to 8) (size 9 to 14) (size 15 to 20)
#    0.000    2.000    3.333    2.500    0.000    2.000 
#    1.000    0.000    0.000    2.333    0.000    2.333 
#    0.000    0.000    0.000    0.000    0.000    0.000 
#
# Total GULP energy -1785062.250334 kJ/mol
# GULP energy per Si atom -12396.265627 kJ/mol
# Density = 1.856862 g / cm^3
# Si number density = 18.610983 Si / 1000 Ang^3
#
#
#
# Elastic Constant Matrix: (Units=GPa)
#
#
# Indices 1 2 3 4 5 6 
#
# 1 143.4693 132.6460 24.5669 0.0000 0.0000 0.0000
# 2 132.6460 143.4693 24.5669 0.0000 0.0000 0.0000
# 3 24.5669 24.5669 46.5363 0.0000 0.0000 0.0000
# 4 0.0000 0.0000 0.0000 9.7241 0.0000 0.0000
# 5 0.0000 0.0000 0.0000 0.0000 9.7241 0.0000
# 6 0.0000 0.0000 0.0000 0.0000 0.0000 5.4116
#
#
#
# Elastic Compliance Matrix: (Units=1/GPa)
#
#
# Indices 1 2 3 4 5 6 
#
# 1 0.048195 -0.044198 -0.002110 0.000000 0.000000 0.000000
# 2 -0.044198 0.048195 -0.002110 0.000000 0.000000 0.000000
# 3 -0.002110 -0.002110 0.023717 0.000000 0.000000 0.000000
# 4 0.000000 0.000000 0.000000 0.102837 0.000000 0.000000
# 5 0.000000 0.000000 0.000000 0.000000 0.102837 0.000000
# 6 0.000000 0.000000 0.000000 0.000000 0.000000 0.184787
#
#
# Mechanical properties :
#
#
# Convention : Reuss Voigt Hill
#
# Bulk Modulus (GPa) = 42.97321 77.44829 60.21075
# Shear Modulus (GPa) = 8.12794 15.08497 11.60645
#
# Velocity S-wave (km/s) = 2.09207 2.85009 2.49998
# Velocity P-wave (km/s) = 5.38294 7.24813 6.38402
#
# Compressibility (1/GPa) = 0.02327031
#
# Stress axis : x y z
#
# Youngs Moduli (GPa) = 20.74888 20.74888 42.16465
#
# Poissons Ratio (x) = 0.91706 0.08897
# Poissons Ratio (y) = 0.91706 0.08897
# Poissons Ratio (z) = 0.04378 0.04378
#
# Static dielectric constant tensor:
#      x y z
#    x 3.655940 0.000000 0.000000 
#    y 0.000000 3.655940 0.000000 
#    z 0.000000 0.000000 2.915810 
# 
# 
# High freq. dielectric constant tensor:
#      x y z
#    x 1.727570 0.000000 0.000000 
#    y 0.000000 1.727570 0.000000 
#    z 0.000000 0.000000 1.673530 
# 
# From -- ./inp_files/5629.got.cif
#   From: 2010.03.12/outbox.cif.g09.slc.cpg/sg193_3_cif.got.tgz:5629.got - 2010.04.01 12:20:39.
