data_PCOD8329366
_publ_section_title
;
Structure prediction by ZEFSAII (Michael W. Deem and Ramdas Pophale) SiO2 
 PCOD8329366
Probable space group: P 6/M C C
;
_chemical_formula_sum "Si O2"
_cell_formula_units_Z 192
_cell_length_a 25.861476
_cell_length_b 25.861476
_cell_length_c 25.306012
_cell_angle_alpha 90.000000
_cell_angle_beta 90.000000
_cell_angle_gamma 120.000000
_cell_volume 14657.535581
_symmetry_space_group_name_H-M "P 6/M C C"
_symmetry_group_IT_number 192
_symmetry_cell_setting 'hexagonal'
loop_
_space_group_symop_operation_xyz
x,y,z
x-y,x,z
-y,x-y,z
-x,-y,z
-x+y,-x,z
y,-x+y,z
x-y,-y,1/2-z
-x,-x+y,1/2-z
y,x,1/2-z
-y,-x,1/2-z
-x+y,y,1/2-z
x,x-y,1/2-z
-x,-y,-z
-x+y,-x,-z
y,-x+y,-z
x,y,-z
x-y,x,-z
-y,x-y,-z
-x+y,y,1/2+z
x,x-y,1/2+z
-y,-x,1/2+z
y,x,1/2+z
x-y,-y,1/2+z
-x,-x+y,1/2+z
loop_
_atom_site_type_symbol
_atom_site_label
_atom_site_fract_x
_atom_site_fract_y
_atom_site_fract_z
Si Si1 0.337918 0.227924 0.848201
Si Si2 0.353411 0.423879 0.688295
Si Si3 0.066803 0.817511 0.560361
Si Si4 0.337918 0.227924 0.348202
Si Si5 0.930334 0.465167 0.688614
Si Si6 0.252920 0.067130 0.250000
Si Si7 0.929533 0.576122 0.311705
Si Si8 0.750708 0.933197 0.060361
O O1 0.396699 0.292444 0.844489
O O2 0.305958 0.224238 0.903574
O O3 0.359559 0.179779 0.845033
O O4 0.292333 0.217819 0.801164
O O5 0.397839 0.492003 0.666287
O O6 0.383059 0.383059 0.679361
O O7 0.339767 0.425621 0.750000
O O8 0.073413 0.802193 0.500000
O O9 0.112690 0.887310 0.573201
O O10 0.000000 0.804751 0.571755
O O11 0.292333 0.217818 0.301164
O O12 0.396699 0.292444 0.344489
O O13 0.305958 0.224238 0.403574
O O14 0.916435 0.458218 0.750000
O O15 0.905836 0.507997 0.666287
O O16 0.000000 0.500000 0.678361
O O17 0.229734 0.114867 0.250000
O O18 0.196092 0.000000 0.250000
O O19 0.728780 0.926587 0.000000
#
# Coordination Sequence:
#
# PCOD8329366 Si02
#       8
#    24  24  24  24  24  24  24  24
#     4  10  18  25  36  55  76  96 119 147 183 225
#     4   9  14  21  34  50  73  98 118 141 172 206
#     4   9  17  28  40  53  70  94 125 158 191 230
#     4  10  18  25  36  55  76  96 119 147 183 225
#     4   7  12  20  30  48  69  93 119 139 160 195
#     4  10  18  26  36  52  73  95 117 145 185 229
#     4   9  14  21  34  50  73  98 118 141 172 206
#     4   9  17  28  40  53  70  94 125 158 191 230
#
# _framework density 13.099064
#
# number of rings (size 3 to 8) (size 9 to 14) (size 15 to 20)
#    0.000    2.875    1.250    3.750    0.000    0.000 
#    0.000    0.000    0.000    0.375    0.000    2.625 
#    1.250   11.000    0.750    0.250    0.000    0.500 
#
# Total GULP energy -2378850.706684 kJ/mol
# GULP energy per Si atom -12389.847431 kJ/mol
# Density = 1.306925 g / cm^3
# Si number density = 13.099064 Si / 1000 Ang^3
#
#
#
# Elastic Constant Matrix: (Units=GPa)
#
#
# Indices 1 2 3 4 5 6 
#
# 1 100.5050 53.7829 32.1880 0.0000 0.0000 0.0000
# 2 53.7829 100.5050 32.1880 0.0000 0.0000 0.0000
# 3 32.1880 32.1880 51.5106 0.0000 0.0000 0.0000
# 4 0.0000 0.0000 0.0000 13.2633 0.0000 0.0000
# 5 0.0000 0.0000 0.0000 0.0000 13.2633 0.0000
# 6 0.0000 0.0000 0.0000 0.0000 0.0000 23.3611
#
#
#
# Elastic Compliance Matrix: (Units=1/GPa)
#
#
# Indices 1 2 3 4 5 6 
#
# 1 0.015085 -0.006318 -0.005479 0.000000 0.000000 0.000000
# 2 -0.006318 0.015085 -0.005479 0.000000 0.000000 0.000000
# 3 -0.005479 -0.005479 0.026260 0.000000 0.000000 0.000000
# 4 0.000000 0.000000 0.000000 0.075396 0.000000 0.000000
# 5 0.000000 0.000000 0.000000 0.000000 0.075396 0.000000
# 6 0.000000 0.000000 0.000000 0.000000 0.000000 0.042806
#
#
# Mechanical properties :
#
#
# Convention : Reuss Voigt Hill
#
# Bulk Modulus (GPa) = 45.70210 54.31540 50.00875
# Shear Modulus (GPa) = 17.13076 18.93498 18.03287
#
# Velocity S-wave (km/s) = 3.62025 3.80613 3.71435
# Velocity P-wave (km/s) = 7.24157 7.80196 7.52698
#
# Compressibility (1/GPa) = 0.02188083
#
# Stress axis : x y z
#
# Youngs Moduli (GPa) = 66.29012 66.29012 38.08024
#
# Poissons Ratio (x) = 0.41882 0.20862
# Poissons Ratio (y) = 0.41882 0.20862
# Poissons Ratio (z) = 0.36317 0.36317
#
# Static dielectric constant tensor:
#      x y z
#    x 2.686400 0.000000 0.000000 
#    y 0.000000 2.686400 0.000000 
#    z 0.000000 0.000000 2.557180 
# 
# 
# High freq. dielectric constant tensor:
#      x y z
#    x 1.482590 0.000000 0.000000 
#    y 0.000000 1.482590 0.000000 
#    z 0.000000 0.000000 1.479530 
# 
# From -- ./inp_files/6705.got.cif
#   From: 2010.03.12/outbox.cif.g09.slc.cpg/sg192_4_cif.got.tgz:6705.got - 2010.04.01 12:16:15.
