data_PCOD8329923
_publ_section_title
;
Structure prediction by ZEFSAII (Michael W. Deem and Ramdas Pophale) SiO2 
 PCOD8329923
Probable space group: P 63/M C M
;
_chemical_formula_sum "Si O2"
_cell_formula_units_Z 72
_cell_length_a 17.221020
_cell_length_b 17.221020
_cell_length_c 14.989675
_cell_angle_alpha 90.000000
_cell_angle_beta 90.000000
_cell_angle_gamma 120.000000
_cell_volume 3849.821474
_symmetry_space_group_name_H-M "P 63/M C M"
_symmetry_group_IT_number 193
_symmetry_cell_setting 'hexagonal'
loop_
_space_group_symop_operation_xyz
x,y,z
x-y,x,1/2+z
-y,x-y,z
-x,-y,1/2+z
-x+y,-x,z
y,-x+y,1/2+z
x-y,-y,1/2-z
-x,-x+y,1/2-z
y,x,1/2-z
-y,-x,-z
-x+y,y,-z
x,x-y,-z
-x,-y,-z
-x+y,-x,1/2-z
y,-x+y,-z
x,y,1/2-z
x-y,x,-z
-y,x-y,1/2-z
-x+y,y,1/2+z
x,x-y,1/2+z
-y,-x,1/2+z
y,x,z
x-y,-y,z
-x,-x+y,z
loop_
_atom_site_type_symbol
_atom_site_label
_atom_site_fract_x
_atom_site_fract_y
_atom_site_fract_z
Si Si1 0.106018 0.895385 0.250000
Si Si2 0.509647 0.613321 0.148890
Si Si3 0.896741 0.213009 0.083800
Si Si4 0.218970 0.609485 0.000000
O O1 0.142158 0.869194 0.336628
O O2 0.000000 0.839615 0.250000
O O3 0.137561 0.000000 0.250000
O O4 0.484544 0.622981 0.250000
O O5 0.538611 0.538611 0.142687
O O6 0.588121 0.708121 0.115116
O O7 0.421542 0.579376 0.088277
O O8 0.000000 0.251772 0.056867
O O9 0.834984 0.165017 0.000000
O O10 0.282114 0.564228 0.000000
#
# Coordination Sequence:
#
# PCOD8329923 Si02
#       4
#    12  24  24  12
#     4  10  19  32  50  80 118 160 202 246 297 346
#     4  10  20  38  62  85 112 150 192 235 282 341
#     4  10  19  33  54  81 112 151 197 245 291 342
#     4  10  23  38  58  90 116 150 182 226 291 342
#
# _framework density 18.702165000000001
#
# number of rings (size 3 to 8) (size 9 to 14) (size 15 to 20)
#    0.333    1.667    1.667    2.667    0.000    1.333 
#    0.000    0.000    0.000    5.333    0.000    0.000 
#    0.000    0.000    0.000    0.000    0.000    0.000 
#
# Total GULP energy -892820.530780 kJ/mol
# GULP energy per Si atom -12400.285150 kJ/mol
# Density = 1.865960 g / cm^3
# Si number density = 18.702165 Si / 1000 Ang^3
#
#
#
# Elastic Constant Matrix: (Units=GPa)
#
#
# Indices 1 2 3 4 5 6 
#
# 1 74.6403 41.8150 66.8941 0.0000 0.0000 0.0000
# 2 41.8150 74.6403 66.8941 0.0000 0.0000 0.0000
# 3 66.8941 66.8941 181.7851 0.0000 0.0000 0.0000
# 4 0.0000 0.0000 0.0000 31.2504 0.0000 0.0000
# 5 0.0000 0.0000 0.0000 0.0000 31.2504 0.0000
# 6 0.0000 0.0000 0.0000 0.0000 0.0000 16.4127
#
#
#
# Elastic Compliance Matrix: (Units=1/GPa)
#
#
# Indices 1 2 3 4 5 6 
#
# 1 0.022670 -0.007794 -0.005474 0.000000 0.000000 0.000000
# 2 -0.007794 0.022670 -0.005474 0.000000 0.000000 0.000000
# 3 -0.005474 -0.005474 0.009530 0.000000 0.000000 0.000000
# 4 0.000000 0.000000 0.000000 0.032000 0.000000 0.000000
# 5 0.000000 0.000000 0.000000 0.000000 0.032000 0.000000
# 6 0.000000 0.000000 0.000000 0.000000 0.000000 0.060929
#
#
# Mechanical properties :
#
#
# Convention : Reuss Voigt Hill
#
# Bulk Modulus (GPa) = 57.52063 75.80802 66.66433
# Shear Modulus (GPa) = 22.41376 26.14687 24.28032
#
# Velocity S-wave (km/s) = 3.46563 3.74313 3.60705
# Velocity P-wave (km/s) = 6.84376 7.70089 7.28494
#
# Compressibility (1/GPa) = 0.01738507
#
# Stress axis : x y z
#
# Youngs Moduli (GPa) = 44.11109 44.11109 104.93473
#
# Poissons Ratio (x) = 0.34381 0.57442
# Poissons Ratio (y) = 0.34381 0.57442
# Poissons Ratio (z) = 0.24147 0.24147
#
# Static dielectric constant tensor:
#      x y z
#    x 3.333300 0.000000 0.000000 
#    y 0.000000 3.333300 0.000000 
#    z 0.000000 0.000000 3.529000 
# 
# 
# High freq. dielectric constant tensor:
#      x y z
#    x 1.721280 0.000000 0.000000 
#    y 0.000000 1.721280 0.000000 
#    z 0.000000 0.000000 1.737970 
# 
# From -- ./inp_files/3251.got.cif
#   From: 2010.03.12/outbox.cif.g09.slc.cpg/sg193_2_cif.got.tgz:3251.got - 2010.04.01 12:20:39.
