data_PCOD8329619
_publ_section_title
;
Structure prediction by ZEFSAII (Michael W. Deem and Ramdas Pophale) SiO2 
 PCOD8329619
Probable space group: P 6/M C C
;
_chemical_formula_sum "Si O2"
_cell_formula_units_Z 84
_cell_length_a 23.636199
_cell_length_b 23.636199
_cell_length_c 9.013778
_cell_angle_alpha 90.000000
_cell_angle_beta 90.000000
_cell_angle_gamma 120.000000
_cell_volume 4361.067060
_symmetry_space_group_name_H-M "P 6/M C C"
_symmetry_group_IT_number 192
_symmetry_cell_setting 'hexagonal'
loop_
_space_group_symop_operation_xyz
x,y,z
x-y,x,z
-y,x-y,z
-x,-y,z
-x+y,-x,z
y,-x+y,z
x-y,-y,1/2-z
-x,-x+y,1/2-z
y,x,1/2-z
-y,-x,1/2-z
-x+y,y,1/2-z
x,x-y,1/2-z
-x,-y,-z
-x+y,-x,-z
y,-x+y,-z
x,y,-z
x-y,x,-z
-y,x-y,-z
-x+y,y,1/2+z
x,x-y,1/2+z
-y,-x,1/2+z
y,x,1/2+z
x-y,-y,1/2+z
-x,-x+y,1/2+z
loop_
_atom_site_type_symbol
_atom_site_label
_atom_site_fract_x
_atom_site_fract_y
_atom_site_fract_z
Si Si1 0.813464 0.744830 0.827223
Si Si2 0.486443 0.621694 0.836047
Si Si3 0.144363 0.738558 0.171719
Si Si4 0.339720 0.597368 0.500000
O O1 0.788845 0.788845 0.750000
O O2 0.880754 0.761507 0.750000
O O3 0.759499 0.669304 0.803579
O O4 0.826483 0.762431 0.000000
O O5 0.446809 0.553192 0.750000
O O6 0.551203 0.667695 0.743607
O O7 0.439948 0.654280 0.855054
O O8 0.506492 0.608982 0.000000
O O9 0.211467 0.788534 0.250000
O O10 0.159968 0.736400 0.000000
O O11 0.400827 0.672960 0.500000
#
# Coordination Sequence:
#
# PCOD8329619 Si02
#       4
#    24  24  24  12
#     4  10  21  39  64  95 126 158 191 229 274 322
#     4  10  21  30  46  67  97 141 186 243 300 361
#     4  10  21  34  52  75 107 145 188 238 286 338
#     4   8  20  32  38  62  94 135 189 233 304 357
#
# _framework density 19.261341000000002
#
# number of rings (size 3 to 8) (size 9 to 14) (size 15 to 20)
#    1.143    1.143    0.000    2.571    4.000    3.429 
#    0.000    0.000    0.000    1.143    0.000    8.000 
#    0.000    0.000    0.000    0.000    0.000    0.000 
#
# Total GULP energy -1041254.854225 kJ/mol
# GULP energy per Si atom -12395.891122 kJ/mol
# Density = 1.921750 g / cm^3
# Si number density = 19.261341 Si / 1000 Ang^3
#
#
#
# Elastic Constant Matrix: (Units=GPa)
#
#
# Indices 1 2 3 4 5 6 
#
# 1 88.0816 51.3974 68.5383 0.0000 0.0000 0.0000
# 2 51.3974 88.0816 68.5383 0.0000 0.0000 0.0000
# 3 68.5383 68.5383 171.0167 0.0000 0.0000 0.0000
# 4 0.0000 0.0000 0.0000 30.4408 0.0000 0.0000
# 5 0.0000 0.0000 0.0000 0.0000 30.4408 0.0000
# 6 0.0000 0.0000 0.0000 0.0000 0.0000 18.3421
#
#
#
# Elastic Compliance Matrix: (Units=1/GPa)
#
#
# Indices 1 2 3 4 5 6 
#
# 1 0.019544 -0.007716 -0.004740 0.000000 0.000000 0.000000
# 2 -0.007716 0.019544 -0.004740 0.000000 0.000000 0.000000
# 3 -0.004740 -0.004740 0.009647 0.000000 0.000000 0.000000
# 4 0.000000 0.000000 0.000000 0.032851 0.000000 0.000000
# 5 0.000000 0.000000 0.000000 0.000000 0.032851 0.000000
# 6 0.000000 0.000000 0.000000 0.000000 0.000000 0.054519
#
#
# Mechanical properties :
#
#
# Convention : Reuss Voigt Hill
#
# Bulk Modulus (GPa) = 69.72558 80.45867 75.09213
# Shear Modulus (GPa) = 24.02348 26.42511 25.22430
#
# Velocity S-wave (km/s) = 3.53546 3.70797 3.62274
# Velocity P-wave (km/s) = 7.27628 7.75853 7.52127
#
# Compressibility (1/GPa) = 0.01434194
#
# Stress axis : x y z
#
# Youngs Moduli (GPa) = 51.16653 51.16653 103.65881
#
# Poissons Ratio (x) = 0.39479 0.49139
# Poissons Ratio (y) = 0.39479 0.49139
# Poissons Ratio (z) = 0.24255 0.24255
#
# Static dielectric constant tensor:
#      x y z
#    x 3.350880 0.000000 0.000000 
#    y 0.000000 3.350880 0.000000 
#    z 0.000000 0.000000 3.615110 
# 
# 
# High freq. dielectric constant tensor:
#      x y z
#    x 1.722340 0.000000 0.000000 
#    y 0.000000 1.722340 0.000000 
#    z 0.000000 0.000000 1.766540 
# 
# From -- ./inp_files/784.got.cif
#   From: 2010.03.12/outbox.cif.g09.slc.cpg/sg192_1_cif.got.tgz:784.got - 2010.04.01 12:16:15.
