data_PCOD8329723
_publ_section_title
;
Structure prediction by ZEFSAII (Michael W. Deem and Ramdas Pophale) SiO2 
 PCOD8329723
Probable space group: P 6/M C C
;
_chemical_formula_sum "Si O2"
_cell_formula_units_Z 108
_cell_length_a 14.591531
_cell_length_b 14.591531
_cell_length_c 28.831438
_cell_angle_alpha 90.000000
_cell_angle_beta 90.000000
_cell_angle_gamma 120.000000
_cell_volume 5316.167546
_symmetry_space_group_name_H-M "P 6/M C C"
_symmetry_group_IT_number 192
_symmetry_cell_setting 'hexagonal'
loop_
_space_group_symop_operation_xyz
x,y,z
x-y,x,z
-y,x-y,z
-x,-y,z
-x+y,-x,z
y,-x+y,z
x-y,-y,1/2-z
-x,-x+y,1/2-z
y,x,1/2-z
-y,-x,1/2-z
-x+y,y,1/2-z
x,x-y,1/2-z
-x,-y,-z
-x+y,-x,-z
y,-x+y,-z
x,y,-z
x-y,x,-z
-y,x-y,-z
-x+y,y,1/2+z
x,x-y,1/2+z
-y,-x,1/2+z
y,x,1/2+z
x-y,-y,1/2+z
-x,-x+y,1/2+z
loop_
_atom_site_type_symbol
_atom_site_label
_atom_site_fract_x
_atom_site_fract_y
_atom_site_fract_z
Si Si1 0.433860 0.874132 0.051012
Si Si2 0.456655 0.121839 0.734581
Si Si3 0.190594 0.960604 0.500000
Si Si4 0.265541 0.370514 0.088180
Si Si5 0.693302 0.585963 0.371184
O O1 0.511573 0.831152 0.066740
O O2 0.345312 0.839836 0.090112
O O3 0.500000 0.000000 0.047893
O O4 0.384304 0.828033 0.000000
O O5 0.573253 0.146506 0.750000
O O6 0.432152 0.216076 0.750000
O O7 0.463445 0.130853 0.679344
O O8 0.366791 0.000000 0.750000
O O9 0.197291 0.070956 0.500000
O O10 0.247528 0.955158 0.453924
O O11 0.161531 0.342901 0.117975
O O12 0.343756 0.362233 0.124815
#
# Coordination Sequence:
#
# PCOD8329723 Si02
#       5
#    24  24  12  24  24
#     4   9  20  34  56  85 120 160 204 248 303 377
#     4  11  26  46  72  99 134 174 231 294 356 419
#     4  12  23  40  61  97 135 181 223 272 319 392
#     4  11  22  38  62  91 128 172 215 259 321 395
#     4  11  24  39  66  89 129 165 217 262 335 390
#
# _framework density 20.315387999999999
#
# number of rings (size 3 to 8) (size 9 to 14) (size 15 to 20)
#    0.000    1.333    3.333    1.667   15.556    0.000 
#    1.333    0.000    0.000    0.222    0.000    3.111 
#    0.000    0.000    0.000    0.000    0.000    0.000 
#
# Total GULP energy -1338248.265079 kJ/mol
# GULP energy per Si atom -12391.187640 kJ/mol
# Density = 2.026915 g / cm^3
# Si number density = 20.315388 Si / 1000 Ang^3
#
#
#
# Elastic Constant Matrix: (Units=GPa)
#
#
# Indices 1 2 3 4 5 6 
#
# 1 90.0623 33.0225 42.2958 0.0000 0.0000 0.0000
# 2 33.0225 90.0623 42.2958 0.0000 0.0000 0.0000
# 3 42.2958 42.2958 173.4937 0.0000 0.0000 0.0000
# 4 0.0000 0.0000 0.0000 32.8894 0.0000 0.0000
# 5 0.0000 0.0000 0.0000 0.0000 32.8894 0.0000
# 6 0.0000 0.0000 0.0000 0.0000 0.0000 28.5199
#
#
#
# Elastic Compliance Matrix: (Units=1/GPa)
#
#
# Indices 1 2 3 4 5 6 
#
# 1 0.013646 -0.003886 -0.002379 0.000000 0.000000 0.000000
# 2 -0.003886 0.013646 -0.002379 0.000000 0.000000 0.000000
# 3 -0.002379 -0.002379 0.006924 0.000000 0.000000 0.000000
# 4 0.000000 0.000000 0.000000 0.030405 0.000000 0.000000
# 5 0.000000 0.000000 0.000000 0.000000 0.030405 0.000000
# 6 0.000000 0.000000 0.000000 0.000000 0.000000 0.035063
#
#
# Mechanical properties :
#
#
# Convention : Reuss Voigt Hill
#
# Bulk Modulus (GPa) = 59.08016 65.42741 62.25379
# Shear Modulus (GPa) = 32.67557 34.59336 33.63446
#
# Velocity S-wave (km/s) = 4.01486 4.13100 4.07334
# Velocity P-wave (km/s) = 7.11595 7.41817 7.26863
#
# Compressibility (1/GPa) = 0.01692615
#
# Stress axis : x y z
#
# Youngs Moduli (GPa) = 73.28343 73.28343 144.42532
#
# Poissons Ratio (x) = 0.28478 0.34363
# Poissons Ratio (y) = 0.28478 0.34363
# Poissons Ratio (z) = 0.17436 0.17436
#
# Static dielectric constant tensor:
#      x y z
#    x 3.765150 0.000000 0.000000 
#    y 0.000000 3.765150 0.000000 
#    z 0.000000 0.000000 3.711030 
# 
# 
# High freq. dielectric constant tensor:
#      x y z
#    x 1.789360 0.000000 0.000000 
#    y 0.000000 1.789360 0.000000 
#    z 0.000000 0.000000 1.800490 
# 
# From -- ./inp_files/6866.got.cif
#   From: 2010.03.12/outbox.cif.g09.slc.cpg/sg192_4_cif.got.tgz:6866.got - 2010.04.01 12:16:15.
