data_PCOD8329317
_publ_section_title
;
Structure prediction by ZEFSAII (Michael W. Deem and Ramdas Pophale) SiO2 
 PCOD8329317
Probable space group: P 6/M M M
;
_chemical_formula_sum "Si O2"
_cell_formula_units_Z 144
_cell_length_a 21.875807
_cell_length_b 21.875807
_cell_length_c 23.846604
_cell_angle_alpha 90.000000
_cell_angle_beta 90.000000
_cell_angle_gamma 120.000000
_cell_volume 9882.921318
_symmetry_space_group_name_H-M "P 6/M M M"
_symmetry_group_IT_number 191
_symmetry_cell_setting 'hexagonal'
loop_
_space_group_symop_operation_xyz
x,y,z
x-y,x,z
-y,x-y,z
-x,-y,z
-x+y,-x,z
y,-x+y,z
x-y,-y,-z
-x,-x+y,-z
y,x,-z
-y,-x,-z
-x+y,y,-z
x,x-y,-z
-x,-y,-z
-x+y,-x,-z
y,-x+y,-z
x,y,-z
x-y,x,-z
-y,x-y,-z
-x+y,y,z
x,x-y,z
-y,-x,z
y,x,z
x-y,-y,z
-x,-x+y,z
loop_
_atom_site_type_symbol
_atom_site_label
_atom_site_fract_x
_atom_site_fract_y
_atom_site_fract_z
Si Si1 0.188735 0.522745 0.227079
Si Si2 0.437401 0.149209 0.664389
Si Si3 0.122631 0.734783 0.833661
Si Si4 0.297007 0.079226 0.063591
Si Si5 0.218434 0.921768 0.269704
Si Si6 0.917581 0.389834 0.437083
O O1 0.267852 0.535703 0.223716
O O2 0.190967 0.595484 0.215504
O O3 0.153350 0.491036 0.287314
O O4 0.136350 0.466209 0.180149
O O5 0.454768 0.227384 0.651348
O O6 0.356629 0.100787 0.683328
O O7 0.448569 0.120593 0.606721
O O8 0.197702 0.802299 0.823804
O O9 0.093058 0.730613 0.896431
O O10 0.071660 0.742757 0.789521
O O11 0.270942 0.135471 0.077205
O O12 0.231406 0.000000 0.072869
O O13 0.325251 0.088844 0.000000
O O14 0.134405 0.865596 0.267533
O O15 0.231508 0.000000 0.283638
O O16 0.901533 0.358106 0.500000
O O17 0.889379 0.444690 0.430427
O O18 0.000000 0.429160 0.424588
#
# Coordination Sequence:
#
# PCOD8329317 Si02
#       6
#    24  24  24  24  24  24
#     4   9  16  26  41  60  81 103 128 161 200 240
#     4   9  17  27  40  59  80 103 130 160 196 235
#     4   8  15  26  39  58  80 102 131 162 192 227
#     4   9  16  26  42  62  82 105 133 164 195 228
#     4   9  16  26  41  59  79 102 127 158 194 231
#     4   9  17  28  41  56  75 102 135 167 196 227
#
# _framework density 14.570591
#
# number of rings (size 3 to 8) (size 9 to 14) (size 15 to 20)
#    0.000    3.167    0.000    4.167    0.000    0.333 
#    0.000    0.000    0.000   11.167    0.000    2.333 
#    0.000    5.333    0.000    0.167    0.000    0.000 
#
# Total GULP energy -1784315.586527 kJ/mol
# GULP energy per Si atom -12391.080462 kJ/mol
# Density = 1.453743 g / cm^3
# Si number density = 14.570591 Si / 1000 Ang^3
#
#
#
# Elastic Constant Matrix: (Units=GPa)
#
#
# Indices 1 2 3 4 5 6 
#
# 1 77.7829 43.3685 42.2749 0.0000 0.0000 0.0000
# 2 43.3685 77.7829 42.2749 0.0000 0.0000 0.0000
# 3 42.2749 42.2749 94.4079 0.0000 0.0000 0.0000
# 4 0.0000 0.0000 0.0000 19.2478 0.0000 0.0000
# 5 0.0000 0.0000 0.0000 0.0000 19.2478 0.0000
# 6 0.0000 0.0000 0.0000 0.0000 0.0000 17.2072
#
#
#
# Elastic Compliance Matrix: (Units=1/GPa)
#
#
# Indices 1 2 3 4 5 6 
#
# 1 0.020532 -0.008526 -0.005376 0.000000 0.000000 0.000000
# 2 -0.008526 0.020532 -0.005376 0.000000 0.000000 0.000000
# 3 -0.005376 -0.005376 0.015407 0.000000 0.000000 0.000000
# 4 0.000000 0.000000 0.000000 0.051954 0.000000 0.000000
# 5 0.000000 0.000000 0.000000 0.000000 0.051954 0.000000
# 6 0.000000 0.000000 0.000000 0.000000 0.000000 0.058115
#
#
# Mechanical properties :
#
#
# Convention : Reuss Voigt Hill
#
# Bulk Modulus (GPa) = 55.82061 56.20115 56.01088
# Shear Modulus (GPa) = 19.00981 19.27757 19.14369
#
# Velocity S-wave (km/s) = 3.61594 3.64132 3.62865
# Velocity P-wave (km/s) = 7.47175 7.50562 7.48870
#
# Compressibility (1/GPa) = 0.01791453
#
# Stress axis : x y z
#
# Youngs Moduli (GPa) = 48.70482 48.70482 64.90485
#
# Poissons Ratio (x) = 0.41524 0.34894
# Poissons Ratio (y) = 0.41524 0.34894
# Poissons Ratio (z) = 0.26185 0.26185
#
# Static dielectric constant tensor:
#      x y z
#    x 2.733830 0.000000 0.000000 
#    y 0.000000 2.733830 0.000000 
#    z 0.000000 0.000000 2.880790 
# 
# 
# High freq. dielectric constant tensor:
#      x y z
#    x 1.542010 0.000000 0.000000 
#    y 0.000000 1.542010 0.000000 
#    z 0.000000 0.000000 1.554360 
# 
# From -- ./inp_files/9927.got.cif
#   From: 2010.03.12/outbox.cif.g09.slc.cpg/sg191_5_cif.got.tgz:9927.got - 2010.04.01 12:09:02.
