data_PCOD8329560
_publ_section_title
;
Structure prediction by ZEFSAII (Michael W. Deem and Ramdas Pophale) SiO2 
 PCOD8329560
Probable space group: P 6/M C C
;
_chemical_formula_sum "Si O2"
_cell_formula_units_Z 144
_cell_length_a 31.060945
_cell_length_b 31.060945
_cell_length_c 8.774940
_cell_angle_alpha 90.000000
_cell_angle_beta 90.000000
_cell_angle_gamma 120.000000
_cell_volume 7331.690384
_symmetry_space_group_name_H-M "P 6/M C C"
_symmetry_group_IT_number 192
_symmetry_cell_setting 'hexagonal'
loop_
_space_group_symop_operation_xyz
x,y,z
x-y,x,z
-y,x-y,z
-x,-y,z
-x+y,-x,z
y,-x+y,z
x-y,-y,1/2-z
-x,-x+y,1/2-z
y,x,1/2-z
-y,-x,1/2-z
-x+y,y,1/2-z
x,x-y,1/2-z
-x,-y,-z
-x+y,-x,-z
y,-x+y,-z
x,y,-z
x-y,x,-z
-y,x-y,-z
-x+y,y,1/2+z
x,x-y,1/2+z
-y,-x,1/2+z
y,x,1/2+z
x-y,-y,1/2+z
-x,-x+y,1/2+z
loop_
_atom_site_type_symbol
_atom_site_label
_atom_site_fract_x
_atom_site_fract_y
_atom_site_fract_z
Si Si1 0.758007 0.332820 0.179682
Si Si2 0.853929 0.237969 0.321599
Si Si3 0.571064 0.050640 0.822014
Si Si4 0.666070 0.514475 0.324065
Si Si5 0.052318 0.854832 0.820539
Si Si6 0.703842 0.947994 0.179097
O O1 0.720714 0.279287 0.250000
O O2 0.746007 0.373004 0.250000
O O3 0.813674 0.345935 0.218982
O O4 0.751003 0.331697 0.000000
O O5 0.813519 0.186482 0.250000
O O6 0.856929 0.230552 0.500000
O O7 0.839340 0.279662 0.285046
O O8 0.906790 0.254508 0.248614
O O9 0.532316 0.064632 0.750000
O O10 0.626406 0.094582 0.786790
O O11 0.564581 0.000000 0.750000
O O12 0.560238 0.042247 0.000000
O O13 0.662193 0.498092 0.500000
O O14 0.094346 0.905655 0.750000
O O15 0.063940 0.811197 0.777500
O O16 0.000000 0.843143 0.750000
O O17 0.050304 0.860717 0.000000
O O18 0.715240 0.000000 0.250000
O O19 0.698315 0.950393 0.000000
#
# Coordination Sequence:
#
# PCOD8329560 Si02
#       6
#    24  24  24  24  24  24
#     4  12  25  42  65  91 120 152 189 235 286 343
#     4  11  23  39  58  82 115 153 193 236 283 340
#     4  10  20  36  58  84 114 147 187 234 283 336
#     4  10  23  41  60  86 118 153 194 238 285 340
#     4  10  20  34  54  80 110 144 184 231 281 334
#     4  10  21  37  58  84 114 149 190 237 288 340
#
# _framework density 19.640764000000001
#
# number of rings (size 3 to 8) (size 9 to 14) (size 15 to 20)
#    0.000    1.500    0.000    5.667    0.000    9.333 
#    0.000    1.667    0.000    0.167    0.000    1.167 
#    0.000    0.000    0.000    0.000    0.000    0.000 
#
# Total GULP energy -1786563.693095 kJ/mol
# GULP energy per Si atom -12406.692313 kJ/mol
# Density = 1.959606 g / cm^3
# Si number density = 19.640764 Si / 1000 Ang^3
#
#
#
# Elastic Constant Matrix: (Units=GPa)
#
#
# Indices 1 2 3 4 5 6 
#
# 1 93.3229 30.3243 47.2455 0.0000 0.0000 0.0000
# 2 30.3243 93.3229 47.2455 0.0000 0.0000 0.0000
# 3 47.2455 47.2455 121.3955 0.0000 0.0000 0.0000
# 4 0.0000 0.0000 0.0000 31.8021 0.0000 0.0000
# 5 0.0000 0.0000 0.0000 0.0000 31.8021 0.0000
# 6 0.0000 0.0000 0.0000 0.0000 0.0000 31.4993
#
#
#
# Elastic Compliance Matrix: (Units=1/GPa)
#
#
# Indices 1 2 3 4 5 6 
#
# 1 0.013692 -0.002181 -0.004480 0.000000 0.000000 0.000000
# 2 -0.002181 0.013692 -0.004480 0.000000 0.000000 0.000000
# 3 -0.004480 -0.004480 0.011725 0.000000 0.000000 0.000000
# 4 0.000000 0.000000 0.000000 0.031444 0.000000 0.000000
# 5 0.000000 0.000000 0.000000 0.000000 0.031444 0.000000
# 6 0.000000 0.000000 0.000000 0.000000 0.000000 0.031747
#
#
# Mechanical properties :
#
#
# Convention : Reuss Voigt Hill
#
# Bulk Modulus (GPa) = 59.42840 61.96354 60.69597
# Shear Modulus (GPa) = 30.93373 31.23577 31.08475
#
# Velocity S-wave (km/s) = 3.97290 3.99225 3.98259
# Velocity P-wave (km/s) = 7.16719 7.27102 7.21929
#
# Compressibility (1/GPa) = 0.01682697
#
# Stress axis : x y z
#
# Youngs Moduli (GPa) = 73.03407 73.03407 85.29054
#
# Poissons Ratio (x) = 0.15930 0.38210
# Poissons Ratio (y) = 0.15930 0.38210
# Poissons Ratio (z) = 0.32719 0.32719
#
# Static dielectric constant tensor:
#      x y z
#    x 3.580200 0.000000 0.000000 
#    y 0.000000 3.580200 0.000000 
#    z 0.000000 0.000000 3.680580 
# 
# 
# High freq. dielectric constant tensor:
#      x y z
#    x 1.768530 0.000000 0.000000 
#    y 0.000000 1.768530 0.000000 
#    z 0.000000 0.000000 1.779270 
# 
# From -- ./inp_files/1160.got.cif
#   From: 2010.03.12/outbox.cif.g09.slc.cpg/sg192_1_cif.got.tgz:1160.got - 2010.04.01 12:16:15.
