data_PCOD8329016
_publ_section_title
;
Structure prediction by ZEFSAII (Michael W. Deem and Ramdas Pophale) SiO2 
 PCOD8329016
Probable space group: P 6/M M M
;
_chemical_formula_sum "Si O2"
_cell_formula_units_Z 96
_cell_length_a 21.300688
_cell_length_b 21.300688
_cell_length_c 14.146244
_cell_angle_alpha 90.000000
_cell_angle_beta 90.000000
_cell_angle_gamma 120.000000
_cell_volume 5558.518285
_symmetry_space_group_name_H-M "P 6/M M M"
_symmetry_group_IT_number 191
_symmetry_cell_setting 'hexagonal'
loop_
_space_group_symop_operation_xyz
x,y,z
x-y,x,z
-y,x-y,z
-x,-y,z
-x+y,-x,z
y,-x+y,z
x-y,-y,-z
-x,-x+y,-z
y,x,-z
-y,-x,-z
-x+y,y,-z
x,x-y,-z
-x,-y,-z
-x+y,-x,-z
y,-x+y,-z
x,y,-z
x-y,x,-z
-y,x-y,-z
-x+y,y,z
x,x-y,z
-y,-x,z
y,x,z
x-y,-y,z
-x,-x+y,z
loop_
_atom_site_type_symbol
_atom_site_label
_atom_site_fract_x
_atom_site_fract_y
_atom_site_fract_z
Si Si1 0.301535 0.220974 0.893008
Si Si2 0.084172 0.662036 0.762860
Si Si3 0.805801 0.472413 0.894095
Si Si4 0.187373 0.666744 0.609953
O O1 0.272693 0.136347 0.876358
O O2 0.233508 0.233508 0.880302
O O3 0.360695 0.265491 0.813094
O O4 0.333940 0.244301 0.000000
O O5 0.121404 0.630714 0.832506
O O6 0.126140 0.677483 0.663190
O O7 0.000000 0.603450 0.747807
O O8 0.744754 0.489508 0.853383
O O9 0.772670 0.386335 0.891917
O O10 0.826263 0.502608 0.000000
O O11 0.169609 0.664775 0.500000
O O12 0.184842 0.592421 0.641358
O O13 0.267078 0.732923 0.633850
#
# Coordination Sequence:
#
# PCOD8329016 Si02
#       4
#    24  24  24  24
#     4   9  17  30  49  72  98 128 161 195 230 271
#     4  11  22  33  47  69  96 126 157 187 226 277
#     4  10  20  33  49  68  91 120 155 196 239 279
#     4  10  21  37  56  74  91 115 151 195 239 281
#
# _framework density 17.270789000000001
#
# number of rings (size 3 to 8) (size 9 to 14) (size 15 to 20)
#    0.000    2.000    0.000    4.250    0.000    8.000 
#    0.000    5.000    0.000    0.250    0.000    1.750 
#    0.000    0.000    0.000    0.000    0.000    0.000 
#
# Total GULP energy -1189768.703337 kJ/mol
# GULP energy per Si atom -12393.423993 kJ/mol
# Density = 1.723148 g / cm^3
# Si number density = 17.270789 Si / 1000 Ang^3
#
#
#
# Elastic Constant Matrix: (Units=GPa)
#
#
# Indices 1 2 3 4 5 6 
#
# 1 110.2034 62.2420 50.5500 0.0000 0.0000 0.0000
# 2 62.2420 110.2034 50.5500 0.0000 0.0000 0.0000
# 3 50.5500 50.5500 95.8897 0.0000 0.0000 0.0000
# 4 0.0000 0.0000 0.0000 21.9618 0.0000 0.0000
# 5 0.0000 0.0000 0.0000 0.0000 21.9618 0.0000
# 6 0.0000 0.0000 0.0000 0.0000 0.0000 23.9807
#
#
#
# Elastic Compliance Matrix: (Units=1/GPa)
#
#
# Indices 1 2 3 4 5 6 
#
# 1 0.014621 -0.006229 -0.004424 0.000000 0.000000 0.000000
# 2 -0.006229 0.014621 -0.004424 0.000000 0.000000 0.000000
# 3 -0.004424 -0.004424 0.015094 0.000000 0.000000 0.000000
# 4 0.000000 0.000000 0.000000 0.045534 0.000000 0.000000
# 5 0.000000 0.000000 0.000000 0.000000 0.045534 0.000000
# 6 0.000000 0.000000 0.000000 0.000000 0.000000 0.041700
#
#
# Mechanical properties :
#
#
# Convention : Reuss Voigt Hill
#
# Bulk Modulus (GPa) = 70.51473 71.44229 70.97851
# Shear Modulus (GPa) = 23.58647 23.77784 23.68216
#
# Velocity S-wave (km/s) = 3.69953 3.71451 3.70702
# Velocity P-wave (km/s) = 7.69196 7.73644 7.71423
#
# Compressibility (1/GPa) = 0.01418143
#
# Stress axis : x y z
#
# Youngs Moduli (GPa) = 68.39253 68.39253 66.25361
#
# Poissons Ratio (x) = 0.42599 0.29314
# Poissons Ratio (y) = 0.42599 0.29314
# Poissons Ratio (z) = 0.30260 0.30260
#
# Static dielectric constant tensor:
#      x y z
#    x 3.172010 0.000000 0.000000 
#    y 0.000000 3.172010 0.000000 
#    z 0.000000 0.000000 3.295440 
# 
# 
# High freq. dielectric constant tensor:
#      x y z
#    x 1.654860 0.000000 0.000000 
#    y 0.000000 1.654860 0.000000 
#    z 0.000000 0.000000 1.667880 
# 
# From -- ./inp_files/4174.got.cif
#   From: 2010.03.12/outbox.cif.g09.slc.cpg/sg191_3_cif.got.tgz:4174.got - 2010.04.01 12:09:02.
