data_PCOD8329356
_publ_section_title
;
Structure prediction by ZEFSAII (Michael W. Deem and Ramdas Pophale) SiO2 
 PCOD8329356
Probable space group: P 6/M C C
;
_chemical_formula_sum "Si O2"
_cell_formula_units_Z 90
_cell_length_a 26.114737
_cell_length_b 26.114737
_cell_length_c 9.459213
_cell_angle_alpha 90.000000
_cell_angle_beta 90.000000
_cell_angle_gamma 120.000000
_cell_volume 5586.720565
_symmetry_space_group_name_H-M "P 6/M C C"
_symmetry_group_IT_number 192
_symmetry_cell_setting 'hexagonal'
loop_
_space_group_symop_operation_xyz
x,y,z
x-y,x,z
-y,x-y,z
-x,-y,z
-x+y,-x,z
y,-x+y,z
x-y,-y,1/2-z
-x,-x+y,1/2-z
y,x,1/2-z
-y,-x,1/2-z
-x+y,y,1/2-z
x,x-y,1/2-z
-x,-y,-z
-x+y,-x,-z
y,-x+y,-z
x,y,-z
x-y,x,-z
-y,x-y,-z
-x+y,y,1/2+z
x,x-y,1/2+z
-y,-x,1/2+z
y,x,1/2+z
x-y,-y,1/2+z
-x,-x+y,1/2+z
loop_
_atom_site_type_symbol
_atom_site_label
_atom_site_fract_x
_atom_site_fract_y
_atom_site_fract_z
Si Si1 0.446840 0.418123 0.500000
Si Si2 0.157841 0.217189 0.338426
Si Si3 0.293335 0.351838 0.000000
Si Si4 0.000000 0.500000 0.750000
Si Si5 0.611923 0.679508 0.000000
Si Si6 0.650028 0.880393 0.724787
O O1 0.420441 0.347524 0.500000
O O2 0.484834 0.445320 0.643615
O O3 0.391719 0.432135 0.500000
O O4 0.197012 0.197012 0.250000
O O5 0.097255 0.194510 0.250000
O O6 0.145068 0.191788 0.500000
O O7 0.191589 0.288145 0.354560
O O8 0.251022 0.336250 0.869513
O O9 0.320561 0.308434 0.000000
O O10 0.604147 0.711375 0.137094
O O11 0.619655 0.809828 0.750000
#
# Coordination Sequence:
#
# PCOD8329356 Si02
#       6
#    12  24  12   6  12  24
#     4   9  20  28  52  64  94 120 160 214 237 274
#     4  11  23  36  52  72  94 124 157 206 264 308
#     4  10  20  31  46  65  88 129 163 203 239 291
#     4  10  16  34  44  74  88 114 160 214 244 254
#     4  10  18  33  44  67  86 127 161 203 237 291
#     4  11  21  30  45  65  95 123 167 204 241 292
#
# _framework density 16.109631
#
# number of rings (size 3 to 8) (size 9 to 14) (size 15 to 20)
#    0.800    0.800    1.333    5.600    7.467    0.000 
#    0.000    0.000    0.000    0.267    0.000    1.867 
#    0.000    0.000    0.000    0.000    0.000    0.000 
#
# Total GULP energy -1115176.986051 kJ/mol
# GULP energy per Si atom -12390.855401 kJ/mol
# Density = 1.607296 g / cm^3
# Si number density = 16.109631 Si / 1000 Ang^3
#
#
#
# Elastic Constant Matrix: (Units=GPa)
#
#
# Indices 1 2 3 4 5 6 
#
# 1 47.9855 19.6764 18.8565 0.0000 0.0000 0.0000
# 2 19.6764 47.9855 18.8565 0.0000 0.0000 0.0000
# 3 18.8565 18.8565 129.0222 0.0000 0.0000 0.0000
# 4 0.0000 0.0000 0.0000 22.3543 0.0000 0.0000
# 5 0.0000 0.0000 0.0000 0.0000 22.3543 0.0000
# 6 0.0000 0.0000 0.0000 0.0000 0.0000 14.1545
#
#
#
# Elastic Compliance Matrix: (Units=1/GPa)
#
#
# Indices 1 2 3 4 5 6 
#
# 1 0.025707 -0.009617 -0.002352 0.000000 0.000000 0.000000
# 2 -0.009617 0.025707 -0.002352 0.000000 0.000000 0.000000
# 3 -0.002352 -0.002352 0.008438 0.000000 0.000000 0.000000
# 4 0.000000 0.000000 0.000000 0.044734 0.000000 0.000000
# 5 0.000000 0.000000 0.000000 0.000000 0.044734 0.000000
# 6 0.000000 0.000000 0.000000 0.000000 0.000000 0.070649
#
#
# Mechanical properties :
#
#
# Convention : Reuss Voigt Hill
#
# Bulk Modulus (GPa) = 32.03909 37.75246 34.89577
# Shear Modulus (GPa) = 19.30399 22.94621 21.12510
#
# Velocity S-wave (km/s) = 3.46539 3.77819 3.62516
# Velocity P-wave (km/s) = 5.99527 6.52062 6.26345
#
# Compressibility (1/GPa) = 0.03121188
#
# Stress axis : x y z
#
# Youngs Moduli (GPa) = 38.89957 38.89957 118.51205
#
# Poissons Ratio (x) = 0.37410 0.27869
# Poissons Ratio (y) = 0.37410 0.27869
# Poissons Ratio (z) = 0.09147 0.09147
#
# Static dielectric constant tensor:
#      x y z
#    x 2.850410 0.000000 0.000000 
#    y 0.000000 2.850410 0.000000 
#    z 0.000000 0.000000 3.190850 
# 
# 
# High freq. dielectric constant tensor:
#      x y z
#    x 1.581280 0.000000 0.000000 
#    y 0.000000 1.581280 0.000000 
#    z 0.000000 0.000000 1.648380 
# 
# From -- ./inp_files/853.got.cif
#   From: 2010.03.12/outbox.cif.g09.slc.cpg/sg192_1_cif.got.tgz:853.got - 2010.04.01 12:16:15.
