data_PCOD8329809
_publ_section_title
;
Structure prediction by ZEFSAII (Michael W. Deem and Ramdas Pophale) SiO2 
 PCOD8329809
Probable space group: P 63/M C M
;
_chemical_formula_sum "Si O2"
_cell_formula_units_Z 168
_cell_length_a 20.578851
_cell_length_b 20.578851
_cell_length_c 26.382236
_cell_angle_alpha 90.000000
_cell_angle_beta 90.000000
_cell_angle_gamma 120.000000
_cell_volume 9675.746423
_symmetry_space_group_name_H-M "P 63/M C M"
_symmetry_group_IT_number 193
_symmetry_cell_setting 'hexagonal'
loop_
_space_group_symop_operation_xyz
x,y,z
x-y,x,1/2+z
-y,x-y,z
-x,-y,1/2+z
-x+y,-x,z
y,-x+y,1/2+z
x-y,-y,1/2-z
-x,-x+y,1/2-z
y,x,1/2-z
-y,-x,-z
-x+y,y,-z
x,x-y,-z
-x,-y,-z
-x+y,-x,1/2-z
y,-x+y,-z
x,y,1/2-z
x-y,x,-z
-y,x-y,1/2-z
-x+y,y,1/2+z
x,x-y,1/2+z
-y,-x,1/2+z
y,x,z
x-y,-y,z
-x,-x+y,z
loop_
_atom_site_type_symbol
_atom_site_label
_atom_site_fract_x
_atom_site_fract_y
_atom_site_fract_z
Si Si1 0.200264 0.713878 0.693031
Si Si2 0.476864 0.560716 0.350697
Si Si3 0.169341 0.084161 0.189670
Si Si4 0.716099 0.479690 0.592253
Si Si5 0.083438 0.416320 0.626811
Si Si6 0.559626 0.174069 0.445628
Si Si7 0.664987 0.808831 0.808027
O O1 0.233906 0.724402 0.750000
O O2 0.136650 0.627772 0.686551
O O3 0.264681 0.736920 0.650881
O O4 0.164942 0.768265 0.685189
O O5 0.541917 0.541917 0.339337
O O6 0.394778 0.488367 0.341172
O O7 0.482950 0.584279 0.410055
O O8 0.166542 0.080770 0.250000
O O9 0.127112 0.127112 0.169176
O O10 0.255378 0.126864 0.170049
O O11 0.128046 0.000000 0.167177
O O12 0.703492 0.551864 0.585513
O O13 0.781667 0.487408 0.554009
O O14 0.638894 0.404909 0.579478
O O15 0.090019 0.359135 0.664138
O O16 0.000000 0.373584 0.601275
O O17 0.574539 0.149078 0.500000
O O18 0.675248 0.793902 0.750000
#
# Coordination Sequence:
#
# PCOD8329809 Si02
#       7
#    24  24  24  24  24  24  24
#     4   9  18  32  47  64  92 127 159 196 242 286
#     4   9  19  32  45  66  94 123 158 196 234 286
#     4   9  16  25  37  55  80 109 144 191 244 288
#     4   9  18  31  46  70  94 113 151 196 233 281
#     4   9  17  30  46  62  87 119 146 185 237 282
#     4  10  18  30  50  70  90 117 149 192 245 288
#     4   9  17  28  43  63  84 113 160 205 235 275
#
# _framework density 17.363002000000002
#
# number of rings (size 3 to 8) (size 9 to 14) (size 15 to 20)
#    0.000    2.857    0.000    1.286    0.000    3.143 
#    0.000   10.000    0.000    0.000    0.000    0.000 
#    0.000    0.000    0.000    0.000    0.000    0.000 
#
# Total GULP energy -2081656.509994 kJ/mol
# GULP energy per Si atom -12390.812559 kJ/mol
# Density = 1.732348 g / cm^3
# Si number density = 17.363002 Si / 1000 Ang^3
#
#
#
# Elastic Constant Matrix: (Units=GPa)
#
#
# Indices 1 2 3 4 5 6 
#
# 1 85.5230 32.5071 10.2289 0.0000 0.0000 0.0000
# 2 32.5071 85.5230 10.2289 0.0000 0.0000 0.0000
# 3 10.2289 10.2289 52.6574 0.0000 0.0000 0.0000
# 4 0.0000 0.0000 0.0000 12.4533 0.0000 0.0000
# 5 0.0000 0.0000 0.0000 0.0000 12.4533 0.0000
# 6 0.0000 0.0000 0.0000 0.0000 0.0000 26.5080
#
#
#
# Elastic Compliance Matrix: (Units=1/GPa)
#
#
# Indices 1 2 3 4 5 6 
#
# 1 0.013815 -0.005047 -0.001703 0.000000 0.000000 0.000000
# 2 -0.005047 0.013815 -0.001703 0.000000 0.000000 0.000000
# 3 -0.001703 -0.001703 0.019652 0.000000 0.000000 0.000000
# 4 0.000000 0.000000 0.000000 0.080300 0.000000 0.000000
# 5 0.000000 0.000000 0.000000 0.000000 0.080300 0.000000
# 6 0.000000 0.000000 0.000000 0.000000 0.000000 0.037725
#
#
# Mechanical properties :
#
#
# Convention : Reuss Voigt Hill
#
# Bulk Modulus (GPa) = 32.92176 36.62589 34.77383
# Shear Modulus (GPa) = 18.33930 21.66550 20.00240
#
# Velocity S-wave (km/s) = 3.25349 3.53625 3.39781
# Velocity P-wave (km/s) = 5.75462 6.14926 5.95521
#
# Compressibility (1/GPa) = 0.03037505
#
# Stress axis : x y z
#
# Youngs Moduli (GPa) = 72.38543 72.38543 50.88445
#
# Poissons Ratio (x) = 0.36535 0.08666
# Poissons Ratio (y) = 0.36535 0.08666
# Poissons Ratio (z) = 0.12328 0.12328
#
# Static dielectric constant tensor:
#      x y z
#    x 3.364250 0.000000 0.000000 
#    y 0.000000 3.364250 0.000000 
#    z 0.000000 0.000000 2.879960 
# 
# 
# High freq. dielectric constant tensor:
#      x y z
#    x 1.671300 0.000000 0.000000 
#    y 0.000000 1.671300 0.000000 
#    z 0.000000 0.000000 1.620110 
# 
# From -- ./inp_files/8523.got.cif
#   From: 2010.03.12/outbox.cif.g09.slc.cpg/sg193_5_cif.got.tgz:8523.got - 2010.04.01 12:20:39.
