data_PCOD8329379
_publ_section_title
;
Structure prediction by ZEFSAII (Michael W. Deem and Ramdas Pophale) SiO2 
 PCOD8329379
Probable space group: P 6/M C C
;
_chemical_formula_sum "Si O2"
_cell_formula_units_Z 144
_cell_length_a 19.800876
_cell_length_b 19.800876
_cell_length_c 30.960683
_cell_angle_alpha 90.000000
_cell_angle_beta 90.000000
_cell_angle_gamma 120.000000
_cell_volume 10512.595948
_symmetry_space_group_name_H-M "P 6/M C C"
_symmetry_group_IT_number 192
_symmetry_cell_setting 'hexagonal'
loop_
_space_group_symop_operation_xyz
x,y,z
x-y,x,z
-y,x-y,z
-x,-y,z
-x+y,-x,z
y,-x+y,z
x-y,-y,1/2-z
-x,-x+y,1/2-z
y,x,1/2-z
-y,-x,1/2-z
-x+y,y,1/2-z
x,x-y,1/2-z
-x,-y,-z
-x+y,-x,-z
y,-x+y,-z
x,y,-z
x-y,x,-z
-y,x-y,-z
-x+y,y,1/2+z
x,x-y,1/2+z
-y,-x,1/2+z
y,x,1/2+z
x-y,-y,1/2+z
-x,-x+y,1/2+z
loop_
_atom_site_type_symbol
_atom_site_label
_atom_site_fract_x
_atom_site_fract_y
_atom_site_fract_z
Si Si1 0.292042 0.867199 0.550229
Si Si2 0.840231 0.838555 0.843870
Si Si3 0.000000 0.843949 0.250000
Si Si4 0.087171 0.540123 0.948826
Si Si5 0.001952 0.740041 0.921119
Si Si6 0.419317 0.284521 0.050276
Si Si7 0.844229 0.836566 0.000000
O O1 0.299147 0.891923 0.500000
O O2 0.370039 0.867954 0.566475
O O3 0.278141 0.927732 0.577438
O O4 0.223448 0.780226 0.558231
O O5 0.847791 0.922694 0.851515
O O6 0.804554 0.803622 0.795806
O O7 0.777781 0.774413 0.875542
O O8 0.928755 0.857510 0.250000
O O9 0.126994 0.491550 0.931265
O O10 0.000000 0.500000 0.930346
O O11 0.086638 0.536631 0.000000
O O12 0.011800 0.800269 0.958035
O O13 0.920567 0.659970 0.924620
O O14 0.403566 0.292357 0.000000
O O15 0.849890 0.919494 0.000000
#
# Coordination Sequence:
#
# PCOD8329379 Si02
#       7
#    24  24  12  24  24  24  12
#     4  10  18  29  43  58  80 108 138 174 209 246
#     4  10  19  30  43  59  79 105 139 177 213 246
#     4   8  15  28  44  58  74  99 132 172 216 254
#     4   9  16  28  42  58  74 102 140 176 210 240
#     4  12  20  29  42  60  80 110 145 169 199 240
#     4  10  18  29  43  58  80 108 138 174 209 246
#     4  12  23  32  38  51  78 112 144 174 202 227
#
# _framework density 13.697854
#
# number of rings (size 3 to 8) (size 9 to 14) (size 15 to 20)
#    0.000    1.833    3.333    3.333    0.000    1.333 
#    1.000    1.667    0.000    0.000    0.000    0.000 
#    0.000    2.667    0.000    0.167    0.000    0.000 
#
# Total GULP energy -1784845.944227 kJ/mol
# GULP energy per Si atom -12394.763502 kJ/mol
# Density = 1.366668 g / cm^3
# Si number density = 13.697854 Si / 1000 Ang^3
#
#
#
# Elastic Constant Matrix: (Units=GPa)
#
#
# Indices 1 2 3 4 5 6 
#
# 1 71.3755 25.6053 22.0794 0.0000 0.0000 0.0000
# 2 25.6053 71.3755 22.0794 0.0000 0.0000 0.0000
# 3 22.0794 22.0794 70.4665 0.0000 0.0000 0.0000
# 4 0.0000 0.0000 0.0000 11.3525 0.0000 0.0000
# 5 0.0000 0.0000 0.0000 0.0000 11.3525 0.0000
# 6 0.0000 0.0000 0.0000 0.0000 0.0000 22.8851
#
#
#
# Elastic Compliance Matrix: (Units=1/GPa)
#
#
# Indices 1 2 3 4 5 6 
#
# 1 0.016938 -0.004911 -0.003769 0.000000 0.000000 0.000000
# 2 -0.004911 0.016938 -0.003769 0.000000 0.000000 0.000000
# 3 -0.003769 -0.003769 0.016553 0.000000 0.000000 0.000000
# 4 0.000000 0.000000 0.000000 0.088086 0.000000 0.000000
# 5 0.000000 0.000000 0.000000 0.000000 0.088086 0.000000
# 6 0.000000 0.000000 0.000000 0.000000 0.000000 0.043697
#
#
# Mechanical properties :
#
#
# Convention : Reuss Voigt Hill
#
# Bulk Modulus (GPa) = 39.16473 39.19395 39.17934
# Shear Modulus (GPa) = 16.46341 18.68158 17.57249
#
# Velocity S-wave (km/s) = 3.47060 3.69702 3.58560
# Velocity P-wave (km/s) = 6.68685 6.84830 6.76806
#
# Compressibility (1/GPa) = 0.02553318
#
# Stress axis : x y z
#
# Youngs Moduli (GPa) = 59.03964 59.03964 60.41301
#
# Poissons Ratio (x) = 0.28991 0.22767
# Poissons Ratio (y) = 0.28991 0.22767
# Poissons Ratio (z) = 0.22249 0.22249
#
# Static dielectric constant tensor:
#      x y z
#    x 2.816040 0.000000 0.000000 
#    y 0.000000 2.816040 0.000000 
#    z 0.000000 0.000000 2.666240 
# 
# 
# High freq. dielectric constant tensor:
#      x y z
#    x 1.524620 0.000000 0.000000 
#    y 0.000000 1.524620 0.000000 
#    z 0.000000 0.000000 1.474030 
# 
# From -- ./inp_files/6609.got.cif
#   From: 2010.03.12/outbox.cif.g09.slc.cpg/sg192_4_cif.got.tgz:6609.got - 2010.04.01 12:16:15.
