data_PCOD8329383
_publ_section_title
;
Structure prediction by ZEFSAII (Michael W. Deem and Ramdas Pophale) SiO2 
 PCOD8329383
Probable space group: P 6/M C C
;
_chemical_formula_sum "Si O2"
_cell_formula_units_Z 164
_cell_length_a 21.366521
_cell_length_b 21.366521
_cell_length_c 24.312905
_cell_angle_alpha 90.000000
_cell_angle_beta 90.000000
_cell_angle_gamma 120.000000
_cell_volume 9612.472555
_symmetry_space_group_name_H-M "P 6/M C C"
_symmetry_group_IT_number 192
_symmetry_cell_setting 'hexagonal'
loop_
_space_group_symop_operation_xyz
x,y,z
x-y,x,z
-y,x-y,z
-x,-y,z
-x+y,-x,z
y,-x+y,z
x-y,-y,1/2-z
-x,-x+y,1/2-z
y,x,1/2-z
-y,-x,1/2-z
-x+y,y,1/2-z
x,x-y,1/2-z
-x,-y,-z
-x+y,-x,-z
y,-x+y,-z
x,y,-z
x-y,x,-z
-y,x-y,-z
-x+y,y,1/2+z
x,x-y,1/2+z
-y,-x,1/2+z
y,x,1/2+z
x-y,-y,1/2+z
-x,-x+y,1/2+z
loop_
_atom_site_type_symbol
_atom_site_label
_atom_site_fract_x
_atom_site_fract_y
_atom_site_fract_z
Si Si1 0.436402 0.146389 0.634963
Si Si2 0.186449 0.593224 0.369216
Si Si3 0.666668 0.333334 0.566277
Si Si4 0.670748 0.084904 0.250000
Si Si5 0.080282 0.780186 0.435494
Si Si6 0.146390 0.436402 0.365037
Si Si7 0.080283 0.780186 0.935494
Si Si8 0.419857 0.580144 0.250000
O O1 0.506574 0.138354 0.622089
O O2 0.401456 0.119228 0.695179
O O3 0.375686 0.097839 0.591121
O O4 0.461290 0.230645 0.629188
O O5 0.252156 0.626079 0.411436
O O6 0.138355 0.506574 0.377912
O O7 0.211381 0.605689 0.304460
O O8 0.666667 0.333334 0.500000
O O9 0.717770 0.119229 0.304820
O O10 0.607967 0.104009 0.249998
O O11 0.639780 0.000000 0.250000
O O12 0.085353 0.772010 0.500000
O O13 0.138295 0.861705 0.416017
O O14 1.000000 0.762594 0.418186
O O15 0.097840 0.375686 0.408879
O O16 0.085353 0.772010 0.000000
#
# Coordination Sequence:
#
# PCOD8329383 Si02
#       8
#    24  24   8  24  24  24  24  12
#     4  10  19  32  49  69  98 128 167 205 252 295
#     4  10  20  35  48  71  93 128 172 218 256 299
#     4  12  24  34  47  67  96 129 172 224 271 306
#     4  10  18  29  46  69  94 121 154 201 252 302
#     4   9  18  33  53  74  97 128 163 198 239 294
#     4  10  19  32  49  69  98 128 167 205 252 295
#     4   9  18  33  53  74  97 128 163 198 239 294
#     4   8  19  32  50  64  88 120 160 206 256 312
#
# _framework density 17.061166
#
# number of rings (size 3 to 8) (size 9 to 14) (size 15 to 20)
#    0.000    2.341    1.463    1.537    0.000    1.756 
#    0.000    2.195    0.000    2.049    0.000    2.049 
#    0.000    0.000    0.000    0.000    0.000   30.439 
#
# Total GULP energy -2032645.654344 kJ/mol
# GULP energy per Si atom -12394.180819 kJ/mol
# Density = 1.702233 g / cm^3
# Si number density = 17.061166 Si / 1000 Ang^3
#
#
#
# Elastic Constant Matrix: (Units=GPa)
#
#
# Indices 1 2 3 4 5 6 
#
# 1 88.3860 62.0899 39.7584 0.0000 0.0000 0.0000
# 2 62.0899 88.3859 39.7584 0.0000 0.0000 0.0000
# 3 39.7584 39.7584 55.9870 0.0000 0.0000 0.0000
# 4 0.0000 0.0000 0.0000 23.1868 0.0000 0.0000
# 5 0.0000 0.0000 0.0000 0.0000 23.1869 0.0000
# 6 0.0000 0.0000 0.0000 0.0000 0.0000 13.1480
#
#
#
# Elastic Compliance Matrix: (Units=1/GPa)
#
#
# Indices 1 2 3 4 5 6 
#
# 1 0.024333 -0.013696 -0.007554 0.000000 0.000000 0.000000
# 2 -0.013696 0.024333 -0.007554 0.000000 0.000000 0.000000
# 3 -0.007554 -0.007554 0.028590 0.000000 0.000000 0.000000
# 4 0.000000 0.000000 0.000000 0.043128 0.000000 0.000000
# 5 0.000000 0.000000 0.000000 0.000000 0.043128 0.000000
# 6 0.000000 0.000000 0.000000 0.000000 0.000000 0.076057
#
#
# Mechanical properties :
#
#
# Convention : Reuss Voigt Hill
#
# Bulk Modulus (GPa) = 50.89364 57.33025 54.11195
# Shear Modulus (GPa) = 16.46222 17.98115 17.22169
#
# Velocity S-wave (km/s) = 3.10964 3.24994 3.18057
# Velocity P-wave (km/s) = 6.54126 6.91075 6.72854
#
# Compressibility (1/GPa) = 0.01964882
#
# Stress axis : x y z
#
# Youngs Moduli (GPa) = 41.09649 41.09646 34.97727
#
# Poissons Ratio (x) = 0.56284 0.26422
# Poissons Ratio (y) = 0.56284 0.26422
# Poissons Ratio (z) = 0.31044 0.31044
#
# Static dielectric constant tensor:
#      x y z
#    x 3.169000 0.000000 0.000000 
#    y 0.000000 3.169000 0.000000 
#    z 0.000000 0.000000 3.341720 
# 
# 
# High freq. dielectric constant tensor:
#      x y z
#    x 1.643140 0.000000 0.000000 
#    y 0.000000 1.643140 0.000000 
#    z 0.000000 0.000000 1.661540 
# 
# From -- ./inp_files/6667.got.cif
#   From: 2010.03.12/outbox.cif.g09.slc.cpg/sg192_4_cif.got.tgz:6667.got - 2010.04.01 12:16:15.
