data_PCOD8329577
_publ_section_title
;
Structure prediction by ZEFSAII (Michael W. Deem and Ramdas Pophale) SiO2 
 PCOD8329577
Probable space group: P 6/M C C
;
_chemical_formula_sum "Si O2"
_cell_formula_units_Z 144
_cell_length_a 19.079467
_cell_length_b 19.079467
_cell_length_c 24.391946
_cell_angle_alpha 90.000000
_cell_angle_beta 90.000000
_cell_angle_gamma 120.000000
_cell_volume 7689.702852
_symmetry_space_group_name_H-M "P 6/M C C"
_symmetry_group_IT_number 192
_symmetry_cell_setting 'hexagonal'
loop_
_space_group_symop_operation_xyz
x,y,z
x-y,x,z
-y,x-y,z
-x,-y,z
-x+y,-x,z
y,-x+y,z
x-y,-y,1/2-z
-x,-x+y,1/2-z
y,x,1/2-z
-y,-x,1/2-z
-x+y,y,1/2-z
x,x-y,1/2-z
-x,-y,-z
-x+y,-x,-z
y,-x+y,-z
x,y,-z
x-y,x,-z
-y,x-y,-z
-x+y,y,1/2+z
x,x-y,1/2+z
-y,-x,1/2+z
y,x,1/2+z
x-y,-y,1/2+z
-x,-x+y,1/2+z
loop_
_atom_site_type_symbol
_atom_site_label
_atom_site_fract_x
_atom_site_fract_y
_atom_site_fract_z
Si Si1 0.794003 0.276584 0.500000
Si Si2 0.992700 0.703090 0.565031
Si Si3 0.244179 0.766686 0.813037
Si Si4 0.150614 0.580667 0.187486
Si Si5 0.467868 0.053394 0.091674
Si Si6 0.186306 0.353100 0.593178
Si Si7 0.829976 0.451138 0.500000
O O1 0.815686 0.241677 0.552552
O O2 0.841128 0.373466 0.500000
O O3 0.700971 0.257893 0.500000
O O4 0.005391 0.700422 0.500000
O O5 0.993338 0.628525 0.595592
O O6 0.908114 0.700019 0.576705
O O7 0.070078 0.781453 0.591738
O O8 0.224665 0.775336 0.750000
O O9 0.337909 0.816902 0.830657
O O10 0.219020 0.673518 0.822414
O O11 0.193504 0.798183 0.848109
O O12 0.121898 0.560949 0.250000
O O13 0.074062 0.565284 0.151545
O O14 0.500000 0.000000 0.061397
O O15 0.495116 0.131650 0.054295
#
# Coordination Sequence:
#
# PCOD8329577 Si02
#       7
#    12  24  24  24  24  24  12
#     4  12  21  36  54  82 119 150 204 241 295 348
#     4  12  22  41  62  88 119 155 202 256 320 391
#     4  10  20  37  57  85 120 163 210 254 294 346
#     4  10  20  35  55  78 115 157 206 248 289 337
#     4  12  22  34  52  81 114 153 198 240 293 351
#     4  12  23  40  62  87 117 157 200 258 317 387
#     4  12  22  34  52  78 115 152 191 242 287 340
#
# _framework density 18.726341000000001
#
# number of rings (size 3 to 8) (size 9 to 14) (size 15 to 20)
#    0.000    0.667    5.833    3.750    0.000    1.667 
#    0.000    4.167    0.000    0.333    0.000    1.167 
#    0.000    0.000    0.000    1.500    0.000    0.167 
#
# Total GULP energy -1785096.332892 kJ/mol
# GULP energy per Si atom -12396.502312 kJ/mol
# Density = 1.868372 g / cm^3
# Si number density = 18.726341 Si / 1000 Ang^3
#
#
#
# Elastic Constant Matrix: (Units=GPa)
#
#
# Indices 1 2 3 4 5 6 
#
# 1 96.9503 32.5235 26.3127 0.0000 0.0000 0.0000
# 2 32.5235 96.9503 26.3127 0.0000 0.0000 0.0000
# 3 26.3127 26.3127 92.4217 0.0000 0.0000 0.0000
# 4 0.0000 0.0000 0.0000 14.8419 0.0000 0.0000
# 5 0.0000 0.0000 0.0000 0.0000 14.8419 0.0000
# 6 0.0000 0.0000 0.0000 0.0000 0.0000 32.2134
#
#
#
# Elastic Compliance Matrix: (Units=1/GPa)
#
#
# Indices 1 2 3 4 5 6 
#
# 1 0.012128 -0.003394 -0.002487 0.000000 0.000000 0.000000
# 2 -0.003394 0.012128 -0.002487 0.000000 0.000000 0.000000
# 3 -0.002487 -0.002487 0.012236 0.000000 0.000000 0.000000
# 4 0.000000 0.000000 0.000000 0.067377 0.000000 0.000000
# 5 0.000000 0.000000 0.000000 0.000000 0.067377 0.000000
# 6 0.000000 0.000000 0.000000 0.000000 0.000000 0.031043
#
#
# Mechanical properties :
#
#
# Convention : Reuss Voigt Hill
#
# Bulk Modulus (GPa) = 50.61297 50.73556 50.67427
# Shear Modulus (GPa) = 22.16237 25.79103 23.97670
#
# Velocity S-wave (km/s) = 3.44392 3.71517 3.58211
# Velocity P-wave (km/s) = 6.54984 6.74947 6.65040
#
# Compressibility (1/GPa) = 0.01975778
#
# Stress axis : x y z
#
# Youngs Moduli (GPa) = 82.45460 82.45460 81.72679
#
# Poissons Ratio (x) = 0.27982 0.20323
# Poissons Ratio (y) = 0.27982 0.20323
# Poissons Ratio (z) = 0.20504 0.20504
#
# Static dielectric constant tensor:
#      x y z
#    x 3.407530 0.000000 0.000000 
#    y 0.000000 3.407530 0.000000 
#    z 0.000000 0.000000 3.517600 
# 
# 
# High freq. dielectric constant tensor:
#      x y z
#    x 1.713460 0.000000 0.000000 
#    y 0.000000 1.713460 0.000000 
#    z 0.000000 0.000000 1.728390 
# 
# From -- ./inp_files/5985.got.cif
#   From: 2010.03.12/outbox.cif.g09.slc.cpg/sg192_3_cif.got.tgz:5985.got - 2010.04.01 12:16:15.
