data_PCOD8329396
_publ_section_title
;
Structure prediction by ZEFSAII (Michael W. Deem and Ramdas Pophale) SiO2 
 PCOD8329396
Probable space group: P 6/M C C
;
_chemical_formula_sum "Si O2"
_cell_formula_units_Z 152
_cell_length_a 19.326678
_cell_length_b 19.326678
_cell_length_c 25.716280
_cell_angle_alpha 90.000000
_cell_angle_beta 90.000000
_cell_angle_gamma 120.000000
_cell_volume 8318.656652
_symmetry_space_group_name_H-M "P 6/M C C"
_symmetry_group_IT_number 192
_symmetry_cell_setting 'hexagonal'
loop_
_space_group_symop_operation_xyz
x,y,z
x-y,x,z
-y,x-y,z
-x,-y,z
-x+y,-x,z
y,-x+y,z
x-y,-y,1/2-z
-x,-x+y,1/2-z
y,x,1/2-z
-y,-x,1/2-z
-x+y,y,1/2-z
x,x-y,1/2-z
-x,-y,-z
-x+y,-x,-z
y,-x+y,-z
x,y,-z
x-y,x,-z
-y,x-y,-z
-x+y,y,1/2+z
x,x-y,1/2+z
-y,-x,1/2+z
y,x,1/2+z
x-y,-y,1/2+z
-x,-x+y,1/2+z
loop_
_atom_site_type_symbol
_atom_site_label
_atom_site_fract_x
_atom_site_fract_y
_atom_site_fract_z
Si Si1 0.316330 0.504908 0.061342
Si Si2 0.082278 0.896934 0.939174
Si Si3 0.815351 0.167656 0.619136
Si Si4 0.666668 0.333334 0.938640
Si Si5 0.681046 0.589497 0.318170
Si Si6 0.095189 0.686502 0.202485
Si Si7 0.905719 0.443577 0.859685
O O1 0.241937 0.421432 0.079436
O O2 0.302088 0.576510 0.080730
O O3 0.402467 0.524830 0.083901
O O4 0.323447 0.501501 0.000000
O O5 0.117076 0.849691 0.908019
O O6 0.989977 0.860914 0.923779
O O7 0.091811 0.885922 0.000000
O O8 0.889068 0.250792 0.639257
O O9 0.766788 0.123307 0.670397
O O10 0.666667 0.333334 0.000000
O O11 0.712833 0.584619 0.260940
O O12 0.632029 0.633368 0.306407
O O13 0.629045 0.500436 0.341922
O O14 0.128321 0.630032 0.181158
O O15 0.000000 0.500000 0.861479
#
# Coordination Sequence:
#
# PCOD8329396 Si02
#       7
#    24  24  24   8  24  24  24
#     4  10  20  33  49  71 102 139 178 223 269 316
#     4  10  21  38  59  81 106 138 176 219 271 337
#     4  11  20  32  51  78 106 131 167 215 269 323
#     4   9  18  33  48  63  91 137 184 210 240 300
#     4  10  18  32  51  71  98 134 171 208 256 311
#     4   9  19  32  49  73 101 131 166 212 260 308
#     4   9  18  32  50  72  98 132 175 219 265 317
#
# _framework density 18.272181
#
# number of rings (size 3 to 8) (size 9 to 14) (size 15 to 20)
#    0.000    2.211    0.000    3.474    0.000    2.842 
#    0.000    0.789    0.000    0.947    0.000    8.842 
#    0.000    7.579    0.000    0.000    0.000    0.000 
#
# Total GULP energy -1883845.646373 kJ/mol
# GULP energy per Si atom -12393.721358 kJ/mol
# Density = 1.823059 g / cm^3
# Si number density = 18.272181 Si / 1000 Ang^3
#
#
#
# Elastic Constant Matrix: (Units=GPa)
#
#
# Indices 1 2 3 4 5 6 
#
# 1 99.4980 48.2103 42.3244 0.0000 0.0000 -0.0001
# 2 48.2103 99.4976 42.3242 0.0000 0.0000 -0.0001
# 3 42.3244 42.3242 99.1768 0.0000 0.0000 0.0000
# 4 0.0000 0.0000 0.0000 24.6463 0.0000 0.0000
# 5 0.0000 0.0000 0.0000 0.0000 24.6463 0.0000
# 6 -0.0001 -0.0001 0.0000 0.0000 0.0000 25.6436
#
#
#
# Elastic Compliance Matrix: (Units=1/GPa)
#
#
# Indices 1 2 3 4 5 6 
#
# 1 0.014230 -0.005268 -0.003825 0.000000 0.000000 0.000000
# 2 -0.005268 0.014230 -0.003825 0.000000 0.000000 0.000000
# 3 -0.003825 -0.003825 0.013347 0.000000 0.000000 0.000000
# 4 0.000000 0.000000 0.000000 0.040574 0.000000 0.000000
# 5 0.000000 0.000000 0.000000 0.000000 0.040574 0.000000
# 6 0.000000 0.000000 0.000000 0.000000 0.000000 0.038996
#
#
# Mechanical properties :
#
#
# Convention : Reuss Voigt Hill
#
# Bulk Modulus (GPa) = 62.60603 62.65446 62.63025
# Shear Modulus (GPa) = 25.89202 26.00815 25.95008
#
# Velocity S-wave (km/s) = 3.76841 3.77686 3.77264
# Velocity P-wave (km/s) = 7.29877 7.30640 7.30259
#
# Compressibility (1/GPa) = 0.01597290
#
# Stress axis : x y z
#
# Youngs Moduli (GPa) = 70.27464 70.27444 74.92157
#
# Poissons Ratio (x) = 0.37021 0.28654
# Poissons Ratio (y) = 0.37021 0.28654
# Poissons Ratio (z) = 0.26877 0.26877
#
# Static dielectric constant tensor:
#      x y z
#    x 3.412700 0.000000 0.000000 
#    y 0.000000 3.412700 0.000000 
#    z 0.000000 0.000000 3.441920 
# 
# 
# High freq. dielectric constant tensor:
#      x y z
#    x 1.708660 0.000000 0.000000 
#    y 0.000000 1.708660 0.000000 
#    z 0.000000 0.000000 1.707710 
# 
# From -- ./inp_files/7145.got.cif
#   From: 2010.03.12/outbox.cif.g09.slc.cpg/sg192_4_cif.got.tgz:7145.got - 2010.04.01 12:16:15.
