data_PCOD8329978
_publ_section_title
;
Structure prediction by ZEFSAII (Michael W. Deem and Ramdas Pophale) SiO2 
 PCOD8329978
Probable space group: P 63/M C M
;
_chemical_formula_sum "Si O2"
_cell_formula_units_Z 104
_cell_length_a 18.324231
_cell_length_b 18.324231
_cell_length_c 18.270628
_cell_angle_alpha 90.000000
_cell_angle_beta 90.000000
_cell_angle_gamma 120.000000
_cell_volume 5312.948704
_symmetry_space_group_name_H-M "P 63/M C M"
_symmetry_group_IT_number 193
_symmetry_cell_setting 'hexagonal'
loop_
_space_group_symop_operation_xyz
x,y,z
x-y,x,1/2+z
-y,x-y,z
-x,-y,1/2+z
-x+y,-x,z
y,-x+y,1/2+z
x-y,-y,1/2-z
-x,-x+y,1/2-z
y,x,1/2-z
-y,-x,-z
-x+y,y,-z
x,x-y,-z
-x,-y,-z
-x+y,-x,1/2-z
y,-x+y,-z
x,y,1/2-z
x-y,x,-z
-y,x-y,1/2-z
-x+y,y,1/2+z
x,x-y,1/2+z
-y,-x,1/2+z
y,x,z
x-y,-y,z
-x,-x+y,z
loop_
_atom_site_type_symbol
_atom_site_label
_atom_site_fract_x
_atom_site_fract_y
_atom_site_fract_z
Si Si1 0.096281 0.192276 0.413546
Si Si2 0.631931 0.820266 0.165428
Si Si3 0.333334 0.666668 0.586588
Si Si4 0.185596 0.531416 0.835030
Si Si5 0.093273 0.464454 0.163107
O O1 0.101489 0.202977 0.500000
O O2 0.129528 0.129528 0.388920
O O3 0.156388 0.283313 0.379479
O O4 0.000000 0.153184 0.385924
O O5 0.657074 0.822500 0.250000
O O6 0.570115 0.859479 0.154633
O O7 0.579206 0.724632 0.135632
O O8 0.333334 0.666667 0.500000
O O9 0.301886 0.728410 0.618164
O O10 0.209856 0.554067 0.750000
O O11 0.128028 0.568333 0.865369
O O12 0.093086 0.466544 0.250000
O O13 0.000000 0.409095 0.130845
#
# Coordination Sequence:
#
# PCOD8329978 Si02
#       5
#    24  24   8  24  24
#     4  10  22  41  63  84 111 151 195 237 288 354
#     4  10  20  34  58  86 113 146 187 237 288 336
#     4  12  22  32  52  81 112 146 190 237 274 314
#     4  10  19  35  57  78 107 150 191 226 273 334
#     4   9  17  30  51  78 106 139 180 223 268 326
#
# _framework density 19.574818
#
# number of rings (size 3 to 8) (size 9 to 14) (size 15 to 20)
#    0.000    2.077    2.308    1.615    0.000    4.615 
#    0.000    2.308    0.000    2.077    0.000    0.000 
#    0.000    0.000    0.000    0.000    0.000    0.000 
#
# Total GULP energy -1289288.504823 kJ/mol
# GULP energy per Si atom -12397.004854 kJ/mol
# Density = 1.953026 g / cm^3
# Si number density = 19.574818 Si / 1000 Ang^3
#
#
#
# Elastic Constant Matrix: (Units=GPa)
#
#
# Indices 1 2 3 4 5 6 
#
# 1 103.8465 36.5487 26.9068 0.0000 -0.0001 0.0000
# 2 36.5487 103.8464 26.9068 0.0001 -0.0001 -0.0002
# 3 26.9068 26.9068 43.9150 0.0001 -0.0002 0.0000
# 4 0.0000 0.0001 0.0001 21.8861 0.0000 0.0000
# 5 -0.0001 -0.0001 -0.0002 0.0000 21.8865 0.0000
# 6 0.0000 -0.0002 0.0000 0.0000 0.0000 33.6488
#
#
#
# Elastic Compliance Matrix: (Units=1/GPa)
#
#
# Indices 1 2 3 4 5 6 
#
# 1 0.012084 -0.002775 -0.005704 0.000000 0.000000 0.000000
# 2 -0.002775 0.012084 -0.005704 0.000000 0.000000 0.000000
# 3 -0.005704 -0.005704 0.029761 0.000000 0.000000 0.000000
# 4 0.000000 0.000000 0.000000 0.045691 0.000000 0.000000
# 5 0.000000 0.000000 0.000000 0.000000 0.045690 0.000000
# 6 0.000000 0.000000 0.000000 0.000000 0.000000 0.029719
#
#
# Mechanical properties :
#
#
# Convention : Reuss Voigt Hill
#
# Bulk Modulus (GPa) = 39.11757 48.03695 43.57726
# Shear Modulus (GPa) = 23.59434 26.23397 24.91416
#
# Velocity S-wave (km/s) = 3.47557 3.66483 3.57145
# Velocity P-wave (km/s) = 6.01108 6.51931 6.27035
#
# Compressibility (1/GPa) = 0.02556396
#
# Stress axis : x y z
#
# Youngs Moduli (GPa) = 82.75310 82.75300 33.60157
#
# Poissons Ratio (x) = 0.22966 0.19165
# Poissons Ratio (y) = 0.22966 0.19165
# Poissons Ratio (z) = 0.47199 0.47199
#
# Static dielectric constant tensor:
#      x y z
#    x 3.713050 0.000000 0.000000 
#    y 0.000000 3.713060 0.000000 
#    z 0.000000 0.000000 3.101340 
# 
# 
# High freq. dielectric constant tensor:
#      x y z
#    x 1.769180 0.000000 0.000000 
#    y 0.000000 1.769180 0.000000 
#    z 0.000000 0.000000 1.714730 
# 
# From -- ./inp_files/6325.got.cif
#   From: 2010.03.12/outbox.cif.g09.slc.cpg/sg193_4_cif.got.tgz:6325.got - 2010.04.01 12:20:39.
