data_PCOD8329189
_publ_section_title
;
Structure prediction by ZEFSAII (Michael W. Deem and Ramdas Pophale) SiO2 
 PCOD8329189
Probable space group: P 6/M M M
;
_chemical_formula_sum "Si O2"
_cell_formula_units_Z 168
_cell_length_a 18.065293
_cell_length_b 18.065293
_cell_length_c 33.980100
_cell_angle_alpha 90.000000
_cell_angle_beta 90.000000
_cell_angle_gamma 120.000000
_cell_volume 9603.848574
_symmetry_space_group_name_H-M "P 6/M M M"
_symmetry_group_IT_number 191
_symmetry_cell_setting 'hexagonal'
loop_
_space_group_symop_operation_xyz
x,y,z
x-y,x,z
-y,x-y,z
-x,-y,z
-x+y,-x,z
y,-x+y,z
x-y,-y,-z
-x,-x+y,-z
y,x,-z
-y,-x,-z
-x+y,y,-z
x,x-y,-z
-x,-y,-z
-x+y,-x,-z
y,-x+y,-z
x,y,-z
x-y,x,-z
-y,x-y,-z
-x+y,y,z
x,x-y,z
-y,-x,z
y,x,z
x-y,-y,z
-x,-x+y,z
loop_
_atom_site_type_symbol
_atom_site_label
_atom_site_fract_x
_atom_site_fract_y
_atom_site_fract_z
Si Si1 0.000000 0.168336 0.953154
Si Si2 0.333325 0.835099 0.823925
Si Si3 0.000000 0.336994 0.046606
Si Si4 0.906433 0.258176 0.544396
Si Si5 0.839215 0.505772 0.914784
Si Si6 0.503534 0.837087 0.396380
Si Si7 0.333033 0.496642 0.693240
Si Si8 0.904434 0.264987 0.240978
O O1 0.084282 0.168564 0.936986
O O2 0.000000 0.252605 0.937381
O O3 0.000000 0.167231 0.000000
O O4 0.424870 0.849740 0.810512
O O5 0.264583 0.735418 0.817718
O O6 0.334944 0.861801 0.868987
O O7 0.309216 0.893432 0.797825
O O8 0.915725 0.336676 0.060713
O O9 0.000000 0.337154 0.000000
O O10 0.890563 0.279630 0.500000
O O11 0.839252 0.160749 0.555709
O O12 0.900263 0.323086 0.574339
O O13 0.000000 0.269125 0.548365
O O14 0.751473 0.502945 0.926050
O O15 0.829007 0.414504 0.925674
O O16 0.421445 0.842889 0.407523
O O17 0.480815 0.740408 0.403299
O O18 0.532395 0.865991 0.351507
O O19 0.263139 0.526278 0.698839
O O20 0.424269 0.575732 0.705272
O O21 0.311388 0.416898 0.720795
O O22 0.836323 0.163678 0.241538
O O23 0.000000 0.279058 0.240873
#
# Coordination Sequence:
#
# PCOD8329189 Si02
#       8
#    12  24  12  24  24  24  24  24
#     4   9  17  31  53  79 105 133 165 203 249 303
#     4   9  18  32  52  77 105 135 166 198 234 278
#     4  11  23  37  53  77 107 137 169 211 261 305
#     4   9  18  32  48  65  86 115 153 198 248 299
#     4  10  21  37  56  77 103 137 176 214 252 297
#     4   9  17  29  45  66  95 131 168 201 233 273
#     4   9  17  29  46  70 101 136 168 197 232 279
#     4  10  21  35  51  73 100 130 163 201 246 293
#
# _framework density 17.492986999999999
#
# number of rings (size 3 to 8) (size 9 to 14) (size 15 to 20)
#    0.000    2.571    0.000    1.714    1.000    6.286 
#    0.000    3.571    0.000    2.000    0.000    1.000 
#    0.000    0.000    0.000    7.143    0.000    3.714 
#
# Total GULP energy -2083133.363278 kJ/mol
# GULP energy per Si atom -12399.603353 kJ/mol
# Density = 1.745317 g / cm^3
# Si number density = 17.492987 Si / 1000 Ang^3
#
#
#
# Elastic Constant Matrix: (Units=GPa)
#
#
# Indices 1 2 3 4 5 6 
#
# 1 114.9254 73.8242 45.2473 0.0000 0.0000 0.0000
# 2 73.8242 114.9254 45.2473 0.0000 0.0000 0.0000
# 3 45.2473 45.2473 67.9499 0.0000 0.0000 0.0000
# 4 0.0000 0.0000 0.0000 21.2148 0.0000 0.0000
# 5 0.0000 0.0000 0.0000 0.0000 21.2148 0.0000
# 6 0.0000 0.0000 0.0000 0.0000 0.0000 20.5506
#
#
#
# Elastic Compliance Matrix: (Units=1/GPa)
#
#
# Indices 1 2 3 4 5 6 
#
# 1 0.016056 -0.008274 -0.005182 0.000000 0.000000 0.000000
# 2 -0.008274 0.016056 -0.005182 0.000000 0.000000 0.000000
# 3 -0.005182 -0.005182 0.021619 0.000000 0.000000 0.000000
# 4 0.000000 0.000000 0.000000 0.047137 0.000000 0.000000
# 5 0.000000 0.000000 0.000000 0.000000 0.047137 0.000000
# 6 0.000000 0.000000 0.000000 0.000000 0.000000 0.048660
#
#
# Mechanical properties :
#
#
# Convention : Reuss Voigt Hill
#
# Bulk Modulus (GPa) = 60.77454 69.60426 65.18940
# Shear Modulus (GPa) = 20.88314 21.49484 21.18899
#
# Velocity S-wave (km/s) = 3.45889 3.50918 3.48413
# Velocity P-wave (km/s) = 7.12528 7.50302 7.31659
#
# Compressibility (1/GPa) = 0.01645426
#
# Stress axis : x y z
#
# Youngs Moduli (GPa) = 62.28027 62.28027 46.25636
#
# Poissons Ratio (x) = 0.51529 0.23972
# Poissons Ratio (y) = 0.51529 0.23972
# Poissons Ratio (z) = 0.32276 0.32276
#
# Static dielectric constant tensor:
#      x y z
#    x 3.195280 0.000000 0.000000 
#    y 0.000000 3.195280 0.000000 
#    z 0.000000 0.000000 3.356640 
# 
# 
# High freq. dielectric constant tensor:
#      x y z
#    x 1.666020 0.000000 0.000000 
#    y 0.000000 1.666020 0.000000 
#    z 0.000000 0.000000 1.676190 
# 
# From -- ./inp_files/10784.got.cif
#   From: 2010.03.12/outbox.cif.g09.slc.cpg/sg191_6_cif.got.tgz:10784.got - 2010.04.01 12:09:02.
