data_PCOD8329327
_publ_section_title
;
Structure prediction by ZEFSAII (Michael W. Deem and Ramdas Pophale) SiO2 
 PCOD8329327
Probable space group: P 6/M M M
;
_chemical_formula_sum "Si O2"
_cell_formula_units_Z 144
_cell_length_a 21.505513
_cell_length_b 21.505513
_cell_length_c 26.930855
_cell_angle_alpha 90.000000
_cell_angle_beta 90.000000
_cell_angle_gamma 120.000000
_cell_volume 10786.496005
_symmetry_space_group_name_H-M "P 6/M M M"
_symmetry_group_IT_number 191
_symmetry_cell_setting 'hexagonal'
loop_
_space_group_symop_operation_xyz
x,y,z
x-y,x,z
-y,x-y,z
-x,-y,z
-x+y,-x,z
y,-x+y,z
x-y,-y,-z
-x,-x+y,-z
y,x,-z
-y,-x,-z
-x+y,y,-z
x,x-y,-z
-x,-y,-z
-x+y,-x,-z
y,-x+y,-z
x,y,-z
x-y,x,-z
-y,x-y,-z
-x+y,y,z
x,x-y,z
-y,-x,z
y,x,z
x-y,-y,z
-x,-x+y,z
loop_
_atom_site_type_symbol
_atom_site_label
_atom_site_fract_x
_atom_site_fract_y
_atom_site_fract_z
Si Si1 0.386300 0.919781 0.500000
Si Si2 0.666729 0.188702 0.416708
Si Si3 0.476699 0.809849 0.303601
Si Si4 0.457078 0.542923 0.055861
Si Si5 0.082044 0.613626 0.219053
Si Si6 0.081161 0.300980 0.942879
Si Si7 0.424625 0.339595 0.885458
O O1 0.463386 0.926772 0.500000
O O2 0.342663 0.876746 0.451065
O O3 0.396851 0.000000 0.500000
O O4 0.602850 0.205699 0.426154
O O5 0.740185 0.259816 0.430861
O O6 0.667314 0.165486 0.359971
O O7 0.394835 0.789669 0.296339
O O8 0.481696 0.740848 0.289021
O O9 0.529287 0.873777 0.267501
O O10 0.500000 0.500000 0.057208
O O11 0.380126 0.497642 0.082752
O O12 0.442529 0.557472 0.000000
O O13 0.090670 0.545335 0.206132
O O14 0.110512 0.667085 0.171719
O O15 0.000000 0.588944 0.231159
O O16 0.134701 0.269402 0.934406
O O17 0.109438 0.371475 0.908733
O O18 0.000000 0.239772 0.928547
O O19 0.083406 0.324618 0.000000
O O20 0.387510 0.387510 0.887635
#
# Coordination Sequence:
#
# PCOD8329327 Si02
#       7
#    12  24  24  12  24  24  24
#     4   9  17  26  36  52  74  93 110 138 176 220
#     4   9  16  26  39  54  70  91 120 152 186 217
#     4   9  17  27  39  53  70  93 121 154 186 216
#     4   9  14  20  34  54  74  94 114 141 179 217
#     4   9  16  26  38  53  74  99 123 150 183 218
#     4   9  17  28  41  57  77  99 122 151 189 231
#     4   9  15  24  37  54  75  96 119 148 181 217
#
# _framework density 13.350026
#
# number of rings (size 3 to 8) (size 9 to 14) (size 15 to 20)
#    0.000    3.000    0.833    1.083    0.000    4.667 
#    0.000    4.167    0.000    0.167    0.000    1.167 
#    0.833    0.000    1.000    0.000    0.000    0.000 
#
# Total GULP energy -1785038.569115 kJ/mol
# GULP energy per Si atom -12396.101174 kJ/mol
# Density = 1.331964 g / cm^3
# Si number density = 13.350026 Si / 1000 Ang^3
#
#
#
# Elastic Constant Matrix: (Units=GPa)
#
#
# Indices 1 2 3 4 5 6 
#
# 1 64.3480 35.8065 45.5400 0.0000 0.0000 0.0000
# 2 35.8065 64.3480 45.5400 0.0000 0.0000 0.0000
# 3 45.5400 45.5400 97.7607 0.0000 0.0000 0.0000
# 4 0.0000 0.0000 0.0000 17.2946 0.0000 0.0000
# 5 0.0000 0.0000 0.0000 0.0000 17.2946 0.0000
# 6 0.0000 0.0000 0.0000 0.0000 0.0000 14.2707
#
#
#
# Elastic Compliance Matrix: (Units=1/GPa)
#
#
# Indices 1 2 3 4 5 6 
#
# 1 0.026180 -0.008857 -0.008070 0.000000 0.000000 0.000000
# 2 -0.008857 0.026180 -0.008070 0.000000 0.000000 0.000000
# 3 -0.008070 -0.008070 0.017747 0.000000 0.000000 0.000000
# 4 0.000000 0.000000 0.000000 0.057822 0.000000 0.000000
# 5 0.000000 0.000000 0.000000 0.000000 0.057822 0.000000
# 6 0.000000 0.000000 0.000000 0.000000 0.000000 0.070073
#
#
# Mechanical properties :
#
#
# Convention : Reuss Voigt Hill
#
# Bulk Modulus (GPa) = 49.71458 53.35889 51.53673
# Shear Modulus (GPa) = 15.99894 16.40999 16.20447
#
# Velocity S-wave (km/s) = 3.46558 3.50981 3.48777
# Velocity P-wave (km/s) = 7.30300 7.51538 7.40995
#
# Compressibility (1/GPa) = 0.02011482
#
# Stress axis : x y z
#
# Youngs Moduli (GPa) = 38.19726 38.19726 56.34677
#
# Poissons Ratio (x) = 0.33831 0.45470
# Poissons Ratio (y) = 0.33831 0.45470
# Poissons Ratio (z) = 0.30824 0.30824
#
# Static dielectric constant tensor:
#      x y z
#    x 2.506820 0.000000 0.000000 
#    y 0.000000 2.506820 0.000000 
#    z 0.000000 0.000000 2.828490 
# 
# 
# High freq. dielectric constant tensor:
#      x y z
#    x 1.478100 0.000000 0.000000 
#    y 0.000000 1.478100 0.000000 
#    z 0.000000 0.000000 1.518360 
# 
# From -- ./inp_files/9140.got.cif
#   From: 2010.03.12/outbox.cif.g09.slc.cpg/sg191_5_cif.got.tgz:9140.got - 2010.04.01 12:09:02.
