data_PCOD8329019
_publ_section_title
;
Structure prediction by ZEFSAII (Michael W. Deem and Ramdas Pophale) SiO2 
 PCOD8329019
Probable space group: P 6/M M M
;
_chemical_formula_sum "Si O2"
_cell_formula_units_Z 108
_cell_length_a 17.923826
_cell_length_b 17.923826
_cell_length_c 23.046572
_cell_angle_alpha 90.000000
_cell_angle_beta 90.000000
_cell_angle_gamma 120.000000
_cell_volume 6412.072242
_symmetry_space_group_name_H-M "P 6/M M M"
_symmetry_group_IT_number 191
_symmetry_cell_setting 'hexagonal'
loop_
_space_group_symop_operation_xyz
x,y,z
x-y,x,z
-y,x-y,z
-x,-y,z
-x+y,-x,z
y,-x+y,z
x-y,-y,-z
-x,-x+y,-z
y,x,-z
-y,-x,-z
-x+y,y,-z
x,x-y,-z
-x,-y,-z
-x+y,-x,-z
y,-x+y,-z
x,y,-z
x-y,x,-z
-y,x-y,-z
-x+y,y,z
x,x-y,z
-y,-x,z
y,x,z
x-y,-y,z
-x,-x+y,z
loop_
_atom_site_type_symbol
_atom_site_label
_atom_site_fract_x
_atom_site_fract_y
_atom_site_fract_z
Si Si1 0.901894 0.265263 0.163914
Si Si2 0.267355 0.901170 0.626207
Si Si3 0.093743 0.743194 0.500000
Si Si4 0.468335 0.101329 0.268663
Si Si5 0.333525 0.495691 0.066393
O O1 0.838098 0.161903 0.159407
O O2 0.866859 0.298619 0.216587
O O3 0.898961 0.312469 0.105384
O O4 0.000000 0.286138 0.173570
O O5 0.164470 0.835531 0.634241
O O6 0.296579 0.892989 0.560089
O O7 0.318648 0.872838 0.669564
O O8 0.290473 0.000000 0.638953
O O9 0.155061 0.844940 0.500000
O O10 0.000000 0.732724 0.500000
O O11 0.572083 0.144166 0.264129
O O12 0.426123 0.000000 0.263643
O O13 0.261763 0.523525 0.075094
O O14 0.424777 0.575224 0.085693
O O15 0.336441 0.469782 0.000000
#
# Coordination Sequence:
#
# PCOD8329019 Si02
#       5
#    24  24  12  24  24
#     4  10  20  33  49  69  93 121 153 189 228 268
#     4   9  16  27  44  65  89 118 152 189 228 269
#     4   8  14  24  39  60  85 113 147 187 228 268
#     4   9  17  29  45  65  88 112 139 174 216 262
#     4   9  17  29  46  69  97 127 156 186 223 269
#
# _framework density 16.843229000000001
#
# number of rings (size 3 to 8) (size 9 to 14) (size 15 to 20)
#    0.000    2.889    0.000    1.556    0.000    2.667 
#    0.000    1.667    0.000    8.778    0.000    3.111 
#    0.000    5.333    0.000    5.778    0.000    0.889 
#
# Total GULP energy -1338070.891817 kJ/mol
# GULP energy per Si atom -12389.545295 kJ/mol
# Density = 1.680489 g / cm^3
# Si number density = 16.843229 Si / 1000 Ang^3
#
#
#
# Elastic Constant Matrix: (Units=GPa)
#
#
# Indices 1 2 3 4 5 6 
#
# 1 73.0948 42.1006 35.2176 0.0000 0.0000 0.0000
# 2 42.1006 73.0948 35.2176 0.0000 0.0000 0.0000
# 3 35.2176 35.2176 102.9571 0.0000 0.0000 0.0000
# 4 0.0000 0.0000 0.0000 20.8839 0.0000 0.0000
# 5 0.0000 0.0000 0.0000 0.0000 20.8839 0.0000
# 6 0.0000 0.0000 0.0000 0.0000 0.0000 15.4971
#
#
#
# Elastic Compliance Matrix: (Units=1/GPa)
#
#
# Indices 1 2 3 4 5 6 
#
# 1 0.021620 -0.010644 -0.003755 0.000000 0.000000 0.000000
# 2 -0.010644 0.021620 -0.003755 0.000000 0.000000 0.000000
# 3 -0.003755 -0.003755 0.012281 0.000000 0.000000 0.000000
# 4 0.000000 0.000000 0.000000 0.047884 0.000000 0.000000
# 5 0.000000 0.000000 0.000000 0.000000 0.047884 0.000000
# 6 0.000000 0.000000 0.000000 0.000000 0.000000 0.064528
#
#
# Mechanical properties :
#
#
# Convention : Reuss Voigt Hill
#
# Bulk Modulus (GPa) = 52.03989 52.69094 52.36541
# Shear Modulus (GPa) = 19.34015 20.56037 19.95026
#
# Velocity S-wave (km/s) = 3.39225 3.49763 3.44534
# Velocity P-wave (km/s) = 6.80491 6.90379 6.85453
#
# Compressibility (1/GPa) = 0.01921603
#
# Stress axis : x y z
#
# Youngs Moduli (GPa) = 46.25267 46.25267 81.42361
#
# Poissons Ratio (x) = 0.49230 0.30572
# Poissons Ratio (y) = 0.49230 0.30572
# Poissons Ratio (z) = 0.17366 0.17366
#
# Static dielectric constant tensor:
#      x y z
#    x 3.006000 0.000000 0.000000 
#    y 0.000000 3.006000 0.000000 
#    z 0.000000 0.000000 3.530820 
# 
# 
# High freq. dielectric constant tensor:
#      x y z
#    x 1.620760 0.000000 0.000000 
#    y 0.000000 1.620760 0.000000 
#    z 0.000000 0.000000 1.673420 
# 
# From -- ./inp_files/8314.got.cif
#   From: 2010.03.12/outbox.cif.g09.slc.cpg/sg191_5_cif.got.tgz:8314.got - 2010.04.01 12:09:02.
