data_PCOD8329125
_publ_section_title
;
Structure prediction by ZEFSAII (Michael W. Deem and Ramdas Pophale) SiO2 
 PCOD8329125
Probable space group: P 6/M M M
;
_chemical_formula_sum "Si O2"
_cell_formula_units_Z 102
_cell_length_a 26.933256
_cell_length_b 26.933256
_cell_length_c 9.127194
_cell_angle_alpha 90.000000
_cell_angle_beta 90.000000
_cell_angle_gamma 120.000000
_cell_volume 5733.840811
_symmetry_space_group_name_H-M "P 6/M M M"
_symmetry_group_IT_number 191
_symmetry_cell_setting 'hexagonal'
loop_
_space_group_symop_operation_xyz
x,y,z
x-y,x,z
-y,x-y,z
-x,-y,z
-x+y,-x,z
y,-x+y,z
x-y,-y,-z
-x,-x+y,-z
y,x,-z
-y,-x,-z
-x+y,y,-z
x,x-y,-z
-x,-y,-z
-x+y,-x,-z
y,-x+y,-z
x,y,-z
x-y,x,-z
-y,x-y,-z
-x+y,y,z
x,x-y,z
-y,-x,z
y,x,z
x-y,-y,z
-x,-x+y,z
loop_
_atom_site_type_symbol
_atom_site_label
_atom_site_fract_x
_atom_site_fract_y
_atom_site_fract_z
Si Si1 0.446223 0.000000 0.172182
Si Si2 0.215739 0.215739 0.662390
Si Si3 0.000000 0.881107 0.500000
Si Si4 0.875773 0.380087 0.171268
Si Si5 0.429631 0.156209 0.666368
Si Si6 0.317220 0.099922 0.835001
O O1 0.451107 0.060335 0.214318
O O2 0.500000 0.000000 0.248564
O O3 0.454702 0.000000 0.000000
O O4 0.240305 0.240305 0.500000
O O5 0.155327 0.155327 0.643514
O O6 0.205028 0.260829 0.748682
O O7 0.943851 0.887703 0.500000
O O8 0.867815 0.433908 0.215950
O O9 0.834609 0.323571 0.263429
O O10 0.862797 0.367203 0.000000
O O11 0.423838 0.134960 0.500000
O O12 0.434219 0.217110 0.675488
O O13 0.374348 0.108715 0.755135
O O14 0.317843 0.158922 0.838516
O O15 0.316166 0.077592 0.000000
#
# Coordination Sequence:
#
# PCOD8329125 Si02
#       6
#    12  12   6  24  24  24
#     4   7  12  25  45  69  95 121 147 180 231 289
#     4  10  21  33  55  80 111 141 177 222 274 327
#     4  10  21  36  58  84 114 150 189 232 280 332
#     4   9  17  31  52  76 102 135 174 215 259 314
#     4  10  21  35  51  72 103 142 179 220 274 329
#     4  10  20  35  54  76 104 138 178 223 272 329
#
# _framework density 17.789124000000001
#
# number of rings (size 3 to 8) (size 9 to 14) (size 15 to 20)
#    0.353    2.235    0.000    3.941    0.000    3.765 
#    0.000    4.118    0.000    2.588    0.000    0.000 
#    0.000    5.647    0.000    0.000    0.000    0.000 
#
# Total GULP energy -1263671.235803 kJ/mol
# GULP energy per Si atom -12388.933684 kJ/mol
# Density = 1.774864 g / cm^3
# Si number density = 17.789124 Si / 1000 Ang^3
#
#
#
# Elastic Constant Matrix: (Units=GPa)
#
#
# Indices 1 2 3 4 5 6 
#
# 1 79.1110 36.1891 48.6294 0.0000 0.0000 0.0000
# 2 36.1891 79.1110 48.6294 0.0000 0.0000 0.0000
# 3 48.6294 48.6294 121.1061 0.0000 0.0000 0.0000
# 4 0.0000 0.0000 0.0000 30.2180 0.0000 0.0000
# 5 0.0000 0.0000 0.0000 0.0000 30.2180 0.0000
# 6 0.0000 0.0000 0.0000 0.0000 0.0000 21.4610
#
#
#
# Elastic Compliance Matrix: (Units=1/GPa)
#
#
# Indices 1 2 3 4 5 6 
#
# 1 0.018207 -0.005091 -0.005266 0.000000 0.000000 0.000000
# 2 -0.005091 0.018207 -0.005266 0.000000 0.000000 0.000000
# 3 -0.005266 -0.005266 0.012487 0.000000 0.000000 0.000000
# 4 0.000000 0.000000 0.000000 0.033093 0.000000 0.000000
# 5 0.000000 0.000000 0.000000 0.000000 0.033093 0.000000
# 6 0.000000 0.000000 0.000000 0.000000 0.000000 0.046596
#
#
# Mechanical properties :
#
#
# Convention : Reuss Voigt Hill
#
# Bulk Modulus (GPa) = 56.65156 60.69154 58.67155
# Shear Modulus (GPa) = 25.14909 26.10473 25.62691
#
# Velocity S-wave (km/s) = 3.76404 3.83489 3.79963
# Velocity P-wave (km/s) = 7.12783 7.33484 7.23208
#
# Compressibility (1/GPa) = 0.01765176
#
# Stress axis : x y z
#
# Youngs Moduli (GPa) = 54.92468 54.92468 80.08581
#
# Poissons Ratio (x) = 0.27964 0.42176
# Poissons Ratio (y) = 0.27964 0.42176
# Poissons Ratio (z) = 0.28926 0.28926
#
# Static dielectric constant tensor:
#      x y z
#    x 3.230880 0.000000 0.000000 
#    y 0.000000 3.230880 0.000000 
#    z 0.000000 0.000000 3.320850 
# 
# 
# High freq. dielectric constant tensor:
#      x y z
#    x 1.678960 0.000000 0.000000 
#    y 0.000000 1.678960 0.000000 
#    z 0.000000 0.000000 1.681410 
# 
# From -- ./inp_files/1477.got.cif
#   From: 2010.03.12/outbox.cif.g09.slc.cpg/sg191_1_cif.got.tgz:1477.got - 2010.04.01 12:09:02.
