data_PCOD8329748
_publ_section_title
;
Structure prediction by ZEFSAII (Michael W. Deem and Ramdas Pophale) SiO2 
 PCOD8329748
Probable space group: P 6/M C C
;
_chemical_formula_sum "Si O2"
_cell_formula_units_Z 192
_cell_length_a 30.358801
_cell_length_b 30.358801
_cell_length_c 15.156976
_cell_angle_alpha 90.000000
_cell_angle_beta 90.000000
_cell_angle_gamma 120.000000
_cell_volume 12097.967833
_symmetry_space_group_name_H-M "P 6/M C C"
_symmetry_group_IT_number 192
_symmetry_cell_setting 'hexagonal'
loop_
_space_group_symop_operation_xyz
x,y,z
x-y,x,z
-y,x-y,z
-x,-y,z
-x+y,-x,z
y,-x+y,z
x-y,-y,1/2-z
-x,-x+y,1/2-z
y,x,1/2-z
-y,-x,1/2-z
-x+y,y,1/2-z
x,x-y,1/2-z
-x,-y,-z
-x+y,-x,-z
y,-x+y,-z
x,y,-z
x-y,x,-z
-y,x-y,-z
-x+y,y,1/2+z
x,x-y,1/2+z
-y,-x,1/2+z
y,x,1/2+z
x-y,-y,1/2+z
-x,-x+y,1/2+z
loop_
_atom_site_type_symbol
_atom_site_label
_atom_site_fract_x
_atom_site_fract_y
_atom_site_fract_z
Si Si1 0.098300 0.300222 0.899223
Si Si2 0.801438 0.801438 0.395646
Si Si3 0.240211 0.376015 0.250000
Si Si4 0.807645 0.510959 0.250000
Si Si5 0.768898 0.435527 0.399407
Si Si6 0.564473 0.333371 0.899407
Si Si7 0.900260 0.000000 0.894756
Si Si8 0.098300 0.300222 0.399223
O O1 0.105493 0.346747 0.838119
O O2 0.145450 0.290901 0.890785
O O3 0.049645 0.249465 0.863417
O O4 0.091274 0.312921 0.000000
O O5 0.805157 0.805157 0.500000
O O6 0.850676 0.850675 0.355980
O O7 0.750535 0.800180 0.363417
O O8 0.189983 0.379965 0.250000
O O9 0.289501 0.432560 0.250000
O O10 0.241254 0.346746 0.161880
O O11 0.757855 0.515710 0.250000
O O12 0.808555 0.481155 0.337365
O O13 0.808555 0.481155 0.162635
O O14 0.785575 0.452419 0.500000
O O15 0.770511 0.385256 0.374811
O O16 0.711663 0.423325 0.382340
O O17 0.547581 0.333156 0.000000
O O18 0.900496 0.950248 0.859016
O O19 0.899588 0.000000 0.000000
O O20 0.091273 0.312920 0.500000
#
# Coordination Sequence:
#
# PCOD8329748 Si02
#       8
#    24  24  24  24  24  24  24  24
#     4   9  17  29  44  61  82 107 134 168 209 249
#     4   9  16  26  41  60  80 106 140 173 208 252
#     4   9  18  30  42  58  79 105 141 177 208 250
#     4   9  17  27  38  54  77 107 144 182 214 244
#     4   9  16  25  38  57  82 113 148 182 211 237
#     4   9  16  25  38  57  82 113 148 182 211 237
#     4   9  15  22  34  55  85 117 146 176 210 249
#     4   9  17  29  44  61  82 107 134 168 209 249
#
# _framework density 15.870433999999999
#
# number of rings (size 3 to 8) (size 9 to 14) (size 15 to 20)
#    0.000    3.000    0.000    1.500    0.000    6.000 
#    0.000    6.250    0.000    0.000    0.000    0.000 
#    0.000    0.000    0.000   18.500    0.000   77.875 
#
# Total GULP energy -2380342.833349 kJ/mol
# GULP energy per Si atom -12397.618924 kJ/mol
# Density = 1.583431 g / cm^3
# Si number density = 15.870434 Si / 1000 Ang^3
#
#
#
# Elastic Constant Matrix: (Units=GPa)
#
#
# Indices 1 2 3 4 5 6 
#
# 1 90.6929 64.6851 49.3207 0.0000 0.0000 0.0000
# 2 64.6851 90.6929 49.3207 0.0000 0.0000 0.0000
# 3 49.3207 49.3207 87.7104 0.0000 0.0000 0.0000
# 4 0.0000 0.0000 0.0000 9.4670 0.0000 0.0000
# 5 0.0000 0.0000 0.0000 0.0000 9.4670 0.0000
# 6 0.0000 0.0000 0.0000 0.0000 0.0000 13.0039
#
#
#
# Elastic Compliance Matrix: (Units=1/GPa)
#
#
# Indices 1 2 3 4 5 6 
#
# 1 0.024229 -0.014221 -0.005628 0.000000 0.000000 0.000000
# 2 -0.014221 0.024229 -0.005628 0.000000 0.000000 0.000000
# 3 -0.005628 -0.005628 0.017731 0.000000 0.000000 0.000000
# 4 0.000000 0.000000 0.000000 0.105630 0.000000 0.000000
# 5 0.000000 0.000000 0.000000 0.000000 0.105630 0.000000
# 6 0.000000 0.000000 0.000000 0.000000 0.000000 0.076900
#
#
# Mechanical properties :
#
#
# Convention : Reuss Voigt Hill
#
# Bulk Modulus (GPa) = 65.63409 66.19434 65.91421
# Shear Modulus (GPa) = 12.18378 13.43891 12.81135
#
# Velocity S-wave (km/s) = 2.77375 2.91312 2.84429
# Velocity P-wave (km/s) = 7.19057 7.28799 7.23944
#
# Compressibility (1/GPa) = 0.01523598
#
# Stress axis : x y z
#
# Youngs Moduli (GPa) = 41.27203 41.27203 56.39932
#
# Poissons Ratio (x) = 0.58691 0.31742
# Poissons Ratio (y) = 0.58691 0.31742
# Poissons Ratio (z) = 0.23229 0.23229
#
# Static dielectric constant tensor:
#      x y z
#    x 2.976540 0.000000 0.000000 
#    y 0.000000 2.976540 0.000000 
#    z 0.000000 0.000000 3.069630 
# 
# 
# High freq. dielectric constant tensor:
#      x y z
#    x 1.580580 0.000000 0.000000 
#    y 0.000000 1.580580 0.000000 
#    z 0.000000 0.000000 1.615740 
# 
# From -- ./inp_files/3557.got.cif
#   From: 2010.03.12/outbox.cif.g09.slc.cpg/sg192_2_cif.got.tgz:3557.got - 2010.04.01 12:16:15.
