data_PCOD8329850
_publ_section_title
;
Structure prediction by ZEFSAII (Michael W. Deem and Ramdas Pophale) SiO2 
 PCOD8329850
Probable space group: P 63/M C M
;
_chemical_formula_sum "Si O2"
_cell_formula_units_Z 120
_cell_length_a 17.529530
_cell_length_b 17.529530
_cell_length_c 23.260152
_cell_angle_alpha 90.000000
_cell_angle_beta 90.000000
_cell_angle_gamma 120.000000
_cell_volume 6189.901300
_symmetry_space_group_name_H-M "P 63/M C M"
_symmetry_group_IT_number 193
_symmetry_cell_setting 'hexagonal'
loop_
_space_group_symop_operation_xyz
x,y,z
x-y,x,1/2+z
-y,x-y,z
-x,-y,1/2+z
-x+y,-x,z
y,-x+y,1/2+z
x-y,-y,1/2-z
-x,-x+y,1/2-z
y,x,1/2-z
-y,-x,-z
-x+y,y,-z
x,x-y,-z
-x,-y,-z
-x+y,-x,1/2-z
y,-x+y,-z
x,y,1/2-z
x-y,x,-z
-y,x-y,1/2-z
-x+y,y,1/2+z
x,x-y,1/2+z
-y,-x,1/2+z
y,x,z
x-y,-y,z
-x,-x+y,z
loop_
_atom_site_type_symbol
_atom_site_label
_atom_site_fract_x
_atom_site_fract_y
_atom_site_fract_z
Si Si1 0.355362 0.455795 0.870647
Si Si2 0.180030 0.380042 0.935504
Si Si3 0.505669 0.404561 0.444737
Si Si4 0.802661 0.901355 0.125085
Si Si5 0.150768 0.902860 0.750000
Si Si6 0.392796 0.288424 0.750000
O O1 0.379448 0.379448 0.877394
O O2 0.280499 0.434168 0.916777
O O3 0.437675 0.550473 0.887144
O O4 0.325229 0.456414 0.805308
O O5 0.146315 0.448914 0.930809
O O6 0.126578 0.295239 0.895522
O O7 0.172579 0.345158 0.000000
O O8 0.570927 0.429074 0.500000
O O9 0.437486 0.437486 0.458724
O O10 0.836479 0.836479 0.101312
O O11 0.802376 0.897223 0.194033
O O12 0.869067 0.000000 0.103187
O O13 0.164537 0.818130 0.750000
O O14 0.241806 0.000000 0.750000
O O15 0.319622 0.319622 0.750000
#
# Coordination Sequence:
#
# PCOD8329850 Si02
#       6
#    24  24  24  24  12  12
#     4  10  21  39  63  88 118 158 201 249 307 369
#     4  12  23  37  61  92 117 159 208 257 306 380
#     4  10  21  39  59  85 118 149 189 249 309 365
#     4  11  23  38  58  88 129 174 219 264 313 368
#     4  10  20  34  57  90 123 161 212 267 307 358
#     4  10  18  36  65  88 115 161 215 253 297 364
#
# _framework density 19.386416000000001
#
# number of rings (size 3 to 8) (size 9 to 14) (size 15 to 20)
#    0.000    1.400    4.000    2.300    0.000    2.400 
#    1.200    4.000    0.000    5.000    0.000    0.000 
#    0.000    0.000    0.000    0.000    0.000    0.000 
#
# Total GULP energy -1487761.947087 kJ/mol
# GULP energy per Si atom -12398.016226 kJ/mol
# Density = 1.934229 g / cm^3
# Si number density = 19.386416 Si / 1000 Ang^3
#
#
#
# Elastic Constant Matrix: (Units=GPa)
#
#
# Indices 1 2 3 4 5 6 
#
# 1 114.1777 55.7494 42.2670 0.0000 0.0000 0.0000
# 2 55.7494 114.1777 42.2670 0.0000 0.0000 0.0000
# 3 42.2670 42.2670 98.4919 0.0000 0.0000 0.0000
# 4 0.0000 0.0000 0.0000 26.0358 0.0000 0.0000
# 5 0.0000 0.0000 0.0000 0.0000 26.0358 0.0000
# 6 0.0000 0.0000 0.0000 0.0000 0.0000 29.2141
#
#
#
# Elastic Compliance Matrix: (Units=1/GPa)
#
#
# Indices 1 2 3 4 5 6 
#
# 1 0.012299 -0.004816 -0.003211 0.000000 0.000000 0.000000
# 2 -0.004816 0.012299 -0.003211 0.000000 0.000000 0.000000
# 3 -0.003211 -0.003211 0.012909 0.000000 0.000000 0.000000
# 4 0.000000 0.000000 0.000000 0.038409 0.000000 0.000000
# 5 0.000000 0.000000 0.000000 0.000000 0.038409 0.000000
# 6 0.000000 0.000000 0.000000 0.000000 0.000000 0.034230
#
#
# Mechanical properties :
#
#
# Convention : Reuss Voigt Hill
#
# Bulk Modulus (GPa) = 66.53483 67.49046 67.01264
# Shear Modulus (GPa) = 28.40264 28.69475 28.54869
#
# Velocity S-wave (km/s) = 3.83179 3.85144 3.84163
# Velocity P-wave (km/s) = 7.34654 7.39371 7.37016
#
# Compressibility (1/GPa) = 0.01502972
#
# Stress axis : x y z
#
# Youngs Moduli (GPa) = 81.31001 81.31001 77.46525
#
# Poissons Ratio (x) = 0.39162 0.24874
# Poissons Ratio (y) = 0.39162 0.24874
# Poissons Ratio (z) = 0.26108 0.26108
#
# Static dielectric constant tensor:
#      x y z
#    x 3.450930 0.000000 0.000000 
#    y 0.000000 3.450930 0.000000 
#    z 0.000000 0.000000 3.714670 
# 
# 
# High freq. dielectric constant tensor:
#      x y z
#    x 1.744080 0.000000 0.000000 
#    y 0.000000 1.744080 0.000000 
#    z 0.000000 0.000000 1.760640 
# 
# From -- ./inp_files/7379.got.cif
#   From: 2010.03.12/outbox.cif.g09.slc.cpg/sg193_4_cif.got.tgz:7379.got - 2010.04.01 12:20:39.
