data_PCOD8329710
_publ_section_title
;
Structure prediction by ZEFSAII (Michael W. Deem and Ramdas Pophale) SiO2 
 PCOD8329710
Probable space group: P 6/M C C
;
_chemical_formula_sum "Si O2"
_cell_formula_units_Z 144
_cell_length_a 31.021921
_cell_length_b 31.021921
_cell_length_c 8.555038
_cell_angle_alpha 90.000000
_cell_angle_beta 90.000000
_cell_angle_gamma 120.000000
_cell_volume 7130.006893
_symmetry_space_group_name_H-M "P 6/M C C"
_symmetry_group_IT_number 192
_symmetry_cell_setting 'hexagonal'
loop_
_space_group_symop_operation_xyz
x,y,z
x-y,x,z
-y,x-y,z
-x,-y,z
-x+y,-x,z
y,-x+y,z
x-y,-y,1/2-z
-x,-x+y,1/2-z
y,x,1/2-z
-y,-x,1/2-z
-x+y,y,1/2-z
x,x-y,1/2-z
-x,-y,-z
-x+y,-x,-z
y,-x+y,-z
x,y,-z
x-y,x,-z
-y,x-y,-z
-x+y,y,1/2+z
x,x-y,1/2+z
-y,-x,1/2+z
y,x,1/2+z
x-y,-y,1/2+z
-x,-x+y,1/2+z
loop_
_atom_site_type_symbol
_atom_site_label
_atom_site_fract_x
_atom_site_fract_y
_atom_site_fract_z
Si Si1 0.759105 0.333028 0.184111
Si Si2 0.761331 0.144819 0.181533
Si Si3 0.519823 0.946629 0.185124
Si Si4 0.662981 0.516836 0.318338
Si Si5 0.946219 0.799720 0.814754
Si Si6 0.760202 0.053022 0.315695
O O1 0.721264 0.278737 0.250000
O O2 0.744798 0.372399 0.250000
O O3 0.814398 0.347775 0.233633
O O4 0.755013 0.332172 0.000000
O O5 0.812795 0.187206 0.250000
O O6 0.719679 0.160246 0.209170
O O7 0.744660 0.093476 0.271084
O O8 0.768137 0.137481 0.000000
O O9 0.465347 0.930694 0.250000
O O10 0.535514 0.907456 0.242584
O O11 0.560815 0.000000 0.250000
O O12 0.518907 0.948730 0.000000
O O13 0.650339 0.505327 0.500000
O O14 0.907483 0.814966 0.750000
O O15 0.930707 0.744491 0.757928
O O16 0.000000 0.839703 0.750000
O O17 0.946882 0.800926 0.000000
O O18 0.763724 0.049006 0.500000
O O19 0.718151 0.000000 0.250000
#
# Coordination Sequence:
#
# PCOD8329710 Si02
#       6
#    24  24  24  24  24  24
#     4  12  25  43  66  93 124 157 196 242 295 352
#     4  11  24  41  61  85 117 156 197 240 288 345
#     4  11  22  39  63  90 121 156 197 245 297 351
#     4  11  24  42  63  89 121 158 200 244 293 350
#     4  11  21  36  57  84 116 151 193 240 292 346
#     4  11  22  38  60  86 117 152 194 242 292 345
#
# _framework density 20.196335000000001
#
# number of rings (size 3 to 8) (size 9 to 14) (size 15 to 20)
#    0.000    0.833    0.000   10.167    0.000    4.667 
#    0.000    0.000    0.000    0.167    0.000    1.167 
#    0.000    0.000    0.000    0.000    0.000    0.000 
#
# Total GULP energy -1786830.308942 kJ/mol
# GULP energy per Si atom -12408.543812 kJ/mol
# Density = 2.015037 g / cm^3
# Si number density = 20.196335 Si / 1000 Ang^3
#
#
#
# Elastic Constant Matrix: (Units=GPa)
#
#
# Indices 1 2 3 4 5 6 
#
# 1 109.9103 18.6186 47.6844 0.0000 0.0000 0.0000
# 2 18.6186 109.9103 47.6844 0.0000 0.0000 0.0000
# 3 47.6844 47.6844 199.3654 0.0000 0.0000 0.0000
# 4 0.0000 0.0000 0.0000 33.2672 0.0000 0.0000
# 5 0.0000 0.0000 0.0000 0.0000 33.2672 0.0000
# 6 0.0000 0.0000 0.0000 0.0000 0.0000 45.6459
#
#
#
# Elastic Compliance Matrix: (Units=1/GPa)
#
#
# Indices 1 2 3 4 5 6 
#
# 1 0.010206 -0.000747 -0.002262 0.000000 0.000000 0.000000
# 2 -0.000747 0.010206 -0.002262 0.000000 0.000000 0.000000
# 3 -0.002262 -0.002262 0.006098 0.000000 0.000000 0.000000
# 4 0.000000 0.000000 0.000000 0.030060 0.000000 0.000000
# 5 0.000000 0.000000 0.000000 0.000000 0.030060 0.000000
# 6 0.000000 0.000000 0.000000 0.000000 0.000000 0.021908
#
#
# Mechanical properties :
#
#
# Convention : Reuss Voigt Hill
#
# Bulk Modulus (GPa) = 62.63069 71.90674 67.26871
# Shear Modulus (GPa) = 40.19130 42.78261 41.48696
#
# Velocity S-wave (km/s) = 4.46581 4.60753 4.53723
# Velocity P-wave (km/s) = 7.59405 7.99918 7.79925
#
# Compressibility (1/GPa) = 0.01596661
#
# Stress axis : x y z
#
# Youngs Moduli (GPa) = 97.97690 97.97690 163.98349
#
# Poissons Ratio (x) = 0.07323 0.37100
# Poissons Ratio (y) = 0.07323 0.37100
# Poissons Ratio (z) = 0.22167 0.22167
#
# Static dielectric constant tensor:
#      x y z
#    x 3.595820 0.000000 0.000000 
#    y 0.000000 3.595820 0.000000 
#    z 0.000000 0.000000 3.864230 
# 
# 
# High freq. dielectric constant tensor:
#      x y z
#    x 1.791660 0.000000 0.000000 
#    y 0.000000 1.791660 0.000000 
#    z 0.000000 0.000000 1.813140 
# 
# From -- ./inp_files/1181.got.cif
#   From: 2010.03.12/outbox.cif.g09.slc.cpg/sg192_1_cif.got.tgz:1181.got - 2010.04.01 12:16:15.
