data_PCOD8329660
_publ_section_title
;
Structure prediction by ZEFSAII (Michael W. Deem and Ramdas Pophale) SiO2 
 PCOD8329660
Probable space group: P 6/M C C
;
_chemical_formula_sum "Si O2"
_cell_formula_units_Z 168
_cell_length_a 22.524717
_cell_length_b 22.524717
_cell_length_c 22.263265
_cell_angle_alpha 90.000000
_cell_angle_beta 90.000000
_cell_angle_gamma 120.000000
_cell_volume 9782.236851
_symmetry_space_group_name_H-M "P 6/M C C"
_symmetry_group_IT_number 192
_symmetry_cell_setting 'hexagonal'
loop_
_space_group_symop_operation_xyz
x,y,z
x-y,x,z
-y,x-y,z
-x,-y,z
-x+y,-x,z
y,-x+y,z
x-y,-y,1/2-z
-x,-x+y,1/2-z
y,x,1/2-z
-y,-x,1/2-z
-x+y,y,1/2-z
x,x-y,1/2-z
-x,-y,-z
-x+y,-x,-z
y,-x+y,-z
x,y,-z
x-y,x,-z
-y,x-y,-z
-x+y,y,1/2+z
x,x-y,1/2+z
-y,-x,1/2+z
y,x,1/2+z
x-y,-y,1/2+z
-x,-x+y,1/2+z
loop_
_atom_site_type_symbol
_atom_site_label
_atom_site_fract_x
_atom_site_fract_y
_atom_site_fract_z
Si Si1 0.448843 0.228703 0.068618
Si Si2 0.500065 0.143265 0.873879
Si Si3 0.995004 0.247410 0.569840
Si Si4 0.389245 0.385888 0.570390
Si Si5 0.150903 0.856696 0.572018
Si Si6 0.805322 0.335086 0.746774
Si Si7 0.371380 0.501098 0.619949
O O1 0.500366 0.211052 0.103456
O O2 0.372200 0.185708 0.095907
O O3 0.478102 0.309509 0.073444
O O4 0.447334 0.208079 0.000000
O O5 0.436591 0.078271 0.903403
O O6 0.493456 0.141949 0.801758
O O7 0.570959 0.149269 0.894681
O O8 0.000814 0.237038 0.500000
O O9 0.984143 0.311463 0.581037
O O10 0.065937 0.258470 0.598740
O O11 0.927821 0.180197 0.595980
O O12 0.405051 0.403763 0.500000
O O13 0.403874 0.452594 0.608432
O O14 0.151353 0.855436 0.500000
O O15 0.741136 0.258865 0.750000
O O16 0.777669 0.388835 0.750000
O O17 0.849674 0.343753 0.687618
#
# Coordination Sequence:
#
# PCOD8329660 Si02
#       7
#    24  24  24  24  24  24  24
#     4  11  20  33  53  77 108 138 174 221 273 334
#     4  11  23  37  55  77 104 140 182 225 273 325
#     4   9  16  27  47  72 100 135 170 205 251 312
#     4  11  21  35  55  80 111 143 171 214 279 339
#     4   9  16  28  47  72 101 134 170 206 249 311
#     4  10  21  39  59  75  97 138 189 233 269 317
#     4  11  23  37  55  77 104 140 182 225 273 325
#
# _framework density 17.173985999999999
#
# number of rings (size 3 to 8) (size 9 to 14) (size 15 to 20)
#    0.000    1.714    4.286    1.429    0.000    3.429 
#    0.857    2.143    0.000    0.286    0.000    2.000 
#    0.000    0.000    0.000    0.000    0.000    0.000 
#
# Total GULP energy -2083027.665439 kJ/mol
# GULP energy per Si atom -12398.974199 kJ/mol
# Density = 1.713490 g / cm^3
# Si number density = 17.173986 Si / 1000 Ang^3
#
#
#
# Elastic Constant Matrix: (Units=GPa)
#
#
# Indices 1 2 3 4 5 6 
#
# 1 87.3248 33.4949 23.5288 0.0000 0.0000 0.0000
# 2 33.4949 87.3248 23.5288 0.0000 0.0000 0.0000
# 3 23.5288 23.5288 59.4974 0.0000 0.0000 0.0000
# 4 0.0000 0.0000 0.0000 20.8716 0.0000 0.0000
# 5 0.0000 0.0000 0.0000 0.0000 20.8716 0.0000
# 6 0.0000 0.0000 0.0000 0.0000 0.0000 26.9149
#
#
#
# Elastic Compliance Matrix: (Units=1/GPa)
#
#
# Indices 1 2 3 4 5 6 
#
# 1 0.014180 -0.004397 -0.003869 0.000000 0.000000 0.000000
# 2 -0.004397 0.014180 -0.003869 0.000000 0.000000 0.000000
# 3 -0.003869 -0.003869 0.019868 0.000000 0.000000 0.000000
# 4 0.000000 0.000000 0.000000 0.047912 0.000000 0.000000
# 5 0.000000 0.000000 0.000000 0.000000 0.047912 0.000000
# 6 0.000000 0.000000 0.000000 0.000000 0.000000 0.037154
#
#
# Mechanical properties :
#
#
# Convention : Reuss Voigt Hill
#
# Bulk Modulus (GPa) = 41.73834 43.91687 42.82761
# Shear Modulus (GPa) = 23.42335 23.97126 23.69730
#
# Velocity S-wave (km/s) = 3.69709 3.74008 3.71865
# Velocity P-wave (km/s) = 6.52538 6.65419 6.59010
#
# Compressibility (1/GPa) = 0.02395878
#
# Stress axis : x y z
#
# Youngs Moduli (GPa) = 70.51989 70.51989 50.33323
#
# Poissons Ratio (x) = 0.31005 0.19474
# Poissons Ratio (y) = 0.31005 0.19474
# Poissons Ratio (z) = 0.27285 0.27285
#
# Static dielectric constant tensor:
#      x y z
#    x 3.341020 0.000000 0.000000 
#    y 0.000000 3.341020 0.000000 
#    z 0.000000 0.000000 2.973800 
# 
# 
# High freq. dielectric constant tensor:
#      x y z
#    x 1.664160 0.000000 0.000000 
#    y 0.000000 1.664160 0.000000 
#    z 0.000000 0.000000 1.629400 
# 
# From -- ./inp_files/6019.got.cif
#   From: 2010.03.12/outbox.cif.g09.slc.cpg/sg192_4_cif.got.tgz:6019.got - 2010.04.01 12:16:15.
