data_PCOD8329119
_publ_section_title
;
Structure prediction by ZEFSAII (Michael W. Deem and Ramdas Pophale) SiO2 
 PCOD8329119
Probable space group: P 6/M M M
;
_chemical_formula_sum "Si O2"
_cell_formula_units_Z 100
_cell_length_a 27.450959
_cell_length_b 27.450959
_cell_length_c 7.727821
_cell_angle_alpha 90.000000
_cell_angle_beta 90.000000
_cell_angle_gamma 120.000000
_cell_volume 5043.159780
_symmetry_space_group_name_H-M "P 6/M M M"
_symmetry_group_IT_number 191
_symmetry_cell_setting 'hexagonal'
loop_
_space_group_symop_operation_xyz
x,y,z
x-y,x,z
-y,x-y,z
-x,-y,z
-x+y,-x,z
y,-x+y,z
x-y,-y,-z
-x,-x+y,-z
y,x,-z
-y,-x,-z
-x+y,y,-z
x,x-y,-z
-x,-y,-z
-x+y,-x,-z
y,-x+y,-z
x,y,-z
x-y,x,-z
-y,x-y,-z
-x+y,y,z
x,x-y,z
-y,-x,z
y,x,z
x-y,-y,z
-x,-x+y,z
loop_
_atom_site_type_symbol
_atom_site_label
_atom_site_fract_x
_atom_site_fract_y
_atom_site_fract_z
Si Si1 0.730293 0.269708 0.802940
Si Si2 0.476784 0.845409 0.699821
Si Si3 0.666668 0.333334 0.706791
Si Si4 0.594739 0.657829 0.294804
Si Si5 0.234086 0.062507 0.000000
Si Si6 0.678741 0.784073 0.698922
O O1 0.791116 0.306861 0.717371
O O2 0.697281 0.302720 0.782530
O O3 0.739528 0.260473 0.000000
O O4 0.474703 0.857038 0.500000
O O5 0.418942 0.837883 0.786118
O O6 0.531638 0.899178 0.781933
O O7 0.666667 0.333334 0.500000
O O8 0.592362 0.652803 0.500000
O O9 0.623366 0.623366 0.216622
O O10 0.629982 0.723039 0.241313
O O11 0.269324 0.070469 0.825938
O O12 0.209907 0.104954 0.000000
O O13 0.181216 0.000000 0.000000
O O14 0.697558 0.783326 0.500000
O O15 0.655975 0.827988 0.718812
#
# Coordination Sequence:
#
# PCOD8329119 Si02
#       6
#    12  24   4  24  12  24
#     4  12  24  38  56  82 110 137 169 220 280 334
#     4  10  21  36  56  79 104 139 180 222 268 323
#     4  12  22  38  64  84 103 131 172 222 286 347
#     4   9  18  33  54  79 108 144 183 223 267 315
#     4  10  20  34  54  81 111 145 183 223 267 319
#     4   9  18  33  54  81 111 143 180 225 275 327
#
# _framework density 19.82884
#
# number of rings (size 3 to 8) (size 9 to 14) (size 15 to 20)
#    0.000    2.160    1.200    2.160    1.680    1.920 
#    2.160    2.400    0.000    0.120    0.000    1.680 
#    0.000    0.000    0.000    6.000    0.000    0.000 
#
# Total GULP energy -1239487.843112 kJ/mol
# GULP energy per Si atom -12394.878431 kJ/mol
# Density = 1.978371 g / cm^3
# Si number density = 19.828840 Si / 1000 Ang^3
#
#
#
# Elastic Constant Matrix: (Units=GPa)
#
#
# Indices 1 2 3 4 5 6 
#
# 1 151.4556 94.8068 17.9580 0.0001 0.0000 0.0000
# 2 94.8068 151.4559 17.9578 0.0001 0.0000 -0.0001
# 3 17.9580 17.9578 54.3454 -0.0001 0.0000 0.0000
# 4 0.0001 0.0001 -0.0001 5.6048 0.0000 0.0000
# 5 0.0000 0.0000 0.0000 0.0000 5.6051 0.0000
# 6 0.0000 -0.0001 0.0000 0.0000 0.0000 28.3242
#
#
#
# Elastic Compliance Matrix: (Units=1/GPa)
#
#
# Indices 1 2 3 4 5 6 
#
# 1 0.010959 -0.006693 -0.001410 0.000000 0.000000 0.000000
# 2 -0.006693 0.010959 -0.001410 0.000000 0.000000 0.000000
# 3 -0.001410 -0.001410 0.019333 0.000000 0.000000 0.000000
# 4 0.000000 0.000000 0.000000 0.178418 -0.000001 0.000000
# 5 0.000000 0.000000 0.000000 -0.000001 0.178408 0.000000
# 6 0.000000 0.000000 0.000000 0.000000 0.000000 0.035305
#
#
# Mechanical properties :
#
#
# Convention : Reuss Voigt Hill
#
# Bulk Modulus (GPa) = 44.99215 68.74467 56.86841
# Shear Modulus (GPa) = 10.87389 23.00912 16.94150
#
# Velocity S-wave (km/s) = 2.34431 3.41014 2.92616
# Velocity P-wave (km/s) = 5.48336 7.08870 6.33707
#
# Compressibility (1/GPa) = 0.02222610
#
# Stress axis : x y z
#
# Youngs Moduli (GPa) = 91.24541 91.24565 51.72635
#
# Poissons Ratio (x) = 0.61072 0.07292
# Poissons Ratio (y) = 0.61072 0.07292
# Poissons Ratio (z) = 0.12864 0.12863
#
# Static dielectric constant tensor:
#      x y z
#    x 3.753890 0.000000 0.000000 
#    y 0.000000 3.753880 0.000000 
#    z 0.000000 0.000000 3.449950 
# 
# 
# High freq. dielectric constant tensor:
#      x y z
#    x 1.766280 0.000000 0.000000 
#    y 0.000000 1.766280 0.000000 
#    z 0.000000 0.000000 1.759330 
# 
# From -- ./inp_files/1448.got.cif
#   From: 2010.03.12/outbox.cif.g09.slc.cpg/sg191_1_cif.got.tgz:1448.got - 2010.04.01 12:09:02.
