data_PCOD8329945
_publ_section_title
;
Structure prediction by ZEFSAII (Michael W. Deem and Ramdas Pophale) SiO2 
 PCOD8329945
Probable space group: P 63/M C M
;
_chemical_formula_sum "Si O2"
_cell_formula_units_Z 132
_cell_length_a 23.823480
_cell_length_b 23.823480
_cell_length_c 14.578330
_cell_angle_alpha 90.000000
_cell_angle_beta 90.000000
_cell_angle_gamma 120.000000
_cell_volume 7165.538119
_symmetry_space_group_name_H-M "P 63/M C M"
_symmetry_group_IT_number 193
_symmetry_cell_setting 'hexagonal'
loop_
_space_group_symop_operation_xyz
x,y,z
x-y,x,1/2+z
-y,x-y,z
-x,-y,1/2+z
-x+y,-x,z
y,-x+y,1/2+z
x-y,-y,1/2-z
-x,-x+y,1/2-z
y,x,1/2-z
-y,-x,-z
-x+y,y,-z
x,x-y,-z
-x,-y,-z
-x+y,-x,1/2-z
y,-x+y,-z
x,y,1/2-z
x-y,x,-z
-y,x-y,1/2-z
-x+y,y,1/2+z
x,x-y,1/2+z
-y,-x,1/2+z
y,x,z
x-y,-y,z
-x,-x+y,z
loop_
_atom_site_type_symbol
_atom_site_label
_atom_site_fract_x
_atom_site_fract_y
_atom_site_fract_z
Si Si1 0.076036 0.397899 0.349714
Si Si2 0.517992 0.442261 0.595885
Si Si3 0.752018 0.622356 0.974323
Si Si4 0.751843 0.827552 0.855881
Si Si5 0.364546 0.437971 0.349727
Si Si6 0.846787 0.923394 0.000000
O O1 0.102818 0.390907 0.250000
O O2 0.107242 0.475387 0.369687
O O3 0.092164 0.360802 0.428441
O O4 0.000000 0.366067 0.343192
O O5 0.553321 0.446680 0.500000
O O6 0.468353 0.468353 0.583381
O O7 0.577099 0.488235 0.663144
O O8 0.793374 0.684824 0.911286
O O9 0.689118 0.568581 0.921137
O O10 0.794986 0.589971 0.000000
O O11 0.743425 0.844337 0.750000
O O12 0.776792 0.776792 0.855755
O O13 0.802281 0.893068 0.909401
O O14 0.332286 0.413377 0.250000
O O15 0.393093 0.393093 0.386856
O O16 0.891854 0.891854 0.017276
#
# Coordination Sequence:
#
# PCOD8329945 Si02
#       6
#    24  24  24  24  24  12
#     4  10  20  34  53  78 108 139 172 216 271 322
#     4   9  15  28  52  79 107 132 159 204 261 313
#     4  12  23  35  49  71 108 151 187 217 253 308
#     4  10  21  39  60  79 103 138 181 227 273 328
#     4  10  19  32  54  79 102 133 174 219 263 308
#     4  10  21  40  64  88 108 130 170 232 302 358
#
# _framework density 18.421505
#
# number of rings (size 3 to 8) (size 9 to 14) (size 15 to 20)
#    0.000    1.818    2.727    2.818    0.000    5.455 
#    0.000    0.000    0.000    1.091    0.000    0.000 
#    7.273    0.000    2.182    0.000    0.000    0.000 
#
# Total GULP energy -1635610.013588 kJ/mol
# GULP energy per Si atom -12390.984951 kJ/mol
# Density = 1.837958 g / cm^3
# Si number density = 18.421505 Si / 1000 Ang^3
#
#
#
# Elastic Constant Matrix: (Units=GPa)
#
#
# Indices 1 2 3 4 5 6 
#
# 1 56.0774 34.9947 43.5431 0.0000 0.0000 0.0000
# 2 34.9947 56.0774 43.5431 0.0000 0.0000 0.0000
# 3 43.5431 43.5431 156.3395 0.0000 0.0000 0.0000
# 4 0.0000 0.0000 0.0000 16.7099 0.0000 0.0000
# 5 0.0000 0.0000 0.0000 0.0000 16.7099 0.0000
# 6 0.0000 0.0000 0.0000 0.0000 0.0000 10.5413
#
#
#
# Elastic Compliance Matrix: (Units=1/GPa)
#
#
# Indices 1 2 3 4 5 6 
#
# 1 0.031199 -0.016233 -0.004168 0.000000 0.000000 0.000000
# 2 -0.016233 0.031199 -0.004168 0.000000 0.000000 0.000000
# 3 -0.004168 -0.004168 0.008718 0.000000 0.000000 0.000000
# 4 0.000000 0.000000 0.000000 0.059845 0.000000 0.000000
# 5 0.000000 0.000000 0.000000 0.000000 0.059845 0.000000
# 6 0.000000 0.000000 0.000000 0.000000 0.000000 0.094865
#
#
# Mechanical properties :
#
#
# Convention : Reuss Voigt Hill
#
# Bulk Modulus (GPa) = 45.50149 56.96183 51.23166
# Shear Modulus (GPa) = 14.61406 18.55310 16.58358
#
# Velocity S-wave (km/s) = 2.81964 3.17700 3.00364
# Velocity P-wave (km/s) = 5.94595 6.66680 6.31667
#
# Compressibility (1/GPa) = 0.02197730
#
# Stress axis : x y z
#
# Youngs Moduli (GPa) = 32.05206 32.05206 114.70206
#
# Poissons Ratio (x) = 0.52030 0.47812
# Poissons Ratio (y) = 0.52030 0.47812
# Poissons Ratio (z) = 0.13360 0.13360
#
# Static dielectric constant tensor:
#      x y z
#    x 3.241990 0.000000 0.000000 
#    y 0.000000 3.241990 0.000000 
#    z 0.000000 0.000000 4.495130 
# 
# 
# High freq. dielectric constant tensor:
#      x y z
#    x 1.681610 0.000000 0.000000 
#    y 0.000000 1.681610 0.000000 
#    z 0.000000 0.000000 1.741360 
# 
# From -- ./inp_files/4175.got.cif
#   From: 2010.03.12/outbox.cif.g09.slc.cpg/sg193_3_cif.got.tgz:4175.got - 2010.04.01 12:20:39.
