data_PCOD8329372
_publ_section_title
;
Structure prediction by ZEFSAII (Michael W. Deem and Ramdas Pophale) SiO2 
 PCOD8329372
Probable space group: P 6/M C C
;
_chemical_formula_sum "Si O2"
_cell_formula_units_Z 164
_cell_length_a 21.918395
_cell_length_b 21.918395
_cell_length_c 24.673923
_cell_angle_alpha 90.000000
_cell_angle_beta 90.000000
_cell_angle_gamma 120.000000
_cell_volume 10265.647213
_symmetry_space_group_name_H-M "P 6/M C C"
_symmetry_group_IT_number 192
_symmetry_cell_setting 'hexagonal'
loop_
_space_group_symop_operation_xyz
x,y,z
x-y,x,z
-y,x-y,z
-x,-y,z
-x+y,-x,z
y,-x+y,z
x-y,-y,1/2-z
-x,-x+y,1/2-z
y,x,1/2-z
-y,-x,1/2-z
-x+y,y,1/2-z
x,x-y,1/2-z
-x,-y,-z
-x+y,-x,-z
y,-x+y,-z
x,y,-z
x-y,x,-z
-y,x-y,-z
-x+y,y,1/2+z
x,x-y,1/2+z
-y,-x,1/2+z
y,x,1/2+z
x-y,-y,1/2+z
-x,-x+y,1/2+z
loop_
_atom_site_type_symbol
_atom_site_label
_atom_site_fract_x
_atom_site_fract_y
_atom_site_fract_z
Si Si1 0.333334 0.666667 0.064877
Si Si2 0.091298 0.930163 0.187204
Si Si3 0.044402 0.579337 0.564531
Si Si4 0.527417 0.201448 0.435779
Si Si5 0.186675 0.393417 0.563079
Si Si6 0.896741 0.060990 0.000000
Si Si7 0.076362 0.259769 0.099458
Si Si8 0.668259 0.972857 0.936329
O O1 0.342795 0.739976 0.087507
O O2 0.333334 0.666668 0.000000
O O3 0.089421 0.910580 0.250000
O O4 0.142805 0.909457 0.156481
O O5 0.010588 0.889553 0.169319
O O6 0.043611 0.576559 0.500000
O O7 0.124446 0.617110 0.587082
O O8 0.000000 0.500000 0.588086
O O9 0.009480 0.624854 0.584276
O O10 0.530910 0.198944 0.500000
O O11 0.471108 0.225059 0.418393
O O12 0.194630 0.382198 0.500000
O O13 0.202423 0.339818 0.595018
O O14 0.109632 0.381038 0.576374
O O15 0.869606 0.082152 0.052786
O O16 0.980202 0.105921 0.000000
O O17 0.002860 0.260667 0.095963
O O18 0.686931 0.986964 0.000000
#
# Coordination Sequence:
#
# PCOD8329372 Si02
#       8
#     8  24  24  24  24  12  24  24
#     4   9  18  27  39  54  81 117 160 194 226 261
#     4  10  21  36  52  67  85 115 155 199 243 289
#     4   9  17  27  39  56  81 114 158 199 228 264
#     4   9  17  28  39  56  80 115 157 197 227 268
#     4  10  18  28  42  60  85 116 152 187 226 275
#     4  12  23  32  44  62  89 118 152 194 242 286
#     4  12  20  32  46  66  89 119 153 198 235 281
#     4  10  18  28  42  61  86 120 157 193 235 280
#
# _framework density 15.975612999999999
#
# number of rings (size 3 to 8) (size 9 to 14) (size 15 to 20)
#    0.000    1.902    2.927    2.854    2.049    0.585 
#    0.000    1.463    0.000    0.000    0.000    0.000 
#    0.000    0.000    0.000   19.756    0.000    1.463 
#
# Total GULP energy -2033130.515240 kJ/mol
# GULP energy per Si atom -12397.137288 kJ/mol
# Density = 1.593925 g / cm^3
# Si number density = 15.975613 Si / 1000 Ang^3
#
#
#
# Elastic Constant Matrix: (Units=GPa)
#
#
# Indices 1 2 3 4 5 6 
#
# 1 115.6365 51.7950 18.7032 0.0000 0.0000 0.0000
# 2 51.7950 115.6365 18.7033 0.0000 0.0000 -0.0003
# 3 18.7032 18.7033 23.7498 0.0000 0.0000 0.0000
# 4 0.0000 0.0000 0.0000 10.5795 0.0000 0.0000
# 5 0.0000 0.0000 0.0000 0.0000 10.5793 0.0000
# 6 0.0000 -0.0003 0.0000 0.0000 0.0000 31.9205
#
#
#
# Elastic Compliance Matrix: (Units=1/GPa)
#
#
# Indices 1 2 3 4 5 6 
#
# 1 0.011456 -0.004208 -0.005708 0.000000 0.000000 0.000000
# 2 -0.004208 0.011456 -0.005708 0.000000 0.000000 0.000000
# 3 -0.005708 -0.005708 0.051095 0.000000 0.000000 0.000000
# 4 0.000000 0.000000 0.000000 0.094523 0.000000 0.000000
# 5 0.000000 0.000000 0.000000 0.000000 0.094524 0.000000
# 6 0.000000 0.000000 0.000000 0.000000 0.000000 0.031328
#
#
# Mechanical properties :
#
#
# Convention : Reuss Voigt Hill
#
# Bulk Modulus (GPa) = 23.38631 48.15843 35.77237
# Shear Modulus (GPa) = 14.71101 21.67061 18.19081
#
# Velocity S-wave (km/s) = 3.03783 3.68704 3.37807
# Velocity P-wave (km/s) = 5.19375 6.95242 6.13641
#
# Compressibility (1/GPa) = 0.04276006
#
# Stress axis : x y z
#
# Youngs Moduli (GPa) = 87.29225 87.29210 19.57126
#
# Poissons Ratio (x) = 0.36733 0.11171
# Poissons Ratio (y) = 0.36733 0.11171
# Poissons Ratio (z) = 0.49823 0.49824
#
# Static dielectric constant tensor:
#      x y z
#    x 3.255850 0.000000 0.000000 
#    y 0.000000 3.255860 0.000000 
#    z 0.000000 0.000000 2.466510 
# 
# 
# High freq. dielectric constant tensor:
#      x y z
#    x 1.628370 0.000000 0.000000 
#    y 0.000000 1.628370 0.000000 
#    z 0.000000 0.000000 1.526600 
# 
# From -- ./inp_files/6655.got.cif
#   From: 2010.03.12/outbox.cif.g09.slc.cpg/sg192_4_cif.got.tgz:6655.got - 2010.04.01 12:16:15.
