data_PCOD8329306
_publ_section_title
;
Structure prediction by ZEFSAII (Michael W. Deem and Ramdas Pophale) SiO2 
 PCOD8329306
Probable space group: P 6/M M M
;
_chemical_formula_sum "Si O2"
_cell_formula_units_Z 120
_cell_length_a 31.448347
_cell_length_b 31.448347
_cell_length_c 9.918471
_cell_angle_alpha 90.000000
_cell_angle_beta 90.000000
_cell_angle_gamma 120.000000
_cell_volume 8495.149091
_symmetry_space_group_name_H-M "P 6/M M M"
_symmetry_group_IT_number 191
_symmetry_cell_setting 'hexagonal'
loop_
_space_group_symop_operation_xyz
x,y,z
x-y,x,z
-y,x-y,z
-x,-y,z
-x+y,-x,z
y,-x+y,z
x-y,-y,-z
-x,-x+y,-z
y,x,-z
-y,-x,-z
-x+y,y,-z
x,x-y,-z
-x,-y,-z
-x+y,-x,-z
y,-x+y,-z
x,y,-z
x-y,x,-z
-y,x-y,-z
-x+y,y,z
x,x-y,z
-y,-x,z
y,x,z
x-y,-y,z
-x,-x+y,z
loop_
_atom_site_type_symbol
_atom_site_label
_atom_site_fract_x
_atom_site_fract_y
_atom_site_fract_z
Si Si1 0.710092 0.905139 0.655183
Si Si2 0.516321 0.808652 0.151143
Si Si3 0.191920 0.191920 0.659896
Si Si4 0.237879 0.374717 0.848914
Si Si5 0.096332 0.096332 0.660875
Si Si6 0.666376 0.234621 0.344639
O O1 0.699610 0.911640 0.500000
O O2 0.717165 0.858583 0.673866
O O3 0.759233 0.951893 0.710214
O O4 0.664770 0.900707 0.742542
O O5 0.516717 0.758358 0.158616
O O6 0.570789 0.852850 0.189606
O O7 0.476373 0.806613 0.256013
O O8 0.502438 0.816652 0.000000
O O9 0.188818 0.188818 0.500000
O O10 0.144234 0.144234 0.719488
O O11 0.187452 0.374903 0.843126
O O12 0.246133 0.360834 0.000000
O O13 0.096124 0.048062 0.715420
O O14 0.096890 0.096890 0.500000
O O15 0.665889 0.220354 0.500000
O O16 0.617174 0.234348 0.303249
O O17 0.711203 0.288798 0.314511
#
# Coordination Sequence:
#
# PCOD8329306 Si02
#       6
#    24  24  12  24  12  24
#     4   9  16  25  38  55  73  96 125 150 176 217
#     4   8  14  24  36  49  65  87 117 152 189 225
#     4   9  16  25  35  50  75 101 123 153 190 222
#     4   8  14  25  39  53  70  91 115 148 188 223
#     4   9  15  22  33  49  71 101 136 169 197 224
#     4   9  16  24  33  46  67  96 128 160 191 219
#
# _framework density 14.125709000000001
#
# number of rings (size 3 to 8) (size 9 to 14) (size 15 to 20)
#    0.000    3.400    0.000    2.100    0.000    4.800 
#    0.000    4.500    0.000    1.200    0.000    0.000 
#    0.000    0.000    0.000    1.500    0.000   36.100 
#
# Total GULP energy -1487312.975724 kJ/mol
# GULP energy per Si atom -12394.274798 kJ/mol
# Density = 1.409356 g / cm^3
# Si number density = 14.125709 Si / 1000 Ang^3
#
#
#
# Elastic Constant Matrix: (Units=GPa)
#
#
# Indices 1 2 3 4 5 6 
#
# 1 76.6793 55.5060 47.8199 0.0000 0.0000 0.0000
# 2 55.5060 76.6793 47.8199 0.0000 0.0000 0.0000
# 3 47.8199 47.8199 63.8973 0.0000 0.0000 0.0000
# 4 0.0000 0.0000 0.0000 12.3633 0.0000 0.0000
# 5 0.0000 0.0000 0.0000 0.0000 12.3633 0.0000
# 6 0.0000 0.0000 0.0000 0.0000 0.0000 10.5867
#
#
#
# Elastic Compliance Matrix: (Units=1/GPa)
#
#
# Indices 1 2 3 4 5 6 
#
# 1 0.031864 -0.015365 -0.012348 0.000000 0.000000 0.000000
# 2 -0.015365 0.031864 -0.012348 0.000000 0.000000 0.000000
# 3 -0.012348 -0.012348 0.034132 0.000000 0.000000 0.000000
# 4 0.000000 0.000000 0.000000 0.080884 0.000000 0.000000
# 5 0.000000 0.000000 0.000000 0.000000 0.080884 0.000000
# 6 0.000000 0.000000 0.000000 0.000000 0.000000 0.094459
#
#
# Mechanical properties :
#
#
# Convention : Reuss Voigt Hill
#
# Bulk Modulus (GPa) = 56.37238 57.72750 57.04994
# Shear Modulus (GPa) = 11.36051 11.47001 11.41526
#
# Velocity S-wave (km/s) = 2.83900 2.85264 2.84583
# Velocity P-wave (km/s) = 7.12326 7.19762 7.16054
#
# Compressibility (1/GPa) = 0.01773918
#
# Stress axis : x y z
#
# Youngs Moduli (GPa) = 31.38324 31.38324 29.29825
#
# Poissons Ratio (x) = 0.48221 0.36176
# Poissons Ratio (y) = 0.48221 0.36176
# Poissons Ratio (z) = 0.38751 0.38751
#
# Static dielectric constant tensor:
#      x y z
#    x 2.755560 0.000000 0.000000 
#    y 0.000000 2.755560 0.000000 
#    z 0.000000 0.000000 2.753430 
# 
# 
# High freq. dielectric constant tensor:
#      x y z
#    x 1.515540 0.000000 0.000000 
#    y 0.000000 1.515540 0.000000 
#    z 0.000000 0.000000 1.525020 
# 
# From -- ./inp_files/3234.got.cif
#   From: 2010.03.12/outbox.cif.g09.slc.cpg/sg191_2_cif.got.tgz:3234.got - 2010.04.01 12:09:02.
