data_PCOD8329185
_publ_section_title
;
Structure prediction by ZEFSAII (Michael W. Deem and Ramdas Pophale) SiO2 
 PCOD8329185
Probable space group: P 6/M M M
;
_chemical_formula_sum "Si O2"
_cell_formula_units_Z 168
_cell_length_a 18.313898
_cell_length_b 18.313898
_cell_length_c 34.941856
_cell_angle_alpha 90.000000
_cell_angle_beta 90.000000
_cell_angle_gamma 120.000000
_cell_volume 10149.348924
_symmetry_space_group_name_H-M "P 6/M M M"
_symmetry_group_IT_number 191
_symmetry_cell_setting 'hexagonal'
loop_
_space_group_symop_operation_xyz
x,y,z
x-y,x,z
-y,x-y,z
-x,-y,z
-x+y,-x,z
y,-x+y,z
x-y,-y,-z
-x,-x+y,-z
y,x,-z
-y,-x,-z
-x+y,y,-z
x,x-y,-z
-x,-y,-z
-x+y,-x,-z
y,-x+y,-z
x,y,-z
x-y,x,-z
-y,x-y,-z
-x+y,y,z
x,x-y,z
-y,-x,z
y,x,z
x-y,-y,z
-x,-x+y,z
loop_
_atom_site_type_symbol
_atom_site_label
_atom_site_fract_x
_atom_site_fract_y
_atom_site_fract_z
Si Si1 0.650580 0.907423 0.810671
Si Si2 0.166256 0.499585 0.543987
Si Si3 0.630812 0.099974 0.042445
Si Si4 0.165984 0.666850 0.668257
Si Si5 0.254421 0.904824 0.102470
Si Si6 0.500754 0.666295 0.755980
Si Si7 0.360991 0.095952 0.394085
O O1 0.679593 0.839797 0.800901
O O2 0.617483 0.898430 0.854188
O O3 0.576924 0.897290 0.782819
O O4 0.731218 0.000000 0.804292
O O5 0.139670 0.475962 0.500000
O O6 0.264038 0.528076 0.550385
O O7 0.153653 0.576827 0.557130
O O8 0.107386 0.417082 0.568612
O O9 0.568430 0.136859 0.050675
O O10 0.702379 0.132953 0.074718
O O11 0.577431 0.000000 0.044459
O O12 0.671208 0.128548 0.000000
O O13 0.153565 0.576783 0.655682
O O14 0.263985 0.736016 0.662190
O O15 0.138514 0.664889 0.712076
O O16 0.107580 0.690078 0.643064
O O17 0.153425 0.846576 0.097831
O O18 0.279545 0.000000 0.091461
O O19 0.477470 0.738735 0.762830
O O20 0.421095 0.578906 0.768048
O O21 0.328579 0.164290 0.394046
O O22 0.281656 0.000000 0.394028
#
# Coordination Sequence:
#
# PCOD8329185 Si02
#       7
#    24  24  24  24  24  24  24
#     4   9  18  31  45  62  85 113 145 182 225 268
#     4   9  17  29  46  69  98 131 162 187 211 246
#     4   8  14  25  41  61  84 109 137 169 205 245
#     4   9  17  29  46  68  95 126 155 179 204 242
#     4   9  17  29  45  64  86 113 145 181 220 263
#     4   9  17  29  45  66  93 124 154 180 207 244
#     4  10  21  35  49  66  89 117 149 187 232 276
#
# _framework density 16.552785
#
# number of rings (size 3 to 8) (size 9 to 14) (size 15 to 20)
#    0.000    3.000    0.000    1.286    0.000    4.857 
#    0.000    5.000    0.000    0.714    0.000    2.000 
#    0.000    0.000    0.000   14.286    0.000    7.429 
#
# Total GULP energy -2082423.866404 kJ/mol
# GULP energy per Si atom -12395.380157 kJ/mol
# Density = 1.651511 g / cm^3
# Si number density = 16.552785 Si / 1000 Ang^3
#
#
#
# Elastic Constant Matrix: (Units=GPa)
#
#
# Indices 1 2 3 4 5 6 
#
# 1 86.5901 55.9363 44.2914 0.0000 0.0000 0.0000
# 2 55.9363 86.5901 44.2914 0.0000 0.0000 0.0000
# 3 44.2914 44.2914 81.6489 0.0000 0.0000 0.0000
# 4 0.0000 0.0000 0.0000 19.8396 0.0000 0.0000
# 5 0.0000 0.0000 0.0000 0.0000 19.8396 0.0000
# 6 0.0000 0.0000 0.0000 0.0000 0.0000 15.3269
#
#
#
# Elastic Compliance Matrix: (Units=1/GPa)
#
#
# Indices 1 2 3 4 5 6 
#
# 1 0.021604 -0.011019 -0.005742 0.000000 0.000000 0.000000
# 2 -0.011019 0.021604 -0.005742 0.000000 0.000000 0.000000
# 3 -0.005742 -0.005742 0.018477 0.000000 0.000000 0.000000
# 4 0.000000 0.000000 0.000000 0.050404 0.000000 0.000000
# 5 0.000000 0.000000 0.000000 0.000000 0.050404 0.000000
# 6 0.000000 0.000000 0.000000 0.000000 0.000000 0.065245
#
#
# Mechanical properties :
#
#
# Convention : Reuss Voigt Hill
#
# Bulk Modulus (GPa) = 59.95454 60.42970 60.19212
# Shear Modulus (GPa) = 17.96605 18.35522 18.16063
#
# Velocity S-wave (km/s) = 3.29808 3.33361 3.31590
# Velocity P-wave (km/s) = 7.12755 7.16965 7.14863
#
# Compressibility (1/GPa) = 0.01667930
#
# Stress axis : x y z
#
# Youngs Moduli (GPa) = 46.28842 46.28842 54.12101
#
# Poissons Ratio (x) = 0.51004 0.31076
# Poissons Ratio (y) = 0.51004 0.31076
# Poissons Ratio (z) = 0.26578 0.26578
#
# Static dielectric constant tensor:
#      x y z
#    x 2.981700 0.000000 0.000000 
#    y 0.000000 2.981700 0.000000 
#    z 0.000000 0.000000 3.358450 
# 
# 
# High freq. dielectric constant tensor:
#      x y z
#    x 1.612980 0.000000 0.000000 
#    y 0.000000 1.612980 0.000000 
#    z 0.000000 0.000000 1.650740 
# 
# From -- ./inp_files/10741.got.cif
#   From: 2010.03.12/outbox.cif.g09.slc.cpg/sg191_6_cif.got.tgz:10741.got - 2010.04.01 12:09:02.
