data_PCOD8329842
_publ_section_title
;
Structure prediction by ZEFSAII (Michael W. Deem and Ramdas Pophale) SiO2 
 PCOD8329842
Probable space group: P 63/M C M
;
_chemical_formula_sum "Si O2"
_cell_formula_units_Z 132
_cell_length_a 17.307123
_cell_length_b 17.307123
_cell_length_c 26.857470
_cell_angle_alpha 90.000000
_cell_angle_beta 90.000000
_cell_angle_gamma 120.000000
_cell_volume 6966.994879
_symmetry_space_group_name_H-M "P 63/M C M"
_symmetry_group_IT_number 193
_symmetry_cell_setting 'hexagonal'
loop_
_space_group_symop_operation_xyz
x,y,z
x-y,x,1/2+z
-y,x-y,z
-x,-y,1/2+z
-x+y,-x,z
y,-x+y,1/2+z
x-y,-y,1/2-z
-x,-x+y,1/2-z
y,x,1/2-z
-y,-x,-z
-x+y,y,-z
x,x-y,-z
-x,-y,-z
-x+y,-x,1/2-z
y,-x+y,-z
x,y,1/2-z
x-y,x,-z
-y,x-y,1/2-z
-x+y,y,1/2+z
x,x-y,1/2+z
-y,-x,1/2+z
y,x,z
x-y,-y,z
-x,-x+y,z
loop_
_atom_site_type_symbol
_atom_site_label
_atom_site_fract_x
_atom_site_fract_y
_atom_site_fract_z
Si Si1 0.103706 0.537260 0.111442
Si Si2 0.099854 0.662475 0.307016
Si Si3 0.822572 0.517019 0.038560
Si Si4 0.408595 0.228798 0.871355
Si Si5 0.657194 0.000000 0.509258
Si Si6 0.173381 0.000000 0.485437
Si Si7 0.738415 0.000000 0.606411
O O1 0.106799 0.588519 0.161314
O O2 0.165923 0.608285 0.068587
O O3 0.153210 0.484557 0.127547
O O4 0.000000 0.476199 0.093747
O O5 0.119002 0.650587 0.250000
O O6 0.175215 0.759789 0.324745
O O7 0.000000 0.648302 0.313393
O O8 0.816293 0.585975 0.076834
O O9 0.912075 0.568492 0.006569
O O10 0.738448 0.476895 0.000000
O O11 0.312522 0.221414 0.862511
O O12 0.663190 0.000000 0.569272
O O13 0.743961 0.000000 0.486439
O O14 0.084560 0.915441 0.500000
O O15 0.183121 0.000000 0.425541
#
# Coordination Sequence:
#
# PCOD8329842 Si02
#       7
#    24  24  24  24  12  12  12
#     4  10  21  37  58  84 120 156 195 246 300 351
#     4   9  21  43  67  88 110 147 193 236 298 369
#     4  11  20  35  54  81 113 164 210 241 284 335
#     4  11  21  36  59  87 118 148 194 248 292 346
#     4  10  18  34  54  75 106 158 215 243 273 332
#     4  10  19  32  48  74 114 154 195 247 289 341
#     4  10  20  34  53  84 117 144 202 246 278 337
#
# _framework density 18.946475
#
# number of rings (size 3 to 8) (size 9 to 14) (size 15 to 20)
#    0.545    1.273    3.636    1.727    1.273    1.455 
#   10.364    2.273    0.000    0.000    0.000    0.000 
#    0.000    0.000    0.000    0.000    0.000    0.000 
#
# Total GULP energy -1635823.644683 kJ/mol
# GULP energy per Si atom -12392.603369 kJ/mol
# Density = 1.890335 g / cm^3
# Si number density = 18.946475 Si / 1000 Ang^3
#
#
#
# Elastic Constant Matrix: (Units=GPa)
#
#
# Indices 1 2 3 4 5 6 
#
# 1 94.8035 53.0450 30.9803 0.0000 0.0000 0.0000
# 2 53.0450 94.8035 30.9803 0.0000 0.0000 0.0000
# 3 30.9803 30.9803 81.6805 0.0000 0.0000 0.0000
# 4 0.0000 0.0000 0.0000 21.1726 0.0000 0.0000
# 5 0.0000 0.0000 0.0000 0.0000 21.1726 0.0000
# 6 0.0000 0.0000 0.0000 0.0000 0.0000 20.8793
#
#
#
# Elastic Compliance Matrix: (Units=1/GPa)
#
#
# Indices 1 2 3 4 5 6 
#
# 1 0.015995 -0.007953 -0.003050 0.000000 0.000000 0.000000
# 2 -0.007953 0.015995 -0.003050 0.000000 0.000000 0.000000
# 3 -0.003050 -0.003050 0.014557 0.000000 0.000000 0.000000
# 4 0.000000 0.000000 0.000000 0.047231 0.000000 0.000000
# 5 0.000000 0.000000 0.000000 0.000000 0.047231 0.000000
# 6 0.000000 0.000000 0.000000 0.000000 0.000000 0.047894
#
#
# Mechanical properties :
#
#
# Convention : Reuss Voigt Hill
#
# Bulk Modulus (GPa) = 54.23075 55.69987 54.96531
# Shear Modulus (GPa) = 22.40598 23.06367 22.73482
#
# Velocity S-wave (km/s) = 3.44262 3.49278 3.46779
# Velocity P-wave (km/s) = 6.66989 6.76227 6.71624
#
# Compressibility (1/GPa) = 0.01843972
#
# Stress axis : x y z
#
# Youngs Moduli (GPa) = 62.52112 62.52112 68.69716
#
# Poissons Ratio (x) = 0.49721 0.20954
# Poissons Ratio (y) = 0.49721 0.20954
# Poissons Ratio (z) = 0.19070 0.19070
#
# Static dielectric constant tensor:
#      x y z
#    x 3.509200 0.000000 0.000000 
#    y 0.000000 3.509200 0.000000 
#    z 0.000000 0.000000 3.344650 
# 
# 
# High freq. dielectric constant tensor:
#      x y z
#    x 1.736310 0.000000 0.000000 
#    y 0.000000 1.736310 0.000000 
#    z 0.000000 0.000000 1.712740 
# 
# From -- ./inp_files/8364.got.cif
#   From: 2010.03.12/outbox.cif.g09.slc.cpg/sg193_5_cif.got.tgz:8364.got - 2010.04.01 12:20:39.
