data_PCOD8329627
_publ_section_title
;
Structure prediction by ZEFSAII (Michael W. Deem and Ramdas Pophale) SiO2 
 PCOD8329627
Probable space group: P 6/M C C
;
_chemical_formula_sum "Si O2"
_cell_formula_units_Z 168
_cell_length_a 22.489207
_cell_length_b 22.489207
_cell_length_c 21.600827
_cell_angle_alpha 90.000000
_cell_angle_beta 90.000000
_cell_angle_gamma 120.000000
_cell_volume 9461.266904
_symmetry_space_group_name_H-M "P 6/M C C"
_symmetry_group_IT_number 192
_symmetry_cell_setting 'hexagonal'
loop_
_space_group_symop_operation_xyz
x,y,z
x-y,x,z
-y,x-y,z
-x,-y,z
-x+y,-x,z
y,-x+y,z
x-y,-y,1/2-z
-x,-x+y,1/2-z
y,x,1/2-z
-y,-x,1/2-z
-x+y,y,1/2-z
x,x-y,1/2-z
-x,-y,-z
-x+y,-x,-z
y,-x+y,-z
x,y,-z
x-y,x,-z
-y,x-y,-z
-x+y,y,1/2+z
x,x-y,1/2+z
-y,-x,1/2+z
y,x,1/2+z
x-y,-y,1/2+z
-x,-x+y,1/2+z
loop_
_atom_site_type_symbol
_atom_site_label
_atom_site_fract_x
_atom_site_fract_y
_atom_site_fract_z
Si Si1 0.464498 0.393879 0.426469
Si Si2 0.033683 0.752830 0.388896
Si Si3 0.109656 0.369352 0.364414
Si Si4 0.786681 0.709517 0.741980
Si Si5 0.155647 0.753808 0.431432
Si Si6 0.603879 0.085120 0.072852
Si Si7 0.146509 0.121201 0.927571
O O1 0.455789 0.377141 0.500000
O O2 0.439408 0.327242 0.383837
O O3 0.420237 0.428471 0.403787
O O4 0.545078 0.441922 0.409161
O O5 0.072308 0.752848 0.324921
O O6 0.079682 0.744422 0.441025
O O7 0.038593 0.825927 0.390188
O O8 0.954511 0.694420 0.398757
O O9 0.098221 0.352549 0.291279
O O10 0.182763 0.380555 0.385683
O O11 0.774824 0.774824 0.750000
O O12 0.867590 0.735179 0.750000
O O13 0.190089 0.768495 0.500000
O O14 0.142389 0.680288 0.403383
O O15 0.608432 0.082716 0.000000
O O16 0.082928 0.129282 0.907411
O O17 0.161666 0.134795 0.000000
#
# Coordination Sequence:
#
# PCOD8329627 Si02
#       7
#    24  24  24  24  24  24  24
#     4   9  16  30  52  78 106 137 168 203 253 314
#     4  11  21  34  49  73 104 136 177 225 275 326
#     4  11  21  33  53  77 103 140 183 222 264 319
#     4  10  22  38  52  71  97 143 187 230 286 325
#     4  11  20  30  50  80 110 137 169 214 267 323
#     4   8  16  30  49  75 109 140 163 198 251 314
#     4  10  21  35  51  71  98 134 176 227 287 345
#
# _framework density 17.756606000000001
#
# number of rings (size 3 to 8) (size 9 to 14) (size 15 to 20)
#    0.000    2.000    2.857    2.714    2.000    3.429 
#    0.000    0.000    0.000    1.571    0.000    2.000 
#    0.000    0.000    0.000    0.000    0.000    0.000 
#
# Total GULP energy -2081373.664413 kJ/mol
# GULP energy per Si atom -12389.128955 kJ/mol
# Density = 1.771619 g / cm^3
# Si number density = 17.756606 Si / 1000 Ang^3
#
#
#
# Elastic Constant Matrix: (Units=GPa)
#
#
# Indices 1 2 3 4 5 6 
#
# 1 108.5271 49.7819 33.1266 0.0000 0.0000 0.0000
# 2 49.7819 108.5271 33.1266 0.0000 0.0000 0.0000
# 3 33.1266 33.1266 54.4826 0.0000 0.0000 0.0000
# 4 0.0000 0.0000 0.0000 21.9731 0.0000 0.0000
# 5 0.0000 0.0000 0.0000 0.0000 21.9731 0.0000
# 6 0.0000 0.0000 0.0000 0.0000 0.0000 29.3726
#
#
#
# Elastic Compliance Matrix: (Units=1/GPa)
#
#
# Indices 1 2 3 4 5 6 
#
# 1 0.012748 -0.004275 -0.005152 0.000000 0.000000 0.000000
# 2 -0.004275 0.012748 -0.005152 0.000000 0.000000 0.000000
# 3 -0.005152 -0.005152 0.024619 0.000000 0.000000 0.000000
# 4 0.000000 0.000000 0.000000 0.045510 0.000000 0.000000
# 5 0.000000 0.000000 0.000000 0.000000 0.045510 0.000000
# 6 0.000000 0.000000 0.000000 0.000000 0.000000 0.034045
#
#
# Mechanical properties :
#
#
# Convention : Reuss Voigt Hill
#
# Bulk Modulus (GPa) = 47.71422 55.95631 51.83527
# Shear Modulus (GPa) = 23.66052 25.03055 24.34553
#
# Velocity S-wave (km/s) = 3.65429 3.75860 3.70681
# Velocity P-wave (km/s) = 6.68840 7.10053 6.89754
#
# Compressibility (1/GPa) = 0.02095811
#
# Stress axis : x y z
#
# Youngs Moduli (GPa) = 78.44553 78.44553 40.61898
#
# Poissons Ratio (x) = 0.33535 0.20925
# Poissons Ratio (y) = 0.33535 0.20925
# Poissons Ratio (z) = 0.40412 0.40412
#
# Static dielectric constant tensor:
#      x y z
#    x 3.406530 0.000000 0.000000 
#    y 0.000000 3.406530 0.000000 
#    z 0.000000 0.000000 3.188300 
# 
# 
# High freq. dielectric constant tensor:
#      x y z
#    x 1.676000 0.000000 0.000000 
#    y 0.000000 1.676000 0.000000 
#    z 0.000000 0.000000 1.664720 
# 
# From -- ./inp_files/6033.got.cif
#   From: 2010.03.12/outbox.cif.g09.slc.cpg/sg192_4_cif.got.tgz:6033.got - 2010.04.01 12:16:15.
