data_PCOD8329476
_publ_section_title
;
Structure prediction by ZEFSAII (Michael W. Deem and Ramdas Pophale) SiO2 
 PCOD8329476
Probable space group: P 6/M C C
;
_chemical_formula_sum "Si O2"
_cell_formula_units_Z 120
_cell_length_a 24.303162
_cell_length_b 24.303162
_cell_length_c 14.415805
_cell_angle_alpha 90.000000
_cell_angle_beta 90.000000
_cell_angle_gamma 120.000000
_cell_volume 7373.863507
_symmetry_space_group_name_H-M "P 6/M C C"
_symmetry_group_IT_number 192
_symmetry_cell_setting 'hexagonal'
loop_
_space_group_symop_operation_xyz
x,y,z
x-y,x,z
-y,x-y,z
-x,-y,z
-x+y,-x,z
y,-x+y,z
x-y,-y,1/2-z
-x,-x+y,1/2-z
y,x,1/2-z
-y,-x,1/2-z
-x+y,y,1/2-z
x,x-y,1/2-z
-x,-y,-z
-x+y,-x,-z
y,-x+y,-z
x,y,-z
x-y,x,-z
-y,x-y,-z
-x+y,y,1/2+z
x,x-y,1/2+z
-y,-x,1/2+z
y,x,1/2+z
x-y,-y,1/2+z
-x,-x+y,1/2+z
loop_
_atom_site_type_symbol
_atom_site_label
_atom_site_fract_x
_atom_site_fract_y
_atom_site_fract_z
Si Si1 0.924597 0.375566 0.500000
Si Si2 0.855723 0.144279 0.646362
Si Si3 0.927407 0.072591 0.609353
Si Si4 0.748734 0.075638 0.000000
Si Si5 0.673093 0.748734 0.500000
Si Si6 0.924596 0.549029 0.500000
Si Si7 0.075662 0.537831 0.353359
O O1 0.898082 0.300473 0.500000
O O2 0.900773 0.395966 0.408169
O O3 0.000001 0.411851 0.500000
O O4 0.840996 0.159004 0.750000
O O5 0.893528 0.106468 0.657813
O O6 0.898843 0.209839 0.592699
O O7 0.790162 0.101162 0.592699
O O8 0.921759 0.078238 0.500000
O O9 0.999999 0.106115 0.641946
O O10 0.714534 0.999998 0.000000
O O11 0.597607 0.699527 0.500000
O O12 0.900773 0.504806 0.408169
O O13 0.105182 0.552591 0.250000
O O14 0.000000 0.500000 0.348540
#
# Coordination Sequence:
#
# PCOD8329476 Si02
#       7
#    12  24  24  12  12  12  24
#     4   8  15  26  42  64  88 117 149 177 208 251
#     4  11  23  35  48  66  89 118 155 203 253 303
#     4  10  19  33  51  68  84 104 138 194 268 342
#     4  10  20  35  50  64  87 120 160 199 237 288
#     4  10  20  35  50  64  87 120 160 199 237 288
#     4   8  15  26  42  64  88 117 149 177 208 251
#     4   8  13  23  40  65  95 118 137 167 202 232
#
# _framework density 16.273693000000002
#
# number of rings (size 3 to 8) (size 9 to 14) (size 15 to 20)
#    0.000    2.600    2.000    2.600    0.000    5.600 
#    0.000    4.000    0.000    1.200    0.000    0.000 
#    0.000    0.000    0.000   38.400    0.000   89.600 
#
# Total GULP energy -1487619.663582 kJ/mol
# GULP energy per Si atom -12396.830530 kJ/mol
# Density = 1.623665 g / cm^3
# Si number density = 16.273693 Si / 1000 Ang^3
#
#
#
# Elastic Constant Matrix: (Units=GPa)
#
#
# Indices 1 2 3 4 5 6 
#
# 1 89.4299 46.7834 46.3825 0.0000 0.0000 0.0000
# 2 46.7834 89.4299 46.3825 0.0000 0.0000 0.0000
# 3 46.3825 46.3825 150.0099 0.0000 0.0000 0.0000
# 4 0.0000 0.0000 0.0000 -0.4349 0.0000 0.0000
# 5 0.0000 0.0000 0.0000 0.0000 -0.4349 0.0000
# 6 0.0000 0.0000 0.0000 0.0000 0.0000 21.3233
#
#
#
# Elastic Compliance Matrix: (Units=1/GPa)
#
#
# Indices 1 2 3 4 5 6 
#
# 1 0.016374 -0.007074 -0.002875 0.000000 0.000000 0.000000
# 2 -0.007074 0.016374 -0.002875 0.000000 0.000000 0.000000
# 3 -0.002875 -0.002875 0.008444 0.000000 0.000000 0.000000
# 4 0.000000 0.000000 0.000000 -2.299427 0.000000 0.000000
# 5 0.000000 0.000000 0.000000 0.000000 -2.299427 0.000000
# 6 0.000000 0.000000 0.000000 0.000000 0.000000 0.046897
#
#
# Mechanical properties :
#
#
# Convention : Reuss Voigt Hill
#
# Bulk Modulus (GPa) = 64.34172 67.55182 65.94677
# Shear Modulus (GPa) = -1.11609 16.71212 7.79801
#
# Velocity S-wave (km/s) = -0.82904 3.20807 2.19139
# Velocity P-wave (km/s) = 6.22147 7.43789 6.85671
#
# Compressibility (1/GPa) = 0.01554201
#
# Stress axis : x y z
#
# Youngs Moduli (GPa) = 61.07198 61.07198 118.42214
#
# Poissons Ratio (x) = 0.43205 0.34051
# Poissons Ratio (y) = 0.43205 0.34051
# Poissons Ratio (z) = 0.17561 0.17561
#
# Static dielectric constant tensor:
#      x y z
#    x 3.008580 0.000000 0.000000 
#    y 0.000000 3.008580 0.000000 
#    z 0.000000 0.000000 3.225900 
# 
# 
# High freq. dielectric constant tensor:
#      x y z
#    x 1.598460 0.000000 0.000000 
#    y 0.000000 1.598460 0.000000 
#    z 0.000000 0.000000 1.637070 
# 
# From -- ./inp_files/3194.got.cif
#   From: 2010.03.12/outbox.cif.g09.slc.cpg/sg192_2_cif.got.tgz:3194.got - 2010.04.01 12:16:15.
