data_PCOD8329240
_publ_section_title
;
Structure prediction by ZEFSAII (Michael W. Deem and Ramdas Pophale) SiO2 
 PCOD8329240
Probable space group: P 6/M M M
;
_chemical_formula_sum "Si O2"
_cell_formula_units_Z 60
_cell_length_a 17.283583
_cell_length_b 17.283583
_cell_length_c 10.560445
_cell_angle_alpha 90.000000
_cell_angle_beta 90.000000
_cell_angle_gamma 120.000000
_cell_volume 2731.998206
_symmetry_space_group_name_H-M "P 6/M M M"
_symmetry_group_IT_number 191
_symmetry_cell_setting 'hexagonal'
loop_
_space_group_symop_operation_xyz
x,y,z
x-y,x,z
-y,x-y,z
-x,-y,z
-x+y,-x,z
y,-x+y,z
x-y,-y,-z
-x,-x+y,-z
y,x,-z
-y,-x,-z
-x+y,y,-z
x,x-y,-z
-x,-y,-z
-x+y,-x,-z
y,-x+y,-z
x,y,-z
x-y,x,-z
-y,x-y,-z
-x+y,y,z
x,x-y,z
-y,-x,z
y,x,z
x-y,-y,z
-x,-x+y,z
loop_
_atom_site_type_symbol
_atom_site_label
_atom_site_fract_x
_atom_site_fract_y
_atom_site_fract_z
Si Si1 0.848277 0.335657 0.274432
Si Si2 0.000000 0.692203 0.362149
Si Si3 0.000000 0.818644 0.856394
Si Si4 0.496012 0.334710 0.000000
O O1 0.845857 0.422929 0.323183
O O2 0.747633 0.252368 0.275924
O O3 0.911953 0.316952 0.362030
O O4 0.892289 0.353406 0.132070
O O5 0.000000 0.751256 0.246407
O O6 0.000000 0.734565 0.500000
O O7 0.914299 0.828597 0.834150
O O8 0.000000 0.784148 0.000000
O O9 0.604125 0.395876 0.000000
O O10 0.463189 0.231595 0.000000
#
# Coordination Sequence:
#
# PCOD8329240 Si02
#       4
#    24  12  12  12
#     4  10  21  38  62  90 125 169 220 272 325 383
#     4  12  27  43  60  92 137 176 212 263 325 383
#     4  10  23  45  75 105 132 163 206 259 315 379
#     4   8  15  29  53  85 116 148 194 257 320 373
#
# _framework density 21.961946999999999
#
# number of rings (size 3 to 8) (size 9 to 14) (size 15 to 20)
#    0.000    2.000    0.000    2.600    2.800    8.800 
#    0.000    3.000    0.000    3.600    0.000    0.000 
#    0.000    0.000    0.000    0.000    0.000    0.000 
#
# Total GULP energy -743349.932597 kJ/mol
# GULP energy per Si atom -12389.165543 kJ/mol
# Density = 2.191196 g / cm^3
# Si number density = 21.961947 Si / 1000 Ang^3
#
#
#
# Elastic Constant Matrix: (Units=GPa)
#
#
# Indices 1 2 3 4 5 6 
#
# 1 118.3376 47.3535 55.4212 0.0000 0.0000 0.0000
# 2 47.3535 118.3376 55.4212 0.0000 0.0000 0.0000
# 3 55.4212 55.4212 136.2539 0.0000 0.0000 0.0000
# 4 0.0000 0.0000 0.0000 12.5834 0.0000 0.0000
# 5 0.0000 0.0000 0.0000 0.0000 12.5834 0.0000
# 6 0.0000 0.0000 0.0000 0.0000 0.0000 35.4921
#
#
#
# Elastic Compliance Matrix: (Units=1/GPa)
#
#
# Indices 1 2 3 4 5 6 
#
# 1 0.011190 -0.002898 -0.003373 0.000000 0.000000 0.000000
# 2 -0.002898 0.011190 -0.003373 0.000000 0.000000 0.000000
# 3 -0.003373 -0.003373 0.010083 0.000000 0.000000 0.000000
# 4 0.000000 0.000000 0.000000 0.079470 0.000000 0.000000
# 5 0.000000 0.000000 0.000000 0.000000 0.079470 0.000000
# 6 0.000000 0.000000 0.000000 0.000000 0.000000 0.028175
#
#
# Mechanical properties :
#
#
# Convention : Reuss Voigt Hill
#
# Bulk Modulus (GPa) = 75.89823 76.59120 76.24472
# Shear Modulus (GPa) = 20.55459 26.44733 23.50096
#
# Velocity S-wave (km/s) = 3.06260 3.47397 3.27475
# Velocity P-wave (km/s) = 6.86586 7.14434 7.00648
#
# Compressibility (1/GPa) = 0.01317554
#
# Stress axis : x y z
#
# Youngs Moduli (GPa) = 89.36900 89.36900 99.17874
#
# Poissons Ratio (x) = 0.25900 0.33449
# Poissons Ratio (y) = 0.25900 0.33449
# Poissons Ratio (z) = 0.30140 0.30140
#
# Static dielectric constant tensor:
#      x y z
#    x 3.794990 0.000000 0.000000 
#    y 0.000000 3.794990 0.000000 
#    z 0.000000 0.000000 4.188740 
# 
# 
# High freq. dielectric constant tensor:
#      x y z
#    x 1.854210 0.000000 0.000000 
#    y 0.000000 1.854210 0.000000 
#    z 0.000000 0.000000 1.868900 
# 
# From -- ./inp_files/2249.got.cif
#   From: 2010.03.12/outbox.cif.g09.slc.cpg/sg191_2_cif.got.tgz:2249.got - 2010.04.01 12:09:02.
