data_PCOD8329569
_publ_section_title
;
Structure prediction by ZEFSAII (Michael W. Deem and Ramdas Pophale) SiO2 
 PCOD8329569
Probable space group: P 6/M C C
;
_chemical_formula_sum "Si O2"
_cell_formula_units_Z 144
_cell_length_a 21.117752
_cell_length_b 21.117752
_cell_length_c 19.623066
_cell_angle_alpha 90.000000
_cell_angle_beta 90.000000
_cell_angle_gamma 120.000000
_cell_volume 7578.667733
_symmetry_space_group_name_H-M "P 6/M C C"
_symmetry_group_IT_number 192
_symmetry_cell_setting 'hexagonal'
loop_
_space_group_symop_operation_xyz
x,y,z
x-y,x,z
-y,x-y,z
-x,-y,z
-x+y,-x,z
y,-x+y,z
x-y,-y,1/2-z
-x,-x+y,1/2-z
y,x,1/2-z
-y,-x,1/2-z
-x+y,y,1/2-z
x,x-y,1/2-z
-x,-y,-z
-x+y,-x,-z
y,-x+y,-z
x,y,-z
x-y,x,-z
-y,x-y,-z
-x+y,y,1/2+z
x,x-y,1/2+z
-y,-x,1/2+z
y,x,1/2+z
x-y,-y,1/2+z
-x,-x+y,1/2+z
loop_
_atom_site_type_symbol
_atom_site_label
_atom_site_fract_x
_atom_site_fract_y
_atom_site_fract_z
Si Si1 0.758572 0.082286 0.500000
Si Si2 0.274131 0.394167 0.143424
Si Si3 0.755457 0.760731 0.678975
Si Si4 0.844522 0.877422 0.420072
Si Si5 0.125784 0.387406 0.143531
Si Si6 0.086354 0.472251 0.251893
Si Si7 0.237782 0.906796 0.000000
O O1 0.719486 0.095342 0.435244
O O2 0.848206 0.146478 0.500000
O O3 0.736268 0.993812 0.500000
O O4 0.269660 0.329955 0.192190
O O5 0.208735 0.409526 0.156868
O O6 0.345939 0.462565 0.174903
O O7 0.797555 0.797555 0.750000
O O8 0.771611 0.816864 0.616522
O O9 0.773539 0.697867 0.662040
O O10 0.864055 0.955937 0.393511
O O11 0.833587 0.870737 0.500000
O O12 0.112286 0.444331 0.186138
O O13 0.109795 0.386457 0.062824
O O14 0.118432 0.559216 0.250000
O O15 0.000000 0.430512 0.250000
#
# Coordination Sequence:
#
# PCOD8329569 Si02
#       7
#    12  24  24  24  24  24  12
#     4  10  20  34  57  84 121 161 209 263 307 350
#     4  11  21  36  57  86 120 155 195 242 289 347
#     4  12  22  35  53  83 113 154 191 247 303 355
#     4  10  23  40  56  74 104 152 209 262 310 358
#     4  11  21  36  57  86 120 155 195 242 289 347
#     4  11  21  38  60  83 113 147 182 229 290 361
#     4  10  20  34  57  84 121 161 209 263 307 350
#
# _framework density 19.000700999999999
#
# number of rings (size 3 to 8) (size 9 to 14) (size 15 to 20)
#    0.000    1.167    5.000    1.667    2.333    2.667 
#    0.000    0.833    0.000    6.833    0.000    0.000 
#    0.000    0.000    0.000    0.000    0.000    2.667 
#
# Total GULP energy -1784039.342536 kJ/mol
# GULP energy per Si atom -12389.162101 kJ/mol
# Density = 1.895745 g / cm^3
# Si number density = 19.000701 Si / 1000 Ang^3
#
#
#
# Elastic Constant Matrix: (Units=GPa)
#
#
# Indices 1 2 3 4 5 6 
#
# 1 85.6613 52.4024 40.4267 0.0000 0.0000 0.0000
# 2 52.4024 85.6613 40.4267 0.0000 0.0000 0.0000
# 3 40.4267 40.4267 111.8986 0.0000 0.0000 0.0000
# 4 0.0000 0.0000 0.0000 25.5733 0.0000 0.0000
# 5 0.0000 0.0000 0.0000 0.0000 25.5733 0.0000
# 6 0.0000 0.0000 0.0000 0.0000 0.0000 16.6295
#
#
#
# Elastic Compliance Matrix: (Units=1/GPa)
#
#
# Indices 1 2 3 4 5 6 
#
# 1 0.019627 -0.010440 -0.003319 0.000000 0.000000 0.000000
# 2 -0.010440 0.019627 -0.003319 0.000000 0.000000 0.000000
# 3 -0.003319 -0.003319 0.011335 0.000000 0.000000 0.000000
# 4 0.000000 0.000000 0.000000 0.039103 0.000000 0.000000
# 5 0.000000 0.000000 0.000000 0.000000 0.039103 0.000000
# 6 0.000000 0.000000 0.000000 0.000000 0.000000 0.060134
#
#
# Mechanical properties :
#
#
# Convention : Reuss Voigt Hill
#
# Bulk Modulus (GPa) = 60.85563 61.08145 60.96854
# Shear Modulus (GPa) = 21.87579 23.55290 22.71434
#
# Velocity S-wave (km/s) = 3.39678 3.52459 3.46128
# Velocity P-wave (km/s) = 6.89071 6.98429 6.93766
#
# Compressibility (1/GPa) = 0.01643233
#
# Stress axis : x y z
#
# Youngs Moduli (GPa) = 50.95047 50.95047 88.22372
#
# Poissons Ratio (x) = 0.53193 0.29281
# Poissons Ratio (y) = 0.53193 0.29281
# Poissons Ratio (z) = 0.16910 0.16910
#
# Static dielectric constant tensor:
#      x y z
#    x 3.459380 0.000000 0.000000 
#    y 0.000000 3.459380 0.000000 
#    z 0.000000 0.000000 3.774250 
# 
# 
# High freq. dielectric constant tensor:
#      x y z
#    x 1.711920 0.000000 0.000000 
#    y 0.000000 1.711920 0.000000 
#    z 0.000000 0.000000 1.762500 
# 
# From -- ./inp_files/5194.got.cif
#   From: 2010.03.12/outbox.cif.g09.slc.cpg/sg192_3_cif.got.tgz:5194.got - 2010.04.01 12:16:15.
