data_PCOD8329143
_publ_section_title
;
Structure prediction by ZEFSAII (Michael W. Deem and Ramdas Pophale) SiO2 
 PCOD8329143
Probable space group: P 6/M M M
;
_chemical_formula_sum "Si O2"
_cell_formula_units_Z 120
_cell_length_a 17.491370
_cell_length_b 17.491370
_cell_length_c 24.676423
_cell_angle_alpha 90.000000
_cell_angle_beta 90.000000
_cell_angle_gamma 120.000000
_cell_volume 6538.234475
_symmetry_space_group_name_H-M "P 6/M M M"
_symmetry_group_IT_number 191
_symmetry_cell_setting 'hexagonal'
loop_
_space_group_symop_operation_xyz
x,y,z
x-y,x,z
-y,x-y,z
-x,-y,z
-x+y,-x,z
y,-x+y,z
x-y,-y,-z
-x,-x+y,-z
y,x,-z
-y,-x,-z
-x+y,y,-z
x,x-y,-z
-x,-y,-z
-x+y,-x,-z
y,-x+y,-z
x,y,-z
x-y,x,-z
-y,x-y,-z
-x+y,y,z
x,x-y,z
-y,-x,z
y,x,z
x-y,-y,z
-x,-x+y,z
loop_
_atom_site_type_symbol
_atom_site_label
_atom_site_fract_x
_atom_site_fract_y
_atom_site_fract_z
Si Si1 0.000000 0.652452 0.935834
Si Si2 0.000000 0.826501 0.935457
Si Si3 0.633701 0.732610 0.439158
Si Si4 0.468164 0.103899 0.660369
Si Si5 0.513118 0.666851 0.132711
Si Si6 0.101054 0.729462 0.236495
O O1 0.087582 0.653423 0.916022
O O2 0.000000 0.739731 0.913497
O O3 0.000000 0.651042 0.000000
O O4 0.913111 0.826221 0.913194
O O5 0.000000 0.827070 0.000000
O O6 0.596842 0.700504 0.500000
O O7 0.675924 0.837962 0.433834
O O8 0.711046 0.711046 0.425041
O O9 0.552667 0.684209 0.397627
O O10 0.574234 0.148468 0.665623
O O11 0.429584 0.134960 0.709001
O O12 0.425427 0.000000 0.663895
O O13 0.506815 0.753408 0.120986
O O14 0.415508 0.584493 0.136250
O O15 0.563197 0.673034 0.188340
O O16 0.165503 0.834498 0.226727
O O17 0.000000 0.707972 0.240596
#
# Coordination Sequence:
#
# PCOD8329143 Si02
#       6
#    12  12  24  24  24  24
#     4  11  23  39  59  81 109 145 182 215 257 321
#     4   9  17  31  53  81 111 141 175 216 259 303
#     4   9  17  29  46  70 101 138 179 221 265 314
#     4   9  17  29  48  74 101 130 169 217 265 313
#     4  11  23  39  59  83 110 141 178 224 273 320
#     4  10  20  35  57  83 110 141 179 222 267 314
#
# _framework density 18.353579
#
# number of rings (size 3 to 8) (size 9 to 14) (size 15 to 20)
#    0.000    2.200    1.000    2.400    0.000    3.600 
#    0.000    2.000    0.000    6.000    0.000    1.400 
#    0.000    4.800    0.000    0.200    0.000    0.000 
#
# Total GULP energy -1487782.658156 kJ/mol
# GULP energy per Si atom -12398.188818 kJ/mol
# Density = 1.831181 g / cm^3
# Si number density = 18.353579 Si / 1000 Ang^3
#
#
#
# Elastic Constant Matrix: (Units=GPa)
#
#
# Indices 1 2 3 4 5 6 
#
# 1 107.8288 57.0809 34.4884 0.0000 0.0000 0.0000
# 2 57.0809 107.8288 34.4884 0.0000 0.0000 0.0000
# 3 34.4884 34.4884 94.7581 0.0000 0.0000 0.0000
# 4 0.0000 0.0000 0.0000 21.0311 0.0000 0.0000
# 5 0.0000 0.0000 0.0000 0.0000 21.0311 0.0000
# 6 0.0000 0.0000 0.0000 0.0000 0.0000 25.3739
#
#
#
# Elastic Compliance Matrix: (Units=1/GPa)
#
#
# Indices 1 2 3 4 5 6 
#
# 1 0.013429 -0.006276 -0.002603 0.000000 0.000000 0.000000
# 2 -0.006276 0.013429 -0.002603 0.000000 0.000000 0.000000
# 3 -0.002603 -0.002603 0.012448 0.000000 0.000000 0.000000
# 4 0.000000 0.000000 0.000000 0.047549 0.000000 0.000000
# 5 0.000000 0.000000 0.000000 0.000000 0.047549 0.000000
# 6 0.000000 0.000000 0.000000 0.000000 0.000000 0.039411
#
#
# Mechanical properties :
#
#
# Convention : Reuss Voigt Hill
#
# Bulk Modulus (GPa) = 61.19783 62.50347 61.85065
# Shear Modulus (GPa) = 24.72472 25.77775 25.25124
#
# Velocity S-wave (km/s) = 3.67431 3.75174 3.71323
# Velocity P-wave (km/s) = 7.17056 7.27300 7.22196
#
# Compressibility (1/GPa) = 0.01634045
#
# Stress axis : x y z
#
# Youngs Moduli (GPa) = 74.46539 74.46539 80.33259
#
# Poissons Ratio (x) = 0.46736 0.20914
# Poissons Ratio (y) = 0.46736 0.20914
# Poissons Ratio (z) = 0.19386 0.19386
#
# Static dielectric constant tensor:
#      x y z
#    x 3.390520 0.000000 0.000000 
#    y 0.000000 3.390520 0.000000 
#    z 0.000000 0.000000 3.455100 
# 
# 
# High freq. dielectric constant tensor:
#      x y z
#    x 1.702720 0.000000 0.000000 
#    y 0.000000 1.702720 0.000000 
#    z 0.000000 0.000000 1.715900 
# 
# From -- ./inp_files/8531.got.cif
#   From: 2010.03.12/outbox.cif.g09.slc.cpg/sg191_5_cif.got.tgz:8531.got - 2010.04.01 12:09:02.
