data_PCOD8329883
_publ_section_title
;
Structure prediction by ZEFSAII (Michael W. Deem and Ramdas Pophale) SiO2 
 PCOD8329883
Probable space group: P 63/M C M
;
_chemical_formula_sum "Si O2"
_cell_formula_units_Z 104
_cell_length_a 18.105487
_cell_length_b 18.105487
_cell_length_c 20.768962
_cell_angle_alpha 90.000000
_cell_angle_beta 90.000000
_cell_angle_gamma 120.000000
_cell_volume 5896.113638
_symmetry_space_group_name_H-M "P 63/M C M"
_symmetry_group_IT_number 193
_symmetry_cell_setting 'hexagonal'
loop_
_space_group_symop_operation_xyz
x,y,z
x-y,x,1/2+z
-y,x-y,z
-x,-y,1/2+z
-x+y,-x,z
y,-x+y,1/2+z
x-y,-y,1/2-z
-x,-x+y,1/2-z
y,x,1/2-z
-y,-x,-z
-x+y,y,-z
x,x-y,-z
-x,-y,-z
-x+y,-x,1/2-z
y,-x+y,-z
x,y,1/2-z
x-y,x,-z
-y,x-y,1/2-z
-x+y,y,1/2+z
x,x-y,1/2+z
-y,-x,1/2+z
y,x,z
x-y,-y,z
-x,-x+y,z
loop_
_atom_site_type_symbol
_atom_site_label
_atom_site_fract_x
_atom_site_fract_y
_atom_site_fract_z
Si Si1 0.333334 0.666667 0.173384
Si Si2 0.170129 0.501325 0.000941
Si Si3 0.491779 0.833701 0.640358
Si Si4 0.257079 0.356613 0.250000
Si Si5 0.729197 0.099540 0.750000
Si Si6 0.901140 0.362569 0.868467
O O1 0.333334 0.666668 0.250000
O O2 0.299309 0.730287 0.148366
O O3 0.139944 0.458485 0.071414
O O4 0.271876 0.543751 0.000000
O O5 0.142520 0.571260 0.000000
O O6 0.129899 0.443107 0.937576
O O7 0.568373 0.877923 0.689356
O O8 0.423865 0.864781 0.650214
O O9 0.280431 0.280431 0.250000
O O10 0.155251 0.322053 0.250000
O O11 0.293025 0.415297 0.313032
O O12 0.701415 0.000000 0.750000
O O13 0.000000 0.423039 0.873799
#
# Coordination Sequence:
#
# PCOD8329883 Si02
#       6
#     8  24  24  12  12  24
#     4  12  21  33  52  71 106 145 194 220 246 291
#     4  10  19  31  47  67  97 133 177 216 255 292
#     4  11  21  32  48  75 106 141 177 217 250 290
#     4  10  21  39  57  72  95 129 172 210 253 319
#     4  12  23  35  53  78 103 127 160 210 267 311
#     4  10  21  35  52  72 101 140 177 216 263 311
#
# _framework density 17.638738
#
# number of rings (size 3 to 8) (size 9 to 14) (size 15 to 20)
#    0.000    1.385    1.154    7.154    0.000    6.000 
#    0.000    0.000    0.000    0.231    0.000    0.000 
#    0.000    0.000    0.000    0.000    0.000   28.154 
#
# Total GULP energy -1288417.632323 kJ/mol
# GULP energy per Si atom -12388.631080 kJ/mol
# Density = 1.759859 g / cm^3
# Si number density = 17.638738 Si / 1000 Ang^3
#
#
#
# Elastic Constant Matrix: (Units=GPa)
#
#
# Indices 1 2 3 4 5 6 
#
# 1 80.2954 31.3419 34.8978 0.0000 0.0000 0.0002
# 2 31.3419 80.2951 34.8973 0.0001 0.0002 0.0000
# 3 34.8978 34.8973 159.6391 0.0000 0.0000 0.0000
# 4 0.0000 0.0001 0.0000 23.5068 0.0002 -0.0001
# 5 0.0000 0.0002 0.0000 0.0002 23.5066 0.0000
# 6 0.0002 0.0000 0.0000 -0.0001 0.0000 24.4773
#
#
#
# Elastic Compliance Matrix: (Units=1/GPa)
#
#
# Indices 1 2 3 4 5 6 
#
# 1 0.015402 -0.005026 -0.002268 0.000000 0.000000 0.000000
# 2 -0.005026 0.015402 -0.002268 0.000000 0.000000 0.000000
# 3 -0.002268 -0.002268 0.007256 0.000000 0.000000 0.000000
# 4 0.000000 0.000000 0.000000 0.042541 0.000000 0.000000
# 5 0.000000 0.000000 0.000000 0.000000 0.042541 0.000000
# 6 0.000000 0.000000 0.000000 0.000000 0.000000 0.040854
#
#
# Mechanical properties :
#
#
# Convention : Reuss Voigt Hill
#
# Bulk Modulus (GPa) = 52.81376 58.05596 55.43486
# Shear Modulus (GPa) = 26.39480 28.90432 27.64956
#
# Velocity S-wave (km/s) = 3.87254 4.05246 3.96352
# Velocity P-wave (km/s) = 7.07124 7.40823 7.24169
#
# Compressibility (1/GPa) = 0.01893446
#
# Stress axis : x y z
#
# Youngs Moduli (GPa) = 64.92830 64.92826 137.82131
#
# Poissons Ratio (x) = 0.32633 0.31260
# Poissons Ratio (y) = 0.32633 0.31259
# Poissons Ratio (z) = 0.14727 0.14726
#
# Static dielectric constant tensor:
#      x y z
#    x 3.111050 0.000000 0.000000 
#    y 0.000000 3.111050 0.000000 
#    z 0.000000 0.000000 3.921040 
# 
# 
# High freq. dielectric constant tensor:
#      x y z
#    x 1.645590 0.000000 0.000000 
#    y 0.000000 1.645590 0.000000 
#    z 0.000000 0.000000 1.717040 
# 
# From -- ./inp_files/6338.got.cif
#   From: 2010.03.12/outbox.cif.g09.slc.cpg/sg193_4_cif.got.tgz:6338.got - 2010.04.01 12:20:39.
