data_PCOD8329647
_publ_section_title
;
Structure prediction by ZEFSAII (Michael W. Deem and Ramdas Pophale) SiO2 
 PCOD8329647
Probable space group: P 6/M C C
;
_chemical_formula_sum "Si O2"
_cell_formula_units_Z 120
_cell_length_a 15.281489
_cell_length_b 15.281489
_cell_length_c 27.201759
_cell_angle_alpha 90.000000
_cell_angle_beta 90.000000
_cell_angle_gamma 120.000000
_cell_volume 5501.219409
_symmetry_space_group_name_H-M "P 6/M C C"
_symmetry_group_IT_number 192
_symmetry_cell_setting 'hexagonal'
loop_
_space_group_symop_operation_xyz
x,y,z
x-y,x,z
-y,x-y,z
-x,-y,z
-x+y,-x,z
y,-x+y,z
x-y,-y,1/2-z
-x,-x+y,1/2-z
y,x,1/2-z
-y,-x,1/2-z
-x+y,y,1/2-z
x,x-y,1/2-z
-x,-y,-z
-x+y,-x,-z
y,-x+y,-z
x,y,-z
x-y,x,-z
-y,x-y,-z
-x+y,y,1/2+z
x,x-y,1/2+z
-y,-x,1/2+z
y,x,1/2+z
x-y,-y,1/2+z
-x,-x+y,1/2+z
loop_
_atom_site_type_symbol
_atom_site_label
_atom_site_fract_x
_atom_site_fract_y
_atom_site_fract_z
Si Si1 0.531197 0.113460 0.198640
Si Si2 0.797661 0.564747 0.443362
Si Si3 0.454186 0.879428 0.593015
Si Si4 0.087252 0.231748 0.615336
Si Si5 0.906748 0.236096 0.213582
O O1 0.585945 0.171890 0.250000
O O2 0.600958 0.156744 0.150260
O O3 0.427854 0.110811 0.184714
O O4 0.500000 0.000000 0.207673
O O5 0.818064 0.595171 0.500000
O O6 0.820267 0.474495 0.432913
O O7 0.681186 0.529549 0.431857
O O8 0.873195 0.663184 0.412599
O O9 0.500000 0.000000 0.588748
O O10 0.155008 0.182896 0.600298
O O11 0.090246 0.249645 0.674086
O O12 0.813920 0.186081 0.250000
O O13 0.000000 0.281296 0.250000
#
# Coordination Sequence:
#
# PCOD8329647 Si02
#       5
#    24  24  24  24  24
#     4  10  21  37  65 100 141 180 218 271 349 432
#     4  12  27  47  74 105 139 184 243 303 371 439
#     4  11  25  45  72 104 142 181 227 289 360 435
#     4  12  27  46  69 103 143 193 251 309 366 429
#     4  12  23  39  67 104 139 189 239 289 355 439
#
# _framework density 21.813344000000001
#
# number of rings (size 3 to 8) (size 9 to 14) (size 15 to 20)
#    0.000    0.600    6.000    2.400    5.600    4.000 
#    0.000    0.000    0.000    1.600    0.000    0.000 
#    0.000    0.000    0.000    0.000    0.000    0.000 
#
# Total GULP energy -1487612.527596 kJ/mol
# GULP energy per Si atom -12396.771063 kJ/mol
# Density = 2.176370 g / cm^3
# Si number density = 21.813344 Si / 1000 Ang^3
#
#
#
# Elastic Constant Matrix: (Units=GPa)
#
#
# Indices 1 2 3 4 5 6 
#
# 1 95.9266 24.4749 17.6062 0.0000 0.0000 0.0000
# 2 24.4749 95.9266 17.6062 0.0000 0.0000 0.0000
# 3 17.6062 17.6062 120.9285 0.0000 0.0000 0.0000
# 4 0.0000 0.0000 0.0000 31.8980 0.0000 0.0000
# 5 0.0000 0.0000 0.0000 0.0000 31.8980 0.0000
# 6 0.0000 0.0000 0.0000 0.0000 0.0000 35.7259
#
#
#
# Elastic Compliance Matrix: (Units=1/GPa)
#
#
# Indices 1 2 3 4 5 6 
#
# 1 0.011335 -0.002660 -0.001263 0.000000 0.000000 0.000000
# 2 -0.002660 0.011335 -0.001263 0.000000 0.000000 0.000000
# 3 -0.001263 -0.001263 0.008637 0.000000 0.000000 0.000000
# 4 0.000000 0.000000 0.000000 0.031350 0.000000 0.000000
# 5 0.000000 0.000000 0.000000 0.000000 0.031350 0.000000
# 6 0.000000 0.000000 0.000000 0.000000 0.000000 0.027991
#
#
# Mechanical properties :
#
#
# Convention : Reuss Voigt Hill
#
# Bulk Modulus (GPa) = 47.76699 48.01737 47.89218
# Shear Modulus (GPa) = 35.88110 36.77734 36.32922
#
# Velocity S-wave (km/s) = 4.06016 4.11055 4.08543
# Velocity P-wave (km/s) = 6.62762 6.67753 6.65263
#
# Compressibility (1/GPa) = 0.02093496
#
# Stress axis : x y z
#
# Youngs Moduli (GPa) = 88.22085 88.22085 115.77948
#
# Poissons Ratio (x) = 0.23469 0.14623
# Poissons Ratio (y) = 0.23469 0.14623
# Poissons Ratio (z) = 0.11142 0.11142
#
# Static dielectric constant tensor:
#      x y z
#    x 3.857280 0.000000 0.000000 
#    y 0.000000 3.857280 0.000000 
#    z 0.000000 0.000000 4.363060 
# 
# 
# High freq. dielectric constant tensor:
#      x y z
#    x 1.854840 0.000000 0.000000 
#    y 0.000000 1.854840 0.000000 
#    z 0.000000 0.000000 1.869080 
# 
# From -- ./inp_files/6946.got.cif
#   From: 2010.03.12/outbox.cif.g09.slc.cpg/sg192_4_cif.got.tgz:6946.got - 2010.04.01 12:16:15.
