data_PCOD8329818
_publ_section_title
;
Structure prediction by ZEFSAII (Michael W. Deem and Ramdas Pophale) SiO2 
 PCOD8329818
Probable space group: P 63/M C M
;
_chemical_formula_sum "Si O2"
_cell_formula_units_Z 96
_cell_length_a 28.146328
_cell_length_b 28.146328
_cell_length_c 8.924809
_cell_angle_alpha 90.000000
_cell_angle_beta 90.000000
_cell_angle_gamma 120.000000
_cell_volume 6123.123951
_symmetry_space_group_name_H-M "P 63/M C M"
_symmetry_group_IT_number 193
_symmetry_cell_setting 'hexagonal'
loop_
_space_group_symop_operation_xyz
x,y,z
x-y,x,1/2+z
-y,x-y,z
-x,-y,1/2+z
-x+y,-x,z
y,-x+y,1/2+z
x-y,-y,1/2-z
-x,-x+y,1/2-z
y,x,1/2-z
-y,-x,-z
-x+y,y,-z
x,x-y,-z
-x,-y,-z
-x+y,-x,1/2-z
y,-x+y,-z
x,y,1/2-z
x-y,x,-z
-y,x-y,1/2-z
-x+y,y,1/2+z
x,x-y,1/2+z
-y,-x,1/2+z
y,x,z
x-y,-y,z
-x,-x+y,z
loop_
_atom_site_type_symbol
_atom_site_label
_atom_site_fract_x
_atom_site_fract_y
_atom_site_fract_z
Si Si1 0.399447 0.399447 0.076011
Si Si2 0.819777 0.542049 0.572709
Si Si3 0.887580 0.392993 0.572845
Si Si4 0.786555 0.668684 0.424969
Si Si5 0.702130 0.702130 0.072669
O O1 0.386386 0.386386 0.250000
O O2 0.404122 0.456510 0.029928
O O3 0.350882 0.350882 0.986847
O O4 0.760567 0.521134 0.500000
O O5 0.814430 0.533042 0.750000
O O6 0.842416 0.506044 0.498442
O O7 0.859660 0.605663 0.529812
O O8 0.879074 0.439537 0.500000
O O9 0.879020 0.391667 0.750000
O O10 0.846120 0.692240 0.500000
O O11 0.797298 0.674932 0.250000
O O12 0.757669 0.703107 0.480717
O O13 0.697107 0.697107 0.250000
#
# Coordination Sequence:
#
# PCOD8329818 Si02
#       5
#    12  24  24  24  12
#     4  10  21  33  47  70  98 128 162 199 239 287
#     4  10  19  33  52  72  94 121 153 194 238 286
#     4  11  22  35  50  71  97 127 161 198 243 293
#     4   9  18  30  47  69  95 126 162 197 234 277
#     4  10  18  31  49  70  97 132 165 199 240 281
#
# _framework density 15.678271000000001
#
# number of rings (size 3 to 8) (size 9 to 14) (size 15 to 20)
#    0.000    2.000    2.500    1.875    0.000    3.000 
#    0.000    0.000    0.000    0.500    0.000    3.500 
#    0.000    0.000    0.000    0.375    0.000    4.500 
#
# Total GULP energy -1190503.869540 kJ/mol
# GULP energy per Si atom -12401.081974 kJ/mol
# Density = 1.564259 g / cm^3
# Si number density = 15.678271 Si / 1000 Ang^3
#
#
#
# Elastic Constant Matrix: (Units=GPa)
#
#
# Indices 1 2 3 4 5 6 
#
# 1 124.5880 75.4832 47.0584 0.0000 0.0000 0.0000
# 2 75.4832 124.5880 47.0584 0.0000 0.0000 0.0000
# 3 47.0584 47.0584 59.0652 0.0000 0.0000 0.0000
# 4 0.0000 0.0000 0.0000 24.8773 0.0000 0.0000
# 5 0.0000 0.0000 0.0000 0.0000 24.8773 0.0000
# 6 0.0000 0.0000 0.0000 0.0000 0.0000 24.5524
#
#
#
# Elastic Compliance Matrix: (Units=1/GPa)
#
#
# Indices 1 2 3 4 5 6 
#
# 1 0.014180 -0.006185 -0.006369 0.000000 0.000000 0.000000
# 2 -0.006185 0.014180 -0.006369 0.000000 0.000000 0.000000
# 3 -0.006369 -0.006369 0.027080 0.000000 0.000000 0.000000
# 4 0.000000 0.000000 0.000000 0.040197 0.000000 0.000000
# 5 0.000000 0.000000 0.000000 0.000000 0.040197 0.000000
# 6 0.000000 0.000000 0.000000 0.000000 0.000000 0.040729
#
#
# Mechanical properties :
#
#
# Convention : Reuss Voigt Hill
#
# Bulk Modulus (GPa) = 56.84675 71.93792 64.39234
# Shear Modulus (GPa) = 22.69904 24.10416 23.40160
#
# Velocity S-wave (km/s) = 3.80913 3.92525 3.86763
# Velocity P-wave (km/s) = 7.46210 8.15641 7.81697
#
# Compressibility (1/GPa) = 0.01759116
#
# Stress axis : x y z
#
# Youngs Moduli (GPa) = 70.52415 70.52415 36.92812
#
# Poissons Ratio (x) = 0.43620 0.23521
# Poissons Ratio (y) = 0.43620 0.23521
# Poissons Ratio (z) = 0.44919 0.44919
#
# Static dielectric constant tensor:
#      x y z
#    x 3.046990 0.000000 0.000000 
#    y 0.000000 3.046990 0.000000 
#    z 0.000000 0.000000 3.027790 
# 
# 
# High freq. dielectric constant tensor:
#      x y z
#    x 1.587490 0.000000 0.000000 
#    y 0.000000 1.587490 0.000000 
#    z 0.000000 0.000000 1.611400 
# 
# From -- ./inp_files/1251.got.cif
#   From: 2010.03.12/outbox.cif.g09.slc.cpg/sg193_1_cif.got.tgz:1251.got - 2010.04.01 12:20:39.
