data_PCOD8329903
_publ_section_title
;
Structure prediction by ZEFSAII (Michael W. Deem and Ramdas Pophale) SiO2 
 PCOD8329903
Probable space group: P 63/M C M
;
_chemical_formula_sum "Si O2"
_cell_formula_units_Z 144
_cell_length_a 32.077715
_cell_length_b 32.077715
_cell_length_c 9.083031
_cell_angle_alpha 90.000000
_cell_angle_beta 90.000000
_cell_angle_gamma 120.000000
_cell_volume 8094.094623
_symmetry_space_group_name_H-M "P 63/M C M"
_symmetry_group_IT_number 193
_symmetry_cell_setting 'hexagonal'
loop_
_space_group_symop_operation_xyz
x,y,z
x-y,x,1/2+z
-y,x-y,z
-x,-y,1/2+z
-x+y,-x,z
y,-x+y,1/2+z
x-y,-y,1/2-z
-x,-x+y,1/2-z
y,x,1/2-z
-y,-x,-z
-x+y,y,-z
x,x-y,-z
-x,-y,-z
-x+y,-x,1/2-z
y,-x+y,-z
x,y,1/2-z
x-y,x,-z
-y,x-y,1/2-z
-x+y,y,1/2+z
x,x-y,1/2+z
-y,-x,1/2+z
y,x,z
x-y,-y,z
-x,-x+y,z
loop_
_atom_site_type_symbol
_atom_site_label
_atom_site_fract_x
_atom_site_fract_y
_atom_site_fract_z
Si Si1 0.722033 0.195010 0.077203
Si Si2 0.889879 0.612485 0.579062
Si Si3 0.528079 0.388923 0.077911
Si Si4 0.053968 0.860747 0.077779
Si Si5 0.944959 0.556791 0.920482
Si Si6 0.055767 0.766433 0.080279
O O1 0.732138 0.199594 0.250000
O O2 0.666459 0.176782 0.041243
O O3 0.753267 0.246734 0.000000
O O4 0.737621 0.158521 0.010687
O O5 0.876409 0.609164 0.750000
O O6 0.929076 0.596211 0.549142
O O7 0.911499 0.666677 0.525292
O O8 0.533726 0.399342 0.250000
O O9 0.579455 0.420546 0.000000
O O10 0.490614 0.404170 0.016357
O O11 0.056797 0.870070 0.250000
O O12 0.068125 0.820272 0.041765
O O13 0.000000 0.842819 0.020535
O O14 0.089645 0.910356 0.000000
O O15 0.937920 0.541686 0.750000
O O16 0.000000 0.579574 0.970604
O O17 0.067656 0.762316 0.250000
O O18 0.000000 0.729277 0.047940
#
# Coordination Sequence:
#
# PCOD8329903 Si02
#       6
#    24  24  24  24  24  24
#     4  10  21  37  56  78 102 131 167 205 250 303
#     4  10  19  31  49  74 104 138 176 216 253 292
#     4  10  21  36  55  78 102 130 165 204 250 303
#     4   9  19  35  53  74  99 127 161 201 247 298
#     4   9  18  32  49  71 102 139 177 215 251 287
#     4   9  18  32  48  68 100 140 177 214 253 292
#
# _framework density 17.790749000000002
#
# number of rings (size 3 to 8) (size 9 to 14) (size 15 to 20)
#    0.000    2.500    0.000    3.000    0.000    6.000 
#    0.000    3.333    0.000    0.500    0.000    0.000 
#    0.000    0.000    0.000    0.000    0.000    0.000 
#
# Total GULP energy -1786015.533244 kJ/mol
# GULP energy per Si atom -12402.885648 kJ/mol
# Density = 1.775026 g / cm^3
# Si number density = 17.790749 Si / 1000 Ang^3
#
#
#
# Elastic Constant Matrix: (Units=GPa)
#
#
# Indices 1 2 3 4 5 6 
#
# 1 98.6840 65.4981 57.5184 0.0000 0.0000 0.0000
# 2 65.4981 98.6840 57.5184 0.0000 0.0000 0.0000
# 3 57.5184 57.5184 89.5175 0.0000 0.0000 0.0000
# 4 0.0000 0.0000 0.0000 33.0696 0.0000 0.0000
# 5 0.0000 0.0000 0.0000 0.0000 33.0696 0.0000
# 6 0.0000 0.0000 0.0000 0.0000 0.0000 16.5929
#
#
#
# Elastic Compliance Matrix: (Units=1/GPa)
#
#
# Indices 1 2 3 4 5 6 
#
# 1 0.020606 -0.009527 -0.007118 0.000000 0.000000 0.000000
# 2 -0.009527 0.020606 -0.007118 0.000000 0.000000 0.000000
# 3 -0.007118 -0.007118 0.020318 0.000000 0.000000 0.000000
# 4 0.000000 0.000000 0.000000 0.030239 0.000000 0.000000
# 5 0.000000 0.000000 0.000000 0.000000 0.030239 0.000000
# 6 0.000000 0.000000 0.000000 0.000000 0.000000 0.060267
#
#
# Mechanical properties :
#
#
# Convention : Reuss Voigt Hill
#
# Bulk Modulus (GPa) = 71.41765 71.99507 71.70636
# Shear Modulus (GPa) = 21.32465 23.63646 22.48056
#
# Velocity S-wave (km/s) = 3.46589 3.64893 3.55858
# Velocity P-wave (km/s) = 7.49979 7.63600 7.56820
#
# Compressibility (1/GPa) = 0.01400214
#
# Stress axis : x y z
#
# Youngs Moduli (GPa) = 48.53004 48.53004 49.21629
#
# Poissons Ratio (x) = 0.46237 0.35033
# Poissons Ratio (y) = 0.46237 0.35033
# Poissons Ratio (z) = 0.34545 0.34545
#
# Static dielectric constant tensor:
#      x y z
#    x 3.250780 0.000000 0.000000 
#    y 0.000000 3.250780 0.000000 
#    z 0.000000 0.000000 3.271490 
# 
# 
# High freq. dielectric constant tensor:
#      x y z
#    x 1.679560 0.000000 0.000000 
#    y 0.000000 1.679560 0.000000 
#    z 0.000000 0.000000 1.694030 
# 
# From -- ./inp_files/1521.got.cif
#   From: 2010.03.12/outbox.cif.g09.slc.cpg/sg193_1_cif.got.tgz:1521.got - 2010.04.01 12:20:39.
