data_PCOD8329031
_publ_section_title
;
Structure prediction by ZEFSAII (Michael W. Deem and Ramdas Pophale) SiO2 
 PCOD8329031
Probable space group: P 6/M M M
;
_chemical_formula_sum "Si O2"
_cell_formula_units_Z 168
_cell_length_a 17.857173
_cell_length_b 17.857173
_cell_length_c 35.486224
_cell_angle_alpha 90.000000
_cell_angle_beta 90.000000
_cell_angle_gamma 120.000000
_cell_volume 9799.768884
_symmetry_space_group_name_H-M "P 6/M M M"
_symmetry_group_IT_number 191
_symmetry_cell_setting 'hexagonal'
loop_
_space_group_symop_operation_xyz
x,y,z
x-y,x,z
-y,x-y,z
-x,-y,z
-x+y,-x,z
y,-x+y,z
x-y,-y,-z
-x,-x+y,-z
y,x,-z
-y,-x,-z
-x+y,y,-z
x,x-y,-z
-x,-y,-z
-x+y,-x,-z
y,-x+y,-z
x,y,-z
x-y,x,-z
-y,x-y,-z
-x+y,y,z
x,x-y,z
-y,-x,z
y,x,z
x-y,-y,z
-x,-x+y,z
loop_
_atom_site_type_symbol
_atom_site_label
_atom_site_fract_x
_atom_site_fract_y
_atom_site_fract_z
Si Si1 0.331889 0.839040 0.745590
Si Si2 0.363546 0.266466 0.810261
Si Si3 0.531667 0.897537 0.958512
Si Si4 0.097710 0.730945 0.323359
Si Si5 0.160857 0.668182 0.392397
Si Si6 0.903345 0.645152 0.895425
Si Si7 0.265071 0.362247 0.456772
O O1 0.426789 0.853577 0.740249
O O2 0.262852 0.737148 0.743354
O O3 0.326350 0.878418 0.785566
O O4 0.313739 0.890027 0.713276
O O5 0.329927 0.164964 0.801933
O O6 0.286187 0.286187 0.800766
O O7 0.392831 0.291154 0.853660
O O8 0.429154 0.858307 0.952833
O O9 0.566520 0.862748 0.925154
O O10 0.578454 0.000000 0.955635
O O11 0.548823 0.870365 0.000000
O O12 0.165951 0.834050 0.323551
O O13 0.110156 0.685391 0.359638
O O14 0.000000 0.714656 0.323499
O O15 0.146399 0.573200 0.387684
O O16 0.262763 0.737238 0.390224
O O17 0.121173 0.674564 0.432136
O O18 0.845675 0.691350 0.896998
O O19 0.000000 0.717499 0.906387
O O20 0.286474 0.392034 0.500000
O O21 0.163756 0.327511 0.447591
O O22 0.285267 0.285267 0.447795
#
# Coordination Sequence:
#
# PCOD8329031 Si02
#       7
#    24  24  24  24  24  24  24
#     4  10  20  33  49  70  97 127 156 185 220 264
#     4   9  18  31  46  65  89 118 151 188 230 271
#     4   8  14  25  41  61  84 109 138 174 216 260
#     4  10  21  35  51  72  97 125 156 192 234 275
#     4  10  20  33  49  70  97 128 160 193 230 272
#     4   9  17  29  45  65  89 117 150 187 226 268
#     4   9  18  32  49  69  93 122 156 194 237 282
#
# _framework density 17.143263000000001
#
# number of rings (size 3 to 8) (size 9 to 14) (size 15 to 20)
#    0.000    2.714    0.000    2.000    0.000    4.000 
#    0.000    3.571    0.000    1.714    0.000    3.000 
#    0.000    6.857    0.000    3.857    0.000    4.286 
#
# Total GULP energy -2082386.442763 kJ/mol
# GULP energy per Si atom -12395.157397 kJ/mol
# Density = 1.710424 g / cm^3
# Si number density = 17.143263 Si / 1000 Ang^3
#
#
#
# Elastic Constant Matrix: (Units=GPa)
#
#
# Indices 1 2 3 4 5 6 
#
# 1 95.5652 64.8648 42.0628 0.0000 0.0000 0.0000
# 2 64.8648 95.5652 42.0628 0.0000 0.0000 0.0000
# 3 42.0628 42.0628 93.9611 0.0000 0.0000 0.0000
# 4 0.0000 0.0000 0.0000 20.9640 0.0000 0.0000
# 5 0.0000 0.0000 0.0000 0.0000 20.9640 0.0000
# 6 0.0000 0.0000 0.0000 0.0000 0.0000 15.3502
#
#
#
# Elastic Compliance Matrix: (Units=1/GPa)
#
#
# Indices 1 2 3 4 5 6 
#
# 1 0.020359 -0.012214 -0.003646 0.000000 0.000000 0.000000
# 2 -0.012214 0.020359 -0.003646 0.000000 0.000000 0.000000
# 3 -0.003646 -0.003646 0.013907 0.000000 0.000000 0.000000
# 4 0.000000 0.000000 0.000000 0.047701 0.000000 0.000000
# 5 0.000000 0.000000 0.000000 0.000000 0.047701 0.000000
# 6 0.000000 0.000000 0.000000 0.000000 0.000000 0.065146
#
#
# Mechanical properties :
#
#
# Convention : Reuss Voigt Hill
#
# Bulk Modulus (GPa) = 64.05086 64.78583 64.41835
# Shear Modulus (GPa) = 19.27599 20.52904 19.90251
#
# Velocity S-wave (km/s) = 3.35685 3.46424 3.41097
# Velocity P-wave (km/s) = 7.24347 7.33990 7.29185
#
# Compressibility (1/GPa) = 0.01561259
#
# Stress axis : x y z
#
# Youngs Moduli (GPa) = 49.11813 49.11813 71.90437
#
# Poissons Ratio (x) = 0.59992 0.26219
# Poissons Ratio (y) = 0.59992 0.26219
# Poissons Ratio (z) = 0.17910 0.17910
#
# Static dielectric constant tensor:
#      x y z
#    x 3.131230 0.000000 0.000000 
#    y 0.000000 3.131230 0.000000 
#    z 0.000000 0.000000 3.509370 
# 
# 
# High freq. dielectric constant tensor:
#      x y z
#    x 1.642580 0.000000 0.000000 
#    y 0.000000 1.642580 0.000000 
#    z 0.000000 0.000000 1.682360 
# 
# From -- ./inp_files/10763.got.cif
#   From: 2010.03.12/outbox.cif.g09.slc.cpg/sg191_6_cif.got.tgz:10763.got - 2010.04.01 12:09:02.
