data_PCOD8329218
_publ_section_title
;
Structure prediction by ZEFSAII (Michael W. Deem and Ramdas Pophale) SiO2 
 PCOD8329218
Probable space group: P 6/M M M
;
_chemical_formula_sum "Si O2"
_cell_formula_units_Z 144
_cell_length_a 31.565298
_cell_length_b 31.565298
_cell_length_c 9.277750
_cell_angle_alpha 90.000000
_cell_angle_beta 90.000000
_cell_angle_gamma 120.000000
_cell_volume 8005.585219
_symmetry_space_group_name_H-M "P 6/M M M"
_symmetry_group_IT_number 191
_symmetry_cell_setting 'hexagonal'
loop_
_space_group_symop_operation_xyz
x,y,z
x-y,x,z
-y,x-y,z
-x,-y,z
-x+y,-x,z
y,-x+y,z
x-y,-y,-z
-x,-x+y,-z
y,x,-z
-y,-x,-z
-x+y,y,-z
x,x-y,-z
-x,-y,-z
-x+y,-x,-z
y,-x+y,-z
x,y,-z
x-y,x,-z
-y,x-y,-z
-x+y,y,z
x,x-y,z
-y,-x,z
y,x,z
x-y,-y,z
-x,-x+y,z
loop_
_atom_site_type_symbol
_atom_site_label
_atom_site_fract_x
_atom_site_fract_y
_atom_site_fract_z
Si Si1 0.658396 0.144487 0.329779
Si Si2 0.945840 0.149004 0.333741
Si Si3 0.199059 0.901700 0.161788
Si Si4 0.522257 0.944644 0.163191
Si Si5 0.854722 0.610324 0.665136
Si Si6 0.569065 0.333195 0.832915
O O1 0.653254 0.147732 0.500000
O O2 0.617045 0.091843 0.275574
O O3 0.709704 0.149708 0.284453
O O4 0.653958 0.188056 0.258108
O O5 0.937811 0.157057 0.500000
O O6 0.906157 0.093844 0.284906
O O7 0.940907 0.189730 0.244043
O O8 0.000000 0.157129 0.306932
O O9 0.149704 0.850297 0.164180
O O10 0.241307 0.895921 0.240468
O O11 0.216341 0.920405 0.000000
O O12 0.469712 0.939424 0.177471
O O13 0.564017 0.000000 0.201485
O O14 0.529769 0.931664 0.000000
O O15 0.871326 0.622336 0.500000
O O16 0.802133 0.604265 0.691217
O O17 0.563698 0.281849 0.781957
O O18 0.624784 0.375217 0.806510
O O19 0.554800 0.330816 0.000000
#
# Coordination Sequence:
#
# PCOD8329218 Si02
#       6
#    24  24  24  24  24  24
#     4  11  22  34  52  80 109 135 167 209 257 311
#     4   9  17  30  49  72  99 133 171 208 248 297
#     4   9  17  29  47  71  95 120 156 201 243 283
#     4   9  19  37  58  76  96 126 164 205 250 301
#     4   9  18  33  50  68  97 136 170 199 238 293
#     4  10  21  37  56  77 104 141 184 226 266 310
#
# _framework density 17.987441
#
# number of rings (size 3 to 8) (size 9 to 14) (size 15 to 20)
#    0.000    2.500    0.000    2.667    0.000    8.333 
#    0.000    3.333    0.000    2.167    0.000    1.167 
#    0.000    0.000    0.000    4.167    0.000    4.333 
#
# Total GULP energy -1785612.837828 kJ/mol
# GULP energy per Si atom -12400.089152 kJ/mol
# Density = 1.794650 g / cm^3
# Si number density = 17.987441 Si / 1000 Ang^3
#
#
#
# Elastic Constant Matrix: (Units=GPa)
#
#
# Indices 1 2 3 4 5 6 
#
# 1 88.9667 42.3235 46.3406 0.0000 0.0000 0.0000
# 2 42.3235 88.9667 46.3406 0.0000 0.0000 0.0000
# 3 46.3406 46.3406 80.3661 0.0000 0.0000 0.0000
# 4 0.0000 0.0000 0.0000 25.0804 0.0000 0.0000
# 5 0.0000 0.0000 0.0000 0.0000 25.0804 0.0000
# 6 0.0000 0.0000 0.0000 0.0000 0.0000 23.3216
#
#
#
# Elastic Compliance Matrix: (Units=1/GPa)
#
#
# Indices 1 2 3 4 5 6 
#
# 1 0.017142 -0.004297 -0.007407 0.000000 0.000000 0.000000
# 2 -0.004297 0.017142 -0.007407 0.000000 0.000000 0.000000
# 3 -0.007407 -0.007407 0.020985 0.000000 0.000000 0.000000
# 4 0.000000 0.000000 0.000000 0.039872 0.000000 0.000000
# 5 0.000000 0.000000 0.000000 0.000000 0.039872 0.000000
# 6 0.000000 0.000000 0.000000 0.000000 0.000000 0.042879
#
#
# Mechanical properties :
#
#
# Convention : Reuss Voigt Hill
#
# Bulk Modulus (GPa) = 58.65722 58.70099 58.67910
# Shear Modulus (GPa) = 22.54319 22.91613 22.72966
#
# Velocity S-wave (km/s) = 3.54400 3.57320 3.55863
# Velocity P-wave (km/s) = 7.03047 7.05187 7.04118
#
# Compressibility (1/GPa) = 0.01704820
#
# Stress axis : x y z
#
# Youngs Moduli (GPa) = 58.33486 58.33486 47.65308
#
# Poissons Ratio (x) = 0.25066 0.35296
# Poissons Ratio (y) = 0.25066 0.35296
# Poissons Ratio (z) = 0.43208 0.43208
#
# Static dielectric constant tensor:
#      x y z
#    x 3.326570 0.000000 0.000000 
#    y 0.000000 3.326570 0.000000 
#    z 0.000000 0.000000 3.378480 
# 
# 
# High freq. dielectric constant tensor:
#      x y z
#    x 1.688570 0.000000 0.000000 
#    y 0.000000 1.688570 0.000000 
#    z 0.000000 0.000000 1.697370 
# 
# From -- ./inp_files/1990.got.cif
#   From: 2010.03.12/outbox.cif.g09.slc.cpg/sg191_1_cif.got.tgz:1990.got - 2010.04.01 12:09:02.
