data_PCOD8329371
_publ_section_title
;
Structure prediction by ZEFSAII (Michael W. Deem and Ramdas Pophale) SiO2 
 PCOD8329371
Probable space group: P 6/M C C
;
_chemical_formula_sum "Si O2"
_cell_formula_units_Z 192
_cell_length_a 29.006404
_cell_length_b 29.006404
_cell_length_c 17.235321
_cell_angle_alpha 90.000000
_cell_angle_beta 90.000000
_cell_angle_gamma 120.000000
_cell_volume 12558.500612
_symmetry_space_group_name_H-M "P 6/M C C"
_symmetry_group_IT_number 192
_symmetry_cell_setting 'hexagonal'
loop_
_space_group_symop_operation_xyz
x,y,z
x-y,x,z
-y,x-y,z
-x,-y,z
-x+y,-x,z
y,-x+y,z
x-y,-y,1/2-z
-x,-x+y,1/2-z
y,x,1/2-z
-y,-x,1/2-z
-x+y,y,1/2-z
x,x-y,1/2-z
-x,-y,-z
-x+y,-x,-z
y,-x+y,-z
x,y,-z
x-y,x,-z
-y,x-y,-z
-x+y,y,1/2+z
x,x-y,1/2+z
-y,-x,1/2+z
y,x,1/2+z
x-y,-y,1/2+z
-x,-x+y,1/2+z
loop_
_atom_site_type_symbol
_atom_site_label
_atom_site_fract_x
_atom_site_fract_y
_atom_site_fract_z
Si Si1 0.695086 0.574001 0.159553
Si Si2 0.878914 0.304913 0.340447
Si Si3 0.416731 0.938841 0.089424
Si Si4 0.847103 0.694206 0.340846
Si Si5 0.690174 0.938894 0.408918
Si Si6 0.416731 0.477890 0.089424
Si Si7 0.210962 0.789039 0.409035
Si Si8 0.690174 0.751279 0.591082
O O1 0.706260 0.575892 0.250000
O O2 0.633135 0.535435 0.143036
O O3 0.727135 0.548496 0.115963
O O4 0.713509 0.633284 0.130175
O O5 0.902300 0.366865 0.356964
O O6 0.919775 0.286491 0.369826
O O7 0.821361 0.272865 0.384037
O O8 0.460749 0.921498 0.103021
O O9 0.440376 1.000000 0.113773
O O10 0.398776 0.931081 0.000000
O O11 0.852755 0.705509 0.250000
O O12 0.812267 0.718109 0.378153
O O13 0.815944 0.631888 0.359192
O O14 0.905843 0.718109 0.378153
O O15 0.680434 0.930082 0.500000
O O16 0.729368 1.000000 0.387024
O O17 0.398776 0.467695 0.000000
O O18 0.204944 0.795056 0.500000
O O19 0.680434 0.750351 0.500000
#
# Coordination Sequence:
#
# PCOD8329371 Si02
#       8
#    24  24  24  24  24  24  24  24
#     4  11  20  29  43  64  89 111 138 178 219 255
#     4  11  20  29  43  64  89 111 138 178 219 255
#     4   9  18  32  47  62  84 116 150 179 208 249
#     4  10  18  28  42  60  84 108 135 177 218 248
#     4  10  19  30  44  60  81 113 149 178 207 249
#     4   9  18  32  47  62  84 116 150 179 208 249
#     4  10  18  30  46  60  80 110 142 173 207 250
#     4  10  19  30  44  60  81 113 149 178 207 249
#
# _framework density 15.288449
#
# number of rings (size 3 to 8) (size 9 to 14) (size 15 to 20)
#    0.000    2.000    0.000    9.750    0.000    6.000 
#    0.000    1.250    0.000    0.000    0.000    0.000 
#    1.250    0.000    2.250    0.375    2.250    7.250 
#
# Total GULP energy -2380371.209082 kJ/mol
# GULP energy per Si atom -12397.766714 kJ/mol
# Density = 1.525365 g / cm^3
# Si number density = 15.288449 Si / 1000 Ang^3
#
#
#
# Elastic Constant Matrix: (Units=GPa)
#
#
# Indices 1 2 3 4 5 6 
#
# 1 85.4965 38.8140 33.4310 0.0000 0.0000 0.0000
# 2 38.8140 85.4965 33.4310 0.0000 0.0000 0.0000
# 3 33.4310 33.4310 80.8289 0.0000 0.0000 0.0000
# 4 0.0000 0.0000 0.0000 16.9151 0.0000 0.0000
# 5 0.0000 0.0000 0.0000 0.0000 16.9151 0.0000
# 6 0.0000 0.0000 0.0000 0.0000 0.0000 23.3413
#
#
#
# Elastic Compliance Matrix: (Units=1/GPa)
#
#
# Indices 1 2 3 4 5 6 
#
# 1 0.015884 -0.005538 -0.004279 0.000000 0.000000 0.000000
# 2 -0.005538 0.015884 -0.004279 0.000000 0.000000 0.000000
# 3 -0.004279 -0.004279 0.015911 0.000000 0.000000 0.000000
# 4 0.000000 0.000000 0.000000 0.059119 0.000000 0.000000
# 5 0.000000 0.000000 0.000000 0.000000 0.059119 0.000000
# 6 0.000000 0.000000 0.000000 0.000000 0.000000 0.042843
#
#
# Mechanical properties :
#
#
# Convention : Reuss Voigt Hill
#
# Bulk Modulus (GPa) = 51.31634 51.46379 51.39006
# Shear Modulus (GPa) = 20.53840 21.17735 20.85788
#
# Velocity S-wave (km/s) = 3.66921 3.72585 3.69764
# Velocity P-wave (km/s) = 7.18256 7.22801 7.20532
#
# Compressibility (1/GPa) = 0.01948697
#
# Stress axis : x y z
#
# Youngs Moduli (GPa) = 62.95796 62.95796 62.84764
#
# Poissons Ratio (x) = 0.34864 0.26893
# Poissons Ratio (y) = 0.34864 0.26893
# Poissons Ratio (z) = 0.26940 0.26940
#
# Static dielectric constant tensor:
#      x y z
#    x 3.028960 0.000000 0.000000 
#    y 0.000000 3.028960 0.000000 
#    z 0.000000 0.000000 2.983940 
# 
# 
# High freq. dielectric constant tensor:
#      x y z
#    x 1.563170 0.000000 0.000000 
#    y 0.000000 1.563170 0.000000 
#    z 0.000000 0.000000 1.602400 
# 
# From -- ./inp_files/3586.got.cif
#   From: 2010.03.12/outbox.cif.g09.slc.cpg/sg192_2_cif.got.tgz:3586.got - 2010.04.01 12:16:15.
