data_PCOD8329257
_publ_section_title
;
Structure prediction by ZEFSAII (Michael W. Deem and Ramdas Pophale) SiO2 
 PCOD8329257
Probable space group: P 6/M M M
;
_chemical_formula_sum "Si O2"
_cell_formula_units_Z 84
_cell_length_a 21.638576
_cell_length_b 21.638576
_cell_length_c 12.387762
_cell_angle_alpha 90.000000
_cell_angle_beta 90.000000
_cell_angle_gamma 120.000000
_cell_volume 5023.204266
_symmetry_space_group_name_H-M "P 6/M M M"
_symmetry_group_IT_number 191
_symmetry_cell_setting 'hexagonal'
loop_
_space_group_symop_operation_xyz
x,y,z
x-y,x,z
-y,x-y,z
-x,-y,z
-x+y,-x,z
y,-x+y,z
x-y,-y,-z
-x,-x+y,-z
y,x,-z
-y,-x,-z
-x+y,y,-z
x,x-y,-z
-x,-y,-z
-x+y,-x,-z
y,-x+y,-z
x,y,-z
x-y,x,-z
-y,x-y,-z
-x+y,y,z
x,x-y,z
-y,-x,z
y,x,z
x-y,-y,z
-x,-x+y,z
loop_
_atom_site_type_symbol
_atom_site_label
_atom_site_fract_x
_atom_site_fract_y
_atom_site_fract_z
Si Si1 0.862519 0.000000 0.128236
Si Si2 0.580239 0.862558 0.188982
Si Si3 0.000000 0.721984 0.129797
Si Si4 0.613520 0.081907 0.000000
Si Si5 0.333273 0.525013 0.623359
O O1 0.930615 0.069386 0.176582
O O2 0.792417 0.000000 0.166068
O O3 0.866807 0.000000 0.000000
O O4 0.583496 0.791748 0.160310
O O5 0.658791 0.930067 0.184724
O O6 0.531882 0.874156 0.103101
O O7 0.544843 0.857185 0.305371
O O8 0.000000 0.714040 0.000000
O O9 0.539905 0.079810 0.000000
O O10 0.598770 0.000000 0.000000
O O11 0.335922 0.503414 0.500000
O O12 0.274863 0.549725 0.638457
O O13 0.409317 0.590684 0.659534
#
# Coordination Sequence:
#
# PCOD8329257 Si02
#       5
#    12  24  12  12  24
#     4   9  17  28  45  69  98 130 165 205 246 287
#     4  11  20  33  52  73 100 130 168 210 246 294
#     4  11  20  33  47  71  98 138 174 203 241 301
#     4  11  21  34  50  71 101 135 168 203 246 297
#     4   9  18  33  53  75  98 127 164 208 258 308
#
# _framework density 16.722393
#
# number of rings (size 3 to 8) (size 9 to 14) (size 15 to 20)
#    0.000    1.857    2.857    2.571    0.000    2.857 
#    0.000    0.714    0.000    5.714    0.000    0.000 
#    0.000    0.000    0.000    0.857    0.000   26.429 
#
# Total GULP energy -1041524.173296 kJ/mol
# GULP energy per Si atom -12399.097301 kJ/mol
# Density = 1.668433 g / cm^3
# Si number density = 16.722393 Si / 1000 Ang^3
#
#
#
# Elastic Constant Matrix: (Units=GPa)
#
#
# Indices 1 2 3 4 5 6 
#
# 1 130.4345 70.6475 52.5633 0.0000 0.0000 0.0000
# 2 70.6475 130.4345 52.5633 0.0000 0.0000 0.0000
# 3 52.5633 52.5633 81.0545 0.0000 0.0000 0.0000
# 4 0.0000 0.0000 0.0000 23.6929 0.0000 0.0000
# 5 0.0000 0.0000 0.0000 0.0000 23.6929 0.0000
# 6 0.0000 0.0000 0.0000 0.0000 0.0000 29.8935
#
#
#
# Elastic Compliance Matrix: (Units=1/GPa)
#
#
# Indices 1 2 3 4 5 6 
#
# 1 0.012125 -0.004601 -0.004879 0.000000 0.000000 0.000000
# 2 -0.004601 0.012125 -0.004879 0.000000 0.000000 0.000000
# 3 -0.004879 -0.004879 0.018666 0.000000 0.000000 0.000000
# 4 0.000000 0.000000 0.000000 0.042207 0.000000 0.000000
# 5 0.000000 0.000000 0.000000 0.000000 0.042207 0.000000
# 6 0.000000 0.000000 0.000000 0.000000 0.000000 0.033452
#
#
# Mechanical properties :
#
#
# Convention : Reuss Voigt Hill
#
# Bulk Modulus (GPa) = 70.43910 77.05241 73.74575
# Shear Modulus (GPa) = 25.74235 26.53250 26.13743
#
# Velocity S-wave (km/s) = 3.92777 3.98759 3.95779
# Velocity P-wave (km/s) = 7.92363 8.20845 8.06729
#
# Compressibility (1/GPa) = 0.01419666
#
# Stress axis : x y z
#
# Youngs Moduli (GPa) = 82.47409 82.47409 53.57413
#
# Poissons Ratio (x) = 0.37946 0.26140
# Poissons Ratio (y) = 0.37946 0.26140
# Poissons Ratio (z) = 0.40241 0.40241
#
# Static dielectric constant tensor:
#      x y z
#    x 3.237560 0.000000 0.000000 
#    y 0.000000 3.237560 0.000000 
#    z 0.000000 0.000000 2.985550 
# 
# 
# High freq. dielectric constant tensor:
#      x y z
#    x 1.654230 0.000000 0.000000 
#    y 0.000000 1.654230 0.000000 
#    z 0.000000 0.000000 1.614070 
# 
# From -- ./inp_files/2483.got.cif
#   From: 2010.03.12/outbox.cif.g09.slc.cpg/sg191_2_cif.got.tgz:2483.got - 2010.04.01 12:09:02.
