data_PCOD8329037
_publ_section_title
;
Structure prediction by ZEFSAII (Michael W. Deem and Ramdas Pophale) SiO2 
 PCOD8329037
Probable space group: P 6/M M M
;
_chemical_formula_sum "Si O2"
_cell_formula_units_Z 108
_cell_length_a 17.989884
_cell_length_b 17.989884
_cell_length_c 22.620553
_cell_angle_alpha 90.000000
_cell_angle_beta 90.000000
_cell_angle_gamma 120.000000
_cell_volume 6340.019235
_symmetry_space_group_name_H-M "P 6/M M M"
_symmetry_group_IT_number 191
_symmetry_cell_setting 'hexagonal'
loop_
_space_group_symop_operation_xyz
x,y,z
x-y,x,z
-y,x-y,z
-x,-y,z
-x+y,-x,z
y,-x+y,z
x-y,-y,-z
-x,-x+y,-z
y,x,-z
-y,-x,-z
-x+y,y,-z
x,x-y,-z
-x,-y,-z
-x+y,-x,-z
y,-x+y,-z
x,y,-z
x-y,x,-z
-y,x-y,-z
-x+y,y,z
x,x-y,z
-y,-x,z
y,x,z
x-y,-y,z
-x,-x+y,z
loop_
_atom_site_type_symbol
_atom_site_label
_atom_site_fract_x
_atom_site_fract_y
_atom_site_fract_z
Si Si1 0.264440 0.902554 0.792574
Si Si2 0.647555 0.741058 0.658186
Si Si3 0.901998 0.632685 0.000000
Si Si4 0.838108 0.333079 0.433122
Si Si5 0.506604 0.668319 0.107869
O O1 0.163715 0.836285 0.807953
O O2 0.282952 0.892216 0.724266
O O3 0.324877 0.877853 0.829927
O O4 0.286702 0.000000 0.806551
O O5 0.677865 0.838933 0.642060
O O6 0.731201 0.731201 0.652480
O O7 0.577028 0.676602 0.612421
O O8 0.889123 0.574886 0.056928
O O9 0.833468 0.666935 0.000000
O O10 0.000000 0.712909 0.000000
O O11 0.867946 0.330218 0.500000
O O12 0.844536 0.422268 0.418919
O O13 0.740457 0.259544 0.422918
O O14 0.474195 0.737098 0.104229
O O15 0.426104 0.573897 0.100718
#
# Coordination Sequence:
#
# PCOD8329037 Si02
#       5
#    24  24  12  24  24
#     4   9  18  32  49  68  90 118 151 187 228 272
#     4   9  18  32  48  66  89 117 149 185 227 273
#     4  10  21  35  51  72  97 125 156 192 235 279
#     4   9  17  29  45  65  90 120 152 184 218 258
#     4  10  20  33  49  70  97 128 160 192 226 264
#
# _framework density 17.034648000000001
#
# number of rings (size 3 to 8) (size 9 to 14) (size 15 to 20)
#    0.000    2.667    0.000    1.444    0.000    4.889 
#    0.000    4.444    0.000    3.222    0.000    3.111 
#    0.000    5.333    0.000    5.778    0.000    6.222 
#
# Total GULP energy -1338868.623140 kJ/mol
# GULP energy per Si atom -12396.931696 kJ/mol
# Density = 1.699588 g / cm^3
# Si number density = 17.034648 Si / 1000 Ang^3
#
#
#
# Elastic Constant Matrix: (Units=GPa)
#
#
# Indices 1 2 3 4 5 6 
#
# 1 95.3475 68.6033 45.5818 0.0000 0.0000 0.0000
# 2 68.6033 95.3475 45.5818 0.0000 0.0000 0.0000
# 3 45.5818 45.5818 85.7646 0.0000 0.0000 0.0000
# 4 0.0000 0.0000 0.0000 22.1799 0.0000 0.0000
# 5 0.0000 0.0000 0.0000 0.0000 22.1799 0.0000
# 6 0.0000 0.0000 0.0000 0.0000 0.0000 13.3721
#
#
#
# Elastic Compliance Matrix: (Units=1/GPa)
#
#
# Indices 1 2 3 4 5 6 
#
# 1 0.023025 -0.014367 -0.004602 0.000000 0.000000 0.000000
# 2 -0.014367 0.023025 -0.004602 0.000000 0.000000 0.000000
# 3 -0.004602 -0.004602 0.016551 0.000000 0.000000 0.000000
# 4 0.000000 0.000000 0.000000 0.045086 0.000000 0.000000
# 5 0.000000 0.000000 0.000000 0.000000 0.045086 0.000000
# 6 0.000000 0.000000 0.000000 0.000000 0.000000 0.074783
#
#
# Mechanical properties :
#
#
# Convention : Reuss Voigt Hill
#
# Bulk Modulus (GPa) = 64.67904 66.22150 65.45027
# Shear Modulus (GPa) = 17.86687 19.32590 18.59638
#
# Velocity S-wave (km/s) = 3.24212 3.37190 3.30764
# Velocity P-wave (km/s) = 7.21572 7.35653 7.28647
#
# Compressibility (1/GPa) = 0.01546096
#
# Stress axis : x y z
#
# Youngs Moduli (GPa) = 43.43172 43.43172 60.41922
#
# Poissons Ratio (x) = 0.62397 0.27802
# Poissons Ratio (y) = 0.62397 0.27802
# Poissons Ratio (z) = 0.19985 0.19985
#
# Static dielectric constant tensor:
#      x y z
#    x 3.144840 0.000000 0.000000 
#    y 0.000000 3.144840 0.000000 
#    z 0.000000 0.000000 3.434610 
# 
# 
# High freq. dielectric constant tensor:
#      x y z
#    x 1.643070 0.000000 0.000000 
#    y 0.000000 1.643070 0.000000 
#    z 0.000000 0.000000 1.673930 
# 
# From -- ./inp_files/7304.got.cif
#   From: 2010.03.12/outbox.cif.g09.slc.cpg/sg191_4_cif.got.tgz:7304.got - 2010.04.01 12:09:02.
