data_PCOD8329207
_publ_section_title
;
Structure prediction by ZEFSAII (Michael W. Deem and Ramdas Pophale) SiO2 
 PCOD8329207
Probable space group: P 6/M M M
;
_chemical_formula_sum "Si O2"
_cell_formula_units_Z 144
_cell_length_a 31.373057
_cell_length_b 31.373057
_cell_length_c 8.933143
_cell_angle_alpha 90.000000
_cell_angle_beta 90.000000
_cell_angle_gamma 120.000000
_cell_volume 7614.626308
_symmetry_space_group_name_H-M "P 6/M M M"
_symmetry_group_IT_number 191
_symmetry_cell_setting 'hexagonal'
loop_
_space_group_symop_operation_xyz
x,y,z
x-y,x,z
-y,x-y,z
-x,-y,z
-x+y,-x,z
y,-x+y,z
x-y,-y,-z
-x,-x+y,-z
y,x,-z
-y,-x,-z
-x+y,y,-z
x,x-y,-z
-x,-y,-z
-x+y,-x,-z
y,-x+y,-z
x,y,-z
x-y,x,-z
-y,x-y,-z
-x+y,y,z
x,x-y,z
-y,-x,z
y,x,z
x-y,-y,z
-x,-x+y,z
loop_
_atom_site_type_symbol
_atom_site_label
_atom_site_fract_x
_atom_site_fract_y
_atom_site_fract_z
Si Si1 0.204161 0.149442 0.671166
Si Si2 0.142650 0.669586 0.822880
Si Si3 0.520500 0.576983 0.674554
Si Si4 0.707584 0.943381 0.173700
Si Si5 0.759114 0.142696 0.324967
Si Si6 0.762341 0.428953 0.178076
O O1 0.222731 0.162973 0.500000
O O2 0.184553 0.092277 0.705201
O O3 0.159169 0.159169 0.702997
O O4 0.249636 0.182066 0.778475
O O5 0.090508 0.625758 0.767601
O O6 0.155165 0.721689 0.756928
O O7 0.186085 0.660276 0.767078
O O8 0.140867 0.672476 0.000000
O O9 0.521911 0.588874 0.500000
O O10 0.466172 0.533829 0.720954
O O11 0.560006 0.560006 0.712217
O O12 0.659210 0.909638 0.267949
O O13 0.723963 0.000000 0.207283
O O14 0.696224 0.930538 0.000000
O O15 0.748280 0.138805 0.500000
O O16 0.814621 0.185380 0.287843
O O17 0.717117 0.434234 0.242210
O O18 0.758053 0.379027 0.242231
O O19 0.760259 0.427396 0.000000
#
# Coordination Sequence:
#
# PCOD8329207 Si02
#       6
#    24  24  24  24  24  24
#     4   9  17  30  49  73 102 137 176 216 259 309
#     4  11  22  35  54  81 112 143 177 220 268 317
#     4   9  19  37  59  81 107 142 183 225 271 322
#     4  10  21  36  55  80 107 134 168 214 267 318
#     4  11  24  40  57  77 104 142 184 220 260 316
#     4   9  17  30  50  77 108 139 170 206 251 303
#
# _framework density 18.910975000000001
#
# number of rings (size 3 to 8) (size 9 to 14) (size 15 to 20)
#    0.000    2.167    0.000    3.667    0.000    8.000 
#    0.000    0.833    0.000    0.167    0.000    1.167 
#    0.000    8.000    0.000    4.167    0.000    4.333 
#
# Total GULP energy -1785945.234258 kJ/mol
# GULP energy per Si atom -12402.397460 kJ/mol
# Density = 1.886793 g / cm^3
# Si number density = 18.910975 Si / 1000 Ang^3
#
#
#
# Elastic Constant Matrix: (Units=GPa)
#
#
# Indices 1 2 3 4 5 6 
#
# 1 117.9860 54.9731 41.7765 0.0000 0.0000 0.0000
# 2 54.9731 117.9860 41.7765 0.0000 0.0000 0.0000
# 3 41.7765 41.7765 65.1753 0.0000 0.0000 0.0000
# 4 0.0000 0.0000 0.0000 26.6726 0.0000 0.0000
# 5 0.0000 0.0000 0.0000 0.0000 26.6726 0.0000
# 6 0.0000 0.0000 0.0000 0.0000 0.0000 31.5064
#
#
#
# Elastic Compliance Matrix: (Units=1/GPa)
#
#
# Indices 1 2 3 4 5 6 
#
# 1 0.012122 -0.003747 -0.005368 0.000000 0.000000 0.000000
# 2 -0.003747 0.012122 -0.005368 0.000000 0.000000 0.000000
# 3 -0.005368 -0.005368 0.022225 0.000000 0.000000 0.000000
# 4 0.000000 0.000000 0.000000 0.037492 0.000000 0.000000
# 5 0.000000 0.000000 0.000000 0.000000 0.037492 0.000000
# 6 0.000000 0.000000 0.000000 0.000000 0.000000 0.031740
#
#
# Mechanical properties :
#
#
# Convention : Reuss Voigt Hill
#
# Bulk Modulus (GPa) = 57.13583 64.24440 60.69011
# Shear Modulus (GPa) = 26.59645 27.81171 27.20408
#
# Velocity S-wave (km/s) = 3.75427 3.83909 3.79692
# Velocity P-wave (km/s) = 7.00510 7.32784 7.16828
#
# Compressibility (1/GPa) = 0.01750215
#
# Stress axis : x y z
#
# Youngs Moduli (GPa) = 82.49190 82.49190 44.99391
#
# Poissons Ratio (x) = 0.30913 0.24154
# Poissons Ratio (y) = 0.30913 0.24154
# Poissons Ratio (z) = 0.44284 0.44284
#
# Static dielectric constant tensor:
#      x y z
#    x 3.549710 0.000000 0.000000 
#    y 0.000000 3.549710 0.000000 
#    z 0.000000 0.000000 3.333690 
# 
# 
# High freq. dielectric constant tensor:
#      x y z
#    x 1.739250 0.000000 0.000000 
#    y 0.000000 1.739250 0.000000 
#    z 0.000000 0.000000 1.721930 
# 
# From -- ./inp_files/1988.got.cif
#   From: 2010.03.12/outbox.cif.g09.slc.cpg/sg191_1_cif.got.tgz:1988.got - 2010.04.01 12:09:02.
