data_PCOD8329266
_publ_section_title
;
Structure prediction by ZEFSAII (Michael W. Deem and Ramdas Pophale) SiO2 
 PCOD8329266
Probable space group: P 6/M M M
;
_chemical_formula_sum "Si O2"
_cell_formula_units_Z 120
_cell_length_a 22.816372
_cell_length_b 22.816372
_cell_length_c 13.645091
_cell_angle_alpha 90.000000
_cell_angle_beta 90.000000
_cell_angle_gamma 120.000000
_cell_volume 6151.772212
_symmetry_space_group_name_H-M "P 6/M M M"
_symmetry_group_IT_number 191
_symmetry_cell_setting 'hexagonal'
loop_
_space_group_symop_operation_xyz
x,y,z
x-y,x,z
-y,x-y,z
-x,-y,z
-x+y,-x,z
y,-x+y,z
x-y,-y,-z
-x,-x+y,-z
y,x,-z
-y,-x,-z
-x+y,y,-z
x,x-y,-z
-x,-y,-z
-x+y,-x,-z
y,-x+y,-z
x,y,-z
x-y,x,-z
-y,x-y,-z
-x+y,y,z
x,x-y,z
-y,-x,z
y,x,z
x-y,-y,z
-x,-x+y,z
loop_
_atom_site_type_symbol
_atom_site_label
_atom_site_fract_x
_atom_site_fract_y
_atom_site_fract_z
Si Si1 0.334668 0.921354 0.388397
Si Si2 0.000000 0.745621 0.117273
Si Si3 0.387772 0.000000 0.884756
Si Si4 0.853115 0.706230 0.883205
Si Si5 0.366182 0.499609 0.792074
Si Si6 0.796770 0.074195 0.383560
Si Si7 0.775195 0.224806 0.883888
O O1 0.335612 0.899955 0.500000
O O2 0.352873 0.875273 0.321558
O O3 0.260577 0.907321 0.358399
O O4 0.389284 0.000000 0.372168
O O5 0.000000 0.678782 0.156950
O O6 0.931095 0.742973 0.156716
O O7 0.000000 0.745985 0.000000
O O8 0.455390 0.064142 0.849189
O O9 0.384653 0.000000 0.000000
O O10 0.814181 0.628362 0.848144
O O11 0.854702 0.709404 0.000000
O O12 0.422028 0.577973 0.798053
O O13 0.299922 0.490294 0.843602
O O14 0.803053 0.071488 0.500000
O O15 0.867966 0.132034 0.337352
O O16 0.775756 0.000000 0.339245
O O17 0.774078 0.225923 0.000000
#
# Coordination Sequence:
#
# PCOD8329266 Si02
#       7
#    24  12  12  12  24  24  12
#     4   9  19  36  57  86 122 153 186 236 300 365
#     4   9  16  29  52  79 110 149 193 240 294 346
#     4  11  21  36  60  88 117 150 189 243 305 360
#     4   9  16  30  52  78 111 150 193 240 292 346
#     4  12  25  40  60  89 119 153 198 245 300 370
#     4   8  14  26  47  75 108 148 191 236 289 346
#     4  11  24  42  61  83 116 159 203 253 302 350
#
# _framework density 19.506575000000002
#
# number of rings (size 3 to 8) (size 9 to 14) (size 15 to 20)
#    0.000    2.200    3.000    2.100    1.400    2.400 
#    0.600    1.000    0.000    0.400    0.000    2.800 
#    0.000    0.000    0.000    0.000    3.000    0.000 
#
# Total GULP energy -1487971.310135 kJ/mol
# GULP energy per Si atom -12399.760918 kJ/mol
# Density = 1.946218 g / cm^3
# Si number density = 19.506575 Si / 1000 Ang^3
#
#
#
# Elastic Constant Matrix: (Units=GPa)
#
#
# Indices 1 2 3 4 5 6 
#
# 1 141.2927 80.3558 39.0336 0.0000 0.0000 0.0000
# 2 80.3558 141.2927 39.0336 0.0000 0.0000 0.0000
# 3 39.0336 39.0336 64.1647 0.0000 0.0000 0.0000
# 4 0.0000 0.0000 0.0000 27.7019 0.0000 0.0000
# 5 0.0000 0.0000 0.0000 0.0000 27.7019 0.0000
# 6 0.0000 0.0000 0.0000 0.0000 0.0000 30.4685
#
#
#
# Elastic Compliance Matrix: (Units=1/GPa)
#
#
# Indices 1 2 3 4 5 6 
#
# 1 0.011076 -0.005334 -0.003493 0.000000 0.000000 0.000000
# 2 -0.005334 0.011076 -0.003493 0.000000 0.000000 0.000000
# 3 -0.003493 -0.003493 0.019835 0.000000 0.000000 0.000000
# 4 0.000000 0.000000 0.000000 0.036099 0.000000 0.000000
# 5 0.000000 0.000000 0.000000 0.000000 0.036099 0.000000
# 6 0.000000 0.000000 0.000000 0.000000 0.000000 0.032821
#
#
# Mechanical properties :
#
#
# Convention : Reuss Voigt Hill
#
# Bulk Modulus (GPa) = 57.64838 73.73290 65.69064
# Shear Modulus (GPa) = 28.18049 29.72961 28.95505
#
# Velocity S-wave (km/s) = 3.80500 3.90818 3.85694
# Velocity P-wave (km/s) = 6.99439 7.63192 7.32010
#
# Compressibility (1/GPa) = 0.01734654
#
# Stress axis : x y z
#
# Youngs Moduli (GPa) = 90.28397 90.28397 50.41661
#
# Poissons Ratio (x) = 0.48160 0.17611
# Poissons Ratio (y) = 0.48160 0.17611
# Poissons Ratio (z) = 0.31536 0.31536
#
# Static dielectric constant tensor:
#      x y z
#    x 3.616900 0.000000 0.000000 
#    y 0.000000 3.616900 0.000000 
#    z 0.000000 0.000000 3.617470 
# 
# 
# High freq. dielectric constant tensor:
#      x y z
#    x 1.739050 0.000000 0.000000 
#    y 0.000000 1.739050 0.000000 
#    z 0.000000 0.000000 1.778560 
# 
# From -- ./inp_files/4877.got.cif
#   From: 2010.03.12/outbox.cif.g09.slc.cpg/sg191_3_cif.got.tgz:4877.got - 2010.04.01 12:09:02.
