data_PCOD8329178
_publ_section_title
;
Structure prediction by ZEFSAII (Michael W. Deem and Ramdas Pophale) SiO2 
 PCOD8329178
Probable space group: P 6/M M M
;
_chemical_formula_sum "Si O2"
_cell_formula_units_Z 168
_cell_length_a 26.038891
_cell_length_b 26.038891
_cell_length_c 14.558048
_cell_angle_alpha 90.000000
_cell_angle_beta 90.000000
_cell_angle_gamma 120.000000
_cell_volume 8548.280134
_symmetry_space_group_name_H-M "P 6/M M M"
_symmetry_group_IT_number 191
_symmetry_cell_setting 'hexagonal'
loop_
_space_group_symop_operation_xyz
x,y,z
x-y,x,z
-y,x-y,z
-x,-y,z
-x+y,-x,z
y,-x+y,z
x-y,-y,-z
-x,-x+y,-z
y,x,-z
-y,-x,-z
-x+y,y,-z
x,x-y,-z
-x,-y,-z
-x+y,-x,-z
y,-x+y,-z
x,y,-z
x-y,x,-z
-y,x-y,-z
-x+y,y,z
x,x-y,z
-y,-x,z
y,x,z
x-y,-y,z
-x,-x+y,z
loop_
_atom_site_type_symbol
_atom_site_label
_atom_site_fract_x
_atom_site_fract_y
_atom_site_fract_z
Si Si1 0.340160 0.884197 0.107295
Si Si2 0.676065 0.932737 0.896404
Si Si3 0.456115 0.666267 0.757187
Si Si4 0.244036 0.064851 0.747833
Si Si5 0.545270 0.676472 0.603553
Si Si6 0.574624 0.574624 0.601389
Si Si7 0.224768 0.332518 0.400067
Si Si8 0.000000 0.445200 0.804932
O O1 0.279668 0.886179 0.118416
O O2 0.332372 0.823740 0.150571
O O3 0.387548 0.940753 0.163671
O O4 0.357989 0.887611 0.000000
O O5 0.715342 0.913168 0.838124
O O6 0.691749 0.000000 0.870778
O O7 0.694053 0.930361 0.000000
O O8 0.453104 0.726552 0.749364
O O9 0.389619 0.610382 0.760817
O O10 0.489494 0.657715 0.669881
O O11 0.221019 0.110510 0.726394
O O12 0.285611 0.059792 0.669614
O O13 0.186600 0.000000 0.759735
O O14 0.522863 0.677242 0.500000
O O15 0.577052 0.637059 0.607807
O O16 0.599339 0.739903 0.634970
O O17 0.545648 0.545648 0.500000
O O18 0.542079 0.542079 0.695106
O O19 0.249832 0.328037 0.500000
O O20 0.156671 0.313342 0.408140
O O21 0.000000 0.500000 0.854923
#
# Coordination Sequence:
#
# PCOD8329178 Si02
#       8
#    24  24  24  24  24  12  24  12
#     4  11  23  40  64  92 120 152 192 239 295 358
#     4   9  18  34  56  85 120 151 178 217 275 346
#     4  12  27  46  65  84 110 150 203 259 310 352
#     4  10  21  34  53  80 113 154 195 237 281 331
#     4  10  21  38  62  91 123 155 187 229 285 357
#     4  10  22  36  57  94 130 159 187 219 279 358
#     4   9  18  32  52  81 114 149 187 224 271 334
#     4  12  23  37  60  91 125 160 195 235 284 347
#
# _framework density 19.653075999999999
#
# number of rings (size 3 to 8) (size 9 to 14) (size 15 to 20)
#    0.000    1.714    2.143    2.071    1.000    5.286 
#    0.000    2.857    0.000    1.857    0.000    0.000 
#    0.000    0.000    0.000    7.143    0.000    0.000 
#
# Total GULP energy -2081401.273794 kJ/mol
# GULP energy per Si atom -12389.293296 kJ/mol
# Density = 1.960835 g / cm^3
# Si number density = 19.653076 Si / 1000 Ang^3
#
#
#
# Elastic Constant Matrix: (Units=GPa)
#
#
# Indices 1 2 3 4 5 6 
#
# 1 90.7809 50.7224 41.4120 0.0000 0.0000 0.0000
# 2 50.7224 90.7809 41.4120 0.0000 0.0000 0.0000
# 3 41.4120 41.4120 115.0407 0.0000 0.0000 0.0000
# 4 0.0000 0.0000 0.0000 -244.5263 0.0000 0.0000
# 5 0.0000 0.0000 0.0000 0.0000 -244.5263 0.0000
# 6 0.0000 0.0000 0.0000 0.0000 0.0000 20.0293
#
#
#
# Elastic Compliance Matrix: (Units=1/GPa)
#
#
# Indices 1 2 3 4 5 6 
#
# 1 0.016958 -0.008005 -0.003223 0.000000 0.000000 0.000000
# 2 -0.008005 0.016958 -0.003223 0.000000 0.000000 0.000000
# 3 -0.003223 -0.003223 0.011013 0.000000 0.000000 0.000000
# 4 0.000000 0.000000 0.000000 -0.004090 0.000000 0.000000
# 5 0.000000 0.000000 0.000000 0.000000 -0.004090 0.000000
# 6 0.000000 0.000000 0.000000 0.000000 0.000000 0.049927
#
#
# Mechanical properties :
#
#
# Convention : Reuss Voigt Hill
#
# Bulk Modulus (GPa) = 62.39165 62.63281 62.51223
# Shear Modulus (GPa) = 41.34875 -82.93425 -20.79275
#
# Velocity S-wave (km/s) = 4.59184 -6.50313 -3.25620
# Velocity P-wave (km/s) = 7.74137 4.94462 4.21186
#
# Compressibility (1/GPa) = 0.01602779
#
# Stress axis : x y z
#
# Youngs Moduli (GPa) = 58.96756 58.96756 90.80168
#
# Poissons Ratio (x) = 0.47204 0.29266
# Poissons Ratio (y) = 0.47204 0.29266
# Poissons Ratio (z) = 0.19005 0.19005
#
# Static dielectric constant tensor:
#      x y z
#    x 3.396990 0.000000 0.000000 
#    y 0.000000 3.396990 0.000000 
#    z 0.000000 0.000000 3.979680 
# 
# 
# High freq. dielectric constant tensor:
#      x y z
#    x 1.747740 0.000000 0.000000 
#    y 0.000000 1.747740 0.000000 
#    z 0.000000 0.000000 1.782140 
# 
# From -- ./inp_files/5354.got.cif
#   From: 2010.03.12/outbox.cif.g09.slc.cpg/sg191_3_cif.got.tgz:5354.got - 2010.04.01 12:09:02.
