data_PCOD8329983
_publ_section_title
;
Structure prediction by ZEFSAII (Michael W. Deem and Ramdas Pophale) SiO2 
 PCOD8329983
Probable space group: P 63/M C M
;
_chemical_formula_sum "Si O2"
_cell_formula_units_Z 120
_cell_length_a 14.545986
_cell_length_b 14.545986
_cell_length_c 31.202984
_cell_angle_alpha 90.000000
_cell_angle_beta 90.000000
_cell_angle_gamma 120.000000
_cell_volume 5717.591067
_symmetry_space_group_name_H-M "P 63/M C M"
_symmetry_group_IT_number 193
_symmetry_cell_setting 'hexagonal'
loop_
_space_group_symop_operation_xyz
x,y,z
x-y,x,1/2+z
-y,x-y,z
-x,-y,1/2+z
-x+y,-x,z
y,-x+y,1/2+z
x-y,-y,1/2-z
-x,-x+y,1/2-z
y,x,1/2-z
-y,-x,-z
-x+y,y,-z
x,x-y,-z
-x,-y,-z
-x+y,-x,1/2-z
y,-x+y,-z
x,y,1/2-z
x-y,x,-z
-y,x-y,1/2-z
-x+y,y,1/2+z
x,x-y,1/2+z
-y,-x,1/2+z
y,x,z
x-y,-y,z
-x,-x+y,z
loop_
_atom_site_type_symbol
_atom_site_label
_atom_site_fract_x
_atom_site_fract_y
_atom_site_fract_z
Si Si1 0.875483 0.124002 0.880190
Si Si2 0.557898 0.210499 0.161975
Si Si3 0.120936 0.563590 0.426739
Si Si4 0.770555 0.648378 0.203503
Si Si5 0.774242 0.579387 0.046902
O O1 0.852641 0.169941 0.836224
O O2 0.814144 0.139564 0.919532
O O3 0.000000 0.188100 0.889308
O O4 0.836617 0.000000 0.875658
O O5 0.678051 0.234580 0.168981
O O6 0.528176 0.162921 0.114676
O O7 0.467193 0.132751 0.194771
O O8 0.132715 0.486574 0.460699
O O9 0.190212 0.685825 0.438501
O O10 0.000000 0.535530 0.420863
O O11 0.821055 0.646446 0.250000
O O12 0.733729 0.733729 0.206582
O O13 0.814989 0.629978 0.000000
#
# Coordination Sequence:
#
# PCOD8329983 Si02
#       5
#    24  24  24  24  24
#     4  11  24  44  67  91 123 167 219 274 328 384
#     4  10  19  36  61  89 123 161 206 249 304 368
#     4  12  22  39  64  90 125 170 213 259 316 377
#     4  10  21  39  64  93 125 162 205 260 326 390
#     4  12  25  41  62  96 134 167 212 266 319 385
#
# _framework density 20.987860999999999
#
# number of rings (size 3 to 8) (size 9 to 14) (size 15 to 20)
#    0.400    0.600    4.000    3.000    0.000    5.200 
#    0.000    1.000    0.000    2.400    0.000    0.000 
#    0.000    0.000    0.000    0.000    0.000    0.000 
#
# Total GULP energy -1486691.577167 kJ/mol
# GULP energy per Si atom -12389.096476 kJ/mol
# Density = 2.094009 g / cm^3
# Si number density = 20.987861 Si / 1000 Ang^3
#
#
#
# Elastic Constant Matrix: (Units=GPa)
#
#
# Indices 1 2 3 4 5 6 
#
# 1 84.7246 15.6063 19.2061 0.0000 0.0000 0.0000
# 2 15.6063 84.7246 19.2061 0.0000 0.0000 0.0000
# 3 19.2061 19.2061 114.7327 0.0000 0.0000 0.0000
# 4 0.0000 0.0000 0.0000 16.3468 0.0000 0.0000
# 5 0.0000 0.0000 0.0000 0.0000 16.3468 0.0000
# 6 0.0000 0.0000 0.0000 0.0000 0.0000 34.5592
#
#
#
# Elastic Compliance Matrix: (Units=1/GPa)
#
#
# Indices 1 2 3 4 5 6 
#
# 1 0.012559 -0.001909 -0.001783 0.000000 0.000000 0.000000
# 2 -0.001909 0.012559 -0.001783 0.000000 0.000000 0.000000
# 3 -0.001783 -0.001783 0.009313 0.000000 0.000000 0.000000
# 4 0.000000 0.000000 0.000000 0.061174 0.000000 0.000000
# 5 0.000000 0.000000 0.000000 0.000000 0.061174 0.000000
# 6 0.000000 0.000000 0.000000 0.000000 0.000000 0.028936
#
#
# Mechanical properties :
#
#
# Convention : Reuss Voigt Hill
#
# Bulk Modulus (GPa) = 42.58769 43.57989 43.08379
# Shear Modulus (GPa) = 24.45100 28.79477 26.62289
#
# Velocity S-wave (km/s) = 3.41692 3.70803 3.56545
# Velocity P-wave (km/s) = 5.99189 6.25636 6.12556
#
# Compressibility (1/GPa) = 0.02348097
#
# Stress axis : x y z
#
# Youngs Moduli (GPa) = 79.62580 79.62580 107.37951
#
# Poissons Ratio (x) = 0.15202 0.19143
# Poissons Ratio (y) = 0.15202 0.19143
# Poissons Ratio (z) = 0.14195 0.14195
#
# Static dielectric constant tensor:
#      x y z
#    x 3.641300 0.000000 0.000000 
#    y 0.000000 3.641300 0.000000 
#    z 0.000000 0.000000 4.109380 
# 
# 
# High freq. dielectric constant tensor:
#      x y z
#    x 1.812080 0.000000 0.000000 
#    y 0.000000 1.812080 0.000000 
#    z 0.000000 0.000000 1.824350 
# 
# From -- ./inp_files/8960.got.cif
#   From: 2010.03.12/outbox.cif.g09.slc.cpg/sg193_5_cif.got.tgz:8960.got - 2010.04.01 12:20:39.
