data_PCOD8329357
_publ_section_title
;
Structure prediction by ZEFSAII (Michael W. Deem and Ramdas Pophale) SiO2 
 PCOD8329357
Probable space group: P 6/M C C
;
_chemical_formula_sum "Si O2"
_cell_formula_units_Z 66
_cell_length_a 15.392301
_cell_length_b 15.392301
_cell_length_c 16.976101
_cell_angle_alpha 90.000000
_cell_angle_beta 90.000000
_cell_angle_gamma 120.000000
_cell_volume 3483.178068
_symmetry_space_group_name_H-M "P 6/M C C"
_symmetry_group_IT_number 192
_symmetry_cell_setting 'hexagonal'
loop_
_space_group_symop_operation_xyz
x,y,z
x-y,x,z
-y,x-y,z
-x,-y,z
-x+y,-x,z
y,-x+y,z
x-y,-y,1/2-z
-x,-x+y,1/2-z
y,x,1/2-z
-y,-x,1/2-z
-x+y,y,1/2-z
x,x-y,1/2-z
-x,-y,-z
-x+y,-x,-z
y,-x+y,-z
x,y,-z
x-y,x,-z
-y,x-y,-z
-x+y,y,1/2+z
x,x-y,1/2+z
-y,-x,1/2+z
y,x,1/2+z
x-y,-y,1/2+z
-x,-x+y,1/2+z
loop_
_atom_site_type_symbol
_atom_site_label
_atom_site_fract_x
_atom_site_fract_y
_atom_site_fract_z
Si Si1 0.367708 0.886149 0.500000
Si Si2 0.165166 0.460888 0.000000
Si Si3 0.342068 0.371210 0.632605
Si Si4 0.500000 0.000000 0.750000
Si Si5 0.206280 0.000000 0.750000
O O1 0.472134 0.888430 0.500000
O O2 0.284341 0.768349 0.500000
O O3 0.356676 0.936506 0.579033
O O4 0.124714 0.394523 0.078994
O O5 0.402256 0.464883 0.693956
O O6 0.269893 0.266016 0.673889
O O7 0.194143 0.097072 0.750000
#
# Coordination Sequence:
#
# PCOD8329357 Si02
#       5
#    12  12  24   6  12
#     4  11  20  35  56  84 116 151 194 237 286 336
#     4  11  20  35  56  84 116 151 194 237 286 336
#     4  10  20  36  59  81 107 156 192 238 280 348
#     4  10  16  34  58  76 110 138 202 232 280 328
#     4  11  23  39  59  86 114 148 189 245 301 351
#
# _framework density 18.948214
#
# number of rings (size 3 to 8) (size 9 to 14) (size 15 to 20)
#    0.000    1.455    3.636    3.818    0.000    0.000 
#    0.000    0.000    0.000    0.000    0.000   12.727 
#    0.000    0.000    0.000    0.000    0.000    0.000 
#
# Total GULP energy -817917.896327 kJ/mol
# GULP energy per Si atom -12392.695399 kJ/mol
# Density = 1.890509 g / cm^3
# Si number density = 18.948214 Si / 1000 Ang^3
#
#
#
# Elastic Constant Matrix: (Units=GPa)
#
#
# Indices 1 2 3 4 5 6 
#
# 1 109.0252 44.4253 47.6009 0.0000 0.0000 0.0000
# 2 44.4253 109.0252 47.6009 0.0000 0.0000 0.0000
# 3 47.6009 47.6009 126.2056 0.0000 0.0000 0.0000
# 4 0.0000 0.0000 0.0000 19.0869 0.0000 0.0000
# 5 0.0000 0.0000 0.0000 0.0000 19.0869 0.0000
# 6 0.0000 0.0000 0.0000 0.0000 0.0000 32.3000
#
#
#
# Elastic Compliance Matrix: (Units=1/GPa)
#
#
# Indices 1 2 3 4 5 6 
#
# 1 0.011994 -0.003486 -0.003209 0.000000 0.000000 0.000000
# 2 -0.003486 0.011994 -0.003209 0.000000 0.000000 0.000000
# 3 -0.003209 -0.003209 0.010344 0.000000 0.000000 0.000000
# 4 0.000000 0.000000 0.000000 0.052392 0.000000 0.000000
# 5 0.000000 0.000000 0.000000 0.000000 0.052392 0.000000
# 6 0.000000 0.000000 0.000000 0.000000 0.000000 0.030960
#
#
# Mechanical properties :
#
#
# Convention : Reuss Voigt Hill
#
# Bulk Modulus (GPa) = 68.85153 69.27891 69.06522
# Shear Modulus (GPa) = 25.67740 27.73671 26.70706
#
# Velocity S-wave (km/s) = 3.68521 3.83014 3.75837
# Velocity P-wave (km/s) = 7.38399 7.49677 7.44059
#
# Compressibility (1/GPa) = 0.01452401
#
# Stress axis : x y z
#
# Youngs Moduli (GPa) = 83.37717 83.37717 96.67369
#
# Poissons Ratio (x) = 0.29067 0.31020
# Poissons Ratio (y) = 0.29067 0.31020
# Poissons Ratio (z) = 0.26754 0.26754
#
# Static dielectric constant tensor:
#      x y z
#    x 3.308690 0.000000 0.000000 
#    y 0.000000 3.308690 0.000000 
#    z 0.000000 0.000000 3.857860 
# 
# 
# High freq. dielectric constant tensor:
#      x y z
#    x 1.723100 0.000000 0.000000 
#    y 0.000000 1.723100 0.000000 
#    z 0.000000 0.000000 1.758080 
# 
# From -- ./inp_files/3764.got.cif
#   From: 2010.03.12/outbox.cif.g09.slc.cpg/sg192_2_cif.got.tgz:3764.got - 2010.04.01 12:16:15.
