data_PCOD8329656
_publ_section_title
;
Structure prediction by ZEFSAII (Michael W. Deem and Ramdas Pophale) SiO2 
 PCOD8329656
Probable space group: P 6/M C C
;
_chemical_formula_sum "Si O2"
_cell_formula_units_Z 102
_cell_length_a 24.895387
_cell_length_b 24.895387
_cell_length_c 8.898231
_cell_angle_alpha 90.000000
_cell_angle_beta 90.000000
_cell_angle_gamma 120.000000
_cell_volume 4776.085263
_symmetry_space_group_name_H-M "P 6/M C C"
_symmetry_group_IT_number 192
_symmetry_cell_setting 'hexagonal'
loop_
_space_group_symop_operation_xyz
x,y,z
x-y,x,z
-y,x-y,z
-x,-y,z
-x+y,-x,z
y,-x+y,z
x-y,-y,1/2-z
-x,-x+y,1/2-z
y,x,1/2-z
-y,-x,1/2-z
-x+y,y,1/2-z
x,x-y,1/2-z
-x,-y,-z
-x+y,-x,-z
y,-x+y,-z
x,y,-z
x-y,x,-z
-y,x-y,-z
-x+y,y,1/2+z
x,x-y,1/2+z
-y,-x,1/2+z
y,x,1/2+z
x-y,-y,1/2+z
-x,-x+y,1/2+z
loop_
_atom_site_type_symbol
_atom_site_label
_atom_site_fract_x
_atom_site_fract_y
_atom_site_fract_z
Si Si1 0.864313 0.616838 0.173458
Si Si2 0.666928 0.228596 0.177031
Si Si3 0.500000 0.000000 0.250000
Si Si4 0.237219 0.064771 0.329609
Si Si5 0.473698 0.367965 0.330471
O O1 0.797467 0.594934 0.250000
O O2 0.906402 0.689781 0.183313
O O3 0.903661 0.590630 0.261211
O O4 0.852660 0.593396 0.000000
O O5 0.735776 0.264225 0.250000
O O6 0.629753 0.259506 0.250000
O O7 0.631159 0.156651 0.222105
O O8 0.670013 0.235764 0.000000
O O9 0.563693 0.044333 0.339825
O O10 0.214681 0.107341 0.250000
O O11 0.214886 0.056099 0.500000
O O12 0.205794 0.000000 0.250000
O O13 0.480799 0.349875 0.500000
#
# Coordination Sequence:
#
# PCOD8329656 Si02
#       5
#    24  24   6  24  24
#     4  10  22  41  66  98 132 170 218 273 332 395
#     4  12  25  44  69  97 128 162 206 260 322 386
#     4  12  30  48  68  94 134 176 230 268 332 400
#     4  10  21  38  62  94 132 174 219 270 325 386
#     4  12  26  45  68  93 127 170 216 269 326 392
#
# _framework density 21.356403
#
# number of rings (size 3 to 8) (size 9 to 14) (size 15 to 20)
#    0.000    0.941    1.176    5.529    1.647    5.647 
#    0.000    0.000    0.000    0.235    0.000    1.647 
#    0.000    0.000    0.000    0.000    0.000    0.000 
#
# Total GULP energy -1264311.025558 kJ/mol
# GULP energy per Si atom -12395.206133 kJ/mol
# Density = 2.130779 g / cm^3
# Si number density = 21.356403 Si / 1000 Ang^3
#
#
#
# Elastic Constant Matrix: (Units=GPa)
#
#
# Indices 1 2 3 4 5 6 
#
# 1 99.1884 23.3091 55.4047 0.0000 0.0000 0.0000
# 2 23.3091 99.1884 55.4047 0.0000 0.0000 0.0000
# 3 55.4047 55.4047 208.5635 0.0000 0.0000 0.0000
# 4 0.0000 0.0000 0.0000 28.2356 0.0000 0.0000
# 5 0.0000 0.0000 0.0000 0.0000 28.2356 0.0000
# 6 0.0000 0.0000 0.0000 0.0000 0.0000 37.9397
#
#
#
# Elastic Compliance Matrix: (Units=1/GPa)
#
#
# Indices 1 2 3 4 5 6 
#
# 1 0.011962 -0.001217 -0.002855 0.000000 0.000000 0.000000
# 2 -0.001217 0.011962 -0.002855 0.000000 0.000000 0.000000
# 3 -0.002855 -0.002855 0.006311 0.000000 0.000000 0.000000
# 4 0.000000 0.000000 0.000000 0.035416 0.000000 0.000000
# 5 0.000000 0.000000 0.000000 0.000000 0.035416 0.000000
# 6 0.000000 0.000000 0.000000 0.000000 0.000000 0.026358
#
#
# Mechanical properties :
#
#
# Convention : Reuss Voigt Hill
#
# Bulk Modulus (GPa) = 61.03393 75.01969 68.02681
# Shear Modulus (GPa) = 34.07415 37.07031 35.57223
#
# Velocity S-wave (km/s) = 3.99871 4.17081 4.08566
# Velocity P-wave (km/s) = 7.06826 7.64185 7.36065
#
# Compressibility (1/GPa) = 0.01638433
#
# Stress axis : x y z
#
# Youngs Moduli (GPa) = 83.59646 83.59646 158.44526
#
# Poissons Ratio (x) = 0.10170 0.45229
# Poissons Ratio (y) = 0.10170 0.45229
# Poissons Ratio (z) = 0.23863 0.23863
#
# Static dielectric constant tensor:
#      x y z
#    x 3.939140 0.000000 0.000000 
#    y 0.000000 3.939140 0.000000 
#    z 0.000000 0.000000 4.024650 
# 
# 
# High freq. dielectric constant tensor:
#      x y z
#    x 1.838040 0.000000 0.000000 
#    y 0.000000 1.838040 0.000000 
#    z 0.000000 0.000000 1.850580 
# 
# From -- ./inp_files/892.got.cif
#   From: 2010.03.12/outbox.cif.g09.slc.cpg/sg192_1_cif.got.tgz:892.got - 2010.04.01 12:16:15.
