data_PCOD8329137
_publ_section_title
;
Structure prediction by ZEFSAII (Michael W. Deem and Ramdas Pophale) SiO2 
 PCOD8329137
Probable space group: P 6/M M M
;
_chemical_formula_sum "Si O2"
_cell_formula_units_Z 192
_cell_length_a 22.263602
_cell_length_b 22.263602
_cell_length_c 24.167891
_cell_angle_alpha 90.000000
_cell_angle_beta 90.000000
_cell_angle_gamma 120.000000
_cell_volume 10374.334444
_symmetry_space_group_name_H-M "P 6/M M M"
_symmetry_group_IT_number 191
_symmetry_cell_setting 'hexagonal'
loop_
_space_group_symop_operation_xyz
x,y,z
x-y,x,z
-y,x-y,z
-x,-y,z
-x+y,-x,z
y,-x+y,z
x-y,-y,-z
-x,-x+y,-z
y,x,-z
-y,-x,-z
-x+y,y,-z
x,x-y,-z
-x,-y,-z
-x+y,-x,-z
y,-x+y,-z
x,y,-z
x-y,x,-z
-y,x-y,-z
-x+y,y,z
x,x-y,z
-y,-x,z
y,x,z
x-y,-y,z
-x,-x+y,z
loop_
_atom_site_type_symbol
_atom_site_label
_atom_site_fract_x
_atom_site_fract_y
_atom_site_fract_z
Si Si1 0.559675 0.848189 0.438419
Si Si2 0.719702 0.924406 0.284434
Si Si3 0.286718 0.076934 0.588462
Si Si4 0.145232 0.716578 0.759025
Si Si5 0.469335 0.388867 0.660266
Si Si6 0.788081 0.710982 0.936966
Si Si7 0.532549 0.199039 0.934634
Si Si8 0.918983 0.331910 0.125776
O O1 0.528796 0.843680 0.500000
O O2 0.542969 0.771485 0.418332
O O3 0.642293 0.897762 0.443824
O O4 0.528267 0.881406 0.396995
O O5 0.755642 0.877821 0.278058
O O6 0.694332 0.922163 0.347076
O O7 0.653954 0.897171 0.245498
O O8 0.776991 0.000000 0.264959
O O9 0.256115 0.128058 0.576596
O O10 0.229402 0.000000 0.568955
O O11 0.228073 0.771928 0.757617
O O12 0.124412 0.661447 0.710008
O O13 0.120115 0.675845 0.816422
O O14 0.541453 0.458548 0.667191
O O15 0.406593 0.406593 0.660471
O O16 0.868085 0.736169 0.923779
O O17 0.776495 0.776495 0.929085
O O18 0.740520 0.651071 0.894308
O O19 0.768891 0.682268 0.000000
O O20 0.607449 0.214897 0.912627
O O21 0.517361 0.258681 0.911050
O O22 0.475239 0.121660 0.916937
O O23 0.532466 0.201085 0.000000
O O24 0.000000 0.391145 0.129087
#
# Coordination Sequence:
#
# PCOD8329137 Si02
#       8
#    24  24  24  24  24  24  24  24
#     4  10  20  35  56  80 104 132 170 215 259 305
#     4   9  16  27  46  69  95 128 166 207 248 294
#     4   9  16  27  45  70  99 131 168 209 253 297
#     4  11  21  36  57  77 103 138 177 218 259 307
#     4  11  23  37  54  78 110 143 171 206 259 322
#     4   9  17  30  48  71 102 139 178 221 272 328
#     4  10  21  38  59  81 108 145 188 229 267 313
#     4  11  22  34  53  82 112 140 174 221 277 331
#
# _framework density 18.507211999999999
#
# number of rings (size 3 to 8) (size 9 to 14) (size 15 to 20)
#    0.000    2.000    1.250    3.500    0.000    4.250 
#    0.000    1.250    0.000    2.375    0.000    2.625 
#    0.000    0.000    0.000    7.125    0.000    8.750 
#
# Total GULP energy -2380187.685767 kJ/mol
# GULP energy per Si atom -12396.810863 kJ/mol
# Density = 1.846509 g / cm^3
# Si number density = 18.507212 Si / 1000 Ang^3
#
#
#
# Elastic Constant Matrix: (Units=GPa)
#
#
# Indices 1 2 3 4 5 6 
#
# 1 97.0569 42.3580 28.9943 0.0000 0.0000 0.0000
# 2 42.3580 97.0569 28.9943 0.0000 0.0000 0.0000
# 3 28.9943 28.9943 51.4806 0.0000 0.0000 0.0000
# 4 0.0000 0.0000 0.0000 15.4171 0.0000 0.0000
# 5 0.0000 0.0000 0.0000 0.0000 15.4171 0.0000
# 6 0.0000 0.0000 0.0000 0.0000 0.0000 27.3495
#
#
#
# Elastic Compliance Matrix: (Units=1/GPa)
#
#
# Indices 1 2 3 4 5 6 
#
# 1 0.013825 -0.004457 -0.005276 0.000000 0.000000 0.000000
# 2 -0.004457 0.013825 -0.005276 0.000000 0.000000 0.000000
# 3 -0.005276 -0.005276 0.025367 0.000000 0.000000 0.000000
# 4 0.000000 0.000000 0.000000 0.064863 0.000000 0.000000
# 5 0.000000 0.000000 0.000000 0.000000 0.064863 0.000000
# 6 0.000000 0.000000 0.000000 0.000000 0.000000 0.036564
#
#
# Mechanical properties :
#
#
# Convention : Reuss Voigt Hill
#
# Bulk Modulus (GPa) = 43.47997 49.58750 46.53374
# Shear Modulus (GPa) = 19.45603 21.31995 20.38799
#
# Velocity S-wave (km/s) = 3.24584 3.39777 3.32267
# Velocity P-wave (km/s) = 6.13122 6.49960 6.31810
#
# Compressibility (1/GPa) = 0.02299909
#
# Stress axis : x y z
#
# Youngs Moduli (GPa) = 72.33510 72.33510 39.42066
#
# Poissons Ratio (x) = 0.32242 0.20797
# Poissons Ratio (y) = 0.32242 0.20797
# Poissons Ratio (z) = 0.38162 0.38162
#
# Static dielectric constant tensor:
#      x y z
#    x 3.404840 0.000000 0.000000 
#    y 0.000000 3.404840 0.000000 
#    z 0.000000 0.000000 3.427630 
# 
# 
# High freq. dielectric constant tensor:
#      x y z
#    x 1.704940 0.000000 0.000000 
#    y 0.000000 1.704940 0.000000 
#    z 0.000000 0.000000 1.719850 
# 
# From -- ./inp_files/8125.got.cif
#   From: 2010.03.12/outbox.cif.g09.slc.cpg/sg191_5_cif.got.tgz:8125.got - 2010.04.01 12:09:02.
