data_PCOD8329508
_publ_section_title
;
Structure prediction by ZEFSAII (Michael W. Deem and Ramdas Pophale) SiO2 
 PCOD8329508
Probable space group: P 6/M C C
;
_chemical_formula_sum "Si O2"
_cell_formula_units_Z 152
_cell_length_a 17.402890
_cell_length_b 17.402890
_cell_length_c 27.456625
_cell_angle_alpha 90.000000
_cell_angle_beta 90.000000
_cell_angle_gamma 120.000000
_cell_volume 7201.459691
_symmetry_space_group_name_H-M "P 6/M C C"
_symmetry_group_IT_number 192
_symmetry_cell_setting 'hexagonal'
loop_
_space_group_symop_operation_xyz
x,y,z
x-y,x,z
-y,x-y,z
-x,-y,z
-x+y,-x,z
y,-x+y,z
x-y,-y,1/2-z
-x,-x+y,1/2-z
y,x,1/2-z
-y,-x,1/2-z
-x+y,y,1/2-z
x,x-y,1/2-z
-x,-y,-z
-x+y,-x,-z
y,-x+y,-z
x,y,-z
x-y,x,-z
-y,x-y,-z
-x+y,y,1/2+z
x,x-y,1/2+z
-y,-x,1/2+z
y,x,1/2+z
x-y,-y,1/2+z
-x,-x+y,1/2+z
loop_
_atom_site_type_symbol
_atom_site_label
_atom_site_fract_x
_atom_site_fract_y
_atom_site_fract_z
Si Si1 0.333334 0.666667 0.309405
Si Si2 0.194346 0.719503 0.150381
Si Si3 0.043422 0.196045 0.181170
Si Si4 0.381392 0.152116 0.054277
Si Si5 0.127259 0.382390 0.786318
Si Si6 0.699159 0.961544 0.407486
Si Si7 0.997345 0.410637 0.832555
O O1 0.333334 0.666667 0.250000
O O2 0.310785 0.737763 0.331785
O O3 0.175638 0.712768 0.092226
O O4 0.229634 0.823018 0.161183
O O5 0.103215 0.662263 0.180916
O O6 0.114215 0.166088 0.192483
O O7 0.064883 0.276757 0.218350
O O8 0.045693 0.229002 0.126445
O O9 0.345318 0.221251 0.057964
O O10 0.300555 0.051975 0.061628
O O11 0.420334 0.160786 0.000000
O O12 0.212119 0.424237 0.750000
O O13 0.062776 0.425320 0.785987
O O14 0.623751 0.967957 0.376679
O O15 0.000000 0.500000 0.848117
#
# Coordination Sequence:
#
# PCOD8329508 Si02
#       7
#     8  24  24  24  24  24  24
#     4  12  27  48  73  98 130 171 210 270 349 416
#     4  11  23  41  65  94 129 168 215 275 331 405
#     4  11  20  35  57  85 126 172 221 272 339 391
#     4  11  21  38  64  97 131 176 225 274 334 399
#     4  11  22  40  63  91 127 169 220 276 339 406
#     4  10  19  36  62  90 129 172 219 278 325 395
#     4  10  21  38  64  91 126 166 214 268 339 398
#
# _framework density 21.106832000000001
#
# number of rings (size 3 to 8) (size 9 to 14) (size 15 to 20)
#    0.000    1.263    4.737    3.947    0.000    2.526 
#    0.000    1.579    0.000    3.316    0.000    2.211 
#    0.000    0.000    0.000    0.000    0.000    0.000 
#
# Total GULP energy -1883560.776080 kJ/mol
# GULP energy per Si atom -12391.847211 kJ/mol
# Density = 2.105879 g / cm^3
# Si number density = 21.106832 Si / 1000 Ang^3
#
#
#
# Elastic Constant Matrix: (Units=GPa)
#
#
# Indices 1 2 3 4 5 6 
#
# 1 139.2230 64.7892 30.6341 0.0001 -0.0001 0.0000
# 2 64.7892 139.2222 30.6338 0.0001 0.0001 -0.0001
# 3 30.6341 30.6338 77.8831 0.0000 0.0000 0.0000
# 4 0.0001 0.0001 0.0000 22.2521 0.0000 -0.0001
# 5 -0.0001 0.0001 0.0000 0.0000 22.2522 0.0000
# 6 0.0000 -0.0001 0.0000 -0.0001 0.0000 37.2168
#
#
#
# Elastic Compliance Matrix: (Units=1/GPa)
#
#
# Indices 1 2 3 4 5 6 
#
# 1 0.009497 -0.003938 -0.002186 0.000000 0.000000 0.000000
# 2 -0.003938 0.009497 -0.002186 0.000000 0.000000 0.000000
# 3 -0.002186 -0.002186 0.014560 0.000000 0.000000 0.000000
# 4 0.000000 0.000000 0.000000 0.044940 0.000000 0.000000
# 5 0.000000 0.000000 0.000000 0.000000 0.044939 0.000000
# 6 0.000000 0.000000 0.000000 0.000000 0.000000 0.026870
#
#
# Mechanical properties :
#
#
# Convention : Reuss Voigt Hill
#
# Bulk Modulus (GPa) = 59.06283 67.60474 63.33379
# Shear Modulus (GPa) = 28.97436 31.69565 30.33500
#
# Velocity S-wave (km/s) = 3.70908 3.87935 3.79517
# Velocity P-wave (km/s) = 6.81077 7.22254 7.01968
#
# Compressibility (1/GPa) = 0.01693112
#
# Stress axis : x y z
#
# Youngs Moduli (GPa) = 105.30188 105.30137 68.68326
#
# Poissons Ratio (x) = 0.41471 0.15016
# Poissons Ratio (y) = 0.41471 0.15016
# Poissons Ratio (z) = 0.23022 0.23021
#
# Static dielectric constant tensor:
#      x y z
#    x 3.902940 0.000000 0.000000 
#    y 0.000000 3.902950 0.000000 
#    z 0.000000 0.000000 3.673260 
# 
# 
# High freq. dielectric constant tensor:
#      x y z
#    x 1.832240 0.000000 0.000000 
#    y 0.000000 1.832240 0.000000 
#    z 0.000000 0.000000 1.806020 
# 
# From -- ./inp_files/7137.got.cif
#   From: 2010.03.12/outbox.cif.g09.slc.cpg/sg192_4_cif.got.tgz:7137.got - 2010.04.01 12:16:15.
