data_PCOD8329516
_publ_section_title
;
Structure prediction by ZEFSAII (Michael W. Deem and Ramdas Pophale) SiO2 
 PCOD8329516
Probable space group: P 6/M C C
;
_chemical_formula_sum "Si O2"
_cell_formula_units_Z 144
_cell_length_a 32.174504
_cell_length_b 32.174504
_cell_length_c 9.157052
_cell_angle_alpha 90.000000
_cell_angle_beta 90.000000
_cell_angle_gamma 120.000000
_cell_volume 8209.373843
_symmetry_space_group_name_H-M "P 6/M C C"
_symmetry_group_IT_number 192
_symmetry_cell_setting 'hexagonal'
loop_
_space_group_symop_operation_xyz
x,y,z
x-y,x,z
-y,x-y,z
-x,-y,z
-x+y,-x,z
y,-x+y,z
x-y,-y,1/2-z
-x,-x+y,1/2-z
y,x,1/2-z
-y,-x,1/2-z
-x+y,y,1/2-z
x,x-y,1/2-z
-x,-y,-z
-x+y,-x,-z
y,-x+y,-z
x,y,-z
x-y,x,-z
-y,x-y,-z
-x+y,y,1/2+z
x,x-y,1/2+z
-y,-x,1/2+z
y,x,1/2+z
x-y,-y,1/2+z
-x,-x+y,1/2+z
loop_
_atom_site_type_symbol
_atom_site_label
_atom_site_fract_x
_atom_site_fract_y
_atom_site_fract_z
Si Si1 0.863179 0.812667 0.828326
Si Si2 0.857932 0.386820 0.328436
Si Si3 0.194494 0.472948 0.829365
Si Si4 0.808324 0.701573 0.169517
Si Si5 0.622274 0.900048 0.329292
Si Si6 0.564808 0.951807 0.329133
O O1 0.844045 0.844045 0.750000
O O2 0.912707 0.825413 0.750000
O O3 0.824254 0.756908 0.805054
O O4 0.872268 0.825355 0.000000
O O5 0.842853 0.421426 0.250000
O O6 0.857305 0.394049 0.500000
O O7 0.820109 0.332355 0.283856
O O8 0.910537 0.398075 0.277495
O O9 0.243518 0.487036 0.750000
O O10 0.152995 0.419710 0.784940
O O11 0.203389 0.474736 0.000000
O O12 0.843901 0.687802 0.250000
O O13 0.755399 0.669723 0.235916
O O14 0.808109 0.689642 0.000000
O O15 0.634552 0.902596 0.500000
O O16 0.604956 0.937651 0.288956
O O17 0.564888 0.959834 0.500000
O O18 0.575414 0.000000 0.250000
#
# Coordination Sequence:
#
# PCOD8329516 Si02
#       6
#    24  24  24  24  24  24
#     4  10  21  37  56  78 104 134 168 206 248 293
#     4   9  19  35  52  72  98 126 159 201 247 294
#     4   9  18  32  50  73  99 126 158 198 245 295
#     4  10  20  32  48  72 101 133 169 206 243 287
#     4   9  18  32  48  68  99 135 168 206 247 286
#     4   9  19  34  49  68  97 131 167 208 250 290
#
# _framework density 17.540922999999999
#
# number of rings (size 3 to 8) (size 9 to 14) (size 15 to 20)
#    0.000    2.667    0.000    3.500    0.000    7.000 
#    0.000    8.333    0.000    0.500    0.000    1.167 
#    0.000    0.000    0.000    0.000    0.000    0.000 
#
# Total GULP energy -1785704.178095 kJ/mol
# GULP energy per Si atom -12400.723459 kJ/mol
# Density = 1.750100 g / cm^3
# Si number density = 17.540923 Si / 1000 Ang^3
#
#
#
# Elastic Constant Matrix: (Units=GPa)
#
#
# Indices 1 2 3 4 5 6 
#
# 1 99.3945 56.6477 50.0926 0.0000 0.0000 0.0000
# 2 56.6477 99.3945 50.0926 0.0000 0.0000 0.0000
# 3 50.0926 50.0926 76.0843 0.0000 0.0000 0.0000
# 4 0.0000 0.0000 0.0000 23.6530 0.0000 0.0000
# 5 0.0000 0.0000 0.0000 0.0000 23.6530 0.0000
# 6 0.0000 0.0000 0.0000 0.0000 0.0000 21.3734
#
#
#
# Elastic Compliance Matrix: (Units=1/GPa)
#
#
# Indices 1 2 3 4 5 6 
#
# 1 0.017247 -0.006146 -0.007309 0.000000 0.000000 0.000000
# 2 -0.006146 0.017247 -0.007309 0.000000 0.000000 0.000000
# 3 -0.007309 -0.007309 0.022767 0.000000 0.000000 0.000000
# 4 0.000000 0.000000 0.000000 0.042278 0.000000 0.000000
# 5 0.000000 0.000000 0.000000 0.000000 0.042278 0.000000
# 6 0.000000 0.000000 0.000000 0.000000 0.000000 0.046787
#
#
# Mechanical properties :
#
#
# Convention : Reuss Voigt Hill
#
# Bulk Modulus (GPa) = 63.55524 65.39322 64.47423
# Shear Modulus (GPa) = 21.24253 21.60524 21.42389
#
# Velocity S-wave (km/s) = 3.48376 3.51337 3.49860
# Velocity P-wave (km/s) = 7.24523 7.33619 7.29085
#
# Compressibility (1/GPa) = 0.01573434
#
# Stress axis : x y z
#
# Youngs Moduli (GPa) = 57.98015 57.98015 43.92296
#
# Poissons Ratio (x) = 0.35636 0.32102
# Poissons Ratio (y) = 0.35636 0.32102
# Poissons Ratio (z) = 0.42376 0.42376
#
# Static dielectric constant tensor:
#      x y z
#    x 3.309050 0.000000 0.000000 
#    y 0.000000 3.309050 0.000000 
#    z 0.000000 0.000000 3.172050 
# 
# 
# High freq. dielectric constant tensor:
#      x y z
#    x 1.670330 0.000000 0.000000 
#    y 0.000000 1.670330 0.000000 
#    z 0.000000 0.000000 1.679030 
# 
# From -- ./inp_files/1179.got.cif
#   From: 2010.03.12/outbox.cif.g09.slc.cpg/sg192_1_cif.got.tgz:1179.got - 2010.04.01 12:16:15.
