data_PCOD8329678
_publ_section_title
;
Structure prediction by ZEFSAII (Michael W. Deem and Ramdas Pophale) SiO2 
 PCOD8329678
Probable space group: P 6/M C C
;
_chemical_formula_sum "Si O2"
_cell_formula_units_Z 92
_cell_length_a 16.532310
_cell_length_b 16.532310
_cell_length_c 18.381321
_cell_angle_alpha 90.000000
_cell_angle_beta 90.000000
_cell_angle_gamma 120.000000
_cell_volume 4350.853213
_symmetry_space_group_name_H-M "P 6/M C C"
_symmetry_group_IT_number 192
_symmetry_cell_setting 'hexagonal'
loop_
_space_group_symop_operation_xyz
x,y,z
x-y,x,z
-y,x-y,z
-x,-y,z
-x+y,-x,z
y,-x+y,z
x-y,-y,1/2-z
-x,-x+y,1/2-z
y,x,1/2-z
-y,-x,1/2-z
-x+y,y,1/2-z
x,x-y,1/2-z
-x,-y,-z
-x+y,-x,-z
y,-x+y,-z
x,y,-z
x-y,x,-z
-y,x-y,-z
-x+y,y,1/2+z
x,x-y,1/2+z
-y,-x,1/2+z
y,x,1/2+z
x-y,-y,1/2+z
-x,-x+y,1/2+z
loop_
_atom_site_type_symbol
_atom_site_label
_atom_site_fract_x
_atom_site_fract_y
_atom_site_fract_z
Si Si1 0.021460 0.692034 0.083198
Si Si2 0.500000 0.000000 0.375146
Si Si3 0.344142 0.153405 0.326874
Si Si4 0.541784 0.183896 0.685625
Si Si5 0.333334 0.666668 0.415621
O O1 0.940863 0.702352 0.125108
O O2 0.002074 0.585434 0.079653
O O3 0.118376 0.761081 0.123287
O O4 0.025910 0.724985 0.000000
O O5 0.544593 0.089329 0.324071
O O6 0.289128 0.144564 0.250000
O O7 0.441395 0.167962 0.295503
O O8 0.618082 0.236163 0.750000
O O9 0.573449 0.242577 0.611345
O O10 0.333334 0.666668 0.500000
#
# Coordination Sequence:
#
# PCOD8329678 Si02
#       5
#    24  12  24  24   8
#     4  11  23  40  62  91 125 164 209 263 324 390
#     4  10  22  36  58  86 118 154 200 250 304 368
#     4  11  23  40  63  89 120 160 207 260 317 380
#     4  11  22  38  58  81 112 154 201 247 294 356
#     4  12  25  35  49  75 109 146 187 234 289 344
#
# _framework density 21.145277
#
# number of rings (size 3 to 8) (size 9 to 14) (size 15 to 20)
#    0.000    1.043    0.000    7.826    0.000   12.522 
#    0.000    0.000    0.000    0.522    0.000    3.652 
#    0.000    0.000    0.000    0.000    0.000    0.000 
#
# Total GULP energy -1140197.201951 kJ/mol
# GULP energy per Si atom -12393.447847 kJ/mol
# Density = 2.109715 g / cm^3
# Si number density = 21.145277 Si / 1000 Ang^3
#
#
#
# Elastic Constant Matrix: (Units=GPa)
#
#
# Indices 1 2 3 4 5 6 
#
# 1 73.9179 13.9760 25.7123 -0.0001 0.0002 0.0000
# 2 13.9760 73.9165 25.7115 0.0000 0.0002 0.0002
# 3 25.7123 25.7115 170.5196 -0.0001 0.0001 -0.0001
# 4 -0.0001 0.0000 -0.0001 24.8255 0.0001 0.0000
# 5 0.0002 0.0002 0.0001 0.0001 24.8255 0.0000
# 6 0.0000 0.0002 -0.0001 0.0000 0.0000 29.9705
#
#
#
# Elastic Compliance Matrix: (Units=1/GPa)
#
#
# Indices 1 2 3 4 5 6 
#
# 1 0.014581 -0.002102 -0.001882 0.000000 0.000000 0.000000
# 2 -0.002102 0.014581 -0.001882 0.000000 0.000000 0.000000
# 3 -0.001882 -0.001882 0.006432 0.000000 0.000000 0.000000
# 4 0.000000 0.000000 0.000000 0.040281 0.000000 0.000000
# 5 0.000000 0.000000 0.000000 0.000000 0.040281 0.000000
# 6 0.000000 0.000000 0.000000 0.000000 0.000000 0.033366
#
#
# Mechanical properties :
#
#
# Convention : Reuss Voigt Hill
#
# Bulk Modulus (GPa) = 41.90722 49.90596 45.90659
# Shear Modulus (GPa) = 29.54967 32.78790 31.16879
#
# Velocity S-wave (km/s) = 3.74232 3.94204 3.84348
# Velocity P-wave (km/s) = 6.20766 6.66125 6.43845
#
# Compressibility (1/GPa) = 0.02386223
#
# Stress axis : x y z
#
# Youngs Moduli (GPa) = 68.58459 68.58346 155.47625
#
# Poissons Ratio (x) = 0.14419 0.29254
# Poissons Ratio (y) = 0.14419 0.29253
# Poissons Ratio (z) = 0.12905 0.12904
#
# Static dielectric constant tensor:
#      x y z
#    x 3.958240 0.000000 0.000000 
#    y 0.000000 3.958120 0.000010 
#    z 0.000000 0.000010 3.818050 
# 
# 
# High freq. dielectric constant tensor:
#      x y z
#    x 1.818390 0.000000 0.000000 
#    y 0.000000 1.818390 0.000000 
#    z 0.000000 0.000000 1.839430 
# 
# From -- ./inp_files/4004.got.cif
#   From: 2010.03.12/outbox.cif.g09.slc.cpg/sg192_3_cif.got.tgz:4004.got - 2010.04.01 12:16:15.
