data_PCOD8329286
_publ_section_title
;
Structure prediction by ZEFSAII (Michael W. Deem and Ramdas Pophale) SiO2 
 PCOD8329286
Probable space group: P 6/M M M
;
_chemical_formula_sum "Si O2"
_cell_formula_units_Z 84
_cell_length_a 23.065796
_cell_length_b 23.065796
_cell_length_c 13.037980
_cell_angle_alpha 90.000000
_cell_angle_beta 90.000000
_cell_angle_gamma 120.000000
_cell_volume 6007.279456
_symmetry_space_group_name_H-M "P 6/M M M"
_symmetry_group_IT_number 191
_symmetry_cell_setting 'hexagonal'
loop_
_space_group_symop_operation_xyz
x,y,z
x-y,x,z
-y,x-y,z
-x,-y,z
-x+y,-x,z
y,-x+y,z
x-y,-y,-z
-x,-x+y,-z
y,x,-z
-y,-x,-z
-x+y,y,-z
x,x-y,-z
-x,-y,-z
-x+y,-x,-z
y,-x+y,-z
x,y,-z
x-y,x,-z
-y,x-y,-z
-x+y,y,z
x,x-y,z
-y,-x,z
y,x,z
x-y,-y,z
-x,-x+y,z
loop_
_atom_site_type_symbol
_atom_site_label
_atom_site_fract_x
_atom_site_fract_y
_atom_site_fract_z
Si Si1 0.474496 0.394856 0.113414
Si Si2 0.394406 0.920063 0.500000
Si Si3 0.924925 0.204386 0.380779
Si Si4 0.920679 0.595060 0.305278
O O1 0.551896 0.448105 0.138838
O O2 0.432955 0.432955 0.115188
O O3 0.445049 0.336114 0.198659
O O4 0.468762 0.363443 0.000000
O O5 0.446738 0.893475 0.500000
O O6 0.347759 0.890993 0.399612
O O7 0.432702 0.000000 0.500000
O O8 0.923276 0.221424 0.500000
O O9 0.873813 0.126187 0.357339
O O10 0.901385 0.248480 0.316028
O O11 0.000000 0.221766 0.349879
O O12 0.000000 0.628392 0.307083
#
# Coordination Sequence:
#
# PCOD8329286 Si02
#       4
#    24  12  24  24
#     4   8  13  20  30  46  70 101 131 150 164 189
#     4   9  14  18  27  46  71  96 118 141 168 196
#     4   9  16  26  39  54  72  95 125 161 203 252
#     4   9  14  21  32  48  70  95 123 152 180 216
#
# _framework density 13.983034
#
# number of rings (size 3 to 8) (size 9 to 14) (size 15 to 20)
#    0.000    3.286    1.429    1.714    0.000    3.429 
#    0.000    0.000    0.000    1.143    0.000    2.000 
#    0.000    0.000    0.000   12.000    0.000   12.000 
#
# Total GULP energy -1040864.607120 kJ/mol
# GULP energy per Si atom -12391.245323 kJ/mol
# Density = 1.395121 g / cm^3
# Si number density = 13.983034 Si / 1000 Ang^3
#
#
#
# Elastic Constant Matrix: (Units=GPa)
#
#
# Indices 1 2 3 4 5 6 
#
# 1 59.7293 35.9054 33.5446 0.0000 0.0000 0.0000
# 2 35.9054 59.7293 33.5446 0.0000 0.0000 0.0000
# 3 33.5446 33.5446 90.6684 0.0000 0.0000 0.0000
# 4 0.0000 0.0000 0.0000 10.3052 0.0000 0.0000
# 5 0.0000 0.0000 0.0000 0.0000 10.3052 0.0000
# 6 0.0000 0.0000 0.0000 0.0000 0.0000 11.9119
#
#
#
# Elastic Compliance Matrix: (Units=1/GPa)
#
#
# Indices 1 2 3 4 5 6 
#
# 1 0.028048 -0.013927 -0.005225 0.000000 0.000000 0.000000
# 2 -0.013927 0.028048 -0.005225 0.000000 0.000000 0.000000
# 3 -0.005225 -0.005225 0.014895 0.000000 0.000000 0.000000
# 4 0.000000 0.000000 0.000000 0.097038 0.000000 0.000000
# 5 0.000000 0.000000 0.000000 0.000000 0.097038 0.000000
# 6 0.000000 0.000000 0.000000 0.000000 0.000000 0.083949
#
#
# Mechanical properties :
#
#
# Convention : Reuss Voigt Hill
#
# Bulk Modulus (GPa) = 44.96411 46.23513 45.59962
# Shear Modulus (GPa) = 12.34013 13.64663 12.99338
#
# Velocity S-wave (km/s) = 2.97392 3.12740 3.05163
# Velocity P-wave (km/s) = 6.63463 6.79542 6.71551
#
# Compressibility (1/GPa) = 0.02223996
#
# Stress axis : x y z
#
# Youngs Moduli (GPa) = 35.65303 35.65303 67.13643
#
# Poissons Ratio (x) = 0.49652 0.35076
# Poissons Ratio (y) = 0.49652 0.35076
# Poissons Ratio (z) = 0.18627 0.18627
#
# Static dielectric constant tensor:
#      x y z
#    x 2.467420 0.000000 0.000000 
#    y 0.000000 2.467420 0.000000 
#    z 0.000000 0.000000 3.050290 
# 
# 
# High freq. dielectric constant tensor:
#      x y z
#    x 1.491790 0.000000 0.000000 
#    y 0.000000 1.491790 0.000000 
#    z 0.000000 0.000000 1.532320 
# 
# From -- ./inp_files/2608.got.cif
#   From: 2010.03.12/outbox.cif.g09.slc.cpg/sg191_2_cif.got.tgz:2608.got - 2010.04.01 12:09:02.
