data_PCOD8329275
_publ_section_title
;
Structure prediction by ZEFSAII (Michael W. Deem and Ramdas Pophale) SiO2 
 PCOD8329275
Probable space group: P 6/M M M
;
_chemical_formula_sum "Si O2"
_cell_formula_units_Z 96
_cell_length_a 21.289879
_cell_length_b 21.289879
_cell_length_c 14.181120
_cell_angle_alpha 90.000000
_cell_angle_beta 90.000000
_cell_angle_gamma 120.000000
_cell_volume 5566.568402
_symmetry_space_group_name_H-M "P 6/M M M"
_symmetry_group_IT_number 191
_symmetry_cell_setting 'hexagonal'
loop_
_space_group_symop_operation_xyz
x,y,z
x-y,x,z
-y,x-y,z
-x,-y,z
-x+y,-x,z
y,-x+y,z
x-y,-y,-z
-x,-x+y,-z
y,x,-z
-y,-x,-z
-x+y,y,-z
x,x-y,-z
-x,-y,-z
-x+y,-x,-z
y,-x+y,-z
x,y,-z
x-y,x,-z
-y,x-y,-z
-x+y,y,z
x,x-y,z
-y,-x,z
y,x,z
x-y,-y,z
-x,-x+y,z
loop_
_atom_site_type_symbol
_atom_site_label
_atom_site_fract_x
_atom_site_fract_y
_atom_site_fract_z
Si Si1 0.522349 0.186789 0.749997
Si Si2 0.083030 0.411203 0.108653
Si Si3 0.779770 0.080052 0.249995
Si Si4 0.083031 0.671834 0.391347
O O1 0.607871 0.215742 0.749994
O O2 0.508733 0.254367 0.749999
O O3 0.487451 0.137403 0.842632
O O4 0.487448 0.137404 0.657362
O O5 0.092655 0.348498 0.157219
O O6 0.000000 0.393272 0.121136
O O7 0.104670 0.415641 0.000000
O O8 0.865092 0.134909 0.249992
O O9 0.744161 0.092656 0.342775
O O10 0.769275 0.000000 0.249995
O O11 0.104669 0.689038 0.500000
O O12 0.000000 0.606733 0.378864
#
# Coordination Sequence:
#
# PCOD8329275 Si02
#       4
#    24  24  24  24
#     4  11  23  36  49  67  95 131 165 192 222 270
#     4   9  18  33  54  77  95 114 148 198 251 290
#     4   9  17  29  47  72 100 127 155 190 233 280
#     4   9  18  33  54  77  95 114 148 198 251 290
#
# _framework density 17.245812999999998
#
# number of rings (size 3 to 8) (size 9 to 14) (size 15 to 20)
#    0.000    2.500    0.000    5.500    0.000    7.000 
#    0.000    2.500    0.000    3.250    0.000    0.000 
#    0.000    0.000    0.000   12.500    0.000    0.000 
#
# Total GULP energy -1190292.834869 kJ/mol
# GULP energy per Si atom -12398.883697 kJ/mol
# Density = 1.720656 g / cm^3
# Si number density = 17.245813 Si / 1000 Ang^3
#
#
#
# Elastic Constant Matrix: (Units=GPa)
#
#
# Indices 1 2 3 4 5 6 
#
# 1 94.3795 47.7559 42.2541 0.0000 0.0000 0.0000
# 2 47.7559 94.3795 42.2541 0.0000 0.0000 0.0000
# 3 42.2541 42.2541 157.4471 0.0000 0.0000 0.0000
# 4 0.0000 0.0000 0.0000 8.0050 0.0000 0.0000
# 5 0.0000 0.0000 0.0000 0.0000 8.0050 0.0000
# 6 0.0000 0.0000 0.0000 0.0000 0.0000 23.3118
#
#
#
# Elastic Compliance Matrix: (Units=1/GPa)
#
#
# Indices 1 2 3 4 5 6 
#
# 1 0.014910 -0.006539 -0.002247 0.000000 0.000000 0.000000
# 2 -0.006539 0.014910 -0.002247 0.000000 0.000000 0.000000
# 3 -0.002247 -0.002247 0.007557 0.000000 0.000000 0.000000
# 4 0.000000 0.000000 0.000000 0.124923 0.000000 0.000000
# 5 0.000000 0.000000 0.000000 0.000000 0.124923 0.000000
# 6 0.000000 0.000000 0.000000 0.000000 0.000000 0.042897
#
#
# Mechanical properties :
#
#
# Convention : Reuss Voigt Hill
#
# Bulk Modulus (GPa) = 65.30251 67.85935 66.58093
# Shear Modulus (GPa) = 13.99437 22.12715 18.06076
#
# Velocity S-wave (km/s) = 2.85171 3.58585 3.23964
# Velocity P-wave (km/s) = 6.98505 7.52184 7.25841
#
# Compressibility (1/GPa) = 0.01531335
#
# Stress axis : x y z
#
# Youngs Moduli (GPa) = 67.06985 67.06985 132.32447
#
# Poissons Ratio (x) = 0.43854 0.29728
# Poissons Ratio (y) = 0.43854 0.29728
# Poissons Ratio (z) = 0.15068 0.15068
#
# Static dielectric constant tensor:
#      x y z
#    x 3.054840 0.000000 0.000000 
#    y 0.000000 3.054840 0.000000 
#    z 0.000000 0.000000 3.414250 
# 
# 
# High freq. dielectric constant tensor:
#      x y z
#    x 1.649460 0.000000 0.000000 
#    y 0.000000 1.649460 0.000000 
#    z 0.000000 0.000000 1.673560 
# 
# From -- ./inp_files/4171.got.cif
#   From: 2010.03.12/outbox.cif.g09.slc.cpg/sg191_3_cif.got.tgz:4171.got - 2010.04.01 12:09:02.
