data_PCOD8329079
_publ_section_title
;
Structure prediction by ZEFSAII (Michael W. Deem and Ramdas Pophale) SiO2 
 PCOD8329079
Probable space group: P 6/M M M
;
_chemical_formula_sum "Si O2"
_cell_formula_units_Z 144
_cell_length_a 20.715487
_cell_length_b 20.715487
_cell_length_c 21.377625
_cell_angle_alpha 90.000000
_cell_angle_beta 90.000000
_cell_angle_gamma 120.000000
_cell_volume 7944.752665
_symmetry_space_group_name_H-M "P 6/M M M"
_symmetry_group_IT_number 191
_symmetry_cell_setting 'hexagonal'
loop_
_space_group_symop_operation_xyz
x,y,z
x-y,x,z
-y,x-y,z
-x,-y,z
-x+y,-x,z
y,-x+y,z
x-y,-y,-z
-x,-x+y,-z
y,x,-z
-y,-x,-z
-x+y,y,-z
x,x-y,-z
-x,-y,-z
-x+y,-x,-z
y,-x+y,-z
x,y,-z
x-y,x,-z
-y,x-y,-z
-x+y,y,z
x,x-y,z
-y,-x,z
y,x,z
x-y,-y,z
-x,-x+y,z
loop_
_atom_site_type_symbol
_atom_site_label
_atom_site_fract_x
_atom_site_fract_y
_atom_site_fract_z
Si Si1 0.856739 0.286661 0.069816
Si Si2 0.523646 0.187098 0.500000
Si Si3 0.459017 0.540984 0.208253
Si Si4 0.332211 0.418226 0.401264
Si Si5 0.768663 0.685310 0.169858
Si Si6 0.443968 0.148092 0.263048
Si Si7 0.918644 0.693818 0.500000
Si Si8 0.446339 0.553662 0.069096
O O1 0.778700 0.221301 0.094765
O O2 0.918571 0.286348 0.114706
O O3 0.845065 0.357518 0.072241
O O4 0.876338 0.273356 0.000000
O O5 0.613163 0.226326 0.500000
O O6 0.498817 0.249409 0.500000
O O7 0.494157 0.134586 0.439175
O O8 0.500000 0.500000 0.241196
O O9 0.372504 0.501896 0.228316
O O10 0.469293 0.530708 0.133771
O O11 0.397800 0.397800 0.397360
O O12 0.309814 0.432066 0.333874
O O13 0.261287 0.354043 0.437666
O O14 0.856195 0.712390 0.157360
O O15 0.756951 0.756951 0.174478
O O16 0.740396 0.637882 0.233040
O O17 0.474142 0.237071 0.258322
O O18 0.862461 0.724922 0.500000
O O19 0.000000 0.766070 0.500000
O O20 0.467787 0.532214 0.000000
#
# Coordination Sequence:
#
# PCOD8329079 Si02
#       8
#    24  12  12  24  24  24  12  12
#     4   9  18  33  51  73 103 137 177 222 268 317
#     4  11  23  38  55  77 111 151 189 228 271 329
#     4  12  24  37  56  81 112 146 191 235 282 336
#     4  10  20  36  59  82 104 134 179 235 284 322
#     4  10  20  35  56  79 106 136 171 214 264 321
#     4  11  23  39  57  80 110 146 183 227 281 334
#     4   9  17  31  53  80 108 137 173 218 265 314
#     4  10  20  33  52  76 107 145 188 232 281 331
#
# _framework density 18.125171999999999
#
# number of rings (size 3 to 8) (size 9 to 14) (size 15 to 20)
#    0.000    1.833    1.667    4.333    1.167    1.167 
#    1.000    1.667    0.000    0.250    0.000    0.000 
#    0.000    0.000    0.000    9.500    0.000    0.000 
#
# Total GULP energy -1784021.495945 kJ/mol
# GULP energy per Si atom -12389.038166 kJ/mol
# Density = 1.808392 g / cm^3
# Si number density = 18.125172 Si / 1000 Ang^3
#
#
#
# Elastic Constant Matrix: (Units=GPa)
#
#
# Indices 1 2 3 4 5 6 
#
# 1 105.2028 62.4309 34.0892 0.0000 0.0000 0.0000
# 2 62.4309 105.2028 34.0892 0.0000 0.0000 0.0000
# 3 34.0892 34.0892 132.8279 0.0000 0.0000 0.0000
# 4 0.0000 0.0000 0.0000 14.7610 0.0000 0.0000
# 5 0.0000 0.0000 0.0000 0.0000 14.7610 0.0000
# 6 0.0000 0.0000 0.0000 0.0000 0.0000 21.3859
#
#
#
# Elastic Compliance Matrix: (Units=1/GPa)
#
#
# Indices 1 2 3 4 5 6 
#
# 1 0.015020 -0.008360 -0.001709 0.000000 0.000000 0.000000
# 2 -0.008360 0.015020 -0.001709 0.000000 0.000000 0.000000
# 3 -0.001709 -0.001709 0.008406 0.000000 0.000000 0.000000
# 4 0.000000 0.000000 0.000000 0.067746 0.000000 0.000000
# 5 0.000000 0.000000 0.000000 0.000000 0.067746 0.000000
# 6 0.000000 0.000000 0.000000 0.000000 0.000000 0.046760
#
#
# Mechanical properties :
#
#
# Convention : Reuss Voigt Hill
#
# Bulk Modulus (GPa) = 67.16098 67.16136 67.16117
# Shear Modulus (GPa) = 20.06276 24.35655 22.20965
#
# Velocity S-wave (km/s) = 3.33062 3.66976 3.50430
# Velocity P-wave (km/s) = 7.20591 7.42232 7.31491
#
# Compressibility (1/GPa) = 0.01488960
#
# Stress axis : x y z
#
# Youngs Moduli (GPa) = 66.57687 66.57687 118.96345
#
# Poissons Ratio (x) = 0.55656 0.20336
# Poissons Ratio (y) = 0.55656 0.20336
# Poissons Ratio (z) = 0.11381 0.11381
#
# Static dielectric constant tensor:
#      x y z
#    x 3.243500 0.000000 0.000000 
#    y 0.000000 3.243500 0.000000 
#    z 0.000000 0.000000 3.628990 
# 
# 
# High freq. dielectric constant tensor:
#      x y z
#    x 1.683930 0.000000 0.000000 
#    y 0.000000 1.683930 0.000000 
#    z 0.000000 0.000000 1.722060 
# 
# From -- ./inp_files/7712.got.cif
#   From: 2010.03.12/outbox.cif.g09.slc.cpg/sg191_4_cif.got.tgz:7712.got - 2010.04.01 12:09:02.
