data_PCOD8329889
_publ_section_title
;
Structure prediction by ZEFSAII (Michael W. Deem and Ramdas Pophale) SiO2 
 PCOD8329889
Probable space group: P 63/M C M
;
_chemical_formula_sum "Si O2"
_cell_formula_units_Z 192
_cell_length_a 25.200225
_cell_length_b 25.200225
_cell_length_c 20.564111
_cell_angle_alpha 90.000000
_cell_angle_beta 90.000000
_cell_angle_gamma 120.000000
_cell_volume 11309.656325
_symmetry_space_group_name_H-M "P 63/M C M"
_symmetry_group_IT_number 193
_symmetry_cell_setting 'hexagonal'
loop_
_space_group_symop_operation_xyz
x,y,z
x-y,x,1/2+z
-y,x-y,z
-x,-y,1/2+z
-x+y,-x,z
y,-x+y,1/2+z
x-y,-y,1/2-z
-x,-x+y,1/2-z
y,x,1/2-z
-y,-x,-z
-x+y,y,-z
x,x-y,-z
-x,-y,-z
-x+y,-x,1/2-z
y,-x+y,-z
x,y,1/2-z
x-y,x,-z
-y,x-y,1/2-z
-x+y,y,1/2+z
x,x-y,1/2+z
-y,-x,1/2+z
y,x,z
x-y,-y,z
-x,-x+y,z
loop_
_atom_site_type_symbol
_atom_site_label
_atom_site_fract_x
_atom_site_fract_y
_atom_site_fract_z
Si Si1 0.128992 0.928469 0.936481
Si Si2 0.117580 0.724711 0.323991
Si Si3 0.632435 0.855472 0.677186
Si Si4 0.389290 0.316178 0.567051
Si Si5 0.927490 0.437243 0.435612
Si Si6 0.844582 0.775322 0.322553
Si Si7 0.682482 0.930468 0.447874
Si Si8 0.586687 0.515629 0.676476
O O1 0.085730 0.897964 0.874331
O O2 0.174658 0.901029 0.947561
O O3 0.165886 0.000000 0.922607
O O4 0.086751 0.913250 0.000000
O O5 0.096870 0.729245 0.250000
O O6 0.185636 0.782237 0.337321
O O7 0.072426 0.728165 0.376297
O O8 0.114311 0.659709 0.333500
O O9 0.617455 0.867296 0.750000
O O10 0.611968 0.891310 0.630058
O O11 0.704415 0.882542 0.668362
O O12 0.347323 0.347323 0.576358
O O13 0.460514 0.365975 0.562151
O O14 0.369999 0.271836 0.503617
O O15 0.899301 0.449651 0.500000
O O16 0.904779 0.457469 0.371505
O O17 0.000000 0.476195 0.437219
O O18 0.871321 0.796822 0.250000
O O19 0.789233 0.789233 0.335554
O O20 0.724368 0.000000 0.468552
O O21 0.568315 0.490960 0.750000
O O22 0.566756 0.566756 0.661888
#
# Coordination Sequence:
#
# PCOD8329889 Si02
#       8
#    24  24  24  24  24  24  24  24
#     4  11  22  35  52  73  97 125 162 209 259 315
#     4  10  19  31  47  69 101 132 161 200 245 294
#     4  10  20  33  49  72 101 134 167 199 242 296
#     4  10  20  32  48  71 100 135 171 205 239 282
#     4   9  17  30  47  67  94 128 165 198 228 272
#     4  10  20  36  56  75  99 131 165 204 253 308
#     4  10  20  31  47  71  97 128 163 202 249 297
#     4   9  17  29  46  68  95 129 164 198 240 285
#
# _framework density 16.976642999999999
#
# number of rings (size 3 to 8) (size 9 to 14) (size 15 to 20)
#    0.000    2.125    1.250    2.625    0.000    5.250 
#    0.000    2.500    0.000    2.250    0.000    0.000 
#    1.250    0.000    1.500    0.000    0.750    0.000 
#
# Total GULP energy -2379929.387695 kJ/mol
# GULP energy per Si atom -12395.465561 kJ/mol
# Density = 1.693800 g / cm^3
# Si number density = 16.976643 Si / 1000 Ang^3
#
#
#
# Elastic Constant Matrix: (Units=GPa)
#
#
# Indices 1 2 3 4 5 6 
#
# 1 64.6129 24.6363 42.9235 0.0000 0.0000 0.0000
# 2 24.6363 64.6129 42.9235 0.0000 0.0000 0.0000
# 3 42.9235 42.9235 121.3548 0.0000 0.0000 0.0000
# 4 0.0000 0.0000 0.0000 27.5423 0.0000 0.0000
# 5 0.0000 0.0000 0.0000 0.0000 27.5423 0.0000
# 6 0.0000 0.0000 0.0000 0.0000 0.0000 19.9883
#
#
#
# Elastic Compliance Matrix: (Units=1/GPa)
#
#
# Indices 1 2 3 4 5 6 
#
# 1 0.020998 -0.004016 -0.006007 0.000000 0.000000 0.000000
# 2 -0.004016 0.020998 -0.006007 0.000000 0.000000 0.000000
# 3 -0.006007 -0.006007 0.012489 0.000000 0.000000 0.000000
# 4 0.000000 0.000000 0.000000 0.036308 0.000000 0.000000
# 5 0.000000 0.000000 0.000000 0.000000 0.036308 0.000000
# 6 0.000000 0.000000 0.000000 0.000000 0.000000 0.050029
#
#
# Mechanical properties :
#
#
# Convention : Reuss Voigt Hill
#
# Bulk Modulus (GPa) = 44.58850 52.39415 48.49132
# Shear Modulus (GPa) = 23.07695 24.35436 23.71566
#
# Velocity S-wave (km/s) = 3.69092 3.79169 3.74164
# Velocity P-wave (km/s) = 6.66974 7.07805 6.87693
#
# Compressibility (1/GPa) = 0.02242731
#
# Stress axis : x y z
#
# Youngs Moduli (GPa) = 47.62248 47.62248 80.06746
#
# Poissons Ratio (x) = 0.19126 0.48094
# Poissons Ratio (y) = 0.19126 0.48094
# Poissons Ratio (z) = 0.28605 0.28605
#
# Static dielectric constant tensor:
#      x y z
#    x 3.033100 0.000000 0.000000 
#    y 0.000000 3.033100 0.000000 
#    z 0.000000 0.000000 3.438400 
# 
# 
# High freq. dielectric constant tensor:
#      x y z
#    x 1.624830 0.000000 0.000000 
#    y 0.000000 1.624830 0.000000 
#    z 0.000000 0.000000 1.678370 
# 
# From -- ./inp_files/6904.got.cif
#   From: 2010.03.12/outbox.cif.g09.slc.cpg/sg193_4_cif.got.tgz:6904.got - 2010.04.01 12:20:39.
