data_PCOD8329526
_publ_section_title
;
Structure prediction by ZEFSAII (Michael W. Deem and Ramdas Pophale) SiO2 
 PCOD8329526
Probable space group: P 6/M C C
;
_chemical_formula_sum "Si O2"
_cell_formula_units_Z 144
_cell_length_a 31.983332
_cell_length_b 31.983332
_cell_length_c 8.916323
_cell_angle_alpha 90.000000
_cell_angle_beta 90.000000
_cell_angle_gamma 120.000000
_cell_volume 7898.849460
_symmetry_space_group_name_H-M "P 6/M C C"
_symmetry_group_IT_number 192
_symmetry_cell_setting 'hexagonal'
loop_
_space_group_symop_operation_xyz
x,y,z
x-y,x,z
-y,x-y,z
-x,-y,z
-x+y,-x,z
y,-x+y,z
x-y,-y,1/2-z
-x,-x+y,1/2-z
y,x,1/2-z
-y,-x,1/2-z
-x+y,y,1/2-z
x,x-y,1/2-z
-x,-y,-z
-x+y,-x,-z
y,-x+y,-z
x,y,-z
x-y,x,-z
-y,x-y,-z
-x+y,y,1/2+z
x,x-y,1/2+z
-y,-x,1/2+z
y,x,1/2+z
x-y,-y,1/2+z
-x,-x+y,1/2+z
loop_
_atom_site_type_symbol
_atom_site_label
_atom_site_fract_x
_atom_site_fract_y
_atom_site_fract_z
Si Si1 0.388425 0.864963 0.824183
Si Si2 0.421992 0.754547 0.676813
Si Si3 0.697859 0.806344 0.825648
Si Si4 0.948348 0.139155 0.323571
Si Si5 0.951019 0.385549 0.170491
Si Si6 0.334978 0.287389 0.330914
O O1 0.438027 0.876054 0.750000
O O2 0.346713 0.809891 0.789388
O O3 0.375033 0.902857 0.756185
O O4 0.396609 0.873784 0.000000
O O5 0.371521 0.743041 0.750000
O O6 0.439262 0.719631 0.750000
O O7 0.414043 0.744830 0.500000
O O8 0.681897 0.840949 0.750000
O O9 0.753306 0.823095 0.788276
O O10 0.661837 0.754279 0.757070
O O11 0.688156 0.805123 0.000000
O O12 0.912240 0.087761 0.250000
O O13 0.951153 0.132087 0.500000
O O14 0.000000 0.158426 0.250000
O O15 0.949367 0.335237 0.174811
O O16 0.000000 0.426731 0.250000
O O17 0.950846 0.402283 0.000000
O O18 0.294411 0.294411 0.250000
O O19 0.317678 0.270827 0.500000
#
# Coordination Sequence:
#
# PCOD8329526 Si02
#       6
#    24  24  24  24  24  24
#     4  10  21  37  57  81 109 141 177 220 268 315
#     4  10  20  34  54  80 110 143 178 217 260 309
#     4  10  20  33  51  75 104 136 170 210 254 303
#     4  10  20  33  50  73 100 130 164 204 250 299
#     4  10  21  37  57  80 106 137 175 219 264 314
#     4  10  20  34  53  76 102 134 171 211 256 305
#
# _framework density 18.230502000000001
#
# number of rings (size 3 to 8) (size 9 to 14) (size 15 to 20)
#    0.000    2.000    0.000    3.667    0.000    7.667 
#    0.000    2.500    0.000    2.167    0.000    1.167 
#    0.000    0.000    0.000    0.000    0.000    0.000 
#
# Total GULP energy -1785934.206901 kJ/mol
# GULP energy per Si atom -12402.320881 kJ/mol
# Density = 1.818901 g / cm^3
# Si number density = 18.230502 Si / 1000 Ang^3
#
#
#
# Elastic Constant Matrix: (Units=GPa)
#
#
# Indices 1 2 3 4 5 6 
#
# 1 79.5902 17.2642 46.2632 0.0000 0.0000 0.0000
# 2 17.2642 79.5902 46.2632 0.0000 0.0000 0.0000
# 3 46.2632 46.2632 131.6838 0.0000 0.0000 0.0000
# 4 0.0000 0.0000 0.0000 33.1291 0.0000 0.0000
# 5 0.0000 0.0000 0.0000 0.0000 33.1291 0.0000
# 6 0.0000 0.0000 0.0000 0.0000 0.0000 31.1630
#
#
#
# Elastic Compliance Matrix: (Units=1/GPa)
#
#
# Indices 1 2 3 4 5 6 
#
# 1 0.015793 -0.000252 -0.005460 0.000000 0.000000 0.000000
# 2 -0.000252 0.015793 -0.005460 0.000000 0.000000 0.000000
# 3 -0.005460 -0.005460 0.011430 0.000000 0.000000 0.000000
# 4 0.000000 0.000000 0.000000 0.030185 0.000000 0.000000
# 5 0.000000 0.000000 0.000000 0.000000 0.030185 0.000000
# 6 0.000000 0.000000 0.000000 0.000000 0.000000 0.032089
#
#
# Mechanical properties :
#
#
# Convention : Reuss Voigt Hill
#
# Bulk Modulus (GPa) = 48.37375 56.71617 52.54496
# Shear Modulus (GPa) = 30.35670 31.55581 30.95625
#
# Velocity S-wave (km/s) = 4.08506 4.16496 4.12521
# Velocity P-wave (km/s) = 6.98874 7.36935 7.18157
#
# Compressibility (1/GPa) = 0.02067237
#
# Stress axis : x y z
#
# Youngs Moduli (GPa) = 63.32086 63.32086 87.48788
#
# Poissons Ratio (x) = 0.01596 0.47766
# Poissons Ratio (y) = 0.01596 0.47766
# Poissons Ratio (z) = 0.34571 0.34571
#
# Static dielectric constant tensor:
#      x y z
#    x 3.283030 0.000000 0.000000 
#    y 0.000000 3.283030 0.000000 
#    z 0.000000 0.000000 3.636500 
# 
# 
# High freq. dielectric constant tensor:
#      x y z
#    x 1.698750 0.000000 0.000000 
#    y 0.000000 1.698750 0.000000 
#    z 0.000000 0.000000 1.729510 
# 
# From -- ./inp_files/1186.got.cif
#   From: 2010.03.12/outbox.cif.g09.slc.cpg/sg192_1_cif.got.tgz:1186.got - 2010.04.01 12:16:15.
