data_PCOD8329328
_publ_section_title
;
Structure prediction by ZEFSAII (Michael W. Deem and Ramdas Pophale) SiO2 
 PCOD8329328
Probable space group: P 6/M M M
;
_chemical_formula_sum "Si O2"
_cell_formula_units_Z 84
_cell_length_a 25.815883
_cell_length_b 25.815883
_cell_length_c 9.313392
_cell_angle_alpha 90.000000
_cell_angle_beta 90.000000
_cell_angle_gamma 120.000000
_cell_volume 5375.420989
_symmetry_space_group_name_H-M "P 6/M M M"
_symmetry_group_IT_number 191
_symmetry_cell_setting 'hexagonal'
loop_
_space_group_symop_operation_xyz
x,y,z
x-y,x,z
-y,x-y,z
-x,-y,z
-x+y,-x,z
y,-x+y,z
x-y,-y,-z
-x,-x+y,-z
y,x,-z
-y,-x,-z
-x+y,y,-z
x,x-y,-z
-x,-y,-z
-x+y,-x,-z
y,-x+y,-z
x,y,-z
x-y,x,-z
-y,x-y,-z
-x+y,y,z
x,x-y,z
-y,-x,z
y,x,z
x-y,-y,z
-x,-x+y,z
loop_
_atom_site_type_symbol
_atom_site_label
_atom_site_fract_x
_atom_site_fract_y
_atom_site_fract_z
Si Si1 0.535544 0.071087 0.161915
Si Si2 0.000000 0.883943 0.328768
Si Si3 0.930367 0.564683 0.333274
Si Si4 0.232917 0.883608 0.329696
Si Si5 0.767363 0.000000 0.328539
O O1 0.598355 0.094383 0.242516
O O2 0.500000 0.000000 0.165567
O O3 0.547948 0.095896 0.000000
O O4 0.941899 0.883797 0.267928
O O5 0.000000 0.884454 0.500000
O O6 0.000000 0.825691 0.270795
O O7 0.921622 0.546955 0.500000
O O8 0.890735 0.594182 0.285936
O O9 0.000000 0.611647 0.301575
O O10 0.227701 0.883789 0.500000
O O11 0.178357 0.821644 0.266849
O O12 0.230074 0.940382 0.267141
O O13 0.764643 0.000000 0.500000
#
# Coordination Sequence:
#
# PCOD8329328 Si02
#       5
#    12  12  24  24  12
#     4   9  17  27  41  61  83 107 133 161 197 241
#     4   9  15  20  25  34  53  86 131 181 227 266
#     4   9  15  25  40  59  83 110 138 167 202 244
#     4   9  15  22  34  53  78 107 139 176 216 255
#     4   9  14  21  30  44  66  97 136 177 219 260
#
# _framework density 15.626682000000001
#
# number of rings (size 3 to 8) (size 9 to 14) (size 15 to 20)
#    0.000    3.000    1.429    1.429    0.000    5.714 
#    0.000    0.000    0.000    0.857    0.000    0.000 
#    1.429    0.000    2.571    0.000    0.857    0.000 
#
# Total GULP energy -1041256.538180 kJ/mol
# GULP energy per Si atom -12395.911169 kJ/mol
# Density = 1.559112 g / cm^3
# Si number density = 15.626682 Si / 1000 Ang^3
#
#
#
# Elastic Constant Matrix: (Units=GPa)
#
#
# Indices 1 2 3 4 5 6 
#
# 1 125.9467 77.5642 31.5157 0.0000 0.0000 0.0000
# 2 77.5642 125.9467 31.5157 0.0000 0.0000 0.0000
# 3 31.5157 31.5157 33.6839 0.0000 0.0000 0.0000
# 4 0.0000 0.0000 0.0000 3.7368 0.0000 0.0000
# 5 0.0000 0.0000 0.0000 0.0000 3.7368 0.0000
# 6 0.0000 0.0000 0.0000 0.0000 0.0000 24.1912
#
#
#
# Elastic Compliance Matrix: (Units=1/GPa)
#
#
# Indices 1 2 3 4 5 6 
#
# 1 0.013794 -0.006875 -0.006473 0.000000 0.000000 0.000000
# 2 -0.006875 0.013794 -0.006473 0.000000 0.000000 0.000000
# 3 -0.006473 -0.006473 0.041801 0.000000 0.000000 0.000000
# 4 0.000000 0.000000 0.000000 0.267607 0.000000 0.000000
# 5 0.000000 0.000000 0.000000 0.000000 0.267607 0.000000
# 6 0.000000 0.000000 0.000000 0.000000 0.000000 0.041337
#
#
# Mechanical properties :
#
#
# Convention : Reuss Voigt Hill
#
# Bulk Modulus (GPa) = 33.61896 62.97427 48.29661
# Shear Modulus (GPa) = 7.18909 15.99842 11.59376
#
# Velocity S-wave (km/s) = 2.14721 3.20314 2.72678
# Velocity P-wave (km/s) = 5.26383 7.35302 6.39432
#
# Compressibility (1/GPa) = 0.02974512
#
# Stress axis : x y z
#
# Youngs Moduli (GPa) = 72.49714 72.49714 23.92287
#
# Poissons Ratio (x) = 0.49842 0.15486
# Poissons Ratio (y) = 0.49842 0.15486
# Poissons Ratio (z) = 0.46930 0.46930
#
# Static dielectric constant tensor:
#      x y z
#    x 3.039520 0.000000 0.000000 
#    y 0.000000 3.039520 0.000000 
#    z 0.000000 0.000000 2.483870 
# 
# 
# High freq. dielectric constant tensor:
#      x y z
#    x 1.591120 0.000000 0.000000 
#    y 0.000000 1.591120 0.000000 
#    z 0.000000 0.000000 1.539220 
# 
# From -- ./inp_files/2659.got.cif
#   From: 2010.03.12/outbox.cif.g09.slc.cpg/sg191_2_cif.got.tgz:2659.got - 2010.04.01 12:09:02.
