data_PCOD8329258
_publ_section_title
;
Structure prediction by ZEFSAII (Michael W. Deem and Ramdas Pophale) SiO2 
 PCOD8329258
Probable space group: P 6/M M M
;
_chemical_formula_sum "Si O2"
_cell_formula_units_Z 102
_cell_length_a 25.650080
_cell_length_b 25.650080
_cell_length_c 10.103728
_cell_angle_alpha 90.000000
_cell_angle_beta 90.000000
_cell_angle_gamma 120.000000
_cell_volume 5756.913788
_symmetry_space_group_name_H-M "P 6/M M M"
_symmetry_group_IT_number 191
_symmetry_cell_setting 'hexagonal'
loop_
_space_group_symop_operation_xyz
x,y,z
x-y,x,z
-y,x-y,z
-x,-y,z
-x+y,-x,z
y,-x+y,z
x-y,-y,-z
-x,-x+y,-z
y,x,-z
-y,-x,-z
-x+y,y,-z
x,x-y,-z
-x,-y,-z
-x+y,-x,-z
y,-x+y,-z
x,y,-z
x-y,x,-z
-y,x-y,-z
-x+y,y,z
x,x-y,z
-y,-x,z
y,x,z
x-y,-y,z
-x,-x+y,z
loop_
_atom_site_type_symbol
_atom_site_label
_atom_site_fract_x
_atom_site_fract_y
_atom_site_fract_z
Si Si1 0.310332 0.000000 0.156091
Si Si2 0.473728 0.407037 0.000000
Si Si3 0.327409 0.891098 0.235093
Si Si4 0.801641 0.603281 0.160293
Si Si5 0.000000 0.125899 0.500000
Si Si6 0.474474 0.402750 0.500000
Si Si7 0.869582 0.739163 0.852310
Si Si8 0.200157 0.000000 0.751216
O O1 0.312031 0.941265 0.191565
O O2 0.262581 0.000000 0.260973
O O3 0.292761 0.000000 0.000000
O O4 0.481009 0.374764 0.871758
O O5 0.411474 0.411474 0.000000
O O6 0.525816 0.474185 0.000000
O O7 0.264545 0.829877 0.223953
O O8 0.358650 0.900095 0.376118
O O9 0.836417 0.672833 0.217894
O O10 0.799863 0.599725 0.000000
O O11 0.059388 0.118775 0.500000
O O12 0.000000 0.166230 0.380470
O O13 0.432440 0.432440 0.500000
O O14 0.544646 0.455355 0.500000
O O15 0.843194 0.782864 0.828781
O O16 0.858474 0.716948 0.000000
#
# Coordination Sequence:
#
# PCOD8329258 Si02
#       8
#    12  12  24  12   6  12  12  12
#     4  12  20  36  60  90 127 167 197 247 305 351
#     4  11  20  33  58  88 118 162 214 250 289 350
#     4  12  21  37  58  86 129 169 204 249 301 357
#     4  11  22  37  61  91 127 166 205 248 310 366
#     4  12  27  50  66  78 106 148 205 274 338 392
#     4  11  24  40  59  88 129 169 203 245 297 353
#     4  11  22  37  59  89 120 156 201 255 309 371
#     4  12  24  39  62  86 118 159 204 248 308 378
#
# _framework density 17.717827
#
# number of rings (size 3 to 8) (size 9 to 14) (size 15 to 20)
#    0.000    0.471    8.235    1.824    0.000    3.294 
#    0.000    1.176    0.000    0.000    0.000    1.647 
#   23.529    0.000    0.000    0.000    0.000    0.000 
#
# Total GULP energy -1263710.600358 kJ/mol
# GULP energy per Si atom -12389.319611 kJ/mol
# Density = 1.767750 g / cm^3
# Si number density = 17.717827 Si / 1000 Ang^3
#
#
#
# Elastic Constant Matrix: (Units=GPa)
#
#
# Indices 1 2 3 4 5 6 
#
# 1 96.8472 64.5594 53.7470 0.0000 0.0000 0.0000
# 2 64.5594 96.8472 53.7470 0.0000 0.0000 0.0000
# 3 53.7470 53.7470 135.6675 0.0000 0.0000 0.0000
# 4 0.0000 0.0000 0.0000 6.3003 0.0000 0.0000
# 5 0.0000 0.0000 0.0000 0.0000 6.3003 0.0000
# 6 0.0000 0.0000 0.0000 0.0000 0.0000 16.1439
#
#
#
# Elastic Compliance Matrix: (Units=1/GPa)
#
#
# Indices 1 2 3 4 5 6 
#
# 1 0.019694 -0.011278 -0.003334 0.000000 0.000000 0.000000
# 2 -0.011278 0.019694 -0.003334 0.000000 0.000000 0.000000
# 3 -0.003334 -0.003334 0.010013 0.000000 0.000000 0.000000
# 4 0.000000 0.000000 0.000000 0.158721 0.000000 0.000000
# 5 0.000000 0.000000 0.000000 0.000000 0.158721 0.000000
# 6 0.000000 0.000000 0.000000 0.000000 0.000000 0.061943
#
#
# Mechanical properties :
#
#
# Convention : Reuss Voigt Hill
#
# Bulk Modulus (GPa) = 74.02932 74.82986 74.42959
# Shear Modulus (GPa) = 10.65688 16.23616 13.44652
#
# Velocity S-wave (km/s) = 2.45516 3.03045 2.75785
# Velocity P-wave (km/s) = 7.06472 7.38720 7.22776
#
# Compressibility (1/GPa) = 0.01350816
#
# Stress axis : x y z
#
# Youngs Moduli (GPa) = 50.77761 50.77761 99.87297
#
# Poissons Ratio (x) = 0.57265 0.33299
# Poissons Ratio (y) = 0.57265 0.33299
# Poissons Ratio (z) = 0.16930 0.16930
#
# Static dielectric constant tensor:
#      x y z
#    x 3.573710 0.000000 0.000000 
#    y 0.000000 3.573710 0.000000 
#    z 0.000000 0.000000 3.300410 
# 
# 
# High freq. dielectric constant tensor:
#      x y z
#    x 1.685440 0.000000 0.000000 
#    y 0.000000 1.685440 0.000000 
#    z 0.000000 0.000000 1.678450 
# 
# From -- ./inp_files/1500.got.cif
#   From: 2010.03.12/outbox.cif.g09.slc.cpg/sg191_1_cif.got.tgz:1500.got - 2010.04.01 12:09:02.
