data_PCOD8329305
_publ_section_title
;
Structure prediction by ZEFSAII (Michael W. Deem and Ramdas Pophale) SiO2 
 PCOD8329305
Probable space group: P 6/M M M
;
_chemical_formula_sum "Si O2"
_cell_formula_units_Z 84
_cell_length_a 21.679006
_cell_length_b 21.679006
_cell_length_c 17.754575
_cell_angle_alpha 90.000000
_cell_angle_beta 90.000000
_cell_angle_gamma 120.000000
_cell_volume 7226.360838
_symmetry_space_group_name_H-M "P 6/M M M"
_symmetry_group_IT_number 191
_symmetry_cell_setting 'hexagonal'
loop_
_space_group_symop_operation_xyz
x,y,z
x-y,x,z
-y,x-y,z
-x,-y,z
-x+y,-x,z
y,-x+y,z
x-y,-y,-z
-x,-x+y,-z
y,x,-z
-y,-x,-z
-x+y,y,-z
x,x-y,-z
-x,-y,-z
-x+y,-x,-z
y,-x+y,-z
x,y,-z
x-y,x,-z
-y,x-y,-z
-x+y,y,z
x,x-y,z
-y,-x,z
y,x,z
x-y,-y,z
-x,-x+y,z
loop_
_atom_site_type_symbol
_atom_site_label
_atom_site_fract_x
_atom_site_fract_y
_atom_site_fract_z
Si Si1 0.387215 0.466356 0.916362
Si Si2 0.532940 0.920036 0.500000
Si Si3 0.810395 0.477095 0.375013
Si Si4 0.190448 0.523387 0.203196
O O1 0.461576 0.538425 0.910220
O O2 0.400274 0.400274 0.901842
O O3 0.334205 0.465297 0.852468
O O4 0.354458 0.459966 0.000000
O O5 0.463741 0.927482 0.500000
O O6 0.532655 0.876348 0.573824
O O7 0.602083 0.000000 0.500000
O O8 0.740050 0.480099 0.396753
O O9 0.792996 0.396498 0.389045
O O10 0.833363 0.500585 0.288982
O O11 0.263608 0.527216 0.183738
O O12 0.202210 0.601105 0.187907
#
# Coordination Sequence:
#
# PCOD8329305 Si02
#       4
#    24  12  24  24
#     4   8  14  24  35  45  58  78 103 126 148 180
#     4   9  17  26  34  46  62  77  96 124 154 182
#     4   9  16  25  36  48  62  80 101 124 152 188
#     4   9  16  24  34  48  64  80  98 123 156 191
#
# _framework density 11.624108
#
# number of rings (size 3 to 8) (size 9 to 14) (size 15 to 20)
#    0.000    3.286    0.000    1.857    0.000    4.000 
#    0.000    7.143    0.000    1.714    0.000    0.000 
#    0.000    0.000    0.000    0.000    0.000    0.000 
#
# Total GULP energy -1041092.778485 kJ/mol
# GULP energy per Si atom -12393.961649 kJ/mol
# Density = 1.159765 g / cm^3
# Si number density = 11.624108 Si / 1000 Ang^3
#
#
#
# Elastic Constant Matrix: (Units=GPa)
#
#
# Indices 1 2 3 4 5 6 
#
# 1 48.3538 30.1454 44.9826 0.0000 0.0000 0.0000
# 2 30.1454 48.3538 44.9826 0.0000 0.0000 0.0000
# 3 44.9826 44.9826 95.7213 0.0000 0.0000 0.0000
# 4 0.0000 0.0000 0.0000 18.4547 0.0000 0.0000
# 5 0.0000 0.0000 0.0000 0.0000 18.4547 0.0000
# 6 0.0000 0.0000 0.0000 0.0000 0.0000 9.1042
#
#
#
# Elastic Compliance Matrix: (Units=1/GPa)
#
#
# Indices 1 2 3 4 5 6 
#
# 1 0.041264 -0.013656 -0.012974 0.000000 0.000000 0.000000
# 2 -0.013656 0.041264 -0.012974 0.000000 0.000000 0.000000
# 3 -0.012974 -0.012974 0.022641 0.000000 0.000000 0.000000
# 4 0.000000 0.000000 0.000000 0.054187 0.000000 0.000000
# 5 0.000000 0.000000 0.000000 0.000000 0.054187 0.000000
# 6 0.000000 0.000000 0.000000 0.000000 0.000000 0.109839
#
#
# Mechanical properties :
#
#
# Convention : Reuss Voigt Hill
#
# Bulk Modulus (GPa) = 38.51937 48.07224 43.29581
# Shear Modulus (GPa) = 12.15829 14.02394 13.09112
#
# Velocity S-wave (km/s) = 3.23763 3.47717 3.35954
# Velocity P-wave (km/s) = 6.86919 7.58725 7.23713
#
# Compressibility (1/GPa) = 0.02596097
#
# Stress axis : x y z
#
# Youngs Moduli (GPa) = 24.23434 24.23434 44.16836
#
# Poissons Ratio (x) = 0.33094 0.57303
# Poissons Ratio (y) = 0.33094 0.57303
# Poissons Ratio (z) = 0.31441 0.31441
#
# Static dielectric constant tensor:
#      x y z
#    x 2.311740 0.000000 0.000000 
#    y 0.000000 2.311740 0.000000 
#    z 0.000000 0.000000 2.672890 
# 
# 
# High freq. dielectric constant tensor:
#      x y z
#    x 1.403740 0.000000 0.000000 
#    y 0.000000 1.403740 0.000000 
#    z 0.000000 0.000000 1.458160 
# 
# From -- ./inp_files/6988.got.cif
#   From: 2010.03.12/outbox.cif.g09.slc.cpg/sg191_4_cif.got.tgz:6988.got - 2010.04.01 12:09:02.
