data_PCOD8329751
_publ_section_title
;
Structure prediction by ZEFSAII (Michael W. Deem and Ramdas Pophale) SiO2 
 PCOD8329751
Probable space group: P 6/M C C
;
_chemical_formula_sum "Si O2"
_cell_formula_units_Z 144
_cell_length_a 21.000000
_cell_length_b 21.000000
_cell_length_c 21.000000
_cell_angle_alpha 90.000000
_cell_angle_beta 90.000000
_cell_angle_gamma 120.000000
_cell_volume 8020.261264
_symmetry_space_group_name_H-M "P 6/M C C"
_symmetry_group_IT_number 192
_symmetry_cell_setting 'hexagonal'
loop_
_space_group_symop_operation_xyz
x,y,z
x-y,x,z
-y,x-y,z
-x,-y,z
-x+y,-x,z
y,-x+y,z
x-y,-y,1/2-z
-x,-x+y,1/2-z
y,x,1/2-z
-y,-x,1/2-z
-x+y,y,1/2-z
x,x-y,1/2-z
-x,-y,-z
-x+y,-x,-z
y,-x+y,-z
x,y,-z
x-y,x,-z
-y,x-y,-z
-x+y,y,1/2+z
x,x-y,1/2+z
-y,-x,1/2+z
y,x,1/2+z
x-y,-y,1/2+z
-x,-x+y,1/2+z
loop_
_atom_site_type_symbol
_atom_site_label
_atom_site_fract_x
_atom_site_fract_y
_atom_site_fract_z
Si Si1 0.288256 0.571887 0.500000
Si Si2 0.264883 0.472467 0.381238
Si Si3 0.944143 0.702087 0.575140
Si Si4 0.437777 0.324898 0.652722
Si Si5 0.538032 0.118841 0.682381
Si Si6 0.311810 0.204062 0.924558
Si Si7 0.596454 0.000000 0.750000
O O1 0.377212 0.626916 0.500000
O O2 0.260907 0.518895 0.439729
O O3 0.197107 0.458005 0.335132
O O4 0.342788 0.520069 0.348158
O O5 0.256885 0.395299 0.402375
O O6 0.947623 0.704150 0.500000
O O7 0.922000 0.619103 0.594428
O O8 0.880305 0.719123 0.599413
O O9 0.024450 0.762618 0.602672
O O10 0.511758 0.403241 0.639687
O O11 0.394901 0.330813 0.715484
O O12 0.576595 0.153190 0.750000
O O13 0.466021 0.039431 0.695456
O O14 0.310574 0.204795 0.000000
#
# Coordination Sequence:
#
# PCOD8329751 Si02
#       7
#    12  24  24  24  24  24  12
#     4  10  22  36  52  72 112 145 178 235 292 332
#     4  11  20  35  55  78 104 144 185 227 283 347
#     4   9  18  32  53  80 108 138 175 223 273 332
#     4  10  20  34  55  75 102 139 179 231 276 332
#     4  10  21  36  53  72 101 139 184 226 280 331
#     4   9  17  31  51  78 107 137 174 216 268 335
#     4  10  21  38  54  72 100 138 178 239 286 323
#
# _framework density 17.954526999999999
#
# number of rings (size 3 to 8) (size 9 to 14) (size 15 to 20)
#    0.167    2.000    0.833    4.250    1.167    2.667 
#    2.500    0.000    0.000    3.333    0.000    2.333 
#    0.000    0.000    0.000    0.000    0.000   30.667 
#
# Total GULP energy -1784074.358829 kJ/mol
# GULP energy per Si atom -12389.405270 kJ/mol
# Density = 1.791366 g / cm^3
# Si number density = 17.954527 Si / 1000 Ang^3
#
#
#
# Elastic Constant Matrix: (Units=GPa)
#
#
# Indices 1 2 3 4 5 6 
#
# 1 125.9379 61.7808 30.8307 0.0000 0.0000 0.0000
# 2 61.7808 125.9379 30.8307 0.0000 0.0000 0.0000
# 3 30.8307 30.8307 34.2190 0.0000 0.0000 0.0000
# 4 0.0000 0.0000 0.0000 21.5205 0.0000 0.0000
# 5 0.0000 0.0000 0.0000 0.0000 21.5205 0.0000
# 6 0.0000 0.0000 0.0000 0.0000 0.0000 32.0785
#
#
#
# Elastic Compliance Matrix: (Units=1/GPa)
#
#
# Indices 1 2 3 4 5 6 
#
# 1 0.011577 -0.004010 -0.006817 0.000000 0.000000 0.000000
# 2 -0.004010 0.011577 -0.006817 0.000000 0.000000 0.000000
# 3 -0.006817 -0.006817 0.041508 0.000000 0.000000 0.000000
# 4 0.000000 0.000000 0.000000 0.046467 0.000000 0.000000
# 5 0.000000 0.000000 0.000000 0.000000 0.046467 0.000000
# 6 0.000000 0.000000 0.000000 0.000000 0.000000 0.031174
#
#
# Mechanical properties :
#
#
# Convention : Reuss Voigt Hill
#
# Bulk Modulus (GPa) = 34.04619 59.21991 46.63305
# Shear Modulus (GPa) = 21.38134 25.86742 23.62438
#
# Velocity S-wave (km/s) = 3.45463 3.79980 3.63132
# Velocity P-wave (km/s) = 5.90900 7.23230 6.60388
#
# Compressibility (1/GPa) = 0.02937187
#
# Stress axis : x y z
#
# Youngs Moduli (GPa) = 86.38127 86.38127 24.09186
#
# Poissons Ratio (x) = 0.34640 0.16424
# Poissons Ratio (y) = 0.34640 0.16424
# Poissons Ratio (z) = 0.58888 0.58888
#
# Static dielectric constant tensor:
#      x y z
#    x 3.621560 0.000000 0.000000 
#    y 0.000000 3.621560 0.000000 
#    z 0.000000 0.000000 3.090870 
# 
# 
# High freq. dielectric constant tensor:
#      x y z
#    x 1.697030 0.000000 0.000000 
#    y 0.000000 1.697030 0.000000 
#    z 0.000000 0.000000 1.665020 
# 
# From -- ./inp_files/5163.got.cif
#   From: 2010.03.12/outbox.ucp.g09.slc.cvg/sg192_3_cif.got.tgz:5163.got - 2010.05.04 20:47:40.
