data_PCOD8329527
_publ_section_title
;
Structure prediction by ZEFSAII (Michael W. Deem and Ramdas Pophale) SiO2 
 PCOD8329527
Probable space group: P 6/M C C
;
_chemical_formula_sum "Si O2"
_cell_formula_units_Z 144
_cell_length_a 29.464077
_cell_length_b 29.464077
_cell_length_c 9.020902
_cell_angle_alpha 90.000000
_cell_angle_beta 90.000000
_cell_angle_gamma 120.000000
_cell_volume 6782.132624
_symmetry_space_group_name_H-M "P 6/M C C"
_symmetry_group_IT_number 192
_symmetry_cell_setting 'hexagonal'
loop_
_space_group_symop_operation_xyz
x,y,z
x-y,x,z
-y,x-y,z
-x,-y,z
-x+y,-x,z
y,-x+y,z
x-y,-y,1/2-z
-x,-x+y,1/2-z
y,x,1/2-z
-y,-x,1/2-z
-x+y,y,1/2-z
x,x-y,1/2-z
-x,-y,-z
-x+y,-x,-z
y,-x+y,-z
x,y,-z
x-y,x,-z
-y,x-y,-z
-x+y,y,1/2+z
x,x-y,1/2+z
-y,-x,1/2+z
y,x,1/2+z
x-y,-y,1/2+z
-x,-x+y,1/2+z
loop_
_atom_site_type_symbol
_atom_site_label
_atom_site_fract_x
_atom_site_fract_y
_atom_site_fract_z
Si Si1 0.173928 0.045986 0.841071
Si Si2 0.119378 0.607621 0.826316
Si Si3 0.362479 0.136206 0.325969
Si Si4 0.277973 0.230227 0.338244
Si Si5 0.332205 0.571202 0.826256
Si Si6 0.055762 0.652996 0.675634
O O1 0.198503 0.099252 0.750000
O O2 0.218240 0.030772 0.865809
O O3 0.125818 0.000000 0.750000
O O4 0.153033 0.052524 0.000000
O O5 0.112412 0.556206 0.750000
O O6 0.179237 0.654464 0.801451
O O7 0.076958 0.617616 0.746566
O O8 0.106418 0.597848 0.000000
O O9 0.388711 0.194356 0.250000
O O10 0.359558 0.143775 0.500000
O O11 0.304919 0.101399 0.255635
O O12 0.389799 0.101939 0.286956
O O13 0.278936 0.278936 0.250000
O O14 0.305250 0.250675 0.500000
O O15 0.375283 0.624718 0.750000
O O16 0.276166 0.552332 0.750000
O O17 0.329945 0.582052 0.000000
O O18 0.048038 0.644118 0.500000
O O19 0.000000 0.637815 0.750000
#
# Coordination Sequence:
#
# PCOD8329527 Si02
#       6
#    24  24  24  24  24  24
#     4  10  20  33  50  73 100 131 168 212 262 315
#     4  10  22  41  65  92 122 157 200 253 310 367
#     4  11  24  40  60  87 121 161 202 245 293 349
#     4  10  20  34  55  82 114 151 191 235 281 332
#     4  10  20  34  55  85 123 166 209 255 308 370
#     4  11  25  44  66  92 122 158 202 252 306 366
#
# _framework density 21.23226
#
# number of rings (size 3 to 8) (size 9 to 14) (size 15 to 20)
#    0.000    1.667    0.000    4.167    0.000   10.333 
#    0.000    5.000    0.000    0.167    0.000    1.167 
#    0.000    0.000    0.000    0.000    0.000    0.000 
#
# Total GULP energy -1784717.924901 kJ/mol
# GULP energy per Si atom -12393.874478 kJ/mol
# Density = 2.118393 g / cm^3
# Si number density = 21.232260 Si / 1000 Ang^3
#
#
#
# Elastic Constant Matrix: (Units=GPa)
#
#
# Indices 1 2 3 4 5 6 
#
# 1 92.1775 51.1153 65.4658 0.0000 0.0000 0.0000
# 2 51.1153 92.1775 65.4658 0.0000 0.0000 0.0000
# 3 65.4658 65.4658 187.4225 0.0000 0.0000 0.0000
# 4 0.0000 0.0000 0.0000 30.4878 0.0000 0.0000
# 5 0.0000 0.0000 0.0000 0.0000 30.4878 0.0000
# 6 0.0000 0.0000 0.0000 0.0000 0.0000 20.5311
#
#
#
# Elastic Compliance Matrix: (Units=1/GPa)
#
#
# Indices 1 2 3 4 5 6 
#
# 1 0.017302 -0.007052 -0.003580 0.000000 0.000000 0.000000
# 2 -0.007052 0.017302 -0.003580 0.000000 0.000000 0.000000
# 3 -0.003580 -0.003580 0.007837 0.000000 0.000000 0.000000
# 4 0.000000 0.000000 0.000000 0.032800 0.000000 0.000000
# 5 0.000000 0.000000 0.000000 0.000000 0.032800 0.000000
# 6 0.000000 0.000000 0.000000 0.000000 0.000000 0.048707
#
#
# Mechanical properties :
#
#
# Convention : Reuss Voigt Hill
#
# Bulk Modulus (GPa) = 71.34825 81.76344 76.55584
# Shear Modulus (GPa) = 26.33752 28.95006 27.64379
#
# Velocity S-wave (km/s) = 3.52582 3.69656 3.61220
# Velocity P-wave (km/s) = 7.08886 7.53738 7.31655
#
# Compressibility (1/GPa) = 0.01401576
#
# Stress axis : x y z
#
# Youngs Moduli (GPa) = 57.79760 57.79760 127.60418
#
# Poissons Ratio (x) = 0.40756 0.45687
# Poissons Ratio (y) = 0.40756 0.45687
# Poissons Ratio (z) = 0.20694 0.20694
#
# Static dielectric constant tensor:
#      x y z
#    x 3.732550 0.000000 0.000000 
#    y 0.000000 3.732550 0.000000 
#    z 0.000000 0.000000 4.230360 
# 
# 
# High freq. dielectric constant tensor:
#      x y z
#    x 1.819600 0.000000 0.000000 
#    y 0.000000 1.819600 0.000000 
#    z 0.000000 0.000000 1.857090 
# 
# From -- ./inp_files/1168.got.cif
#   From: 2010.03.12/outbox.cif.g09.slc.cpg/sg192_1_cif.got.tgz:1168.got - 2010.04.01 12:16:15.
