data_PCOD8329597
_publ_section_title
;
Structure prediction by ZEFSAII (Michael W. Deem and Ramdas Pophale) SiO2 
 PCOD8329597
Probable space group: P 6/M C C
;
_chemical_formula_sum "Si O2"
_cell_formula_units_Z 120
_cell_length_a 14.073805
_cell_length_b 14.073805
_cell_length_c 28.884750
_cell_angle_alpha 90.000000
_cell_angle_beta 90.000000
_cell_angle_gamma 120.000000
_cell_volume 4954.756356
_symmetry_space_group_name_H-M "P 6/M C C"
_symmetry_group_IT_number 192
_symmetry_cell_setting 'hexagonal'
loop_
_space_group_symop_operation_xyz
x,y,z
x-y,x,z
-y,x-y,z
-x,-y,z
-x+y,-x,z
y,-x+y,z
x-y,-y,1/2-z
-x,-x+y,1/2-z
y,x,1/2-z
-y,-x,1/2-z
-x+y,y,1/2-z
x,x-y,1/2-z
-x,-y,-z
-x+y,-x,-z
y,-x+y,-z
x,y,-z
x-y,x,-z
-y,x-y,-z
-x+y,y,1/2+z
x,x-y,1/2+z
-y,-x,1/2+z
y,x,1/2+z
x-y,-y,1/2+z
-x,-x+y,1/2+z
loop_
_atom_site_type_symbol
_atom_site_label
_atom_site_fract_x
_atom_site_fract_y
_atom_site_fract_z
Si Si1 0.987669 0.206705 0.419368
Si Si2 0.597662 0.473676 0.855273
Si Si3 0.555574 0.627154 0.549894
Si Si4 0.741123 0.210123 0.199641
Si Si5 0.766745 0.817897 0.810292
O O1 0.968583 0.186248 0.364937
O O2 0.099021 0.216159 0.440208
O O3 0.990472 0.318464 0.434019
O O4 0.500000 0.500000 0.852084
O O5 0.642640 0.487210 0.908317
O O6 0.558708 0.355403 0.832695
O O7 0.704034 0.559971 0.825718
O O8 0.500000 0.500000 0.541109
O O9 0.551175 0.680437 0.500000
O O10 0.740925 0.259076 0.250000
O O11 0.732231 0.091396 0.203456
O O12 0.854528 0.789198 0.788794
#
# Coordination Sequence:
#
# PCOD8329597 Si02
#       5
#    24  24  24  24  24
#     4  10  20  38  66 103 146 192 237 288 354 430
#     4  11  24  45  68  94 131 171 218 280 351 421
#     4  10  22  41  66  95 131 179 235 294 355 421
#     4  12  25  41  65  96 128 169 223 281 345 416
#     4  10  20  36  59  90 130 174 219 265 319 388
#
# _framework density 24.219152000000001
#
# number of rings (size 3 to 8) (size 9 to 14) (size 15 to 20)
#    0.000    1.400    0.000    7.400    0.000    6.400 
#    0.000    3.000    0.000    3.200    0.000    0.000 
#    0.000    0.000    0.000    0.000    0.000    0.000 
#
# Total GULP energy -1486737.341211 kJ/mol
# GULP energy per Si atom -12389.477843 kJ/mol
# Density = 2.416403 g / cm^3
# Si number density = 24.219152 Si / 1000 Ang^3
#
#
#
# Elastic Constant Matrix: (Units=GPa)
#
#
# Indices 1 2 3 4 5 6 
#
# 1 117.0534 37.0019 42.9972 0.0000 0.0000 0.0000
# 2 37.0019 117.0534 42.9972 0.0000 0.0000 0.0000
# 3 42.9972 42.9972 156.2065 0.0000 0.0000 0.0000
# 4 0.0000 0.0000 0.0000 59.5563 0.0000 0.0000
# 5 0.0000 0.0000 0.0000 0.0000 59.5563 0.0000
# 6 0.0000 0.0000 0.0000 0.0000 0.0000 40.0258
#
#
#
# Elastic Compliance Matrix: (Units=1/GPa)
#
#
# Indices 1 2 3 4 5 6 
#
# 1 0.010081 -0.002411 -0.002111 0.000000 0.000000 0.000000
# 2 -0.002411 0.010081 -0.002111 0.000000 0.000000 0.000000
# 3 -0.002111 -0.002111 0.007564 0.000000 0.000000 0.000000
# 4 0.000000 0.000000 0.000000 0.016791 0.000000 0.000000
# 5 0.000000 0.000000 0.000000 0.000000 0.016791 0.000000
# 6 0.000000 0.000000 0.000000 0.000000 0.000000 0.024984
#
#
# Mechanical properties :
#
#
# Convention : Reuss Voigt Hill
#
# Bulk Modulus (GPa) = 69.16246 70.70067 69.93156
# Shear Modulus (GPa) = 47.90301 49.64880 48.77590
#
# Velocity S-wave (km/s) = 4.45218 4.53258 4.49256
# Velocity P-wave (km/s) = 7.41944 7.52648 7.47315
#
# Compressibility (1/GPa) = 0.01445871
#
# Stress axis : x y z
#
# Youngs Moduli (GPa) = 99.19863 99.19863 132.20527
#
# Poissons Ratio (x) = 0.23918 0.27910
# Poissons Ratio (y) = 0.23918 0.27910
# Poissons Ratio (z) = 0.20942 0.20942
#
# Static dielectric constant tensor:
#      x y z
#    x 4.375730 0.000000 0.000000 
#    y 0.000000 4.375730 0.000000 
#    z 0.000000 0.000000 4.727080 
# 
# 
# High freq. dielectric constant tensor:
#      x y z
#    x 1.953990 0.000000 0.000000 
#    y 0.000000 1.953990 0.000000 
#    z 0.000000 0.000000 1.972390 
# 
# From -- ./inp_files/6932.got.cif
#   From: 2010.03.12/outbox.cif.g09.slc.cpg/sg192_4_cif.got.tgz:6932.got - 2010.04.01 12:16:15.
