data_PCOD8329238
_publ_section_title
;
Structure prediction by ZEFSAII (Michael W. Deem and Ramdas Pophale) SiO2 
 PCOD8329238
Probable space group: P 6/M M M
;
_chemical_formula_sum "Si O2"
_cell_formula_units_Z 114
_cell_length_a 21.466710
_cell_length_b 21.466710
_cell_length_c 13.738354
_cell_angle_alpha 90.000000
_cell_angle_beta 90.000000
_cell_angle_gamma 120.000000
_cell_volume 5482.723104
_symmetry_space_group_name_H-M "P 6/M M M"
_symmetry_group_IT_number 191
_symmetry_cell_setting 'hexagonal'
loop_
_space_group_symop_operation_xyz
x,y,z
x-y,x,z
-y,x-y,z
-x,-y,z
-x+y,-x,z
y,-x+y,z
x-y,-y,-z
-x,-x+y,-z
y,x,-z
-y,-x,-z
-x+y,y,-z
x,x-y,-z
-x,-y,-z
-x+y,-x,-z
y,-x+y,-z
x,y,-z
x-y,x,-z
-y,x-y,-z
-x+y,y,z
x,x-y,z
-y,-x,z
y,x,z
x-y,-y,z
-x,-x+y,z
loop_
_atom_site_type_symbol
_atom_site_label
_atom_site_fract_x
_atom_site_fract_y
_atom_site_fract_z
Si Si1 0.666660 0.473518 0.365165
Si Si2 0.636042 0.919958 0.607747
Si Si3 0.134667 0.865334 0.693526
Si Si4 0.085489 0.170977 0.500000
Si Si5 0.332897 0.528583 0.862954
Si Si6 0.534965 0.923116 0.000000
Si Si7 0.914703 0.829406 0.112914
O O1 0.731101 0.462201 0.404906
O O2 0.590823 0.409178 0.406414
O O3 0.679894 0.550393 0.397093
O O4 0.665608 0.471901 0.250868
O O5 0.665732 0.917186 0.500000
O O6 0.677129 0.897826 0.686319
O O7 0.652912 0.000000 0.633215
O O8 0.107619 0.892382 0.601802
O O9 0.115570 0.884431 0.800461
O O10 0.121344 0.121344 0.500000
O O11 0.257834 0.515667 0.903977
O O12 0.395043 0.604958 0.903427
O O13 0.345249 0.465407 0.903989
O O14 0.467738 0.935475 0.000000
O O15 0.607960 0.000000 0.000000
O O16 0.878659 0.878659 0.128126
O O17 0.899131 0.798262 0.000000
#
# Coordination Sequence:
#
# PCOD8329238 Si02
#       7
#    24  24  12   6  24  12  12
#     4  10  21  38  60  87 118 155 202 261 329 397
#     4  11  23  40  63  90 121 163 216 270 326 394
#     4  12  22  40  65  92 130 180 236 280 331 401
#     4  12  23  36  60 100 142 182 226 286 346 396
#     4   9  17  30  51  77 106 140 184 237 297 361
#     4   9  17  28  44  70 106 145 182 226 288 366
#     4  10  21  38  64 100 144 190 234 280 334 397
#
# _framework density 20.792586
#
# number of rings (size 3 to 8) (size 9 to 14) (size 15 to 20)
#    0.000    1.789    2.105    2.789    0.000    3.789 
#    0.000    5.263    2.316    1.263    0.000    0.000 
#    0.000    0.000    0.000    0.000    0.000    0.000 
#
# Total GULP energy -1412359.971356 kJ/mol
# GULP energy per Si atom -12389.122556 kJ/mol
# Density = 2.074526 g / cm^3
# Si number density = 20.792586 Si / 1000 Ang^3
#
#
#
# Elastic Constant Matrix: (Units=GPa)
#
#
# Indices 1 2 3 4 5 6 
#
# 1 145.8191 82.5005 47.6081 0.0000 0.0000 0.0000
# 2 82.5005 145.8191 47.6081 0.0000 0.0000 0.0000
# 3 47.6081 47.6081 110.6991 0.0000 0.0000 0.0000
# 4 0.0000 0.0000 0.0000 42.9650 0.0000 0.0000
# 5 0.0000 0.0000 0.0000 0.0000 42.9650 0.0000
# 6 0.0000 0.0000 0.0000 0.0000 0.0000 31.6593
#
#
#
# Elastic Compliance Matrix: (Units=1/GPa)
#
#
# Indices 1 2 3 4 5 6 
#
# 1 0.010565 -0.005228 -0.002295 0.000000 0.000000 0.000000
# 2 -0.005228 0.010565 -0.002295 0.000000 0.000000 0.000000
# 3 -0.002295 -0.002295 0.011008 0.000000 0.000000 0.000000
# 4 0.000000 0.000000 0.000000 0.023275 0.000000 0.000000
# 5 0.000000 0.000000 0.000000 0.000000 0.023275 0.000000
# 6 0.000000 0.000000 0.000000 0.000000 0.000000 0.031586
#
#
# Mechanical properties :
#
#
# Convention : Reuss Voigt Hill
#
# Bulk Modulus (GPa) = 79.99567 84.19674 82.09620
# Shear Modulus (GPa) = 37.29178 38.49258 37.89218
#
# Velocity S-wave (km/s) = 4.23958 4.30730 4.27358
# Velocity P-wave (km/s) = 7.90709 8.08200 7.99502
#
# Compressibility (1/GPa) = 0.01250068
#
# Stress axis : x y z
#
# Youngs Moduli (GPa) = 94.65141 94.65141 90.84507
#
# Poissons Ratio (x) = 0.49484 0.20852
# Poissons Ratio (y) = 0.49484 0.20852
# Poissons Ratio (z) = 0.21725 0.21725
#
# Static dielectric constant tensor:
#      x y z
#    x 3.939570 0.000000 0.000000 
#    y 0.000000 3.939570 0.000000 
#    z 0.000000 0.000000 3.852830 
# 
# 
# High freq. dielectric constant tensor:
#      x y z
#    x 1.808900 0.000000 0.000000 
#    y 0.000000 1.808900 0.000000 
#    z 0.000000 0.000000 1.822940 
# 
# From -- ./inp_files/4452.got.cif
#   From: 2010.03.12/outbox.cif.g09.slc.cpg/sg191_3_cif.got.tgz:4452.got - 2010.04.01 12:09:02.
