data_PCOD8329167
_publ_section_title
;
Structure prediction by ZEFSAII (Michael W. Deem and Ramdas Pophale) SiO2 
 PCOD8329167
Probable space group: P 6/M M M
;
_chemical_formula_sum "Si O2"
_cell_formula_units_Z 138
_cell_length_a 30.893550
_cell_length_b 30.893550
_cell_length_c 8.137077
_cell_angle_alpha 90.000000
_cell_angle_beta 90.000000
_cell_angle_gamma 120.000000
_cell_volume 6725.656610
_symmetry_space_group_name_H-M "P 6/M M M"
_symmetry_group_IT_number 191
_symmetry_cell_setting 'hexagonal'
loop_
_space_group_symop_operation_xyz
x,y,z
x-y,x,z
-y,x-y,z
-x,-y,z
-x+y,-x,z
y,-x+y,z
x-y,-y,-z
-x,-x+y,-z
y,x,-z
-y,-x,-z
-x+y,y,-z
x,x-y,-z
-x,-y,-z
-x+y,-x,-z
y,-x+y,-z
x,y,-z
x-y,x,-z
-y,x-y,-z
-x+y,y,z
x,x-y,z
-y,-x,z
y,x,z
x-y,-y,z
-x,-x+y,z
loop_
_atom_site_type_symbol
_atom_site_label
_atom_site_fract_x
_atom_site_fract_y
_atom_site_fract_z
Si Si1 0.666893 0.430962 0.696059
Si Si2 0.135270 0.763436 0.813769
Si Si3 0.205575 0.942451 0.190497
Si Si4 0.143004 0.673795 0.687669
Si Si5 0.880532 0.940266 0.000000
Si Si6 0.193994 0.096997 0.311651
Si Si7 0.945094 0.425269 0.807294
O O1 0.668081 0.431608 0.500000
O O2 0.712143 0.424286 0.764250
O O3 0.614710 0.385291 0.761618
O O4 0.674170 0.483102 0.768492
O O5 0.181962 0.818039 0.799327
O O6 0.088115 0.767600 0.748731
O O7 0.145137 0.726383 0.704591
O O8 0.126225 0.743301 0.000000
O O9 0.156458 0.928339 0.294598
O O10 0.245616 0.000000 0.217652
O O11 0.189452 0.929782 0.000000
O O12 0.142996 0.660658 0.500000
O O13 0.092044 0.631483 0.763849
O O14 0.914936 0.914936 0.000000
O O15 0.848255 0.924128 0.831007
O O16 0.171754 0.085877 0.500000
O O17 0.927105 0.463553 0.739967
O O18 0.000000 0.441915 0.733656
O O19 0.949484 0.430198 0.000000
#
# Coordination Sequence:
#
# PCOD8329167 Si02
#       7
#    24  24  24  24   6  12  24
#     4   9  17  30  49  74 105 144 189 236 288 350
#     4  10  21  38  58  82 115 157 202 242 288 351
#     4  10  20  39  66  92 121 159 205 259 314 371
#     4  11  22  34  52  81 118 152 186 235 299 366
#     4  12  27  48  72 100 140 184 228 276 326 386
#     4  12  24  41  69 103 134 170 218 272 328 386
#     4   9  19  37  59  80 104 140 189 240 287 344
#
# _framework density 20.518445
#
# number of rings (size 3 to 8) (size 9 to 14) (size 15 to 20)
#    0.000    1.913    1.739    2.826    0.000    5.913 
#    0.000    2.609    0.000    0.522    0.000    0.000 
#    0.000    8.348    0.000    0.000    0.000    0.000 
#
# Total GULP energy -1710965.637969 kJ/mol
# GULP energy per Si atom -12398.301724 kJ/mol
# Density = 2.047174 g / cm^3
# Si number density = 20.518445 Si / 1000 Ang^3
#
#
#
# Elastic Constant Matrix: (Units=GPa)
#
#
# Indices 1 2 3 4 5 6 
#
# 1 147.7820 72.5175 25.3650 0.0000 0.0000 0.0000
# 2 72.5175 147.7820 25.3650 0.0000 0.0000 0.0000
# 3 25.3650 25.3650 54.7302 0.0000 0.0000 0.0000
# 4 0.0000 0.0000 0.0000 67.4069 0.0000 0.0000
# 5 0.0000 0.0000 0.0000 0.0000 67.4069 0.0000
# 6 0.0000 0.0000 0.0000 0.0000 0.0000 37.6322
#
#
#
# Elastic Compliance Matrix: (Units=1/GPa)
#
#
# Indices 1 2 3 4 5 6 
#
# 1 0.009184 -0.004102 -0.002355 0.000000 0.000000 0.000000
# 2 -0.004102 0.009184 -0.002355 0.000000 0.000000 0.000000
# 3 -0.002355 -0.002355 0.020454 0.000000 0.000000 0.000000
# 4 0.000000 0.000000 0.000000 0.014835 0.000000 0.000000
# 5 0.000000 0.000000 0.000000 0.000000 0.014835 0.000000
# 6 0.000000 0.000000 0.000000 0.000000 0.000000 0.026573
#
#
# Mechanical properties :
#
#
# Convention : Reuss Voigt Hill
#
# Bulk Modulus (GPa) = 47.17593 66.30989 56.74291
# Shear Modulus (GPa) = 41.75121 49.62567 45.68844
#
# Velocity S-wave (km/s) = 4.51578 4.92325 4.72391
# Velocity P-wave (km/s) = 7.08743 8.04396 7.58079
#
# Compressibility (1/GPa) = 0.02119725
#
# Stress axis : x y z
#
# Youngs Moduli (GPa) = 108.88454 108.88454 48.88917
#
# Poissons Ratio (x) = 0.44669 0.11514
# Poissons Ratio (y) = 0.44669 0.11514
# Poissons Ratio (z) = 0.25643 0.25643
#
# Static dielectric constant tensor:
#      x y z
#    x 3.964480 0.000000 0.000000 
#    y 0.000000 3.964480 0.000000 
#    z 0.000000 0.000000 3.456980 
# 
# 
# High freq. dielectric constant tensor:
#      x y z
#    x 1.810140 0.000000 0.000000 
#    y 0.000000 1.810140 0.000000 
#    z 0.000000 0.000000 1.772020 
# 
# From -- ./inp_files/2048.got.cif
#   From: 2010.03.12/outbox.cif.g09.slc.cpg/sg191_2_cif.got.tgz:2048.got - 2010.04.01 12:09:02.
