data_PCOD8329522
_publ_section_title
;
Structure prediction by ZEFSAII (Michael W. Deem and Ramdas Pophale) SiO2 
 PCOD8329522
Probable space group: P 6/M C C
;
_chemical_formula_sum "Si O2"
_cell_formula_units_Z 120
_cell_length_a 24.535817
_cell_length_b 24.535817
_cell_length_c 14.272961
_cell_angle_alpha 90.000000
_cell_angle_beta 90.000000
_cell_angle_gamma 120.000000
_cell_volume 7441.247650
_symmetry_space_group_name_H-M "P 6/M C C"
_symmetry_group_IT_number 192
_symmetry_cell_setting 'hexagonal'
loop_
_space_group_symop_operation_xyz
x,y,z
x-y,x,z
-y,x-y,z
-x,-y,z
-x+y,-x,z
y,-x+y,z
x-y,-y,1/2-z
-x,-x+y,1/2-z
y,x,1/2-z
-y,-x,1/2-z
-x+y,y,1/2-z
x,x-y,1/2-z
-x,-y,-z
-x+y,-x,-z
y,-x+y,-z
x,y,-z
x-y,x,-z
-y,x-y,-z
-x+y,y,1/2+z
x,x-y,1/2+z
-y,-x,1/2+z
y,x,1/2+z
x-y,-y,1/2+z
-x,-x+y,1/2+z
loop_
_atom_site_type_symbol
_atom_site_label
_atom_site_fract_x
_atom_site_fract_y
_atom_site_fract_z
Si Si1 0.925391 0.376091 0.500000
Si Si2 0.857504 0.142497 0.638710
Si Si3 0.929874 0.070127 0.639322
Si Si4 0.747617 0.075239 0.000000
Si Si5 0.672376 0.747618 0.500000
Si Si6 0.925390 0.549299 0.500000
Si Si7 0.074996 0.537498 0.353824
O O1 0.899892 0.301979 0.500000
O O2 0.901508 0.396519 0.407888
O O3 0.000000 0.412356 0.500000
O O4 0.851990 0.148011 0.750000
O O5 0.893839 0.106161 0.609175
O O6 0.896888 0.211647 0.594192
O O7 0.788355 0.103114 0.594192
O O8 0.932954 0.067047 0.750000
O O9 0.000000 0.106765 0.596854
O O10 0.714638 0.999999 0.000000
O O11 0.597912 0.698022 0.500000
O O12 0.901507 0.504988 0.407888
O O13 0.104515 0.552258 0.250000
O O14 0.000000 0.500000 0.349486
#
# Coordination Sequence:
#
# PCOD8329522 Si02
#       7
#    12  24  24  12  12  12  24
#     4   8  15  26  40  62  88 113 145 177 206 249
#     4  10  21  34  46  63  88 117 153 200 250 302
#     4   9  16  27  44  63  80 100 134 190 262 330
#     4  10  20  33  48  64  85 118 158 197 237 284
#     4  10  20  33  48  64  85 118 158 197 237 284
#     4   8  15  26  40  62  88 113 145 177 206 249
#     4   8  13  23  40  63  91 116 135 163 200 232
#
# _framework density 16.126328000000001
#
# number of rings (size 3 to 8) (size 9 to 14) (size 15 to 20)
#    0.000    3.000    0.000    2.600    0.000    4.800 
#    0.000    4.000    0.000    0.000    0.000    7.000 
#    0.000    0.000    0.000   38.400    0.000   89.600 
#
# Total GULP energy -1487364.024563 kJ/mol
# GULP energy per Si atom -12394.700205 kJ/mol
# Density = 1.608962 g / cm^3
# Si number density = 16.126328 Si / 1000 Ang^3
#
#
#
# Elastic Constant Matrix: (Units=GPa)
#
#
# Indices 1 2 3 4 5 6 
#
# 1 107.6746 54.4444 48.9336 0.0000 0.0000 0.0000
# 2 54.4444 107.6746 48.9336 0.0000 0.0000 0.0000
# 3 48.9336 48.9336 136.5659 0.0000 0.0000 0.0000
# 4 0.0000 0.0000 0.0000 14.5478 0.0000 0.0000
# 5 0.0000 0.0000 0.0000 0.0000 14.5478 0.0000
# 6 0.0000 0.0000 0.0000 0.0000 0.0000 26.6151
#
#
#
# Elastic Compliance Matrix: (Units=1/GPa)
#
#
# Indices 1 2 3 4 5 6 
#
# 1 0.013329 -0.005458 -0.002820 0.000000 0.000000 0.000000
# 2 -0.005458 0.013329 -0.002820 0.000000 0.000000 0.000000
# 3 -0.002820 -0.002820 0.009344 0.000000 0.000000 0.000000
# 4 0.000000 0.000000 0.000000 0.068739 0.000000 0.000000
# 5 0.000000 0.000000 0.000000 0.000000 0.068739 0.000000
# 6 0.000000 0.000000 0.000000 0.000000 0.000000 0.037573
#
#
# Mechanical properties :
#
#
# Convention : Reuss Voigt Hill
#
# Bulk Modulus (GPa) = 72.44151 72.94869 72.69510
# Shear Modulus (GPa) = 21.02174 24.44903 22.73538
#
# Velocity S-wave (km/s) = 3.61441 3.89793 3.75884
# Velocity P-wave (km/s) = 7.90173 8.09892 8.00093
#
# Compressibility (1/GPa) = 0.01380424
#
# Stress axis : x y z
#
# Youngs Moduli (GPa) = 75.02673 75.02673 107.02590
#
# Poissons Ratio (x) = 0.40948 0.30184
# Poissons Ratio (y) = 0.40948 0.30184
# Poissons Ratio (z) = 0.21159 0.21159
#
# Static dielectric constant tensor:
#      x y z
#    x 3.013780 0.000000 0.000000 
#    y 0.000000 3.013780 0.000000 
#    z 0.000000 0.000000 3.163100 
# 
# 
# High freq. dielectric constant tensor:
#      x y z
#    x 1.594490 0.000000 0.000000 
#    y 0.000000 1.594490 0.000000 
#    z 0.000000 0.000000 1.630530 
# 
# From -- ./inp_files/3195.got.cif
#   From: 2010.03.12/outbox.cif.g09.slc.cpg/sg192_2_cif.got.tgz:3195.got - 2010.04.01 12:16:15.
