data_PCOD8329675
_publ_section_title
;
Structure prediction by ZEFSAII (Michael W. Deem and Ramdas Pophale) SiO2 
 PCOD8329675
Probable space group: P 6/M C C
;
_chemical_formula_sum "Si O2"
_cell_formula_units_Z 104
_cell_length_a 19.649088
_cell_length_b 19.649088
_cell_length_c 16.039712
_cell_angle_alpha 90.000000
_cell_angle_beta 90.000000
_cell_angle_gamma 120.000000
_cell_volume 5363.051818
_symmetry_space_group_name_H-M "P 6/M C C"
_symmetry_group_IT_number 192
_symmetry_cell_setting 'hexagonal'
loop_
_space_group_symop_operation_xyz
x,y,z
x-y,x,z
-y,x-y,z
-x,-y,z
-x+y,-x,z
y,-x+y,z
x-y,-y,1/2-z
-x,-x+y,1/2-z
y,x,1/2-z
-y,-x,1/2-z
-x+y,y,1/2-z
x,x-y,1/2-z
-x,-y,-z
-x+y,-x,-z
y,-x+y,-z
x,y,-z
x-y,x,-z
-y,x-y,-z
-x+y,y,1/2+z
x,x-y,1/2+z
-y,-x,1/2+z
y,x,1/2+z
x-y,-y,1/2+z
-x,-x+y,1/2+z
loop_
_atom_site_type_symbol
_atom_site_label
_atom_site_fract_x
_atom_site_fract_y
_atom_site_fract_z
Si Si1 0.197403 0.695596 0.402850
Si Si2 0.712231 0.716073 0.403850
Si Si3 0.031733 0.585871 0.656777
Si Si4 0.835866 0.170515 0.598674
Si Si5 0.666668 0.333334 0.348346
O O1 0.175732 0.675625 0.500000
O O2 0.126566 0.630215 0.346974
O O3 0.207742 0.780442 0.380364
O O4 0.278365 0.699098 0.382072
O O5 0.730051 0.736712 0.500000
O O6 0.632296 0.633184 0.396584
O O7 0.701929 0.785298 0.361041
O O8 0.784610 0.709424 0.363547
O O9 0.000000 0.500000 0.617082
O O10 0.000000 0.578194 0.750000
O O11 0.841077 0.164439 0.500000
O O12 0.666668 0.333334 0.250000
#
# Coordination Sequence:
#
# PCOD8329675 Si02
#       5
#    24  24  24  24   8
#     4  10  22  40  57  80 108 148 197 236 280 352
#     4   9  17  32  53  78 104 140 182 227 275 336
#     4  10  22  35  55  77 108 136 179 230 291 339
#     4   8  16  31  54  79 104 135 182 230 274 325
#     4  12  28  38  58  81 118 155 190 246 301 338
#
# _framework density 19.391943999999999
#
# number of rings (size 3 to 8) (size 9 to 14) (size 15 to 20)
#    0.000    2.538    0.000    2.769    6.462    1.846 
#    0.000    3.462    0.000    0.462    0.000    3.231 
#    0.000    0.000    0.000    8.308    0.000    9.231 
#
# Total GULP energy -1288976.198211 kJ/mol
# GULP energy per Si atom -12394.001906 kJ/mol
# Density = 1.934781 g / cm^3
# Si number density = 19.391944 Si / 1000 Ang^3
#
#
#
# Elastic Constant Matrix: (Units=GPa)
#
#
# Indices 1 2 3 4 5 6 
#
# 1 149.6314 101.5276 9.6464 -0.0045 0.0024 0.0006
# 2 101.5276 149.6338 9.6465 0.0013 0.0008 -0.0002
# 3 9.6464 9.6465 36.1858 -0.0003 -0.0020 -0.0001
# 4 -0.0045 0.0013 -0.0003 -41.5894 -0.0263 0.0008
# 5 0.0024 0.0008 -0.0020 -0.0263 -41.5785 0.0029
# 6 0.0006 -0.0002 -0.0001 0.0008 0.0029 24.0511
#
#
#
# Elastic Compliance Matrix: (Units=1/GPa)
#
#
# Indices 1 2 3 4 5 6 
#
# 1 0.012426 -0.008362 -0.001084 -0.000002 0.000001 0.000000
# 2 -0.008362 0.012426 -0.001084 0.000001 0.000000 0.000000
# 3 -0.001084 -0.001084 0.028213 0.000000 -0.000001 0.000000
# 4 -0.000002 0.000001 0.000000 -0.024045 0.000015 0.000001
# 5 0.000001 0.000000 -0.000001 0.000015 -0.024051 0.000003
# 6 0.000000 0.000000 0.000000 0.000001 0.000003 0.041578
#
#
# Mechanical properties :
#
#
# Convention : Reuss Voigt Hill
#
# Bulk Modulus (GPa) = 31.24216 64.12134 47.68175
# Shear Modulus (GPa) = 63.87737 2.48532 33.18134
#
# Velocity S-wave (km/s) = 5.74558 1.13332 4.14102
# Velocity P-wave (km/s) = 7.75638 5.90341 6.89245
#
# Compressibility (1/GPa) = 0.03200803
#
# Stress axis : x y z
#
# Youngs Moduli (GPa) = 80.47377 80.47508 35.44481
#
# Poissons Ratio (x) = 0.67290 0.03841
# Poissons Ratio (y) = 0.67289 0.03841
# Poissons Ratio (z) = 0.08720 0.08720
#
# Static dielectric constant tensor:
#      x y z
#    x 3.954770 0.000000 0.000000 
#    y 0.000000 3.954790 0.000010 
#    z 0.000000 0.000010 3.221800 
# 
# 
# High freq. dielectric constant tensor:
#      x y z
#    x 1.753750 0.000000 0.000000 
#    y 0.000000 1.753750 0.000000 
#    z 0.000000 0.000000 1.728010 
# 
# From -- ./inp_files/2869.got.cif
#   From: 2010.03.12/outbox.cif.g09.slc.cpg/sg192_2_cif.got.tgz:2869.got - 2010.04.01 12:16:15.
