data_PCOD8329726
_publ_section_title
;
Structure prediction by ZEFSAII (Michael W. Deem and Ramdas Pophale) SiO2 
 PCOD8329726
Probable space group: P 6/M C C
;
_chemical_formula_sum "Si O2"
_cell_formula_units_Z 50
_cell_length_a 13.923418
_cell_length_b 13.923418
_cell_length_c 14.498124
_cell_angle_alpha 90.000000
_cell_angle_beta 90.000000
_cell_angle_gamma 120.000000
_cell_volume 2434.076169
_symmetry_space_group_name_H-M "P 6/M C C"
_symmetry_group_IT_number 192
_symmetry_cell_setting 'hexagonal'
loop_
_space_group_symop_operation_xyz
x,y,z
x-y,x,z
-y,x-y,z
-x,-y,z
-x+y,-x,z
y,-x+y,z
x-y,-y,1/2-z
-x,-x+y,1/2-z
y,x,1/2-z
-y,-x,1/2-z
-x+y,y,1/2-z
x,x-y,1/2-z
-x,-y,-z
-x+y,-x,-z
y,-x+y,-z
x,y,-z
x-y,x,-z
-y,x-y,-z
-x+y,y,1/2+z
x,x-y,1/2+z
-y,-x,1/2+z
y,x,1/2+z
x-y,-y,1/2+z
-x,-x+y,1/2+z
loop_
_atom_site_type_symbol
_atom_site_label
_atom_site_fract_x
_atom_site_fract_y
_atom_site_fract_z
Si Si1 0.272975 0.433222 0.658270
Si Si2 0.500000 0.000000 0.750000
Si Si3 0.742938 0.915162 0.500000
Si Si4 0.333335 0.666668 0.360120
O O1 0.198235 0.396470 0.750000
O O2 0.398621 0.471006 0.682784
O O3 0.223436 0.329679 0.590957
O O4 0.275832 0.538827 0.607123
O O5 0.798176 0.839285 0.500000
O O6 0.333334 0.666667 0.250000
#
# Coordination Sequence:
#
# PCOD8329726 Si02
#       4
#    24   6  12   8
#     4  11  22  43  69 103 140 178 214 284 351 421
#     4  12  20  38  72  96 142 174 220 274 350 420
#     4  12  29  47  67  95 135 188 249 291 333 391
#     4   9  18  40  62  97 145 161 196 268 347 412
#
# _framework density 20.541674
#
# number of rings (size 3 to 8) (size 9 to 14) (size 15 to 20)
#    0.000    0.960    7.200    3.120    0.000    2.880 
#    0.000    0.000    0.000    2.880    0.000    0.000 
#    0.000    0.000    0.000    0.000    0.000    0.000 
#
# Total GULP energy -620060.134737 kJ/mol
# GULP energy per Si atom -12401.202695 kJ/mol
# Density = 2.049492 g / cm^3
# Si number density = 20.541674 Si / 1000 Ang^3
#
#
#
# Elastic Constant Matrix: (Units=GPa)
#
#
# Indices 1 2 3 4 5 6 
#
# 1 157.3542 84.6842 71.1785 -0.0006 0.0001 0.0001
# 2 84.6842 157.3536 71.1785 0.0001 -0.0001 0.0004
# 3 71.1785 71.1785 111.2945 -0.0001 0.0006 0.0000
# 4 -0.0006 0.0001 -0.0001 -56.7451 0.0006 0.0001
# 5 0.0001 -0.0001 0.0006 0.0006 -56.7578 0.0004
# 6 0.0001 0.0004 0.0000 0.0001 0.0004 36.3364
#
#
#
# Elastic Compliance Matrix: (Units=1/GPa)
#
#
# Indices 1 2 3 4 5 6 
#
# 1 0.010192 -0.003569 -0.004236 0.000000 0.000000 0.000000
# 2 -0.003569 0.010192 -0.004236 0.000000 0.000000 0.000000
# 3 -0.004236 -0.004236 0.014403 0.000000 0.000000 0.000000
# 4 0.000000 0.000000 0.000000 -0.017623 0.000000 0.000000
# 5 0.000000 0.000000 0.000000 0.000000 -0.017619 0.000000
# 6 0.000000 0.000000 0.000000 0.000000 0.000000 0.027521
#
#
# Mechanical properties :
#
#
# Convention : Reuss Voigt Hill
#
# Bulk Modulus (GPa) = 93.40482 97.78718 95.59600
# Shear Modulus (GPa) = 91.38243 -2.16922 44.60661
#
# Velocity S-wave (km/s) = 6.67705 -1.02874 4.66501
# Velocity P-wave (km/s) = 10.24761 6.80416 8.69799
#
# Compressibility (1/GPa) = 0.01070609
#
# Stress axis : x y z
#
# Youngs Moduli (GPa) = 98.11796 98.11736 69.43027
#
# Poissons Ratio (x) = 0.35019 0.29408
# Poissons Ratio (y) = 0.35019 0.29408
# Poissons Ratio (z) = 0.41559 0.41559
#
# Static dielectric constant tensor:
#      x y z
#    x 4.047540 0.000000 0.000000 
#    y 0.000000 4.047530 0.000000 
#    z 0.000000 0.000000 3.573830 
# 
# 
# High freq. dielectric constant tensor:
#      x y z
#    x 1.815250 0.000000 0.000000 
#    y 0.000000 1.815250 0.000000 
#    z 0.000000 0.000000 1.787640 
# 
# From -- ./inp_files/2171.got.cif
#   From: 2010.03.12/outbox.cif.g09.slc.cpg/sg192_2_cif.got.tgz:2171.got - 2010.04.01 12:16:15.
