data_PCOD8329211
_publ_section_title
;
Structure prediction by ZEFSAII (Michael W. Deem and Ramdas Pophale) SiO2 
 PCOD8329211
Probable space group: P 6/M M M
;
_chemical_formula_sum "Si O2"
_cell_formula_units_Z 120
_cell_length_a 27.680775
_cell_length_b 27.680775
_cell_length_c 11.375091
_cell_angle_alpha 90.000000
_cell_angle_beta 90.000000
_cell_angle_gamma 120.000000
_cell_volume 7548.175719
_symmetry_space_group_name_H-M "P 6/M M M"
_symmetry_group_IT_number 191
_symmetry_cell_setting 'hexagonal'
loop_
_space_group_symop_operation_xyz
x,y,z
x-y,x,z
-y,x-y,z
-x,-y,z
-x+y,-x,z
y,-x+y,z
x-y,-y,-z
-x,-x+y,-z
y,x,-z
-y,-x,-z
-x+y,y,-z
x,x-y,-z
-x,-y,-z
-x+y,-x,-z
y,-x+y,-z
x,y,-z
x-y,x,-z
-y,x-y,-z
-x+y,y,z
x,x-y,z
-y,-x,z
y,x,z
x-y,-y,z
-x,-x+y,z
loop_
_atom_site_type_symbol
_atom_site_label
_atom_site_fract_x
_atom_site_fract_y
_atom_site_fract_z
Si Si1 0.502322 0.894390 0.749724
Si Si2 0.064151 0.610887 0.000000
Si Si3 0.394451 0.000000 0.638509
Si Si4 0.064114 0.725329 0.000000
Si Si5 0.170273 0.450770 0.636550
Si Si6 0.284291 0.000000 0.638553
Si Si7 0.668485 0.889604 0.245714
O O1 0.443082 0.886164 0.710805
O O2 0.551061 0.946655 0.683868
O O3 0.504769 0.839963 0.707605
O O4 0.509463 0.903102 0.888877
O O5 0.065998 0.668997 0.000000
O O6 0.000000 0.560556 0.000000
O O7 0.339625 0.000000 0.687307
O O8 0.393794 0.000000 0.500000
O O9 0.097464 0.761877 0.110842
O O10 0.000000 0.711445 0.000000
O O11 0.154256 0.448901 0.500000
O O12 0.234997 0.469994 0.652491
O O13 0.130956 0.389857 0.689195
O O14 0.285153 0.054756 0.688759
O O15 0.281260 0.000000 0.500000
O O16 0.687672 0.843836 0.254953
#
# Coordination Sequence:
#
# PCOD8329211 Si02
#       7
#    24  12  12  12  24  12  24
#     4  12  23  35  52  74 101 133 170 209 255 315
#     4  11  21  35  50  70 106 145 172 202 252 306
#     4  11  21  33  47  72 106 137 166 205 255 305
#     4  11  19  34  55  72 102 143 175 215 259 293
#     4  10  21  37  54  73  99 128 162 209 260 309
#     4  11  20  34  53  73 108 145 172 210 255 299
#     4  11  21  34  53  77 102 136 178 214 250 297
#
# _framework density 15.897881
#
# number of rings (size 3 to 8) (size 9 to 14) (size 15 to 20)
#    0.000    1.000    6.000    2.100    0.000    3.600 
#    0.000    0.500    0.000    0.400    0.000    0.000 
#    0.000    0.000    0.000    0.300    0.000    2.600 
#
# Total GULP energy -1488424.839571 kJ/mol
# GULP energy per Si atom -12403.540330 kJ/mol
# Density = 1.586170 g / cm^3
# Si number density = 15.897881 Si / 1000 Ang^3
#
#
#
# Elastic Constant Matrix: (Units=GPa)
#
#
# Indices 1 2 3 4 5 6 
#
# 1 89.6950 49.6302 39.5073 0.0000 0.0000 0.0000
# 2 49.6302 89.6950 39.5073 0.0000 0.0000 0.0000
# 3 39.5073 39.5073 103.3757 0.0000 0.0000 0.0000
# 4 0.0000 0.0000 0.0000 32.7084 0.0000 0.0000
# 5 0.0000 0.0000 0.0000 0.0000 32.7084 0.0000
# 6 0.0000 0.0000 0.0000 0.0000 0.0000 20.0324
#
#
#
# Elastic Compliance Matrix: (Units=1/GPa)
#
#
# Indices 1 2 3 4 5 6 
#
# 1 0.017062 -0.007898 -0.003502 0.000000 0.000000 0.000000
# 2 -0.007898 0.017062 -0.003502 0.000000 0.000000 0.000000
# 3 -0.003502 -0.003502 0.012350 0.000000 0.000000 0.000000
# 4 0.000000 0.000000 0.000000 0.030573 0.000000 0.000000
# 5 0.000000 0.000000 0.000000 0.000000 0.030573 0.000000
# 6 0.000000 0.000000 0.000000 0.000000 0.000000 0.049919
#
#
# Mechanical properties :
#
#
# Convention : Reuss Voigt Hill
#
# Bulk Modulus (GPa) = 59.99119 60.00615 59.99867
# Shear Modulus (GPa) = 25.92026 27.36459 26.64243
#
# Velocity S-wave (km/s) = 4.04223 4.15332 4.09815
# Velocity P-wave (km/s) = 7.72032 7.79915 7.75984
#
# Compressibility (1/GPa) = 0.01666912
#
# Stress axis : x y z
#
# Youngs Moduli (GPa) = 58.61131 58.61131 80.97023
#
# Poissons Ratio (x) = 0.46291 0.28356
# Poissons Ratio (y) = 0.46291 0.28356
# Poissons Ratio (z) = 0.20526 0.20526
#
# Static dielectric constant tensor:
#      x y z
#    x 2.931210 0.000000 0.000000 
#    y 0.000000 2.931210 0.000000 
#    z 0.000000 0.000000 3.192340 
# 
# 
# High freq. dielectric constant tensor:
#      x y z
#    x 1.588100 0.000000 0.000000 
#    y 0.000000 1.588100 0.000000 
#    z 0.000000 0.000000 1.635260 
# 
# From -- ./inp_files/3288.got.cif
#   From: 2010.03.12/outbox.cif.g09.slc.cpg/sg191_2_cif.got.tgz:3288.got - 2010.04.01 12:09:02.
