data_PCOD8329496
_publ_section_title
;
Structure prediction by ZEFSAII (Michael W. Deem and Ramdas Pophale) SiO2 
 PCOD8329496
Probable space group: P 6/M C C
;
_chemical_formula_sum "Si O2"
_cell_formula_units_Z 126
_cell_length_a 31.699454
_cell_length_b 31.699454
_cell_length_c 9.310925
_cell_angle_alpha 90.000000
_cell_angle_beta 90.000000
_cell_angle_gamma 120.000000
_cell_volume 8102.648959
_symmetry_space_group_name_H-M "P 6/M C C"
_symmetry_group_IT_number 192
_symmetry_cell_setting 'hexagonal'
loop_
_space_group_symop_operation_xyz
x,y,z
x-y,x,z
-y,x-y,z
-x,-y,z
-x+y,-x,z
y,-x+y,z
x-y,-y,1/2-z
-x,-x+y,1/2-z
y,x,1/2-z
-y,-x,1/2-z
-x+y,y,1/2-z
x,x-y,1/2-z
-x,-y,-z
-x+y,-x,-z
y,-x+y,-z
x,y,-z
x-y,x,-z
-y,x-y,-z
-x+y,y,1/2+z
x,x-y,1/2+z
-y,-x,1/2+z
y,x,1/2+z
x-y,-y,1/2+z
-x,-x+y,1/2+z
loop_
_atom_site_type_symbol
_atom_site_label
_atom_site_fract_x
_atom_site_fract_y
_atom_site_fract_z
Si Si1 0.607501 0.761437 0.665216
Si Si2 0.500000 0.000000 0.250000
Si Si3 0.788168 0.294449 0.833816
Si Si4 0.362304 0.046281 0.170091
Si Si5 0.615100 0.462175 0.339436
Si Si6 0.392580 0.944614 0.846582
O O1 0.624373 0.812187 0.750000
O O2 0.620235 0.776649 0.500000
O O3 0.550659 0.723780 0.686005
O O4 0.634700 0.731867 0.718141
O O5 0.548985 0.033068 0.159308
O O6 0.739841 0.260160 0.750000
O O7 0.804160 0.345449 0.758463
O O8 0.777300 0.297441 0.000000
O O9 0.410677 0.043414 0.214834
O O10 0.316735 0.000000 0.250000
O O11 0.356378 0.040619 0.000000
O O12 0.565308 0.434693 0.250000
O O13 0.610957 0.440474 0.500000
O O14 0.631639 0.518540 0.350126
O O15 0.380452 0.961048 0.000000
#
# Coordination Sequence:
#
# PCOD8329496 Si02
#       6
#    24   6  24  24  24  24
#     4   9  19  33  51  73  96 122 154 194 234 275
#     4  12  22  36  48  66  90 128 166 192 226 264
#     4  10  19  34  53  74  94 116 143 182 224 270
#     4  11  22  35  50  71  98 127 159 195 236 281
#     4  11  22  35  50  71  94 120 150 185 224 270
#     4  11  23  34  47  66  91 123 159 193 227 269
#
# _framework density 15.550471
#
# number of rings (size 3 to 8) (size 9 to 14) (size 15 to 20)
#    0.000    1.524    3.810    2.000    0.000    3.810 
#    0.000    0.000    0.000    0.381    0.000    2.667 
#    0.000    0.000    0.000    0.000    0.000    0.000 
#
# Total GULP energy -1560960.578255 kJ/mol
# GULP energy per Si atom -12388.576018 kJ/mol
# Density = 1.551508 g / cm^3
# Si number density = 15.550471 Si / 1000 Ang^3
#
#
#
# Elastic Constant Matrix: (Units=GPa)
#
#
# Indices 1 2 3 4 5 6 
#
# 1 64.3423 20.1418 36.0683 0.0000 0.0000 0.0000
# 2 20.1418 64.3423 36.0683 0.0000 0.0000 0.0000
# 3 36.0683 36.0683 120.0114 0.0000 0.0000 0.0000
# 4 0.0000 0.0000 0.0000 21.1217 0.0000 0.0000
# 5 0.0000 0.0000 0.0000 0.0000 21.1217 0.0000
# 6 0.0000 0.0000 0.0000 0.0000 0.0000 22.1002
#
#
#
# Elastic Compliance Matrix: (Units=1/GPa)
#
#
# Indices 1 2 3 4 5 6 
#
# 1 0.019273 -0.003351 -0.004785 0.000000 0.000000 0.000000
# 2 -0.003351 0.019273 -0.004785 0.000000 0.000000 0.000000
# 3 -0.004785 -0.004785 0.011209 0.000000 0.000000 0.000000
# 4 0.000000 0.000000 0.000000 0.047345 0.000000 0.000000
# 5 0.000000 0.000000 0.000000 0.000000 0.047345 0.000000
# 6 0.000000 0.000000 0.000000 0.000000 0.000000 0.045248
#
#
# Mechanical properties :
#
#
# Convention : Reuss Voigt Hill
#
# Bulk Modulus (GPa) = 41.81910 48.13921 44.97915
# Shear Modulus (GPa) = 22.37064 23.29657 22.83361
#
# Velocity S-wave (km/s) = 3.79698 3.87476 3.83607
# Velocity P-wave (km/s) = 6.79512 7.14439 6.97194
#
# Compressibility (1/GPa) = 0.02391252
#
# Stress axis : x y z
#
# Youngs Moduli (GPa) = 51.88506 51.88506 89.21452
#
# Poissons Ratio (x) = 0.17386 0.42692
# Poissons Ratio (y) = 0.17386 0.42692
# Poissons Ratio (z) = 0.24829 0.24829
#
# Static dielectric constant tensor:
#      x y z
#    x 2.624420 0.000000 0.000000 
#    y 0.000000 2.624420 0.000000 
#    z 0.000000 0.000000 3.111360 
# 
# 
# High freq. dielectric constant tensor:
#      x y z
#    x 1.563350 0.000000 0.000000 
#    y 0.000000 1.563350 0.000000 
#    z 0.000000 0.000000 1.615550 
# 
# From -- ./inp_files/1101.got.cif
#   From: 2010.03.12/outbox.cif.g09.slc.cpg/sg192_1_cif.got.tgz:1101.got - 2010.04.01 12:16:15.
