data_PCOD8329546
_publ_section_title
;
Structure prediction by ZEFSAII (Michael W. Deem and Ramdas Pophale) SiO2 
 PCOD8329546
Probable space group: P 6/M C C
;
_chemical_formula_sum "Si O2"
_cell_formula_units_Z 80
_cell_length_a 17.637709
_cell_length_b 17.637709
_cell_length_c 17.612527
_cell_angle_alpha 90.000000
_cell_angle_beta 90.000000
_cell_angle_gamma 120.000000
_cell_volume 4745.004729
_symmetry_space_group_name_H-M "P 6/M C C"
_symmetry_group_IT_number 192
_symmetry_cell_setting 'hexagonal'
loop_
_space_group_symop_operation_xyz
x,y,z
x-y,x,z
-y,x-y,z
-x,-y,z
-x+y,-x,z
y,-x+y,z
x-y,-y,1/2-z
-x,-x+y,1/2-z
y,x,1/2-z
-y,-x,1/2-z
-x+y,y,1/2-z
x,x-y,1/2-z
-x,-y,-z
-x+y,-x,-z
y,-x+y,-z
x,y,-z
x-y,x,-z
-y,x-y,-z
-x+y,y,1/2+z
x,x-y,1/2+z
-y,-x,1/2+z
y,x,1/2+z
x-y,-y,1/2+z
-x,-x+y,1/2+z
loop_
_atom_site_type_symbol
_atom_site_label
_atom_site_fract_x
_atom_site_fract_y
_atom_site_fract_z
Si Si1 0.666668 0.333334 0.590894
Si Si2 0.951634 0.143154 0.589201
Si Si3 0.754308 0.089605 0.796125
Si Si4 0.466299 0.806007 0.697391
O O1 0.666667 0.333334 0.500000
O O2 0.649352 0.410748 0.620744
O O3 0.948085 0.153382 0.500000
O O4 0.929300 0.211883 0.626161
O O5 0.046018 0.162500 0.616902
O O6 0.836392 0.163609 0.750000
O O7 0.688511 0.122902 0.822318
O O8 0.701483 0.000000 0.750000
O O9 0.426800 0.853599 0.750000
O O10 0.460120 0.730060 0.750000
#
# Coordination Sequence:
#
# PCOD8329546 Si02
#       4
#     8  24  24  24
#     4   9  16  32  58  81 103 131 172 213 250 311
#     4  10  20  34  50  71 103 141 177 215 263 313
#     4  11  20  32  52  76 101 134 176 218 257 302
#     4   8  17  33  51  75 103 133 168 207 256 308
#
# _framework density 16.859836000000001
#
# number of rings (size 3 to 8) (size 9 to 14) (size 15 to 20)
#    0.000    2.400    3.000    1.500    0.000    3.000 
#    0.000    0.000    0.000    0.000    0.000    8.400 
#    0.000    0.000    0.000    0.000    0.000    0.000 
#
# Total GULP energy -991714.433488 kJ/mol
# GULP energy per Si atom -12396.430419 kJ/mol
# Density = 1.682146 g / cm^3
# Si number density = 16.859836 Si / 1000 Ang^3
#
#
#
# Elastic Constant Matrix: (Units=GPa)
#
#
# Indices 1 2 3 4 5 6 
#
# 1 115.3728 67.5447 46.2735 0.0000 0.0000 -0.0001
# 2 67.5447 115.3723 46.2734 0.0001 0.0000 -0.0001
# 3 46.2735 46.2734 77.9074 0.0001 0.0000 0.0000
# 4 0.0000 0.0001 0.0001 24.9146 -0.0001 0.0000
# 5 0.0000 0.0000 0.0000 -0.0001 24.9148 0.0000
# 6 -0.0001 -0.0001 0.0000 0.0000 0.0000 23.9137
#
#
#
# Elastic Compliance Matrix: (Units=1/GPa)
#
#
# Indices 1 2 3 4 5 6 
#
# 1 0.014362 -0.006546 -0.004642 0.000000 0.000000 0.000000
# 2 -0.006546 0.014362 -0.004642 0.000000 0.000000 0.000000
# 3 -0.004642 -0.004642 0.018350 0.000000 0.000000 0.000000
# 4 0.000000 0.000000 0.000000 0.040137 0.000000 0.000000
# 5 0.000000 0.000000 0.000000 0.000000 0.040137 0.000000
# 6 0.000000 0.000000 0.000000 0.000000 0.000000 0.041817
#
#
# Mechanical properties :
#
#
# Convention : Reuss Voigt Hill
#
# Bulk Modulus (GPa) = 64.88060 69.87064 67.37562
# Shear Modulus (GPa) = 24.27610 24.65269 24.46440
#
# Velocity S-wave (km/s) = 3.79869 3.82804 3.81339
# Velocity P-wave (km/s) = 7.60302 7.81476 7.70962
#
# Compressibility (1/GPa) = 0.01541293
#
# Stress axis : x y z
#
# Youngs Moduli (GPa) = 69.62844 69.62814 54.49537
#
# Poissons Ratio (x) = 0.45581 0.25297
# Poissons Ratio (y) = 0.45581 0.25297
# Poissons Ratio (z) = 0.32322 0.32322
#
# Static dielectric constant tensor:
#      x y z
#    x 3.336050 0.000000 0.000000 
#    y 0.000000 3.336060 0.000000 
#    z 0.000000 0.000000 2.948100 
# 
# 
# High freq. dielectric constant tensor:
#      x y z
#    x 1.650380 0.000000 0.000000 
#    y 0.000000 1.650380 0.000000 
#    z 0.000000 0.000000 1.635370 
# 
# From -- ./inp_files/2641.got.cif
#   From: 2010.03.12/outbox.cif.g09.slc.cpg/sg192_2_cif.got.tgz:2641.got - 2010.04.01 12:16:15.
