data_PCOD8329862
_publ_section_title
;
Structure prediction by ZEFSAII (Michael W. Deem and Ramdas Pophale) SiO2 
 PCOD8329862
Probable space group: P 63/M C M
;
_chemical_formula_sum "Si O2"
_cell_formula_units_Z 144
_cell_length_a 29.879102
_cell_length_b 29.879102
_cell_length_c 9.168551
_cell_angle_alpha 90.000000
_cell_angle_beta 90.000000
_cell_angle_gamma 120.000000
_cell_volume 7088.697086
_symmetry_space_group_name_H-M "P 63/M C M"
_symmetry_group_IT_number 193
_symmetry_cell_setting 'hexagonal'
loop_
_space_group_symop_operation_xyz
x,y,z
x-y,x,1/2+z
-y,x-y,z
-x,-y,1/2+z
-x+y,-x,z
y,-x+y,1/2+z
x-y,-y,1/2-z
-x,-x+y,1/2-z
y,x,1/2-z
-y,-x,-z
-x+y,y,-z
x,x-y,-z
-x,-y,-z
-x+y,-x,1/2-z
y,-x+y,-z
x,y,1/2-z
x-y,x,-z
-y,x-y,1/2-z
-x+y,y,1/2+z
x,x-y,1/2+z
-y,-x,1/2+z
y,x,z
x-y,-y,z
-x,-x+y,z
loop_
_atom_site_type_symbol
_atom_site_label
_atom_site_fract_x
_atom_site_fract_y
_atom_site_fract_z
Si Si1 0.357895 0.800921 0.413935
Si Si2 0.759239 0.700086 0.588624
Si Si3 0.273594 0.471900 0.411018
Si Si4 0.581796 0.076066 0.585426
Si Si5 0.407952 0.330735 0.413198
Si Si6 0.847792 0.060978 0.922131
O O1 0.389731 0.779461 0.500000
O O2 0.348010 0.779362 0.250000
O O3 0.304498 0.779824 0.498276
O O4 0.388431 0.862661 0.413435
O O5 0.774367 0.687999 0.750000
O O6 0.740747 0.740747 0.611146
O O7 0.712073 0.647308 0.519177
O O8 0.808780 0.728546 0.482384
O O9 0.219564 0.439128 0.500000
O O10 0.262124 0.484391 0.250000
O O11 0.304511 0.442353 0.403478
O O12 0.527443 0.054885 0.500000
O O13 0.569631 0.054256 0.750000
O O14 0.617353 0.055250 0.509998
O O15 0.399361 0.346082 0.250000
O O16 0.854069 0.071527 0.750000
O O17 0.826608 0.000000 0.954608
O O18 0.903629 0.096372 0.000000
#
# Coordination Sequence:
#
# PCOD8329862 Si02
#       6
#    24  24  24  24  24  24
#     4   9  16  27  43  62  82 107 141 179 223 275
#     4   9  18  34  55  78 107 145 186 227 273 325
#     4  10  19  30  43  62  90 120 151 190 237 290
#     4   9  16  26  43  66  91 120 157 205 258 312
#     4   9  18  31  47  69  97 130 169 214 266 323
#     4  10  21  37  59  88 120 155 196 240 284 333
#
# _framework density 20.314029000000001
#
# number of rings (size 3 to 8) (size 9 to 14) (size 15 to 20)
#    0.000    2.667    0.000    2.000    0.000    7.000 
#    0.000    1.667    0.000    1.000    0.000    2.333 
#    0.000    0.000    0.000    0.000    0.000    0.000 
#
# Total GULP energy -1784210.777682 kJ/mol
# GULP energy per Si atom -12390.352623 kJ/mol
# Density = 2.026779 g / cm^3
# Si number density = 20.314029 Si / 1000 Ang^3
#
#
#
# Elastic Constant Matrix: (Units=GPa)
#
#
# Indices 1 2 3 4 5 6 
#
# 1 20.3210 92.1623 51.1784 0.0000 0.0000 0.0000
# 2 92.1623 20.3210 51.1784 0.0000 0.0000 0.0000
# 3 51.1784 51.1784 160.5158 0.0000 0.0000 0.0000
# 4 0.0000 0.0000 0.0000 7.9865 0.0000 0.0000
# 5 0.0000 0.0000 0.0000 0.0000 7.9865 0.0000
# 6 0.0000 0.0000 0.0000 0.0000 0.0000 -35.9206
#
#
#
# Elastic Compliance Matrix: (Units=1/GPa)
#
#
# Indices 1 2 3 4 5 6 
#
# 1 -0.000698 0.013222 -0.003993 0.000000 0.000000 0.000000
# 2 0.013222 -0.000698 -0.003993 0.000000 0.000000 0.000000
# 3 -0.003993 -0.003993 0.008776 0.000000 0.000000 0.000000
# 4 0.000000 0.000000 0.000000 0.125211 0.000000 0.000000
# 5 0.000000 0.000000 0.000000 0.000000 0.125211 0.000000
# 6 0.000000 0.000000 0.000000 0.000000 0.000000 -0.027839
#
#
# Mechanical properties :
#
#
# Convention : Reuss Voigt Hill
#
# Bulk Modulus (GPa) = 56.01758 65.57732 60.79745
# Shear Modulus (GPa) = 22.17865 -3.54692 9.31586
#
# Velocity S-wave (km/s) = 3.30781 -1.32281 2.14380
# Velocity P-wave (km/s) = 6.49804 5.47894 6.01013
#
# Compressibility (1/GPa) = 0.01785154
#
# Stress axis : x y z
#
# Youngs Moduli (GPa) = -1432.84729 -1432.84729 113.94490
#
# Poissons Ratio (x) = 18.94463 0.45499
# Poissons Ratio (y) = 18.94463 0.45499
# Poissons Ratio (z) = -5.72141 -5.72141
#
# Static dielectric constant tensor:
#      x y z
#    x 3.583380 0.000000 0.000000 
#    y 0.000000 3.583380 0.000000 
#    z 0.000000 0.000000 4.031220 
# 
# 
# High freq. dielectric constant tensor:
#      x y z
#    x 1.778030 0.000000 0.000000 
#    y 0.000000 1.778030 0.000000 
#    z 0.000000 0.000000 1.799790 
# 
# From -- ./inp_files/1585.got.cif
#   From: 2010.03.12/outbox.cif.g09.slc.cpg/sg193_1_cif.got.tgz:1585.got - 2010.04.01 12:20:39.
