data_PCOD8329851
_publ_section_title
;
Structure prediction by ZEFSAII (Michael W. Deem and Ramdas Pophale) SiO2 
 PCOD8329851
Probable space group: P 63/M C M
;
_chemical_formula_sum "Si O2"
_cell_formula_units_Z 128
_cell_length_a 28.118376
_cell_length_b 28.118376
_cell_length_c 18.013502
_cell_angle_alpha 90.000000
_cell_angle_beta 90.000000
_cell_angle_gamma 120.000000
_cell_volume 12334.150742
_symmetry_space_group_name_H-M "P 63/M C M"
_symmetry_group_IT_number 193
_symmetry_cell_setting 'hexagonal'
loop_
_space_group_symop_operation_xyz
x,y,z
x-y,x,1/2+z
-y,x-y,z
-x,-y,1/2+z
-x+y,-x,z
y,-x+y,1/2+z
x-y,-y,1/2-z
-x,-x+y,1/2-z
y,x,1/2-z
-y,-x,-z
-x+y,y,-z
x,x-y,-z
-x,-y,-z
-x+y,-x,1/2-z
y,-x+y,-z
x,y,1/2-z
x-y,x,-z
-y,x-y,1/2-z
-x+y,y,1/2+z
x,x-y,1/2+z
-y,-x,1/2+z
y,x,z
x-y,-y,z
-x,-x+y,z
loop_
_atom_site_type_symbol
_atom_site_label
_atom_site_fract_x
_atom_site_fract_y
_atom_site_fract_z
Si Si1 0.526267 0.586451 0.166758
Si Si2 0.167935 0.528667 0.412997
Si Si3 0.586451 0.060184 0.333242
Si Si4 0.666668 0.333334 0.337862
Si Si5 0.832067 0.471335 0.412998
Si Si6 0.543101 0.271549 0.661670
O O1 0.537618 0.611299 0.250000
O O2 0.575851 0.575851 0.141538
O O3 0.519885 0.627338 0.110586
O O4 0.470959 0.529042 0.166467
O O5 0.175177 0.525420 0.499999
O O6 0.176696 0.588349 0.389699
O O7 0.210344 0.515559 0.370609
O O8 0.611299 0.073683 0.250000
O O9 0.627337 0.107452 0.389416
O O10 0.575851 0.000000 0.358460
O O11 0.666667 0.333334 0.250000
O O12 0.697378 0.394742 0.368400
O O13 0.789659 0.484446 0.370609
O O14 0.538347 0.269173 0.750000
#
# Coordination Sequence:
#
# PCOD8329851 Si02
#       6
#    24  24  24   8  24  24
#     4   8  14  25  39  51  61  75  95 116 137 164
#     4  10  19  27  35  49  65  79  94 116 146 172
#     4   8  14  25  39  51  61  75  95 116 137 164
#     4   9  18  27  37  47  52  72 103 125 139 162
#     4  10  19  27  35  49  65  79  94 116 146 172
#     4  11  19  29  39  47  59  78 104 123 139 167
#
# _framework density 10.377691
#
# number of rings (size 3 to 8) (size 9 to 14) (size 15 to 20)
#    0.000    2.625    1.875    2.812    0.000    2.250 
#    0.000    3.750    0.000    0.000    0.000    0.000 
#    0.000    0.000    0.000    0.000    0.000    0.000 
#
# Total GULP energy -1586447.981547 kJ/mol
# GULP energy per Si atom -12394.124856 kJ/mol
# Density = 1.035407 g / cm^3
# Si number density = 10.377691 Si / 1000 Ang^3
#
#
#
# Elastic Constant Matrix: (Units=GPa)
#
#
# Indices 1 2 3 4 5 6 
#
# 1 47.0257 28.4610 26.7414 0.0000 0.0000 0.0000
# 2 28.4610 47.0258 26.7414 0.0000 0.0000 0.0000
# 3 26.7414 26.7414 55.8437 0.0000 0.0000 0.0000
# 4 0.0000 0.0000 0.0000 14.4326 0.0000 0.0000
# 5 0.0000 0.0000 0.0000 0.0000 14.4326 0.0000
# 6 0.0000 0.0000 0.0000 0.0000 0.0000 9.2823
#
#
#
# Elastic Compliance Matrix: (Units=1/GPa)
#
#
# Indices 1 2 3 4 5 6 
#
# 1 0.036958 -0.016908 -0.009601 0.000000 0.000000 0.000000
# 2 -0.016908 0.036958 -0.009601 0.000000 0.000000 0.000000
# 3 -0.009601 -0.009601 0.027102 0.000000 0.000000 0.000000
# 4 0.000000 0.000000 0.000000 0.069287 0.000000 0.000000
# 5 0.000000 0.000000 0.000000 0.000000 0.069288 0.000000
# 6 0.000000 0.000000 0.000000 0.000000 0.000000 0.107731
#
#
# Mechanical properties :
#
#
# Convention : Reuss Voigt Hill
#
# Bulk Modulus (GPa) = 34.72516 34.86475 34.79495
# Shear Modulus (GPa) = 11.65112 12.15961 11.90537
#
# Velocity S-wave (km/s) = 3.35432 3.42673 3.39072
# Velocity P-wave (km/s) = 6.96677 7.02321 6.99505
#
# Compressibility (1/GPa) = 0.02879757
#
# Stress axis : x y z
#
# Youngs Moduli (GPa) = 27.05791 27.05804 36.89729
#
# Poissons Ratio (x) = 0.45750 0.35426
# Poissons Ratio (y) = 0.45749 0.35425
# Poissons Ratio (z) = 0.25979 0.25978
#
# Static dielectric constant tensor:
#      x y z
#    x 2.213770 0.000000 0.000000 
#    y 0.000000 2.213770 0.000000 
#    z 0.000000 0.000000 2.283990 
# 
# 
# High freq. dielectric constant tensor:
#      x y z
#    x 1.357170 0.000000 0.000000 
#    y 0.000000 1.357170 0.000000 
#    z 0.000000 0.000000 1.400690 
# 
# From -- ./inp_files/6756.got.cif
#   From: 2010.03.12/outbox.cif.g09.slc.cpg/sg193_4_cif.got.tgz:6756.got - 2010.04.01 12:20:39.
