data_PCOD8329479
_publ_section_title
;
Structure prediction by ZEFSAII (Michael W. Deem and Ramdas Pophale) SiO2 
 PCOD8329479
Probable space group: P 6/M C C
;
_chemical_formula_sum "Si O2"
_cell_formula_units_Z 104
_cell_length_a 18.545611
_cell_length_b 18.545611
_cell_length_c 18.793425
_cell_angle_alpha 90.000000
_cell_angle_beta 90.000000
_cell_angle_gamma 120.000000
_cell_volume 5597.819092
_symmetry_space_group_name_H-M "P 6/M C C"
_symmetry_group_IT_number 192
_symmetry_cell_setting 'hexagonal'
loop_
_space_group_symop_operation_xyz
x,y,z
x-y,x,z
-y,x-y,z
-x,-y,z
-x+y,-x,z
y,-x+y,z
x-y,-y,1/2-z
-x,-x+y,1/2-z
y,x,1/2-z
-y,-x,1/2-z
-x+y,y,1/2-z
x,x-y,1/2-z
-x,-y,-z
-x+y,-x,-z
y,-x+y,-z
x,y,-z
x-y,x,-z
-y,x-y,-z
-x+y,y,1/2+z
x,x-y,1/2+z
-y,-x,1/2+z
y,x,1/2+z
x-y,-y,1/2+z
-x,-x+y,1/2+z
loop_
_atom_site_type_symbol
_atom_site_label
_atom_site_fract_x
_atom_site_fract_y
_atom_site_fract_z
Si Si1 0.666668 0.333334 0.914602
Si Si2 0.738067 0.084192 0.166613
Si Si3 0.182165 0.511000 0.578869
Si Si4 0.898639 0.650663 0.332001
Si Si5 0.412765 0.484345 0.420717
O O1 0.704019 0.429574 0.888424
O O2 0.666667 0.333334 0.000000
O O3 0.732330 0.101429 0.249233
O O4 0.831790 0.153891 0.143407
O O5 0.667600 0.094307 0.126616
O O6 0.724168 0.992354 0.149230
O O7 0.184684 0.476611 0.500000
O O8 0.122646 0.433754 0.627926
O O9 0.151966 0.578106 0.573160
O O10 0.500000 0.500000 0.386891
O O11 0.400577 0.443786 0.500000
#
# Coordination Sequence:
#
# PCOD8329479 Si02
#       5
#     8  24  24  24  24
#     4   9  18  30  48  73 104 142 178 215 265 312
#     4  10  21  37  54  77 105 137 177 221 270 326
#     4  10  19  33  51  74 104 140 179 219 262 312
#     4  10  21  36  54  75 103 139 176 220 271 323
#     4  10  19  33  54  79 107 138 177 221 263 318
#
# _framework density 18.578665000000001
#
# number of rings (size 3 to 8) (size 9 to 14) (size 15 to 20)
#    0.000    2.077    2.308    1.385    0.000    3.692 
#    0.000    0.000    0.000    3.231    0.000    3.231 
#    0.000    0.000    0.000    4.154    0.000    4.615 
#
# Total GULP energy -1288366.610020 kJ/mol
# GULP energy per Si atom -12388.140481 kJ/mol
# Density = 1.853638 g / cm^3
# Si number density = 18.578665 Si / 1000 Ang^3
#
#
#
# Elastic Constant Matrix: (Units=GPa)
#
#
# Indices 1 2 3 4 5 6 
#
# 1 120.0905 59.5795 40.1317 0.0000 0.0000 0.0001
# 2 59.5795 120.0905 40.1316 0.0000 0.0001 -0.0003
# 3 40.1317 40.1316 41.5433 0.0000 0.0000 0.0000
# 4 0.0000 0.0000 0.0000 21.6002 0.0000 0.0000
# 5 0.0000 0.0001 0.0000 0.0000 21.6001 0.0000
# 6 0.0001 -0.0003 0.0000 0.0000 0.0000 30.2549
#
#
#
# Elastic Compliance Matrix: (Units=1/GPa)
#
#
# Indices 1 2 3 4 5 6 
#
# 1 0.013158 -0.003367 -0.009458 0.000000 0.000000 0.000000
# 2 -0.003367 0.013158 -0.009458 0.000000 0.000000 0.000000
# 3 -0.009458 -0.009458 0.042345 0.000000 0.000000 0.000000
# 4 0.000000 0.000000 0.000000 0.046296 0.000000 0.000000
# 5 0.000000 0.000000 0.000000 0.000000 0.046296 0.000000
# 6 0.000000 0.000000 0.000000 0.000000 0.000000 0.033052
#
#
# Mechanical properties :
#
#
# Convention : Reuss Voigt Hill
#
# Bulk Modulus (GPa) = 41.50431 62.37886 51.94159
# Shear Modulus (GPa) = 20.25061 24.14981 22.20021
#
# Velocity S-wave (km/s) = 3.30509 3.60928 3.46053
# Velocity P-wave (km/s) = 6.07890 7.14266 6.63214
#
# Compressibility (1/GPa) = 0.02409388
#
# Stress axis : x y z
#
# Youngs Moduli (GPa) = 75.99654 75.99676 23.61546
#
# Poissons Ratio (x) = 0.25591 0.22336
# Poissons Ratio (y) = 0.25591 0.22336
# Poissons Ratio (z) = 0.71880 0.71880
#
# Static dielectric constant tensor:
#      x y z
#    x 3.572600 0.000000 0.000000 
#    y 0.000000 3.572600 0.000000 
#    z 0.000000 0.000000 3.278770 
# 
# 
# High freq. dielectric constant tensor:
#      x y z
#    x 1.716440 0.000000 0.000000 
#    y 0.000000 1.716440 0.000000 
#    z 0.000000 0.000000 1.700110 
# 
# From -- ./inp_files/4888.got.cif
#   From: 2010.03.12/outbox.cif.g09.slc.cpg/sg192_3_cif.got.tgz:4888.got - 2010.04.01 12:16:15.
