data_PCOD8329364
_publ_section_title
;
Structure prediction by ZEFSAII (Michael W. Deem and Ramdas Pophale) SiO2 
 PCOD8329364
Probable space group: P 6/M C C
;
_chemical_formula_sum "Si O2"
_cell_formula_units_Z 192
_cell_length_a 22.878491
_cell_length_b 22.878491
_cell_length_c 23.467679
_cell_angle_alpha 90.000000
_cell_angle_beta 90.000000
_cell_angle_gamma 120.000000
_cell_volume 10637.890688
_symmetry_space_group_name_H-M "P 6/M C C"
_symmetry_group_IT_number 192
_symmetry_cell_setting 'hexagonal'
loop_
_space_group_symop_operation_xyz
x,y,z
x-y,x,z
-y,x-y,z
-x,-y,z
-x+y,-x,z
y,-x+y,z
x-y,-y,1/2-z
-x,-x+y,1/2-z
y,x,1/2-z
-y,-x,1/2-z
-x+y,y,1/2-z
x,x-y,1/2-z
-x,-y,-z
-x+y,-x,-z
y,-x+y,-z
x,y,-z
x-y,x,-z
-y,x-y,-z
-x+y,y,1/2+z
x,x-y,1/2+z
-y,-x,1/2+z
y,x,1/2+z
x-y,-y,1/2+z
-x,-x+y,1/2+z
loop_
_atom_site_type_symbol
_atom_site_label
_atom_site_fract_x
_atom_site_fract_y
_atom_site_fract_z
Si Si1 0.875949 0.258874 0.369942
Si Si2 0.201231 0.666555 0.629225
Si Si3 0.921964 0.288613 0.753846
Si Si4 0.255457 0.381522 0.879068
Si Si5 0.484706 0.844030 0.248818
Si Si6 0.466487 0.798128 0.873170
Si Si7 0.734407 0.001349 0.933558
Si Si8 0.132682 0.133037 0.567802
O O1 0.859810 0.318974 0.385567
O O2 0.882882 0.246519 0.302528
O O3 0.815284 0.190614 0.394667
O O4 0.943978 0.276720 0.401437
O O5 0.205650 0.672135 0.697554
O O6 0.187257 0.593213 0.606379
O O7 0.273175 0.724924 0.604408
O O8 0.893090 0.250146 0.813458
O O9 0.909838 0.351697 0.752901
O O10 0.000000 0.311518 0.750000
O O11 0.315653 0.458498 0.892100
O O12 0.263297 0.332504 0.922471
O O13 0.439616 0.879231 0.250000
O O14 0.469033 0.795323 0.195037
O O15 0.800591 0.000520 0.910151
O O16 0.742523 0.017869 0.000000
O O17 0.133181 0.066826 0.591388
O O18 0.131929 0.131120 0.500000
#
# Coordination Sequence:
#
# PCOD8329364 Si02
#       8
#    24  24  24  24  24  24  24  24
#     4  10  20  34  52  75 104 135 169 211 255 302
#     4   9  16  27  45  70 100 133 169 211 260 312
#     4  10  17  30  49  70 100 136 169 202 242 295
#     4  10  20  34  52  75 104 135 169 211 255 302
#     4   8  15  24  37  65 100 132 165 200 248 307
#     4   9  16  27  45  70 100 133 169 211 260 312
#     4  11  22  36  54  76 101 134 174 212 254 305
#     4   9  17  30  50  76 103 126 149 184 235 294
#
# _framework density 18.048691000000002
#
# number of rings (size 3 to 8) (size 9 to 14) (size 15 to 20)
#    0.000    2.500    1.250    1.875    0.000    5.250 
#    0.000    1.875    0.000    1.500    0.000    0.000 
#    0.000    2.000    0.000    5.375    0.000    2.375 
#
# Total GULP energy -2378746.981453 kJ/mol
# GULP energy per Si atom -12389.307195 kJ/mol
# Density = 1.800761 g / cm^3
# Si number density = 18.048691 Si / 1000 Ang^3
#
#
#
# Elastic Constant Matrix: (Units=GPa)
#
#
# Indices 1 2 3 4 5 6 
#
# 1 106.7518 49.1155 6.6985 0.0000 0.0000 0.0000
# 2 49.1155 106.7518 6.6985 0.0000 0.0000 0.0000
# 3 6.6985 6.6985 26.0053 0.0000 0.0000 0.0000
# 4 0.0000 0.0000 0.0000 16.3191 0.0000 0.0000
# 5 0.0000 0.0000 0.0000 0.0000 16.3191 0.0000
# 6 0.0000 0.0000 0.0000 0.0000 0.0000 28.8181
#
#
#
# Elastic Compliance Matrix: (Units=1/GPa)
#
#
# Indices 1 2 3 4 5 6 
#
# 1 0.011956 -0.005395 -0.001690 0.000000 0.000000 0.000000
# 2 -0.005395 0.011956 -0.001690 0.000000 0.000000 0.000000
# 3 -0.001690 -0.001690 0.039324 0.000000 0.000000 0.000000
# 4 0.000000 0.000000 0.000000 0.061278 0.000000 0.000000
# 5 0.000000 0.000000 0.000000 0.000000 0.061278 0.000000
# 6 0.000000 0.000000 0.000000 0.000000 0.000000 0.034700
#
#
# Mechanical properties :
#
#
# Convention : Reuss Voigt Hill
#
# Bulk Modulus (GPa) = 21.88838 40.50375 31.19606
# Shear Modulus (GPa) = 19.74183 24.09104 21.91643
#
# Velocity S-wave (km/s) = 3.31087 3.65743 3.48845
# Velocity P-wave (km/s) = 5.17393 6.35026 5.79203
#
# Compressibility (1/GPa) = 0.04568635
#
# Stress axis : x y z
#
# Youngs Moduli (GPa) = 83.64295 83.64295 25.42955
#
# Poissons Ratio (x) = 0.45122 0.04298
# Poissons Ratio (y) = 0.45122 0.04298
# Poissons Ratio (z) = 0.14135 0.14135
#
# Static dielectric constant tensor:
#      x y z
#    x 3.383460 0.000000 0.000000 
#    y 0.000000 3.383460 0.000000 
#    z 0.000000 0.000000 2.931830 
# 
# 
# High freq. dielectric constant tensor:
#      x y z
#    x 1.700460 0.000000 0.000000 
#    y 0.000000 1.700460 0.000000 
#    z 0.000000 0.000000 1.650780 
# 
# From -- ./inp_files/6160.got.cif
#   From: 2010.03.12/outbox.cif.g09.slc.cpg/sg192_4_cif.got.tgz:6160.got - 2010.04.01 12:16:15.
