data_PCOD8329236
_publ_section_title
;
Structure prediction by ZEFSAII (Michael W. Deem and Ramdas Pophale) SiO2 
 PCOD8329236
Probable space group: P 6/M M M
;
_chemical_formula_sum "Si O2"
_cell_formula_units_Z 84
_cell_length_a 21.399696
_cell_length_b 21.399696
_cell_length_c 10.631774
_cell_angle_alpha 90.000000
_cell_angle_beta 90.000000
_cell_angle_gamma 120.000000
_cell_volume 4216.494864
_symmetry_space_group_name_H-M "P 6/M M M"
_symmetry_group_IT_number 191
_symmetry_cell_setting 'hexagonal'
loop_
_space_group_symop_operation_xyz
x,y,z
x-y,x,z
-y,x-y,z
-x,-y,z
-x+y,-x,z
y,-x+y,z
x-y,-y,-z
-x,-x+y,-z
y,x,-z
-y,-x,-z
-x+y,y,-z
x,x-y,-z
-x,-y,-z
-x+y,-x,-z
y,-x+y,-z
x,y,-z
x-y,x,-z
-y,x-y,-z
-x+y,y,z
x,x-y,z
-y,-x,z
y,x,z
x-y,-y,z
-x,-x+y,z
loop_
_atom_site_type_symbol
_atom_site_label
_atom_site_fract_x
_atom_site_fract_y
_atom_site_fract_z
Si Si1 0.708183 0.854092 0.348188
Si Si2 0.333079 0.528242 0.145255
Si Si3 0.085478 0.474371 0.500000
Si Si4 0.915201 0.606874 0.731485
Si Si5 0.915339 0.084662 0.140896
O O1 0.724820 0.862410 0.500000
O O2 0.666147 0.894789 0.307605
O O3 0.778370 0.889185 0.260963
O O4 0.267445 0.534890 0.208714
O O5 0.410876 0.589125 0.203069
O O6 0.315917 0.445168 0.153969
O O7 0.334511 0.544566 0.000000
O O8 0.120538 0.560269 0.500000
O O9 0.112268 0.451156 0.620501
O O10 0.000000 0.435051 0.500000
O O11 0.000000 0.646088 0.761285
O O12 0.000000 0.119326 0.153111
O O13 0.896443 0.103558 0.000000
#
# Coordination Sequence:
#
# PCOD8329236 Si02
#       5
#    12  24  12  24  12
#     4  12  24  41  65  95 134 176 216 262 325 395
#     4  10  21  38  60  86 118 158 205 258 316 376
#     4   9  18  33  54  82 113 148 192 241 294 352
#     4  11  22  37  59  86 118 159 204 251 307 373
#     4  10  23  44  70  98 130 172 222 276 334 397
#
# _framework density 19.921761
#
# number of rings (size 3 to 8) (size 9 to 14) (size 15 to 20)
#    0.000    1.571    2.857    2.143    0.000    6.857 
#    0.000    1.429    0.000    0.857    0.000    0.000 
#    0.000    0.000    0.000    0.000    0.000    0.000 
#
# Total GULP energy -1040763.101926 kJ/mol
# GULP energy per Si atom -12390.036928 kJ/mol
# Density = 1.987642 g / cm^3
# Si number density = 19.921761 Si / 1000 Ang^3
#
#
#
# Elastic Constant Matrix: (Units=GPa)
#
#
# Indices 1 2 3 4 5 6 
#
# 1 137.1931 57.9441 45.2981 0.0000 0.0000 0.0000
# 2 57.9441 137.1931 45.2981 0.0000 0.0000 0.0000
# 3 45.2981 45.2981 71.5782 0.0000 0.0000 0.0000
# 4 0.0000 0.0000 0.0000 10.1351 0.0000 0.0000
# 5 0.0000 0.0000 0.0000 0.0000 10.1351 0.0000
# 6 0.0000 0.0000 0.0000 0.0000 0.0000 39.6245
#
#
#
# Elastic Compliance Matrix: (Units=1/GPa)
#
#
# Indices 1 2 3 4 5 6 
#
# 1 0.009938 -0.002681 -0.004592 0.000000 0.000000 0.000000
# 2 -0.002681 0.009938 -0.004592 0.000000 0.000000 0.000000
# 3 -0.004592 -0.004592 0.019783 0.000000 0.000000 0.000000
# 4 0.000000 0.000000 0.000000 0.098667 0.000000 0.000000
# 5 0.000000 0.000000 0.000000 0.000000 0.098667 0.000000
# 6 0.000000 0.000000 0.000000 0.000000 0.000000 0.025237
#
#
# Mechanical properties :
#
#
# Convention : Reuss Voigt Hill
#
# Bulk Modulus (GPa) = 62.78586 71.44943 67.11764
# Shear Modulus (GPa) = 17.16624 25.14056 21.15340
#
# Velocity S-wave (km/s) = 2.93863 3.55627 3.26210
# Velocity P-wave (km/s) = 6.56496 7.26675 6.92475
#
# Compressibility (1/GPa) = 0.01592715
#
# Stress axis : x y z
#
# Youngs Moduli (GPa) = 100.62812 100.62812 50.54768
#
# Poissons Ratio (x) = 0.26977 0.23213
# Poissons Ratio (y) = 0.26977 0.23213
# Poissons Ratio (z) = 0.46212 0.46212
#
# Static dielectric constant tensor:
#      x y z
#    x 3.754410 0.000000 0.000000 
#    y 0.000000 3.754410 0.000000 
#    z 0.000000 0.000000 3.654590 
# 
# 
# High freq. dielectric constant tensor:
#      x y z
#    x 1.785810 0.000000 0.000000 
#    y 0.000000 1.785810 0.000000 
#    z 0.000000 0.000000 1.765980 
# 
# From -- ./inp_files/2474.got.cif
#   From: 2010.03.12/outbox.cif.g09.slc.cpg/sg191_2_cif.got.tgz:2474.got - 2010.04.01 12:09:02.
