data_PCOD8329197
_publ_section_title
;
Structure prediction by ZEFSAII (Michael W. Deem and Ramdas Pophale) SiO2 
 PCOD8329197
Probable space group: P 6/M M M
;
_chemical_formula_sum "Si O2"
_cell_formula_units_Z 168
_cell_length_a 21.929987
_cell_length_b 21.929987
_cell_length_c 26.172893
_cell_angle_alpha 90.000000
_cell_angle_beta 90.000000
_cell_angle_gamma 120.000000
_cell_volume 10900.818530
_symmetry_space_group_name_H-M "P 6/M M M"
_symmetry_group_IT_number 191
_symmetry_cell_setting 'hexagonal'
loop_
_space_group_symop_operation_xyz
x,y,z
x-y,x,z
-y,x-y,z
-x,-y,z
-x+y,-x,z
y,-x+y,z
x-y,-y,-z
-x,-x+y,-z
y,x,-z
-y,-x,-z
-x+y,y,-z
x,x-y,-z
-x,-y,-z
-x+y,-x,-z
y,-x+y,-z
x,y,-z
x-y,x,-z
-y,x-y,-z
-x+y,y,z
x,x-y,z
-y,-x,z
y,x,z
x-y,-y,z
-x,-x+y,z
loop_
_atom_site_type_symbol
_atom_site_label
_atom_site_fract_x
_atom_site_fract_y
_atom_site_fract_z
Si Si1 0.652465 0.572271 0.557898
Si Si2 0.809431 0.334957 0.361359
Si Si3 0.786328 0.708822 0.293131
Si Si4 0.475015 0.667883 0.945947
Si Si5 0.708573 0.921821 0.412923
Si Si6 0.148853 0.706791 0.738275
Si Si7 0.522635 0.189917 0.164230
O O1 0.634966 0.544169 0.500000
O O2 0.598919 0.598919 0.576293
O O3 0.644529 0.509028 0.592648
O O4 0.731921 0.637279 0.559109
O O5 0.783882 0.391941 0.358659
O O6 0.741894 0.258107 0.370435
O O7 0.850334 0.339465 0.309032
O O8 0.864745 0.729489 0.274474
O O9 0.773052 0.773052 0.279341
O O10 0.778098 0.692369 0.352968
O O11 0.725393 0.638527 0.266318
O O12 0.449801 0.724901 0.944001
O O13 0.407507 0.592494 0.948210
O O14 0.514269 0.673527 0.891837
O O15 0.518224 0.678266 0.000000
O O16 0.731172 0.865586 0.431193
O O17 0.771836 0.000000 0.426771
O O18 0.221295 0.778706 0.738072
O O19 0.137893 0.665462 0.791613
O O20 0.597542 0.195084 0.167329
O O21 0.535271 0.267636 0.173764
#
# Coordination Sequence:
#
# PCOD8329197 Si02
#       7
#    24  24  24  24  24  24  24
#     4  10  21  36  53  70  85 104 135 177 221 260
#     4  11  22  35  49  65  87 115 145 177 216 265
#     4   9  16  28  47  68  89 112 138 167 201 244
#     4   8  12  17  26  42  66  98 136 177 220 263
#     4   9  16  28  47  69  90 111 136 165 198 238
#     4   9  17  28  42  61  83 109 141 176 211 246
#     4   9  15  22  33  50  75 107 144 185 226 264
#
# _framework density 15.411687000000001
#
# number of rings (size 3 to 8) (size 9 to 14) (size 15 to 20)
#    0.000    2.714    1.429    1.286    0.000    3.429 
#    0.000    2.143    0.000    2.429    0.000    2.000 
#    0.000    0.571    0.000    7.571    0.000    5.429 
#
# Total GULP energy -2081314.599827 kJ/mol
# GULP energy per Si atom -12388.777380 kJ/mol
# Density = 1.537661 g / cm^3
# Si number density = 15.411687 Si / 1000 Ang^3
#
#
#
# Elastic Constant Matrix: (Units=GPa)
#
#
# Indices 1 2 3 4 5 6 
#
# 1 60.7605 24.9912 31.8915 0.0000 0.0000 0.0000
# 2 24.9912 60.7605 31.8915 0.0000 0.0000 0.0000
# 3 31.8915 31.8915 101.5090 0.0000 0.0000 0.0000
# 4 0.0000 0.0000 0.0000 12.0416 0.0000 0.0000
# 5 0.0000 0.0000 0.0000 0.0000 12.0416 0.0000
# 6 0.0000 0.0000 0.0000 0.0000 0.0000 17.8846
#
#
#
# Elastic Compliance Matrix: (Units=1/GPa)
#
#
# Indices 1 2 3 4 5 6 
#
# 1 0.021587 -0.006370 -0.004781 0.000000 0.000000 0.000000
# 2 -0.006370 0.021587 -0.004781 0.000000 0.000000 0.000000
# 3 -0.004781 -0.004781 0.012855 0.000000 0.000000 0.000000
# 4 0.000000 0.000000 0.000000 0.083046 0.000000 0.000000
# 5 0.000000 0.000000 0.000000 0.000000 0.083046 0.000000
# 6 0.000000 0.000000 0.000000 0.000000 0.000000 0.055914
#
#
# Mechanical properties :
#
#
# Convention : Reuss Voigt Hill
#
# Bulk Modulus (GPa) = 41.37892 44.50870 42.94381
# Shear Modulus (GPa) = 15.72552 17.34394 16.53473
#
# Velocity S-wave (km/s) = 3.19778 3.35830 3.27902
# Velocity P-wave (km/s) = 6.36724 6.63175 6.50084
#
# Compressibility (1/GPa) = 0.02416690
#
# Stress axis : x y z
#
# Youngs Moduli (GPa) = 46.32341 46.32341 77.78782
#
# Poissons Ratio (x) = 0.29506 0.37190
# Poissons Ratio (y) = 0.29506 0.37190
# Poissons Ratio (z) = 0.22147 0.22147
#
# Static dielectric constant tensor:
#      x y z
#    x 2.819470 0.000000 0.000000 
#    y 0.000000 2.819470 0.000000 
#    z 0.000000 0.000000 3.487710 
# 
# 
# High freq. dielectric constant tensor:
#      x y z
#    x 1.561740 0.000000 0.000000 
#    y 0.000000 1.561740 0.000000 
#    z 0.000000 0.000000 1.593350 
# 
# From -- ./inp_files/10060.got.cif
#   From: 2010.03.12/outbox.cif.g09.slc.cpg/sg191_6_cif.got.tgz:10060.got - 2010.04.01 12:09:02.
