data_PCOD8329605
_publ_section_title
;
Structure prediction by ZEFSAII (Michael W. Deem and Ramdas Pophale) SiO2 
 PCOD8329605
Probable space group: P 6/M C C
;
_chemical_formula_sum "Si O2"
_cell_formula_units_Z 116
_cell_length_a 15.075068
_cell_length_b 15.075068
_cell_length_c 30.291018
_cell_angle_alpha 90.000000
_cell_angle_beta 90.000000
_cell_angle_gamma 120.000000
_cell_volume 5961.603118
_symmetry_space_group_name_H-M "P 6/M C C"
_symmetry_group_IT_number 192
_symmetry_cell_setting 'hexagonal'
loop_
_space_group_symop_operation_xyz
x,y,z
x-y,x,z
-y,x-y,z
-x,-y,z
-x+y,-x,z
y,-x+y,z
x-y,-y,1/2-z
-x,-x+y,1/2-z
y,x,1/2-z
-y,-x,1/2-z
-x+y,y,1/2-z
x,x-y,1/2-z
-x,-y,-z
-x+y,-x,-z
y,-x+y,-z
x,y,-z
x-y,x,-z
-y,x-y,-z
-x+y,y,1/2+z
x,x-y,1/2+z
-y,-x,1/2+z
y,x,1/2+z
x-y,-y,1/2+z
-x,-x+y,1/2+z
loop_
_atom_site_type_symbol
_atom_site_label
_atom_site_fract_x
_atom_site_fract_y
_atom_site_fract_z
Si Si1 0.990464 0.787319 0.200066
Si Si2 0.871075 0.281266 0.085620
Si Si3 0.458333 0.765442 0.000000
Si Si4 0.441251 0.558350 0.654656
Si Si5 0.719416 0.074908 0.118439
Si Si6 0.666668 0.333334 0.199381
O O1 0.895126 0.803990 0.192263
O O2 0.978396 0.702481 0.164529
O O3 0.000000 0.752258 0.250000
O O4 0.819098 0.292728 0.042238
O O5 0.862464 0.346229 0.125141
O O6 0.826503 0.164096 0.100630
O O7 0.991238 0.320802 0.079216
O O8 0.356491 0.777054 0.000000
O O9 0.500000 0.500000 0.675483
O O10 0.349940 0.476993 0.624366
O O11 0.391040 0.603675 0.687710
O O12 0.666668 0.333334 0.250000
#
# Coordination Sequence:
#
# PCOD8329605 Si02
#       6
#    24  24  12  24  24   8
#     4  10  20  37  61  97 131 169 221 278 330 385
#     4  11  22  41  63  93 123 169 210 266 331 389
#     4  10  24  40  70  97 124 161 211 278 326 400
#     4  10  23  42  62  86 123 167 211 261 326 395
#     4  11  21  38  65  87 130 171 211 265 327 398
#     4  12  24  42  66  88 125 169 219 279 315 390
#
# _framework density 19.457854000000001
#
# number of rings (size 3 to 8) (size 9 to 14) (size 15 to 20)
#    0.207    1.241    4.138    1.448    0.000    2.069 
#   11.172    5.690    0.000    0.000    0.000    0.000 
#    0.000    3.310    0.000    0.000    0.000    0.000 
#
# Total GULP energy -1437144.332819 kJ/mol
# GULP energy per Si atom -12389.175283 kJ/mol
# Density = 1.941357 g / cm^3
# Si number density = 19.457854 Si / 1000 Ang^3
#
#
#
# Elastic Constant Matrix: (Units=GPa)
#
#
# Indices 1 2 3 4 5 6 
#
# 1 141.3460 27.9731 62.4136 0.0008 0.0003 -0.0011
# 2 27.9731 141.3478 62.4138 -0.0006 -0.0004 0.0003
# 3 62.4136 62.4138 108.9933 0.0005 0.0002 -0.0006
# 4 0.0008 -0.0006 0.0005 47.1390 -0.0004 0.0003
# 5 0.0003 -0.0004 0.0002 -0.0004 47.1389 -0.0007
# 6 -0.0011 0.0003 -0.0006 0.0003 -0.0007 56.6851
#
#
#
# Elastic Compliance Matrix: (Units=1/GPa)
#
#
# Indices 1 2 3 4 5 6 
#
# 1 0.009521 0.000700 -0.005853 0.000000 0.000000 0.000000
# 2 0.000700 0.009521 -0.005853 0.000000 0.000000 0.000000
# 3 -0.005853 -0.005853 0.015878 0.000000 0.000000 0.000000
# 4 0.000000 0.000000 0.000000 0.021214 0.000000 0.000000
# 5 0.000000 0.000000 0.000000 0.000000 0.021214 0.000000
# 6 0.000000 0.000000 0.000000 0.000000 0.000000 0.017641
#
#
# Mechanical properties :
#
#
# Convention : Reuss Voigt Hill
#
# Bulk Modulus (GPa) = 77.46943 77.47646 77.47295
# Shear Modulus (GPa) = 41.21942 46.11839 43.66891
#
# Velocity S-wave (km/s) = 4.60760 4.87372 4.74252
# Velocity P-wave (km/s) = 8.25875 8.46019 8.36008
#
# Compressibility (1/GPa) = 0.01290832
#
# Stress axis : x y z
#
# Youngs Moduli (GPa) = 105.03437 105.03585 62.98014
#
# Poissons Ratio (x) = -0.07355 0.36862
# Poissons Ratio (y) = -0.07355 0.36861
# Poissons Ratio (z) = 0.61475 0.61476
#
# Static dielectric constant tensor:
#      x y z
#    x 4.933010 0.000140 0.000110 
#    y 0.000140 4.932650 -0.000030 
#    z 0.000110 -0.000030 2.220350 
# 
# 
# High freq. dielectric constant tensor:
#      x y z
#    x 1.771300 0.000000 0.000000 
#    y 0.000000 1.771300 0.000000 
#    z 0.000000 0.000000 1.728220 
# 
# From -- ./inp_files/6968.got.cif
#   From: 2010.03.12/outbox.cif.g09.slc.cpg/sg192_4_cif.got.tgz:6968.got - 2010.04.01 12:16:15.
