data_PCOD8329226
_publ_section_title
;
Structure prediction by ZEFSAII (Michael W. Deem and Ramdas Pophale) SiO2 
 PCOD8329226
Probable space group: P 6/M M M
;
_chemical_formula_sum "Si O2"
_cell_formula_units_Z 138
_cell_length_a 31.221422
_cell_length_b 31.221422
_cell_length_c 8.165169
_cell_angle_alpha 90.000000
_cell_angle_beta 90.000000
_cell_angle_gamma 120.000000
_cell_volume 6892.887154
_symmetry_space_group_name_H-M "P 6/M M M"
_symmetry_group_IT_number 191
_symmetry_cell_setting 'hexagonal'
loop_
_space_group_symop_operation_xyz
x,y,z
x-y,x,z
-y,x-y,z
-x,-y,z
-x+y,-x,z
y,-x+y,z
x-y,-y,-z
-x,-x+y,-z
y,x,-z
-y,-x,-z
-x+y,y,-z
x,x-y,-z
-x,-y,-z
-x+y,-x,-z
y,-x+y,-z
x,y,-z
x-y,x,-z
-y,x-y,-z
-x+y,y,z
x,x-y,z
-y,-x,z
y,x,z
x-y,-y,z
-x,-x+y,z
loop_
_atom_site_type_symbol
_atom_site_label
_atom_site_fract_x
_atom_site_fract_y
_atom_site_fract_z
Si Si1 0.000000 0.830175 0.701217
Si Si2 0.086810 0.274335 0.683737
Si Si3 0.521633 0.944348 0.688638
Si Si4 0.570964 0.333321 0.691332
Si Si5 0.897208 0.000000 0.000000
Si Si6 0.764186 0.140547 0.191524
Si Si7 0.671394 0.144996 0.812753
O O1 0.953727 0.778057 0.755625
O O2 0.000000 0.842139 0.500000
O O3 0.000000 0.870486 0.826688
O O4 0.071566 0.277222 0.500000
O O5 0.138017 0.276033 0.701415
O O6 0.091786 0.323093 0.771674
O O7 0.521281 0.929695 0.500000
O O8 0.470032 0.940063 0.735985
O O9 0.529149 0.907413 0.802599
O O10 0.565801 0.000000 0.721558
O O11 0.579629 0.333581 0.500000
O O12 0.568530 0.284265 0.769038
O O13 0.617242 0.382759 0.769136
O O14 0.520300 0.333279 0.718069
O O15 0.902536 0.951268 0.000000
O O16 0.811041 0.188960 0.269301
O O17 0.714866 0.137391 0.265838
O O18 0.763167 0.146316 0.000000
O O19 0.682767 0.161811 0.000000
#
# Coordination Sequence:
#
# PCOD8329226 Si02
#       7
#    12  24  24  24   6  24  24
#     4  10  22  41  65  97 130 164 213 269 315 367
#     4   9  18  34  57  84 113 146 188 238 289 341
#     4   9  19  37  58  77  99 133 179 228 277 332
#     4  10  21  37  57  80 108 145 191 242 293 349
#     4  12  27  44  68 100 136 180 224 266 315 372
#     4   9  19  35  53  74 107 149 186 223 273 335
#     4  11  22  35  53  81 113 146 183 228 285 354
#
# _framework density 20.020638999999999
#
# number of rings (size 3 to 8) (size 9 to 14) (size 15 to 20)
#    0.000    2.261    0.000    2.826    1.217    7.304 
#    1.565    2.609    0.000    1.565    0.000    0.000 
#    0.000    0.000    0.000    0.000    0.000    0.000 
#
# Total GULP energy -1710217.781709 kJ/mol
# GULP energy per Si atom -12392.882476 kJ/mol
# Density = 1.997507 g / cm^3
# Si number density = 20.020639 Si / 1000 Ang^3
#
#
#
# Elastic Constant Matrix: (Units=GPa)
#
#
# Indices 1 2 3 4 5 6 
#
# 1 133.9981 60.6001 30.6588 0.0000 0.0000 0.0000
# 2 60.6001 133.9981 30.6588 0.0000 0.0000 0.0000
# 3 30.6588 30.6588 39.3553 0.0000 0.0000 0.0000
# 4 0.0000 0.0000 0.0000 25.2797 0.0000 0.0000
# 5 0.0000 0.0000 0.0000 0.0000 25.2797 0.0000
# 6 0.0000 0.0000 0.0000 0.0000 0.0000 36.6990
#
#
#
# Elastic Compliance Matrix: (Units=1/GPa)
#
#
# Indices 1 2 3 4 5 6 
#
# 1 0.010217 -0.003407 -0.005306 0.000000 0.000000 0.000000
# 2 -0.003407 0.010217 -0.005306 0.000000 0.000000 0.000000
# 3 -0.005306 -0.005306 0.033676 0.000000 0.000000 0.000000
# 4 0.000000 0.000000 0.000000 0.039557 0.000000 0.000000
# 5 0.000000 0.000000 0.000000 0.000000 0.039557 0.000000
# 6 0.000000 0.000000 0.000000 0.000000 0.000000 0.027249
#
#
# Mechanical properties :
#
#
# Convention : Reuss Voigt Hill
#
# Bulk Modulus (GPa) = 38.35141 61.24299 49.79720
# Shear Modulus (GPa) = 25.35469 29.81395 27.58432
#
# Velocity S-wave (km/s) = 3.56255 3.86315 3.71589
# Velocity P-wave (km/s) = 6.00998 7.11020 6.58311
#
# Compressibility (1/GPa) = 0.02607466
#
# Stress axis : x y z
#
# Youngs Moduli (GPa) = 97.87164 97.87164 29.69475
#
# Poissons Ratio (x) = 0.33344 0.15755
# Poissons Ratio (y) = 0.33344 0.15755
# Poissons Ratio (z) = 0.51927 0.51927
#
# Static dielectric constant tensor:
#      x y z
#    x 3.822330 0.000000 0.000000 
#    y 0.000000 3.822330 0.000000 
#    z 0.000000 0.000000 3.464330 
# 
# 
# High freq. dielectric constant tensor:
#      x y z
#    x 1.784960 0.000000 0.000000 
#    y 0.000000 1.784960 0.000000 
#    z 0.000000 0.000000 1.762750 
# 
# From -- ./inp_files/2016.got.cif
#   From: 2010.03.12/outbox.cif.g09.slc.cpg/sg191_2_cif.got.tgz:2016.got - 2010.04.01 12:09:02.
