data_PCOD8329345
_publ_section_title
;
Structure prediction by ZEFSAII (Michael W. Deem and Ramdas Pophale) SiO2 
 PCOD8329345
Probable space group: P 6/M M M
;
_chemical_formula_sum "Si O2"
_cell_formula_units_Z 144
_cell_length_a 32.246842
_cell_length_b 32.246842
_cell_length_c 9.647060
_cell_angle_alpha 90.000000
_cell_angle_beta 90.000000
_cell_angle_gamma 120.000000
_cell_volume 8687.603482
_symmetry_space_group_name_H-M "P 6/M M M"
_symmetry_group_IT_number 191
_symmetry_cell_setting 'hexagonal'
loop_
_space_group_symop_operation_xyz
x,y,z
x-y,x,z
-y,x-y,z
-x,-y,z
-x+y,-x,z
y,-x+y,z
x-y,-y,-z
-x,-x+y,-z
y,x,-z
-y,-x,-z
-x+y,y,-z
x,x-y,-z
-x,-y,-z
-x+y,-x,-z
y,-x+y,-z
x,y,-z
x-y,x,-z
-y,x-y,-z
-x+y,y,z
x,x-y,z
-y,-x,z
y,x,z
x-y,-y,z
-x,-x+y,z
loop_
_atom_site_type_symbol
_atom_site_label
_atom_site_fract_x
_atom_site_fract_y
_atom_site_fract_z
Si Si1 0.517995 0.806656 0.160577
Si Si2 0.379593 0.854163 0.338335
Si Si3 0.624111 0.570593 0.341294
Si Si4 0.710316 0.807234 0.159357
Si Si5 0.614537 0.713564 0.160603
Si Si6 0.146405 0.946690 0.659855
O O1 0.511741 0.755871 0.204204
O O2 0.481697 0.815718 0.251880
O O3 0.572537 0.847044 0.191240
O O4 0.505150 0.807093 0.000000
O O5 0.367914 0.842919 0.500000
O O6 0.424572 0.849143 0.292781
O O7 0.392399 0.908316 0.302318
O O8 0.641286 0.581027 0.500000
O O9 0.579817 0.579817 0.315152
O O10 0.668351 0.607226 0.247889
O O11 0.697896 0.848948 0.182783
O O12 0.664370 0.758453 0.207893
O O13 0.755167 0.815858 0.251289
O O14 0.723165 0.804584 0.000000
O O15 0.615470 0.701651 0.000000
O O16 0.155636 0.940258 0.500000
O O17 0.091747 0.908254 0.702581
O O18 0.155477 0.000000 0.688459
#
# Coordination Sequence:
#
# PCOD8329345 Si02
#       6
#    24  24  24  24  24  24
#     4   9  17  30  49  71  93 118 148 182 223 270
#     4   9  18  32  49  69  92 118 150 188 228 269
#     4   9  18  31  45  63  89 121 156 191 225 261
#     4   9  17  29  45  65  89 117 149 182 214 253
#     4   9  17  29  45  65  91 122 153 185 220 258
#     4   9  18  32  48  65  86 113 144 178 218 263
#
# _framework density 16.575343
#
# number of rings (size 3 to 8) (size 9 to 14) (size 15 to 20)
#    0.000    3.000    0.000    0.500    0.000    5.000 
#    0.000    5.000    0.000    3.500    0.000    5.833 
#    0.000    0.000    0.000    4.167    0.000    4.333 
#
# Total GULP energy -1785553.582163 kJ/mol
# GULP energy per Si atom -12399.677654 kJ/mol
# Density = 1.653762 g / cm^3
# Si number density = 16.575343 Si / 1000 Ang^3
#
#
#
# Elastic Constant Matrix: (Units=GPa)
#
#
# Indices 1 2 3 4 5 6 
#
# 1 106.0993 64.8736 46.5979 0.0000 0.0000 0.0000
# 2 64.8736 106.0993 46.5979 0.0000 0.0000 0.0000
# 3 46.5979 46.5979 52.3405 0.0000 0.0000 0.0000
# 4 0.0000 0.0000 0.0000 26.2018 0.0000 0.0000
# 5 0.0000 0.0000 0.0000 0.0000 26.2018 0.0000
# 6 0.0000 0.0000 0.0000 0.0000 0.0000 20.6129
#
#
#
# Elastic Compliance Matrix: (Units=1/GPa)
#
#
# Indices 1 2 3 4 5 6 
#
# 1 0.017810 -0.006447 -0.010117 0.000000 0.000000 0.000000
# 2 -0.006447 0.017810 -0.010117 0.000000 0.000000 0.000000
# 3 -0.010117 -0.010117 0.037119 0.000000 0.000000 0.000000
# 4 0.000000 0.000000 0.000000 0.038165 0.000000 0.000000
# 5 0.000000 0.000000 0.000000 0.000000 0.038165 0.000000
# 6 0.000000 0.000000 0.000000 0.000000 0.000000 0.048513
#
#
# Mechanical properties :
#
#
# Convention : Reuss Voigt Hill
#
# Bulk Modulus (GPa) = 51.60163 64.51980 58.06071
# Shear Modulus (GPa) = 19.42481 21.70126 20.56304
#
# Velocity S-wave (km/s) = 3.42703 3.62228 3.52601
# Velocity P-wave (km/s) = 6.84533 7.51693 7.18898
#
# Compressibility (1/GPa) = 0.01937923
#
# Stress axis : x y z
#
# Youngs Moduli (GPa) = 56.14813 56.14813 26.94036
#
# Poissons Ratio (x) = 0.36197 0.27255
# Poissons Ratio (y) = 0.36197 0.27255
# Poissons Ratio (z) = 0.56803 0.56803
#
# Static dielectric constant tensor:
#      x y z
#    x 3.085130 0.000000 0.000000 
#    y 0.000000 3.085130 0.000000 
#    z 0.000000 0.000000 3.139410 
# 
# 
# High freq. dielectric constant tensor:
#      x y z
#    x 1.628430 0.000000 0.000000 
#    y 0.000000 1.628430 0.000000 
#    z 0.000000 0.000000 1.637780 
# 
# From -- ./inp_files/1976.got.cif
#   From: 2010.03.12/outbox.cif.g09.slc.cpg/sg191_1_cif.got.tgz:1976.got - 2010.04.01 12:09:02.
