data_PCOD8329891
_publ_section_title
;
Structure prediction by ZEFSAII (Michael W. Deem and Ramdas Pophale) SiO2 
 PCOD8329891
Probable space group: P 63/M C M
;
_chemical_formula_sum "Si O2"
_cell_formula_units_Z 168
_cell_length_a 20.506073
_cell_length_b 20.506073
_cell_length_c 25.789985
_cell_angle_alpha 90.000000
_cell_angle_beta 90.000000
_cell_angle_gamma 120.000000
_cell_volume 9391.754236
_symmetry_space_group_name_H-M "P 63/M C M"
_symmetry_group_IT_number 193
_symmetry_cell_setting 'hexagonal'
loop_
_space_group_symop_operation_xyz
x,y,z
x-y,x,1/2+z
-y,x-y,z
-x,-y,1/2+z
-x+y,-x,z
y,-x+y,1/2+z
x-y,-y,1/2-z
-x,-x+y,1/2-z
y,x,1/2-z
-y,-x,-z
-x+y,y,-z
x,x-y,-z
-x,-y,-z
-x+y,-x,1/2-z
y,-x+y,-z
x,y,1/2-z
x-y,x,-z
-y,x-y,1/2-z
-x+y,y,1/2+z
x,x-y,1/2+z
-y,-x,1/2+z
y,x,z
x-y,-y,z
-x,-x+y,z
loop_
_atom_site_type_symbol
_atom_site_label
_atom_site_fract_x
_atom_site_fract_y
_atom_site_fract_z
Si Si1 0.167373 0.084228 0.189100
Si Si2 0.458008 0.689085 0.947026
Si Si3 0.645691 0.556965 0.309658
Si Si4 0.353836 0.530054 0.903784
Si Si5 0.304967 0.215690 0.851413
Si Si6 0.207386 0.915766 0.467294
Si Si7 0.084257 0.437929 0.497557
O O1 0.157348 0.079966 0.250000
O O2 0.136030 0.136030 0.164987
O O3 0.255731 0.120944 0.175919
O O4 0.119081 0.000000 0.165466
O O5 0.389630 0.618385 0.918231
O O6 0.497141 0.761569 0.908772
O O7 0.435601 0.717801 0.000000
O O8 0.514553 0.657628 0.957890
O O9 0.637167 0.530892 0.250000
O O10 0.592260 0.592260 0.321673
O O11 0.623762 0.484864 0.346631
O O12 0.733176 0.616963 0.321396
O O13 0.375982 0.483816 0.943636
O O14 0.260014 0.260014 0.849252
O O15 0.319557 0.200848 0.910215
O O16 0.132124 0.867877 0.500000
O O17 0.275912 0.914966 0.495166
O O18 0.220843 0.000000 0.463950
O O19 0.000000 0.420510 0.511467
#
# Coordination Sequence:
#
# PCOD8329891 Si02
#       7
#    24  24  24  24  24  24  24
#     4   9  16  26  42  66  95 127 166 216 272 322
#     4  10  21  33  53  80 111 141 169 203 249 316
#     4  10  20  35  57  82 104 133 179 229 270 307
#     4  11  20  35  55  79 109 142 173 210 258 306
#     4   9  17  30  48  69  97 130 169 217 264 309
#     4  10  19  31  47  69  99 133 169 210 258 310
#     4  10  19  31  50  78 108 137 167 208 256 305
#
# _framework density 17.888031999999999
#
# number of rings (size 3 to 8) (size 9 to 14) (size 15 to 20)
#    0.000    2.143    1.429    4.286    0.000    5.714 
#    0.000    0.714    0.000    0.143    0.000    0.000 
#    0.000    0.000    0.000    0.000    0.000    0.000 
#
# Total GULP energy -2081919.238859 kJ/mol
# GULP energy per Si atom -12392.376422 kJ/mol
# Density = 1.784732 g / cm^3
# Si number density = 17.888032 Si / 1000 Ang^3
#
#
#
# Elastic Constant Matrix: (Units=GPa)
#
#
# Indices 1 2 3 4 5 6 
#
# 1 79.4720 36.9397 36.6264 0.0000 0.0000 0.0000
# 2 36.9397 79.4720 36.6264 0.0000 0.0000 0.0000
# 3 36.6264 36.6264 87.7092 0.0000 0.0000 0.0000
# 4 0.0000 0.0000 0.0000 23.0436 0.0000 0.0000
# 5 0.0000 0.0000 0.0000 0.0000 23.0436 0.0000
# 6 0.0000 0.0000 0.0000 0.0000 0.0000 21.2662
#
#
#
# Elastic Compliance Matrix: (Units=1/GPa)
#
#
# Indices 1 2 3 4 5 6 
#
# 1 0.017582 -0.005930 -0.004866 0.000000 0.000000 0.000000
# 2 -0.005930 0.017582 -0.004866 0.000000 0.000000 0.000000
# 3 -0.004866 -0.004866 0.015465 0.000000 0.000000 0.000000
# 4 0.000000 0.000000 0.000000 0.043396 0.000000 0.000000
# 5 0.000000 0.000000 0.000000 0.000000 0.043396 0.000000
# 6 0.000000 0.000000 0.000000 0.000000 0.000000 0.047023
#
#
# Mechanical properties :
#
#
# Convention : Reuss Voigt Hill
#
# Bulk Modulus (GPa) = 51.79715 51.89316 51.84515
# Shear Modulus (GPa) = 22.50209 22.56805 22.53507
#
# Velocity S-wave (km/s) = 3.55059 3.55579 3.55319
# Velocity P-wave (km/s) = 6.76965 6.77726 6.77345
#
# Compressibility (1/GPa) = 0.01930608
#
# Stress axis : x y z
#
# Youngs Moduli (GPa) = 56.87713 56.87713 64.66179
#
# Poissons Ratio (x) = 0.33727 0.31463
# Poissons Ratio (y) = 0.33727 0.31463
# Poissons Ratio (z) = 0.27675 0.27675
#
# Static dielectric constant tensor:
#      x y z
#    x 3.394140 0.000000 0.000000 
#    y 0.000000 3.394140 0.000000 
#    z 0.000000 0.000000 3.155990 
# 
# 
# High freq. dielectric constant tensor:
#      x y z
#    x 1.683820 0.000000 0.000000 
#    y 0.000000 1.683820 0.000000 
#    z 0.000000 0.000000 1.661480 
# 
# From -- ./inp_files/8532.got.cif
#   From: 2010.03.12/outbox.cif.g09.slc.cpg/sg193_5_cif.got.tgz:8532.got - 2010.04.01 12:20:39.
