data_PCOD8329448
_publ_section_title
;
Structure prediction by ZEFSAII (Michael W. Deem and Ramdas Pophale) SiO2 
 PCOD8329448
Probable space group: P 6/M C C
;
_chemical_formula_sum "Si O2"
_cell_formula_units_Z 120
_cell_length_a 20.052232
_cell_length_b 20.052232
_cell_length_c 15.411408
_cell_angle_alpha 90.000000
_cell_angle_beta 90.000000
_cell_angle_gamma 120.000000
_cell_volume 5366.589679
_symmetry_space_group_name_H-M "P 6/M C C"
_symmetry_group_IT_number 192
_symmetry_cell_setting 'hexagonal'
loop_
_space_group_symop_operation_xyz
x,y,z
x-y,x,z
-y,x-y,z
-x,-y,z
-x+y,-x,z
y,-x+y,z
x-y,-y,1/2-z
-x,-x+y,1/2-z
y,x,1/2-z
-y,-x,1/2-z
-x+y,y,1/2-z
x,x-y,1/2-z
-x,-y,-z
-x+y,-x,-z
y,-x+y,-z
x,y,-z
x-y,x,-z
-y,x-y,-z
-x+y,y,1/2+z
x,x-y,1/2+z
-y,-x,1/2+z
y,x,1/2+z
x-y,-y,1/2+z
-x,-x+y,1/2+z
loop_
_atom_site_type_symbol
_atom_site_label
_atom_site_fract_x
_atom_site_fract_y
_atom_site_fract_z
Si Si1 0.824871 0.665305 0.598830
Si Si2 0.700151 0.168013 0.782405
Si Si3 0.692673 0.648124 0.832800
Si Si4 0.528249 0.942807 0.599176
Si Si5 0.885260 0.051738 0.102267
O O1 0.798872 0.638074 0.500000
O O2 0.768466 0.602725 0.665449
O O3 0.913205 0.683461 0.610560
O O4 0.824156 0.743771 0.620643
O O5 0.741585 0.258416 0.750000
O O6 0.673359 0.109804 0.701310
O O7 0.625735 0.137790 0.845627
O O8 0.701320 0.701320 0.750000
O O9 0.620854 0.636886 0.891357
O O10 0.503188 0.920821 0.500000
O O11 0.500000 0.000000 0.634855
O O12 0.968117 0.112433 0.143963
O O13 0.897017 0.050887 0.000000
#
# Coordination Sequence:
#
# PCOD8329448 Si02
#       5
#    24  24  24  24  24
#     4  10  19  31  51  75 101 142 193 247 295 348
#     4   9  19  34  50  76 113 154 193 231 289 359
#     4   9  19  32  49  73 110 148 186 230 293 360
#     4  10  20  34  56  86 121 155 191 243 301 362
#     4   9  18  29  43  64  92 130 182 242 298 335
#
# _framework density 22.360569000000002
#
# number of rings (size 3 to 8) (size 9 to 14) (size 15 to 20)
#    0.000    2.600    0.000    1.400    5.600    4.400 
#    0.000    0.000    0.000    0.000    0.000    0.000 
#   52.000    0.000   14.400    0.000    0.000    0.000 
#
# Total GULP energy -1486979.242852 kJ/mol
# GULP energy per Si atom -12391.493690 kJ/mol
# Density = 2.230968 g / cm^3
# Si number density = 22.360569 Si / 1000 Ang^3
#
#
#
# Elastic Constant Matrix: (Units=GPa)
#
#
# Indices 1 2 3 4 5 6 
#
# 1 64.7758 -0.6076 13.0296 0.0000 0.0000 0.0000
# 2 -0.6076 64.7758 13.0296 0.0000 0.0000 0.0000
# 3 13.0296 13.0296 61.3541 0.0000 0.0000 0.0000
# 4 0.0000 0.0000 0.0000 25.1116 0.0000 0.0000
# 5 0.0000 0.0000 0.0000 0.0000 25.1116 0.0000
# 6 0.0000 0.0000 0.0000 0.0000 0.0000 32.6917
#
#
#
# Elastic Compliance Matrix: (Units=1/GPa)
#
#
# Indices 1 2 3 4 5 6 
#
# 1 0.016175 0.000880 -0.003622 0.000000 0.000000 0.000000
# 2 0.000880 0.016175 -0.003622 0.000000 0.000000 0.000000
# 3 -0.003622 -0.003622 0.017837 0.000000 0.000000 0.000000
# 4 0.000000 0.000000 0.000000 0.039822 0.000000 0.000000
# 5 0.000000 0.000000 0.000000 0.000000 0.039822 0.000000
# 6 0.000000 0.000000 0.000000 0.000000 0.000000 0.030589
#
#
# Mechanical properties :
#
#
# Convention : Reuss Voigt Hill
#
# Bulk Modulus (GPa) = 26.69556 26.86764 26.78160
# Shear Modulus (GPa) = 26.93481 27.61325 27.27403
#
# Velocity S-wave (km/s) = 3.47445 3.51794 3.49626
# Velocity P-wave (km/s) = 5.29720 5.34256 5.31993
#
# Compressibility (1/GPa) = 0.03745942
#
# Stress axis : x y z
#
# Youngs Moduli (GPa) = 61.82507 61.82507 56.06265
#
# Poissons Ratio (x) = -0.05442 0.20305
# Poissons Ratio (y) = -0.05442 0.20305
# Poissons Ratio (z) = 0.22392 0.22392
#
# Static dielectric constant tensor:
#      x y z
#    x 4.032510 0.000000 0.000000 
#    y 0.000000 4.032510 0.000000 
#    z 0.000000 0.000000 3.907410 
# 
# 
# High freq. dielectric constant tensor:
#      x y z
#    x 1.857510 0.000000 0.000000 
#    y 0.000000 1.857510 0.000000 
#    z 0.000000 0.000000 1.871360 
# 
# From -- ./inp_files/3162.got.cif
#   From: 2010.03.12/outbox.cif.g09.slc.cpg/sg192_2_cif.got.tgz:3162.got - 2010.04.01 12:16:15.
