data_PCOD8329975
_publ_section_title
;
Structure prediction by ZEFSAII (Michael W. Deem and Ramdas Pophale) SiO2 
 PCOD8329975
Probable space group: P 63/M C M
;
_chemical_formula_sum "Si O2"
_cell_formula_units_Z 92
_cell_length_a 20.670020
_cell_length_b 20.670020
_cell_length_c 14.349389
_cell_angle_alpha 90.000000
_cell_angle_beta 90.000000
_cell_angle_gamma 120.000000
_cell_volume 5309.404756
_symmetry_space_group_name_H-M "P 63/M C M"
_symmetry_group_IT_number 193
_symmetry_cell_setting 'hexagonal'
loop_
_space_group_symop_operation_xyz
x,y,z
x-y,x,1/2+z
-y,x-y,z
-x,-y,1/2+z
-x+y,-x,z
y,-x+y,1/2+z
x-y,-y,1/2-z
-x,-x+y,1/2-z
y,x,1/2-z
-y,-x,-z
-x+y,y,-z
x,x-y,-z
-x,-y,-z
-x+y,-x,1/2-z
y,-x+y,-z
x,y,1/2-z
x-y,x,-z
-y,x-y,1/2-z
-x+y,y,1/2+z
x,x-y,1/2+z
-y,-x,1/2+z
y,x,z
x-y,-y,z
-x,-x+y,z
loop_
_atom_site_type_symbol
_atom_site_label
_atom_site_fract_x
_atom_site_fract_y
_atom_site_fract_z
Si Si1 0.795693 0.204308 0.500000
Si Si2 0.523985 0.084010 0.107100
Si Si3 0.313580 0.512569 0.150638
Si Si4 0.913710 0.291458 0.142529
Si Si5 0.666668 0.333334 0.890899
O O1 0.818471 0.276427 0.563936
O O2 0.864624 0.223593 0.429611
O O3 0.599345 0.138778 0.159494
O O4 0.464267 0.110851 0.126601
O O5 0.490386 0.000000 0.146130
O O6 0.543997 0.087994 0.000000
O O7 0.277286 0.472704 0.250000
O O8 0.301575 0.583044 0.143925
O O9 0.898827 0.264039 0.250000
O O10 0.000000 0.324077 0.116194
O O11 0.666668 0.333334 0.000000
#
# Coordination Sequence:
#
# PCOD8329975 Si02
#       5
#    12  24  24  24   8
#     4  12  22  36  52  74  98 126 164 210 248 298
#     4  10  19  35  53  69  93 126 163 209 258 300
#     4  12  23  33  48  68  91 121 157 207 261 308
#     4  10  21  37  56  75  99 134 171 207 253 308
#     4  12  22  38  46  58  89 124 154 200 265 319
#
# _framework density 17.327743999999999
#
# number of rings (size 3 to 8) (size 9 to 14) (size 15 to 20)
#    0.000    1.043    3.913    4.696    0.000    1.565 
#    0.000    0.000    0.000    2.348    0.000    0.000 
#    0.000    0.000    0.000    0.391    0.000    1.826 
#
# Total GULP energy -1140440.202726 kJ/mol
# GULP energy per Si atom -12396.089160 kJ/mol
# Density = 1.728830 g / cm^3
# Si number density = 17.327744 Si / 1000 Ang^3
#
#
#
# Elastic Constant Matrix: (Units=GPa)
#
#
# Indices 1 2 3 4 5 6 
#
# 1 63.0806 18.9722 32.0551 0.0000 0.0025 0.0000
# 2 18.9722 63.0818 32.0552 -0.0021 -0.0024 -0.0001
# 3 32.0551 32.0552 135.8003 -0.0032 -0.0010 -0.0001
# 4 0.0000 -0.0021 -0.0032 167.4330 0.0378 0.0024
# 5 0.0025 -0.0024 -0.0010 0.0378 167.3072 -0.0011
# 6 0.0000 -0.0001 -0.0001 0.0024 -0.0011 22.0542
#
#
#
# Elastic Compliance Matrix: (Units=1/GPa)
#
#
# Indices 1 2 3 4 5 6 
#
# 1 0.018807 -0.003864 -0.003527 0.000000 0.000000 0.000000
# 2 -0.003864 0.018807 -0.003527 0.000000 0.000000 0.000000
# 3 -0.003527 -0.003527 0.009029 0.000000 0.000000 0.000000
# 4 0.000000 0.000000 0.000000 0.005973 -0.000001 -0.000001
# 5 0.000000 0.000000 0.000000 -0.000001 0.005977 0.000000
# 6 0.000000 0.000000 0.000000 -0.000001 0.000000 0.045343
#
#
# Mechanical properties :
#
#
# Convention : Reuss Voigt Hill
#
# Bulk Modulus (GPa) = 40.31261 47.56974 43.94118
# Shear Modulus (GPa) = 37.30195 83.28424 60.29310
#
# Velocity S-wave (km/s) = 4.64479 6.94035 5.90519
# Velocity P-wave (km/s) = 7.21669 9.57795 8.47991
#
# Compressibility (1/GPa) = 0.02480613
#
# Stress axis : x y z
#
# Youngs Moduli (GPa) = 53.17083 53.17198 110.75485
#
# Poissons Ratio (x) = 0.20546 0.39067
# Poissons Ratio (y) = 0.20545 0.39066
# Poissons Ratio (z) = 0.18755 0.18755
#
# Static dielectric constant tensor:
#      x y z
#    x 3.034000 0.000000 -0.000010 
#    y 0.000000 3.034010 0.000010 
#    z -0.000010 0.000010 3.542290 
# 
# 
# High freq. dielectric constant tensor:
#      x y z
#    x 1.630300 0.000000 0.000000 
#    y 0.000000 1.630300 0.000000 
#    z 0.000000 0.000000 1.702920 
# 
# From -- ./inp_files/3580.got.cif
#   From: 2010.03.12/outbox.cif.g09.slc.cpg/sg193_2_cif.got.tgz:3580.got - 2010.04.01 12:20:39.
