data_PCOD8329458
_publ_section_title
;
Structure prediction by ZEFSAII (Michael W. Deem and Ramdas Pophale) SiO2 
 PCOD8329458
Probable space group: P 6/M C C
;
_chemical_formula_sum "Si O2"
_cell_formula_units_Z 144
_cell_length_a 32.560897
_cell_length_b 32.560897
_cell_length_c 8.605065
_cell_angle_alpha 90.000000
_cell_angle_beta 90.000000
_cell_angle_gamma 120.000000
_cell_volume 7900.917152
_symmetry_space_group_name_H-M "P 6/M C C"
_symmetry_group_IT_number 192
_symmetry_cell_setting 'hexagonal'
loop_
_space_group_symop_operation_xyz
x,y,z
x-y,x,z
-y,x-y,z
-x,-y,z
-x+y,-x,z
y,-x+y,z
x-y,-y,1/2-z
-x,-x+y,1/2-z
y,x,1/2-z
-y,-x,1/2-z
-x+y,y,1/2-z
x,x-y,1/2-z
-x,-y,-z
-x+y,-x,-z
y,-x+y,-z
x,y,-z
x-y,x,-z
-y,x-y,-z
-x+y,y,1/2+z
x,x-y,1/2+z
-y,-x,1/2+z
y,x,1/2+z
x-y,-y,1/2+z
-x,-x+y,1/2+z
loop_
_atom_site_type_symbol
_atom_site_label
_atom_site_fract_x
_atom_site_fract_y
_atom_site_fract_z
Si Si1 0.521675 0.716763 0.184721
Si Si2 0.139192 0.949321 0.816244
Si Si3 0.949618 0.718101 0.815918
Si Si4 0.560282 0.611689 0.184328
Si Si5 0.281598 0.895389 0.183644
Si Si6 0.140887 0.614142 0.815601
O O1 0.507315 0.753658 0.250000
O O2 0.575368 0.732636 0.240862
O O3 0.486019 0.665700 0.254464
O O4 0.517575 0.713884 0.000000
O O5 0.088887 0.911114 0.750000
O O6 0.179012 0.936437 0.759609
O O7 0.151100 0.000000 0.750000
O O8 0.136812 0.950618 0.000000
O O9 0.910729 0.666186 0.750680
O O10 0.000000 0.729531 0.750000
O O11 0.952781 0.718194 0.000000
O O12 0.575586 0.575586 0.250000
O O13 0.598024 0.665136 0.239096
O O14 0.509256 0.597666 0.252865
O O15 0.556030 0.607546 0.000000
O O16 0.280293 0.895893 0.000000
O O17 0.157080 0.578540 0.750000
O O18 0.140501 0.613861 0.000000
#
# Coordination Sequence:
#
# PCOD8329458 Si02
#       6
#    24  24  24  24  24  24
#     4  10  20  36  56  80 108 139 174 214 260 312
#     4  10  20  34  53  75 101 131 167 207 253 303
#     4   9  17  30  47  70 101 139 178 217 255 295
#     4  10  19  32  50  75 107 144 184 225 265 309
#     4   8  16  30  48  71 104 142 181 221 258 296
#     4  11  22  38  58  80 105 136 173 216 266 319
#
# _framework density 18.225733000000002
#
# number of rings (size 3 to 8) (size 9 to 14) (size 15 to 20)
#    0.000    2.333    0.000    4.500    0.000    1.667 
#    0.000    5.833    0.000    0.500    0.000    3.500 
#    0.000    0.000    0.000    0.000    0.000    0.000 
#
# Total GULP energy -1785461.866672 kJ/mol
# GULP energy per Si atom -12399.040741 kJ/mol
# Density = 1.818425 g / cm^3
# Si number density = 18.225733 Si / 1000 Ang^3
#
#
#
# Elastic Constant Matrix: (Units=GPa)
#
#
# Indices 1 2 3 4 5 6 
#
# 1 123.6597 86.3129 42.1052 0.0000 0.0000 0.0000
# 2 86.3129 123.6597 42.1052 0.0000 0.0000 0.0000
# 3 42.1052 42.1052 89.0907 0.0000 0.0000 0.0000
# 4 0.0000 0.0000 0.0000 26.8936 0.0000 0.0000
# 5 0.0000 0.0000 0.0000 0.0000 26.8936 0.0000
# 6 0.0000 0.0000 0.0000 0.0000 0.0000 18.6734
#
#
#
# Elastic Compliance Matrix: (Units=1/GPa)
#
#
# Indices 1 2 3 4 5 6 
#
# 1 0.016326 -0.010450 -0.002777 0.000000 0.000000 0.000000
# 2 -0.010450 0.016326 -0.002777 0.000000 0.000000 0.000000
# 3 -0.002777 -0.002777 0.013850 0.000000 0.000000 0.000000
# 4 0.000000 0.000000 0.000000 0.037184 0.000000 0.000000
# 5 0.000000 0.000000 0.000000 0.000000 0.037184 0.000000
# 6 0.000000 0.000000 0.000000 0.000000 0.000000 0.053552
#
#
# Mechanical properties :
#
#
# Convention : Reuss Voigt Hill
#
# Bulk Modulus (GPa) = 68.99692 75.27297 72.13495
# Shear Modulus (GPa) = 23.66743 25.55126 24.60934
#
# Velocity S-wave (km/s) = 3.60748 3.74830 3.67856
# Velocity P-wave (km/s) = 7.43579 7.75391 7.59651
#
# Compressibility (1/GPa) = 0.01449340
#
# Stress axis : x y z
#
# Youngs Moduli (GPa) = 61.25127 61.25127 72.20424
#
# Poissons Ratio (x) = 0.64007 0.20053
# Poissons Ratio (y) = 0.64007 0.20053
# Poissons Ratio (z) = 0.17011 0.17011
#
# Static dielectric constant tensor:
#      x y z
#    x 3.417180 0.000000 0.000000 
#    y 0.000000 3.417180 0.000000 
#    z 0.000000 0.000000 3.277530 
# 
# 
# High freq. dielectric constant tensor:
#      x y z
#    x 1.698990 0.000000 0.000000 
#    y 0.000000 1.698990 0.000000 
#    z 0.000000 0.000000 1.704980 
# 
# From -- ./inp_files/1128.got.cif
#   From: 2010.03.12/outbox.cif.g09.slc.cpg/sg192_1_cif.got.tgz:1128.got - 2010.04.01 12:16:15.
