data_PCOD8329153
_publ_section_title
;
Structure prediction by ZEFSAII (Michael W. Deem and Ramdas Pophale) SiO2 
 PCOD8329153
Probable space group: P 6/M M M
;
_chemical_formula_sum "Si O2"
_cell_formula_units_Z 108
_cell_length_a 29.169740
_cell_length_b 29.169740
_cell_length_c 7.808744
_cell_angle_alpha 90.000000
_cell_angle_beta 90.000000
_cell_angle_gamma 120.000000
_cell_volume 5754.093746
_symmetry_space_group_name_H-M "P 6/M M M"
_symmetry_group_IT_number 191
_symmetry_cell_setting 'hexagonal'
loop_
_space_group_symop_operation_xyz
x,y,z
x-y,x,z
-y,x-y,z
-x,-y,z
-x+y,-x,z
y,-x+y,z
x-y,-y,-z
-x,-x+y,-z
y,x,-z
-y,-x,-z
-x+y,y,-z
x,x-y,-z
-x,-y,-z
-x+y,-x,-z
y,-x+y,-z
x,y,-z
x-y,x,-z
-y,x-y,-z
-x+y,y,z
x,x-y,z
-y,-x,z
y,x,z
x-y,-y,z
-x,-x+y,z
loop_
_atom_site_type_symbol
_atom_site_label
_atom_site_fract_x
_atom_site_fract_y
_atom_site_fract_z
Si Si1 0.834233 0.771168 0.000000
Si Si2 0.669233 0.060544 0.202494
Si Si3 0.232073 0.937616 0.309541
Si Si4 0.563927 0.231054 0.302415
Si Si5 0.883417 0.492008 0.806031
O O1 0.813409 0.733651 0.167412
O O2 0.816173 0.816173 0.000000
O O3 0.898724 0.797448 0.000000
O O4 0.729177 0.086513 0.275928
O O5 0.637134 0.087554 0.284021
O O6 0.635894 0.000000 0.257834
O O7 0.674598 0.068164 0.000000
O O8 0.206715 0.920439 0.500000
O O9 0.268482 0.000000 0.294224
O O10 0.547731 0.217564 0.500000
O O11 0.625910 0.251820 0.277338
O O12 0.552453 0.276227 0.234502
O O13 0.528739 0.178824 0.193090
O O14 0.894711 0.447356 0.718108
O O15 0.903692 0.499260 0.000000
#
# Coordination Sequence:
#
# PCOD8329153 Si02
#       5
#    12  24  24  24  24
#     4  10  20  36  58  85 117 149 183 223 267 315
#     4   9  16  29  49  69  94 132 173 211 256 308
#     4   9  17  31  53  79 106 139 180 224 266 306
#     4   9  17  30  47  63  79 104 141 184 231 285
#     4   9  18  30  44  66  95 124 156 199 252 307
#
# _framework density 18.769245999999999
#
# number of rings (size 3 to 8) (size 9 to 14) (size 15 to 20)
#    0.000    2.889    1.111    0.222    0.000    3.111 
#    0.000    3.333    0.000    1.444    0.000    6.222 
#    0.000    0.000    0.000    5.556    0.000    0.000 
#
# Total GULP energy -1338043.195938 kJ/mol
# GULP energy per Si atom -12389.288851 kJ/mol
# Density = 1.872653 g / cm^3
# Si number density = 18.769246 Si / 1000 Ang^3
#
#
#
# Elastic Constant Matrix: (Units=GPa)
#
#
# Indices 1 2 3 4 5 6 
#
# 1 86.1416 45.5819 23.1981 0.0000 0.0000 0.0000
# 2 45.5819 86.1416 23.1981 0.0000 0.0000 0.0000
# 3 23.1981 23.1981 65.8757 0.0000 0.0000 0.0000
# 4 0.0000 0.0000 0.0000 11.7361 0.0000 0.0000
# 5 0.0000 0.0000 0.0000 0.0000 11.7361 0.0000
# 6 0.0000 0.0000 0.0000 0.0000 0.0000 20.2798
#
#
#
# Elastic Compliance Matrix: (Units=1/GPa)
#
#
# Indices 1 2 3 4 5 6 
#
# 1 0.016661 -0.007994 -0.003052 0.000000 0.000000 0.000000
# 2 -0.007994 0.016661 -0.003052 0.000000 0.000000 0.000000
# 3 -0.003052 -0.003052 0.017330 0.000000 0.000000 0.000000
# 4 0.000000 0.000000 0.000000 0.085207 0.000000 0.000000
# 5 0.000000 0.000000 0.000000 0.000000 0.085207 0.000000
# 6 0.000000 0.000000 0.000000 0.000000 0.000000 0.049310
#
#
# Mechanical properties :
#
#
# Convention : Reuss Voigt Hill
#
# Bulk Modulus (GPa) = 44.53340 46.90165 45.71752
# Shear Modulus (GPa) = 16.33683 18.49580 17.41631
#
# Velocity S-wave (km/s) = 2.95346 3.14256 3.04948
# Velocity P-wave (km/s) = 5.95054 6.18146 6.06710
#
# Compressibility (1/GPa) = 0.02245506
#
# Stress axis : x y z
#
# Youngs Moduli (GPa) = 60.02104 60.02104 57.70483
#
# Poissons Ratio (x) = 0.47982 0.17611
# Poissons Ratio (y) = 0.47982 0.17611
# Poissons Ratio (z) = 0.18318 0.18318
#
# Static dielectric constant tensor:
#      x y z
#    x 3.336300 0.000000 0.000000 
#    y 0.000000 3.336300 0.000000 
#    z 0.000000 0.000000 3.357450 
# 
# 
# High freq. dielectric constant tensor:
#      x y z
#    x 1.706220 0.000000 0.000000 
#    y 0.000000 1.706220 0.000000 
#    z 0.000000 0.000000 1.720820 
# 
# From -- ./inp_files/1700.got.cif
#   From: 2010.03.12/outbox.cif.g09.slc.cpg/sg191_1_cif.got.tgz:1700.got - 2010.04.01 12:09:02.
