data_PCOD8329230
_publ_section_title
;
Structure prediction by ZEFSAII (Michael W. Deem and Ramdas Pophale) SiO2 
 PCOD8329230
Probable space group: P 6/M M M
;
_chemical_formula_sum "Si O2"
_cell_formula_units_Z 108
_cell_length_a 29.297039
_cell_length_b 29.297039
_cell_length_c 7.906995
_cell_angle_alpha 90.000000
_cell_angle_beta 90.000000
_cell_angle_gamma 120.000000
_cell_volume 5877.458269
_symmetry_space_group_name_H-M "P 6/M M M"
_symmetry_group_IT_number 191
_symmetry_cell_setting 'hexagonal'
loop_
_space_group_symop_operation_xyz
x,y,z
x-y,x,z
-y,x-y,z
-x,-y,z
-x+y,-x,z
y,-x+y,z
x-y,-y,-z
-x,-x+y,-z
y,x,-z
-y,-x,-z
-x+y,y,-z
x,x-y,-z
-x,-y,-z
-x+y,-x,-z
y,-x+y,-z
x,y,-z
x-y,x,-z
-y,x-y,-z
-x+y,y,z
x,x-y,z
-y,-x,z
y,x,z
x-y,-y,z
-x,-x+y,z
loop_
_atom_site_type_symbol
_atom_site_label
_atom_site_fract_x
_atom_site_fract_y
_atom_site_fract_z
Si Si1 0.215665 0.058134 0.195643
Si Si2 0.373024 0.521530 0.803920
Si Si3 0.590447 0.648650 0.804117
Si Si4 0.062381 0.747414 0.311981
Si Si5 0.665961 0.226524 0.500000
O O1 0.202521 0.101261 0.277273
O O2 0.278167 0.079850 0.213658
O O3 0.180315 0.000000 0.281942
O O4 0.201887 0.052864 0.000000
O O5 0.433853 0.566148 0.791077
O O6 0.369287 0.467721 0.736966
O O7 0.338413 0.533710 0.673396
O O8 0.352960 0.517168 0.000000
O O9 0.614366 0.614366 0.717071
O O10 0.627957 0.711443 0.772326
O O11 0.586726 0.637322 0.000000
O O12 0.085418 0.762189 0.500000
O O13 0.000000 0.713773 0.309983
O O14 0.722561 0.277440 0.500000
O O15 0.621728 0.243456 0.500000
#
# Coordination Sequence:
#
# PCOD8329230 Si02
#       5
#    24  24  24  24  12
#     4   9  17  30  48  68  91 121 158 200 246 298
#     4   9  19  35  54  79 110 139 169 210 257 304
#     4   9  17  30  50  74 102 139 175 203 237 287
#     4   9  17  28  44  67  94 124 161 203 240 278
#     4  10  21  38  59  79  99 127 167 215 267 318
#
# _framework density 18.375291000000001
#
# number of rings (size 3 to 8) (size 9 to 14) (size 15 to 20)
#    0.000    2.889    0.000    0.778    1.556    4.000 
#    0.000    3.333    0.000    4.889    0.000    1.556 
#    0.000    0.000    0.000    5.556    0.000    5.778 
#
# Total GULP energy -1338063.747885 kJ/mol
# GULP energy per Si atom -12389.479147 kJ/mol
# Density = 1.833347 g / cm^3
# Si number density = 18.375291 Si / 1000 Ang^3
#
#
#
# Elastic Constant Matrix: (Units=GPa)
#
#
# Indices 1 2 3 4 5 6 
#
# 1 125.0687 80.1547 32.3240 0.0000 0.0000 0.0000
# 2 80.1547 125.0687 32.3240 0.0000 0.0000 0.0000
# 3 32.3240 32.3240 53.4980 0.0000 0.0000 0.0000
# 4 0.0000 0.0000 0.0000 14.6677 0.0000 0.0000
# 5 0.0000 0.0000 0.0000 0.0000 14.6677 0.0000
# 6 0.0000 0.0000 0.0000 0.0000 0.0000 22.4570
#
#
#
# Elastic Compliance Matrix: (Units=1/GPa)
#
#
# Indices 1 2 3 4 5 6 
#
# 1 0.014141 -0.008123 -0.003636 0.000000 0.000000 0.000000
# 2 -0.008123 0.014141 -0.003636 0.000000 0.000000 0.000000
# 3 -0.003636 -0.003636 0.023086 0.000000 0.000000 0.000000
# 4 0.000000 0.000000 0.000000 0.068177 0.000000 0.000000
# 5 0.000000 0.000000 0.000000 0.000000 0.068177 0.000000
# 6 0.000000 0.000000 0.000000 0.000000 0.000000 0.044529
#
#
# Mechanical properties :
#
#
# Convention : Reuss Voigt Hill
#
# Bulk Modulus (GPa) = 48.59612 65.91567 57.25590
# Shear Modulus (GPa) = 18.52514 20.94735 19.73624
#
# Velocity S-wave (km/s) = 3.17859 3.38001 3.28085
# Velocity P-wave (km/s) = 6.32259 7.15419 6.75121
#
# Compressibility (1/GPa) = 0.02057777
#
# Stress axis : x y z
#
# Youngs Moduli (GPa) = 70.71396 70.71396 43.31555
#
# Poissons Ratio (x) = 0.57443 0.15751
# Poissons Ratio (y) = 0.57443 0.15751
# Poissons Ratio (z) = 0.25713 0.25713
#
# Static dielectric constant tensor:
#      x y z
#    x 3.722770 0.000000 0.000000 
#    y 0.000000 3.722770 0.000000 
#    z 0.000000 0.000000 3.393990 
# 
# 
# High freq. dielectric constant tensor:
#      x y z
#    x 1.696810 0.000000 0.000000 
#    y 0.000000 1.696810 0.000000 
#    z 0.000000 0.000000 1.707970 
# 
# From -- ./inp_files/1749.got.cif
#   From: 2010.03.12/outbox.cif.g09.slc.cpg/sg191_1_cif.got.tgz:1749.got - 2010.04.01 12:09:02.
