data_PCOD8329472
_publ_section_title
;
Structure prediction by ZEFSAII (Michael W. Deem and Ramdas Pophale) SiO2 
 PCOD8329472
Probable space group: P 6/M C C
;
_chemical_formula_sum "Si O2"
_cell_formula_units_Z 144
_cell_length_a 32.182588
_cell_length_b 32.182588
_cell_length_c 8.920812
_cell_angle_alpha 90.000000
_cell_angle_beta 90.000000
_cell_angle_gamma 120.000000
_cell_volume 8001.602071
_symmetry_space_group_name_H-M "P 6/M C C"
_symmetry_group_IT_number 192
_symmetry_cell_setting 'hexagonal'
loop_
_space_group_symop_operation_xyz
x,y,z
x-y,x,z
-y,x-y,z
-x,-y,z
-x+y,-x,z
y,-x+y,z
x-y,-y,1/2-z
-x,-x+y,1/2-z
y,x,1/2-z
-y,-x,1/2-z
-x+y,y,1/2-z
x,x-y,1/2-z
-x,-y,-z
-x+y,-x,-z
y,-x+y,-z
x,y,-z
x-y,x,-z
-y,x-y,-z
-x+y,y,1/2+z
x,x-y,1/2+z
-y,-x,1/2+z
y,x,1/2+z
x-y,-y,1/2+z
-x,-x+y,1/2+z
loop_
_atom_site_type_symbol
_atom_site_label
_atom_site_fract_x
_atom_site_fract_y
_atom_site_fract_z
Si Si1 0.191743 0.893539 0.825026
Si Si2 0.617009 0.471174 0.177524
Si Si3 0.905305 0.289942 0.326665
Si Si4 0.522743 0.805905 0.324936
Si Si5 0.138139 0.949035 0.822630
Si Si6 0.436158 0.048346 0.824678
O O1 0.157310 0.842691 0.750000
O O2 0.246276 0.912865 0.773068
O O3 0.176678 0.932660 0.780451
O O4 0.186794 0.883250 0.000000
O O5 0.578233 0.421768 0.250000
O O6 0.667903 0.483801 0.246283
O O7 0.604069 0.512050 0.222018
O O8 0.618465 0.465927 0.000000
O O9 0.918802 0.302934 0.500000
O O10 0.850260 0.274520 0.296569
O O11 0.941257 0.335900 0.230459
O O12 0.519146 0.759573 0.250000
O O13 0.510733 0.796616 0.500000
O O14 0.087199 0.912802 0.750000
O O15 0.155056 0.000000 0.750000
O O16 0.132298 0.951104 0.000000
O O17 0.429591 0.000000 0.750000
O O18 0.431154 0.040449 0.000000
#
# Coordination Sequence:
#
# PCOD8329472 Si02
#       6
#    24  24  24  24  24  24
#     4   9  18  31  48  72 102 135 171 209 248 293
#     4  10  21  37  56  78 103 133 171 214 262 314
#     4   9  18  32  49  72 104 140 177 216 255 296
#     4  10  19  32  53  79 107 138 172 212 257 306
#     4  10  20  35  54  76 102 132 167 206 249 296
#     4  10  21  35  51  72 100 135 175 218 262 308
#
# _framework density 17.996396000000001
#
# number of rings (size 3 to 8) (size 9 to 14) (size 15 to 20)
#    0.000    2.333    0.000    2.500    0.000    5.000 
#    0.000    3.333    0.000    0.500    0.000    3.500 
#    0.000    0.000    0.000    0.000    0.000    0.000 
#
# Total GULP energy -1786034.839550 kJ/mol
# GULP energy per Si atom -12403.019719 kJ/mol
# Density = 1.795544 g / cm^3
# Si number density = 17.996396 Si / 1000 Ang^3
#
#
#
# Elastic Constant Matrix: (Units=GPa)
#
#
# Indices 1 2 3 4 5 6 
#
# 1 87.1965 46.2495 38.3175 0.0000 0.0000 0.0000
# 2 46.2495 87.1965 38.3175 0.0000 0.0000 0.0000
# 3 38.3175 38.3175 75.4646 0.0000 0.0000 0.0000
# 4 0.0000 0.0000 0.0000 31.6561 0.0000 0.0000
# 5 0.0000 0.0000 0.0000 0.0000 31.6561 0.0000
# 6 0.0000 0.0000 0.0000 0.0000 0.0000 20.4735
#
#
#
# Elastic Compliance Matrix: (Units=1/GPa)
#
#
# Indices 1 2 3 4 5 6 
#
# 1 0.017500 -0.006922 -0.005371 0.000000 0.000000 0.000000
# 2 -0.006922 0.017500 -0.005371 0.000000 0.000000 0.000000
# 3 -0.005371 -0.005371 0.018706 0.000000 0.000000 0.000000
# 4 0.000000 0.000000 0.000000 0.031589 0.000000 0.000000
# 5 0.000000 0.000000 0.000000 0.000000 0.031589 0.000000
# 6 0.000000 0.000000 0.000000 0.000000 0.000000 0.048844
#
#
# Mechanical properties :
#
#
# Convention : Reuss Voigt Hill
#
# Bulk Modulus (GPa) = 54.41421 55.06961 54.74191
# Shear Modulus (GPa) = 24.13333 25.22200 24.67767
#
# Velocity S-wave (km/s) = 3.66595 3.74773 3.70706
# Velocity P-wave (km/s) = 6.94412 7.02809 6.98623
#
# Compressibility (1/GPa) = 0.01837755
#
# Stress axis : x y z
#
# Youngs Moduli (GPa) = 57.14281 57.14281 53.45980
#
# Poissons Ratio (x) = 0.39553 0.28714
# Poissons Ratio (y) = 0.39553 0.28714
# Poissons Ratio (z) = 0.30692 0.30692
#
# Static dielectric constant tensor:
#      x y z
#    x 3.310710 0.000000 0.000000 
#    y 0.000000 3.310710 0.000000 
#    z 0.000000 0.000000 3.386700 
# 
# 
# High freq. dielectric constant tensor:
#      x y z
#    x 1.688960 0.000000 0.000000 
#    y 0.000000 1.688960 0.000000 
#    z 0.000000 0.000000 1.707380 
# 
# From -- ./inp_files/1139.got.cif
#   From: 2010.03.12/outbox.cif.g09.slc.cpg/sg192_1_cif.got.tgz:1139.got - 2010.04.01 12:16:15.
