data_PCOD8329680
_publ_section_title
;
Structure prediction by ZEFSAII (Michael W. Deem and Ramdas Pophale) SiO2 
 PCOD8329680
Probable space group: P 6/M C C
;
_chemical_formula_sum "Si O2"
_cell_formula_units_Z 168
_cell_length_a 17.951052
_cell_length_b 17.951052
_cell_length_c 30.368041
_cell_angle_alpha 90.000000
_cell_angle_beta 90.000000
_cell_angle_gamma 120.000000
_cell_volume 8474.756305
_symmetry_space_group_name_H-M "P 6/M C C"
_symmetry_group_IT_number 192
_symmetry_cell_setting 'hexagonal'
loop_
_space_group_symop_operation_xyz
x,y,z
x-y,x,z
-y,x-y,z
-x,-y,z
-x+y,-x,z
y,-x+y,z
x-y,-y,1/2-z
-x,-x+y,1/2-z
y,x,1/2-z
-y,-x,1/2-z
-x+y,y,1/2-z
x,x-y,1/2-z
-x,-y,-z
-x+y,-x,-z
y,-x+y,-z
x,y,-z
x-y,x,-z
-y,x-y,-z
-x+y,y,1/2+z
x,x-y,1/2+z
-y,-x,1/2+z
y,x,1/2+z
x-y,-y,1/2+z
-x,-x+y,1/2+z
loop_
_atom_site_type_symbol
_atom_site_label
_atom_site_fract_x
_atom_site_fract_y
_atom_site_fract_z
Si Si1 0.898393 0.366227 0.251405
Si Si2 0.884954 0.631884 0.672476
Si Si3 0.718969 0.636190 0.333172
Si Si4 0.732750 0.109006 0.576502
Si Si5 0.038962 0.441901 0.083915
Si Si6 0.945681 0.807663 0.448717
Si Si7 0.607764 0.146684 0.000000
Si Si8 0.209373 0.729967 0.000000
O O1 0.857177 0.428589 0.250000
O O2 0.860217 0.297947 0.211252
O O3 0.876949 0.316608 0.297312
O O4 0.000000 0.423797 0.250000
O O5 0.822305 0.673195 0.669401
O O6 0.869315 0.583175 0.625605
O O7 0.987059 0.703257 0.677377
O O8 0.671034 0.588673 0.378534
O O9 0.801788 0.077124 0.580283
O O10 0.768618 0.189282 0.543518
O O11 0.642051 0.033714 0.558835
O O12 0.000000 0.500000 0.103973
O O13 0.103679 0.492357 0.045070
O O14 0.881676 0.841496 0.435965
O O15 0.939176 0.783027 0.500000
O O16 0.522370 0.151139 0.000000
O O17 0.690999 0.241213 0.000000
#
# Coordination Sequence:
#
# PCOD8329680 Si02
#       8
#    24  24  24  24  24  24  12  12
#     4   9  19  35  63  91 119 154 197 248 307 368
#     4  10  22  38  57  95 122 161 201 258 309 370
#     4  10  22  38  64  90 125 158 207 254 311 377
#     4  11  23  36  58  86 119 155 210 255 303 363
#     4  11  23  39  61  88 115 158 209 260 304 360
#     4  10  22  37  58  86 122 166 211 261 318 371
#     4  12  25  39  60  81 121 157 204 252 310 367
#     4  12  24  40  55  80 115 161 199 251 311 370
#
# _framework density 19.823578000000001
#
# number of rings (size 3 to 8) (size 9 to 14) (size 15 to 20)
#    0.000    1.571    2.143    2.214   12.000    0.571 
#    0.000    0.000    0.000    2.571    0.000    0.000 
#    0.000    3.429    0.000    0.000    0.000    0.000 
#
# Total GULP energy -2081857.161481 kJ/mol
# GULP energy per Si atom -12392.006914 kJ/mol
# Density = 1.977846 g / cm^3
# Si number density = 19.823578 Si / 1000 Ang^3
#
#
#
# Elastic Constant Matrix: (Units=GPa)
#
#
# Indices 1 2 3 4 5 6 
#
# 1 106.5335 48.5078 34.7899 0.0000 0.0000 0.0000
# 2 48.5078 106.5335 34.7899 0.0000 0.0000 0.0000
# 3 34.7899 34.7899 114.7630 0.0000 0.0000 0.0000
# 4 0.0000 0.0000 0.0000 16.1544 0.0000 0.0000
# 5 0.0000 0.0000 0.0000 0.0000 16.1544 0.0000
# 6 0.0000 0.0000 0.0000 0.0000 0.0000 29.0129
#
#
#
# Elastic Compliance Matrix: (Units=1/GPa)
#
#
# Indices 1 2 3 4 5 6 
#
# 1 0.012350 -0.004884 -0.002263 0.000000 0.000000 0.000000
# 2 -0.004884 0.012350 -0.002263 0.000000 0.000000 0.000000
# 3 -0.002263 -0.002263 0.010086 0.000000 0.000000 0.000000
# 4 0.000000 0.000000 0.000000 0.061903 0.000000 0.000000
# 5 0.000000 0.000000 0.000000 0.000000 0.061903 0.000000
# 6 0.000000 0.000000 0.000000 0.000000 0.000000 0.034467
#
#
# Mechanical properties :
#
#
# Convention : Reuss Voigt Hill
#
# Bulk Modulus (GPa) = 62.63999 62.66726 62.65363
# Shear Modulus (GPa) = 23.02026 26.24716 24.63371
#
# Velocity S-wave (km/s) = 3.41142 3.64268 3.52894
# Velocity P-wave (km/s) = 6.86909 7.02661 6.94830
#
# Compressibility (1/GPa) = 0.01596424
#
# Stress axis : x y z
#
# Youngs Moduli (GPa) = 80.97400 80.97400 99.14990
#
# Poissons Ratio (x) = 0.39548 0.22439
# Poissons Ratio (y) = 0.39548 0.22439
# Poissons Ratio (z) = 0.18326 0.18326
#
# Static dielectric constant tensor:
#      x y z
#    x 3.628300 0.000000 0.000000 
#    y 0.000000 3.628300 0.000000 
#    z 0.000000 0.000000 3.698430 
# 
# 
# High freq. dielectric constant tensor:
#      x y z
#    x 1.763360 0.000000 0.000000 
#    y 0.000000 1.763360 0.000000 
#    z 0.000000 0.000000 1.777880 
# 
# From -- ./inp_files/7235.got.cif
#   From: 2010.03.12/outbox.cif.g09.slc.cpg/sg192_4_cif.got.tgz:7235.got - 2010.04.01 12:16:15.
