data_PCOD8329093
_publ_section_title
;
Structure prediction by ZEFSAII (Michael W. Deem and Ramdas Pophale) SiO2 
 PCOD8329093
Probable space group: P 6/M M M
;
_chemical_formula_sum "Si O2"
_cell_formula_units_Z 144
_cell_length_a 31.676744
_cell_length_b 31.676744
_cell_length_c 9.072851
_cell_angle_alpha 90.000000
_cell_angle_beta 90.000000
_cell_angle_gamma 120.000000
_cell_volume 7884.160922
_symmetry_space_group_name_H-M "P 6/M M M"
_symmetry_group_IT_number 191
_symmetry_cell_setting 'hexagonal'
loop_
_space_group_symop_operation_xyz
x,y,z
x-y,x,z
-y,x-y,z
-x,-y,z
-x+y,-x,z
y,-x+y,z
x-y,-y,-z
-x,-x+y,-z
y,x,-z
-y,-x,-z
-x+y,y,-z
x,x-y,-z
-x,-y,-z
-x+y,-x,-z
y,-x+y,-z
x,y,-z
x-y,x,-z
-y,x-y,-z
-x+y,y,z
x,x-y,z
-y,-x,z
y,x,z
x-y,-y,z
-x,-x+y,z
loop_
_atom_site_type_symbol
_atom_site_label
_atom_site_fract_x
_atom_site_fract_y
_atom_site_fract_z
Si Si1 0.900588 0.199758 0.834820
Si Si2 0.431038 0.666821 0.329982
Si Si3 0.146386 0.392702 0.334898
Si Si4 0.851445 0.797366 0.329328
Si Si5 0.425909 0.479552 0.174894
Si Si6 0.668219 0.149105 0.175273
O O1 0.848951 0.151050 0.836685
O O2 0.896580 0.241405 0.744573
O O3 0.939923 0.188965 0.759342
O O4 0.918151 0.219058 0.000000
O O5 0.446774 0.669342 0.500000
O O6 0.434122 0.717061 0.281696
O O7 0.376120 0.623881 0.304458
O O8 0.466378 0.656836 0.228816
O O9 0.129299 0.395870 0.500000
O O10 0.194477 0.388954 0.341233
O O11 0.158770 0.440221 0.242879
O O12 0.843956 0.782475 0.500000
O O13 0.906430 0.812859 0.279033
O O14 0.842669 0.842669 0.298570
O O15 0.468938 0.531063 0.236782
O O16 0.436215 0.436215 0.226165
O O17 0.374271 0.470730 0.233605
O O18 0.426333 0.482055 0.000000
O O19 0.672286 0.151162 0.000000
#
# Coordination Sequence:
#
# PCOD8329093 Si02
#       6
#    24  24  24  24  24  24
#     4   9  17  30  49  72  96 123 159 204 251 296
#     4  10  21  37  55  74 100 137 178 216 257 309
#     4  10  20  34  51  70  97 135 172 202 240 296
#     4   9  17  30  49  73 102 137 176 216 259 309
#     4   8  15  30  51  72  94 121 153 190 235 289
#     4  11  21  32  51  79 105 129 163 208 255 302
#
# _framework density 18.264468000000001
#
# number of rings (size 3 to 8) (size 9 to 14) (size 15 to 20)
#    0.000    2.500    0.000    3.167    0.000    7.333 
#    0.000    0.833    0.000    6.167    0.000    7.000 
#    0.000    0.000    0.000    4.167    0.000    4.333 
#
# Total GULP energy -1785367.125674 kJ/mol
# GULP energy per Si atom -12398.382817 kJ/mol
# Density = 1.822290 g / cm^3
# Si number density = 18.264468 Si / 1000 Ang^3
#
#
#
# Elastic Constant Matrix: (Units=GPa)
#
#
# Indices 1 2 3 4 5 6 
#
# 1 87.6222 36.8260 39.9080 0.0000 0.0000 0.0000
# 2 36.8260 87.6222 39.9080 0.0000 0.0000 0.0000
# 3 39.9080 39.9080 87.1387 0.0000 0.0000 0.0000
# 4 0.0000 0.0000 0.0000 20.5023 0.0000 0.0000
# 5 0.0000 0.0000 0.0000 0.0000 20.5023 0.0000
# 6 0.0000 0.0000 0.0000 0.0000 0.0000 25.3981
#
#
#
# Elastic Compliance Matrix: (Units=1/GPa)
#
#
# Indices 1 2 3 4 5 6 
#
# 1 0.015532 -0.004155 -0.005211 0.000000 0.000000 0.000000
# 2 -0.004155 0.015532 -0.005211 0.000000 0.000000 0.000000
# 3 -0.005211 -0.005211 0.016249 0.000000 0.000000 0.000000
# 4 0.000000 0.000000 0.000000 0.048775 0.000000 0.000000
# 5 0.000000 0.000000 0.000000 0.000000 0.048775 0.000000
# 6 0.000000 0.000000 0.000000 0.000000 0.000000 0.039373
#
#
# Mechanical properties :
#
#
# Convention : Reuss Voigt Hill
#
# Bulk Modulus (GPa) = 55.06336 55.07415 55.06876
# Shear Modulus (GPa) = 22.78519 22.99663 22.89091
#
# Velocity S-wave (km/s) = 3.53585 3.55222 3.54404
# Velocity P-wave (km/s) = 6.84711 6.85883 6.85297
#
# Compressibility (1/GPa) = 0.01816090
#
# Stress axis : x y z
#
# Youngs Moduli (GPa) = 64.38348 64.38348 61.54328
#
# Poissons Ratio (x) = 0.26749 0.32068
# Poissons Ratio (y) = 0.26749 0.32068
# Poissons Ratio (z) = 0.33548 0.33548
#
# Static dielectric constant tensor:
#      x y z
#    x 3.382240 0.000000 0.000000 
#    y 0.000000 3.382240 0.000000 
#    z 0.000000 0.000000 3.389870 
# 
# 
# High freq. dielectric constant tensor:
#      x y z
#    x 1.699100 0.000000 0.000000 
#    y 0.000000 1.699100 0.000000 
#    z 0.000000 0.000000 1.699020 
# 
# From -- ./inp_files/1969.got.cif
#   From: 2010.03.12/outbox.cif.g09.slc.cpg/sg191_1_cif.got.tgz:1969.got - 2010.04.01 12:09:02.
