data_PCOD8329144
_publ_section_title
;
Structure prediction by ZEFSAII (Michael W. Deem and Ramdas Pophale) SiO2 
 PCOD8329144
Probable space group: P 6/M M M
;
_chemical_formula_sum "Si O2"
_cell_formula_units_Z 132
_cell_length_a 26.740258
_cell_length_b 26.740258
_cell_length_c 11.695505
_cell_angle_alpha 90.000000
_cell_angle_beta 90.000000
_cell_angle_gamma 120.000000
_cell_volume 7242.371478
_symmetry_space_group_name_H-M "P 6/M M M"
_symmetry_group_IT_number 191
_symmetry_cell_setting 'hexagonal'
loop_
_space_group_symop_operation_xyz
x,y,z
x-y,x,z
-y,x-y,z
-x,-y,z
-x+y,-x,z
y,-x+y,z
x-y,-y,-z
-x,-x+y,-z
y,x,-z
-y,-x,-z
-x+y,y,-z
x,x-y,-z
-x,-y,-z
-x+y,-x,-z
y,-x+y,-z
x,y,-z
x-y,x,-z
-y,x-y,-z
-x+y,y,z
x,x-y,z
-y,-x,z
y,x,z
x-y,-y,z
-x,-x+y,z
loop_
_atom_site_type_symbol
_atom_site_label
_atom_site_fract_x
_atom_site_fract_y
_atom_site_fract_z
Si Si1 0.701743 0.932457 0.000000
Si Si2 0.721289 0.066598 0.631113
Si Si3 0.933093 0.178801 0.233874
Si Si4 0.886855 0.539220 0.236418
Si Si5 0.408887 0.341631 0.000000
Si Si6 0.552539 0.332253 0.130622
Si Si7 0.465907 0.534094 0.630007
O O1 0.723531 0.914403 0.888739
O O2 0.631851 0.903128 0.000000
O O3 0.727107 0.000000 0.000000
O O4 0.728223 0.085823 0.500000
O O5 0.782615 0.076696 0.673648
O O6 0.700714 0.103946 0.702415
O O7 0.672724 0.000000 0.647548
O O8 0.889192 0.110809 0.261867
O O9 0.000000 0.193348 0.236102
O O10 0.818513 0.499251 0.216648
O O11 0.910132 0.505278 0.310597
O O12 0.916572 0.551971 0.112473
O O13 0.367125 0.367125 0.000000
O O14 0.573629 0.286815 0.154860
O O15 0.604658 0.395343 0.156808
O O16 0.531091 0.327366 0.000000
O O17 0.500000 0.500000 0.633890
O O18 0.454516 0.545484 0.500000
#
# Coordination Sequence:
#
# PCOD8329144 Si02
#       7
#    12  24  24  24  12  24  12
#     4   9  17  33  53  78 111 148 187 226 276 341
#     4  10  21  37  56  79 112 155 195 229 271 331
#     4  10  20  35  57  84 115 152 195 241 289 343
#     4  12  21  36  56  86 116 144 187 234 283 337
#     4  11  20  32  53  83 121 153 177 219 285 343
#     4  10  21  39  59  81 106 136 177 228 284 337
#     4  11  24  39  57  81 113 158 199 229 273 339
#
# _framework density 18.226074000000001
#
# number of rings (size 3 to 8) (size 9 to 14) (size 15 to 20)
#    0.000    1.545    3.636    2.636    0.000    3.636 
#    0.000    0.909    0.000    1.818    0.000    0.000 
#    0.000    2.182    0.000    4.545    0.000    0.000 
#
# Total GULP energy -1636724.742609 kJ/mol
# GULP energy per Si atom -12399.429868 kJ/mol
# Density = 1.818459 g / cm^3
# Si number density = 18.226074 Si / 1000 Ang^3
#
#
#
# Elastic Constant Matrix: (Units=GPa)
#
#
# Indices 1 2 3 4 5 6 
#
# 1 94.9787 43.0295 42.1482 0.0000 0.0000 0.0000
# 2 43.0295 94.9787 42.1482 0.0000 0.0000 0.0000
# 3 42.1482 42.1482 118.5828 0.0000 0.0000 0.0000
# 4 0.0000 0.0000 0.0000 24.0876 0.0000 0.0000
# 5 0.0000 0.0000 0.0000 0.0000 24.0876 0.0000
# 6 0.0000 0.0000 0.0000 0.0000 0.0000 25.9746
#
#
#
# Elastic Compliance Matrix: (Units=1/GPa)
#
#
# Indices 1 2 3 4 5 6 
#
# 1 0.014252 -0.004997 -0.003290 0.000000 0.000000 0.000000
# 2 -0.004997 0.014252 -0.003290 0.000000 0.000000 0.000000
# 3 -0.003290 -0.003290 0.010771 0.000000 0.000000 0.000000
# 4 0.000000 0.000000 0.000000 0.041515 0.000000 0.000000
# 5 0.000000 0.000000 0.000000 0.000000 0.041515 0.000000
# 6 0.000000 0.000000 0.000000 0.000000 0.000000 0.038499
#
#
# Mechanical properties :
#
#
# Convention : Reuss Voigt Hill
#
# Bulk Modulus (GPa) = 62.02148 62.57690 62.29919
# Shear Modulus (GPa) = 26.40850 26.91091 26.65971
#
# Velocity S-wave (km/s) = 3.81063 3.84670 3.82871
# Velocity P-wave (km/s) = 7.31191 7.35784 7.33491
#
# Compressibility (1/GPa) = 0.01612345
#
# Stress axis : x y z
#
# Youngs Moduli (GPa) = 70.16345 70.16345 92.83831
#
# Poissons Ratio (x) = 0.35062 0.30540
# Poissons Ratio (y) = 0.35062 0.30540
# Poissons Ratio (z) = 0.23081 0.23081
#
# Static dielectric constant tensor:
#      x y z
#    x 3.271420 0.000000 0.000000 
#    y 0.000000 3.271420 0.000000 
#    z 0.000000 0.000000 3.353710 
# 
# 
# High freq. dielectric constant tensor:
#      x y z
#    x 1.695090 0.000000 0.000000 
#    y 0.000000 1.695090 0.000000 
#    z 0.000000 0.000000 1.709800 
# 
# From -- ./inp_files/3391.got.cif
#   From: 2010.03.12/outbox.cif.g09.slc.cpg/sg191_2_cif.got.tgz:3391.got - 2010.04.01 12:09:02.
