data_PCOD8329857
_publ_section_title
;
Structure prediction by ZEFSAII (Michael W. Deem and Ramdas Pophale) SiO2 
 PCOD8329857
Probable space group: P 63/M C M
;
_chemical_formula_sum "Si O2"
_cell_formula_units_Z 144
_cell_length_a 20.235721
_cell_length_b 20.235721
_cell_length_c 27.701755
_cell_angle_alpha 90.000000
_cell_angle_beta 90.000000
_cell_angle_gamma 120.000000
_cell_volume 9823.704302
_symmetry_space_group_name_H-M "P 63/M C M"
_symmetry_group_IT_number 193
_symmetry_cell_setting 'hexagonal'
loop_
_space_group_symop_operation_xyz
x,y,z
x-y,x,1/2+z
-y,x-y,z
-x,-y,1/2+z
-x+y,-x,z
y,-x+y,1/2+z
x-y,-y,1/2-z
-x,-x+y,1/2-z
y,x,1/2-z
-y,-x,-z
-x+y,y,-z
x,x-y,-z
-x,-y,-z
-x+y,-x,1/2-z
y,-x+y,-z
x,y,1/2-z
x-y,x,-z
-y,x-y,1/2-z
-x+y,y,1/2+z
x,x-y,1/2+z
-y,-x,1/2+z
y,x,z
x-y,-y,z
-x,-x+y,z
loop_
_atom_site_type_symbol
_atom_site_label
_atom_site_fract_x
_atom_site_fract_y
_atom_site_fract_z
Si Si1 0.501631 0.086728 0.807358
Si Si2 0.157489 0.244799 0.351327
Si Si3 0.912229 0.087237 0.446130
Si Si4 0.666121 0.142378 0.693241
Si Si5 0.000000 0.822799 0.692994
Si Si6 0.000000 0.325900 0.307595
Si Si7 0.410556 0.244349 0.307101
O O1 0.499822 0.090713 0.750000
O O2 0.588958 0.138812 0.826955
O O3 0.448001 0.118085 0.827813
O O4 0.468609 0.000000 0.824968
O O5 0.219551 0.219551 0.339132
O O6 0.141738 0.241600 0.408791
O O7 0.077900 0.183147 0.326178
O O8 0.189500 0.330572 0.332834
O O9 0.894666 0.105335 0.500000
O O10 0.000000 0.141992 0.431579
O O11 0.894046 0.000000 0.444020
O O12 0.654645 0.130211 0.750000
O O13 0.745363 0.218870 0.681026
O O14 0.673287 0.073061 0.671102
O O15 0.000000 0.748154 0.672868
O O16 0.000000 0.827672 0.750000
O O17 0.000000 0.324909 0.250000
O O18 0.393621 0.238437 0.250000
#
# Coordination Sequence:
#
# PCOD8329857 Si02
#       7
#    24  24  24  24  12  12  24
#     4   9  16  26  39  54  74 104 142 175 201 240
#     4  11  21  31  43  60  84 114 149 181 214 257
#     4   9  17  30  47  63  79 103 140 188 232 262
#     4   9  15  25  40  55  72  99 138 176 204 235
#     4  11  20  30  42  58  83 117 151 183 213 249
#     4   9  14  24  42  56  70  97 139 179 205 233
#     4  10  19  29  41  59  85 115 141 171 215 259
#
# _framework density 14.658422
#
# number of rings (size 3 to 8) (size 9 to 14) (size 15 to 20)
#    0.000    2.333    3.333    1.167    0.000    2.667 
#    1.500    0.000    0.000    0.000    0.000    0.000 
#    0.000    1.333    0.000    9.500    0.000    0.333 
#
# Total GULP energy -1784504.479095 kJ/mol
# GULP energy per Si atom -12392.392216 kJ/mol
# Density = 1.462506 g / cm^3
# Si number density = 14.658422 Si / 1000 Ang^3
#
#
#
# Elastic Constant Matrix: (Units=GPa)
#
#
# Indices 1 2 3 4 5 6 
#
# 1 82.6266 32.5692 22.5842 0.0000 0.0000 0.0000
# 2 32.5692 82.6266 22.5842 0.0000 0.0000 0.0000
# 3 22.5842 22.5842 44.4718 0.0000 0.0000 0.0000
# 4 0.0000 0.0000 0.0000 8.4843 0.0000 0.0000
# 5 0.0000 0.0000 0.0000 0.0000 8.4843 0.0000
# 6 0.0000 0.0000 0.0000 0.0000 0.0000 25.0287
#
#
#
# Elastic Compliance Matrix: (Units=1/GPa)
#
#
# Indices 1 2 3 4 5 6 
#
# 1 0.015408 -0.004569 -0.005504 0.000000 0.000000 0.000000
# 2 -0.004569 0.015408 -0.005504 0.000000 0.000000 0.000000
# 3 -0.005504 -0.005504 0.028077 0.000000 0.000000 0.000000
# 4 0.000000 0.000000 0.000000 0.117864 0.000000 0.000000
# 5 0.000000 0.000000 0.000000 0.000000 0.117864 0.000000
# 6 0.000000 0.000000 0.000000 0.000000 0.000000 0.039954
#
#
# Mechanical properties :
#
#
# Convention : Reuss Voigt Hill
#
# Bulk Modulus (GPa) = 36.05253 40.57779 38.31516
# Shear Modulus (GPa) = 13.33415 17.19864 15.26639
#
# Velocity S-wave (km/s) = 3.01933 3.42905 3.23069
# Velocity P-wave (km/s) = 6.06660 6.58940 6.33340
#
# Compressibility (1/GPa) = 0.02773730
#
# Stress axis : x y z
#
# Youngs Moduli (GPa) = 64.90082 64.90082 35.61650
#
# Poissons Ratio (x) = 0.29653 0.19605
# Poissons Ratio (y) = 0.29653 0.19605
# Poissons Ratio (z) = 0.35725 0.35725
#
# Static dielectric constant tensor:
#      x y z
#    x 2.945660 0.000000 0.000000 
#    y 0.000000 2.945660 0.000000 
#    z 0.000000 0.000000 2.479470 
# 
# 
# High freq. dielectric constant tensor:
#      x y z
#    x 1.561960 0.000000 0.000000 
#    y 0.000000 1.561960 0.000000 
#    z 0.000000 0.000000 1.495540 
# 
# From -- ./inp_files/8470.got.cif
#   From: 2010.03.12/outbox.cif.g09.slc.cpg/sg193_5_cif.got.tgz:8470.got - 2010.04.01 12:20:39.
