data_PCOD8329649
_publ_section_title
;
Structure prediction by ZEFSAII (Michael W. Deem and Ramdas Pophale) SiO2 
 PCOD8329649
Probable space group: P 6/M C C
;
_chemical_formula_sum "Si O2"
_cell_formula_units_Z 80
_cell_length_a 18.534075
_cell_length_b 18.534075
_cell_length_c 15.258834
_cell_angle_alpha 90.000000
_cell_angle_beta 90.000000
_cell_angle_gamma 120.000000
_cell_volume 4539.351491
_symmetry_space_group_name_H-M "P 6/M C C"
_symmetry_group_IT_number 192
_symmetry_cell_setting 'hexagonal'
loop_
_space_group_symop_operation_xyz
x,y,z
x-y,x,z
-y,x-y,z
-x,-y,z
-x+y,-x,z
y,-x+y,z
x-y,-y,1/2-z
-x,-x+y,1/2-z
y,x,1/2-z
-y,-x,1/2-z
-x+y,y,1/2-z
x,x-y,1/2-z
-x,-y,-z
-x+y,-x,-z
y,-x+y,-z
x,y,-z
x-y,x,-z
-y,x-y,-z
-x+y,y,1/2+z
x,x-y,1/2+z
-y,-x,1/2+z
y,x,1/2+z
x-y,-y,1/2+z
-x,-x+y,1/2+z
loop_
_atom_site_type_symbol
_atom_site_label
_atom_site_fract_x
_atom_site_fract_y
_atom_site_fract_z
Si Si1 0.313714 0.998701 0.000000
Si Si2 0.666668 0.333334 0.103740
Si Si3 0.594618 0.030952 0.654135
Si Si4 0.214881 0.482997 0.656228
Si Si5 0.818495 0.637830 0.500000
O O1 0.221022 0.919046 0.000000
O O2 0.361435 0.994569 0.914346
O O3 0.305552 0.081318 0.000000
O O4 0.573611 0.292910 0.139600
O O5 0.666667 0.333334 0.000000
O O6 0.643027 0.130871 0.651106
O O7 0.500000 0.000000 0.627850
O O8 0.602151 0.000000 0.750000
O O9 0.225013 0.450026 0.750000
O O10 0.213941 0.419732 0.585136
#
# Coordination Sequence:
#
# PCOD8329649 Si02
#       5
#    12   8  24  24  12
#     4  10  21  38  56  79 104 138 170 222 268 323
#     4  12  25  35  52  76 113 145 190 221 271 298
#     4  10  22  34  54  77 103 141 181 221 268 309
#     4  11  23  37  53  78 105 148 182 226 268 307
#     4  10  22  38  60  79 108 136 179 218 270 328
#
# _framework density 17.623661999999999
#
# number of rings (size 3 to 8) (size 9 to 14) (size 15 to 20)
#    0.000    1.500    1.500    3.150   12.600    0.000 
#    0.000    0.000    0.000    0.300    0.000    0.000 
#    0.000    0.000    0.000    9.600    0.000    0.000 
#
# Total GULP energy -992383.549313 kJ/mol
# GULP energy per Si atom -12404.794366 kJ/mol
# Density = 1.758355 g / cm^3
# Si number density = 17.623662 Si / 1000 Ang^3
#
#
#
# Elastic Constant Matrix: (Units=GPa)
#
#
# Indices 1 2 3 4 5 6 
#
# 1 92.1605 72.6688 37.5248 -0.0003 0.0000 0.0039
# 2 72.6688 92.1592 37.5223 0.0005 -0.0003 -0.0032
# 3 37.5248 37.5223 128.3237 0.0001 -0.0001 -0.0009
# 4 -0.0003 0.0005 0.0001 12.2330 0.0000 0.0001
# 5 0.0000 -0.0003 -0.0001 0.0000 12.2322 0.0004
# 6 0.0039 -0.0032 -0.0009 0.0001 0.0004 9.7221
#
#
#
# Elastic Compliance Matrix: (Units=1/GPa)
#
#
# Indices 1 2 3 4 5 6 
#
# 1 0.029152 -0.022153 -0.002047 0.000002 -0.000001 -0.000019
# 2 -0.022153 0.029152 -0.002046 -0.000002 0.000001 0.000018
# 3 -0.002047 -0.002046 0.008990 0.000000 0.000000 0.000001
# 4 0.000002 -0.000002 0.000000 0.081746 0.000000 -0.000001
# 5 -0.000001 0.000001 0.000000 0.000000 0.081751 -0.000003
# 6 -0.000019 0.000018 0.000001 -0.000001 -0.000003 0.102859
#
#
# Mechanical properties :
#
#
# Convention : Reuss Voigt Hill
#
# Bulk Modulus (GPa) = 67.56305 67.56390 67.56348
# Shear Modulus (GPa) = 12.78522 17.83263 15.30892
#
# Velocity S-wave (km/s) = 2.69635 3.18442 2.95050
# Velocity P-wave (km/s) = 6.93639 7.20701 7.07300
#
# Compressibility (1/GPa) = 0.01480099
#
# Stress axis : x y z
#
# Youngs Moduli (GPa) = 34.30280 34.30287 111.23905
#
# Poissons Ratio (x) = 0.75993 0.22771
# Poissons Ratio (y) = 0.75992 0.22759
# Poissons Ratio (z) = 0.07022 0.07018
#
# Static dielectric constant tensor:
#      x y z
#    x 3.173110 0.000000 0.000000 
#    y 0.000000 3.173090 0.000000 
#    z 0.000000 0.000000 3.574110 
# 
# 
# High freq. dielectric constant tensor:
#      x y z
#    x 1.665170 0.000000 0.000000 
#    y 0.000000 1.665170 0.000000 
#    z 0.000000 0.000000 1.707580 
# 
# From -- ./inp_files/3960.got.cif
#   From: 2010.03.12/outbox.cif.g09.slc.cpg/sg192_2_cif.got.tgz:3960.got - 2010.04.01 12:16:15.
