data_PCOD8329464
_publ_section_title
;
Structure prediction by ZEFSAII (Michael W. Deem and Ramdas Pophale) SiO2 
 PCOD8329464
Probable space group: P 6/M C C
;
_chemical_formula_sum "Si O2"
_cell_formula_units_Z 144
_cell_length_a 31.306042
_cell_length_b 31.306042
_cell_length_c 8.768139
_cell_angle_alpha 90.000000
_cell_angle_beta 90.000000
_cell_angle_gamma 120.000000
_cell_volume 7442.080866
_symmetry_space_group_name_H-M "P 6/M C C"
_symmetry_group_IT_number 192
_symmetry_cell_setting 'hexagonal'
loop_
_space_group_symop_operation_xyz
x,y,z
x-y,x,z
-y,x-y,z
-x,-y,z
-x+y,-x,z
y,-x+y,z
x-y,-y,1/2-z
-x,-x+y,1/2-z
y,x,1/2-z
-y,-x,1/2-z
-x+y,y,1/2-z
x,x-y,1/2-z
-x,-y,-z
-x+y,-x,-z
y,-x+y,-z
x,y,-z
x-y,x,-z
-y,x-y,-z
-x+y,y,1/2+z
x,x-y,1/2+z
-y,-x,1/2+z
y,x,1/2+z
x-y,-y,1/2+z
-x,-x+y,1/2+z
loop_
_atom_site_type_symbol
_atom_site_label
_atom_site_fract_x
_atom_site_fract_y
_atom_site_fract_z
Si Si1 0.667039 0.242114 0.680782
Si Si2 0.334786 0.849092 0.178173
Si Si3 0.479512 0.429472 0.178115
Si Si4 0.707336 0.757985 0.820666
Si Si5 0.387126 0.239317 0.819706
Si Si6 0.804598 0.856075 0.819570
O O1 0.720317 0.279684 0.750000
O O2 0.627257 0.254513 0.750000
O O3 0.667972 0.247742 0.500000
O O4 0.653382 0.186958 0.724461
O O5 0.375373 0.905249 0.213750
O O6 0.283016 0.842756 0.232696
O O7 0.334558 0.836566 0.000000
O O8 0.435102 0.435102 0.250000
O O9 0.531404 0.468597 0.250000
O O10 0.481536 0.439887 0.000000
O O11 0.715231 0.715231 0.750000
O O12 0.655598 0.750542 0.759235
O O13 0.750850 0.811833 0.770119
O O14 0.706431 0.751865 0.000000
O O15 0.377441 0.188721 0.750000
O O16 0.384309 0.234288 0.000000
O O17 0.846427 0.846427 0.750000
O O18 0.812429 0.906215 0.750000
O O19 0.810487 0.860872 0.000000
#
# Coordination Sequence:
#
# PCOD8329464 Si02
#       6
#    24  24  24  24  24  24
#     4  12  25  42  64  89 117 147 183 227 277 333
#     4  10  22  39  58  83 115 150 189 232 276 326
#     4  10  20  35  56  81 110 143 182 229 277 327
#     4   9  19  34  53  78 108 142 181 227 274 320
#     4  10  21  37  55  78 110 146 184 225 269 320
#     4  10  19  32  51  76 105 138 178 223 272 323
#
# _framework density 19.349428
#
# number of rings (size 3 to 8) (size 9 to 14) (size 15 to 20)
#    0.000    1.833    0.000    4.667    0.000    6.667 
#    0.000    0.000    0.000    0.167    0.000    1.167 
#    0.000    0.000    0.000    0.000    0.000    0.000 
#
# Total GULP energy -1786233.557086 kJ/mol
# GULP energy per Si atom -12404.399702 kJ/mol
# Density = 1.930539 g / cm^3
# Si number density = 19.349428 Si / 1000 Ang^3
#
#
#
# Elastic Constant Matrix: (Units=GPa)
#
#
# Indices 1 2 3 4 5 6 
#
# 1 108.6082 35.9695 40.0757 0.0000 0.0000 0.0000
# 2 35.9695 108.6082 40.0757 0.0000 0.0000 0.0000
# 3 40.0757 40.0757 86.7305 0.0000 0.0000 0.0000
# 4 0.0000 0.0000 0.0000 25.9394 0.0000 0.0000
# 5 0.0000 0.0000 0.0000 0.0000 25.9394 0.0000
# 6 0.0000 0.0000 0.0000 0.0000 0.0000 36.3193
#
#
#
# Elastic Compliance Matrix: (Units=1/GPa)
#
#
# Indices 1 2 3 4 5 6 
#
# 1 0.011533 -0.002234 -0.004297 0.000000 0.000000 0.000000
# 2 -0.002234 0.011533 -0.004297 0.000000 0.000000 0.000000
# 3 -0.004297 -0.004297 0.015501 0.000000 0.000000 0.000000
# 4 0.000000 0.000000 0.000000 0.038551 0.000000 0.000000
# 5 0.000000 0.000000 0.000000 0.000000 0.038551 0.000000
# 6 0.000000 0.000000 0.000000 0.000000 0.000000 0.027534
#
#
# Mechanical properties :
#
#
# Convention : Reuss Voigt Hill
#
# Bulk Modulus (GPa) = 59.13158 59.57652 59.35405
# Shear Modulus (GPa) = 29.32647 30.16135 29.74391
#
# Velocity S-wave (km/s) = 3.89733 3.95241 3.92497
# Velocity P-wave (km/s) = 7.13291 7.18926 7.16114
#
# Compressibility (1/GPa) = 0.01691144
#
# Stress axis : x y z
#
# Youngs Moduli (GPa) = 86.70969 86.70969 64.51317
#
# Poissons Ratio (x) = 0.19371 0.27719
# Poissons Ratio (y) = 0.19371 0.27719
# Poissons Ratio (z) = 0.37256 0.37256
#
# Static dielectric constant tensor:
#      x y z
#    x 3.588860 0.000000 0.000000 
#    y 0.000000 3.588860 0.000000 
#    z 0.000000 0.000000 3.541220 
# 
# 
# High freq. dielectric constant tensor:
#      x y z
#    x 1.757770 0.000000 0.000000 
#    y 0.000000 1.757770 0.000000 
#    z 0.000000 0.000000 1.753970 
# 
# From -- ./inp_files/1214.got.cif
#   From: 2010.03.12/outbox.cif.g09.slc.cpg/sg192_1_cif.got.tgz:1214.got - 2010.04.01 12:16:15.
