data_PCOD8329424
_publ_section_title
;
Structure prediction by ZEFSAII (Michael W. Deem and Ramdas Pophale) SiO2 
 PCOD8329424
Probable space group: P 6/M C C
;
_chemical_formula_sum "Si O2"
_cell_formula_units_Z 128
_cell_length_a 24.422734
_cell_length_b 24.422734
_cell_length_c 16.746372
_cell_angle_alpha 90.000000
_cell_angle_beta 90.000000
_cell_angle_gamma 120.000000
_cell_volume 8650.474390
_symmetry_space_group_name_H-M "P 6/M C C"
_symmetry_group_IT_number 192
_symmetry_cell_setting 'hexagonal'
loop_
_space_group_symop_operation_xyz
x,y,z
x-y,x,z
-y,x-y,z
-x,-y,z
-x+y,-x,z
y,-x+y,z
x-y,-y,1/2-z
-x,-x+y,1/2-z
y,x,1/2-z
-y,-x,1/2-z
-x+y,y,1/2-z
x,x-y,1/2-z
-x,-y,-z
-x+y,-x,-z
y,-x+y,-z
x,y,-z
x-y,x,-z
-y,x-y,-z
-x+y,y,1/2+z
x,x-y,1/2+z
-y,-x,1/2+z
y,x,1/2+z
x-y,-y,1/2+z
-x,-x+y,1/2+z
loop_
_atom_site_type_symbol
_atom_site_label
_atom_site_fract_x
_atom_site_fract_y
_atom_site_fract_z
Si Si1 0.224500 0.652193 0.817411
Si Si2 0.341549 0.916406 0.909471
Si Si3 0.666668 0.333334 0.406964
Si Si4 0.438852 0.895478 0.409477
Si Si5 0.410891 0.374283 0.328234
Si Si6 0.157300 0.434396 0.245256
O O1 0.250915 0.625458 0.750000
O O2 0.283389 0.688467 0.878085
O O3 0.168989 0.592362 0.861327
O O4 0.202007 0.697583 0.779504
O O5 0.411212 0.925005 0.904429
O O6 0.294945 0.862673 0.847426
O O7 0.352968 0.985991 0.884222
O O8 0.313982 0.898903 0.000000
O O9 0.666667 0.333334 0.500000
O O10 0.414555 0.881700 0.500000
O O11 0.418295 0.942243 0.372337
O O12 0.412994 0.412994 0.250000
O O13 0.400712 0.305460 0.302614
O O14 0.200224 0.400448 0.250000
#
# Coordination Sequence:
#
# PCOD8329424 Si02
#       6
#    24  24   8  24  24  24
#     4  11  20  34  47  59  78 110 142 173 213 270
#     4  10  19  32  49  68  88 109 139 181 225 263
#     4  12  25  35  46  60  79 107 148 186 217 266
#     4  10  19  30  45  66  87 103 132 179 226 264
#     4   9  19  30  48  67  87 111 140 171 213 267
#     4  10  20  34  48  66  86 116 142 170 216 275
#
# _framework density 14.796877
#
# number of rings (size 3 to 8) (size 9 to 14) (size 15 to 20)
#    0.000    1.875    1.875    3.375    0.000    3.750 
#    0.000    4.688    0.000    0.000    0.000    0.000 
#    0.000    0.000    0.000    0.000    0.000    0.000 
#
# Total GULP energy -1586176.089185 kJ/mol
# GULP energy per Si atom -12392.000697 kJ/mol
# Density = 1.476320 g / cm^3
# Si number density = 14.796877 Si / 1000 Ang^3
#
#
#
# Elastic Constant Matrix: (Units=GPa)
#
#
# Indices 1 2 3 4 5 6 
#
# 1 54.4766 30.3669 34.5331 0.0000 -0.0001 -0.0001
# 2 30.3669 54.4765 34.5336 -0.0001 0.0001 0.0001
# 3 34.5331 34.5336 110.4038 0.0000 -0.0001 0.0000
# 4 0.0000 -0.0001 0.0000 13.9187 0.0000 -0.0001
# 5 -0.0001 0.0001 -0.0001 0.0000 13.9186 0.0000
# 6 -0.0001 0.0001 0.0000 -0.0001 0.0000 12.0557
#
#
#
# Elastic Compliance Matrix: (Units=1/GPa)
#
#
# Indices 1 2 3 4 5 6 
#
# 1 0.028645 -0.012832 -0.004946 0.000000 0.000000 0.000000
# 2 -0.012832 0.028645 -0.004946 0.000000 0.000000 0.000000
# 3 -0.004946 -0.004946 0.012152 0.000000 0.000000 0.000000
# 4 0.000000 0.000000 0.000000 0.071846 0.000000 0.000000
# 5 0.000000 0.000000 0.000000 0.000000 0.071846 0.000000
# 6 0.000000 0.000000 0.000000 0.000000 0.000000 0.082948
#
#
# Mechanical properties :
#
#
# Convention : Reuss Voigt Hill
#
# Bulk Modulus (GPa) = 41.67880 46.46935 44.07407
# Shear Modulus (GPa) = 14.30499 15.97350 15.13924
#
# Velocity S-wave (km/s) = 3.11265 3.28917 3.20212
# Velocity P-wave (km/s) = 6.41456 6.77479 6.59713
#
# Compressibility (1/GPa) = 0.02399301
#
# Stress axis : x y z
#
# Youngs Moduli (GPa) = 34.91027 34.90996 82.29199
#
# Poissons Ratio (x) = 0.44797 0.40701
# Poissons Ratio (y) = 0.44798 0.40704
# Poissons Ratio (z) = 0.17266 0.17267
#
# Static dielectric constant tensor:
#      x y z
#    x 2.770800 0.000000 0.000000 
#    y 0.000000 2.770800 0.000000 
#    z 0.000000 0.000000 3.178270 
# 
# 
# High freq. dielectric constant tensor:
#      x y z
#    x 1.530240 0.000000 0.000000 
#    y 0.000000 1.530240 0.000000 
#    z 0.000000 0.000000 1.587870 
# 
# From -- ./inp_files/4292.got.cif
#   From: 2010.03.12/outbox.cif.g09.slc.cpg/sg192_3_cif.got.tgz:4292.got - 2010.04.01 12:16:15.
