data_PCOD8329488
_publ_section_title
;
Structure prediction by ZEFSAII (Michael W. Deem and Ramdas Pophale) SiO2 
 PCOD8329488
Probable space group: P 6/M C C
;
_chemical_formula_sum "Si O2"
_cell_formula_units_Z 144
_cell_length_a 31.142706
_cell_length_b 31.142706
_cell_length_c 8.680369
_cell_angle_alpha 90.000000
_cell_angle_beta 90.000000
_cell_angle_gamma 120.000000
_cell_volume 7290.906197
_symmetry_space_group_name_H-M "P 6/M C C"
_symmetry_group_IT_number 192
_symmetry_cell_setting 'hexagonal'
loop_
_space_group_symop_operation_xyz
x,y,z
x-y,x,z
-y,x-y,z
-x,-y,z
-x+y,-x,z
y,-x+y,z
x-y,-y,1/2-z
-x,-x+y,1/2-z
y,x,1/2-z
-y,-x,1/2-z
-x+y,y,1/2-z
x,x-y,1/2-z
-x,-y,-z
-x+y,-x,-z
y,-x+y,-z
x,y,-z
x-y,x,-z
-y,x-y,-z
-x+y,y,1/2+z
x,x-y,1/2+z
-y,-x,1/2+z
y,x,1/2+z
x-y,-y,1/2+z
-x,-x+y,1/2+z
loop_
_atom_site_type_symbol
_atom_site_label
_atom_site_fract_x
_atom_site_fract_y
_atom_site_fract_z
Si Si1 0.758177 0.333072 0.182594
Si Si2 0.850488 0.240857 0.182921
Si Si3 0.571543 0.050973 0.819810
Si Si4 0.667193 0.516184 0.319141
Si Si5 0.052011 0.854513 0.817377
Si Si6 0.705537 0.949002 0.181020
O O1 0.721042 0.278959 0.250000
O O2 0.743368 0.371684 0.250000
O O3 0.813562 0.348678 0.233413
O O4 0.754293 0.332365 0.000000
O O5 0.812619 0.187382 0.250000
O O6 0.838464 0.280359 0.257317
O O7 0.904781 0.252301 0.235230
O O8 0.845252 0.241193 0.000000
O O9 0.532124 0.064248 0.750000
O O10 0.626423 0.094624 0.779708
O O11 0.564751 0.000000 0.750000
O O12 0.562041 0.043928 0.000000
O O13 0.670539 0.508483 0.500000
O O14 0.094449 0.905552 0.750000
O O15 0.061259 0.810169 0.761265
O O16 0.000000 0.845190 0.750000
O O17 0.051477 0.857921 0.000000
O O18 0.712701 0.000000 0.250000
O O19 0.707894 0.954327 0.000000
#
# Coordination Sequence:
#
# PCOD8329488 Si02
#       6
#    24  24  24  24  24  24
#     4  12  25  43  66  92 121 153 189 234 284 340
#     4  11  23  39  58  82 113 152 192 234 282 336
#     4  10  21  37  60  86 115 148 187 233 283 335
#     4  11  24  41  60  86 117 154 195 237 284 337
#     4  10  19  33  53  79 109 143 183 230 280 334
#     4   9  20  36  56  82 112 146 187 233 284 335
#
# _framework density 19.750630999999998
#
# number of rings (size 3 to 8) (size 9 to 14) (size 15 to 20)
#    0.000    1.500    0.000    5.667    0.000    6.667 
#    0.000    3.333    0.000    0.167    0.000    1.167 
#    0.000    0.000    0.000    0.000    0.000    0.000 
#
# Total GULP energy -1786444.024879 kJ/mol
# GULP energy per Si atom -12405.861284 kJ/mol
# Density = 1.970568 g / cm^3
# Si number density = 19.750631 Si / 1000 Ang^3
#
#
#
# Elastic Constant Matrix: (Units=GPa)
#
#
# Indices 1 2 3 4 5 6 
#
# 1 100.0042 34.8741 43.4353 0.0000 0.0000 0.0000
# 2 34.8741 100.0042 43.4353 0.0000 0.0000 0.0000
# 3 43.4353 43.4353 112.3666 0.0000 0.0000 0.0000
# 4 0.0000 0.0000 0.0000 28.3819 0.0000 0.0000
# 5 0.0000 0.0000 0.0000 0.0000 28.3819 0.0000
# 6 0.0000 0.0000 0.0000 0.0000 0.0000 32.5650
#
#
#
# Elastic Compliance Matrix: (Units=1/GPa)
#
#
# Indices 1 2 3 4 5 6 
#
# 1 0.012613 -0.002741 -0.003816 0.000000 0.000000 0.000000
# 2 -0.002741 0.012613 -0.003816 0.000000 0.000000 0.000000
# 3 -0.003816 -0.003816 0.011850 0.000000 0.000000 0.000000
# 4 0.000000 0.000000 0.000000 0.035234 0.000000 0.000000
# 5 0.000000 0.000000 0.000000 0.000000 0.035234 0.000000
# 6 0.000000 0.000000 0.000000 0.000000 0.000000 0.030708
#
#
# Mechanical properties :
#
#
# Convention : Reuss Voigt Hill
#
# Bulk Modulus (GPa) = 61.23930 61.76272 61.50101
# Shear Modulus (GPa) = 30.40633 30.57446 30.49039
#
# Velocity S-wave (km/s) = 3.92792 3.93876 3.93334
# Velocity P-wave (km/s) = 7.18644 7.21279 7.19963
#
# Compressibility (1/GPa) = 0.01632938
#
# Stress axis : x y z
#
# Youngs Moduli (GPa) = 79.28417 79.28417 84.39136
#
# Poissons Ratio (x) = 0.21732 0.32203
# Poissons Ratio (y) = 0.21732 0.32203
# Poissons Ratio (z) = 0.30254 0.30254
#
# Static dielectric constant tensor:
#      x y z
#    x 3.652680 0.000000 0.000000 
#    y 0.000000 3.652680 0.000000 
#    z 0.000000 0.000000 3.665350 
# 
# 
# High freq. dielectric constant tensor:
#      x y z
#    x 1.773510 0.000000 0.000000 
#    y 0.000000 1.773510 0.000000 
#    z 0.000000 0.000000 1.782300 
# 
# From -- ./inp_files/1149.got.cif
#   From: 2010.03.12/outbox.cif.g09.slc.cpg/sg192_1_cif.got.tgz:1149.got - 2010.04.01 12:16:15.
