data_PCOD8329832
_publ_section_title
;
Structure prediction by ZEFSAII (Michael W. Deem and Ramdas Pophale) SiO2 
 PCOD8329832
Probable space group: P 63/M C M
;
_chemical_formula_sum "Si O2"
_cell_formula_units_Z 144
_cell_length_a 20.504456
_cell_length_b 20.504456
_cell_length_c 22.116496
_cell_angle_alpha 90.000000
_cell_angle_beta 90.000000
_cell_angle_gamma 120.000000
_cell_volume 8052.735899
_symmetry_space_group_name_H-M "P 63/M C M"
_symmetry_group_IT_number 193
_symmetry_cell_setting 'hexagonal'
loop_
_space_group_symop_operation_xyz
x,y,z
x-y,x,1/2+z
-y,x-y,z
-x,-y,1/2+z
-x+y,-x,z
y,-x+y,1/2+z
x-y,-y,1/2-z
-x,-x+y,1/2-z
y,x,1/2-z
-y,-x,-z
-x+y,y,-z
x,x-y,-z
-x,-y,-z
-x+y,-x,1/2-z
y,-x+y,-z
x,y,1/2-z
x-y,x,-z
-y,x-y,1/2-z
-x+y,y,1/2+z
x,x-y,1/2+z
-y,-x,1/2+z
y,x,z
x-y,-y,z
-x,-x+y,z
loop_
_atom_site_type_symbol
_atom_site_label
_atom_site_fract_x
_atom_site_fract_y
_atom_site_fract_z
Si Si1 0.915511 0.084450 0.071619
Si Si2 0.911753 0.322932 0.448614
Si Si3 0.464916 0.910827 0.874280
Si Si4 0.840769 0.171828 0.374468
Si Si5 0.672161 0.910220 0.750000
Si Si6 0.522605 0.910495 0.750000
Si Si7 0.675943 0.089025 0.088074
O O1 0.865313 0.120366 0.089594
O O2 0.000000 0.133312 0.097902
O O3 0.877931 0.000000 0.098050
O O4 0.917940 0.082061 0.000000
O O5 0.887835 0.383003 0.426293
O O6 0.868447 0.249416 0.408712
O O7 0.889331 0.303058 0.518136
O O8 0.000000 0.355388 0.438030
O O9 0.470736 0.877704 0.809480
O O10 0.377887 0.878609 0.891010
O O11 0.505462 0.000000 0.870518
O O12 0.875363 0.185132 0.307899
O O13 0.750368 0.128319 0.371150
O O14 0.584188 0.884252 0.750000
O O15 0.724633 0.000000 0.750000
O O16 0.564681 0.000000 0.750000
O O17 0.635723 0.000000 0.097603
#
# Coordination Sequence:
#
# PCOD8329832 Si02
#       7
#    24  24  24  24  12  12  24
#     4  10  20  35  55  79 109 148 193 240 292 351
#     4  10  18  32  55  80 107 139 180 227 274 332
#     4   9  17  31  53  78 104 135 172 214 261 316
#     4  12  22  34  54  80 111 144 185 236 288 337
#     4  11  22  37  55  79 107 137 184 237 281 329
#     4   9  16  31  54  77  99 129 174 219 251 299
#     4  10  21  34  50  80 116 144 172 217 284 345
#
# _framework density 17.882121000000001
#
# number of rings (size 3 to 8) (size 9 to 14) (size 15 to 20)
#    0.000    1.833    1.667    4.167    0.000    6.000 
#    0.000    2.500    0.000    0.667    0.000    3.500 
#    0.000    0.000    0.000    0.000    0.000    0.000 
#
# Total GULP energy -1785860.539161 kJ/mol
# GULP energy per Si atom -12401.809300 kJ/mol
# Density = 1.784142 g / cm^3
# Si number density = 17.882121 Si / 1000 Ang^3
#
#
#
# Elastic Constant Matrix: (Units=GPa)
#
#
# Indices 1 2 3 4 5 6 
#
# 1 85.2469 32.1128 16.6094 0.0000 0.0000 0.0000
# 2 32.1128 85.2469 16.6094 0.0000 0.0000 0.0000
# 3 16.6094 16.6094 62.7678 0.0000 0.0000 0.0000
# 4 0.0000 0.0000 0.0000 18.5433 0.0000 0.0000
# 5 0.0000 0.0000 0.0000 0.0000 18.5433 0.0000
# 6 0.0000 0.0000 0.0000 0.0000 0.0000 26.5671
#
#
#
# Elastic Compliance Matrix: (Units=1/GPa)
#
#
# Indices 1 2 3 4 5 6 
#
# 1 0.014015 -0.004805 -0.002437 0.000000 0.000000 0.000000
# 2 -0.004805 0.014015 -0.002437 0.000000 0.000000 0.000000
# 3 -0.002437 -0.002437 0.017222 0.000000 0.000000 0.000000
# 4 0.000000 0.000000 0.000000 0.053928 0.000000 0.000000
# 5 0.000000 0.000000 0.000000 0.000000 0.053928 0.000000
# 6 0.000000 0.000000 0.000000 0.000000 0.000000 0.037641
#
#
# Mechanical properties :
#
#
# Convention : Reuss Voigt Hill
#
# Bulk Modulus (GPa) = 38.61924 40.43607 39.52765
# Shear Modulus (GPa) = 22.85833 23.92610 23.39221
#
# Velocity S-wave (km/s) = 3.57918 3.66182 3.62074
# Velocity P-wave (km/s) = 6.22287 6.36712 6.29541
#
# Compressibility (1/GPa) = 0.02589383
#
# Stress axis : x y z
#
# Youngs Moduli (GPa) = 71.34966 71.34966 58.06652
#
# Poissons Ratio (x) = 0.34282 0.14153
# Poissons Ratio (y) = 0.34282 0.14153
# Poissons Ratio (z) = 0.17390 0.17390
#
# Static dielectric constant tensor:
#      x y z
#    x 3.309530 0.000000 0.000000 
#    y 0.000000 3.309530 0.000000 
#    z 0.000000 0.000000 3.433640 
# 
# 
# High freq. dielectric constant tensor:
#      x y z
#    x 1.680700 0.000000 0.000000 
#    y 0.000000 1.680700 0.000000 
#    z 0.000000 0.000000 1.690230 
# 
# From -- ./inp_files/6638.got.cif
#   From: 2010.03.12/outbox.cif.g09.slc.cpg/sg193_4_cif.got.tgz:6638.got - 2010.04.01 12:20:39.
