data_PCOD8329404
_publ_section_title
;
Structure prediction by ZEFSAII (Michael W. Deem and Ramdas Pophale) SiO2 
 PCOD8329404
Probable space group: P 6/M C C
;
_chemical_formula_sum "Si O2"
_cell_formula_units_Z 132
_cell_length_a 16.886465
_cell_length_b 16.886465
_cell_length_c 25.123543
_cell_angle_alpha 90.000000
_cell_angle_beta 90.000000
_cell_angle_gamma 120.000000
_cell_volume 6204.245938
_symmetry_space_group_name_H-M "P 6/M C C"
_symmetry_group_IT_number 192
_symmetry_cell_setting 'hexagonal'
loop_
_space_group_symop_operation_xyz
x,y,z
x-y,x,z
-y,x-y,z
-x,-y,z
-x+y,-x,z
y,-x+y,z
x-y,-y,1/2-z
-x,-x+y,1/2-z
y,x,1/2-z
-y,-x,1/2-z
-x+y,y,1/2-z
x,x-y,1/2-z
-x,-y,-z
-x+y,-x,-z
y,-x+y,-z
x,y,-z
x-y,x,-z
-y,x-y,-z
-x+y,y,1/2+z
x,x-y,1/2+z
-y,-x,1/2+z
y,x,1/2+z
x-y,-y,1/2+z
-x,-x+y,1/2+z
loop_
_atom_site_type_symbol
_atom_site_label
_atom_site_fract_x
_atom_site_fract_y
_atom_site_fract_z
Si Si1 0.150226 0.663653 0.633660
Si Si2 0.631254 0.220003 0.500000
Si Si3 0.915447 0.241630 0.285276
Si Si4 0.165508 0.199031 0.616382
Si Si5 0.655940 0.992732 0.562393
Si Si6 0.339910 0.838458 0.392495
O O1 0.115694 0.695714 0.683895
O O2 0.252909 0.742736 0.621502
O O3 0.145352 0.567099 0.648317
O O4 0.088216 0.646304 0.581198
O O5 0.737664 0.301940 0.500000
O O6 0.613517 0.159856 0.448366
O O7 0.832233 0.167768 0.250000
O O8 0.952374 0.192242 0.324452
O O9 0.000000 0.311684 0.250000
O O10 0.172334 0.109834 0.606922
O O11 0.230429 0.271971 0.572401
O O12 0.654088 0.014911 0.500000
O O13 0.683818 0.080248 0.601830
#
# Coordination Sequence:
#
# PCOD8329404 Si02
#       6
#    24  12  24  24  24  24
#     4  11  26  41  69  97 132 175 227 279 336 399
#     4  10  18  34  61  99 129 176 219 277 328 384
#     4  11  23  45  75  99 131 169 217 281 351 405
#     4  11  23  42  67 100 134 174 223 279 340 409
#     4  11  25  39  62  97 140 181 226 276 335 399
#     4  12  22  41  62  97 138 176 226 273 329 399
#
# _framework density 21.275753000000002
#
# number of rings (size 3 to 8) (size 9 to 14) (size 15 to 20)
#    0.182    0.727    4.545    3.273    5.091    2.909 
#    0.000    0.909    4.000    1.091    0.000    0.000 
#    0.000    0.000    0.000    0.000    0.000    0.000 
#
# Total GULP energy -1636422.458984 kJ/mol
# GULP energy per Si atom -12397.139841 kJ/mol
# Density = 2.122733 g / cm^3
# Si number density = 21.275753 Si / 1000 Ang^3
#
#
#
# Elastic Constant Matrix: (Units=GPa)
#
#
# Indices 1 2 3 4 5 6 
#
# 1 106.2957 16.2562 34.4837 0.0000 0.0000 0.0000
# 2 16.2562 106.2957 34.4837 0.0000 0.0000 0.0000
# 3 34.4837 34.4837 81.2805 0.0000 0.0000 0.0000
# 4 0.0000 0.0000 0.0000 28.9355 0.0000 0.0000
# 5 0.0000 0.0000 0.0000 0.0000 28.9355 0.0000
# 6 0.0000 0.0000 0.0000 0.0000 0.0000 45.0197
#
#
#
# Elastic Compliance Matrix: (Units=1/GPa)
#
#
# Indices 1 2 3 4 5 6 
#
# 1 0.010913 -0.000194 -0.004548 0.000000 0.000000 0.000000
# 2 -0.000194 0.010913 -0.004548 0.000000 0.000000 0.000000
# 3 -0.004548 -0.004548 0.016162 0.000000 0.000000 0.000000
# 4 0.000000 0.000000 0.000000 0.034560 0.000000 0.000000
# 5 0.000000 0.000000 0.000000 0.000000 0.034560 0.000000
# 6 0.000000 0.000000 0.000000 0.000000 0.000000 0.022212
#
#
# Mechanical properties :
#
#
# Convention : Reuss Voigt Hill
#
# Bulk Modulus (GPa) = 51.52144 51.59100 51.55622
# Shear Modulus (GPa) = 32.39052 34.48803 33.43928
#
# Velocity S-wave (km/s) = 3.90605 4.03053 3.96878
# Velocity P-wave (km/s) = 6.67919 6.77950 6.72953
#
# Compressibility (1/GPa) = 0.01940940
#
# Stress axis : x y z
#
# Youngs Moduli (GPa) = 91.63692 91.63692 61.87447
#
# Poissons Ratio (x) = 0.01774 0.28138
# Poissons Ratio (y) = 0.01774 0.28138
# Poissons Ratio (z) = 0.41673 0.41673
#
# Static dielectric constant tensor:
#      x y z
#    x 3.939370 0.000000 0.000000 
#    y 0.000000 3.939370 0.000000 
#    z 0.000000 0.000000 3.445890 
# 
# 
# High freq. dielectric constant tensor:
#      x y z
#    x 1.845960 0.000000 0.000000 
#    y 0.000000 1.845960 0.000000 
#    z 0.000000 0.000000 1.812310 
# 
# From -- ./inp_files/5800.got.cif
#   From: 2010.03.12/outbox.cif.g09.slc.cpg/sg192_3_cif.got.tgz:5800.got - 2010.04.01 12:16:15.
