data_PCOD8329361
_publ_section_title
;
Structure prediction by ZEFSAII (Michael W. Deem and Ramdas Pophale) SiO2 
 PCOD8329361
Probable space group: P 6/M C C
;
_chemical_formula_sum "Si O2"
_cell_formula_units_Z 168
_cell_length_a 21.601170
_cell_length_b 21.601170
_cell_length_c 24.339129
_cell_angle_alpha 90.000000
_cell_angle_beta 90.000000
_cell_angle_gamma 120.000000
_cell_volume 9835.358934
_symmetry_space_group_name_H-M "P 6/M C C"
_symmetry_group_IT_number 192
_symmetry_cell_setting 'hexagonal'
loop_
_space_group_symop_operation_xyz
x,y,z
x-y,x,z
-y,x-y,z
-x,-y,z
-x+y,-x,z
y,-x+y,z
x-y,-y,1/2-z
-x,-x+y,1/2-z
y,x,1/2-z
-y,-x,1/2-z
-x+y,y,1/2-z
x,x-y,1/2-z
-x,-y,-z
-x+y,-x,-z
y,-x+y,-z
x,y,-z
x-y,x,-z
-y,x-y,-z
-x+y,y,1/2+z
x,x-y,1/2+z
-y,-x,1/2+z
y,x,1/2+z
x-y,-y,1/2+z
-x,-x+y,1/2+z
loop_
_atom_site_type_symbol
_atom_site_label
_atom_site_fract_x
_atom_site_fract_y
_atom_site_fract_z
Si Si1 0.222526 0.917859 0.938255
Si Si2 0.192059 0.266368 0.222288
Si Si3 0.544175 0.458763 0.437882
Si Si4 0.343530 0.915526 0.629636
Si Si5 0.084905 0.659352 0.368839
Si Si6 0.594693 0.914725 0.752202
Si Si7 0.713319 0.790876 0.401319
O O1 0.264501 0.894719 0.895551
O O2 0.137750 0.861904 0.931985
O O3 0.242594 0.000401 0.930696
O O4 0.245657 0.911535 0.000000
O O5 0.230478 0.230478 0.250000
O O6 0.115269 0.230537 0.250000
O O7 0.236683 0.349865 0.238112
O O8 0.184769 0.251694 0.158074
O O9 0.500000 0.500000 0.437614
O O10 0.561741 0.447186 0.500000
O O11 0.497237 0.381404 0.409310
O O12 0.618604 0.502320 0.404700
O O13 0.342454 0.887994 0.692512
O O14 0.266562 0.894967 0.604010
O O15 0.389020 0.000454 0.631918
O O16 0.115740 0.670116 0.306170
O O17 0.635253 0.000000 0.750000
#
# Coordination Sequence:
#
# PCOD8329361 Si02
#       7
#    24  24  24  24  24  24  24
#     4  11  21  33  48  67  93 126 163 203 247 297
#     4  10  17  28  46  66  87 114 148 191 247 305
#     4   9  16  25  38  58  86 119 149 174 208 258
#     4   8  16  27  42  63  88 117 146 182 227 274
#     4   9  16  27  42  62  88 117 148 184 225 272
#     4   8  14  25  39  58  83 110 142 177 219 270
#     4  10  20  33  48  69  94 122 159 202 249 300
#
# _framework density 17.081227999999999
#
# number of rings (size 3 to 8) (size 9 to 14) (size 15 to 20)
#    0.000    2.714    0.000    5.143    0.000    4.571 
#    0.000    2.857    0.000    0.429    0.000    3.000 
#    1.429    0.000    0.857    0.000    6.286    0.000 
#
# Total GULP energy -2081323.660976 kJ/mol
# GULP energy per Si atom -12388.831315 kJ/mol
# Density = 1.704235 g / cm^3
# Si number density = 17.081228 Si / 1000 Ang^3
#
#
#
# Elastic Constant Matrix: (Units=GPa)
#
#
# Indices 1 2 3 4 5 6 
#
# 1 74.0655 1.2502 32.3639 0.0000 0.0000 0.0000
# 2 1.2502 74.0655 32.3639 0.0000 0.0000 0.0000
# 3 32.3639 32.3639 149.1819 0.0000 0.0000 0.0000
# 4 0.0000 0.0000 0.0000 21.3384 0.0000 0.0000
# 5 0.0000 0.0000 0.0000 0.0000 21.3384 0.0000
# 6 0.0000 0.0000 0.0000 0.0000 0.0000 36.4076
#
#
#
# Elastic Compliance Matrix: (Units=1/GPa)
#
#
# Indices 1 2 3 4 5 6 
#
# 1 0.015027 0.001293 -0.003541 0.000000 0.000000 0.000000
# 2 0.001293 0.015027 -0.003541 0.000000 0.000000 0.000000
# 3 -0.003541 -0.003541 0.008239 0.000000 0.000000 0.000000
# 4 0.000000 0.000000 0.000000 0.046864 0.000000 0.000000
# 5 0.000000 0.000000 0.000000 0.000000 0.046864 0.000000
# 6 0.000000 0.000000 0.000000 0.000000 0.000000 0.027467
#
#
# Mechanical properties :
#
#
# Convention : Reuss Voigt Hill
#
# Bulk Modulus (GPa) = 37.42833 47.69654 42.56243
# Shear Modulus (GPa) = 27.78257 31.23920 29.51089
#
# Velocity S-wave (km/s) = 4.03736 4.28116 4.16105
# Velocity P-wave (km/s) = 6.61009 7.24029 6.93235
#
# Compressibility (1/GPa) = 0.02671773
#
# Stress axis : x y z
#
# Youngs Moduli (GPa) = 66.54764 66.54764 121.36777
#
# Poissons Ratio (x) = -0.08608 0.42971
# Poissons Ratio (y) = -0.08608 0.42971
# Poissons Ratio (z) = 0.23562 0.23562
#
# Static dielectric constant tensor:
#      x y z
#    x 2.995810 0.000000 0.000000 
#    y 0.000000 2.995810 0.000000 
#    z 0.000000 0.000000 3.560230 
# 
# 
# High freq. dielectric constant tensor:
#      x y z
#    x 1.615450 0.000000 0.000000 
#    y 0.000000 1.615450 0.000000 
#    z 0.000000 0.000000 1.685160 
# 
# From -- ./inp_files/6148.got.cif
#   From: 2010.03.12/outbox.cif.g09.slc.cpg/sg192_4_cif.got.tgz:6148.got - 2010.04.01 12:16:15.
