data_PCOD8329164
_publ_section_title
;
Structure prediction by ZEFSAII (Michael W. Deem and Ramdas Pophale) SiO2 
 PCOD8329164
Probable space group: P 6/M M M
;
_chemical_formula_sum "Si O2"
_cell_formula_units_Z 102
_cell_length_a 27.411197
_cell_length_b 27.411197
_cell_length_c 7.675232
_cell_angle_alpha 90.000000
_cell_angle_beta 90.000000
_cell_angle_gamma 120.000000
_cell_volume 4994.340468
_symmetry_space_group_name_H-M "P 6/M M M"
_symmetry_group_IT_number 191
_symmetry_cell_setting 'hexagonal'
loop_
_space_group_symop_operation_xyz
x,y,z
x-y,x,z
-y,x-y,z
-x,-y,z
-x+y,-x,z
y,-x+y,z
x-y,-y,-z
-x,-x+y,-z
y,x,-z
-y,-x,-z
-x+y,y,-z
x,x-y,-z
-x,-y,-z
-x+y,-x,-z
y,-x+y,-z
x,y,-z
x-y,x,-z
-y,x-y,-z
-x+y,y,z
x,x-y,z
-y,-x,z
y,x,z
x-y,-y,z
-x,-x+y,z
loop_
_atom_site_type_symbol
_atom_site_label
_atom_site_fract_x
_atom_site_fract_y
_atom_site_fract_z
Si Si1 0.157578 0.424674 0.291197
Si Si2 0.758038 0.695208 0.293903
Si Si3 0.887201 0.112800 0.293613
Si Si4 0.000000 0.442907 0.809310
Si Si5 0.933299 0.066702 0.000000
Si Si6 0.493198 0.879628 0.302199
O O1 0.155794 0.423810 0.500000
O O2 0.215097 0.430194 0.220615
O O3 0.105344 0.366805 0.217473
O O4 0.155498 0.479570 0.218488
O O5 0.753786 0.691473 0.500000
O O6 0.717660 0.717660 0.218177
O O7 0.821928 0.738333 0.240365
O O8 0.894996 0.105005 0.500000
O O9 0.915096 0.084905 0.177401
O O10 0.944394 0.400600 0.703047
O O11 0.000000 0.500000 0.834896
O O12 0.000000 0.417755 0.000000
O O13 0.000000 0.094201 0.000000
O O14 0.477382 0.861200 0.500000
O O15 0.435273 0.870545 0.208431
#
# Coordination Sequence:
#
# PCOD8329164 Si02
#       6
#    24  24  12  12   6  24
#     4   9  16  27  45  71 100 131 170 213 256 304
#     4   9  16  27  48  76 101 128 168 215 261 318
#     4  10  20  39  63  85 110 144 188 232 282 340
#     4   9  17  29  45  65  93 127 161 195 239 299
#     4  12  27  44  64  88 116 148 186 234 290 346
#     4   9  17  28  45  69  96 127 166 207 245 290
#
# _framework density 20.423116
#
# number of rings (size 3 to 8) (size 9 to 14) (size 15 to 20)
#    0.000    2.706    1.176    1.118    1.647    2.824 
#    0.000    0.000    2.588    1.882    0.000    3.294 
#    0.000    0.000    0.000    0.000    0.000    0.000 
#
# Total GULP energy -1263673.652201 kJ/mol
# GULP energy per Si atom -12388.957375 kJ/mol
# Density = 2.037663 g / cm^3
# Si number density = 20.423116 Si / 1000 Ang^3
#
#
#
# Elastic Constant Matrix: (Units=GPa)
#
#
# Indices 1 2 3 4 5 6 
#
# 1 173.4725 102.6090 11.5521 0.0000 0.0000 0.0000
# 2 102.6090 173.4725 11.5521 0.0000 0.0000 0.0000
# 3 11.5521 11.5521 36.9208 0.0000 0.0000 0.0000
# 4 0.0000 0.0000 0.0000 0.2540 0.0000 0.0000
# 5 0.0000 0.0000 0.0000 0.0000 0.2540 0.0000
# 6 0.0000 0.0000 0.0000 0.0000 0.0000 35.4318
#
#
#
# Elastic Compliance Matrix: (Units=1/GPa)
#
#
# Indices 1 2 3 4 5 6 
#
# 1 0.008916 -0.005196 -0.001164 0.000000 0.000000 0.000000
# 2 -0.005196 0.008916 -0.001164 0.000000 0.000000 0.000000
# 3 -0.001164 -0.001164 0.027813 0.000000 0.000000 0.000000
# 4 0.000000 0.000000 0.000000 3.936481 0.000000 0.000000
# 5 0.000000 0.000000 0.000000 0.000000 3.936481 0.000000
# 6 0.000000 0.000000 0.000000 0.000000 0.000000 0.028223
#
#
# Mechanical properties :
#
#
# Convention : Reuss Voigt Hill
#
# Bulk Modulus (GPa) = 32.68281 70.58804 51.63542
# Shear Modulus (GPa) = 0.62719 24.39814 12.51266
#
# Velocity S-wave (km/s) = 0.55477 3.46010 2.47791
# Velocity P-wave (km/s) = 4.05561 7.11343 5.79003
#
# Compressibility (1/GPa) = 0.03059713
#
# Stress axis : x y z
#
# Youngs Moduli (GPa) = 112.16333 112.16333 35.95403
#
# Poissons Ratio (x) = 0.58281 0.04184
# Poissons Ratio (y) = 0.58281 0.04184
# Poissons Ratio (z) = 0.13054 0.13054
#
# Static dielectric constant tensor:
#      x y z
#    x 3.997070 0.000000 0.000000 
#    y 0.000000 3.997070 0.000000 
#    z 0.000000 0.000000 3.253090 
# 
# 
# High freq. dielectric constant tensor:
#      x y z
#    x 1.791590 0.000000 0.000000 
#    y 0.000000 1.791590 0.000000 
#    z 0.000000 0.000000 1.760450 
# 
# From -- ./inp_files/1464.got.cif
#   From: 2010.03.12/outbox.cif.g09.slc.cpg/sg191_1_cif.got.tgz:1464.got - 2010.04.01 12:09:02.
