data_PCOD8329176
_publ_section_title
;
Structure prediction by ZEFSAII (Michael W. Deem and Ramdas Pophale) SiO2 
 PCOD8329176
Probable space group: P 6/M M M
;
_chemical_formula_sum "Si O2"
_cell_formula_units_Z 168
_cell_length_a 22.761705
_cell_length_b 22.761705
_cell_length_c 20.652100
_cell_angle_alpha 90.000000
_cell_angle_beta 90.000000
_cell_angle_gamma 120.000000
_cell_volume 9266.258934
_symmetry_space_group_name_H-M "P 6/M M M"
_symmetry_group_IT_number 191
_symmetry_cell_setting 'hexagonal'
loop_
_space_group_symop_operation_xyz
x,y,z
x-y,x,z
-y,x-y,z
-x,-y,z
-x+y,-x,z
y,-x+y,z
x-y,-y,-z
-x,-x+y,-z
y,x,-z
-y,-x,-z
-x+y,y,-z
x,x-y,-z
-x,-y,-z
-x+y,-x,-z
y,-x+y,-z
x,y,-z
x-y,x,-z
-y,x-y,-z
-x+y,y,z
x,x-y,z
-y,-x,z
y,x,z
x-y,-y,z
-x,-x+y,z
loop_
_atom_site_type_symbol
_atom_site_label
_atom_site_fract_x
_atom_site_fract_y
_atom_site_fract_z
Si Si1 0.610183 0.735630 0.928378
Si Si2 0.717441 0.925238 0.824250
Si Si3 0.393020 0.921604 0.358390
Si Si4 0.607984 0.870628 0.572558
Si Si5 0.075043 0.280245 0.321798
Si Si6 0.799778 0.333332 0.732961
Si Si7 0.333473 0.800307 0.114740
O O1 0.605924 0.802962 0.921402
O O2 0.661073 0.738187 0.873184
O O3 0.534368 0.673136 0.917573
O O4 0.635773 0.729470 0.000000
O O5 0.739174 0.869587 0.842390
O O6 0.688338 0.913455 0.750795
O O7 0.783634 0.000000 0.830395
O O8 0.458644 0.917287 0.378645
O O9 0.340635 0.890186 0.418356
O O10 0.353967 0.872925 0.297470
O O11 0.415096 0.000000 0.342284
O O12 0.637821 0.891981 0.500000
O O13 0.580732 0.790366 0.583055
O O14 0.663698 0.914460 0.626037
O O15 0.126099 0.252198 0.335426
O O16 0.000000 0.216650 0.329523
O O17 0.778524 0.389262 0.714837
O O18 0.740189 0.259812 0.707796
O O19 0.808391 0.331009 0.808928
O O20 0.404016 0.808032 0.091148
O O21 0.273364 0.726637 0.092504
#
# Coordination Sequence:
#
# PCOD8329176 Si02
#       7
#    24  24  24  24  24  24  24
#     4   9  18  31  46  68  99 132 166 204 246 295
#     4   9  18  33  54  78 102 131 167 206 246 291
#     4  10  21  34  48  70 100 131 163 202 251 306
#     4  10  21  36  54  75  99 129 167 210 251 292
#     4   9  18  32  52  77 103 131 164 202 243 287
#     4   9  17  30  49  71  95 126 166 212 256 301
#     4   9  17  29  47  70  96 127 166 213 262 306
#
# _framework density 18.130293999999999
#
# number of rings (size 3 to 8) (size 9 to 14) (size 15 to 20)
#    0.000    2.714    0.000    1.143    2.000    3.143 
#    0.000    0.714    0.000    1.857    0.000    3.000 
#    0.000    0.000    0.000    7.143    0.000    7.429 
#
# Total GULP energy -2082103.466346 kJ/mol
# GULP energy per Si atom -12393.473014 kJ/mol
# Density = 1.808903 g / cm^3
# Si number density = 18.130294 Si / 1000 Ang^3
#
#
#
# Elastic Constant Matrix: (Units=GPa)
#
#
# Indices 1 2 3 4 5 6 
#
# 1 96.0595 50.2804 41.7215 0.0000 0.0000 0.0000
# 2 50.2804 96.0595 41.7215 0.0000 0.0000 0.0000
# 3 41.7215 41.7215 88.1929 0.0000 0.0000 0.0000
# 4 0.0000 0.0000 0.0000 16.5237 0.0000 0.0000
# 5 0.0000 0.0000 0.0000 0.0000 16.5237 0.0000
# 6 0.0000 0.0000 0.0000 0.0000 0.0000 22.8896
#
#
#
# Elastic Compliance Matrix: (Units=1/GPa)
#
#
# Indices 1 2 3 4 5 6 
#
# 1 0.015601 -0.006243 -0.004427 0.000000 0.000000 0.000000
# 2 -0.006243 0.015601 -0.004427 0.000000 0.000000 0.000000
# 3 -0.004427 -0.004427 0.015527 0.000000 0.000000 0.000000
# 4 0.000000 0.000000 0.000000 0.060519 0.000000 0.000000
# 5 0.000000 0.000000 0.000000 0.000000 0.060519 0.000000
# 6 0.000000 0.000000 0.000000 0.000000 0.000000 0.043688
#
#
# Mechanical properties :
#
#
# Convention : Reuss Voigt Hill
#
# Bulk Modulus (GPa) = 60.47739 60.86211 60.66975
# Shear Modulus (GPa) = 20.22979 20.95997 20.59488
#
# Velocity S-wave (km/s) = 3.34398 3.40380 3.37402
# Velocity P-wave (km/s) = 6.95264 7.00642 6.97958
#
# Compressibility (1/GPa) = 0.01653511
#
# Stress axis : x y z
#
# Youngs Moduli (GPa) = 64.09934 64.09934 64.40329
#
# Poissons Ratio (x) = 0.40019 0.28510
# Poissons Ratio (y) = 0.40019 0.28510
# Poissons Ratio (z) = 0.28375 0.28375
#
# Static dielectric constant tensor:
#      x y z
#    x 3.337800 0.000000 0.000000 
#    y 0.000000 3.337800 0.000000 
#    z 0.000000 0.000000 3.375120 
# 
# 
# High freq. dielectric constant tensor:
#      x y z
#    x 1.688500 0.000000 0.000000 
#    y 0.000000 1.688500 0.000000 
#    z 0.000000 0.000000 1.700270 
# 
# From -- ./inp_files/7910.got.cif
#   From: 2010.03.12/outbox.cif.g09.slc.cpg/sg191_4_cif.got.tgz:7910.got - 2010.04.01 12:09:02.
