data_PCOD8329928
_publ_section_title
;
Structure prediction by ZEFSAII (Michael W. Deem and Ramdas Pophale) SiO2 
 PCOD8329928
Probable space group: P 63/M C M
;
_chemical_formula_sum "Si O2"
_cell_formula_units_Z 144
_cell_length_a 32.128774
_cell_length_b 32.128774
_cell_length_c 8.782193
_cell_angle_alpha 90.000000
_cell_angle_beta 90.000000
_cell_angle_gamma 120.000000
_cell_volume 7850.944659
_symmetry_space_group_name_H-M "P 63/M C M"
_symmetry_group_IT_number 193
_symmetry_cell_setting 'hexagonal'
loop_
_space_group_symop_operation_xyz
x,y,z
x-y,x,1/2+z
-y,x-y,z
-x,-y,1/2+z
-x+y,-x,z
y,-x+y,1/2+z
x-y,-y,1/2-z
-x,-x+y,1/2-z
y,x,1/2-z
-y,-x,-z
-x+y,y,-z
x,x-y,-z
-x,-y,-z
-x+y,-x,1/2-z
y,-x+y,-z
x,y,1/2-z
x-y,x,-z
-y,x-y,1/2-z
-x+y,y,1/2+z
x,x-y,1/2+z
-y,-x,1/2+z
y,x,z
x-y,-y,z
-x,-x+y,z
loop_
_atom_site_type_symbol
_atom_site_label
_atom_site_fract_x
_atom_site_fract_y
_atom_site_fract_z
Si Si1 0.402463 0.155799 0.929199
Si Si2 0.428836 0.482720 0.071185
Si Si3 0.806877 0.106167 0.424937
Si Si4 0.142401 0.195150 0.069724
Si Si5 0.516013 0.857083 0.928211
Si Si6 0.666855 0.423995 0.068763
O O1 0.416087 0.163910 0.750000
O O2 0.349674 0.106711 0.952378
O O3 0.401615 0.200808 0.000000
O O4 0.440928 0.151025 0.027294
O O5 0.430821 0.489380 0.250000
O O6 0.440420 0.440420 0.025567
O O7 0.467405 0.532596 0.000000
O O8 0.377630 0.471856 0.013021
O O9 0.846205 0.153796 0.500000
O O10 0.819754 0.112531 0.250000
O O11 0.813343 0.061656 0.481149
O O12 0.136558 0.191194 0.250000
O O13 0.156610 0.156610 0.007821
O O14 0.091808 0.183616 0.000000
O O15 0.515708 0.865551 0.750000
O O16 0.465772 0.810629 0.978408
O O17 0.668626 0.419586 0.250000
O O18 0.626023 0.373978 0.000000
O O19 0.718314 0.436627 0.000000
#
# Coordination Sequence:
#
# PCOD8329928 Si02
#       6
#    24  24  24  24  24  24
#     4  10  19  32  51  75 105 140 177 218 263 313
#     4  10  21  38  60  83 106 134 169 212 263 317
#     4   8  15  28  46  68  94 127 165 203 246 296
#     4   9  17  30  49  73 101 133 170 213 259 308
#     4  11  23  37  56  82 110 143 181 221 266 318
#     4  11  24  40  58  80 108 143 182 226 275 324
#
# _framework density 18.341740000000001
#
# number of rings (size 3 to 8) (size 9 to 14) (size 15 to 20)
#    0.000    2.167    0.000    3.167    0.000    7.333 
#    0.000    0.833    0.000    3.167    0.000    0.000 
#    0.000    0.000    0.000    0.000    0.000    0.000 
#
# Total GULP energy -1783934.969628 kJ/mol
# GULP energy per Si atom -12388.437289 kJ/mol
# Density = 1.829999 g / cm^3
# Si number density = 18.341740 Si / 1000 Ang^3
#
#
#
# Elastic Constant Matrix: (Units=GPa)
#
#
# Indices 1 2 3 4 5 6 
#
# 1 99.8916 49.9050 21.7846 0.0000 0.0000 0.0000
# 2 49.9050 99.8916 21.7846 0.0000 0.0000 0.0000
# 3 21.7846 21.7846 34.4464 0.0000 0.0000 0.0000
# 4 0.0000 0.0000 0.0000 27.1151 0.0000 0.0000
# 5 0.0000 0.0000 0.0000 0.0000 27.1151 0.0000
# 6 0.0000 0.0000 0.0000 0.0000 0.0000 24.9933
#
#
#
# Elastic Compliance Matrix: (Units=1/GPa)
#
#
# Indices 1 2 3 4 5 6 
#
# 1 0.014093 -0.005912 -0.005173 0.000000 0.000000 0.000000
# 2 -0.005912 0.014093 -0.005173 0.000000 0.000000 0.000000
# 3 -0.005173 -0.005173 0.035574 0.000000 0.000000 0.000000
# 4 0.000000 0.000000 0.000000 0.036880 0.000000 0.000000
# 5 0.000000 0.000000 0.000000 0.000000 0.036880 0.000000
# 6 0.000000 0.000000 0.000000 0.000000 0.000000 0.040011
#
#
# Mechanical properties :
#
#
# Convention : Reuss Voigt Hill
#
# Bulk Modulus (GPa) = 32.00903 46.79758 39.40330
# Shear Modulus (GPa) = 22.67956 25.22841 23.95399
#
# Velocity S-wave (km/s) = 3.52021 3.71275 3.61776
# Velocity P-wave (km/s) = 5.83196 6.62940 6.24343
#
# Compressibility (1/GPa) = 0.03124118
#
# Stress axis : x y z
#
# Youngs Moduli (GPa) = 70.95770 70.95770 28.11026
#
# Poissons Ratio (x) = 0.41953 0.14543
# Poissons Ratio (y) = 0.41953 0.14543
# Poissons Ratio (z) = 0.36710 0.36710
#
# Static dielectric constant tensor:
#      x y z
#    x 3.567310 0.000000 0.000000 
#    y 0.000000 3.567310 0.000000 
#    z 0.000000 0.000000 3.468590 
# 
# 
# High freq. dielectric constant tensor:
#      x y z
#    x 1.707150 0.000000 0.000000 
#    y 0.000000 1.707150 0.000000 
#    z 0.000000 0.000000 1.719080 
# 
# From -- ./inp_files/1525.got.cif
#   From: 2010.03.12/outbox.cif.g09.slc.cpg/sg193_1_cif.got.tgz:1525.got - 2010.04.01 12:20:39.
