data_PCOD8329724
_publ_section_title
;
Structure prediction by ZEFSAII (Michael W. Deem and Ramdas Pophale) SiO2 
 PCOD8329724
Probable space group: P 6/M C C
;
_chemical_formula_sum "Si O2"
_cell_formula_units_Z 168
_cell_length_a 21.682493
_cell_length_b 21.682493
_cell_length_c 21.025284
_cell_angle_alpha 90.000000
_cell_angle_beta 90.000000
_cell_angle_gamma 120.000000
_cell_volume 8560.338380
_symmetry_space_group_name_H-M "P 6/M C C"
_symmetry_group_IT_number 192
_symmetry_cell_setting 'hexagonal'
loop_
_space_group_symop_operation_xyz
x,y,z
x-y,x,z
-y,x-y,z
-x,-y,z
-x+y,-x,z
y,-x+y,z
x-y,-y,1/2-z
-x,-x+y,1/2-z
y,x,1/2-z
-y,-x,1/2-z
-x+y,y,1/2-z
x,x-y,1/2-z
-x,-y,-z
-x+y,-x,-z
y,-x+y,-z
x,y,-z
x-y,x,-z
-y,x-y,-z
-x+y,y,1/2+z
x,x-y,1/2+z
-y,-x,1/2+z
y,x,1/2+z
x-y,-y,1/2+z
-x,-x+y,1/2+z
loop_
_atom_site_type_symbol
_atom_site_label
_atom_site_fract_x
_atom_site_fract_y
_atom_site_fract_z
Si Si1 0.534632 0.186763 0.885355
Si Si2 0.591819 0.918050 0.354014
Si Si3 0.856299 0.985078 0.174761
Si Si4 0.793024 0.320436 0.573240
Si Si5 0.280973 0.854346 0.277809
Si Si6 0.581387 0.552468 0.932353
Si Si7 0.716575 0.977983 0.822013
O O1 0.616117 0.203157 0.883156
O O2 0.534782 0.250798 0.923629
O O3 0.501787 0.182053 0.815219
O O4 0.487046 0.112783 0.920439
O O5 0.550586 0.851221 0.401005
O O6 0.565905 0.897451 0.281299
O O7 0.582404 0.984466 0.372441
O O8 0.677151 0.953170 0.359299
O O9 0.920220 0.057104 0.146173
O O10 0.866244 0.000000 0.250000
O O11 0.778196 0.965796 0.149934
O O12 0.810104 0.345824 0.500000
O O13 0.205300 0.794701 0.250000
O O14 0.268068 0.906440 0.325043
O O15 0.500000 0.500000 0.943963
O O16 0.610822 0.594835 0.000000
O O17 0.734894 0.000000 0.750000
#
# Coordination Sequence:
#
# PCOD8329724 Si02
#       7
#    24  24  24  24  24  24  24
#     4  12  25  44  66  93 123 163 213 265 321 387
#     4  11  22  39  60  92 122 160 203 258 313 378
#     4   9  17  27  45  74 111 157 203 248 290 343
#     4  12  25  43  66  91 121 162 211 262 322 383
#     4  11  23  41  61  88 128 164 205 256 312 383
#     4  11  22  41  66  92 120 157 209 260 313 373
#     4   9  20  33  55  80 114 156 203 243 301 367
#
# _framework density 19.625391
#
# number of rings (size 3 to 8) (size 9 to 14) (size 15 to 20)
#    0.000    1.286    4.286    2.143    6.000    1.143 
#    0.000    0.714    0.000    0.000    0.000    0.000 
#    0.000    0.000    0.000    0.857    0.000   10.571 
#
# Total GULP energy -2081732.652689 kJ/mol
# GULP energy per Si atom -12391.265790 kJ/mol
# Density = 1.958072 g / cm^3
# Si number density = 19.625391 Si / 1000 Ang^3
#
#
#
# Elastic Constant Matrix: (Units=GPa)
#
#
# Indices 1 2 3 4 5 6 
#
# 1 128.7356 57.3071 42.9312 0.0000 0.0000 0.0000
# 2 57.3071 128.7356 42.9312 0.0000 0.0000 0.0000
# 3 42.9312 42.9312 67.5808 0.0000 0.0000 0.0000
# 4 0.0000 0.0000 0.0000 25.9492 0.0000 0.0000
# 5 0.0000 0.0000 0.0000 0.0000 25.9492 0.0000
# 6 0.0000 0.0000 0.0000 0.0000 0.0000 35.7142
#
#
#
# Elastic Compliance Matrix: (Units=1/GPa)
#
#
# Indices 1 2 3 4 5 6 
#
# 1 0.010802 -0.003198 -0.004831 0.000000 0.000000 0.000000
# 2 -0.003198 0.010802 -0.004831 0.000000 0.000000 0.000000
# 3 -0.004831 -0.004831 0.020935 0.000000 0.000000 0.000000
# 4 0.000000 0.000000 0.000000 0.038537 0.000000 0.000000
# 5 0.000000 0.000000 0.000000 0.000000 0.038537 0.000000
# 6 0.000000 0.000000 0.000000 0.000000 0.000000 0.028000
#
#
# Mechanical properties :
#
#
# Convention : Reuss Voigt Hill
#
# Bulk Modulus (GPa) = 59.45122 67.93233 63.69178
# Shear Modulus (GPa) = 27.94244 29.64800 28.79522
#
# Velocity S-wave (km/s) = 3.77741 3.89098 3.83462
# Velocity P-wave (km/s) = 7.02736 7.40783 7.22011
#
# Compressibility (1/GPa) = 0.01682051
#
# Stress axis : x y z
#
# Youngs Moduli (GPa) = 92.57243 92.57243 47.76723
#
# Poissons Ratio (x) = 0.29602 0.23076
# Poissons Ratio (y) = 0.29602 0.23076
# Poissons Ratio (z) = 0.44721 0.44721
#
# Static dielectric constant tensor:
#      x y z
#    x 3.774410 0.000000 0.000000 
#    y 0.000000 3.774410 0.000000 
#    z 0.000000 0.000000 3.943510 
# 
# 
# High freq. dielectric constant tensor:
#      x y z
#    x 1.772850 0.000000 0.000000 
#    y 0.000000 1.772850 0.000000 
#    z 0.000000 0.000000 1.725910 
# 
# From -- ./inp_files/6061.got.cif
#   From: 2010.03.12/outbox.cif.g09.slc.cpg/sg192_4_cif.got.tgz:6061.got - 2010.04.01 12:16:15.
