data_PCOD8329347
_publ_section_title
;
Structure prediction by ZEFSAII (Michael W. Deem and Ramdas Pophale) SiO2 
 PCOD8329347
Probable space group: P 6/M M M
;
_chemical_formula_sum "Si O2"
_cell_formula_units_Z 96
_cell_length_a 18.000000
_cell_length_b 18.000000
_cell_length_c 21.000000
_cell_angle_alpha 90.000000
_cell_angle_beta 90.000000
_cell_angle_gamma 120.000000
_cell_volume 5892.436847
_symmetry_space_group_name_H-M "P 6/M M M"
_symmetry_group_IT_number 191
_symmetry_cell_setting 'hexagonal'
loop_
_space_group_symop_operation_xyz
x,y,z
x-y,x,z
-y,x-y,z
-x,-y,z
-x+y,-x,z
y,-x+y,z
x-y,-y,-z
-x,-x+y,-z
y,x,-z
-y,-x,-z
-x+y,y,-z
x,x-y,-z
-x,-y,-z
-x+y,-x,-z
y,-x+y,-z
x,y,-z
x-y,x,-z
-y,x-y,-z
-x+y,y,z
x,x-y,z
-y,-x,z
y,x,z
x-y,-y,z
-x,-x+y,z
loop_
_atom_site_type_symbol
_atom_site_label
_atom_site_fract_x
_atom_site_fract_y
_atom_site_fract_z
Si Si1 0.166698 0.668884 0.000000
Si Si2 0.100927 0.632486 0.500000
Si Si3 0.532247 0.899192 0.867583
Si Si4 0.262835 0.902774 0.612650
Si Si5 0.357781 0.096951 0.756631
O O1 0.128387 0.685006 0.934831
O O2 0.268587 0.731413 0.000000
O O3 0.141099 0.570550 0.000000
O O4 0.143876 0.571938 0.500000
O O5 0.129062 0.689530 0.435928
O O6 0.000000 0.572996 0.500000
O O7 0.429102 0.858203 0.861726
O O8 0.564250 0.868408 0.806894
O O9 0.576556 0.000000 0.866293
O O10 0.160419 0.839582 0.604934
O O11 0.292000 0.897904 0.684995
O O12 0.285389 0.000000 0.596649
O O13 0.316145 0.158072 0.761861
O O14 0.283938 0.000000 0.772685
#
# Coordination Sequence:
#
# PCOD8329347 Si02
#       5
#    12  12  24  24  24
#     4  10  18  27  39  55  78 107 137 167 201 246
#     4   9  17  28  43  64  86 108 138 175 211 246
#     4   9  17  28  42  60  81 106 137 174 215 255
#     4   9  17  29  46  67  90 116 146 180 216 255
#     4   9  17  29  45  65  88 114 145 180 217 256
#
# _framework density 16.292071
#
# number of rings (size 3 to 8) (size 9 to 14) (size 15 to 20)
#    0.000    2.875    0.000    1.625    0.000    2.500 
#    0.000    5.000    0.000    3.000    0.000    3.500 
#    0.000    3.000    0.000    0.250    0.000   26.000 
#
# Total GULP energy -1189471.959598 kJ/mol
# GULP energy per Si atom -12390.332912 kJ/mol
# Density = 1.625499 g / cm^3
# Si number density = 16.292071 Si / 1000 Ang^3
#
#
#
# Elastic Constant Matrix: (Units=GPa)
#
#
# Indices 1 2 3 4 5 6 
#
# 1 62.4882 38.0077 45.8241 0.0000 0.0000 0.0000
# 2 38.0077 62.4882 45.8241 0.0000 0.0000 0.0000
# 3 45.8241 45.8241 138.3904 0.0000 0.0000 0.0000
# 4 0.0000 0.0000 0.0000 17.8552 0.0000 0.0000
# 5 0.0000 0.0000 0.0000 0.0000 17.8552 0.0000
# 6 0.0000 0.0000 0.0000 0.0000 0.0000 12.2402
#
#
#
# Elastic Compliance Matrix: (Units=1/GPa)
#
#
# Indices 1 2 3 4 5 6 
#
# 1 0.027552 -0.013297 -0.004720 0.000000 0.000000 0.000000
# 2 -0.013297 0.027552 -0.004720 0.000000 0.000000 0.000000
# 3 -0.004720 -0.004720 0.010352 0.000000 0.000000 0.000000
# 4 0.000000 0.000000 0.000000 0.056006 0.000000 0.000000
# 5 0.000000 0.000000 0.000000 0.000000 0.056006 0.000000
# 6 0.000000 0.000000 0.000000 0.000000 0.000000 0.081698
#
#
# Mechanical properties :
#
#
# Convention : Reuss Voigt Hill
#
# Bulk Modulus (GPa) = 50.04615 58.07538 54.06077
# Shear Modulus (GPa) = 16.06162 18.50418 17.28290
#
# Velocity S-wave (km/s) = 3.14324 3.37379 3.26055
# Velocity P-wave (km/s) = 6.63009 7.13445 6.88689
#
# Compressibility (1/GPa) = 0.01998156
#
# Stress axis : x y z
#
# Youngs Moduli (GPa) = 36.29486 36.29486 96.60062
#
# Poissons Ratio (x) = 0.48260 0.45598
# Poissons Ratio (y) = 0.48260 0.45598
# Poissons Ratio (z) = 0.17132 0.17132
#
# Static dielectric constant tensor:
#      x y z
#    x 2.983070 0.000000 0.000000 
#    y 0.000000 2.983070 0.000000 
#    z 0.000000 0.000000 3.515620 
# 
# 
# High freq. dielectric constant tensor:
#      x y z
#    x 1.598440 0.000000 0.000000 
#    y 0.000000 1.598440 0.000000 
#    z 0.000000 0.000000 1.654420 
# 
# From -- ./inp_files/7140.got.cif
#   From: 2010.03.12/outbox.ucp.g09.slc.cvg/sg191_4_cif.got.tgz:7140.got - 2010.05.04 20:47:26.
