data_PCOD8329273
_publ_section_title
;
Structure prediction by ZEFSAII (Michael W. Deem and Ramdas Pophale) SiO2 
 PCOD8329273
Probable space group: P 6/M M M
;
_chemical_formula_sum "Si O2"
_cell_formula_units_Z 72
_cell_length_a 17.920999
_cell_length_b 17.920999
_cell_length_c 14.376096
_cell_angle_alpha 90.000000
_cell_angle_beta 90.000000
_cell_angle_gamma 120.000000
_cell_volume 3998.490119
_symmetry_space_group_name_H-M "P 6/M M M"
_symmetry_group_IT_number 191
_symmetry_cell_setting 'hexagonal'
loop_
_space_group_symop_operation_xyz
x,y,z
x-y,x,z
-y,x-y,z
-x,-y,z
-x+y,-x,z
y,-x+y,z
x-y,-y,-z
-x,-x+y,-z
y,x,-z
-y,-x,-z
-x+y,y,-z
x,x-y,-z
-x,-y,-z
-x+y,-x,-z
y,-x+y,-z
x,y,-z
x-y,x,-z
-y,x-y,-z
-x+y,y,z
x,x-y,z
-y,-x,z
y,x,z
x-y,-y,z
-x,-x+y,z
loop_
_atom_site_type_symbol
_atom_site_label
_atom_site_fract_x
_atom_site_fract_y
_atom_site_fract_z
Si Si1 0.830792 0.000000 0.389279
Si Si2 0.000000 0.339172 0.610212
Si Si3 0.330087 0.492959 0.704717
Si Si4 0.903737 0.540250 0.100895
O O1 0.830368 0.915184 0.350691
O O2 0.745868 0.000000 0.352654
O O3 0.832315 0.000000 0.500000
O O4 0.083897 0.423746 0.645065
O O5 0.000000 0.340688 0.500000
O O6 0.250595 0.501189 0.665487
O O7 0.416205 0.583796 0.694019
O O8 0.308691 0.462861 0.812618
O O9 0.909121 0.454561 0.101634
O O10 0.000000 0.620935 0.114394
O O11 0.866406 0.548425 0.000000
#
# Coordination Sequence:
#
# PCOD8329273 Si02
#       4
#    12  12  24  24
#     4   9  17  31  53  80 105 127 156 202 260 317
#     4  11  23  39  56  73  99 141 187 223 265 324
#     4  11  22  36  54  78 106 138 177 223 271 319
#     4   8  14  28  51  76 102 133 168 206 253 312
#
# _framework density 18.006798
#
# number of rings (size 3 to 8) (size 9 to 14) (size 15 to 20)
#    0.000    2.333    1.667    3.000    0.000    4.667 
#    0.000    0.000    0.000    4.000    0.000    0.000 
#    0.000    0.000    0.000    0.000    0.000   11.833 
#
# Total GULP energy -892309.650671 kJ/mol
# GULP energy per Si atom -12393.189593 kJ/mol
# Density = 1.796581 g / cm^3
# Si number density = 18.006798 Si / 1000 Ang^3
#
#
#
# Elastic Constant Matrix: (Units=GPa)
#
#
# Indices 1 2 3 4 5 6 
#
# 1 123.0946 65.2216 38.9437 0.0000 0.0000 0.0000
# 2 65.2216 123.0946 38.9437 0.0000 0.0000 0.0000
# 3 38.9437 38.9437 71.8118 0.0000 0.0000 0.0000
# 4 0.0000 0.0000 0.0000 14.0893 0.0000 0.0000
# 5 0.0000 0.0000 0.0000 0.0000 14.0893 0.0000
# 6 0.0000 0.0000 0.0000 0.0000 0.0000 28.9365
#
#
#
# Elastic Compliance Matrix: (Units=1/GPa)
#
#
# Indices 1 2 3 4 5 6 
#
# 1 0.012062 -0.005217 -0.003712 0.000000 0.000000 0.000000
# 2 -0.005217 0.012062 -0.003712 0.000000 0.000000 0.000000
# 3 -0.003712 -0.003712 0.017952 0.000000 0.000000 0.000000
# 4 0.000000 0.000000 0.000000 0.070976 0.000000 0.000000
# 5 0.000000 0.000000 0.000000 0.000000 0.070976 0.000000
# 6 0.000000 0.000000 0.000000 0.000000 0.000000 0.034558
#
#
# Mechanical properties :
#
#
# Convention : Reuss Voigt Hill
#
# Bulk Modulus (GPa) = 59.54703 67.13544 63.34123
# Shear Modulus (GPa) = 20.04264 23.08247 21.56256
#
# Velocity S-wave (km/s) = 3.33987 3.58421 3.46420
# Velocity P-wave (km/s) = 6.92921 7.38194 7.15916
#
# Compressibility (1/GPa) = 0.01679345
#
# Stress axis : x y z
#
# Youngs Moduli (GPa) = 82.90194 82.90194 55.70472
#
# Poissons Ratio (x) = 0.43248 0.20680
# Poissons Ratio (y) = 0.43248 0.20680
# Poissons Ratio (z) = 0.30777 0.30777
#
# Static dielectric constant tensor:
#      x y z
#    x 3.256950 0.000000 0.000000 
#    y 0.000000 3.256950 0.000000 
#    z 0.000000 0.000000 3.502420 
# 
# 
# High freq. dielectric constant tensor:
#      x y z
#    x 1.686880 0.000000 0.000000 
#    y 0.000000 1.686880 0.000000 
#    z 0.000000 0.000000 1.685280 
# 
# From -- ./inp_files/3910.got.cif
#   From: 2010.03.12/outbox.cif.g09.slc.cpg/sg191_2_cif.got.tgz:3910.got - 2010.04.01 12:09:02.
