data_PCOD8329810
_publ_section_title
;
Structure prediction by ZEFSAII (Michael W. Deem and Ramdas Pophale) SiO2 
 PCOD8329810
Probable space group: P 63/M C M
;
_chemical_formula_sum "Si O2"
_cell_formula_units_Z 168
_cell_length_a 18.130294
_cell_length_b 18.130294
_cell_length_c 32.878347
_cell_angle_alpha 90.000000
_cell_angle_beta 90.000000
_cell_angle_gamma 120.000000
_cell_volume 9359.449379
_symmetry_space_group_name_H-M "P 63/M C M"
_symmetry_group_IT_number 193
_symmetry_cell_setting 'hexagonal'
loop_
_space_group_symop_operation_xyz
x,y,z
x-y,x,1/2+z
-y,x-y,z
-x,-y,1/2+z
-x+y,-x,z
y,-x+y,1/2+z
x-y,-y,1/2-z
-x,-x+y,1/2-z
y,x,1/2-z
-y,-x,-z
-x+y,y,-z
x,x-y,-z
-x,-y,-z
-x+y,-x,1/2-z
y,-x+y,-z
x,y,1/2-z
x-y,x,-z
-y,x-y,1/2-z
-x+y,y,1/2+z
x,x-y,1/2+z
-y,-x,1/2+z
y,x,z
x-y,-y,z
-x,-x+y,z
loop_
_atom_site_type_symbol
_atom_site_label
_atom_site_fract_x
_atom_site_fract_y
_atom_site_fract_z
Si Si1 0.643894 0.898616 0.648965
Si Si2 0.460531 0.097229 0.671052
Si Si3 0.834964 0.351034 0.586737
Si Si4 0.905047 0.365562 0.997109
Si Si5 0.098455 0.304684 0.796526
Si Si6 0.898770 0.387539 0.205435
Si Si7 0.691720 0.513647 0.078248
O O1 0.700708 0.861154 0.669188
O O2 0.562998 0.868059 0.678112
O O3 0.600256 0.862008 0.605193
O O4 0.704042 0.000000 0.645831
O O5 0.460146 0.135766 0.627380
O O6 0.398243 0.109017 0.701415
O O7 0.555610 0.141346 0.689610
O O8 0.431321 0.000000 0.663461
O O9 0.880740 0.332813 0.548990
O O10 0.856321 0.449027 0.589825
O O11 0.735735 0.280235 0.582031
O O12 0.000000 0.385546 0.006252
O O13 0.895624 0.447812 0.000000
O O14 0.845215 0.299886 0.031603
O O15 0.121377 0.291654 0.750000
O O16 0.000000 0.233386 0.806442
O O17 0.861706 0.353841 0.250000
O O18 0.000000 0.443144 0.206546
#
# Coordination Sequence:
#
# PCOD8329810 Si02
#       7
#    24  24  24  24  24  24  24
#     4  11  21  34  55  79 105 135 173 223 270 317
#     4  10  18  30  50  73  99 135 175 211 251 304
#     4  11  20  33  50  70 104 141 180 218 262 318
#     4   9  19  33  51  72  96 131 179 230 271 309
#     4  10  21  37  55  76 105 139 175 218 269 324
#     4   9  17  29  47  72  99 128 165 209 253 297
#     4  11  21  34  50  75 107 144 180 220 268 315
#
# _framework density 17.949773
#
# number of rings (size 3 to 8) (size 9 to 14) (size 15 to 20)
#    0.000    1.857    2.857    2.429    0.000    3.714 
#    0.000    1.429    0.000    0.286    0.000    4.000 
#    0.000    0.000    0.000    0.000    0.000    5.286 
#
# Total GULP energy -2081903.848533 kJ/mol
# GULP energy per Si atom -12392.284813 kJ/mol
# Density = 1.790892 g / cm^3
# Si number density = 17.949773 Si / 1000 Ang^3
#
#
#
# Elastic Constant Matrix: (Units=GPa)
#
#
# Indices 1 2 3 4 5 6 
#
# 1 56.8145 17.8591 18.8325 0.0000 0.0000 0.0000
# 2 17.8591 56.8145 18.8325 0.0000 0.0000 0.0000
# 3 18.8325 18.8325 106.0317 0.0000 0.0000 0.0000
# 4 0.0000 0.0000 0.0000 21.9292 0.0000 0.0000
# 5 0.0000 0.0000 0.0000 0.0000 21.9292 0.0000
# 6 0.0000 0.0000 0.0000 0.0000 0.0000 19.4777
#
#
#
# Elastic Compliance Matrix: (Units=1/GPa)
#
#
# Indices 1 2 3 4 5 6 
#
# 1 0.020190 -0.005480 -0.002613 0.000000 0.000000 0.000000
# 2 -0.005480 0.020190 -0.002613 0.000000 0.000000 0.000000
# 3 -0.002613 -0.002613 0.010359 0.000000 0.000000 0.000000
# 4 0.000000 0.000000 0.000000 0.045601 0.000000 0.000000
# 5 0.000000 0.000000 0.000000 0.000000 0.045601 0.000000
# 6 0.000000 0.000000 0.000000 0.000000 0.000000 0.051341
#
#
# Mechanical properties :
#
#
# Convention : Reuss Voigt Hill
#
# Bulk Modulus (GPa) = 34.09744 36.74540 35.42142
# Shear Modulus (GPa) = 22.27475 23.60967 22.94221
#
# Velocity S-wave (km/s) = 3.52653 3.63067 3.57898
# Velocity P-wave (km/s) = 5.96818 6.17182 6.07085
#
# Compressibility (1/GPa) = 0.02932772
#
# Stress axis : x y z
#
# Youngs Moduli (GPa) = 49.52978 49.52978 96.53268
#
# Poissons Ratio (x) = 0.27145 0.25220
# Poissons Ratio (y) = 0.27145 0.25220
# Poissons Ratio (z) = 0.12940 0.12940
#
# Static dielectric constant tensor:
#      x y z
#    x 3.121280 0.000000 0.000000 
#    y 0.000000 3.121280 0.000000 
#    z 0.000000 0.000000 3.594890 
# 
# 
# High freq. dielectric constant tensor:
#      x y z
#    x 1.665000 0.000000 0.000000 
#    y 0.000000 1.665000 0.000000 
#    z 0.000000 0.000000 1.712280 
# 
# From -- ./inp_files/9288.got.cif
#   From: 2010.03.12/outbox.cif.g09.slc.cpg/sg193_5_cif.got.tgz:9288.got - 2010.04.01 12:20:39.
