data_PCOD8329022
_publ_section_title
;
Structure prediction by ZEFSAII (Michael W. Deem and Ramdas Pophale) SiO2 
 PCOD8329022
Probable space group: P 6/M M M
;
_chemical_formula_sum "Si O2"
_cell_formula_units_Z 132
_cell_length_a 29.840805
_cell_length_b 29.840805
_cell_length_c 11.339413
_cell_angle_alpha 90.000000
_cell_angle_beta 90.000000
_cell_angle_gamma 120.000000
_cell_volume 8744.646831
_symmetry_space_group_name_H-M "P 6/M M M"
_symmetry_group_IT_number 191
_symmetry_cell_setting 'hexagonal'
loop_
_space_group_symop_operation_xyz
x,y,z
x-y,x,z
-y,x-y,z
-x,-y,z
-x+y,-x,z
y,-x+y,z
x-y,-y,-z
-x,-x+y,-z
y,x,-z
-y,-x,-z
-x+y,y,-z
x,x-y,-z
-x,-y,-z
-x+y,-x,-z
y,-x+y,-z
x,y,-z
x-y,x,-z
-y,x-y,-z
-x+y,y,z
x,x-y,z
-y,-x,z
y,x,z
x-y,-y,z
-x,-x+y,z
loop_
_atom_site_type_symbol
_atom_site_label
_atom_site_fract_x
_atom_site_fract_y
_atom_site_fract_z
Si Si1 0.358560 0.000000 0.865912
Si Si2 0.740545 0.157486 0.863333
Si Si3 0.747686 0.747686 0.133422
Si Si4 0.633608 0.059301 0.500000
Si Si5 0.543944 0.906217 0.246864
Si Si6 0.529789 0.059577 0.139479
Si Si7 0.680484 0.739822 0.500000
Si Si8 0.795124 0.692961 0.257241
O O1 0.351687 0.950758 0.797689
O O2 0.305737 0.000000 0.857639
O O3 0.376484 0.000000 0.000000
O O4 0.782259 0.217742 0.845409
O O5 0.689369 0.146809 0.790596
O O6 0.763316 0.121859 0.819637
O O7 0.725770 0.143602 0.000000
O O8 0.791400 0.740029 0.197503
O O9 0.764998 0.764998 0.000000
O O10 0.629289 0.089503 0.612913
O O11 0.687690 0.061298 0.500000
O O12 0.586794 0.000000 0.500000
O O13 0.497661 0.909741 0.186382
O O14 0.500000 0.000000 0.184630
O O15 0.530489 0.060977 0.000000
O O16 0.727010 0.727010 0.500000
O O17 0.683172 0.772917 0.612042
O O18 0.855283 0.710566 0.262242
#
# Coordination Sequence:
#
# PCOD8329022 Si02
#       8
#    12  24  12  12  24  12  12  24
#     4  11  18  28  47  65  90 125 158 192 234 277
#     4  10  20  33  49  69  94 122 155 198 243 284
#     4  11  20  31  48  69  93 129 164 199 245 286
#     4  11  20  32  47  66  95 134 167 195 231 288
#     4  12  21  34  48  68  95 127 161 197 238 284
#     4  11  22  33  49  73  95 120 160 202 238 288
#     4  11  19  33  50  66  91 128 169 200 235 284
#     4  11  21  32  47  70  94 123 165 205 238 279
#
# _framework density 15.094950000000001
#
# number of rings (size 3 to 8) (size 9 to 14) (size 15 to 20)
#    0.000    1.000    6.364    2.455    0.000    1.455 
#    0.000    1.364    0.000    0.000    0.000    0.000 
#    0.909    0.000    1.091    0.273    0.909    2.364 
#
# Total GULP energy -1637201.217125 kJ/mol
# GULP energy per Si atom -12403.039524 kJ/mol
# Density = 1.506059 g / cm^3
# Si number density = 15.094950 Si / 1000 Ang^3
#
#
#
# Elastic Constant Matrix: (Units=GPa)
#
#
# Indices 1 2 3 4 5 6 
#
# 1 80.4972 26.9723 29.1243 0.0000 0.0000 0.0000
# 2 26.9723 80.4972 29.1243 0.0000 0.0000 0.0000
# 3 29.1243 29.1243 110.2593 0.0000 0.0000 0.0000
# 4 0.0000 0.0000 0.0000 34.1414 0.0000 0.0000
# 5 0.0000 0.0000 0.0000 0.0000 34.1414 0.0000
# 6 0.0000 0.0000 0.0000 0.0000 0.0000 26.7625
#
#
#
# Elastic Compliance Matrix: (Units=1/GPa)
#
#
# Indices 1 2 3 4 5 6 
#
# 1 0.014771 -0.003912 -0.002869 0.000000 0.000000 0.000000
# 2 -0.003912 0.014771 -0.002869 0.000000 0.000000 0.000000
# 3 -0.002869 -0.002869 0.010585 0.000000 0.000000 0.000000
# 4 0.000000 0.000000 0.000000 0.029290 0.000000 0.000000
# 5 0.000000 0.000000 0.000000 0.000000 0.029290 0.000000
# 6 0.000000 0.000000 0.000000 0.000000 0.000000 0.037366
#
#
# Mechanical properties :
#
#
# Convention : Reuss Voigt Hill
#
# Bulk Modulus (GPa) = 48.00710 49.07729 48.54219
# Shear Modulus (GPa) = 30.80452 31.41126 31.10789
#
# Velocity S-wave (km/s) = 4.52233 4.56665 4.54454
# Velocity P-wave (km/s) = 7.69032 7.77102 7.73078
#
# Compressibility (1/GPa) = 0.02083025
#
# Stress axis : x y z
#
# Youngs Moduli (GPa) = 67.69888 67.69888 94.47395
#
# Poissons Ratio (x) = 0.26481 0.27100
# Poissons Ratio (y) = 0.26481 0.27100
# Poissons Ratio (z) = 0.19420 0.19420
#
# Static dielectric constant tensor:
#      x y z
#    x 2.915890 0.000000 0.000000 
#    y 0.000000 2.915890 0.000000 
#    z 0.000000 0.000000 3.110600 
# 
# 
# High freq. dielectric constant tensor:
#      x y z
#    x 1.549740 0.000000 0.000000 
#    y 0.000000 1.549740 0.000000 
#    z 0.000000 0.000000 1.601360 
# 
# From -- ./inp_files/3544.got.cif
#   From: 2010.03.12/outbox.cif.g09.slc.cpg/sg191_2_cif.got.tgz:3544.got - 2010.04.01 12:09:02.
