data_PCOD8329616
_publ_section_title
;
Structure prediction by ZEFSAII (Michael W. Deem and Ramdas Pophale) SiO2 
 PCOD8329616
Probable space group: P 6/M C C
;
_chemical_formula_sum "Si O2"
_cell_formula_units_Z 132
_cell_length_a 19.100878
_cell_length_b 19.100878
_cell_length_c 20.605657
_cell_angle_alpha 90.000000
_cell_angle_beta 90.000000
_cell_angle_gamma 120.000000
_cell_volume 6510.641159
_symmetry_space_group_name_H-M "P 6/M C C"
_symmetry_group_IT_number 192
_symmetry_cell_setting 'hexagonal'
loop_
_space_group_symop_operation_xyz
x,y,z
x-y,x,z
-y,x-y,z
-x,-y,z
-x+y,-x,z
y,-x+y,z
x-y,-y,1/2-z
-x,-x+y,1/2-z
y,x,1/2-z
-y,-x,1/2-z
-x+y,y,1/2-z
x,x-y,1/2-z
-x,-y,-z
-x+y,-x,-z
y,-x+y,-z
x,y,-z
x-y,x,-z
-y,x-y,-z
-x+y,y,1/2+z
x,x-y,1/2+z
-y,-x,1/2+z
y,x,1/2+z
x-y,-y,1/2+z
-x,-x+y,1/2+z
loop_
_atom_site_type_symbol
_atom_site_label
_atom_site_fract_x
_atom_site_fract_y
_atom_site_fract_z
Si Si1 0.614664 0.000000 0.250000
Si Si2 0.077237 0.886019 0.859276
Si Si3 0.152907 0.578193 0.426156
Si Si4 0.362679 0.138392 0.190280
Si Si5 0.500000 0.500000 0.154055
Si Si6 0.479673 0.241977 0.424635
Si Si7 0.926023 0.814946 0.500000
O O1 0.628615 0.937465 0.209291
O O2 0.582485 0.038462 0.196211
O O3 0.109058 0.841457 0.812539
O O4 0.982446 0.854725 0.847031
O O5 0.093019 0.860434 0.931730
O O6 0.125857 0.571269 0.500000
O O7 0.221845 0.554430 0.417094
O O8 0.184510 0.669710 0.402837
O O9 0.074750 0.511285 0.388409
O O10 0.401230 0.200615 0.250000
O O11 0.406703 0.179879 0.122985
O O12 0.448902 0.225973 0.500000
O O13 0.882106 0.865221 0.500000
#
# Coordination Sequence:
#
# PCOD8329616 Si02
#       7
#    12  24  24  24  12  24  12
#     4  11  24  40  60  84 127 172 218 262 315 386
#     4  10  21  38  62  89 123 165 217 272 330 387
#     4  10  20  39  66  97 126 163 209 266 329 396
#     4  12  24  41  61  90 130 174 216 268 330 388
#     4  11  21  40  64  88 123 169 216 264 310 391
#     4  10  22  41  67  97 132 166 211 271 337 399
#     4   8  15  30  54  84 114 149 197 259 321 379
#
# _framework density 20.274501999999998
#
# number of rings (size 3 to 8) (size 9 to 14) (size 15 to 20)
#    0.000    1.636    1.818    3.091    1.273    2.909 
#    0.000    0.000    0.000    1.091    0.000    0.000 
#    0.000    0.000    0.000    0.000    0.000    0.000 
#
# Total GULP energy -1635517.738276 kJ/mol
# GULP energy per Si atom -12390.285896 kJ/mol
# Density = 2.022836 g / cm^3
# Si number density = 20.274502 Si / 1000 Ang^3
#
#
#
# Elastic Constant Matrix: (Units=GPa)
#
#
# Indices 1 2 3 4 5 6 
#
# 1 99.4223 34.9343 50.0037 0.0000 0.0000 0.0000
# 2 34.9343 99.4223 50.0037 0.0000 0.0000 0.0000
# 3 50.0037 50.0037 102.3780 0.0000 0.0000 0.0000
# 4 0.0000 0.0000 0.0000 30.1777 0.0000 0.0000
# 5 0.0000 0.0000 0.0000 0.0000 30.1777 0.0000
# 6 0.0000 0.0000 0.0000 0.0000 0.0000 32.2440
#
#
#
# Elastic Compliance Matrix: (Units=1/GPa)
#
#
# Indices 1 2 3 4 5 6 
#
# 1 0.013601 -0.001906 -0.005712 0.000000 0.000000 0.000000
# 2 -0.001906 0.013601 -0.005712 0.000000 0.000000 0.000000
# 3 -0.005712 -0.005712 0.015347 0.000000 0.000000 0.000000
# 4 0.000000 0.000000 0.000000 0.033137 0.000000 0.000000
# 5 0.000000 0.000000 0.000000 0.000000 0.033137 0.000000
# 6 0.000000 0.000000 0.000000 0.000000 0.000000 0.031014
#
#
# Mechanical properties :
#
#
# Convention : Reuss Voigt Hill
#
# Bulk Modulus (GPa) = 62.93715 63.45622 63.19669
# Shear Modulus (GPa) = 29.10493 29.60525 29.35509
#
# Velocity S-wave (km/s) = 3.79297 3.82543 3.80923
# Velocity P-wave (km/s) = 7.09169 7.13291 7.11233
#
# Compressibility (1/GPa) = 0.01588887
#
# Stress axis : x y z
#
# Youngs Moduli (GPa) = 73.52611 73.52611 65.15798
#
# Poissons Ratio (x) = 0.14015 0.37217
# Poissons Ratio (y) = 0.14015 0.37217
# Poissons Ratio (z) = 0.41997 0.41997
#
# Static dielectric constant tensor:
#      x y z
#    x 3.582390 0.000000 0.000000 
#    y 0.000000 3.582390 0.000000 
#    z 0.000000 0.000000 4.064570 
# 
# 
# High freq. dielectric constant tensor:
#      x y z
#    x 1.785850 0.000000 0.000000 
#    y 0.000000 1.785850 0.000000 
#    z 0.000000 0.000000 1.808130 
# 
# From -- ./inp_files/5857.got.cif
#   From: 2010.03.12/outbox.cif.g09.slc.cpg/sg192_3_cif.got.tgz:5857.got - 2010.04.01 12:16:15.
