data_PCOD8329867
_publ_section_title
;
Structure prediction by ZEFSAII (Michael W. Deem and Ramdas Pophale) SiO2 
 PCOD8329867
Probable space group: P 63/M C M
;
_chemical_formula_sum "Si O2"
_cell_formula_units_Z 80
_cell_length_a 17.392115
_cell_length_b 17.392115
_cell_length_c 18.088968
_cell_angle_alpha 90.000000
_cell_angle_beta 90.000000
_cell_angle_gamma 120.000000
_cell_volume 4738.590931
_symmetry_space_group_name_H-M "P 63/M C M"
_symmetry_group_IT_number 193
_symmetry_cell_setting 'hexagonal'
loop_
_space_group_symop_operation_xyz
x,y,z
x-y,x,1/2+z
-y,x-y,z
-x,-y,1/2+z
-x+y,-x,z
y,-x+y,1/2+z
x-y,-y,1/2-z
-x,-x+y,1/2-z
y,x,1/2-z
-y,-x,-z
-x+y,y,-z
x,x-y,-z
-x,-y,-z
-x+y,-x,1/2-z
y,-x+y,-z
x,y,1/2-z
x-y,x,-z
-y,x-y,1/2-z
-x+y,y,1/2+z
x,x-y,1/2+z
-y,-x,1/2+z
y,x,z
x-y,-y,z
-x,-x+y,z
loop_
_atom_site_type_symbol
_atom_site_label
_atom_site_fract_x
_atom_site_fract_y
_atom_site_fract_z
Si Si1 0.100431 0.198507 0.335842
Si Si2 0.666668 0.333334 0.339706
Si Si3 0.340584 0.535462 0.946696
Si Si4 0.665104 0.766994 0.439712
O O1 0.118486 0.215017 0.250000
O O2 0.165043 0.165043 0.369841
O O3 0.119148 0.292182 0.367611
O O4 0.000000 0.122099 0.352867
O O5 0.666667 0.333334 0.250000
O O6 0.762911 0.354951 0.371501
O O7 0.308676 0.435277 0.921979
O O8 0.427747 0.572254 0.000000
O O9 0.271579 0.543158 0.000000
O O10 0.668443 0.834222 0.500000
O O11 0.720220 0.720220 0.466169
#
# Coordination Sequence:
#
# PCOD8329867 Si02
#       4
#    24   8  24  24
#     4   9  17  29  44  62  87 121 157 190 226 268
#     4   9  16  29  52  72  85 110 148 186 220 266
#     4   8  16  31  47  66  92 118 146 181 227 280
#     4  10  19  30  46  68  93 121 155 193 229 267
#
# _framework density 16.882656000000001
#
# number of rings (size 3 to 8) (size 9 to 14) (size 15 to 20)
#    0.000    3.000    0.000    2.400    0.000    3.000 
#    0.000    0.000    0.000    4.800    0.000    0.000 
#    0.000    0.000    0.000    0.000    0.000    0.000 
#
# Total GULP energy -991275.814349 kJ/mol
# GULP energy per Si atom -12390.947679 kJ/mol
# Density = 1.684423 g / cm^3
# Si number density = 16.882656 Si / 1000 Ang^3
#
#
#
# Elastic Constant Matrix: (Units=GPa)
#
#
# Indices 1 2 3 4 5 6 
#
# 1 104.6365 58.7020 40.4745 0.0000 0.0000 0.0000
# 2 58.7020 104.6362 40.4742 0.0001 0.0000 0.0000
# 3 40.4745 40.4742 80.8012 0.0001 0.0000 -0.0001
# 4 0.0000 0.0001 0.0001 23.2087 0.0000 0.0000
# 5 0.0000 0.0000 0.0000 0.0000 23.2089 0.0000
# 6 0.0000 0.0000 -0.0001 0.0000 0.0000 22.9671
#
#
#
# Elastic Compliance Matrix: (Units=1/GPa)
#
#
# Indices 1 2 3 4 5 6 
#
# 1 0.014957 -0.006813 -0.004079 0.000000 0.000000 0.000000
# 2 -0.006813 0.014957 -0.004079 0.000000 0.000000 0.000000
# 3 -0.004079 -0.004079 0.016463 0.000000 0.000000 0.000000
# 4 0.000000 0.000000 0.000000 0.043087 0.000000 0.000000
# 5 0.000000 0.000000 0.000000 0.000000 0.043087 0.000000
# 6 0.000000 0.000000 0.000000 0.000000 0.000000 0.043540
#
#
# Mechanical properties :
#
#
# Convention : Reuss Voigt Hill
#
# Bulk Modulus (GPa) = 60.85244 63.26390 62.05817
# Shear Modulus (GPa) = 23.63916 23.90516 23.77216
#
# Velocity S-wave (km/s) = 3.74599 3.76701 3.75651
# Velocity P-wave (km/s) = 7.40490 7.51495 7.46013
#
# Compressibility (1/GPa) = 0.01643320
#
# Stress axis : x y z
#
# Youngs Moduli (GPa) = 66.85795 66.85796 60.74254
#
# Poissons Ratio (x) = 0.45551 0.24780
# Poissons Ratio (y) = 0.45551 0.24779
# Poissons Ratio (z) = 0.27274 0.27274
#
# Static dielectric constant tensor:
#      x y z
#    x 3.319020 0.000000 0.000000 
#    y 0.000000 3.319020 0.000000 
#    z 0.000000 0.000000 3.048180 
# 
# 
# High freq. dielectric constant tensor:
#      x y z
#    x 1.645500 0.000000 0.000000 
#    y 0.000000 1.645500 0.000000 
#    z 0.000000 0.000000 1.634510 
# 
# From -- ./inp_files/5003.got.cif
#   From: 2010.03.12/outbox.cif.g09.slc.cpg/sg193_3_cif.got.tgz:5003.got - 2010.04.01 12:20:39.
