data_PCOD8329110
_publ_section_title
;
Structure prediction by ZEFSAII (Michael W. Deem and Ramdas Pophale) SiO2 
 PCOD8329110
Probable space group: P 6/M M M
;
_chemical_formula_sum "Si O2"
_cell_formula_units_Z 156
_cell_length_a 22.239527
_cell_length_b 22.239527
_cell_length_c 20.360766
_cell_angle_alpha 90.000000
_cell_angle_beta 90.000000
_cell_angle_gamma 120.000000
_cell_volume 8721.191783
_symmetry_space_group_name_H-M "P 6/M M M"
_symmetry_group_IT_number 191
_symmetry_cell_setting 'hexagonal'
loop_
_space_group_symop_operation_xyz
x,y,z
x-y,x,z
-y,x-y,z
-x,-y,z
-x+y,-x,z
y,-x+y,z
x-y,-y,-z
-x,-x+y,-z
y,x,-z
-y,-x,-z
-x+y,y,-z
x,x-y,-z
-x,-y,-z
-x+y,-x,-z
y,-x+y,-z
x,y,-z
x-y,x,-z
-y,x-y,-z
-x+y,y,z
x,x-y,z
-y,-x,z
y,x,z
x-y,-y,z
-x,-x+y,z
loop_
_atom_site_type_symbol
_atom_site_label
_atom_site_fract_x
_atom_site_fract_y
_atom_site_fract_z
Si Si1 0.385106 0.121966 0.629738
Si Si2 0.207863 0.282575 0.261599
Si Si3 0.921866 0.212556 0.111697
Si Si4 0.666399 0.194574 0.680249
Si Si5 0.576425 0.655844 0.926202
Si Si6 0.195811 0.666647 0.832208
Si Si7 0.079153 0.301098 0.500000
O O1 0.390212 0.195106 0.638249
O O2 0.340001 0.074819 0.690445
O O3 0.463952 0.137253 0.636329
O O4 0.349110 0.086459 0.561675
O O5 0.130239 0.260477 0.283860
O O6 0.213166 0.213166 0.266603
O O7 0.224250 0.312463 0.188163
O O8 0.866475 0.133526 0.090385
O O9 0.906375 0.265656 0.072806
O O10 0.000000 0.227647 0.097076
O O11 0.594320 0.188640 0.659892
O O12 0.727307 0.272694 0.665288
O O13 0.668763 0.176585 0.756507
O O14 0.603440 0.603440 0.904721
O O15 0.517073 0.646030 0.876402
O O16 0.545825 0.638833 0.000000
O O17 0.219348 0.609674 0.841664
O O18 0.259166 0.740835 0.854747
O O19 0.139150 0.278299 0.500000
O O20 0.000000 0.233976 0.500000
#
# Coordination Sequence:
#
# PCOD8329110 Si02
#       7
#    24  24  24  24  24  24  12
#     4   9  17  29  47  71  96 125 160 196 235 278
#     4   9  16  27  45  67  90 117 151 191 232 276
#     4   9  17  29  46  68  92 118 151 193 239 285
#     4   9  17  31  52  76 100 126 160 201 243 285
#     4  10  21  35  50  68  91 123 162 202 244 288
#     4  10  20  34  53  76 101 129 161 199 243 293
#     4  10  20  34  53  76 103 135 169 205 245 291
#
# _framework density 17.887463
#
# number of rings (size 3 to 8) (size 9 to 14) (size 15 to 20)
#    0.000    2.615    0.000    2.154    0.000    5.538 
#    0.000    1.923    0.000    5.462    0.000    3.231 
#    0.000    3.692    0.000    4.000    0.000    4.308 
#
# Total GULP energy -1933598.260186 kJ/mol
# GULP energy per Si atom -12394.860642 kJ/mol
# Density = 1.784675 g / cm^3
# Si number density = 17.887463 Si / 1000 Ang^3
#
#
#
# Elastic Constant Matrix: (Units=GPa)
#
#
# Indices 1 2 3 4 5 6 
#
# 1 88.7171 39.4878 31.0144 0.0000 0.0000 0.0000
# 2 39.4878 88.7171 31.0144 0.0000 0.0000 0.0000
# 3 31.0144 31.0144 57.2695 0.0000 0.0000 0.0000
# 4 0.0000 0.0000 0.0000 19.3467 0.0000 0.0000
# 5 0.0000 0.0000 0.0000 0.0000 19.3467 0.0000
# 6 0.0000 0.0000 0.0000 0.0000 0.0000 24.6146
#
#
#
# Elastic Compliance Matrix: (Units=1/GPa)
#
#
# Indices 1 2 3 4 5 6 
#
# 1 0.015441 -0.004872 -0.005724 0.000000 0.000000 0.000000
# 2 -0.004872 0.015441 -0.005724 0.000000 0.000000 0.000000
# 3 -0.005724 -0.005724 0.023661 0.000000 0.000000 0.000000
# 4 0.000000 0.000000 0.000000 0.051688 0.000000 0.000000
# 5 0.000000 0.000000 0.000000 0.000000 0.051688 0.000000
# 6 0.000000 0.000000 0.000000 0.000000 0.000000 0.040626
#
#
# Mechanical properties :
#
#
# Convention : Reuss Voigt Hill
#
# Bulk Modulus (GPa) = 45.65346 48.63741 47.14544
# Shear Modulus (GPa) = 20.96551 21.54074 21.25313
#
# Velocity S-wave (km/s) = 3.42728 3.47398 3.45071
# Velocity P-wave (km/s) = 6.42181 6.58340 6.50311
#
# Compressibility (1/GPa) = 0.02190414
#
# Stress axis : x y z
#
# Youngs Moduli (GPa) = 64.76168 64.76168 42.26396
#
# Poissons Ratio (x) = 0.31551 0.24191
# Poissons Ratio (y) = 0.31551 0.24191
# Poissons Ratio (z) = 0.37069 0.37069
#
# Static dielectric constant tensor:
#      x y z
#    x 3.311810 0.000000 0.000000 
#    y 0.000000 3.311810 0.000000 
#    z 0.000000 0.000000 3.321410 
# 
# 
# High freq. dielectric constant tensor:
#      x y z
#    x 1.680490 0.000000 0.000000 
#    y 0.000000 1.680490 0.000000 
#    z 0.000000 0.000000 1.686920 
# 
# From -- ./inp_files/7733.got.cif
#   From: 2010.03.12/outbox.cif.g09.slc.cpg/sg191_4_cif.got.tgz:7733.got - 2010.04.01 12:09:02.
