data_PCOD8329954
_publ_section_title
;
Structure prediction by ZEFSAII (Michael W. Deem and Ramdas Pophale) SiO2 
 PCOD8329954
Probable space group: P 63/M C M
;
_chemical_formula_sum "Si O2"
_cell_formula_units_Z 144
_cell_length_a 32.549303
_cell_length_b 32.549303
_cell_length_c 8.616954
_cell_angle_alpha 90.000000
_cell_angle_beta 90.000000
_cell_angle_gamma 120.000000
_cell_volume 7906.199932
_symmetry_space_group_name_H-M "P 63/M C M"
_symmetry_group_IT_number 193
_symmetry_cell_setting 'hexagonal'
loop_
_space_group_symop_operation_xyz
x,y,z
x-y,x,1/2+z
-y,x-y,z
-x,-y,1/2+z
-x+y,-x,z
y,-x+y,1/2+z
x-y,-y,1/2-z
-x,-x+y,1/2-z
y,x,1/2-z
-y,-x,-z
-x+y,y,-z
x,x-y,-z
-x,-y,-z
-x+y,-x,1/2-z
y,-x+y,-z
x,y,1/2-z
x-y,x,-z
-y,x-y,1/2-z
-x+y,y,1/2+z
x,x-y,1/2+z
-y,-x,1/2+z
y,x,z
x-y,-y,z
-x,-x+y,z
loop_
_atom_site_type_symbol
_atom_site_label
_atom_site_fract_x
_atom_site_fract_y
_atom_site_fract_z
Si Si1 0.628748 0.769528 0.933448
Si Si2 0.054194 0.194035 0.931552
Si Si3 0.847824 0.378437 0.934048
Si Si4 0.191181 0.720035 0.566645
Si Si5 0.054409 0.282312 0.432137
Si Si6 0.049492 0.569426 0.431977
O O1 0.625705 0.771269 0.750000
O O2 0.641429 0.820715 0.000000
O O3 0.578455 0.728074 0.997552
O O4 0.668531 0.756534 0.981405
O O5 0.063170 0.204031 0.750000
O O6 0.000000 0.154301 0.967110
O O7 0.087420 0.174839 0.000000
O O8 0.067594 0.243173 0.014544
O O9 0.840047 0.375352 0.750000
O O10 0.900157 0.386455 0.983145
O O11 0.838928 0.419464 0.000000
O O12 0.812589 0.329088 0.014532
O O13 0.240891 0.759110 0.500000
O O14 0.190536 0.723633 0.750000
O O15 0.063125 0.290038 0.250000
O O16 0.000000 0.265423 0.476710
O O17 0.046680 0.523340 0.500000
O O18 0.050951 0.565125 0.250000
O O19 0.000000 0.568526 0.480991
#
# Coordination Sequence:
#
# PCOD8329954 Si02
#       6
#    24  24  24  24  24  24
#     4  11  21  35  55  77 103 136 175 217 260 310
#     4  10  20  33  50  73 100 131 169 214 265 321
#     4  10  19  33  54  81 110 141 177 216 260 308
#     4  11  22  38  58  80 106 137 176 221 266 312
#     4  10  20  34  52  75 105 139 174 214 260 311
#     4   8  14  25  43  68  99 133 167 202 238 279
#
# _framework density 18.213553000000001
#
# number of rings (size 3 to 8) (size 9 to 14) (size 15 to 20)
#    0.000    2.000    0.000    6.000    0.000    2.667 
#    0.000    0.833    0.000    3.500    0.000    2.333 
#    0.000    0.000    0.000    0.000    0.000    0.000 
#
# Total GULP energy -1784575.454713 kJ/mol
# GULP energy per Si atom -12392.885102 kJ/mol
# Density = 1.817210 g / cm^3
# Si number density = 18.213553 Si / 1000 Ang^3
#
#
#
# Elastic Constant Matrix: (Units=GPa)
#
#
# Indices 1 2 3 4 5 6 
#
# 1 106.2538 61.7606 49.1344 0.0000 0.0000 0.0000
# 2 61.7606 106.2538 49.1344 0.0000 0.0000 0.0000
# 3 49.1344 49.1344 121.3919 0.0000 0.0000 0.0000
# 4 0.0000 0.0000 0.0000 27.8194 0.0000 0.0000
# 5 0.0000 0.0000 0.0000 0.0000 27.8194 0.0000
# 6 0.0000 0.0000 0.0000 0.0000 0.0000 22.2466
#
#
#
# Elastic Compliance Matrix: (Units=1/GPa)
#
#
# Indices 1 2 3 4 5 6 
#
# 1 0.015137 -0.007339 -0.003156 0.000000 0.000000 0.000000
# 2 -0.007339 0.015137 -0.003156 0.000000 0.000000 0.000000
# 3 -0.003156 -0.003156 0.010793 0.000000 0.000000 0.000000
# 4 0.000000 0.000000 0.000000 0.035946 0.000000 0.000000
# 5 0.000000 0.000000 0.000000 0.000000 0.035946 0.000000
# 6 0.000000 0.000000 0.000000 0.000000 0.000000 0.044951
#
#
# Mechanical properties :
#
#
# Convention : Reuss Voigt Hill
#
# Bulk Modulus (GPa) = 72.65547 72.66202 72.65875
# Shear Modulus (GPa) = 26.34362 27.16845 26.75604
#
# Velocity S-wave (km/s) = 3.80725 3.86639 3.83693
# Velocity P-wave (km/s) = 7.70093 7.74035 7.72067
#
# Compressibility (1/GPa) = 0.01376359
#
# Stress axis : x y z
#
# Youngs Moduli (GPa) = 66.06499 66.06499 92.65404
#
# Poissons Ratio (x) = 0.48483 0.29244
# Poissons Ratio (y) = 0.48483 0.29244
# Poissons Ratio (z) = 0.20852 0.20852
#
# Static dielectric constant tensor:
#      x y z
#    x 3.451850 0.000000 0.000000 
#    y 0.000000 3.451850 0.000000 
#    z 0.000000 0.000000 3.446350 
# 
# 
# High freq. dielectric constant tensor:
#      x y z
#    x 1.693340 0.000000 0.000000 
#    y 0.000000 1.693340 0.000000 
#    z 0.000000 0.000000 1.723380 
# 
# From -- ./inp_files/1574.got.cif
#   From: 2010.03.12/outbox.cif.g09.slc.cpg/sg193_1_cif.got.tgz:1574.got - 2010.04.01 12:20:39.
