data_PCOD8329156
_publ_section_title
;
Structure prediction by ZEFSAII (Michael W. Deem and Ramdas Pophale) SiO2 
 PCOD8329156
Probable space group: P 6/M M M
;
_chemical_formula_sum "Si O2"
_cell_formula_units_Z 60
_cell_length_a 20.366263
_cell_length_b 20.366263
_cell_length_c 8.803017
_cell_angle_alpha 90.000000
_cell_angle_beta 90.000000
_cell_angle_gamma 120.000000
_cell_volume 3162.167478
_symmetry_space_group_name_H-M "P 6/M M M"
_symmetry_group_IT_number 191
_symmetry_cell_setting 'hexagonal'
loop_
_space_group_symop_operation_xyz
x,y,z
x-y,x,z
-y,x-y,z
-x,-y,z
-x+y,-x,z
y,-x+y,z
x-y,-y,-z
-x,-x+y,-z
y,x,-z
-y,-x,-z
-x+y,y,-z
x,x-y,-z
-x,-y,-z
-x+y,-x,-z
y,-x+y,-z
x,y,-z
x-y,x,-z
-y,x-y,-z
-x+y,y,z
x,x-y,z
-y,-x,z
y,x,z
x-y,-y,z
-x,-x+y,z
loop_
_atom_site_type_symbol
_atom_site_label
_atom_site_fract_x
_atom_site_fract_y
_atom_site_fract_z
Si Si1 0.000000 0.847410 0.172492
Si Si2 0.568738 0.859040 0.820042
Si Si3 0.542831 0.457170 0.819933
Si Si4 0.000000 0.711941 0.677116
O O1 0.000000 0.788947 0.292266
O O2 0.927932 0.855864 0.203820
O O3 0.000000 0.819676 0.000000
O O4 0.554400 0.777200 0.765702
O O5 0.498502 0.868737 0.763534
O O6 0.644813 0.924652 0.748993
O O7 0.577751 0.867040 0.000000
O O8 0.500000 0.500000 0.752568
O O9 0.540145 0.459856 0.000000
O O10 0.000000 0.697251 0.500000
#
# Coordination Sequence:
#
# PCOD8329156 Si02
#       4
#    12  24  12  12
#     4  10  21  38  59  81 106 139 179 221 270 330
#     4  10  20  36  59  84 112 147 185 227 278 336
#     4   9  16  32  58  84 112 142 180 228 278 330
#     4  12  24  36  54  81 113 145 186 233 274 319
#
# _framework density 18.974328
#
# number of rings (size 3 to 8) (size 9 to 14) (size 15 to 20)
#    0.000    1.800    2.000    3.200    0.000    7.200 
#    1.200    2.000    0.000    1.200    0.000    0.000 
#    0.000    0.000    0.000    0.000    0.000    0.000 
#
# Total GULP energy -744059.519616 kJ/mol
# GULP energy per Si atom -12400.991994 kJ/mol
# Density = 1.893114 g / cm^3
# Si number density = 18.974328 Si / 1000 Ang^3
#
#
#
# Elastic Constant Matrix: (Units=GPa)
#
#
# Indices 1 2 3 4 5 6 
#
# 1 174.5742 91.1649 28.0157 0.0000 0.0000 0.0000
# 2 91.1649 174.5742 28.0157 0.0000 0.0000 0.0000
# 3 28.0157 28.0157 22.4300 0.0000 0.0000 0.0000
# 4 0.0000 0.0000 0.0000 0.1026 0.0000 0.0000
# 5 0.0000 0.0000 0.0000 0.0000 0.1026 0.0000
# 6 0.0000 0.0000 0.0000 0.0000 0.0000 41.7046
#
#
#
# Elastic Compliance Matrix: (Units=1/GPa)
#
#
# Indices 1 2 3 4 5 6 
#
# 1 0.008549 -0.003440 -0.006381 0.000000 0.000000 0.000000
# 2 -0.003440 0.008549 -0.006381 0.000000 0.000000 0.000000
# 3 -0.006381 -0.006381 0.060522 0.000000 0.000000 0.000000
# 4 0.000000 0.000000 0.000000 9.742804 0.000002 0.000000
# 5 0.000000 0.000000 0.000000 0.000002 9.742802 0.000000
# 6 0.000000 0.000000 0.000000 0.000000 0.000000 0.023978
#
#
# Mechanical properties :
#
#
# Convention : Reuss Voigt Hill
#
# Bulk Modulus (GPa) = 22.11567 73.99675 48.05621
# Shear Modulus (GPa) = 0.25465 23.34079 11.79772
#
# Velocity S-wave (km/s) = 0.36674 3.51112 2.49624
# Velocity P-wave (km/s) = 3.44387 7.45119 5.80433
#
# Compressibility (1/GPa) = 0.04521681
#
# Stress axis : x y z
#
# Youngs Moduli (GPa) = 116.97604 116.97604 16.52284
#
# Poissons Ratio (x) = 0.40243 0.10543
# Poissons Ratio (y) = 0.40243 0.10543
# Poissons Ratio (z) = 0.74638 0.74638
#
# Static dielectric constant tensor:
#      x y z
#    x 3.768990 0.000000 0.000000 
#    y 0.000000 3.768990 0.000000 
#    z 0.000000 0.000000 3.172350 
# 
# 
# High freq. dielectric constant tensor:
#      x y z
#    x 1.749220 0.000000 0.000000 
#    y 0.000000 1.749220 0.000000 
#    z 0.000000 0.000000 1.701660 
# 
# From -- ./inp_files/587.got.cif
#   From: 2010.03.12/outbox.cif.g09.slc.cpg/sg191_1_cif.got.tgz:587.got - 2010.04.01 12:09:02.
