data_PCOD8329138
_publ_section_title
;
Structure prediction by ZEFSAII (Michael W. Deem and Ramdas Pophale) SiO2 
 PCOD8329138
Probable space group: P 6/M M M
;
_chemical_formula_sum "Si O2"
_cell_formula_units_Z 108
_cell_length_a 29.838092
_cell_length_b 29.838092
_cell_length_c 7.930804
_cell_angle_alpha 90.000000
_cell_angle_beta 90.000000
_cell_angle_gamma 120.000000
_cell_volume 6114.908262
_symmetry_space_group_name_H-M "P 6/M M M"
_symmetry_group_IT_number 191
_symmetry_cell_setting 'hexagonal'
loop_
_space_group_symop_operation_xyz
x,y,z
x-y,x,z
-y,x-y,z
-x,-y,z
-x+y,-x,z
y,-x+y,z
x-y,-y,-z
-x,-x+y,-z
y,x,-z
-y,-x,-z
-x+y,y,-z
x,x-y,-z
-x,-y,-z
-x+y,-x,-z
y,-x+y,-z
x,y,-z
x-y,x,-z
-y,x-y,-z
-x+y,y,z
x,x-y,z
-y,-x,z
y,x,z
x-y,-y,z
-x,-x+y,z
loop_
_atom_site_type_symbol
_atom_site_label
_atom_site_fract_x
_atom_site_fract_y
_atom_site_fract_z
Si Si1 0.510371 0.703545 0.811420
Si Si2 0.000000 0.804173 0.203669
Si Si3 0.787919 0.893960 0.813122
Si Si4 0.000000 0.702222 0.196734
Si Si5 0.438844 0.771911 0.500000
Si Si6 0.832972 0.665943 0.810876
Si Si7 0.386304 0.106691 0.308802
O O1 0.526876 0.763438 0.778961
O O2 0.469443 0.668316 0.669574
O O3 0.561524 0.698556 0.800327
O O4 0.486614 0.685798 0.000000
O O5 0.050478 0.856222 0.275086
O O6 0.000000 0.752775 0.274777
O O7 0.000000 0.802587 0.000000
O O8 0.726806 0.863403 0.823708
O O9 0.811868 0.905934 0.000000
O O10 0.951972 0.647821 0.250673
O O11 0.000000 0.709079 0.000000
O O12 0.385900 0.771799 0.500000
O O13 0.426563 0.713282 0.500000
O O14 0.867427 0.648914 0.708127
O O15 0.820922 0.641844 0.000000
O O16 0.403909 0.109213 0.500000
#
# Coordination Sequence:
#
# PCOD8329138 Si02
#       7
#    24  12  12  12  12  12  24
#     4  10  20  35  56  82 113 151 192 230 274 330
#     4   9  16  27  43  64  89 122 171 221 267 327
#     4   9  16  27  43  64  89 124 172 220 267 327
#     4  11  21  33  49  71 102 142 184 223 272 335
#     4  10  21  38  60  89 121 153 189 230 275 319
#     4  11  19  29  49  71  98 141 183 219 268 329
#     4  12  22  33  48  76 112 146 183 227 275 327
#
# _framework density 17.661753999999998
#
# number of rings (size 3 to 8) (size 9 to 14) (size 15 to 20)
#    0.000    1.556    4.444    2.778    0.000    0.444 
#    0.000    0.000    0.000    1.556    0.000    3.111 
#    0.000    2.667    0.000    0.000    0.000    2.444 
#
# Total GULP energy -1338797.854675 kJ/mol
# GULP energy per Si atom -12396.276432 kJ/mol
# Density = 1.762155 g / cm^3
# Si number density = 17.661754 Si / 1000 Ang^3
#
#
#
# Elastic Constant Matrix: (Units=GPa)
#
#
# Indices 1 2 3 4 5 6 
#
# 1 105.9441 43.0193 30.5620 0.0000 0.0000 0.0000
# 2 43.0193 105.9441 30.5620 0.0000 0.0000 0.0000
# 3 30.5620 30.5620 94.3017 0.0000 0.0000 0.0000
# 4 0.0000 0.0000 0.0000 18.6624 0.0000 0.0000
# 5 0.0000 0.0000 0.0000 0.0000 18.6624 0.0000
# 6 0.0000 0.0000 0.0000 0.0000 0.0000 31.4624
#
#
#
# Elastic Compliance Matrix: (Units=1/GPa)
#
#
# Indices 1 2 3 4 5 6 
#
# 1 0.011817 -0.004075 -0.002509 0.000000 0.000000 0.000000
# 2 -0.004075 0.011817 -0.002509 0.000000 0.000000 0.000000
# 3 -0.002509 -0.002509 0.012231 0.000000 0.000000 0.000000
# 4 0.000000 0.000000 0.000000 0.053584 0.000000 0.000000
# 5 0.000000 0.000000 0.000000 0.000000 0.053584 0.000000
# 6 0.000000 0.000000 0.000000 0.000000 0.000000 0.031784
#
#
# Mechanical properties :
#
#
# Convention : Reuss Voigt Hill
#
# Bulk Modulus (GPa) = 56.56465 57.16407 56.86436
# Shear Modulus (GPa) = 25.13871 27.22719 26.18295
#
# Velocity S-wave (km/s) = 3.77681 3.93057 3.85446
# Velocity P-wave (km/s) = 7.14949 7.28254 7.21633
#
# Compressibility (1/GPa) = 0.01767888
#
# Stress axis : x y z
#
# Youngs Moduli (GPa) = 84.62136 84.62136 81.76118
#
# Poissons Ratio (x) = 0.34480 0.20516
# Poissons Ratio (y) = 0.34480 0.20516
# Poissons Ratio (z) = 0.21234 0.21234
#
# Static dielectric constant tensor:
#      x y z
#    x 3.138280 0.000000 0.000000 
#    y 0.000000 3.138280 0.000000 
#    z 0.000000 0.000000 3.329660 
# 
# 
# High freq. dielectric constant tensor:
#      x y z
#    x 1.660570 0.000000 0.000000 
#    y 0.000000 1.660570 0.000000 
#    z 0.000000 0.000000 1.682540 
# 
# From -- ./inp_files/1808.got.cif
#   From: 2010.03.12/outbox.cif.g09.slc.cpg/sg191_1_cif.got.tgz:1808.got - 2010.04.01 12:09:02.
