data_PCOD8329897
_publ_section_title
;
Structure prediction by ZEFSAII (Michael W. Deem and Ramdas Pophale) SiO2 
 PCOD8329897
Probable space group: P 63/M C M
;
_chemical_formula_sum "Si O2"
_cell_formula_units_Z 144
_cell_length_a 32.107637
_cell_length_b 32.107637
_cell_length_c 9.117287
_cell_angle_alpha 90.000000
_cell_angle_beta 90.000000
_cell_angle_gamma 120.000000
_cell_volume 8139.785235
_symmetry_space_group_name_H-M "P 63/M C M"
_symmetry_group_IT_number 193
_symmetry_cell_setting 'hexagonal'
loop_
_space_group_symop_operation_xyz
x,y,z
x-y,x,1/2+z
-y,x-y,z
-x,-y,1/2+z
-x+y,-x,z
y,-x+y,1/2+z
x-y,-y,1/2-z
-x,-x+y,1/2-z
y,x,1/2-z
-y,-x,-z
-x+y,y,-z
x,x-y,-z
-x,-y,-z
-x+y,-x,1/2-z
y,-x+y,-z
x,y,1/2-z
x-y,x,-z
-y,x-y,1/2-z
-x+y,y,1/2+z
x,x-y,1/2+z
-y,-x,1/2+z
y,x,z
x-y,-y,z
-x,-x+y,z
loop_
_atom_site_type_symbol
_atom_site_label
_atom_site_fract_x
_atom_site_fract_y
_atom_site_fract_z
Si Si1 0.136497 0.611295 0.420931
Si Si2 0.661718 0.715759 0.413798
Si Si3 0.578755 0.332479 0.423875
Si Si4 0.054325 0.191182 0.922467
Si Si5 0.945853 0.382114 0.082531
Si Si6 0.191293 0.890117 0.920586
O O1 0.127275 0.563638 0.500000
O O2 0.128544 0.600523 0.250000
O O3 0.191067 0.654473 0.452132
O O4 0.095944 0.622157 0.478223
O O5 0.666662 0.736808 0.250000
O O6 0.704106 0.704106 0.443025
O O7 0.611236 0.668490 0.433219
O O8 0.665670 0.753906 0.532441
O O9 0.627984 0.372017 0.500000
O O10 0.562250 0.281125 0.500000
O O11 0.587520 0.330497 0.250000
O O12 0.057902 0.186308 0.750000
O O13 0.073663 0.246273 0.968170
O O14 0.000000 0.159968 0.979228
O O15 0.085501 0.171001 0.000000
O O16 0.936152 0.391158 0.250000
O O17 0.000000 0.424034 0.035980
O O18 0.186719 0.880316 0.750000
O O19 0.160657 0.839344 0.000000
#
# Coordination Sequence:
#
# PCOD8329897 Si02
#       6
#    24  24  24  24  24  24
#     4  10  21  36  55  79 106 137 173 213 257 303
#     4   9  18  33  52  73  98 129 164 202 246 295
#     4  10  20  34  53  78 107 138 172 209 251 298
#     4   9  18  31  46  67  94 121 152 192 237 285
#     4   9  19  36  56  77 102 133 169 210 256 303
#     4  10  19  31  48  71  99 129 162 200 243 290
#
# _framework density 17.690885000000002
#
# number of rings (size 3 to 8) (size 9 to 14) (size 15 to 20)
#    0.000    2.500    0.000    3.167    0.000    5.333 
#    0.000    2.500    0.000    2.167    0.000    0.000 
#    0.000    0.000    0.000    0.000    0.000    0.000 
#
# Total GULP energy -1785390.946505 kJ/mol
# GULP energy per Si atom -12398.548240 kJ/mol
# Density = 1.765062 g / cm^3
# Si number density = 17.690885 Si / 1000 Ang^3
#
#
#
# Elastic Constant Matrix: (Units=GPa)
#
#
# Indices 1 2 3 4 5 6 
#
# 1 88.1600 43.2619 50.7057 0.0000 0.0000 0.0000
# 2 43.2619 88.1600 50.7057 0.0000 0.0000 0.0000
# 3 50.7057 50.7057 93.9677 0.0000 0.0000 0.0000
# 4 0.0000 0.0000 0.0000 34.1818 0.0000 0.0000
# 5 0.0000 0.0000 0.0000 0.0000 34.1818 0.0000
# 6 0.0000 0.0000 0.0000 0.0000 0.0000 22.4490
#
#
#
# Elastic Compliance Matrix: (Units=1/GPa)
#
#
# Indices 1 2 3 4 5 6 
#
# 1 0.017655 -0.004617 -0.007035 0.000000 0.000000 0.000000
# 2 -0.004617 0.017655 -0.007035 0.000000 0.000000 0.000000
# 3 -0.007035 -0.007035 0.018235 0.000000 0.000000 0.000000
# 4 0.000000 0.000000 0.000000 0.029255 0.000000 0.000000
# 5 0.000000 0.000000 0.000000 0.000000 0.029255 0.000000
# 6 0.000000 0.000000 0.000000 0.000000 0.000000 0.044545
#
#
# Mechanical properties :
#
#
# Convention : Reuss Voigt Hill
#
# Bulk Modulus (GPa) = 61.84675 62.18161 62.01418
# Shear Modulus (GPa) = 25.07937 26.53680 25.80808
#
# Velocity S-wave (km/s) = 3.76925 3.87722 3.82361
# Velocity P-wave (km/s) = 7.34701 7.43431 7.39079
#
# Compressibility (1/GPa) = 0.01616900
#
# Stress axis : x y z
#
# Youngs Moduli (GPa) = 56.64028 56.64028 54.84082
#
# Poissons Ratio (x) = 0.26153 0.38582
# Poissons Ratio (y) = 0.26153 0.38582
# Poissons Ratio (z) = 0.39848 0.39848
#
# Static dielectric constant tensor:
#      x y z
#    x 3.263010 0.000000 0.000000 
#    y 0.000000 3.263010 0.000000 
#    z 0.000000 0.000000 3.770350 
# 
# 
# High freq. dielectric constant tensor:
#      x y z
#    x 1.676890 0.000000 0.000000 
#    y 0.000000 1.676890 0.000000 
#    z 0.000000 0.000000 1.690990 
# 
# From -- ./inp_files/1559.got.cif
#   From: 2010.03.12/outbox.cif.g09.slc.cpg/sg193_1_cif.got.tgz:1559.got - 2010.04.01 12:20:39.
