data_PCOD8329497
_publ_section_title
;
Structure prediction by ZEFSAII (Michael W. Deem and Ramdas Pophale) SiO2 
 PCOD8329497
Probable space group: P 6/M C C
;
_chemical_formula_sum "Si O2"
_cell_formula_units_Z 152
_cell_length_a 26.269111
_cell_length_b 26.269111
_cell_length_c 14.067020
_cell_angle_alpha 90.000000
_cell_angle_beta 90.000000
_cell_angle_gamma 120.000000
_cell_volume 8406.660092
_symmetry_space_group_name_H-M "P 6/M C C"
_symmetry_group_IT_number 192
_symmetry_cell_setting 'hexagonal'
loop_
_space_group_symop_operation_xyz
x,y,z
x-y,x,z
-y,x-y,z
-x,-y,z
-x+y,-x,z
y,-x+y,z
x-y,-y,1/2-z
-x,-x+y,1/2-z
y,x,1/2-z
-y,-x,1/2-z
-x+y,y,1/2-z
x,x-y,1/2-z
-x,-y,-z
-x+y,-x,-z
y,-x+y,-z
x,y,-z
x-y,x,-z
-y,x-y,-z
-x+y,y,1/2+z
x,x-y,1/2+z
-y,-x,1/2+z
y,x,1/2+z
x-y,-y,1/2+z
-x,-x+y,1/2+z
loop_
_atom_site_type_symbol
_atom_site_label
_atom_site_fract_x
_atom_site_fract_y
_atom_site_fract_z
Si Si1 0.665909 0.433306 0.192341
Si Si2 0.636616 0.786580 0.107710
Si Si3 0.666668 0.333334 0.868453
Si Si4 0.911732 0.041420 0.613201
Si Si5 0.738597 0.823035 0.609439
Si Si6 0.063864 0.346948 0.727519
Si Si7 0.284439 0.442727 0.111296
O O1 0.604085 0.395916 0.250000
O O2 0.725365 0.450730 0.250000
O O3 0.663750 0.391310 0.103245
O O4 0.672613 0.492840 0.152487
O O5 0.699386 0.845367 0.119107
O O6 0.635586 0.738180 0.176888
O O7 0.584239 0.799499 0.135920
O O8 0.627906 0.762731 0.000000
O O9 0.666668 0.333334 0.750000
O O10 0.914712 0.040587 0.500000
O O11 0.867677 0.063766 0.645753
O O12 0.976323 0.086472 0.654669
O O13 0.738362 0.803680 0.500000
O O14 0.712442 0.766682 0.677388
O O15 0.094357 0.400979 0.654955
O O16 0.000000 0.337572 0.750000
O O17 0.293313 0.443816 0.000000
#
# Coordination Sequence:
#
# PCOD8329497 Si02
#       7
#    24  24   8  24  24  24  24
#     4   8  14  28  52  80 114 151 182 212 241 283
#     4   9  19  34  52  72  98 130 171 221 274 326
#     4   6  12  24  43  80 115 147 178 206 236 260
#     4   9  17  28  44  65  91 124 161 205 262 333
#     4   9  18  32  49  71  96 122 157 208 268 331
#     4  11  22  33  51  75 100 134 175 223 271 319
#     4  10  19  34  54  79 110 144 176 214 264 317
#
# _framework density 18.080901000000001
#
# number of rings (size 3 to 8) (size 9 to 14) (size 15 to 20)
#    0.000    3.158    0.000    4.579    2.211    1.895 
#    0.000    3.158    0.000    1.421    0.000    1.105 
#    0.000    0.000    0.000    0.000    0.000    0.000 
#
# Total GULP energy -1883568.578739 kJ/mol
# GULP energy per Si atom -12391.898544 kJ/mol
# Density = 1.803975 g / cm^3
# Si number density = 18.080901 Si / 1000 Ang^3
#
#
#
# Elastic Constant Matrix: (Units=GPa)
#
#
# Indices 1 2 3 4 5 6 
#
# 1 110.8312 74.6329 41.9962 -0.0001 0.0002 -0.0001
# 2 74.6329 110.8309 41.9962 -0.0005 0.0000 -0.0001
# 3 41.9962 41.9962 73.1230 -0.0003 0.0000 0.0000
# 4 -0.0001 -0.0005 -0.0003 -1.8971 0.0018 0.0001
# 5 0.0002 0.0000 0.0000 0.0018 -1.9032 -0.0002
# 6 -0.0001 -0.0001 0.0000 0.0001 -0.0002 18.0991
#
#
#
# Elastic Compliance Matrix: (Units=1/GPa)
#
#
# Indices 1 2 3 4 5 6 
#
# 1 0.017456 -0.010169 -0.004185 0.000003 0.000001 0.000000
# 2 -0.010169 0.017457 -0.004185 -0.000003 -0.000001 0.000000
# 3 -0.004185 -0.004185 0.018483 -0.000002 0.000000 0.000000
# 4 0.000003 -0.000003 -0.000002 -0.527109 -0.000490 0.000002
# 5 0.000001 -0.000001 0.000000 -0.000490 -0.525433 -0.000006
# 6 0.000000 0.000000 0.000000 0.000002 -0.000006 0.055252
#
#
# Mechanical properties :
#
#
# Convention : Reuss Voigt Hill
#
# Bulk Modulus (GPa) = 61.28758 68.00396 64.64577
# Shear Modulus (GPa) = -5.54708 11.93706 3.19499
#
# Velocity S-wave (km/s) = -1.75345 2.57223 1.33075
# Velocity P-wave (km/s) = 5.46539 6.82015 6.18000
#
# Compressibility (1/GPa) = 0.01631652
#
# Stress axis : x y z
#
# Youngs Moduli (GPa) = 57.28534 57.28515 54.10388
#
# Poissons Ratio (x) = 0.58254 0.22644
# Poissons Ratio (y) = 0.58255 0.22644
# Poissons Ratio (z) = 0.23975 0.23975
#
# Static dielectric constant tensor:
#      x y z
#    x 3.315590 0.000000 0.000000 
#    y 0.000000 3.315600 0.000000 
#    z 0.000000 0.000000 3.311890 
# 
# 
# High freq. dielectric constant tensor:
#      x y z
#    x 1.677020 0.000000 0.000000 
#    y 0.000000 1.677020 0.000000 
#    z 0.000000 0.000000 1.703080 
# 
# From -- ./inp_files/3419.got.cif
#   From: 2010.03.12/outbox.cif.g09.slc.cpg/sg192_2_cif.got.tgz:3419.got - 2010.04.01 12:16:15.
