data_PCOD8329112
_publ_section_title
;
Structure prediction by ZEFSAII (Michael W. Deem and Ramdas Pophale) SiO2 
 PCOD8329112
Probable space group: P 6/M M M
;
_chemical_formula_sum "Si O2"
_cell_formula_units_Z 84
_cell_length_a 20.789858
_cell_length_b 20.789858
_cell_length_c 12.445756
_cell_angle_alpha 90.000000
_cell_angle_beta 90.000000
_cell_angle_gamma 120.000000
_cell_volume 4658.595041
_symmetry_space_group_name_H-M "P 6/M M M"
_symmetry_group_IT_number 191
_symmetry_cell_setting 'hexagonal'
loop_
_space_group_symop_operation_xyz
x,y,z
x-y,x,z
-y,x-y,z
-x,-y,z
-x+y,-x,z
y,-x+y,z
x-y,-y,-z
-x,-x+y,-z
y,x,-z
-y,-x,-z
-x+y,y,-z
x,x-y,-z
-x,-y,-z
-x+y,-x,-z
y,-x+y,-z
x,y,-z
x-y,x,-z
-y,x-y,-z
-x+y,y,z
x,x-y,z
-y,-x,z
y,x,z
x-y,-y,z
-x,-x+y,z
loop_
_atom_site_type_symbol
_atom_site_label
_atom_site_fract_x
_atom_site_fract_y
_atom_site_fract_z
Si Si1 0.335709 0.817067 0.697913
Si Si2 0.915933 0.534282 0.500000
Si Si3 0.164634 0.329267 0.873094
Si Si4 0.917263 0.834525 0.128476
Si Si5 0.579073 0.912909 0.874394
O O1 0.395535 0.791070 0.673288
O O2 0.255031 0.744970 0.709390
O O3 0.335026 0.870228 0.603993
O O4 0.362113 0.865880 0.807250
O O5 0.921793 0.460897 0.500000
O O6 0.000000 0.605260 0.500000
O O7 0.123835 0.247670 0.822537
O O8 0.249438 0.369006 0.834993
O O9 0.161777 0.323554 0.000000
O O10 0.876251 0.876251 0.173815
O O11 0.916729 0.833457 0.000000
O O12 0.618237 0.000000 0.847298
O O13 0.559449 0.898715 0.000000
#
# Coordination Sequence:
#
# PCOD8329112 Si02
#       5
#    24  12  12  12  24
#     4  11  22  37  56  79 108 140 177 220 269 324
#     4   9  19  36  58  82 106 133 168 213 262 313
#     4   9  16  29  46  66  95 129 171 215 256 305
#     4   9  15  22  35  58  89 125 165 210 259 308
#     4  10  20  34  53  76 104 141 183 225 267 316
#
# _framework density 18.031186999999999
#
# number of rings (size 3 to 8) (size 9 to 14) (size 15 to 20)
#    0.000    2.143    1.429    2.571    0.000    6.286 
#    0.000    2.857    0.000    1.714    0.000    0.000 
#    0.000    0.000    0.000    0.000    0.000    0.000 
#
# Total GULP energy -1041394.284044 kJ/mol
# GULP energy per Si atom -12397.551001 kJ/mol
# Density = 1.799015 g / cm^3
# Si number density = 18.031187 Si / 1000 Ang^3
#
#
#
# Elastic Constant Matrix: (Units=GPa)
#
#
# Indices 1 2 3 4 5 6 
#
# 1 88.5788 37.1782 38.1173 0.0000 0.0000 0.0000
# 2 37.1782 88.5788 38.1173 0.0000 0.0000 0.0000
# 3 38.1173 38.1173 76.9664 0.0000 0.0000 0.0000
# 4 0.0000 0.0000 0.0000 22.7945 0.0000 0.0000
# 5 0.0000 0.0000 0.0000 0.0000 22.7945 0.0000
# 6 0.0000 0.0000 0.0000 0.0000 0.0000 25.7003
#
#
#
# Elastic Compliance Matrix: (Units=1/GPa)
#
#
# Indices 1 2 3 4 5 6 
#
# 1 0.015409 -0.004046 -0.005628 0.000000 0.000000 0.000000
# 2 -0.004046 0.015409 -0.005628 0.000000 0.000000 0.000000
# 3 -0.005628 -0.005628 0.018567 0.000000 0.000000 0.000000
# 4 0.000000 0.000000 0.000000 0.043870 0.000000 0.000000
# 5 0.000000 0.000000 0.000000 0.000000 0.043870 0.000000
# 6 0.000000 0.000000 0.000000 0.000000 0.000000 0.038910
#
#
# Mechanical properties :
#
#
# Convention : Reuss Voigt Hill
#
# Bulk Modulus (GPa) = 53.23987 53.43885 53.33936
# Shear Modulus (GPa) = 23.48532 23.63861 23.56196
#
# Velocity S-wave (km/s) = 3.61291 3.62468 3.61880
# Velocity P-wave (km/s) = 6.85527 6.87161 6.86345
#
# Compressibility (1/GPa) = 0.01878292
#
# Stress axis : x y z
#
# Youngs Moduli (GPa) = 64.89630 64.89630 53.85949
#
# Poissons Ratio (x) = 0.26256 0.30310
# Poissons Ratio (y) = 0.26256 0.30310
# Poissons Ratio (z) = 0.36521 0.36521
#
# Static dielectric constant tensor:
#      x y z
#    x 3.395750 0.000000 0.000000 
#    y 0.000000 3.395750 0.000000 
#    z 0.000000 0.000000 3.087140 
# 
# 
# High freq. dielectric constant tensor:
#      x y z
#    x 1.701110 0.000000 0.000000 
#    y 0.000000 1.701110 0.000000 
#    z 0.000000 0.000000 1.663460 
# 
# From -- ./inp_files/2494.got.cif
#   From: 2010.03.12/outbox.cif.g09.slc.cpg/sg191_2_cif.got.tgz:2494.got - 2010.04.01 12:09:02.
