data_PCOD8329377
_publ_section_title
;
Structure prediction by ZEFSAII (Michael W. Deem and Ramdas Pophale) SiO2 
 PCOD8329377
Probable space group: P 6/M C C
;
_chemical_formula_sum "Si O2"
_cell_formula_units_Z 108
_cell_length_a 21.597100
_cell_length_b 21.597100
_cell_length_c 17.755891
_cell_angle_alpha 90.000000
_cell_angle_beta 90.000000
_cell_angle_gamma 120.000000
_cell_volume 7172.391387
_symmetry_space_group_name_H-M "P 6/M C C"
_symmetry_group_IT_number 192
_symmetry_cell_setting 'hexagonal'
loop_
_space_group_symop_operation_xyz
x,y,z
x-y,x,z
-y,x-y,z
-x,-y,z
-x+y,-x,z
y,-x+y,z
x-y,-y,1/2-z
-x,-x+y,1/2-z
y,x,1/2-z
-y,-x,1/2-z
-x+y,y,1/2-z
x,x-y,1/2-z
-x,-y,-z
-x+y,-x,-z
y,-x+y,-z
x,y,-z
x-y,x,-z
-y,x-y,-z
-x+y,y,1/2+z
x,x-y,1/2+z
-y,-x,1/2+z
y,x,1/2+z
x-y,-y,1/2+z
-x,-x+y,1/2+z
loop_
_atom_site_type_symbol
_atom_site_label
_atom_site_fract_x
_atom_site_fract_y
_atom_site_fract_z
Si Si1 0.706560 0.505644 0.312974
Si Si2 0.409248 0.344470 0.289338
Si Si3 0.500000 0.000000 0.142906
Si Si4 0.836120 0.557935 0.413867
Si Si5 0.849353 0.418912 0.416891
O O1 0.736887 0.473773 0.250000
O O2 0.680993 0.554652 0.272370
O O3 0.766227 0.552896 0.375785
O O4 0.639935 0.441075 0.355154
O O5 0.338336 0.338336 0.250000
O O6 0.460704 0.428402 0.307411
O O7 0.388688 0.295032 0.364380
O O8 0.444423 0.933523 0.091612
O O9 0.844722 0.585006 0.500000
O O10 0.830988 0.481478 0.407306
O O11 0.826393 0.385105 0.500000
#
# Coordination Sequence:
#
# PCOD8329377 Si02
#       5
#    24  24  12  24  24
#     4  10  20  31  46  61  81 112 139 166 213 265
#     4  10  18  29  47  66  84 101 129 174 219 261
#     4  10  18  28  48  68  89  95 130 180 236 266
#     4   9  20  34  45  60  86 111 137 170 214 268
#     4  10  19  31  48  66  85 108 137 179 223 270
#
# _framework density 15.057739
#
# number of rings (size 3 to 8) (size 9 to 14) (size 15 to 20)
#    0.000    2.222    2.222    1.333    3.111    3.556 
#    1.333    0.000    4.889    0.000    0.000    0.000 
#    0.000    0.000    0.000    0.000    0.000    0.000 
#
# Total GULP energy -1338094.292520 kJ/mol
# GULP energy per Si atom -12389.761968 kJ/mol
# Density = 1.502347 g / cm^3
# Si number density = 15.057739 Si / 1000 Ang^3
#
#
#
# Elastic Constant Matrix: (Units=GPa)
#
#
# Indices 1 2 3 4 5 6 
#
# 1 47.3945 11.0159 26.1113 0.0000 0.0000 0.0000
# 2 11.0159 47.3945 26.1113 0.0000 0.0000 0.0000
# 3 26.1113 26.1113 117.2249 0.0000 0.0000 0.0000
# 4 0.0000 0.0000 0.0000 21.2234 0.0000 0.0000
# 5 0.0000 0.0000 0.0000 0.0000 21.2234 0.0000
# 6 0.0000 0.0000 0.0000 0.0000 0.0000 18.1893
#
#
#
# Elastic Compliance Matrix: (Units=1/GPa)
#
#
# Indices 1 2 3 4 5 6 
#
# 1 0.024433 -0.003056 -0.004762 0.000000 0.000000 0.000000
# 2 -0.003056 0.024433 -0.004762 0.000000 0.000000 0.000000
# 3 -0.004762 -0.004762 0.010652 0.000000 0.000000 0.000000
# 4 0.000000 0.000000 0.000000 0.047118 0.000000 0.000000
# 5 0.000000 0.000000 0.000000 0.000000 0.047118 0.000000
# 6 0.000000 0.000000 0.000000 0.000000 0.000000 0.054977
#
#
# Mechanical properties :
#
#
# Convention : Reuss Voigt Hill
#
# Bulk Modulus (GPa) = 29.10359 37.61009 33.35684
# Shear Modulus (GPa) = 20.37968 22.04559 21.21264
#
# Velocity S-wave (km/s) = 3.68290 3.83047 3.75741
# Velocity P-wave (km/s) = 6.12004 6.67793 6.40507
#
# Compressibility (1/GPa) = 0.03436002
#
# Stress axis : x y z
#
# Youngs Moduli (GPa) = 40.92813 40.92813 93.87984
#
# Poissons Ratio (x) = 0.12506 0.44703
# Poissons Ratio (y) = 0.12506 0.44703
# Poissons Ratio (z) = 0.19489 0.19489
#
# Static dielectric constant tensor:
#      x y z
#    x 2.855780 0.000000 0.000000 
#    y 0.000000 2.855780 0.000000 
#    z 0.000000 0.000000 3.410430 
# 
# 
# High freq. dielectric constant tensor:
#      x y z
#    x 1.537280 0.000000 0.000000 
#    y 0.000000 1.537280 0.000000 
#    z 0.000000 0.000000 1.608890 
# 
# From -- ./inp_files/4139.got.cif
#   From: 2010.03.12/outbox.cif.g09.slc.cpg/sg192_3_cif.got.tgz:4139.got - 2010.04.01 12:16:15.
