data_PCOD8329163
_publ_section_title
;
Structure prediction by ZEFSAII (Michael W. Deem and Ramdas Pophale) SiO2 
 PCOD8329163
Probable space group: P 6/M M M
;
_chemical_formula_sum "Si O2"
_cell_formula_units_Z 108
_cell_length_a 25.451951
_cell_length_b 25.451951
_cell_length_c 12.036747
_cell_angle_alpha 90.000000
_cell_angle_beta 90.000000
_cell_angle_gamma 120.000000
_cell_volume 6752.769424
_symmetry_space_group_name_H-M "P 6/M M M"
_symmetry_group_IT_number 191
_symmetry_cell_setting 'hexagonal'
loop_
_space_group_symop_operation_xyz
x,y,z
x-y,x,z
-y,x-y,z
-x,-y,z
-x+y,-x,z
y,-x+y,z
x-y,-y,-z
-x,-x+y,-z
y,x,-z
-y,-x,-z
-x+y,y,-z
x,x-y,-z
-x,-y,-z
-x+y,-x,-z
y,-x+y,-z
x,y,-z
x-y,x,-z
-y,x-y,-z
-x+y,y,z
x,x-y,z
-y,-x,z
y,x,z
x-y,-y,z
-x,-x+y,z
loop_
_atom_site_type_symbol
_atom_site_label
_atom_site_fract_x
_atom_site_fract_y
_atom_site_fract_z
Si Si1 0.250981 0.929490 0.277267
Si Si2 0.724885 0.862443 0.868254
Si Si3 0.927894 0.366139 0.765228
Si Si4 0.072432 0.536216 0.374997
Si Si5 0.072199 0.476746 0.000000
Si Si6 0.068468 0.931533 0.867749
Si Si7 0.188299 0.258245 0.500000
O O1 0.205472 0.896866 0.176504
O O2 0.298658 0.905226 0.280879
O O3 0.216826 0.915444 0.394156
O O4 0.285186 0.000000 0.248838
O O5 0.794285 0.897143 0.824295
O O6 0.722005 0.861003 0.000000
O O7 0.902059 0.399220 0.686482
O O8 0.000000 0.404929 0.763699
O O9 0.903680 0.362410 0.890731
O O10 0.097633 0.548817 0.500000
O O11 0.000000 0.500000 0.373763
O O12 0.097462 0.548731 0.000000
O O13 0.000000 0.442131 0.000000
O O14 0.000000 0.896900 0.820728
O O15 0.067622 0.932379 0.000000
O O16 0.203346 0.203346 0.500000
O O17 0.115384 0.230768 0.500000
#
# Coordination Sequence:
#
# PCOD8329163 Si02
#       7
#    24  12  24  12  12  12  12
#     4  10  21  34  50  69  91 122 161 201 244 299
#     4  11  22  34  47  66  95 125 155 197 250 305
#     4   9  17  27  41  63  89 121 156 187 220 262
#     4   9  16  25  39  61  91 120 148 185 218 241
#     4   9  14  24  40  59  88 124 159 186 213 249
#     4   9  17  30  48  67  87 112 145 191 253 325
#     4  10  20  38  58  72  89 119 163 213 263 317
#
# _framework density 15.993439
#
# number of rings (size 3 to 8) (size 9 to 14) (size 15 to 20)
#    0.000    2.444    2.222    0.778    3.111    1.778 
#    0.000    0.000    0.000    0.111    0.000    0.000 
#    0.000    0.000    0.000    0.667    0.000    4.111 
#
# Total GULP energy -1339009.063742 kJ/mol
# GULP energy per Si atom -12398.232072 kJ/mol
# Density = 1.595704 g / cm^3
# Si number density = 15.993439 Si / 1000 Ang^3
#
#
#
# Elastic Constant Matrix: (Units=GPa)
#
#
# Indices 1 2 3 4 5 6 
#
# 1 88.8817 49.7179 40.5518 0.0000 0.0000 0.0000
# 2 49.7179 88.8817 40.5518 0.0000 0.0000 0.0000
# 3 40.5518 40.5518 111.7572 0.0000 0.0000 0.0000
# 4 0.0000 0.0000 0.0000 18.0688 0.0000 0.0000
# 5 0.0000 0.0000 0.0000 0.0000 18.0688 0.0000
# 6 0.0000 0.0000 0.0000 0.0000 0.0000 19.5819
#
#
#
# Elastic Compliance Matrix: (Units=1/GPa)
#
#
# Indices 1 2 3 4 5 6 
#
# 1 0.017347 -0.008187 -0.003324 0.000000 0.000000 0.000000
# 2 -0.008187 0.017347 -0.003324 0.000000 0.000000 0.000000
# 3 -0.003324 -0.003324 0.011360 0.000000 0.000000 0.000000
# 4 0.000000 0.000000 0.000000 0.055344 0.000000 0.000000
# 5 0.000000 0.000000 0.000000 0.000000 0.055344 0.000000
# 6 0.000000 0.000000 0.000000 0.000000 0.000000 0.051068
#
#
# Mechanical properties :
#
#
# Convention : Reuss Voigt Hill
#
# Bulk Modulus (GPa) = 61.03147 61.24040 61.13593
# Shear Modulus (GPa) = 20.58123 21.72385 21.15254
#
# Velocity S-wave (km/s) = 3.59117 3.68951 3.64067
# Velocity P-wave (km/s) = 7.44570 7.51825 7.48206
#
# Compressibility (1/GPa) = 0.01638499
#
# Stress axis : x y z
#
# Youngs Moduli (GPa) = 57.64727 57.64727 88.02770
#
# Poissons Ratio (x) = 0.47195 0.29258
# Poissons Ratio (y) = 0.47195 0.29258
# Poissons Ratio (z) = 0.19161 0.19161
#
# Static dielectric constant tensor:
#      x y z
#    x 2.925910 0.000000 0.000000 
#    y 0.000000 2.925910 0.000000 
#    z 0.000000 0.000000 3.119740 
# 
# 
# High freq. dielectric constant tensor:
#      x y z
#    x 1.584600 0.000000 0.000000 
#    y 0.000000 1.584600 0.000000 
#    z 0.000000 0.000000 1.623160 
# 
# From -- ./inp_files/3040.got.cif
#   From: 2010.03.12/outbox.cif.g09.slc.cpg/sg191_2_cif.got.tgz:3040.got - 2010.04.01 12:09:02.
