data_PCOD8329925
_publ_section_title
;
Structure prediction by ZEFSAII (Michael W. Deem and Ramdas Pophale) SiO2 
 PCOD8329925
Probable space group: P 63/M C M
;
_chemical_formula_sum "Si O2"
_cell_formula_units_Z 144
_cell_length_a 20.652645
_cell_length_b 20.652645
_cell_length_c 23.145493
_cell_angle_alpha 90.000000
_cell_angle_beta 90.000000
_cell_angle_gamma 120.000000
_cell_volume 8549.651794
_symmetry_space_group_name_H-M "P 63/M C M"
_symmetry_group_IT_number 193
_symmetry_cell_setting 'hexagonal'
loop_
_space_group_symop_operation_xyz
x,y,z
x-y,x,1/2+z
-y,x-y,z
-x,-y,1/2+z
-x+y,-x,z
y,-x+y,1/2+z
x-y,-y,1/2-z
-x,-x+y,1/2-z
y,x,1/2-z
-y,-x,-z
-x+y,y,-z
x,x-y,-z
-x,-y,-z
-x+y,-x,1/2-z
y,-x+y,-z
x,y,1/2-z
x-y,x,-z
-y,x-y,1/2-z
-x+y,y,1/2+z
x,x-y,1/2+z
-y,-x,1/2+z
y,x,z
x-y,-y,z
-x,-x+y,z
loop_
_atom_site_type_symbol
_atom_site_label
_atom_site_fract_x
_atom_site_fract_y
_atom_site_fract_z
Si Si1 0.382106 0.470609 0.497317
Si Si2 0.340360 0.169169 0.180769
Si Si3 0.088389 0.670925 0.618645
Si Si4 0.453132 0.541998 0.813791
Si Si5 0.418830 0.330128 0.375656
Si Si6 0.167707 0.083833 0.681600
O O1 0.439061 0.560940 0.500000
O O2 0.434215 0.434215 0.494937
O O3 0.326179 0.438356 0.551886
O O4 0.328448 0.444645 0.441314
O O5 0.352382 0.172133 0.250000
O O6 0.377100 0.127150 0.149266
O O7 0.374767 0.250372 0.153784
O O8 0.253741 0.125524 0.163474
O O9 0.118377 0.621462 0.649352
O O10 0.000000 0.635773 0.625670
O O11 0.429505 0.551611 0.750000
O O12 0.497792 0.497792 0.813742
O O13 0.504905 0.623232 0.840241
O O14 0.366326 0.366326 0.372154
O O15 0.160338 0.079882 0.750000
O O16 0.126408 0.126408 0.655832
O O17 0.128474 0.000000 0.655744
#
# Coordination Sequence:
#
# PCOD8329925 Si02
#       6
#    24  24  24  24  24  24
#     4   9  16  31  54  78  99 124 164 213 258 300
#     4  11  22  32  45  73 112 145 173 218 277 324
#     4  10  19  32  51  74 101 133 171 212 258 313
#     4   9  16  27  47  72  95 123 160 199 240 298
#     4  10  19  32  51  74 101 133 171 212 258 313
#     4   9  17  30  48  69  98 141 189 230 269 321
#
# _framework density 16.842791999999999
#
# number of rings (size 3 to 8) (size 9 to 14) (size 15 to 20)
#    0.000    2.333    1.667    2.167    0.000    4.667 
#    0.000    0.000    0.000    0.667    0.000    2.333 
#    0.000    0.000    0.000   12.667    0.000    4.000 
#
# Total GULP energy -1784960.221124 kJ/mol
# GULP energy per Si atom -12395.557091 kJ/mol
# Density = 1.680446 g / cm^3
# Si number density = 16.842792 Si / 1000 Ang^3
#
#
#
# Elastic Constant Matrix: (Units=GPa)
#
#
# Indices 1 2 3 4 5 6 
#
# 1 88.1717 47.9473 21.8449 0.0000 0.0000 0.0000
# 2 47.9473 88.1717 21.8449 0.0000 0.0000 0.0000
# 3 21.8449 21.8449 80.4941 0.0000 0.0000 0.0000
# 4 0.0000 0.0000 0.0000 20.9068 0.0000 0.0000
# 5 0.0000 0.0000 0.0000 0.0000 20.9068 0.0000
# 6 0.0000 0.0000 0.0000 0.0000 0.0000 20.1122
#
#
#
# Elastic Compliance Matrix: (Units=1/GPa)
#
#
# Indices 1 2 3 4 5 6 
#
# 1 0.016454 -0.008407 -0.002184 0.000000 0.000000 0.000000
# 2 -0.008407 0.016454 -0.002184 0.000000 0.000000 0.000000
# 3 -0.002184 -0.002184 0.013609 0.000000 0.000000 0.000000
# 4 0.000000 0.000000 0.000000 0.047831 0.000000 0.000000
# 5 0.000000 0.000000 0.000000 0.000000 0.047831 0.000000
# 6 0.000000 0.000000 0.000000 0.000000 0.000000 0.049721
#
#
# Mechanical properties :
#
#
# Convention : Reuss Voigt Hill
#
# Bulk Modulus (GPa) = 47.69222 48.90129 48.29675
# Shear Modulus (GPa) = 22.27781 23.39852 22.83817
#
# Velocity S-wave (km/s) = 3.64083 3.73128 3.68633
# Velocity P-wave (km/s) = 6.78614 6.90364 6.84514
#
# Compressibility (1/GPa) = 0.02096778
#
# Stress axis : x y z
#
# Youngs Moduli (GPa) = 60.77546 60.77546 73.48260
#
# Poissons Ratio (x) = 0.51091 0.16048
# Poissons Ratio (y) = 0.51091 0.16048
# Poissons Ratio (z) = 0.13273 0.13273
#
# Static dielectric constant tensor:
#      x y z
#    x 3.090410 0.000000 0.000000 
#    y 0.000000 3.090410 0.000000 
#    z 0.000000 0.000000 3.334770 
# 
# 
# High freq. dielectric constant tensor:
#      x y z
#    x 1.635240 0.000000 0.000000 
#    y 0.000000 1.635240 0.000000 
#    z 0.000000 0.000000 1.646530 
# 
# From -- ./inp_files/6611.got.cif
#   From: 2010.03.12/outbox.cif.g09.slc.cpg/sg193_4_cif.got.tgz:6611.got - 2010.04.01 12:20:39.
