data_PCOD8329140
_publ_section_title
;
Structure prediction by ZEFSAII (Michael W. Deem and Ramdas Pophale) SiO2 
 PCOD8329140
Probable space group: P 6/M M M
;
_chemical_formula_sum "Si O2"
_cell_formula_units_Z 144
_cell_length_a 20.807882
_cell_length_b 20.807882
_cell_length_c 21.728847
_cell_angle_alpha 90.000000
_cell_angle_beta 90.000000
_cell_angle_gamma 120.000000
_cell_volume 8147.475558
_symmetry_space_group_name_H-M "P 6/M M M"
_symmetry_group_IT_number 191
_symmetry_cell_setting 'hexagonal'
loop_
_space_group_symop_operation_xyz
x,y,z
x-y,x,z
-y,x-y,z
-x,-y,z
-x+y,-x,z
y,-x+y,z
x-y,-y,-z
-x,-x+y,-z
y,x,-z
-y,-x,-z
-x+y,y,-z
x,x-y,-z
-x,-y,-z
-x+y,-x,-z
y,-x+y,-z
x,y,-z
x-y,x,-z
-y,x-y,-z
-x+y,y,z
x,x-y,z
-y,-x,z
y,x,z
x-y,-y,z
-x,-x+y,z
loop_
_atom_site_type_symbol
_atom_site_label
_atom_site_fract_x
_atom_site_fract_y
_atom_site_fract_z
Si Si1 0.777486 0.696673 0.650837
Si Si2 0.290366 0.433773 0.892658
Si Si3 0.084878 0.426663 0.429425
Si Si4 0.598206 0.683287 0.240151
Si Si5 0.522702 0.336080 0.327448
Si Si6 0.456922 0.543079 0.072855
Si Si7 0.085055 0.766524 0.000000
O O1 0.863982 0.727964 0.644107
O O2 0.768276 0.768276 0.647546
O O3 0.734706 0.641601 0.594788
O O4 0.748354 0.655530 0.715748
O O5 0.231225 0.462449 0.900767
O O6 0.281428 0.397917 0.825880
O O7 0.373437 0.502019 0.901158
O O8 0.272956 0.368943 0.940852
O O9 0.110052 0.442380 0.500000
O O10 0.138748 0.498719 0.390056
O O11 0.000000 0.407854 0.421187
O O12 0.617459 0.617459 0.235465
O O13 0.516557 0.650400 0.268959
O O14 0.502063 0.251032 0.330725
O O15 0.610700 0.389300 0.319567
O O16 0.500000 0.500000 0.094354
O O17 0.454256 0.545745 0.000000
O O18 0.144577 0.855424 0.000000
O O19 0.000000 0.750520 0.000000
#
# Coordination Sequence:
#
# PCOD8329140 Si02
#       7
#    24  24  24  24  24  12  12
#     4   9  17  30  49  74 102 130 161 200 247 298
#     4  11  22  37  56  80 107 139 177 221 272 317
#     4   9  18  33  54  77  97 120 157 211 264 300
#     4  10  20  35  57  79  99 125 165 216 266 308
#     4  11  23  37  51  70 100 136 171 204 245 302
#     4  11  22  36  56  78 108 144 185 225 269 319
#     4  10  20  35  57  82 111 139 173 217 263 315
#
# _framework density 17.674185999999999
#
# number of rings (size 3 to 8) (size 9 to 14) (size 15 to 20)
#    0.000    1.917    0.833    6.167    1.167    3.000 
#    0.500    0.833    0.000    1.250    0.000    0.000 
#    0.000    0.000    0.000    9.500    0.000    0.000 
#
# Total GULP energy -1785522.760509 kJ/mol
# GULP energy per Si atom -12399.463615 kJ/mol
# Density = 1.763396 g / cm^3
# Si number density = 17.674186 Si / 1000 Ang^3
#
#
#
# Elastic Constant Matrix: (Units=GPa)
#
#
# Indices 1 2 3 4 5 6 
#
# 1 101.5600 52.7538 24.5105 0.0000 0.0000 0.0000
# 2 52.7538 101.5600 24.5105 0.0000 0.0000 0.0000
# 3 24.5105 24.5105 115.3942 0.0000 0.0000 0.0000
# 4 0.0000 0.0000 0.0000 11.8366 0.0000 0.0000
# 5 0.0000 0.0000 0.0000 0.0000 11.8366 0.0000
# 6 0.0000 0.0000 0.0000 0.0000 0.0000 24.4031
#
#
#
# Elastic Compliance Matrix: (Units=1/GPa)
#
#
# Indices 1 2 3 4 5 6 
#
# 1 0.013719 -0.006770 -0.001476 0.000000 0.000000 0.000000
# 2 -0.006770 0.013719 -0.001476 0.000000 0.000000 0.000000
# 3 -0.001476 -0.001476 0.009293 0.000000 0.000000 0.000000
# 4 0.000000 0.000000 0.000000 0.084484 0.000000 0.000000
# 5 0.000000 0.000000 0.000000 0.000000 0.084484 0.000000
# 6 0.000000 0.000000 0.000000 0.000000 0.000000 0.040978
#
#
# Mechanical properties :
#
#
# Convention : Reuss Voigt Hill
#
# Bulk Modulus (GPa) = 57.84637 58.00710 57.92673
# Shear Modulus (GPa) = 18.39019 24.06453 21.22736
#
# Velocity S-wave (km/s) = 3.22920 3.69394 3.46936
# Velocity P-wave (km/s) = 6.83403 7.14738 6.99246
#
# Compressibility (1/GPa) = 0.01728717
#
# Stress axis : x y z
#
# Youngs Moduli (GPa) = 72.89047 72.89047 107.60790
#
# Poissons Ratio (x) = 0.49347 0.15884
# Poissons Ratio (y) = 0.49347 0.15884
# Poissons Ratio (z) = 0.10759 0.10759
#
# Static dielectric constant tensor:
#      x y z
#    x 3.187470 0.000000 0.000000 
#    y 0.000000 3.187470 0.000000 
#    z 0.000000 0.000000 3.476760 
# 
# 
# High freq. dielectric constant tensor:
#      x y z
#    x 1.669630 0.000000 0.000000 
#    y 0.000000 1.669630 0.000000 
#    z 0.000000 0.000000 1.696310 
# 
# From -- ./inp_files/7675.got.cif
#   From: 2010.03.12/outbox.cif.g09.slc.cpg/sg191_4_cif.got.tgz:7675.got - 2010.04.01 12:09:02.
