data_PCOD8329498
_publ_section_title
;
Structure prediction by ZEFSAII (Michael W. Deem and Ramdas Pophale) SiO2 
 PCOD8329498
Probable space group: P 6/M C C
;
_chemical_formula_sum "Si O2"
_cell_formula_units_Z 84
_cell_length_a 18.176184
_cell_length_b 18.176184
_cell_length_c 14.282346
_cell_angle_alpha 90.000000
_cell_angle_beta 90.000000
_cell_angle_gamma 120.000000
_cell_volume 4086.350385
_symmetry_space_group_name_H-M "P 6/M C C"
_symmetry_group_IT_number 192
_symmetry_cell_setting 'hexagonal'
loop_
_space_group_symop_operation_xyz
x,y,z
x-y,x,z
-y,x-y,z
-x,-y,z
-x+y,-x,z
y,-x+y,z
x-y,-y,1/2-z
-x,-x+y,1/2-z
y,x,1/2-z
-y,-x,1/2-z
-x+y,y,1/2-z
x,x-y,1/2-z
-x,-y,-z
-x+y,-x,-z
y,-x+y,-z
x,y,-z
x-y,x,-z
-y,x-y,-z
-x+y,y,1/2+z
x,x-y,1/2+z
-y,-x,1/2+z
y,x,1/2+z
x-y,-y,1/2+z
-x,-x+y,1/2+z
loop_
_atom_site_type_symbol
_atom_site_label
_atom_site_fract_x
_atom_site_fract_y
_atom_site_fract_z
Si Si1 0.713092 0.039160 0.500000
Si Si2 0.859660 0.470497 0.500000
Si Si3 0.225297 0.725294 0.156791
Si Si4 0.446446 0.310788 0.000000
Si Si5 0.231877 0.912239 0.301411
O O1 0.651504 0.079999 0.500000
O O2 0.775651 0.068629 0.410846
O O3 0.650834 0.938145 0.500000
O O4 0.799022 0.442491 0.407638
O O5 0.904718 0.413728 0.500000
O O6 0.276237 0.723764 0.250000
O O7 0.140787 0.719238 0.202401
O O8 0.271519 0.809581 0.093162
O O9 0.139862 0.860139 0.250000
O O10 0.290372 0.000000 0.250000
#
# Coordination Sequence:
#
# PCOD8329498 Si02
#       5
#    12  12  24  12  24
#     4  10  19  34  57  83 114 155 187 244 308 327
#     4   9  20  33  50  81 110 146 199 251 289 344
#     4   9  19  36  54  76 110 151 194 242 294 339
#     4  11  20  35  57  80 116 149 198 243 283 358
#     4  10  20  35  58  87 114 144 189 234 283 351
#
# _framework density 20.556239000000001
#
# number of rings (size 3 to 8) (size 9 to 14) (size 15 to 20)
#    0.000    2.286    0.000    4.714    0.000    2.286 
#    6.857    0.000    0.000    8.857    0.000    0.000 
#    0.000    4.571    0.000    0.000    0.000    0.000 
#
# Total GULP energy -1040772.386927 kJ/mol
# GULP energy per Si atom -12390.147463 kJ/mol
# Density = 2.050945 g / cm^3
# Si number density = 20.556239 Si / 1000 Ang^3
#
#
#
# Elastic Constant Matrix: (Units=GPa)
#
#
# Indices 1 2 3 4 5 6 
#
# 1 68.6382 26.1519 35.2049 0.0000 0.0000 0.0000
# 2 26.1519 68.6382 35.2049 0.0000 0.0000 0.0000
# 3 35.2049 35.2049 183.3223 0.0000 0.0000 0.0000
# 4 0.0000 0.0000 0.0000 14.2083 0.0000 0.0000
# 5 0.0000 0.0000 0.0000 0.0000 14.2083 0.0000
# 6 0.0000 0.0000 0.0000 0.0000 0.0000 21.2432
#
#
#
# Elastic Compliance Matrix: (Units=1/GPa)
#
#
# Indices 1 2 3 4 5 6 
#
# 1 0.017921 -0.005616 -0.002363 0.000000 0.000000 0.000000
# 2 -0.005616 0.017921 -0.002363 0.000000 0.000000 0.000000
# 3 -0.002363 -0.002363 0.006362 0.000000 0.000000 0.000000
# 4 0.000000 0.000000 0.000000 0.070381 0.000000 0.000000
# 5 0.000000 0.000000 0.000000 0.000000 0.070381 0.000000
# 6 0.000000 0.000000 0.000000 0.000000 0.000000 0.047074
#
#
# Mechanical properties :
#
#
# Convention : Reuss Voigt Hill
#
# Bulk Modulus (GPa) = 46.46812 57.08027 51.77420
# Shear Modulus (GPa) = 19.38748 24.86776 22.12762
#
# Velocity S-wave (km/s) = 3.07440 3.48191 3.28448
# Velocity P-wave (km/s) = 5.93776 6.63273 6.29484
#
# Compressibility (1/GPa) = 0.02152013
#
# Stress axis : x y z
#
# Youngs Moduli (GPa) = 55.80070 55.80070 157.17221
#
# Poissons Ratio (x) = 0.31338 0.37140
# Poissons Ratio (y) = 0.31338 0.37140
# Poissons Ratio (z) = 0.13186 0.13186
#
# Static dielectric constant tensor:
#      x y z
#    x 3.477550 0.000000 0.000000 
#    y 0.000000 3.477550 0.000000 
#    z 0.000000 0.000000 4.499530 
# 
# 
# High freq. dielectric constant tensor:
#      x y z
#    x 1.770020 0.000000 0.000000 
#    y 0.000000 1.770020 0.000000 
#    z 0.000000 0.000000 1.839310 
# 
# From -- ./inp_files/2600.got.cif
#   From: 2010.03.12/outbox.cif.g09.slc.cpg/sg192_2_cif.got.tgz:2600.got - 2010.04.01 12:16:15.
