data_PCOD8329205
_publ_section_title
;
Structure prediction by ZEFSAII (Michael W. Deem and Ramdas Pophale) SiO2 
 PCOD8329205
Probable space group: P 6/M M M
;
_chemical_formula_sum "Si O2"
_cell_formula_units_Z 144
_cell_length_a 32.072328
_cell_length_b 32.072328
_cell_length_c 9.161437
_cell_angle_alpha 90.000000
_cell_angle_beta 90.000000
_cell_angle_gamma 120.000000
_cell_volume 8161.222170
_symmetry_space_group_name_H-M "P 6/M M M"
_symmetry_group_IT_number 191
_symmetry_cell_setting 'hexagonal'
loop_
_space_group_symop_operation_xyz
x,y,z
x-y,x,z
-y,x-y,z
-x,-y,z
-x+y,-x,z
y,-x+y,z
x-y,-y,-z
-x,-x+y,-z
y,x,-z
-y,-x,-z
-x+y,y,-z
x,x-y,-z
-x,-y,-z
-x+y,-x,-z
y,-x+y,-z
x,y,-z
x-y,x,-z
-y,x-y,-z
-x+y,y,z
x,x-y,z
-y,-x,z
y,x,z
x-y,-y,z
-x,-x+y,z
loop_
_atom_site_type_symbol
_atom_site_label
_atom_site_fract_x
_atom_site_fract_y
_atom_site_fract_z
Si Si1 0.144900 0.197815 0.828694
Si Si2 0.857649 0.379913 0.663232
Si Si3 0.899856 0.194100 0.331024
Si Si4 0.945208 0.301676 0.666001
Si Si5 0.385208 0.944896 0.171748
Si Si6 0.333098 0.763068 0.170888
O O1 0.091213 0.182425 0.774025
O O2 0.155640 0.155640 0.782687
O O3 0.184082 0.247356 0.757178
O O4 0.149785 0.206568 0.000000
O O5 0.859835 0.361630 0.500000
O O6 0.852052 0.426026 0.653764
O O7 0.907214 0.396120 0.748263
O O8 0.810304 0.338826 0.746285
O O9 0.910976 0.191946 0.500000
O O10 0.844683 0.155318 0.291581
O O11 0.909292 0.246630 0.289076
O O12 0.935541 0.311893 0.500000
O O13 0.934093 0.333018 0.777276
O O14 0.000000 0.313305 0.682005
O O15 0.425456 0.000000 0.212988
O O16 0.384459 0.936677 0.000000
O O17 0.376664 0.753328 0.208367
O O18 0.283468 0.716533 0.221794
O O19 0.332161 0.772652 0.000000
#
# Coordination Sequence:
#
# PCOD8329205 Si02
#       6
#    24  24  24  24  24  24
#     4   9  17  28  42  61  86 116 149 187 232 280
#     4  10  21  36  54  77 105 136 169 206 249 296
#     4   9  17  29  46  69  95 121 151 187 227 274
#     4   9  17  30  48  68  92 123 156 191 234 284
#     4  10  21  36  54  75  97 125 165 210 253 297
#     4   9  17  31  53  80 109 140 173 208 246 289
#
# _framework density 17.644416
#
# number of rings (size 3 to 8) (size 9 to 14) (size 15 to 20)
#    0.000    2.667    0.000    1.667    0.000    5.000 
#    0.000    4.167    0.000    4.167    0.000    1.167 
#    0.000    0.000    0.000    4.167    0.000    4.333 
#
# Total GULP energy -1785313.208310 kJ/mol
# GULP energy per Si atom -12398.008391 kJ/mol
# Density = 1.760426 g / cm^3
# Si number density = 17.644416 Si / 1000 Ang^3
#
#
#
# Elastic Constant Matrix: (Units=GPa)
#
#
# Indices 1 2 3 4 5 6 
#
# 1 79.0320 33.0151 37.0815 0.0000 0.0000 0.0000
# 2 33.0151 79.0320 37.0815 0.0000 0.0000 0.0000
# 3 37.0815 37.0815 67.7061 0.0000 0.0000 0.0000
# 4 0.0000 0.0000 0.0000 25.9839 0.0000 0.0000
# 5 0.0000 0.0000 0.0000 0.0000 25.9839 0.0000
# 6 0.0000 0.0000 0.0000 0.0000 0.0000 23.0085
#
#
#
# Elastic Compliance Matrix: (Units=1/GPa)
#
#
# Indices 1 2 3 4 5 6 
#
# 1 0.017865 -0.003866 -0.007667 0.000000 0.000000 0.000000
# 2 -0.003866 0.017865 -0.007667 0.000000 0.000000 0.000000
# 3 -0.007667 -0.007667 0.023168 0.000000 0.000000 0.000000
# 4 0.000000 0.000000 0.000000 0.038485 0.000000 0.000000
# 5 0.000000 0.000000 0.000000 0.000000 0.038485 0.000000
# 6 0.000000 0.000000 0.000000 0.000000 0.000000 0.043462
#
#
# Mechanical properties :
#
#
# Convention : Reuss Voigt Hill
#
# Bulk Modulus (GPa) = 48.78477 48.90291 48.84384
# Shear Modulus (GPa) = 22.26513 22.90139 22.58326
#
# Velocity S-wave (km/s) = 3.55615 3.60660 3.58146
# Velocity P-wave (km/s) = 6.67611 6.71710 6.69664
#
# Compressibility (1/GPa) = 0.02049820
#
# Stress axis : x y z
#
# Youngs Moduli (GPa) = 55.97382 55.97382 43.16221
#
# Poissons Ratio (x) = 0.21637 0.33095
# Poissons Ratio (y) = 0.21637 0.33095
# Poissons Ratio (z) = 0.42918 0.42918
#
# Static dielectric constant tensor:
#      x y z
#    x 3.306140 0.000000 0.000000 
#    y 0.000000 3.306140 0.000000 
#    z 0.000000 0.000000 3.364020 
# 
# 
# High freq. dielectric constant tensor:
#      x y z
#    x 1.674080 0.000000 0.000000 
#    y 0.000000 1.674080 0.000000 
#    z 0.000000 0.000000 1.683530 
# 
# From -- ./inp_files/1957.got.cif
#   From: 2010.03.12/outbox.cif.g09.slc.cpg/sg191_1_cif.got.tgz:1957.got - 2010.04.01 12:09:02.
