data_PCOD8329816
_publ_section_title
;
Structure prediction by ZEFSAII (Michael W. Deem and Ramdas Pophale) SiO2 
 PCOD8329816
Probable space group: P 63/M C M
;
_chemical_formula_sum "Si O2"
_cell_formula_units_Z 96
_cell_length_a 28.191550
_cell_length_b 28.191550
_cell_length_c 8.739693
_cell_angle_alpha 90.000000
_cell_angle_beta 90.000000
_cell_angle_gamma 120.000000
_cell_volume 6015.402861
_symmetry_space_group_name_H-M "P 63/M C M"
_symmetry_group_IT_number 193
_symmetry_cell_setting 'hexagonal'
loop_
_space_group_symop_operation_xyz
x,y,z
x-y,x,1/2+z
-y,x-y,z
-x,-y,1/2+z
-x+y,-x,z
y,-x+y,1/2+z
x-y,-y,1/2-z
-x,-x+y,1/2-z
y,x,1/2-z
-y,-x,-z
-x+y,y,-z
x,x-y,-z
-x,-y,-z
-x+y,-x,1/2-z
y,-x+y,-z
x,y,1/2-z
x-y,x,-z
-y,x-y,1/2-z
-x+y,y,1/2+z
x,x-y,1/2+z
-y,-x,1/2+z
y,x,z
x-y,-y,z
-x,-x+y,z
loop_
_atom_site_type_symbol
_atom_site_label
_atom_site_fract_x
_atom_site_fract_y
_atom_site_fract_z
Si Si1 0.404889 0.404889 0.931444
Si Si2 0.821770 0.549078 0.427729
Si Si3 0.893572 0.397483 0.572231
Si Si4 0.785023 0.667183 0.430818
Si Si5 0.702106 0.702106 0.068859
O O1 0.404779 0.404779 0.750000
O O2 0.351349 0.351349 0.998906
O O3 0.406219 0.458882 0.988800
O O4 0.760991 0.521982 0.500000
O O5 0.820162 0.562056 0.250000
O O6 0.843766 0.507416 0.454749
O O7 0.860733 0.605821 0.512928
O O8 0.874195 0.437098 0.500000
O O9 0.907064 0.410575 0.750000
O O10 0.846051 0.692102 0.500000
O O11 0.789682 0.666870 0.250000
O O12 0.757718 0.703335 0.484910
O O13 0.697247 0.697247 0.250000
#
# Coordination Sequence:
#
# PCOD8329816 Si02
#       5
#    12  24  24  24  12
#     4  11  20  34  51  69  96 132 162 193 235 283
#     4  10  20  33  50  71  92 116 149 190 233 282
#     4  11  23  36  50  71  96 124 157 195 238 289
#     4  10  18  31  48  70  95 126 162 195 231 274
#     4   9  18  30  48  69  97 132 163 193 234 277
#
# _framework density 15.959032000000001
#
# number of rings (size 3 to 8) (size 9 to 14) (size 15 to 20)
#    0.000    1.750    2.500    4.500    0.000    3.000 
#    0.000    2.500    0.000    0.500    0.000    0.000 
#    0.000    0.000    0.000    0.375    0.000    4.500 
#
# Total GULP energy -1190318.160334 kJ/mol
# GULP energy per Si atom -12399.147503 kJ/mol
# Density = 1.592271 g / cm^3
# Si number density = 15.959032 Si / 1000 Ang^3
#
#
#
# Elastic Constant Matrix: (Units=GPa)
#
#
# Indices 1 2 3 4 5 6 
#
# 1 90.7653 86.2546 43.8232 0.0000 0.0000 0.0000
# 2 86.2546 90.7653 43.8232 0.0000 0.0000 0.0000
# 3 43.8232 43.8232 88.3537 0.0000 0.0000 0.0000
# 4 0.0000 0.0000 0.0000 22.0334 0.0000 0.0000
# 5 0.0000 0.0000 0.0000 0.0000 22.0334 0.0000
# 6 0.0000 0.0000 0.0000 0.0000 0.0000 2.2553
#
#
#
# Elastic Compliance Matrix: (Units=1/GPa)
#
#
# Indices 1 2 3 4 5 6 
#
# 1 0.114593 -0.107105 -0.003714 0.000000 0.000000 0.000000
# 2 -0.107105 0.114593 -0.003714 0.000000 0.000000 0.000000
# 3 -0.003714 -0.003714 0.015002 0.000000 0.000000 0.000000
# 4 0.000000 0.000000 0.000000 0.045386 0.000000 0.000000
# 5 0.000000 0.000000 0.000000 0.000000 0.045386 0.000000
# 6 0.000000 0.000000 0.000000 0.000000 0.000000 0.443396
#
#
# Mechanical properties :
#
#
# Convention : Reuss Voigt Hill
#
# Bulk Modulus (GPa) = 66.12747 68.63183 67.37965
# Shear Modulus (GPa) = 4.93845 15.66330 10.30088
#
# Velocity S-wave (km/s) = 1.76101 3.13624 2.54334
# Velocity P-wave (km/s) = 6.75726 7.49754 7.13700
#
# Compressibility (1/GPa) = 0.01512231
#
# Stress axis : x y z
#
# Youngs Moduli (GPa) = 8.72653 8.72653 66.65588
#
# Poissons Ratio (x) = 0.93466 0.24756
# Poissons Ratio (y) = 0.93466 0.24756
# Poissons Ratio (z) = 0.03241 0.03241
#
# Static dielectric constant tensor:
#      x y z
#    x 2.969040 0.000000 0.000000 
#    y 0.000000 2.969040 0.000000 
#    z 0.000000 0.000000 3.130530 
# 
# 
# High freq. dielectric constant tensor:
#      x y z
#    x 1.597400 0.000000 0.000000 
#    y 0.000000 1.597400 0.000000 
#    z 0.000000 0.000000 1.625590 
# 
# From -- ./inp_files/1266.got.cif
#   From: 2010.03.12/outbox.cif.g09.slc.cpg/sg193_1_cif.got.tgz:1266.got - 2010.04.01 12:20:39.
