data_PCOD8329669
_publ_section_title
;
Structure prediction by ZEFSAII (Michael W. Deem and Ramdas Pophale) SiO2 
 PCOD8329669
Probable space group: P 6/M C C
;
_chemical_formula_sum "Si O2"
_cell_formula_units_Z 128
_cell_length_a 20.410872
_cell_length_b 20.410872
_cell_length_c 17.216503
_cell_angle_alpha 90.000000
_cell_angle_beta 90.000000
_cell_angle_gamma 120.000000
_cell_volume 6211.531510
_symmetry_space_group_name_H-M "P 6/M C C"
_symmetry_group_IT_number 192
_symmetry_cell_setting 'hexagonal'
loop_
_space_group_symop_operation_xyz
x,y,z
x-y,x,z
-y,x-y,z
-x,-y,z
-x+y,-x,z
y,-x+y,z
x-y,-y,1/2-z
-x,-x+y,1/2-z
y,x,1/2-z
-y,-x,1/2-z
-x+y,y,1/2-z
x,x-y,1/2-z
-x,-y,-z
-x+y,-x,-z
y,-x+y,-z
x,y,-z
x-y,x,-z
-y,x-y,-z
-x+y,y,1/2+z
x,x-y,1/2+z
-y,-x,1/2+z
y,x,1/2+z
x-y,-y,1/2+z
-x,-x+y,1/2+z
loop_
_atom_site_type_symbol
_atom_site_label
_atom_site_fract_x
_atom_site_fract_y
_atom_site_fract_z
Si Si1 0.836187 0.418098 0.342056
Si Si2 0.141684 0.433586 0.591856
Si Si3 0.291908 0.858316 0.908144
Si Si4 0.666667 0.333334 0.342183
Si Si5 0.710734 0.000001 0.840252
Si Si6 0.152215 0.000006 0.411358
O O1 0.840672 0.420336 0.250000
O O2 0.875457 0.503134 0.373761
O O3 0.875451 0.372328 0.373766
O O4 0.751062 0.375543 0.374880
O O5 0.140614 0.437006 0.500000
O O6 0.222313 0.444624 0.621357
O O7 0.075182 0.353890 0.620003
O O8 0.278724 0.924823 0.879997
O O9 0.296394 0.859386 0.000000
O O10 0.666668 0.333334 0.250000
O O11 0.788236 0.000009 0.851511
O O12 0.692450 0.000000 0.750000
O O13 0.144088 0.072048 0.394351
O O14 0.178647 0.000007 0.500000
#
# Coordination Sequence:
#
# PCOD8329669 Si02
#       6
#    24  24  24   8  24  24
#     4  11  21  38  64  95 127 161 202 252 309 365
#     4  11  24  42  64  91 123 162 207 255 306 365
#     4  11  24  42  64  91 123 162 207 255 306 365
#     4   9  18  33  58  92 127 159 193 245 307 360
#     4  12  26  42  62  89 124 167 209 253 308 370
#     4  10  21  40  67  97 128 163 204 251 303 363
#
# _framework density 20.606835
#
# number of rings (size 3 to 8) (size 9 to 14) (size 15 to 20)
#    0.000    1.125    1.875    4.688    0.000    9.000 
#    0.000    3.750    0.000    1.125    0.000    0.000 
#    0.000    0.000    0.000    0.000    0.000    0.000 
#
# Total GULP energy -1587893.316519 kJ/mol
# GULP energy per Si atom -12405.416535 kJ/mol
# Density = 2.055993 g / cm^3
# Si number density = 20.606835 Si / 1000 Ang^3
#
#
#
# Elastic Constant Matrix: (Units=GPa)
#
#
# Indices 1 2 3 4 5 6 
#
# 1 131.9676 50.3733 37.8762 0.0000 0.0000 0.0000
# 2 50.3733 131.9671 37.8763 0.0000 0.0000 0.0000
# 3 37.8762 37.8763 86.8900 0.0000 0.0000 0.0000
# 4 0.0000 0.0000 0.0000 32.0435 0.0000 0.0000
# 5 0.0000 0.0000 0.0000 0.0000 32.0436 0.0000
# 6 0.0000 0.0000 0.0000 0.0000 0.0000 40.7971
#
#
#
# Elastic Compliance Matrix: (Units=1/GPa)
#
#
# Indices 1 2 3 4 5 6 
#
# 1 0.009476 -0.002779 -0.002919 0.000000 0.000000 0.000000
# 2 -0.002779 0.009476 -0.002919 0.000000 0.000000 0.000000
# 3 -0.002919 -0.002919 0.014054 0.000000 0.000000 0.000000
# 4 0.000000 0.000000 0.000000 0.031208 0.000000 0.000000
# 5 0.000000 0.000000 0.000000 0.000000 0.031208 0.000000
# 6 0.000000 0.000000 0.000000 0.000000 0.000000 0.024512
#
#
# Mechanical properties :
#
#
# Convention : Reuss Voigt Hill
#
# Bulk Modulus (GPa) = 63.40843 67.00846 65.20845
# Shear Modulus (GPa) = 35.10587 35.95676 35.53132
#
# Velocity S-wave (km/s) = 4.13195 4.18173 4.15691
# Velocity P-wave (km/s) = 7.32130 7.47689 7.39951
#
# Compressibility (1/GPa) = 0.01577077
#
# Stress axis : x y z
#
# Youngs Moduli (GPa) = 105.52529 105.52482 71.15457
#
# Poissons Ratio (x) = 0.29329 0.20772
# Poissons Ratio (y) = 0.29329 0.20772
# Poissons Ratio (z) = 0.30806 0.30806
#
# Static dielectric constant tensor:
#      x y z
#    x 3.840870 0.000000 0.000000 
#    y 0.000000 3.840870 0.000000 
#    z 0.000000 0.000000 3.648460 
# 
# 
# High freq. dielectric constant tensor:
#      x y z
#    x 1.816330 0.000000 0.000000 
#    y 0.000000 1.816330 0.000000 
#    z 0.000000 0.000000 1.804350 
# 
# From -- ./inp_files/5019.got.cif
#   From: 2010.03.12/outbox.cif.g09.slc.cpg/sg192_3_cif.got.tgz:5019.got - 2010.04.01 12:16:15.
