data_PCOD8329077
_publ_section_title
;
Structure prediction by ZEFSAII (Michael W. Deem and Ramdas Pophale) SiO2 
 PCOD8329077
Probable space group: P 6/M M M
;
_chemical_formula_sum "Si O2"
_cell_formula_units_Z 120
_cell_length_a 17.624382
_cell_length_b 17.624382
_cell_length_c 24.560726
_cell_angle_alpha 90.000000
_cell_angle_beta 90.000000
_cell_angle_gamma 120.000000
_cell_volume 6606.928799
_symmetry_space_group_name_H-M "P 6/M M M"
_symmetry_group_IT_number 191
_symmetry_cell_setting 'hexagonal'
loop_
_space_group_symop_operation_xyz
x,y,z
x-y,x,z
-y,x-y,z
-x,-y,z
-x+y,-x,z
y,-x+y,z
x-y,-y,-z
-x,-x+y,-z
y,x,-z
-y,-x,-z
-x+y,y,-z
x,x-y,-z
-x,-y,-z
-x+y,-x,-z
y,-x+y,-z
x,y,-z
x-y,x,-z
-y,x-y,-z
-x+y,y,z
x,x-y,z
-y,-x,z
y,x,z
x-y,-y,z
-x,-x+y,z
loop_
_atom_site_type_symbol
_atom_site_label
_atom_site_fract_x
_atom_site_fract_y
_atom_site_fract_z
Si Si1 0.491162 0.158913 0.158402
Si Si2 0.900692 0.801384 0.564828
Si Si3 0.267869 0.901840 0.062074
Si Si4 0.534886 0.897672 0.364470
Si Si5 0.800778 0.601555 0.435522
Si Si6 0.901218 0.269361 0.258723
O O1 0.571992 0.143984 0.167479
O O2 0.523392 0.261696 0.162886
O O3 0.449402 0.121394 0.099505
O O4 0.418848 0.104361 0.203589
O O5 0.850620 0.850620 0.587386
O O6 0.901371 0.802741 0.500000
O O7 0.850899 0.701797 0.586387
O O8 0.165085 0.834916 0.074579
O O9 0.287049 0.000000 0.073816
O O10 0.291242 0.892307 0.000000
O O11 0.431615 0.863229 0.361028
O O12 0.552106 0.850236 0.414425
O O13 0.563480 0.873990 0.307999
O O14 0.588589 0.000000 0.376579
O O15 0.799227 0.598453 0.500000
O O16 0.835196 0.164805 0.257294
O O17 0.000000 0.287478 0.265421
#
# Coordination Sequence:
#
# PCOD8329077 Si02
#       6
#    24  12  24  24  12  24
#     4  10  20  33  51  77 107 140 178 220 263 307
#     4   9  17  30  51  80 112 142 172 208 253 308
#     4   9  18  32  49  71 102 140 179 218 263 315
#     4  10  21  38  58  79 104 136 175 218 263 311
#     4  11  22  37  56  79 106 140 176 215 260 315
#     4  10  20  36  58  82 107 136 172 215 263 312
#
# _framework density 18.162752000000001
#
# number of rings (size 3 to 8) (size 9 to 14) (size 15 to 20)
#    0.000    2.200    1.000    2.100    0.000    4.800 
#    0.600    2.000    0.000    1.600    0.000    1.400 
#    0.000    4.800    0.000    0.200    0.000    0.000 
#
# Total GULP energy -1488193.260293 kJ/mol
# GULP energy per Si atom -12401.610502 kJ/mol
# Density = 1.812141 g / cm^3
# Si number density = 18.162752 Si / 1000 Ang^3
#
#
#
# Elastic Constant Matrix: (Units=GPa)
#
#
# Indices 1 2 3 4 5 6 
#
# 1 106.4506 70.9583 36.3090 0.0000 0.0000 0.0000
# 2 70.9583 106.4506 36.3090 0.0000 0.0000 0.0000
# 3 36.3090 36.3090 85.4029 0.0000 0.0000 0.0000
# 4 0.0000 0.0000 0.0000 21.0356 0.0000 0.0000
# 5 0.0000 0.0000 0.0000 0.0000 21.0356 0.0000
# 6 0.0000 0.0000 0.0000 0.0000 0.0000 17.7462
#
#
#
# Elastic Compliance Matrix: (Units=1/GPa)
#
#
# Indices 1 2 3 4 5 6 
#
# 1 0.017500 -0.010675 -0.002901 0.000000 0.000000 0.000000
# 2 -0.010675 0.017500 -0.002901 0.000000 0.000000 0.000000
# 3 -0.002901 -0.002901 0.014176 0.000000 0.000000 0.000000
# 4 0.000000 0.000000 0.000000 0.047539 0.000000 0.000000
# 5 0.000000 0.000000 0.000000 0.000000 0.047539 0.000000
# 6 0.000000 0.000000 0.000000 0.000000 0.000000 0.056350
#
#
# Mechanical properties :
#
#
# Convention : Reuss Voigt Hill
#
# Bulk Modulus (GPa) = 61.65448 65.05073 63.35261
# Shear Modulus (GPa) = 20.92352 22.27865 21.60109
#
# Velocity S-wave (km/s) = 3.39780 3.50610 3.45237
# Velocity P-wave (km/s) = 7.02941 7.23074 7.13078
#
# Compressibility (1/GPa) = 0.01621942
#
# Stress axis : x y z
#
# Youngs Moduli (GPa) = 57.14384 57.14384 70.54075
#
# Poissons Ratio (x) = 0.61003 0.20466
# Poissons Ratio (y) = 0.61003 0.20466
# Poissons Ratio (z) = 0.16579 0.16579
#
# Static dielectric constant tensor:
#      x y z
#    x 3.364030 0.000000 0.000000 
#    y 0.000000 3.364030 0.000000 
#    z 0.000000 0.000000 3.371090 
# 
# 
# High freq. dielectric constant tensor:
#      x y z
#    x 1.697790 0.000000 0.000000 
#    y 0.000000 1.697790 0.000000 
#    z 0.000000 0.000000 1.707520 
# 
# From -- ./inp_files/8570.got.cif
#   From: 2010.03.12/outbox.cif.g09.slc.cpg/sg191_5_cif.got.tgz:8570.got - 2010.04.01 12:09:02.
