data_PCOD8329525
_publ_section_title
;
Structure prediction by ZEFSAII (Michael W. Deem and Ramdas Pophale) SiO2 
 PCOD8329525
Probable space group: P 6/M C C
;
_chemical_formula_sum "Si O2"
_cell_formula_units_Z 152
_cell_length_a 17.587327
_cell_length_b 17.587327
_cell_length_c 34.694792
_cell_angle_alpha 90.000000
_cell_angle_beta 90.000000
_cell_angle_gamma 120.000000
_cell_volume 9293.827273
_symmetry_space_group_name_H-M "P 6/M C C"
_symmetry_group_IT_number 192
_symmetry_cell_setting 'hexagonal'
loop_
_space_group_symop_operation_xyz
x,y,z
x-y,x,z
-y,x-y,z
-x,-y,z
-x+y,-x,z
y,-x+y,z
x-y,-y,1/2-z
-x,-x+y,1/2-z
y,x,1/2-z
-y,-x,1/2-z
-x+y,y,1/2-z
x,x-y,1/2-z
-x,-y,-z
-x+y,-x,-z
y,-x+y,-z
x,y,-z
x-y,x,-z
-y,x-y,-z
-x+y,y,1/2+z
x,x-y,1/2+z
-y,-x,1/2+z
y,x,1/2+z
x-y,-y,1/2+z
-x,-x+y,1/2+z
loop_
_atom_site_type_symbol
_atom_site_label
_atom_site_fract_x
_atom_site_fract_y
_atom_site_fract_z
Si Si1 0.464851 0.362706 0.900659
Si Si2 0.897851 0.535146 0.599337
Si Si3 0.333334 0.666667 0.454609
Si Si4 0.100352 0.726919 0.824254
Si Si5 0.511548 0.843257 0.750002
Si Si6 0.726914 0.626570 0.324250
Si Si7 0.531978 0.765995 0.545492
O O1 0.415340 0.415341 0.907866
O O2 0.569717 0.430281 0.901526
O O3 0.439456 0.312869 0.860061
O O4 0.430121 0.291243 0.935227
O O5 0.873402 0.560551 0.639931
O O6 0.861118 0.569861 0.564764
O O7 0.333334 0.666668 0.500000
O O8 0.284011 0.567981 0.440231
O O9 0.108407 0.678532 0.786919
O O10 0.167806 0.832200 0.822168
O O11 0.000003 0.707492 0.827618
O O12 0.427480 0.854960 0.750000
O O13 0.480721 0.740361 0.750000
O O14 0.570140 0.891603 0.713089
O O15 0.549218 0.774622 0.500000
#
# Coordination Sequence:
#
# PCOD8329525 Si02
#       7
#    24  24   8  24  24  24  24
#     4  10  20  33  49  70  96 126 162 201 241 286
#     4  10  20  33  49  70  96 126 162 201 241 286
#     4   9  18  30  45  66  90 121 158 193 243 291
#     4  10  20  34  52  73  98 129 162 199 242 288
#     4  10  20  33  50  75 106 138 171 202 232 269
#     4  10  20  34  52  73  98 129 162 199 242 288
#     4  11  20  32  48  66  93 126 160 201 243 288
#
# _framework density 16.354942000000001
#
# number of rings (size 3 to 8) (size 9 to 14) (size 15 to 20)
#    0.000    1.895    3.158    1.579    0.000    3.158 
#    0.000    1.579    0.000    0.316    0.000    0.000 
#    0.000    3.789    0.000    0.000    0.000   14.368 
#
# Total GULP energy -1884282.509911 kJ/mol
# GULP energy per Si atom -12396.595460 kJ/mol
# Density = 1.631772 g / cm^3
# Si number density = 16.354942 Si / 1000 Ang^3
#
#
#
# Elastic Constant Matrix: (Units=GPa)
#
#
# Indices 1 2 3 4 5 6 
#
# 1 74.9547 42.7258 38.0965 0.0000 0.0000 0.0000
# 2 42.7258 74.9545 38.0966 0.0000 0.0000 0.0000
# 3 38.0965 38.0966 136.3311 0.0000 0.0000 0.0000
# 4 0.0000 0.0000 0.0000 18.9585 0.0000 0.0000
# 5 0.0000 0.0000 0.0000 0.0000 18.9585 0.0000
# 6 0.0000 0.0000 0.0000 0.0000 0.0000 16.1145
#
#
#
# Elastic Compliance Matrix: (Units=1/GPa)
#
#
# Indices 1 2 3 4 5 6 
#
# 1 0.020701 -0.010327 -0.002899 0.000000 0.000000 0.000000
# 2 -0.010327 0.020701 -0.002899 0.000000 0.000000 0.000000
# 3 -0.002899 -0.002899 0.008955 0.000000 0.000000 0.000000
# 4 0.000000 0.000000 0.000000 0.052747 0.000000 0.000000
# 5 0.000000 0.000000 0.000000 0.000000 0.052747 0.000000
# 6 0.000000 0.000000 0.000000 0.000000 0.000000 0.062056
#
#
# Mechanical properties :
#
#
# Convention : Reuss Voigt Hill
#
# Bulk Modulus (GPa) = 55.22358 58.23091 56.72724
# Shear Modulus (GPa) = 19.51648 21.96105 20.73876
#
# Velocity S-wave (km/s) = 3.45818 3.66837 3.56482
# Velocity P-wave (km/s) = 7.05580 7.32286 7.19057
#
# Compressibility (1/GPa) = 0.01810821
#
# Stress axis : x y z
#
# Youngs Moduli (GPa) = 48.30603 48.30588 111.66523
#
# Poissons Ratio (x) = 0.49884 0.32373
# Poissons Ratio (y) = 0.49884 0.32373
# Poissons Ratio (z) = 0.14004 0.14004
#
# Static dielectric constant tensor:
#      x y z
#    x 3.005000 0.000000 0.000000 
#    y 0.000000 3.005000 0.000000 
#    z 0.000000 0.000000 3.106760 
# 
# 
# High freq. dielectric constant tensor:
#      x y z
#    x 1.616020 0.000000 0.000000 
#    y 0.000000 1.616020 0.000000 
#    z 0.000000 0.000000 1.642110 
# 
# From -- ./inp_files/7143.got.cif
#   From: 2010.03.12/outbox.cif.g09.slc.cpg/sg192_4_cif.got.tgz:7143.got - 2010.04.01 12:16:15.
