data_PCOD8329149
_publ_section_title
;
Structure prediction by ZEFSAII (Michael W. Deem and Ramdas Pophale) SiO2 
 PCOD8329149
Probable space group: P 6/M M M
;
_chemical_formula_sum "Si O2"
_cell_formula_units_Z 120
_cell_length_a 17.620725
_cell_length_b 17.620725
_cell_length_c 25.318727
_cell_angle_alpha 90.000000
_cell_angle_beta 90.000000
_cell_angle_gamma 120.000000
_cell_volume 6808.007797
_symmetry_space_group_name_H-M "P 6/M M M"
_symmetry_group_IT_number 191
_symmetry_cell_setting 'hexagonal'
loop_
_space_group_symop_operation_xyz
x,y,z
x-y,x,z
-y,x-y,z
-x,-y,z
-x+y,-x,z
y,-x+y,z
x-y,-y,-z
-x,-x+y,-z
y,x,-z
-y,-x,-z
-x+y,y,-z
x,x-y,-z
-x,-y,-z
-x+y,-x,-z
y,-x+y,-z
x,y,-z
x-y,x,-z
-y,x-y,-z
-x+y,y,z
x,x-y,z
-y,-x,z
y,x,z
x-y,-y,z
-x,-x+y,z
loop_
_atom_site_type_symbol
_atom_site_label
_atom_site_fract_x
_atom_site_fract_y
_atom_site_fract_z
Si Si1 0.488074 0.156180 0.170231
Si Si2 0.099387 0.900614 0.562885
Si Si3 0.331640 0.840765 0.055771
Si Si4 0.362587 0.897511 0.368375
Si Si5 0.800659 0.601317 0.437453
Si Si6 0.902129 0.269337 0.266210
O O1 0.574262 0.148524 0.177654
O O2 0.514551 0.257275 0.177746
O O3 0.443018 0.119244 0.111949
O O4 0.416791 0.096889 0.213247
O O5 0.098779 0.901222 0.500000
O O6 0.149195 0.850806 0.583867
O O7 0.000000 0.850563 0.584718
O O8 0.426214 0.852428 0.054146
O O9 0.261891 0.738110 0.056564
O O10 0.319142 0.882283 0.000000
O O11 0.431679 0.863358 0.364676
O O12 0.298413 0.850215 0.417111
O O13 0.308888 0.873084 0.314033
O O14 0.411277 0.000000 0.379735
O O15 0.799228 0.598455 0.500000
O O16 0.834678 0.165323 0.262211
O O17 0.000000 0.285442 0.274722
#
# Coordination Sequence:
#
# PCOD8329149 Si02
#       6
#    24  12  24  24  12  24
#     4   9  16  25  41  68 100 135 174 213 248 283
#     4   9  17  30  51  80 112 142 172 208 253 308
#     4   8  12  18  30  52  87 130 172 210 246 283
#     4  10  21  38  58  79 104 135 171 210 252 297
#     4  11  22  37  56  79 106 140 176 213 254 303
#     4  10  20  36  57  78  99 125 160 203 252 303
#
# _framework density 17.626301999999999
#
# number of rings (size 3 to 8) (size 9 to 14) (size 15 to 20)
#    0.000    2.600    1.000    1.700    0.000    5.600 
#    0.600    1.000    0.000    0.800    0.000    2.800 
#    0.000    0.000    0.000    0.000    0.000    0.000 
#
# Total GULP energy -1486726.016333 kJ/mol
# GULP energy per Si atom -12389.383469 kJ/mol
# Density = 1.758618 g / cm^3
# Si number density = 17.626302 Si / 1000 Ang^3
#
#
#
# Elastic Constant Matrix: (Units=GPa)
#
#
# Indices 1 2 3 4 5 6 
#
# 1 75.0805 44.9088 32.3556 0.0000 0.0000 0.0000
# 2 44.9088 75.0805 32.3556 0.0000 0.0000 0.0000
# 3 32.3556 32.3556 114.3079 0.0000 0.0000 0.0000
# 4 0.0000 0.0000 0.0000 13.3632 0.0000 0.0000
# 5 0.0000 0.0000 0.0000 0.0000 13.3632 0.0000
# 6 0.0000 0.0000 0.0000 0.0000 0.0000 15.0859
#
#
#
# Elastic Compliance Matrix: (Units=1/GPa)
#
#
# Indices 1 2 3 4 5 6 
#
# 1 0.021490 -0.011654 -0.002784 0.000000 0.000000 0.000000
# 2 -0.011654 0.021490 -0.002784 0.000000 0.000000 0.000000
# 3 -0.002784 -0.002784 0.010324 0.000000 0.000000 0.000000
# 4 0.000000 0.000000 0.000000 0.074832 0.000000 0.000000
# 5 0.000000 0.000000 0.000000 0.000000 0.074832 0.000000
# 6 0.000000 0.000000 0.000000 0.000000 0.000000 0.066287
#
#
# Mechanical properties :
#
#
# Convention : Reuss Voigt Hill
#
# Bulk Modulus (GPa) = 53.02405 53.74544 53.38474
# Shear Modulus (GPa) = 16.12975 18.68570 17.40773
#
# Velocity S-wave (km/s) = 3.02834 3.25946 3.14602
# Velocity P-wave (km/s) = 6.50964 6.68754 6.59919
#
# Compressibility (1/GPa) = 0.01885937
#
# Stress axis : x y z
#
# Youngs Moduli (GPa) = 46.53418 46.53418 96.85823
#
# Poissons Ratio (x) = 0.54231 0.26965
# Poissons Ratio (y) = 0.54231 0.26965
# Poissons Ratio (z) = 0.12955 0.12955
#
# Static dielectric constant tensor:
#      x y z
#    x 3.099210 0.000000 0.000000 
#    y 0.000000 3.099210 0.000000 
#    z 0.000000 0.000000 3.725880 
# 
# 
# High freq. dielectric constant tensor:
#      x y z
#    x 1.654660 0.000000 0.000000 
#    y 0.000000 1.654660 0.000000 
#    z 0.000000 0.000000 1.698720 
# 
# From -- ./inp_files/8572.got.cif
#   From: 2010.03.12/outbox.cif.g09.slc.cpg/sg191_5_cif.got.tgz:8572.got - 2010.04.01 12:09:02.
