data_PCOD8329657
_publ_section_title
;
Structure prediction by ZEFSAII (Michael W. Deem and Ramdas Pophale) SiO2 
 PCOD8329657
Probable space group: P 6/M C C
;
_chemical_formula_sum "Si O2"
_cell_formula_units_Z 78
_cell_length_a 10.644063
_cell_length_b 10.644063
_cell_length_c 33.934108
_cell_angle_alpha 90.000000
_cell_angle_beta 90.000000
_cell_angle_gamma 120.000000
_cell_volume 3329.522409
_symmetry_space_group_name_H-M "P 6/M C C"
_symmetry_group_IT_number 192
_symmetry_cell_setting 'hexagonal'
loop_
_space_group_symop_operation_xyz
x,y,z
x-y,x,z
-y,x-y,z
-x,-y,z
-x+y,-x,z
y,-x+y,z
x-y,-y,1/2-z
-x,-x+y,1/2-z
y,x,1/2-z
-y,-x,1/2-z
-x+y,y,1/2-z
x,x-y,1/2-z
-x,-y,-z
-x+y,-x,-z
y,-x+y,-z
x,y,-z
x-y,x,-z
-y,x-y,-z
-x+y,y,1/2+z
x,x-y,1/2+z
-y,-x,1/2+z
y,x,1/2+z
x-y,-y,1/2+z
-x,-x+y,1/2+z
loop_
_atom_site_type_symbol
_atom_site_label
_atom_site_fract_x
_atom_site_fract_y
_atom_site_fract_z
Si Si1 0.308910 0.812343 0.379342
Si Si2 0.925663 0.675935 0.303787
Si Si3 0.670525 0.770150 0.543883
Si Si4 0.000000 0.500000 0.250000
O O1 0.180204 0.644114 0.372730
O O2 0.282548 0.913523 0.349521
O O3 0.316245 0.862786 0.424179
O O4 0.808497 0.723859 0.293560
O O5 0.898118 0.537704 0.277370
O O6 0.799589 0.738892 0.550670
O O7 0.602688 0.722227 0.500000
#
# Coordination Sequence:
#
# PCOD8329657 Si02
#       4
#    24  24  24   6
#     4  10  24  43  66  97 143 188 235 290 361 430
#     4  12  26  49  78 109 143 185 238 294 351 419
#     4  10  21  38  63  95 133 179 237 304 368 428
#     4  12  28  48  74 108 146 180 216 280 356 428
#
# _framework density 23.426783
#
# number of rings (size 3 to 8) (size 9 to 14) (size 15 to 20)
#    0.615    0.615    0.000    5.231    0.000    6.154 
#    7.385    7.692    0.000    0.000    0.000    0.000 
#    0.000    0.000    0.000    0.000    0.000    0.000 
#
# Total GULP energy -967113.804833 kJ/mol
# GULP energy per Si atom -12398.894934 kJ/mol
# Density = 2.337346 g / cm^3
# Si number density = 23.426783 Si / 1000 Ang^3
#
#
#
# Elastic Constant Matrix: (Units=GPa)
#
#
# Indices 1 2 3 4 5 6 
#
# 1 339.9604 -164.1023 59.8587 0.0000 0.0000 0.0000
# 2 -164.1023 339.9604 59.8587 0.0000 0.0000 0.0000
# 3 59.8587 59.8587 136.0474 0.0000 0.0000 0.0000
# 4 0.0000 0.0000 0.0000 42.7658 0.0000 0.0000
# 5 0.0000 0.0000 0.0000 0.0000 42.7658 0.0000
# 6 0.0000 0.0000 0.0000 0.0000 0.0000 252.0314
#
#
#
# Elastic Compliance Matrix: (Units=1/GPa)
#
#
# Indices 1 2 3 4 5 6 
#
# 1 0.005051 0.003067 -0.003572 0.000000 0.000000 0.000000
# 2 0.003067 0.005051 -0.003572 0.000000 0.000000 0.000000
# 3 -0.003572 -0.003572 0.010493 0.000000 0.000000 0.000000
# 4 0.000000 0.000000 0.000000 0.023383 0.000000 0.000000
# 5 0.000000 0.000000 0.000000 0.000000 0.023383 0.000000
# 6 0.000000 0.000000 0.000000 0.000000 0.000000 0.003968
#
#
# Mechanical properties :
#
#
# Convention : Reuss Voigt Hill
#
# Bulk Modulus (GPa) = 80.37149 80.79982 80.58566
# Shear Modulus (GPa) = 59.78740 124.86949 92.32844
#
# Velocity S-wave (km/s) = 5.05731 7.30874 6.28467
# Velocity P-wave (km/s) = 8.27550 10.28537 9.33469
#
# Compressibility (1/GPa) = 0.01244222
#
# Stress axis : x y z
#
# Youngs Moduli (GPa) = 197.98468 197.98468 95.29789
#
# Poissons Ratio (x) = -0.60722 0.34038
# Poissons Ratio (y) = -0.60722 0.34038
# Poissons Ratio (z) = 0.70715 0.70715
#
# Static dielectric constant tensor:
#      x y z
#    x 4.111320 0.000000 0.000000 
#    y 0.000000 4.111320 0.000000 
#    z 0.000000 0.000000 4.367150 
# 
# 
# High freq. dielectric constant tensor:
#      x y z
#    x 1.922740 0.000000 0.000000 
#    y 0.000000 1.922740 0.000000 
#    z 0.000000 0.000000 1.945410 
# 
# From -- ./inp_files/6767.got.cif
#   From: 2010.03.12/outbox.cif.g09.slc.cpg/sg192_4_cif.got.tgz:6767.got - 2010.04.01 12:16:15.
