data_PCOD8329449
_publ_section_title
;
Structure prediction by ZEFSAII (Michael W. Deem and Ramdas Pophale) SiO2 
 PCOD8329449
Probable space group: P 6/M C C
;
_chemical_formula_sum "Si O2"
_cell_formula_units_Z 104
_cell_length_a 18.306817
_cell_length_b 18.306817
_cell_length_c 19.310897
_cell_angle_alpha 90.000000
_cell_angle_beta 90.000000
_cell_angle_gamma 120.000000
_cell_volume 5604.782444
_symmetry_space_group_name_H-M "P 6/M C C"
_symmetry_group_IT_number 192
_symmetry_cell_setting 'hexagonal'
loop_
_space_group_symop_operation_xyz
x,y,z
x-y,x,z
-y,x-y,z
-x,-y,z
-x+y,-x,z
y,-x+y,z
x-y,-y,1/2-z
-x,-x+y,1/2-z
y,x,1/2-z
-y,-x,1/2-z
-x+y,y,1/2-z
x,x-y,1/2-z
-x,-y,-z
-x+y,-x,-z
y,-x+y,-z
x,y,-z
x-y,x,-z
-y,x-y,-z
-x+y,y,1/2+z
x,x-y,1/2+z
-y,-x,1/2+z
y,x,1/2+z
x-y,-y,1/2+z
-x,-x+y,1/2+z
loop_
_atom_site_type_symbol
_atom_site_label
_atom_site_fract_x
_atom_site_fract_y
_atom_site_fract_z
Si Si1 0.333334 0.666668 0.581578
Si Si2 0.500000 0.500000 0.643798
Si Si3 0.902218 0.810799 0.168472
Si Si4 0.852549 0.624461 0.682120
Si Si5 0.488940 0.652315 0.418963
Si Si6 0.000000 0.616487 0.250000
O O1 0.333334 0.666668 0.500000
O O2 0.238881 0.601163 0.607166
O O3 0.504810 0.430372 0.597025
O O4 0.584121 0.542433 0.692060
O O5 0.853178 0.856564 0.136403
O O6 0.912085 0.824169 0.250000
O O7 0.850493 0.710677 0.152505
O O8 0.793916 0.587832 0.750000
O O9 0.821492 0.557901 0.620061
O O10 0.941777 0.641796 0.708481
O O11 0.503565 0.671870 0.500000
#
# Coordination Sequence:
#
# PCOD8329449 Si02
#       6
#     8  12  24  24  24  12
#     4   9  21  39  55  77 112 141 175 224 271 321
#     4   9  19  34  58  74 105 137 182 228 279 331
#     4   9  16  28  48  77 110 146 181 222 269 325
#     4  10  19  31  53  79 111 143 180 225 278 325
#     4  10  21  38  57  80 107 145 187 228 275 332
#     4   9  18  32  48  76 107 138 174 228 277 328
#
# _framework density 18.555582000000001
#
# number of rings (size 3 to 8) (size 9 to 14) (size 15 to 20)
#    0.000    2.538    0.000    3.346    3.231    0.923 
#    0.000    0.000    0.000    0.000    0.000    0.000 
#    0.000    1.846    0.000    0.000    0.000    0.000 
#
# Total GULP energy -1288712.974177 kJ/mol
# GULP energy per Si atom -12391.470906 kJ/mol
# Density = 1.851335 g / cm^3
# Si number density = 18.555582 Si / 1000 Ang^3
#
#
#
# Elastic Constant Matrix: (Units=GPa)
#
#
# Indices 1 2 3 4 5 6 
#
# 1 102.8203 49.5732 35.4115 0.0001 -0.0001 0.0002
# 2 49.5732 102.8213 35.4119 0.0000 0.0000 -0.0001
# 3 35.4115 35.4119 70.6214 0.0000 0.0000 0.0001
# 4 0.0001 0.0000 0.0000 22.9119 0.0000 0.0000
# 5 -0.0001 0.0000 0.0000 0.0000 22.9119 0.0000
# 6 0.0002 -0.0001 0.0001 0.0000 0.0000 26.6233
#
#
#
# Elastic Compliance Matrix: (Units=1/GPa)
#
#
# Indices 1 2 3 4 5 6 
#
# 1 0.013668 -0.005112 -0.004290 0.000000 0.000000 0.000000
# 2 -0.005112 0.013668 -0.004290 0.000000 0.000000 0.000000
# 3 -0.004290 -0.004290 0.018462 0.000000 0.000000 0.000000
# 4 0.000000 0.000000 0.000000 0.043645 0.000000 0.000000
# 5 0.000000 0.000000 0.000000 0.000000 0.043646 0.000000
# 6 0.000000 0.000000 0.000000 0.000000 0.000000 0.037561
#
#
# Mechanical properties :
#
#
# Convention : Reuss Voigt Hill
#
# Bulk Modulus (GPa) = 54.30819 57.45070 55.87945
# Shear Modulus (GPa) = 24.48904 24.88051 24.68477
#
# Velocity S-wave (km/s) = 3.63680 3.66575 3.65131
# Velocity P-wave (km/s) = 6.85321 6.99611 6.92503
#
# Compressibility (1/GPa) = 0.01841343
#
# Stress axis : x y z
#
# Youngs Moduli (GPa) = 73.16352 73.16410 54.16422
#
# Poissons Ratio (x) = 0.37403 0.23237
# Poissons Ratio (y) = 0.37403 0.23237
# Poissons Ratio (z) = 0.31388 0.31388
#
# Static dielectric constant tensor:
#      x y z
#    x 3.992560 0.000000 0.000000 
#    y 0.000000 3.992550 0.000000 
#    z 0.000000 0.000000 3.165670 
# 
# 
# High freq. dielectric constant tensor:
#      x y z
#    x 1.726740 0.000000 0.000000 
#    y 0.000000 1.726740 0.000000 
#    z 0.000000 0.000000 1.679200 
# 
# From -- ./inp_files/4901.got.cif
#   From: 2010.03.12/outbox.cif.g09.slc.cpg/sg192_3_cif.got.tgz:4901.got - 2010.04.01 12:16:15.
