data_PCOD8329813
_publ_section_title
;
Structure prediction by ZEFSAII (Michael W. Deem and Ramdas Pophale) SiO2 
 PCOD8329813
Probable space group: P 63/M C M
;
_chemical_formula_sum "Si O2"
_cell_formula_units_Z 108
_cell_length_a 27.475826
_cell_length_b 27.475826
_cell_length_c 8.823945
_cell_angle_alpha 90.000000
_cell_angle_beta 90.000000
_cell_angle_gamma 120.000000
_cell_volume 5768.925612
_symmetry_space_group_name_H-M "P 63/M C M"
_symmetry_group_IT_number 193
_symmetry_cell_setting 'hexagonal'
loop_
_space_group_symop_operation_xyz
x,y,z
x-y,x,1/2+z
-y,x-y,z
-x,-y,1/2+z
-x+y,-x,z
y,-x+y,1/2+z
x-y,-y,1/2-z
-x,-x+y,1/2-z
y,x,1/2-z
-y,-x,-z
-x+y,y,-z
x,x-y,-z
-x,-y,-z
-x+y,-x,1/2-z
y,-x+y,-z
x,y,1/2-z
x-y,x,-z
-y,x-y,1/2-z
-x+y,y,1/2+z
x,x-y,1/2+z
-y,-x,1/2+z
y,x,z
x-y,-y,z
-x,-x+y,z
loop_
_atom_site_type_symbol
_atom_site_label
_atom_site_fract_x
_atom_site_fract_y
_atom_site_fract_z
Si Si1 0.774864 0.936041 0.576161
Si Si2 0.434238 0.268886 0.923454
Si Si3 0.888472 0.495291 0.924509
Si Si4 0.936189 0.671690 0.428272
Si Si5 0.000000 0.446556 0.569611
O O1 0.798841 0.899421 0.500000
O O2 0.757993 0.918797 0.750000
O O3 0.719916 0.924658 0.485975
O O4 0.823975 0.000000 0.561345
O O5 0.418487 0.251491 0.750000
O O6 0.491666 0.329135 0.938866
O O7 0.443760 0.221880 0.000000
O O8 0.385552 0.276788 0.995660
O O9 0.903900 0.492647 0.750000
O O10 0.870355 0.435178 0.000000
O O11 0.942376 0.547820 0.006612
O O12 0.927049 0.665911 0.250000
O O13 0.000000 0.686850 0.470051
O O14 0.000000 0.500000 0.500000
O O15 0.000000 0.444439 0.750000
#
# Coordination Sequence:
#
# PCOD8329813 Si02
#       5
#    24  24  24  24  12
#     4  10  20  34  53  76 103 137 176 221 272 323
#     4  11  24  39  57  81 113 150 188 231 280 330
#     4  10  21  37  57  82 110 144 182 226 275 326
#     4  10  21  36  55  80 110 146 186 225 269 324
#     4  10  18  30  52  80 110 142 176 218 266 322
#
# _framework density 18.72099
#
# number of rings (size 3 to 8) (size 9 to 14) (size 15 to 20)
#    0.000    1.778    0.000    5.667    1.556    6.222 
#    0.000    0.000    0.000    0.667    0.000    0.000 
#    0.000    0.000    0.000    0.000    0.000    0.000 
#
# Total GULP energy -1339013.608691 kJ/mol
# GULP energy per Si atom -12398.274155 kJ/mol
# Density = 1.867838 g / cm^3
# Si number density = 18.720990 Si / 1000 Ang^3
#
#
#
# Elastic Constant Matrix: (Units=GPa)
#
#
# Indices 1 2 3 4 5 6 
#
# 1 99.1680 57.5935 59.9305 0.0000 0.0000 0.0000
# 2 57.5935 99.1680 59.9305 0.0000 0.0000 0.0000
# 3 59.9305 59.9305 150.6136 0.0000 0.0000 0.0000
# 4 0.0000 0.0000 0.0000 29.7342 0.0000 0.0000
# 5 0.0000 0.0000 0.0000 0.0000 29.7342 0.0000
# 6 0.0000 0.0000 0.0000 0.0000 0.0000 20.7872
#
#
#
# Elastic Compliance Matrix: (Units=1/GPa)
#
#
# Indices 1 2 3 4 5 6 
#
# 1 0.016611 -0.007442 -0.003648 0.000000 0.000000 0.000000
# 2 -0.007442 0.016611 -0.003648 0.000000 0.000000 0.000000
# 3 -0.003648 -0.003648 0.009543 0.000000 0.000000 0.000000
# 4 0.000000 0.000000 0.000000 0.033631 0.000000 0.000000
# 5 0.000000 0.000000 0.000000 0.000000 0.033631 0.000000
# 6 0.000000 0.000000 0.000000 0.000000 0.000000 0.048106
#
#
# Mechanical properties :
#
#
# Convention : Reuss Voigt Hill
#
# Bulk Modulus (GPa) = 75.26153 78.20651 76.73402
# Shear Modulus (GPa) = 26.03618 27.48414 26.76016
#
# Velocity S-wave (km/s) = 3.73332 3.83573 3.78487
# Velocity P-wave (km/s) = 7.67284 7.84108 7.75742
#
# Compressibility (1/GPa) = 0.01328700
#
# Stress axis : x y z
#
# Youngs Moduli (GPa) = 60.20140 60.20140 104.79043
#
# Poissons Ratio (x) = 0.44804 0.38230
# Poissons Ratio (y) = 0.44804 0.38230
# Poissons Ratio (z) = 0.21963 0.21963
#
# Static dielectric constant tensor:
#      x y z
#    x 3.467910 0.000000 0.000000 
#    y 0.000000 3.467910 0.000000 
#    z 0.000000 0.000000 3.640920 
# 
# 
# High freq. dielectric constant tensor:
#      x y z
#    x 1.715220 0.000000 0.000000 
#    y 0.000000 1.715220 0.000000 
#    z 0.000000 0.000000 1.749170 
# 
# From -- ./inp_files/1305.got.cif
#   From: 2010.03.12/outbox.cif.g09.slc.cpg/sg193_1_cif.got.tgz:1305.got - 2010.04.01 12:20:39.
