data_PCOD8329071
_publ_section_title
;
Structure prediction by ZEFSAII (Michael W. Deem and Ramdas Pophale) SiO2 
 PCOD8329071
Probable space group: P 6/M M M
;
_chemical_formula_sum "Si O2"
_cell_formula_units_Z 108
_cell_length_a 17.754220
_cell_length_b 17.754220
_cell_length_c 21.797422
_cell_angle_alpha 90.000000
_cell_angle_beta 90.000000
_cell_angle_gamma 120.000000
_cell_volume 5950.301312
_symmetry_space_group_name_H-M "P 6/M M M"
_symmetry_group_IT_number 191
_symmetry_cell_setting 'hexagonal'
loop_
_space_group_symop_operation_xyz
x,y,z
x-y,x,z
-y,x-y,z
-x,-y,z
-x+y,-x,z
y,-x+y,z
x-y,-y,-z
-x,-x+y,-z
y,x,-z
-y,-x,-z
-x+y,y,-z
x,x-y,-z
-x,-y,-z
-x+y,-x,-z
y,-x+y,-z
x,y,-z
x-y,x,-z
-y,x-y,-z
-x+y,y,z
x,x-y,z
-y,-x,z
y,x,z
x-y,-y,z
-x,-x+y,z
loop_
_atom_site_type_symbol
_atom_site_label
_atom_site_fract_x
_atom_site_fract_y
_atom_site_fract_z
Si Si1 0.838443 0.505158 0.779830
Si Si2 0.840349 0.331622 0.000000
Si Si3 0.365968 0.268635 0.887235
Si Si4 0.492392 0.158966 0.360114
Si Si5 0.829813 0.000000 0.426945
Si Si6 0.658906 0.658906 0.572699
O O1 0.736186 0.472372 0.786409
O O2 0.852837 0.426419 0.800292
O O3 0.894901 0.587757 0.822461
O O4 0.869748 0.534237 0.710336
O O5 0.885686 0.320424 0.059766
O O6 0.737885 0.262116 0.000000
O O7 0.854505 0.427253 0.000000
O O8 0.330845 0.165423 0.892065
O O9 0.284101 0.284101 0.893204
O O10 0.588724 0.177448 0.373078
O O11 0.490260 0.245130 0.376764
O O12 0.426228 0.084259 0.404239
O O13 0.829469 0.914735 0.401217
O O14 0.744483 0.000000 0.402364
O O15 0.831351 0.000000 0.500000
O O16 0.657760 0.657760 0.500000
#
# Coordination Sequence:
#
# PCOD8329071 Si02
#       6
#    24  12  24  24  12  12
#     4   9  18  32  52  77 105 137 173 212 253 299
#     4  10  20  33  50  77 114 154 187 216 254 307
#     4  10  21  35  52  76 106 141 180 222 269 314
#     4  10  21  37  56  77 103 137 178 220 263 313
#     4   9  17  31  53  79 105 133 164 199 243 300
#     4  11  23  37  53  77 107 136 167 211 267 321
#
# _framework density 18.150341999999998
#
# number of rings (size 3 to 8) (size 9 to 14) (size 15 to 20)
#    0.000    2.222    0.000    2.667    1.556    6.667 
#    0.000    2.222    0.000    1.556    0.000    0.000 
#    0.000    2.667    0.000    0.000    0.000    0.000 
#
# Total GULP energy -1339451.863372 kJ/mol
# GULP energy per Si atom -12402.332068 kJ/mol
# Density = 1.810903 g / cm^3
# Si number density = 18.150342 Si / 1000 Ang^3
#
#
#
# Elastic Constant Matrix: (Units=GPa)
#
#
# Indices 1 2 3 4 5 6 
#
# 1 118.1045 66.5449 45.1153 0.0000 0.0000 0.0000
# 2 66.5449 118.1045 45.1153 0.0000 0.0000 0.0000
# 3 45.1153 45.1153 74.3155 0.0000 0.0000 0.0000
# 4 0.0000 0.0000 0.0000 20.3391 0.0000 0.0000
# 5 0.0000 0.0000 0.0000 0.0000 20.3391 0.0000
# 6 0.0000 0.0000 0.0000 0.0000 0.0000 25.7798
#
#
#
# Elastic Compliance Matrix: (Units=1/GPa)
#
#
# Indices 1 2 3 4 5 6 
#
# 1 0.013547 -0.005848 -0.004674 0.000000 0.000000 0.000000
# 2 -0.005848 0.013547 -0.004674 0.000000 0.000000 0.000000
# 3 -0.004674 -0.004674 0.019132 0.000000 0.000000 0.000000
# 4 0.000000 0.000000 0.000000 0.049166 0.000000 0.000000
# 5 0.000000 0.000000 0.000000 0.000000 0.049166 0.000000
# 6 0.000000 0.000000 0.000000 0.000000 0.000000 0.038790
#
#
# Mechanical properties :
#
#
# Convention : Reuss Voigt Hill
#
# Bulk Modulus (GPa) = 63.15653 69.34172 66.24913
# Shear Modulus (GPa) = 22.82896 23.54154 23.18525
#
# Velocity S-wave (km/s) = 3.55035 3.60534 3.57795
# Velocity P-wave (km/s) = 7.18878 7.45777 7.32451
#
# Compressibility (1/GPa) = 0.01583367
#
# Stress axis : x y z
#
# Youngs Moduli (GPa) = 73.81466 73.81466 52.26957
#
# Poissons Ratio (x) = 0.43164 0.24433
# Poissons Ratio (y) = 0.43164 0.24433
# Poissons Ratio (z) = 0.34504 0.34504
#
# Static dielectric constant tensor:
#      x y z
#    x 3.338350 0.000000 0.000000 
#    y 0.000000 3.338350 0.000000 
#    z 0.000000 0.000000 3.365160 
# 
# 
# High freq. dielectric constant tensor:
#      x y z
#    x 1.699290 0.000000 0.000000 
#    y 0.000000 1.699290 0.000000 
#    z 0.000000 0.000000 1.698650 
# 
# From -- ./inp_files/7368.got.cif
#   From: 2010.03.12/outbox.cif.g09.slc.cpg/sg191_4_cif.got.tgz:7368.got - 2010.04.01 12:09:02.
