data_PCOD8329518
_publ_section_title
;
Structure prediction by ZEFSAII (Michael W. Deem and Ramdas Pophale) SiO2 
 PCOD8329518
Probable space group: P 6/M C C
;
_chemical_formula_sum "Si O2"
_cell_formula_units_Z 144
_cell_length_a 32.341647
_cell_length_b 32.341647
_cell_length_c 8.895747
_cell_angle_alpha 90.000000
_cell_angle_beta 90.000000
_cell_angle_gamma 120.000000
_cell_volume 8058.186596
_symmetry_space_group_name_H-M "P 6/M C C"
_symmetry_group_IT_number 192
_symmetry_cell_setting 'hexagonal'
loop_
_space_group_symop_operation_xyz
x,y,z
x-y,x,z
-y,x-y,z
-x,-y,z
-x+y,-x,z
y,-x+y,z
x-y,-y,1/2-z
-x,-x+y,1/2-z
y,x,1/2-z
-y,-x,1/2-z
-x+y,y,1/2-z
x,x-y,1/2-z
-x,-y,-z
-x+y,-x,-z
y,-x+y,-z
x,y,-z
x-y,x,-z
-y,x-y,-z
-x+y,y,1/2+z
x,x-y,1/2+z
-y,-x,1/2+z
y,x,1/2+z
x-y,-y,1/2+z
-x,-x+y,1/2+z
loop_
_atom_site_type_symbol
_atom_site_label
_atom_site_fract_x
_atom_site_fract_y
_atom_site_fract_z
Si Si1 0.521423 0.716651 0.322728
Si Si2 0.048712 0.280574 0.325397
Si Si3 0.099634 0.712840 0.174429
Si Si4 0.949583 0.811423 0.321406
Si Si5 0.383796 0.528208 0.322484
Si Si6 0.385655 0.434404 0.675557
O O1 0.512027 0.756014 0.250000
O O2 0.512851 0.714661 0.500000
O O3 0.575297 0.729302 0.282571
O O4 0.484123 0.666298 0.250514
O O5 0.037784 0.274490 0.500000
O O6 0.090438 0.334112 0.284823
O O7 0.063982 0.242346 0.272943
O O8 0.000000 0.271071 0.250000
O O9 0.062418 0.666589 0.266440
O O10 0.090049 0.698837 0.000000
O O11 0.911349 0.822698 0.250000
O O12 0.951266 0.817922 0.500000
O O13 0.000000 0.848962 0.250000
O O14 0.422877 0.577124 0.250000
O O15 0.381101 0.533917 0.500000
O O16 0.396790 0.487395 0.282412
O O17 0.426118 0.426118 0.750000
O O18 0.387026 0.427334 0.500000
#
# Coordination Sequence:
#
# PCOD8329518 Si02
#       6
#    24  24  24  24  24  24
#     4  10  20  35  55  78 105 136 170 210 256 306
#     4   9  18  31  47  70 101 137 176 215 253 293
#     4   9  18  32  49  71 102 140 180 219 256 295
#     4  10  20  35  54  76 102 132 167 207 253 303
#     4  10  21  37  56  78 103 133 170 211 258 310
#     4  10  20  32  48  72 103 139 178 218 258 301
#
# _framework density 17.870024999999998
#
# number of rings (size 3 to 8) (size 9 to 14) (size 15 to 20)
#    0.000    2.333    0.000    2.500    0.000    6.333 
#    0.000    1.667    0.000    0.500    0.000    3.500 
#    0.000    0.000    0.000    0.000    0.000    0.000 
#
# Total GULP energy -1785825.279380 kJ/mol
# GULP energy per Si atom -12401.564440 kJ/mol
# Density = 1.782935 g / cm^3
# Si number density = 17.870025 Si / 1000 Ang^3
#
#
#
# Elastic Constant Matrix: (Units=GPa)
#
#
# Indices 1 2 3 4 5 6 
#
# 1 124.6742 87.3301 56.9662 0.0000 0.0000 0.0000
# 2 87.3301 124.6742 56.9662 0.0000 0.0000 0.0000
# 3 56.9662 56.9662 82.0614 0.0000 0.0000 0.0000
# 4 0.0000 0.0000 0.0000 29.7009 0.0000 0.0000
# 5 0.0000 0.0000 0.0000 0.0000 29.7009 0.0000
# 6 0.0000 0.0000 0.0000 0.0000 0.0000 18.6720
#
#
#
# Elastic Compliance Matrix: (Units=1/GPa)
#
#
# Indices 1 2 3 4 5 6 
#
# 1 0.017151 -0.009627 -0.005223 0.000000 0.000000 0.000000
# 2 -0.009627 0.017151 -0.005223 0.000000 0.000000 0.000000
# 3 -0.005223 -0.005223 0.019437 0.000000 0.000000 0.000000
# 4 0.000000 0.000000 0.000000 0.033669 0.000000 0.000000
# 5 0.000000 0.000000 0.000000 0.000000 0.033669 0.000000
# 6 0.000000 0.000000 0.000000 0.000000 0.000000 0.053556
#
#
# Mechanical properties :
#
#
# Convention : Reuss Voigt Hill
#
# Bulk Modulus (GPa) = 73.56610 81.54832 77.55721
# Shear Modulus (GPa) = 22.79878 24.29124 23.54501
#
# Velocity S-wave (km/s) = 3.57572 3.69091 3.63377
# Velocity P-wave (km/s) = 7.63573 7.99356 7.81669
#
# Compressibility (1/GPa) = 0.01359322
#
# Stress axis : x y z
#
# Youngs Moduli (GPa) = 58.30612 58.30612 51.44743
#
# Poissons Ratio (x) = 0.56132 0.26870
# Poissons Ratio (y) = 0.56132 0.26870
# Poissons Ratio (z) = 0.30453 0.30453
#
# Static dielectric constant tensor:
#      x y z
#    x 3.269420 0.000000 0.000000 
#    y 0.000000 3.269420 0.000000 
#    z 0.000000 0.000000 3.383460 
# 
# 
# High freq. dielectric constant tensor:
#      x y z
#    x 1.681740 0.000000 0.000000 
#    y 0.000000 1.681740 0.000000 
#    z 0.000000 0.000000 1.703190 
# 
# From -- ./inp_files/1138.got.cif
#   From: 2010.03.12/outbox.cif.g09.slc.cpg/sg192_1_cif.got.tgz:1138.got - 2010.04.01 12:16:15.
