data_PCOD8329979
_publ_section_title
;
Structure prediction by ZEFSAII (Michael W. Deem and Ramdas Pophale) SiO2 
 PCOD8329979
Probable space group: P 63/M C M
;
_chemical_formula_sum "Si O2"
_cell_formula_units_Z 156
_cell_length_a 19.897197
_cell_length_b 19.897197
_cell_length_c 23.891292
_cell_angle_alpha 90.000000
_cell_angle_beta 90.000000
_cell_angle_gamma 120.000000
_cell_volume 8191.323309
_symmetry_space_group_name_H-M "P 63/M C M"
_symmetry_group_IT_number 193
_symmetry_cell_setting 'hexagonal'
loop_
_space_group_symop_operation_xyz
x,y,z
x-y,x,1/2+z
-y,x-y,z
-x,-y,1/2+z
-x+y,-x,z
y,-x+y,1/2+z
x-y,-y,1/2-z
-x,-x+y,1/2-z
y,x,1/2-z
-y,-x,-z
-x+y,y,-z
x,x-y,-z
-x,-y,-z
-x+y,-x,1/2-z
y,-x+y,-z
x,y,1/2-z
x-y,x,-z
-y,x-y,1/2-z
-x+y,y,1/2+z
x,x-y,1/2+z
-y,-x,1/2+z
y,x,z
x-y,-y,z
-x,-x+y,z
loop_
_atom_site_type_symbol
_atom_site_label
_atom_site_fract_x
_atom_site_fract_y
_atom_site_fract_z
Si Si1 0.910623 0.466303 0.315511
Si Si2 0.311934 0.222706 0.688073
Si Si3 0.487970 0.822691 0.997428
Si Si4 0.907892 0.815784 0.500000
Si Si5 0.466231 0.309433 0.623068
Si Si6 0.299062 0.444431 0.388934
Si Si7 0.266331 0.177773 0.390001
O O1 0.894817 0.461659 0.250000
O O2 0.852211 0.381920 0.341251
O O3 0.892286 0.530701 0.339784
O O4 0.000000 0.491365 0.328246
O O5 0.343463 0.218198 0.750000
O O6 0.252510 0.252510 0.694247
O O7 0.381740 0.280674 0.648169
O O8 0.263301 0.137667 0.661858
O O9 0.528146 0.873416 0.052402
O O10 0.398199 0.796398 0.000000
O O11 0.497024 0.748512 0.000000
O O12 0.529648 0.869127 0.940655
O O13 0.870134 0.870134 0.491869
O O14 0.886973 0.758980 0.446973
O O15 0.483089 0.237678 0.624129
O O16 0.249403 0.352552 0.394781
O O17 0.206912 0.206912 0.375684
#
# Coordination Sequence:
#
# PCOD8329979 Si02
#       7
#    24  24  24  12  24  24  24
#     4  11  23  40  59  81 116 158 200 248 301 354
#     4  10  21  38  61  87 114 148 192 240 290 347
#     4  10  19  35  58  82 113 151 193 241 294 344
#     4  10  21  38  62  92 126 160 194 236 294 360
#     4  10  21  37  59  84 114 150 197 242 293 349
#     4  10  22  38  58  85 119 151 196 244 296 352
#     4  10  22  38  59  87 119 154 192 236 288 350
#
# _framework density 19.044542
#
# number of rings (size 3 to 8) (size 9 to 14) (size 15 to 20)
#    0.000    1.846    1.538    2.077    5.385    4.615 
#    0.923    3.077    0.000    0.308    0.000    0.000 
#    0.000    0.000    0.000    0.000    0.000    0.000 
#
# Total GULP energy -1934284.545327 kJ/mol
# GULP energy per Si atom -12399.259906 kJ/mol
# Density = 1.900120 g / cm^3
# Si number density = 19.044542 Si / 1000 Ang^3
#
#
#
# Elastic Constant Matrix: (Units=GPa)
#
#
# Indices 1 2 3 4 5 6 
#
# 1 81.2635 31.2855 57.3964 0.0000 0.0000 0.0000
# 2 31.2855 81.2635 57.3964 0.0000 0.0000 0.0000
# 3 57.3964 57.3964 156.9449 0.0000 0.0000 0.0000
# 4 0.0000 0.0000 0.0000 29.1605 0.0000 0.0000
# 5 0.0000 0.0000 0.0000 0.0000 29.1605 0.0000
# 6 0.0000 0.0000 0.0000 0.0000 0.0000 24.9890
#
#
#
# Elastic Compliance Matrix: (Units=1/GPa)
#
#
# Indices 1 2 3 4 5 6 
#
# 1 0.017090 -0.002919 -0.005182 0.000000 0.000000 0.000000
# 2 -0.002919 0.017090 -0.005182 0.000000 0.000000 0.000000
# 3 -0.005182 -0.005182 0.010162 0.000000 0.000000 0.000000
# 4 0.000000 0.000000 0.000000 0.034293 0.000000 0.000000
# 5 0.000000 0.000000 0.000000 0.000000 0.034293 0.000000
# 6 0.000000 0.000000 0.000000 0.000000 0.000000 0.040018
#
#
# Mechanical properties :
#
#
# Convention : Reuss Voigt Hill
#
# Bulk Modulus (GPa) = 56.26169 67.95872 62.11020
# Shear Modulus (GPa) = 26.96326 28.22157 27.59241
#
# Velocity S-wave (km/s) = 3.76679 3.85369 3.81049
# Velocity P-wave (km/s) = 6.96596 7.45404 7.21413
#
# Compressibility (1/GPa) = 0.01777408
#
# Stress axis : x y z
#
# Youngs Moduli (GPa) = 58.51451 58.51451 98.40413
#
# Poissons Ratio (x) = 0.17081 0.50997
# Poissons Ratio (y) = 0.17081 0.50997
# Poissons Ratio (z) = 0.30325 0.30325
#
# Static dielectric constant tensor:
#      x y z
#    x 3.433450 0.000000 0.000000 
#    y 0.000000 3.433450 0.000000 
#    z 0.000000 0.000000 3.923510 
# 
# 
# High freq. dielectric constant tensor:
#      x y z
#    x 1.736210 0.000000 0.000000 
#    y 0.000000 1.736210 0.000000 
#    z 0.000000 0.000000 1.756100 
# 
# From -- ./inp_files/6694.got.cif
#   From: 2010.03.12/outbox.cif.g09.slc.cpg/sg193_4_cif.got.tgz:6694.got - 2010.04.01 12:20:39.
