data_PCOD8329835
_publ_section_title
;
Structure prediction by ZEFSAII (Michael W. Deem and Ramdas Pophale) SiO2 
 PCOD8329835
Probable space group: P 63/M C M
;
_chemical_formula_sum "Si O2"
_cell_formula_units_Z 152
_cell_length_a 25.816304
_cell_length_b 25.816304
_cell_length_c 14.157118
_cell_angle_alpha 90.000000
_cell_angle_beta 90.000000
_cell_angle_gamma 120.000000
_cell_volume 8171.346307
_symmetry_space_group_name_H-M "P 63/M C M"
_symmetry_group_IT_number 193
_symmetry_cell_setting 'hexagonal'
loop_
_space_group_symop_operation_xyz
x,y,z
x-y,x,1/2+z
-y,x-y,z
-x,-y,1/2+z
-x+y,-x,z
y,-x+y,1/2+z
x-y,-y,1/2-z
-x,-x+y,1/2-z
y,x,1/2-z
-y,-x,-z
-x+y,y,-z
x,x-y,-z
-x,-y,-z
-x+y,-x,1/2-z
y,-x+y,-z
x,y,1/2-z
x-y,x,-z
-y,x-y,1/2-z
-x+y,y,1/2+z
x,x-y,1/2+z
-y,-x,1/2+z
y,x,z
x-y,-y,z
-x,-x+y,z
loop_
_atom_site_type_symbol
_atom_site_label
_atom_site_fract_x
_atom_site_fract_y
_atom_site_fract_z
Si Si1 0.598868 0.931050 0.643548
Si Si2 0.333334 0.666667 0.390754
Si Si3 0.068201 0.292718 0.446825
Si Si4 0.140715 0.511849 0.023148
Si Si5 0.456161 0.699558 0.150891
Si Si6 0.182781 0.439723 0.912173
Si Si7 0.814947 0.122565 0.142835
O O1 0.601846 0.909152 0.750000
O O2 0.639494 0.917261 0.572520
O O3 0.531071 0.899124 0.607528
O O4 0.619730 0.000000 0.644176
O O5 0.333334 0.666667 0.500000
O O6 0.309885 0.600157 0.352400
O O7 0.073107 0.282354 0.558953
O O8 0.115964 0.285587 0.383385
O O9 0.000000 0.245453 0.414637
O O10 0.208268 0.549503 0.061636
O O11 0.118262 0.559131 0.000000
O O12 0.141563 0.469680 0.938360
O O13 0.456396 0.668488 0.250000
O O14 0.514554 0.763921 0.152927
O O15 0.147253 0.378509 0.854545
O O16 0.212050 0.424100 0.000000
O O17 0.814158 0.098081 0.250000
#
# Coordination Sequence:
#
# PCOD8329835 Si02
#       7
#    24   8  24  24  24  24  24
#     4  10  20  36  58  78  98 132 180 230 279 335
#     4  12  22  35  43  60  88 125 157 195 259 329
#     4  10  20  36  57  85 116 150 192 239 285 335
#     4  11  21  34  52  73 100 130 167 222 286 341
#     4  11  21  32  48  67  91 121 160 206 252 319
#     4  10  18  33  51  75 101 134 172 217 274 333
#     4  11  20  34  56  85 117 151 188 231 282 337
#
# _framework density 18.601586000000001
#
# number of rings (size 3 to 8) (size 9 to 14) (size 15 to 20)
#    0.000    1.421    3.158    5.684    0.000    1.579 
#    0.000    2.368    0.000    0.000    0.000    0.000 
#    0.000    0.000    0.000   15.158    0.000   32.842 
#
# Total GULP energy -1883166.763426 kJ/mol
# GULP energy per Si atom -12389.255023 kJ/mol
# Density = 1.855925 g / cm^3
# Si number density = 18.601586 Si / 1000 Ang^3
#
#
#
# Elastic Constant Matrix: (Units=GPa)
#
#
# Indices 1 2 3 4 5 6 
#
# 1 63.1076 21.0460 18.7736 0.0002 0.0001 -0.0009
# 2 21.0460 63.1072 18.7734 -0.0003 -0.0001 0.0007
# 3 18.7736 18.7734 110.1537 0.0001 0.0000 -0.0002
# 4 0.0002 -0.0003 0.0001 15.6197 -0.0001 0.0001
# 5 0.0001 -0.0001 0.0000 -0.0001 15.6197 -0.0003
# 6 -0.0009 0.0007 -0.0002 0.0001 -0.0003 21.0294
#
#
#
# Elastic Compliance Matrix: (Units=1/GPa)
#
#
# Indices 1 2 3 4 5 6 
#
# 1 0.018318 -0.005457 -0.002192 0.000000 0.000000 0.000001
# 2 -0.005457 0.018318 -0.002192 0.000000 0.000000 -0.000001
# 3 -0.002192 -0.002192 0.009825 0.000000 0.000000 0.000000
# 4 0.000000 0.000000 0.000000 0.064022 0.000000 0.000000
# 5 0.000000 0.000000 0.000000 0.000000 0.064022 0.000001
# 6 0.000001 -0.000001 0.000000 0.000000 0.000001 0.047552
#
#
# Mechanical properties :
#
#
# Convention : Reuss Voigt Hill
#
# Bulk Modulus (GPa) = 37.34159 39.28383 38.31271
# Shear Modulus (GPa) = 19.94695 22.30547 21.12621
#
# Velocity S-wave (km/s) = 3.27819 3.46658 3.37370
# Velocity P-wave (km/s) = 5.86913 6.09814 5.98473
#
# Compressibility (1/GPa) = 0.02677979
#
# Stress axis : x y z
#
# Youngs Moduli (GPa) = 54.59155 54.59129 101.77752
#
# Poissons Ratio (x) = 0.29790 0.22309
# Poissons Ratio (y) = 0.29790 0.22308
# Poissons Ratio (z) = 0.11966 0.11966
#
# Static dielectric constant tensor:
#      x y z
#    x 2.895620 0.000070 0.000000 
#    y 0.000070 2.895400 0.000020 
#    z 0.000000 0.000020 3.554960 
# 
# 
# High freq. dielectric constant tensor:
#      x y z
#    x 1.694380 0.000000 0.000000 
#    y 0.000000 1.694380 0.000000 
#    z 0.000000 0.000000 1.730780 
# 
# From -- ./inp_files/4301.got.cif
#   From: 2010.03.12/outbox.cif.g09.slc.cpg/sg193_3_cif.got.tgz:4301.got - 2010.04.01 12:20:39.
