data_PCOD8329431
_publ_section_title
;
Structure prediction by ZEFSAII (Michael W. Deem and Ramdas Pophale) SiO2 
 PCOD8329431
Probable space group: P 6/M C C
;
_chemical_formula_sum "Si O2"
_cell_formula_units_Z 152
_cell_length_a 24.411870
_cell_length_b 24.411870
_cell_length_c 15.668323
_cell_angle_alpha 90.000000
_cell_angle_beta 90.000000
_cell_angle_gamma 120.000000
_cell_volume 8086.400455
_symmetry_space_group_name_H-M "P 6/M C C"
_symmetry_group_IT_number 192
_symmetry_cell_setting 'hexagonal'
loop_
_space_group_symop_operation_xyz
x,y,z
x-y,x,z
-y,x-y,z
-x,-y,z
-x+y,-x,z
y,-x+y,z
x-y,-y,1/2-z
-x,-x+y,1/2-z
y,x,1/2-z
-y,-x,1/2-z
-x+y,y,1/2-z
x,x-y,1/2-z
-x,-y,-z
-x+y,-x,-z
y,-x+y,-z
x,y,-z
x-y,x,-z
-y,x-y,-z
-x+y,y,1/2+z
x,x-y,1/2+z
-y,-x,1/2+z
y,x,1/2+z
x-y,-y,1/2+z
-x,-x+y,1/2+z
loop_
_atom_site_type_symbol
_atom_site_label
_atom_site_fract_x
_atom_site_fract_y
_atom_site_fract_z
Si Si1 0.333334 0.666667 0.601797
Si Si2 0.100242 0.963418 0.099388
Si Si3 0.818313 0.294681 0.405029
Si Si4 0.841604 0.301104 0.096664
Si Si5 0.064710 0.819238 0.706092
Si Si6 0.384267 0.127619 0.259414
Si Si7 0.394739 0.803084 0.651423
O O1 0.333334 0.666668 0.500000
O O2 0.339698 0.730853 0.638803
O O3 0.152801 0.941813 0.115480
O O4 0.032509 0.911557 0.139195
O O5 0.093625 0.967103 0.000000
O O6 0.843392 0.292557 0.500000
O O7 0.751479 0.231554 0.389418
O O8 0.867800 0.300090 0.333179
O O9 0.812217 0.356852 0.399875
O O10 0.885558 0.291178 0.166420
O O11 0.847460 0.369250 0.112515
O O12 0.864417 0.298351 0.000000
O O13 0.125281 0.874719 0.750000
O O14 0.072868 0.757365 0.707707
O O15 0.000000 0.803027 0.750000
O O16 0.384057 0.192029 0.250000
O O17 0.410112 0.820224 0.750000
#
# Coordination Sequence:
#
# PCOD8329431 Si02
#       7
#     8  24  24  24  24  24  24
#     4  12  22  26  34  63 100 137 181 220 269 343
#     4  10  20  35  57  89 128 162 190 218 257 313
#     4  10  19  31  46  67  99 139 183 227 275 335
#     4  10  19  32  47  67 101 142 182 229 283 342
#     4  11  21  37  60  85 113 145 182 223 265 314
#     4   9  20  35  49  72 102 139 185 227 270 325
#     4  12  20  28  43  67  99 141 183 226 284 343
#
# _framework density 18.796991999999999
#
# number of rings (size 3 to 8) (size 9 to 14) (size 15 to 20)
#    0.000    1.579    4.737    2.053    0.000    1.263 
#    0.000    3.158    0.000    0.000    0.000    2.211 
#    0.000    2.526    0.000    0.000    0.000    0.000 
#
# Total GULP energy -1883397.780830 kJ/mol
# GULP energy per Si atom -12390.774874 kJ/mol
# Density = 1.875421 g / cm^3
# Si number density = 18.796992 Si / 1000 Ang^3
#
#
#
# Elastic Constant Matrix: (Units=GPa)
#
#
# Indices 1 2 3 4 5 6 
#
# 1 71.6832 36.8853 32.4537 0.0000 0.0000 0.0000
# 2 36.8853 71.6831 32.4537 0.0000 0.0000 0.0000
# 3 32.4537 32.4537 116.1796 0.0001 0.0000 0.0000
# 4 0.0000 0.0000 0.0001 24.7371 0.0000 0.0000
# 5 0.0000 0.0000 0.0000 0.0000 24.7371 0.0000
# 6 0.0000 0.0000 0.0000 0.0000 0.0000 17.3989
#
#
#
# Elastic Compliance Matrix: (Units=1/GPa)
#
#
# Indices 1 2 3 4 5 6 
#
# 1 0.019897 -0.008840 -0.003089 0.000000 0.000000 0.000000
# 2 -0.008840 0.019897 -0.003089 0.000000 0.000000 0.000000
# 3 -0.003089 -0.003089 0.010333 0.000000 0.000000 0.000000
# 4 0.000000 0.000000 0.000000 0.040425 0.000000 0.000000
# 5 0.000000 0.000000 0.000000 0.000000 0.040425 0.000000
# 6 0.000000 0.000000 0.000000 0.000000 0.000000 0.057475
#
#
# Mechanical properties :
#
#
# Convention : Reuss Voigt Hill
#
# Bulk Modulus (GPa) = 49.76940 51.45906 50.61423
# Shear Modulus (GPa) = 22.20392 23.89151 23.04772
#
# Velocity S-wave (km/s) = 3.44066 3.56902 3.50542
# Velocity P-wave (km/s) = 6.50530 6.66479 6.58553
#
# Compressibility (1/GPa) = 0.02009267
#
# Stress axis : x y z
#
# Youngs Moduli (GPa) = 50.25789 50.25781 96.77717
#
# Poissons Ratio (x) = 0.44428 0.29892
# Poissons Ratio (y) = 0.44428 0.29892
# Poissons Ratio (z) = 0.15524 0.15524
#
# Static dielectric constant tensor:
#      x y z
#    x 6.947920 0.000190 0.000020 
#    y 0.000190 6.948090 0.000000 
#    z 0.000020 0.000000 3.524020 
# 
# 
# High freq. dielectric constant tensor:
#      x y z
#    x 1.700920 0.000000 0.000000 
#    y 0.000000 1.700920 0.000000 
#    z 0.000000 0.000000 1.735780 
# 
# From -- ./inp_files/3390.got.cif
#   From: 2010.03.12/outbox.cif.g09.slc.cpg/sg192_2_cif.got.tgz:3390.got - 2010.04.01 12:16:15.
