data_PCOD8329220
_publ_section_title
;
Structure prediction by ZEFSAII (Michael W. Deem and Ramdas Pophale) SiO2 
 PCOD8329220
Probable space group: P 6/M M M
;
_chemical_formula_sum "Si O2"
_cell_formula_units_Z 72
_cell_length_a 17.842846
_cell_length_b 17.842846
_cell_length_c 14.379274
_cell_angle_alpha 90.000000
_cell_angle_beta 90.000000
_cell_angle_gamma 120.000000
_cell_volume 3964.567764
_symmetry_space_group_name_H-M "P 6/M M M"
_symmetry_group_IT_number 191
_symmetry_cell_setting 'hexagonal'
loop_
_space_group_symop_operation_xyz
x,y,z
x-y,x,z
-y,x-y,z
-x,-y,z
-x+y,-x,z
y,-x+y,z
x-y,-y,-z
-x,-x+y,-z
y,x,-z
-y,-x,-z
-x+y,y,-z
x,x-y,-z
-x,-y,-z
-x+y,-x,-z
y,-x+y,-z
x,y,-z
x-y,x,-z
-y,x-y,-z
-x+y,y,z
x,x-y,z
-y,-x,z
y,x,z
x-y,-y,z
-x,-x+y,z
loop_
_atom_site_type_symbol
_atom_site_label
_atom_site_fract_x
_atom_site_fract_y
_atom_site_fract_z
Si Si1 0.903266 0.639106 0.894701
Si Si2 0.901616 0.098385 0.610760
Si Si3 0.197203 0.802798 0.610057
Si Si4 0.534355 0.634979 0.725442
O O1 0.837256 0.674511 0.876086
O O2 0.880811 0.558997 0.827292
O O3 0.000000 0.718385 0.875714
O O4 0.894397 0.604310 0.000000
O O5 0.901978 0.098023 0.500000
O O6 0.852268 0.147733 0.647467
O O7 0.000000 0.147931 0.648703
O O8 0.198672 0.801329 0.500000
O O9 0.294839 0.851122 0.645923
O O10 0.431912 0.568089 0.725237
O O11 0.586806 0.586806 0.701023
#
# Coordination Sequence:
#
# PCOD8329220 Si02
#       4
#    24  12  12  24
#     4   9  17  32  57  86 113 141 174 213 262 325
#     4   9  17  30  51  79 109 139 174 220 272 324
#     4  11  22  37  55  76 103 145 192 230 272 325
#     4  10  21  37  56  79 106 137 177 227 278 325
#
# _framework density 18.160871
#
# number of rings (size 3 to 8) (size 9 to 14) (size 15 to 20)
#    0.000    2.333    1.667    1.167    0.000    4.000 
#    1.000    5.000    0.000    0.333    0.000    2.333 
#    0.000    0.000    0.000    0.000    0.000    0.000 
#
# Total GULP energy -892779.527340 kJ/mol
# GULP energy per Si atom -12399.715658 kJ/mol
# Density = 1.811954 g / cm^3
# Si number density = 18.160871 Si / 1000 Ang^3
#
#
#
# Elastic Constant Matrix: (Units=GPa)
#
#
# Indices 1 2 3 4 5 6 
#
# 1 131.7305 81.8529 52.5776 0.0000 0.0000 0.0000
# 2 81.8529 131.7305 52.5776 0.0000 0.0000 0.0000
# 3 52.5776 52.5776 88.3332 0.0000 0.0000 0.0000
# 4 0.0000 0.0000 0.0000 25.5616 0.0000 0.0000
# 5 0.0000 0.0000 0.0000 0.0000 25.5616 0.0000
# 6 0.0000 0.0000 0.0000 0.0000 0.0000 24.9388
#
#
#
# Elastic Compliance Matrix: (Units=1/GPa)
#
#
# Indices 1 2 3 4 5 6 
#
# 1 0.013336 -0.006713 -0.003942 0.000000 0.000000 0.000000
# 2 -0.006713 0.013336 -0.003942 0.000000 0.000000 0.000000
# 3 -0.003942 -0.003942 0.016014 0.000000 0.000000 0.000000
# 4 0.000000 0.000000 0.000000 0.039121 0.000000 0.000000
# 5 0.000000 0.000000 0.000000 0.000000 0.039121 0.000000
# 6 0.000000 0.000000 0.000000 0.000000 0.000000 0.040098
#
#
# Mechanical properties :
#
#
# Convention : Reuss Voigt Hill
#
# Bulk Modulus (GPa) = 74.12326 80.64560 77.38443
# Shear Modulus (GPa) = 25.67826 26.19815 25.93821
#
# Velocity S-wave (km/s) = 3.76431 3.80223 3.78332
# Velocity P-wave (km/s) = 7.73284 7.98615 7.86051
#
# Compressibility (1/GPa) = 0.01349104
#
# Stress axis : x y z
#
# Youngs Moduli (GPa) = 74.98529 74.98529 62.44720
#
# Poissons Ratio (x) = 0.50339 0.24617
# Poissons Ratio (y) = 0.50339 0.24617
# Poissons Ratio (z) = 0.29559 0.29559
#
# Static dielectric constant tensor:
#      x y z
#    x 3.428810 0.000000 0.000000 
#    y 0.000000 3.428810 0.000000 
#    z 0.000000 0.000000 3.276330 
# 
# 
# High freq. dielectric constant tensor:
#      x y z
#    x 1.698350 0.000000 0.000000 
#    y 0.000000 1.698350 0.000000 
#    z 0.000000 0.000000 1.700400 
# 
# From -- ./inp_files/3915.got.cif
#   From: 2010.03.12/outbox.cif.g09.slc.cpg/sg191_2_cif.got.tgz:3915.got - 2010.04.01 12:09:02.
