data_PCOD8329636
_publ_section_title
;
Structure prediction by ZEFSAII (Michael W. Deem and Ramdas Pophale) SiO2 
 PCOD8329636
Probable space group: P 6/M C C
;
_chemical_formula_sum "Si O2"
_cell_formula_units_Z 132
_cell_length_a 22.742706
_cell_length_b 22.742706
_cell_length_c 14.341944
_cell_angle_alpha 90.000000
_cell_angle_beta 90.000000
_cell_angle_gamma 120.000000
_cell_volume 6424.257326
_symmetry_space_group_name_H-M "P 6/M C C"
_symmetry_group_IT_number 192
_symmetry_cell_setting 'hexagonal'
loop_
_space_group_symop_operation_xyz
x,y,z
x-y,x,z
-y,x-y,z
-x,-y,z
-x+y,-x,z
y,-x+y,z
x-y,-y,1/2-z
-x,-x+y,1/2-z
y,x,1/2-z
-y,-x,1/2-z
-x+y,y,1/2-z
x,x-y,1/2-z
-x,-y,-z
-x+y,-x,-z
y,-x+y,-z
x,y,-z
x-y,x,-z
-y,x-y,-z
-x+y,y,1/2+z
x,x-y,1/2+z
-y,-x,1/2+z
y,x,1/2+z
x-y,-y,1/2+z
-x,-x+y,1/2+z
loop_
_atom_site_type_symbol
_atom_site_label
_atom_site_fract_x
_atom_site_fract_y
_atom_site_fract_z
Si Si1 0.972046 0.249673 0.349844
Si Si2 0.419282 0.209641 0.750000
Si Si3 0.971231 0.855568 0.110739
Si Si4 0.717129 0.094621 0.396559
Si Si5 0.701232 0.573940 0.606228
Si Si6 0.998298 0.563964 0.390571
O O1 0.955423 0.172883 0.354540
O O2 0.902685 0.247978 0.378644
O O3 0.000000 0.283343 0.250000
O O4 0.033173 0.300976 0.416935
O O5 0.376100 0.230940 0.681187
O O6 0.463345 0.191210 0.678373
O O7 0.912925 0.869199 0.150805
O O8 0.971657 0.857809 0.000000
O O9 0.726012 0.129114 0.500000
O O10 0.639134 0.062994 0.357433
O O11 0.704363 0.552575 0.500000
O O12 0.626679 0.555696 0.636338
O O13 0.990347 0.554839 0.500000
O O14 0.000000 0.500000 0.344099
#
# Coordination Sequence:
#
# PCOD8329636 Si02
#       6
#    24  12  24  24  24  24
#     4  11  21  36  52  74 103 134 178 232 285 341
#     4  12  22  34  52  78 118 153 188 222 266 338
#     4  10  22  37  52  67  88 126 179 230 277 324
#     4  10  21  36  55  81 115 150 183 230 280 333
#     4  10  21  36  55  81 115 150 183 230 280 333
#     4   8  16  35  61  86 115 151 190 231 284 344
#
# _framework density 20.547122999999999
#
# number of rings (size 3 to 8) (size 9 to 14) (size 15 to 20)
#    0.000    2.000    1.818    3.455    2.545    1.455 
#    0.000    1.818    0.000    1.091    0.000    0.000 
#    7.273    0.000    6.545    0.000    0.000    0.364 
#
# Total GULP energy -1635271.246116 kJ/mol
# GULP energy per Si atom -12388.418531 kJ/mol
# Density = 2.050036 g / cm^3
# Si number density = 20.547123 Si / 1000 Ang^3
#
#
#
# Elastic Constant Matrix: (Units=GPa)
#
#
# Indices 1 2 3 4 5 6 
#
# 1 94.8816 54.1210 22.5147 0.0000 0.0000 0.0000
# 2 54.1210 94.8816 22.5147 0.0000 0.0000 0.0000
# 3 22.5147 22.5147 95.1880 0.0000 0.0000 0.0000
# 4 0.0000 0.0000 0.0000 0.9958 0.0000 0.0000
# 5 0.0000 0.0000 0.0000 0.0000 0.9958 0.0000
# 6 0.0000 0.0000 0.0000 0.0000 0.0000 20.3803
#
#
#
# Elastic Compliance Matrix: (Units=1/GPa)
#
#
# Indices 1 2 3 4 5 6 
#
# 1 0.015881 -0.008653 -0.001710 0.000000 0.000000 0.000000
# 2 -0.008653 0.015881 -0.001710 0.000000 0.000000 0.000000
# 3 -0.001710 -0.001710 0.011314 0.000000 0.000000 0.000000
# 4 0.000000 0.000000 0.000000 1.004207 0.000000 0.000000
# 5 0.000000 0.000000 0.000000 0.000000 1.004207 0.000000
# 6 0.000000 0.000000 0.000000 0.000000 0.000000 0.049067
#
#
# Mechanical properties :
#
#
# Convention : Reuss Voigt Hill
#
# Bulk Modulus (GPa) = 52.82146 53.69467 53.25806
# Shear Modulus (GPa) = 2.34630 16.86109 9.60370
#
# Velocity S-wave (km/s) = 1.06976 2.86773 2.16429
# Velocity P-wave (km/s) = 5.22390 6.09544 5.67642
#
# Compressibility (1/GPa) = 0.01893170
#
# Stress axis : x y z
#
# Youngs Moduli (GPa) = 62.96939 62.96939 88.38390
#
# Poissons Ratio (x) = 0.54486 0.15110
# Poissons Ratio (y) = 0.54486 0.15110
# Poissons Ratio (z) = 0.10765 0.10765
#
# Static dielectric constant tensor:
#      x y z
#    x 3.776210 0.000000 0.000000 
#    y 0.000000 3.776210 0.000000 
#    z 0.000000 0.000000 3.959590 
# 
# 
# High freq. dielectric constant tensor:
#      x y z
#    x 1.769380 0.000000 0.000000 
#    y 0.000000 1.769380 0.000000 
#    z 0.000000 0.000000 1.827270 
# 
# From -- ./inp_files/3241.got.cif
#   From: 2010.03.12/outbox.cif.g09.slc.cpg/sg192_2_cif.got.tgz:3241.got - 2010.04.01 12:16:15.
