data_PCOD8329559
_publ_section_title
;
Structure prediction by ZEFSAII (Michael W. Deem and Ramdas Pophale) SiO2 
 PCOD8329559
Probable space group: P 6/M C C
;
_chemical_formula_sum "Si O2"
_cell_formula_units_Z 152
_cell_length_a 25.212420
_cell_length_b 25.212420
_cell_length_c 14.957592
_cell_angle_alpha 90.000000
_cell_angle_beta 90.000000
_cell_angle_gamma 120.000000
_cell_volume 8234.199421
_symmetry_space_group_name_H-M "P 6/M C C"
_symmetry_group_IT_number 192
_symmetry_cell_setting 'hexagonal'
loop_
_space_group_symop_operation_xyz
x,y,z
x-y,x,z
-y,x-y,z
-x,-y,z
-x+y,-x,z
y,-x+y,z
x-y,-y,1/2-z
-x,-x+y,1/2-z
y,x,1/2-z
-y,-x,1/2-z
-x+y,y,1/2-z
x,x-y,1/2-z
-x,-y,-z
-x+y,-x,-z
y,-x+y,-z
x,y,-z
x-y,x,-z
-y,x-y,-z
-x+y,y,1/2+z
x,x-y,1/2+z
-y,-x,1/2+z
y,x,1/2+z
x-y,-y,1/2+z
-x,-x+y,1/2+z
loop_
_atom_site_type_symbol
_atom_site_label
_atom_site_fract_x
_atom_site_fract_y
_atom_site_fract_z
Si Si1 0.196803 0.598401 0.606236
Si Si2 0.931445 0.744656 0.250000
Si Si3 0.272671 0.930612 0.896913
Si Si4 0.824217 0.527585 0.893981
Si Si5 0.333334 0.666667 0.393730
Si Si6 0.296623 0.472416 0.893981
Si Si7 0.342061 0.069395 0.103087
O O1 0.195043 0.597518 0.500000
O O2 0.166849 0.638388 0.642097
O O3 0.265246 0.632631 0.643591
O O4 0.166861 0.528462 0.642101
O O5 0.885715 0.771430 0.250000
O O6 0.919466 0.704424 0.161336
O O7 0.919463 0.704424 0.338664
O O8 0.000000 0.802067 0.250000
O O9 0.294387 0.884013 0.862617
O O10 0.328600 0.000004 0.883663
O O11 0.251282 0.917848 0.000000
O O12 0.762141 0.524272 0.856031
O O13 0.819436 0.524248 0.000000
O O14 0.333334 0.666668 0.500000
O O15 0.294379 0.410376 0.862618
O O16 0.295180 0.475754 0.000000
O O17 0.333435 0.082158 0.000000
#
# Coordination Sequence:
#
# PCOD8329559 Si02
#       7
#    24  24  24  24   8  24  24
#     4   9  14  20  33  57  87 118 153 197 246 293
#     4  10  20  34  54  78 103 131 161 193 229 271
#     4   9  18  32  49  71  99 128 159 196 237 281
#     4   9  15  23  38  60  87 119 155 196 241 288
#     4   9  12  18  30  51  87 115 146 199 247 290
#     4   9  15  23  38  60  87 119 155 196 241 288
#     4   9  18  32  49  71  99 128 159 196 237 281
#
# _framework density 18.459596000000001
#
# number of rings (size 3 to 8) (size 9 to 14) (size 15 to 20)
#    0.000    2.842    1.579    0.947    0.000    1.895 
#    0.000    0.789    0.000    5.842    0.000    3.316 
#    0.000    0.000    0.000    7.895    0.000    0.000 
#
# Total GULP energy -1883595.438070 kJ/mol
# GULP energy per Si atom -12392.075250 kJ/mol
# Density = 1.841758 g / cm^3
# Si number density = 18.459596 Si / 1000 Ang^3
#
#
#
# Elastic Constant Matrix: (Units=GPa)
#
#
# Indices 1 2 3 4 5 6 
#
# 1 146.3853 79.6142 21.9845 0.0000 0.0000 0.0000
# 2 79.6142 146.3855 21.9845 -0.0001 0.0000 0.0000
# 3 21.9845 21.9845 49.3062 0.0000 0.0000 0.0000
# 4 0.0000 -0.0001 0.0000 1.6524 0.0000 0.0000
# 5 0.0000 0.0000 0.0000 0.0000 1.6525 0.0000
# 6 0.0000 0.0000 0.0000 0.0000 0.0000 33.3855
#
#
#
# Elastic Compliance Matrix: (Units=1/GPa)
#
#
# Indices 1 2 3 4 5 6 
#
# 1 0.009911 -0.005066 -0.002160 0.000000 0.000000 0.000000
# 2 -0.005066 0.009911 -0.002160 0.000000 0.000000 0.000000
# 3 -0.002160 -0.002160 0.022208 0.000000 0.000000 0.000000
# 4 0.000000 0.000000 0.000000 0.605186 -0.000012 0.000000
# 5 0.000000 0.000000 0.000000 -0.000012 0.605147 0.000000
# 6 0.000000 0.000000 0.000000 0.000000 0.000000 0.029953
#
#
# Mechanical properties :
#
#
# Convention : Reuss Voigt Hill
#
# Bulk Modulus (GPa) = 42.99813 65.47147 54.23480
# Shear Modulus (GPa) = 3.82017 21.90433 12.86225
#
# Velocity S-wave (km/s) = 1.44013 3.44846 2.64252
# Velocity P-wave (km/s) = 5.10969 7.16940 6.22532
#
# Compressibility (1/GPa) = 0.02325683
#
# Stress axis : x y z
#
# Youngs Moduli (GPa) = 100.90001 100.90020 45.02902
#
# Poissons Ratio (x) = 0.51113 0.09728
# Poissons Ratio (y) = 0.51113 0.09728
# Poissons Ratio (z) = 0.21798 0.21797
#
# Static dielectric constant tensor:
#      x y z
#    x 3.469430 0.000000 0.000000 
#    y 0.000000 3.469430 0.000000 
#    z 0.000000 0.000000 3.164810 
# 
# 
# High freq. dielectric constant tensor:
#      x y z
#    x 1.700780 0.000000 0.000000 
#    y 0.000000 1.700780 0.000000 
#    z 0.000000 0.000000 1.703060 
# 
# From -- ./inp_files/3398.got.cif
#   From: 2010.03.12/outbox.cif.g09.slc.cpg/sg192_2_cif.got.tgz:3398.got - 2010.04.01 12:16:15.
