data_PCOD8329942
_publ_section_title
;
Structure prediction by ZEFSAII (Michael W. Deem and Ramdas Pophale) SiO2 
 PCOD8329942
Probable space group: P 63/M C M
;
_chemical_formula_sum "Si O2"
_cell_formula_units_Z 144
_cell_length_a 32.489371
_cell_length_b 32.489371
_cell_length_c 9.009832
_cell_angle_alpha 90.000000
_cell_angle_beta 90.000000
_cell_angle_gamma 120.000000
_cell_volume 8236.257795
_symmetry_space_group_name_H-M "P 63/M C M"
_symmetry_group_IT_number 193
_symmetry_cell_setting 'hexagonal'
loop_
_space_group_symop_operation_xyz
x,y,z
x-y,x,1/2+z
-y,x-y,z
-x,-y,1/2+z
-x+y,-x,z
y,-x+y,1/2+z
x-y,-y,1/2-z
-x,-x+y,1/2-z
y,x,1/2-z
-y,-x,-z
-x+y,y,-z
x,x-y,-z
-x,-y,-z
-x+y,-x,1/2-z
y,-x+y,-z
x,y,1/2-z
x-y,x,-z
-y,x-y,1/2-z
-x+y,y,1/2+z
x,x-y,1/2+z
-y,-x,1/2+z
y,x,z
x-y,-y,z
-x,-x+y,z
loop_
_atom_site_type_symbol
_atom_site_label
_atom_site_fract_x
_atom_site_fract_y
_atom_site_fract_z
Si Si1 0.518193 0.567770 0.078567
Si Si2 0.847731 0.468407 0.574241
Si Si3 0.195627 0.718230 0.076413
Si Si4 0.141262 0.772037 0.076930
Si Si5 0.945587 0.232973 0.423646
Si Si6 0.193022 0.139428 0.924644
O O1 0.506800 0.557858 0.250000
O O2 0.568019 0.568019 0.040507
O O3 0.514124 0.613783 0.037347
O O4 0.476486 0.523515 0.000000
O O5 0.840821 0.420411 0.500000
O O6 0.837997 0.460179 0.750000
O O7 0.812886 0.482974 0.498460
O O8 0.204161 0.716227 0.250000
O O9 0.153785 0.730486 0.046541
O O10 0.242749 0.757251 0.000000
O O11 0.142297 0.782899 0.250000
O O12 0.178973 0.821028 0.000000
O O13 0.088808 0.753894 0.013479
O O14 0.935946 0.234013 0.250000
O O15 0.935295 0.180795 0.471812
O O16 0.000000 0.271844 0.461829
O O17 0.191037 0.132289 0.750000
O O18 0.154582 0.154582 0.974335
O O19 0.179963 0.089982 0.000000
#
# Coordination Sequence:
#
# PCOD8329942 Si02
#       6
#    24  24  24  24  24  24
#     4   8  14  25  42  66  96 128 161 195 230 271
#     4  10  19  32  53  79 106 136 170 208 250 296
#     4  10  21  37  55  76 102 132 169 212 255 297
#     4  10  20  33  51  73  98 130 169 211 251 296
#     4   9  18  32  49  71 101 133 164 203 251 301
#     4   9  18  31  46  67  94 122 156 200 249 302
#
# _framework density 17.483668999999999
#
# number of rings (size 3 to 8) (size 9 to 14) (size 15 to 20)
#    0.000    2.667    0.000    3.000    0.000    5.333 
#    0.000    2.500    0.000    3.500    0.000    2.333 
#    0.000    0.000    0.000    0.000    0.000    0.000 
#
# Total GULP energy -1784170.402100 kJ/mol
# GULP energy per Si atom -12390.072237 kJ/mol
# Density = 1.744388 g / cm^3
# Si number density = 17.483669 Si / 1000 Ang^3
#
#
#
# Elastic Constant Matrix: (Units=GPa)
#
#
# Indices 1 2 3 4 5 6 
#
# 1 108.1768 62.9132 58.0946 0.0000 0.0000 0.0000
# 2 62.9132 108.1768 58.0946 0.0000 0.0000 0.0000
# 3 58.0946 58.0946 85.7984 0.0000 0.0000 0.0000
# 4 0.0000 0.0000 0.0000 28.6475 0.0000 0.0000
# 5 0.0000 0.0000 0.0000 0.0000 28.6475 0.0000
# 6 0.0000 0.0000 0.0000 0.0000 0.0000 22.6318
#
#
#
# Elastic Compliance Matrix: (Units=1/GPa)
#
#
# Indices 1 2 3 4 5 6 
#
# 1 0.016457 -0.005636 -0.007327 0.000000 0.000000 0.000000
# 2 -0.005636 0.016457 -0.007327 0.000000 0.000000 0.000000
# 3 -0.007327 -0.007327 0.021577 0.000000 0.000000 0.000000
# 4 0.000000 0.000000 0.000000 0.034907 0.000000 0.000000
# 5 0.000000 0.000000 0.000000 0.000000 0.034907 0.000000
# 6 0.000000 0.000000 0.000000 0.000000 0.000000 0.044186
#
#
# Mechanical properties :
#
#
# Convention : Reuss Voigt Hill
#
# Bulk Modulus (GPa) = 71.88287 73.37299 72.62793
# Shear Modulus (GPa) = 23.39666 24.18868 23.79267
#
# Velocity S-wave (km/s) = 3.66211 3.72358 3.69297
# Velocity P-wave (km/s) = 7.68667 7.78103 7.73400
#
# Compressibility (1/GPa) = 0.01391152
#
# Stress axis : x y z
#
# Youngs Moduli (GPa) = 60.76586 60.76586 46.34570
#
# Poissons Ratio (x) = 0.34249 0.33956
# Poissons Ratio (y) = 0.34249 0.33956
# Poissons Ratio (z) = 0.44521 0.44521
#
# Static dielectric constant tensor:
#      x y z
#    x 3.257150 0.000000 0.000000 
#    y 0.000000 3.257150 0.000000 
#    z 0.000000 0.000000 3.246030 
# 
# 
# High freq. dielectric constant tensor:
#      x y z
#    x 1.663240 0.000000 0.000000 
#    y 0.000000 1.663240 0.000000 
#    z 0.000000 0.000000 1.683150 
# 
# From -- ./inp_files/1535.got.cif
#   From: 2010.03.12/outbox.cif.g09.slc.cpg/sg193_1_cif.got.tgz:1535.got - 2010.04.01 12:20:39.
