data_PCOD8329877
_publ_section_title
;
Structure prediction by ZEFSAII (Michael W. Deem and Ramdas Pophale) SiO2 
 PCOD8329877
Probable space group: P 63/M C M
;
_chemical_formula_sum "Si O2"
_cell_formula_units_Z 72
_cell_length_a 15.651583
_cell_length_b 15.651583
_cell_length_c 20.682561
_cell_angle_alpha 90.000000
_cell_angle_beta 90.000000
_cell_angle_gamma 120.000000
_cell_volume 4387.847072
_symmetry_space_group_name_H-M "P 63/M C M"
_symmetry_group_IT_number 193
_symmetry_cell_setting 'hexagonal'
loop_
_space_group_symop_operation_xyz
x,y,z
x-y,x,1/2+z
-y,x-y,z
-x,-y,1/2+z
-x+y,-x,z
y,-x+y,1/2+z
x-y,-y,1/2-z
-x,-x+y,1/2-z
y,x,1/2-z
-y,-x,-z
-x+y,y,-z
x,x-y,-z
-x,-y,-z
-x+y,-x,1/2-z
y,-x+y,-z
x,y,1/2-z
x-y,x,-z
-y,x-y,1/2-z
-x+y,y,1/2+z
x,x-y,1/2+z
-y,-x,1/2+z
y,x,z
x-y,-y,z
-x,-x+y,z
loop_
_atom_site_type_symbol
_atom_site_label
_atom_site_fract_x
_atom_site_fract_y
_atom_site_fract_z
Si Si1 0.545780 0.243682 0.323318
Si Si2 0.884027 0.768054 0.000000
Si Si3 0.773943 0.114143 0.625393
Si Si4 0.116097 0.230396 0.750000
O O1 0.638729 0.225525 0.334106
O O2 0.506274 0.213548 0.250000
O O3 0.458886 0.178732 0.373251
O O4 0.858325 0.698112 0.938324
O O5 0.837970 0.837970 0.990381
O O6 0.844955 0.142376 0.686723
O O7 0.690110 0.000000 0.626469
O O8 0.147606 0.147606 0.750000
O O9 0.000000 0.177118 0.750000
#
# Coordination Sequence:
#
# PCOD8329877 Si02
#       4
#    24  12  24  12
#     4   8  16  32  56  76 104 139 169 212 263 315
#     4  10  21  36  54  74 106 146 179 214 260 320
#     4  10  19  33  53  77 104 135 174 219 260 306
#     4  10  19  30  48  72 102 132 167 216 264 310
#
# _framework density 16.408957999999998
#
# number of rings (size 3 to 8) (size 9 to 14) (size 15 to 20)
#    0.667    2.000    1.667    1.333    0.000    0.000 
#    0.000    8.333    0.000    4.000    0.000    0.000 
#    0.000    0.000    0.000    0.000    0.000    0.000 
#
# Total GULP energy -892440.390873 kJ/mol
# GULP energy per Si atom -12395.005429 kJ/mol
# Density = 1.637161 g / cm^3
# Si number density = 16.408958 Si / 1000 Ang^3
#
#
#
# Elastic Constant Matrix: (Units=GPa)
#
#
# Indices 1 2 3 4 5 6 
#
# 1 92.6170 55.6694 54.5273 0.0000 0.0000 0.0000
# 2 55.6694 92.6170 54.5273 0.0000 0.0000 0.0000
# 3 54.5273 54.5273 116.6768 0.0000 0.0000 0.0000
# 4 0.0000 0.0000 0.0000 23.8502 0.0000 0.0000
# 5 0.0000 0.0000 0.0000 0.0000 23.8502 0.0000
# 6 0.0000 0.0000 0.0000 0.0000 0.0000 18.4738
#
#
#
# Elastic Compliance Matrix: (Units=1/GPa)
#
#
# Indices 1 2 3 4 5 6 
#
# 1 0.018670 -0.008395 -0.004802 0.000000 0.000000 0.000000
# 2 -0.008395 0.018670 -0.004802 0.000000 0.000000 0.000000
# 3 -0.004802 -0.004802 0.013059 0.000000 0.000000 0.000000
# 4 0.000000 0.000000 0.000000 0.041928 0.000000 0.000000
# 5 0.000000 0.000000 0.000000 0.000000 0.041928 0.000000
# 6 0.000000 0.000000 0.000000 0.000000 0.000000 0.054131
#
#
# Mechanical properties :
#
#
# Convention : Reuss Voigt Hill
#
# Bulk Modulus (GPa) = 69.43726 70.15098 69.79412
# Shear Modulus (GPa) = 21.81637 22.38062 22.09850
#
# Velocity S-wave (km/s) = 3.65024 3.69715 3.67377
# Velocity P-wave (km/s) = 7.75721 7.81471 7.78601
#
# Compressibility (1/GPa) = 0.01440149
#
# Stress axis : x y z
#
# Youngs Moduli (GPa) = 53.56101 53.56101 76.57576
#
# Poissons Ratio (x) = 0.44965 0.36772
# Poissons Ratio (y) = 0.44965 0.36772
# Poissons Ratio (z) = 0.25720 0.25720
#
# Static dielectric constant tensor:
#      x y z
#    x 2.944180 0.000000 0.000000 
#    y 0.000000 2.944180 0.000000 
#    z 0.000000 0.000000 2.922140 
# 
# 
# High freq. dielectric constant tensor:
#      x y z
#    x 1.624010 0.000000 0.000000 
#    y 0.000000 1.624010 0.000000 
#    z 0.000000 0.000000 1.626580 
# 
# From -- ./inp_files/5962.got.cif
#   From: 2010.03.12/outbox.cif.g09.slc.cpg/sg193_3_cif.got.tgz:5962.got - 2010.04.01 12:20:39.
