data_PCOD8329135
_publ_section_title
;
Structure prediction by ZEFSAII (Michael W. Deem and Ramdas Pophale) SiO2 
 PCOD8329135
Probable space group: P 6/M M M
;
_chemical_formula_sum "Si O2"
_cell_formula_units_Z 108
_cell_length_a 20.273621
_cell_length_b 20.273621
_cell_length_c 17.716799
_cell_angle_alpha 90.000000
_cell_angle_beta 90.000000
_cell_angle_gamma 120.000000
_cell_volume 6306.356772
_symmetry_space_group_name_H-M "P 6/M M M"
_symmetry_group_IT_number 191
_symmetry_cell_setting 'hexagonal'
loop_
_space_group_symop_operation_xyz
x,y,z
x-y,x,z
-y,x-y,z
-x,-y,z
-x+y,-x,z
y,-x+y,z
x-y,-y,-z
-x,-x+y,-z
y,x,-z
-y,-x,-z
-x+y,y,-z
x,x-y,-z
-x,-y,-z
-x+y,-x,-z
y,-x+y,-z
x,y,-z
x-y,x,-z
-y,x-y,-z
-x+y,y,z
x,x-y,z
-y,-x,z
y,x,z
x-y,-y,z
-x,-x+y,z
loop_
_atom_site_type_symbol
_atom_site_label
_atom_site_fract_x
_atom_site_fract_y
_atom_site_fract_z
Si Si1 0.443882 0.146345 0.154879
Si Si2 0.916073 0.458037 0.393668
Si Si3 0.468643 0.379100 0.000000
Si Si4 0.572471 0.711613 0.583359
Si Si5 0.915273 0.457637 0.219307
Si Si6 0.680477 0.915172 0.278845
O O1 0.470671 0.235336 0.153244
O O2 0.506338 0.136010 0.198602
O O3 0.364833 0.099607 0.200215
O O4 0.438800 0.116501 0.070547
O O5 0.868595 0.370796 0.418489
O O6 0.930175 0.465088 0.306110
O O7 0.000000 0.500000 0.432162
O O8 0.428112 0.428112 0.000000
O O9 0.560967 0.439034 0.000000
O O10 0.611644 0.726720 0.500000
O O11 0.545753 0.772877 0.600440
O O12 0.629855 0.717796 0.649229
O O13 0.000000 0.500000 0.178849
O O14 0.709679 0.854840 0.288978
O O15 0.753084 0.000000 0.275453
#
# Coordination Sequence:
#
# PCOD8329135 Si02
#       6
#    24  12  12  24  12  24
#     4  11  22  36  53  77 105 135 174 217 261 303
#     4  11  21  32  54  78  98 131 179 226 262 306
#     4  11  21  34  56  78  99 134 177 217 258 305
#     4  10  21  35  50  73 104 136 173 216 263 308
#     4  11  20  34  56  76  99 135 183 219 258 316
#     4  10  20  35  56  78 104 133 164 207 254 306
#
# _framework density 17.125578000000001
#
# number of rings (size 3 to 8) (size 9 to 14) (size 15 to 20)
#    0.000    1.444    3.333    3.333    0.000    2.222 
#    1.333    0.000    0.000    0.222    0.000    0.000 
#    0.000    0.000    0.000    5.556    0.000   23.111 
#
# Total GULP energy -1338712.029888 kJ/mol
# GULP energy per Si atom -12395.481758 kJ/mol
# Density = 1.708660 g / cm^3
# Si number density = 17.125578 Si / 1000 Ang^3
#
#
#
# Elastic Constant Matrix: (Units=GPa)
#
#
# Indices 1 2 3 4 5 6 
#
# 1 106.3418 57.3742 31.9699 0.0000 0.0000 0.0000
# 2 57.3742 106.3418 31.9699 0.0000 0.0000 0.0000
# 3 31.9699 31.9699 118.1744 0.0000 0.0000 0.0000
# 4 0.0000 0.0000 0.0000 109.3358 0.0000 0.0000
# 5 0.0000 0.0000 0.0000 0.0000 109.3358 0.0000
# 6 0.0000 0.0000 0.0000 0.0000 0.0000 24.4838
#
#
#
# Elastic Compliance Matrix: (Units=1/GPa)
#
#
# Indices 1 2 3 4 5 6 
#
# 1 0.013626 -0.006796 -0.001848 0.000000 0.000000 0.000000
# 2 -0.006796 0.013626 -0.001848 0.000000 0.000000 0.000000
# 3 -0.001848 -0.001848 0.009462 0.000000 0.000000 0.000000
# 4 0.000000 0.000000 0.000000 0.009146 0.000000 0.000000
# 5 0.000000 0.000000 0.000000 0.000000 0.009146 0.000000
# 6 0.000000 0.000000 0.000000 0.000000 0.000000 0.040843
#
#
# Mechanical properties :
#
#
# Convention : Reuss Voigt Hill
#
# Bulk Modulus (GPa) = 63.57027 63.72065 63.64546
# Shear Modulus (GPa) = 40.95851 62.60071 51.77961
#
# Velocity S-wave (km/s) = 4.89576 6.05254 5.50462
# Velocity P-wave (km/s) = 8.31617 9.28079 8.81169
#
# Compressibility (1/GPa) = 0.01573062
#
# Stress axis : x y z
#
# Youngs Moduli (GPa) = 73.39078 73.39078 105.68850
#
# Poissons Ratio (x) = 0.49876 0.19528
# Poissons Ratio (y) = 0.49876 0.19528
# Poissons Ratio (z) = 0.13560 0.13560
#
# Static dielectric constant tensor:
#      x y z
#    x 3.134240 0.000000 0.000000 
#    y 0.000000 3.134240 0.000000 
#    z 0.000000 0.000000 3.662040 
# 
# 
# High freq. dielectric constant tensor:
#      x y z
#    x 1.642750 0.000000 0.000000 
#    y 0.000000 1.642750 0.000000 
#    z 0.000000 0.000000 1.687050 
# 
# From -- ./inp_files/6201.got.cif
#   From: 2010.03.12/outbox.cif.g09.slc.cpg/sg191_4_cif.got.tgz:6201.got - 2010.04.01 12:09:02.
