data_PCOD8329817
_publ_section_title
;
Structure prediction by ZEFSAII (Michael W. Deem and Ramdas Pophale) SiO2 
 PCOD8329817
Probable space group: P 63/M C M
;
_chemical_formula_sum "Si O2"
_cell_formula_units_Z 144
_cell_length_a 22.181477
_cell_length_b 22.181477
_cell_length_c 18.979578
_cell_angle_alpha 90.000000
_cell_angle_beta 90.000000
_cell_angle_gamma 120.000000
_cell_volume 8087.198556
_symmetry_space_group_name_H-M "P 63/M C M"
_symmetry_group_IT_number 193
_symmetry_cell_setting 'hexagonal'
loop_
_space_group_symop_operation_xyz
x,y,z
x-y,x,1/2+z
-y,x-y,z
-x,-y,1/2+z
-x+y,-x,z
y,-x+y,1/2+z
x-y,-y,1/2-z
-x,-x+y,1/2-z
y,x,1/2-z
-y,-x,-z
-x+y,y,-z
x,x-y,-z
-x,-y,-z
-x+y,-x,1/2-z
y,-x+y,-z
x,y,1/2-z
x-y,x,-z
-y,x-y,1/2-z
-x+y,y,1/2+z
x,x-y,1/2+z
-y,-x,1/2+z
y,x,z
x-y,-y,z
-x,-x+y,z
loop_
_atom_site_type_symbol
_atom_site_label
_atom_site_fract_x
_atom_site_fract_y
_atom_site_fract_z
Si Si1 0.152546 0.295783 0.166505
Si Si2 0.465759 0.661584 0.833935
Si Si3 0.526983 0.198228 0.334090
Si Si4 0.388094 0.077756 0.666286
Si Si5 0.079632 0.920303 0.419966
Si Si6 0.921757 0.620341 0.833802
O O1 0.148916 0.286601 0.250000
O O2 0.231160 0.344586 0.140167
O O3 0.125695 0.221547 0.132177
O O4 0.106200 0.328883 0.140482
O O5 0.463553 0.662379 0.750000
O O6 0.397520 0.594146 0.863774
O O7 0.469884 0.731897 0.862919
O O8 0.532795 0.657687 0.860545
O O9 0.526637 0.198558 0.250000
O O10 0.457538 0.130021 0.362345
O O11 0.386462 0.074358 0.750000
O O12 0.355611 0.000000 0.634523
O O13 0.093626 0.906375 0.500000
O O14 0.000000 0.900498 0.411055
O O15 0.127479 0.000000 0.398088
O O16 0.922349 0.619165 0.750000
O O17 0.000000 0.648950 0.863370
#
# Coordination Sequence:
#
# PCOD8329817 Si02
#       6
#    24  24  24  24  24  24
#     4  10  18  31  49  69  94 124 160 196 233 280
#     4   9  15  23  34  50  76 113 153 186 221 272
#     4   9  15  23  34  50  76 113 153 186 221 272
#     4   9  16  25  38  57  82 113 148 187 230 274
#     4  10  21  36  52  70  94 124 158 198 244 289
#     4   9  16  25  38  57  82 113 148 187 230 274
#
# _framework density 17.80592
#
# number of rings (size 3 to 8) (size 9 to 14) (size 15 to 20)
#    0.000    2.667    1.667    1.500    0.000    4.667 
#    0.000    3.333    0.000    1.000    0.000    0.000 
#    0.000    1.333    0.000    7.000    0.000    6.667 
#
# Total GULP energy -1785256.513802 kJ/mol
# GULP energy per Si atom -12397.614679 kJ/mol
# Density = 1.776539 g / cm^3
# Si number density = 17.805920 Si / 1000 Ang^3
#
#
#
# Elastic Constant Matrix: (Units=GPa)
#
#
# Indices 1 2 3 4 5 6 
#
# 1 145.1396 67.5199 14.0355 0.0000 0.0000 0.0000
# 2 67.5199 145.1396 14.0355 0.0000 0.0000 0.0000
# 3 14.0355 14.0355 10.2218 0.0000 0.0000 0.0000
# 4 0.0000 0.0000 0.0000 6.2386 0.0000 0.0000
# 5 0.0000 0.0000 0.0000 0.0000 6.2386 0.0000
# 6 0.0000 0.0000 0.0000 0.0000 0.0000 38.8098
#
#
#
# Elastic Compliance Matrix: (Units=1/GPa)
#
#
# Indices 1 2 3 4 5 6 
#
# 1 0.009313 -0.003570 -0.007886 0.000000 0.000000 0.000000
# 2 -0.003570 0.009313 -0.007886 0.000000 0.000000 0.000000
# 3 -0.007886 -0.007886 0.119488 0.000000 0.000000 0.000000
# 4 0.000000 0.000000 0.000000 0.160292 0.000000 0.000000
# 5 0.000000 0.000000 0.000000 0.000000 0.160292 0.000000
# 6 0.000000 0.000000 0.000000 0.000000 0.000000 0.025767
#
#
# Mechanical properties :
#
#
# Convention : Reuss Voigt Hill
#
# Bulk Modulus (GPa) = 10.05738 54.63143 32.34440
# Shear Modulus (GPa) = 8.98807 23.91807 16.45307
#
# Velocity S-wave (km/s) = 2.24917 3.66903 3.04307
# Velocity P-wave (km/s) = 3.52216 6.97835 5.52734
#
# Compressibility (1/GPa) = 0.09942948
#
# Stress axis : x y z
#
# Youngs Moduli (GPa) = 107.37295 107.37295 8.36907
#
# Poissons Ratio (x) = 0.38332 0.06600
# Poissons Ratio (y) = 0.38332 0.06600
# Poissons Ratio (z) = 0.84676 0.84676
#
# Static dielectric constant tensor:
#      x y z
#    x 3.540010 0.000000 0.000000 
#    y 0.000000 3.540010 0.000000 
#    z 0.000000 0.000000 2.522550 
# 
# 
# High freq. dielectric constant tensor:
#      x y z
#    x 1.704670 0.000000 0.000000 
#    y 0.000000 1.704670 0.000000 
#    z 0.000000 0.000000 1.599010 
# 
# From -- ./inp_files/6601.got.cif
#   From: 2010.03.12/outbox.cif.g09.slc.cpg/sg193_4_cif.got.tgz:6601.got - 2010.04.01 12:20:39.
