data_PCOD8329760
_publ_section_title
;
Structure prediction by ZEFSAII (Michael W. Deem and Ramdas Pophale) SiO2 
 PCOD8329760
Probable space group: P 63/M C M
;
_chemical_formula_sum "Si O2"
_cell_formula_units_Z 104
_cell_length_a 18.151579
_cell_length_b 18.151579
_cell_length_c 23.255686
_cell_angle_alpha 90.000000
_cell_angle_beta 90.000000
_cell_angle_gamma 120.000000
_cell_volume 6635.728474
_symmetry_space_group_name_H-M "P 63/M C M"
_symmetry_group_IT_number 193
_symmetry_cell_setting 'hexagonal'
loop_
_space_group_symop_operation_xyz
x,y,z
x-y,x,1/2+z
-y,x-y,z
-x,-y,1/2+z
-x+y,-x,z
y,-x+y,1/2+z
x-y,-y,1/2-z
-x,-x+y,1/2-z
y,x,1/2-z
-y,-x,-z
-x+y,y,-z
x,x-y,-z
-x,-y,-z
-x+y,-x,1/2-z
y,-x+y,-z
x,y,1/2-z
x-y,x,-z
-y,x-y,1/2-z
-x+y,y,1/2+z
x,x-y,1/2+z
-y,-x,1/2+z
y,x,z
x-y,-y,z
-x,-x+y,z
loop_
_atom_site_type_symbol
_atom_site_label
_atom_site_fract_x
_atom_site_fract_y
_atom_site_fract_z
Si Si1 0.467327 0.095217 0.011051
Si Si2 0.725257 0.516287 0.112521
Si Si3 0.579046 0.671889 0.883702
Si Si4 0.904687 0.475443 0.814628
Si Si5 0.333333 0.666666 0.431209
O O1 0.446993 0.147127 0.057746
O O2 0.432167 0.000000 0.035616
O O3 0.569121 0.138241 0.000000
O O4 0.421507 0.093297 0.952467
O O5 0.822684 0.583104 0.133106
O O6 0.666647 0.505816 0.166765
O O7 0.720519 0.428653 0.093625
O O8 0.658207 0.658207 0.863238
O O9 0.492562 0.595590 0.858434
O O10 0.881444 0.437841 0.750000
O O11 0.000000 0.555635 0.816393
O O12 0.333334 0.666667 0.500000
#
# Coordination Sequence:
#
# PCOD8329760 Si02
#       5
#    24  24  24  24   8
#     4  10  17  28  47  67  89 115 145 185 233 275
#     4  12  19  31  45  67  87 116 152 190 229 263
#     4  10  20  32  45  63  89 118 146 181 228 271
#     4  10  21  35  47  60  83 116 153 191 230 271
#     4  12  21  27  40  71  94 111 144 199 236 256
#
# _framework density 15.672734
#
# number of rings (size 3 to 8) (size 9 to 14) (size 15 to 20)
#    0.000    1.385    4.615    3.462    0.000    0.923 
#    0.000    0.000    0.000    0.000    0.000    0.000 
#    0.000    0.000    0.000    5.538    0.000   44.769 
#
# Total GULP energy -1288999.395813 kJ/mol
# GULP energy per Si atom -12394.224960 kJ/mol
# Density = 1.563706 g / cm^3
# Si number density = 15.672734 Si / 1000 Ang^3
#
#
#
# Elastic Constant Matrix: (Units=GPa)
#
#
# Indices 1 2 3 4 5 6 
#
# 1 79.4314 31.5403 23.0601 0.0000 0.0000 0.0000
# 2 31.5403 79.4315 23.0601 0.0000 0.0000 0.0000
# 3 23.0601 23.0601 66.1043 0.0000 0.0000 0.0000
# 4 0.0000 0.0000 0.0000 12.8535 0.0000 0.0000
# 5 0.0000 0.0000 0.0000 0.0000 12.8536 0.0000
# 6 0.0000 0.0000 0.0000 0.0000 0.0000 23.9455
#
#
#
# Elastic Compliance Matrix: (Units=1/GPa)
#
#
# Indices 1 2 3 4 5 6 
#
# 1 0.015710 -0.005171 -0.003677 0.000000 0.000000 0.000000
# 2 -0.005171 0.015710 -0.003677 0.000000 0.000000 0.000000
# 3 -0.003677 -0.003677 0.017693 0.000000 0.000000 0.000000
# 4 0.000000 0.000000 0.000000 0.077800 0.000000 0.000000
# 5 0.000000 0.000000 0.000000 0.000000 0.077799 0.000000
# 6 0.000000 0.000000 0.000000 0.000000 0.000000 0.041761
#
#
# Mechanical properties :
#
#
# Convention : Reuss Voigt Hill
#
# Bulk Modulus (GPa) = 41.55413 42.25427 41.90420
# Shear Modulus (GPa) = 17.88637 19.75097 18.81867
#
# Velocity S-wave (km/s) = 3.38189 3.55380 3.46891
# Velocity P-wave (km/s) = 6.46690 6.62255 6.54519
#
# Compressibility (1/GPa) = 0.02406500
#
# Stress axis : x y z
#
# Youngs Moduli (GPa) = 63.65366 63.65374 56.52044
#
# Poissons Ratio (x) = 0.32913 0.20780
# Poissons Ratio (y) = 0.32913 0.20780
# Poissons Ratio (z) = 0.23403 0.23403
#
# Static dielectric constant tensor:
#      x y z
#    x 3.026250 0.000000 0.000000 
#    y 0.000000 3.026250 0.000000 
#    z 0.000000 0.000000 2.991660 
# 
# 
# High freq. dielectric constant tensor:
#      x y z
#    x 1.572380 0.000000 0.000000 
#    y 0.000000 1.572380 0.000000 
#    z 0.000000 0.000000 1.606170 
# 
# From -- ./inp_files/6316.got.cif
#   From: 2010.03.12/outbox.cif.g09.slc.cpg/sg193_4_cif.got.tgz:6316.got - 2010.04.01 12:20:39.
