data_PCOD8329952
_publ_section_title
;
Structure prediction by ZEFSAII (Michael W. Deem and Ramdas Pophale) SiO2 
 PCOD8329952
Probable space group: P 63/M C M
;
_chemical_formula_sum "Si O2"
_cell_formula_units_Z 168
_cell_length_a 19.663436
_cell_length_b 19.663436
_cell_length_c 27.760379
_cell_angle_alpha 90.000000
_cell_angle_beta 90.000000
_cell_angle_gamma 120.000000
_cell_volume 9295.544638
_symmetry_space_group_name_H-M "P 63/M C M"
_symmetry_group_IT_number 193
_symmetry_cell_setting 'hexagonal'
loop_
_space_group_symop_operation_xyz
x,y,z
x-y,x,1/2+z
-y,x-y,z
-x,-y,1/2+z
-x+y,-x,z
y,-x+y,1/2+z
x-y,-y,1/2-z
-x,-x+y,1/2-z
y,x,1/2-z
-y,-x,-z
-x+y,y,-z
x,x-y,-z
-x,-y,-z
-x+y,-x,1/2-z
y,-x+y,-z
x,y,1/2-z
x-y,x,-z
-y,x-y,1/2-z
-x+y,y,1/2+z
x,x-y,1/2+z
-y,-x,1/2+z
y,x,z
x-y,-y,z
-x,-x+y,z
loop_
_atom_site_type_symbol
_atom_site_label
_atom_site_fract_x
_atom_site_fract_y
_atom_site_fract_z
Si Si1 0.510760 0.907188 0.463911
Si Si2 0.088097 0.281673 0.303511
Si Si3 0.908335 0.240476 0.524287
Si Si4 0.677305 0.133996 0.804386
Si Si5 0.090548 0.562198 0.357609
Si Si6 0.711830 0.175797 0.304463
Si Si7 0.087970 0.778454 0.136047
O O1 0.435827 0.871653 0.500000
O O2 0.575477 0.883297 0.480041
O O3 0.476102 0.877697 0.410450
O O4 0.552040 0.000000 0.463912
O O5 0.122535 0.285825 0.250000
O O6 0.094729 0.364607 0.314953
O O7 0.134222 0.260798 0.342744
O O8 0.000000 0.212298 0.307023
O O9 0.841156 0.158845 0.500000
O O10 0.906134 0.217456 0.579196
O O11 0.000000 0.275721 0.505225
O O12 0.641831 0.112171 0.750000
O O13 0.611958 0.098084 0.846110
O O14 0.730827 0.228832 0.809805
O O15 0.149682 0.622912 0.317752
O O16 0.000000 0.540560 0.351284
O O17 0.716324 0.149979 0.250000
O O18 0.734363 0.130352 0.342851
O O19 0.000000 0.731576 0.154279
#
# Coordination Sequence:
#
# PCOD8329952 Si02
#       7
#    24  24  24  24  24  24  24
#     4   9  19  36  55  78 108 140 177 229 288 335
#     4   9  18  32  50  76 112 147 179 220 270 327
#     4  10  21  38  60  85 114 146 186 240 292 345
#     4   9  19  33  48  73 109 143 177 219 265 315
#     4  11  20  33  55  78 101 136 183 227 269 319
#     4  10  20  33  50  76 109 143 177 216 269 324
#     4  10  19  33  53  78 108 138 174 225 277 325
#
# _framework density 18.073174999999999
#
# number of rings (size 3 to 8) (size 9 to 14) (size 15 to 20)
#    0.000    2.286    1.429    2.571    0.000    6.286 
#    0.857    1.429    0.000    0.714    0.000    0.000 
#    0.000    0.000    0.000    0.000    0.000    0.000 
#
# Total GULP energy -2081679.889222 kJ/mol
# GULP energy per Si atom -12390.951722 kJ/mol
# Density = 1.803204 g / cm^3
# Si number density = 18.073175 Si / 1000 Ang^3
#
#
#
# Elastic Constant Matrix: (Units=GPa)
#
#
# Indices 1 2 3 4 5 6 
#
# 1 70.4459 20.1256 33.9895 0.0000 0.0000 0.0000
# 2 20.1256 70.4459 33.9895 0.0000 0.0000 0.0000
# 3 33.9895 33.9895 71.0728 0.0000 0.0000 0.0000
# 4 0.0000 0.0000 0.0000 30.8381 0.0000 0.0000
# 5 0.0000 0.0000 0.0000 0.0000 30.8381 0.0000
# 6 0.0000 0.0000 0.0000 0.0000 0.0000 25.1601
#
#
#
# Elastic Compliance Matrix: (Units=1/GPa)
#
#
# Indices 1 2 3 4 5 6 
#
# 1 0.018548 -0.001325 -0.008237 0.000000 0.000000 0.000000
# 2 -0.001325 0.018548 -0.008237 0.000000 0.000000 0.000000
# 3 -0.008237 -0.008237 0.021948 0.000000 0.000000 0.000000
# 4 0.000000 0.000000 0.000000 0.032427 0.000000 0.000000
# 5 0.000000 0.000000 0.000000 0.000000 0.032427 0.000000
# 6 0.000000 0.000000 0.000000 0.000000 0.000000 0.039745
#
#
# Mechanical properties :
#
#
# Convention : Reuss Voigt Hill
#
# Bulk Modulus (GPa) = 42.64815 43.13041 42.88928
# Shear Modulus (GPa) = 24.14801 25.62460 24.88630
#
# Velocity S-wave (km/s) = 3.65927 3.76949 3.71479
# Velocity P-wave (km/s) = 6.44223 6.54687 6.49476
#
# Compressibility (1/GPa) = 0.02344768
#
# Stress axis : x y z
#
# Youngs Moduli (GPa) = 53.91449 53.91449 45.56185
#
# Poissons Ratio (x) = 0.07143 0.37528
# Poissons Ratio (y) = 0.07143 0.37528
# Poissons Ratio (z) = 0.44408 0.44408
#
# Static dielectric constant tensor:
#      x y z
#    x 3.415550 0.000000 0.000000 
#    y 0.000000 3.415550 0.000000 
#    z 0.000000 0.000000 3.403920 
# 
# 
# High freq. dielectric constant tensor:
#      x y z
#    x 1.685480 0.000000 0.000000 
#    y 0.000000 1.685480 0.000000 
#    z 0.000000 0.000000 1.699840 
# 
# From -- ./inp_files/7699.got.cif
#   From: 2010.03.12/outbox.cif.g09.slc.cpg/sg193_4_cif.got.tgz:7699.got - 2010.04.01 12:20:39.
