data_PCOD8329121
_publ_section_title
;
Structure prediction by ZEFSAII (Michael W. Deem and Ramdas Pophale) SiO2 
 PCOD8329121
Probable space group: P 6/M M M
;
_chemical_formula_sum "Si O2"
_cell_formula_units_Z 132
_cell_length_a 26.721931
_cell_length_b 26.721931
_cell_length_c 11.676651
_cell_angle_alpha 90.000000
_cell_angle_beta 90.000000
_cell_angle_gamma 120.000000
_cell_volume 7220.788227
_symmetry_space_group_name_H-M "P 6/M M M"
_symmetry_group_IT_number 191
_symmetry_cell_setting 'hexagonal'
loop_
_space_group_symop_operation_xyz
x,y,z
x-y,x,z
-y,x-y,z
-x,-y,z
-x+y,-x,z
y,-x+y,z
x-y,-y,-z
-x,-x+y,-z
y,x,-z
-y,-x,-z
-x+y,y,-z
x,x-y,-z
-x,-y,-z
-x+y,-x,-z
y,-x+y,-z
x,y,-z
x-y,x,-z
-y,x-y,-z
-x+y,y,z
x,x-y,z
-y,-x,z
y,x,z
x-y,-y,z
-x,-x+y,z
loop_
_atom_site_type_symbol
_atom_site_label
_atom_site_fract_x
_atom_site_fract_y
_atom_site_fract_z
Si Si1 0.689024 0.901799 0.000000
Si Si2 0.722737 0.067236 0.631368
Si Si3 0.934784 0.180618 0.232088
Si Si4 0.889100 0.540491 0.234540
Si Si5 0.405856 0.340091 0.000000
Si Si6 0.552424 0.332588 0.131757
Si Si7 0.465917 0.534084 0.629343
O O1 0.727307 0.934540 0.109536
O O2 0.627567 0.898428 0.000000
O O3 0.670933 0.835467 0.000000
O O4 0.728435 0.086122 0.500000
O O5 0.785674 0.081253 0.673767
O O6 0.700146 0.102940 0.702742
O O7 0.676654 0.000000 0.648319
O O8 0.887972 0.112029 0.239828
O O9 0.000000 0.191978 0.253081
O O10 0.820922 0.500982 0.212536
O O11 0.911243 0.505747 0.309358
O O12 0.921573 0.555081 0.112543
O O13 0.356003 0.356003 0.000000
O O14 0.571538 0.285769 0.157386
O O15 0.605265 0.394736 0.162942
O O16 0.533652 0.329934 0.000000
O O17 0.500000 0.500000 0.628117
O O18 0.453668 0.546333 0.500000
#
# Coordination Sequence:
#
# PCOD8329121 Si02
#       7
#    12  24  24  24  12  24  12
#     4  10  20  34  56  83 115 154 192 231 284 347
#     4  10  21  37  56  80 113 154 196 232 272 332
#     4  10  20  35  57  84 116 154 197 242 290 344
#     4  12  22  36  57  87 115 145 189 233 285 338
#     4  12  22  33  54  84 124 154 176 221 289 348
#     4  10  21  39  60  83 108 137 177 229 286 341
#     4  11  24  41  59  79 111 158 201 233 275 339
#
# _framework density 18.280553000000001
#
# number of rings (size 3 to 8) (size 9 to 14) (size 15 to 20)
#    0.000    1.364    3.636    3.182    0.000    4.364 
#    0.000    0.909    0.000    1.818    0.000    0.000 
#    0.000    2.182    0.000    4.545    0.000    0.000 
#
# Total GULP energy -1637136.280498 kJ/mol
# GULP energy per Si atom -12402.547580 kJ/mol
# Density = 1.823895 g / cm^3
# Si number density = 18.280553 Si / 1000 Ang^3
#
#
#
# Elastic Constant Matrix: (Units=GPa)
#
#
# Indices 1 2 3 4 5 6 
#
# 1 98.2982 45.9627 42.7867 0.0000 0.0000 0.0000
# 2 45.9627 98.2982 42.7867 0.0000 0.0000 0.0000
# 3 42.7867 42.7867 117.5556 0.0000 0.0000 0.0000
# 4 0.0000 0.0000 0.0000 22.4716 0.0000 0.0000
# 5 0.0000 0.0000 0.0000 0.0000 22.4716 0.0000
# 6 0.0000 0.0000 0.0000 0.0000 0.0000 26.1678
#
#
#
# Elastic Compliance Matrix: (Units=1/GPa)
#
#
# Indices 1 2 3 4 5 6 
#
# 1 0.013974 -0.005133 -0.003218 0.000000 0.000000 0.000000
# 2 -0.005133 0.013974 -0.003218 0.000000 0.000000 0.000000
# 3 -0.003218 -0.003218 0.010849 0.000000 0.000000 0.000000
# 4 0.000000 0.000000 0.000000 0.044501 0.000000 0.000000
# 5 0.000000 0.000000 0.000000 0.000000 0.044501 0.000000
# 6 0.000000 0.000000 0.000000 0.000000 0.000000 0.038215
#
#
# Mechanical properties :
#
#
# Convention : Reuss Voigt Hill
#
# Bulk Modulus (GPa) = 63.86000 64.13600 63.99800
# Shear Modulus (GPa) = 25.72404 26.39658 26.06031
#
# Velocity S-wave (km/s) = 3.75531 3.80408 3.77978
# Velocity P-wave (km/s) = 7.33569 7.37938 7.35756
#
# Compressibility (1/GPa) = 0.01565925
#
# Stress axis : x y z
#
# Youngs Moduli (GPa) = 71.56128 71.56128 92.17513
#
# Poissons Ratio (x) = 0.36736 0.29659
# Poissons Ratio (y) = 0.36736 0.29659
# Poissons Ratio (z) = 0.23026 0.23026
#
# Static dielectric constant tensor:
#      x y z
#    x 3.311210 0.000000 0.000000 
#    y 0.000000 3.311210 0.000000 
#    z 0.000000 0.000000 3.554670 
# 
# 
# High freq. dielectric constant tensor:
#      x y z
#    x 1.701590 0.000000 0.000000 
#    y 0.000000 1.701590 0.000000 
#    z 0.000000 0.000000 1.712690 
# 
# From -- ./inp_files/3392.got.cif
#   From: 2010.03.12/outbox.cif.g09.slc.cpg/sg191_2_cif.got.tgz:3392.got - 2010.04.01 12:09:02.
