data_PCOD8329141
_publ_section_title
;
Structure prediction by ZEFSAII (Michael W. Deem and Ramdas Pophale) SiO2 
 PCOD8329141
Probable space group: P 6/M M M
;
_chemical_formula_sum "Si O2"
_cell_formula_units_Z 108
_cell_length_a 24.477712
_cell_length_b 24.477712
_cell_length_c 11.258144
_cell_angle_alpha 90.000000
_cell_angle_beta 90.000000
_cell_angle_gamma 120.000000
_cell_volume 5841.697609
_symmetry_space_group_name_H-M "P 6/M M M"
_symmetry_group_IT_number 191
_symmetry_cell_setting 'hexagonal'
loop_
_space_group_symop_operation_xyz
x,y,z
x-y,x,z
-y,x-y,z
-x,-y,z
-x+y,-x,z
y,-x+y,z
x-y,-y,-z
-x,-x+y,-z
y,x,-z
-y,-x,-z
-x+y,y,-z
x,x-y,-z
-x,-y,-z
-x+y,-x,-z
y,-x+y,-z
x,y,-z
x-y,x,-z
-y,x-y,-z
-x+y,y,z
x,x-y,z
-y,-x,z
y,x,z
x-y,-y,z
-x,-x+y,z
loop_
_atom_site_type_symbol
_atom_site_label
_atom_site_fract_x
_atom_site_fract_y
_atom_site_fract_z
Si Si1 0.000000 0.881960 0.864943
Si Si2 0.874866 0.539050 0.224539
Si Si3 0.221598 0.000000 0.743916
Si Si4 0.338056 0.000000 0.139622
Si Si5 0.927804 0.463902 0.640575
Si Si6 0.794403 0.205597 0.642908
Si Si7 0.134935 0.269869 0.362125
Si Si8 0.334036 0.538342 0.000000
O O1 0.938075 0.876150 0.801401
O O2 0.000000 0.816415 0.860208
O O3 0.000000 0.899494 0.000000
O O4 0.893511 0.499843 0.311012
O O5 0.832220 0.557003 0.303982
O O6 0.937572 0.598036 0.173124
O O7 0.835305 0.496557 0.115390
O O8 0.283894 0.000000 0.781254
O O9 0.173241 0.938335 0.671273
O O10 0.324217 0.000000 0.000000
O O11 0.922807 0.461404 0.500000
O O12 0.000000 0.500000 0.683751
O O13 0.791387 0.208614 0.500000
O O14 0.830041 0.169960 0.692646
O O15 0.139246 0.278492 0.500000
O O16 0.389982 0.610019 0.000000
O O17 0.268720 0.537439 0.000000
#
# Coordination Sequence:
#
# PCOD8329141 Si02
#       8
#    12  24  12  12  12  12  12  12
#     4  10  20  35  57  81 107 148 197 246 306 370
#     4  12  23  42  66  95 131 172 211 262 327 382
#     4  12  22  41  59  84 124 160 202 261 315 379
#     4  12  25  38  61  99 131 160 208 258 318 393
#     4  11  24  41  65  97 132 171 218 267 319 385
#     4  11  24  43  65  91 127 171 220 265 317 387
#     4  11  24  40  62  87 117 163 215 263 318 374
#     4  12  25  43  71  95 131 174 217 269 315 387
#
# _framework density 18.487774999999999
#
# number of rings (size 3 to 8) (size 9 to 14) (size 15 to 20)
#    0.000    0.556    7.778    1.556    0.000    0.444 
#    0.000    2.778    0.000    0.000    0.000    4.667 
#    0.000    0.000    0.000    0.000    0.000    0.000 
#
# Total GULP energy -1338942.967789 kJ/mol
# GULP energy per Si atom -12397.620072 kJ/mol
# Density = 1.844570 g / cm^3
# Si number density = 18.487775 Si / 1000 Ang^3
#
#
#
# Elastic Constant Matrix: (Units=GPa)
#
#
# Indices 1 2 3 4 5 6 
#
# 1 132.7931 69.4363 38.4557 0.0000 0.0000 0.0000
# 2 69.4363 132.7931 38.4557 0.0000 0.0000 0.0000
# 3 38.4557 38.4557 77.9607 0.0000 0.0000 0.0000
# 4 0.0000 0.0000 0.0000 32.8383 0.0000 0.0000
# 5 0.0000 0.0000 0.0000 0.0000 32.8383 0.0000
# 6 0.0000 0.0000 0.0000 0.0000 0.0000 31.6784
#
#
#
# Elastic Compliance Matrix: (Units=1/GPa)
#
#
# Indices 1 2 3 4 5 6 
#
# 1 0.010935 -0.004848 -0.003002 0.000000 0.000000 0.000000
# 2 -0.004848 0.010935 -0.003002 0.000000 0.000000 0.000000
# 3 -0.003002 -0.003002 0.015789 0.000000 0.000000 0.000000
# 4 0.000000 0.000000 0.000000 0.030452 0.000000 0.000000
# 5 0.000000 0.000000 0.000000 0.000000 0.030452 0.000000
# 6 0.000000 0.000000 0.000000 0.000000 0.000000 0.031567
#
#
# Mechanical properties :
#
#
# Convention : Reuss Voigt Hill
#
# Bulk Modulus (GPa) = 62.68484 70.69362 66.68923
# Shear Modulus (GPa) = 31.81567 32.61761 32.21664
#
# Velocity S-wave (km/s) = 4.15288 4.20489 4.17896
# Velocity P-wave (km/s) = 7.54817 7.86739 7.70943
#
# Compressibility (1/GPa) = 0.01595282
#
# Stress axis : x y z
#
# Youngs Moduli (GPa) = 91.44790 91.44790 63.33528
#
# Poissons Ratio (x) = 0.44338 0.19016
# Poissons Ratio (y) = 0.44338 0.19016
# Poissons Ratio (z) = 0.27456 0.27456
#
# Static dielectric constant tensor:
#      x y z
#    x 3.673080 0.000000 0.000000 
#    y 0.000000 3.673080 0.000000 
#    z 0.000000 0.000000 3.336020 
# 
# 
# High freq. dielectric constant tensor:
#      x y z
#    x 1.736410 0.000000 0.000000 
#    y 0.000000 1.736410 0.000000 
#    z 0.000000 0.000000 1.717220 
# 
# From -- ./inp_files/3052.got.cif
#   From: 2010.03.12/outbox.cif.g09.slc.cpg/sg191_2_cif.got.tgz:3052.got - 2010.04.01 12:09:02.
