data_PCOD8329780
_publ_section_title
;
Structure prediction by ZEFSAII (Michael W. Deem and Ramdas Pophale) SiO2 
 PCOD8329780
Probable space group: P 63/M C M
;
_chemical_formula_sum "Si O2"
_cell_formula_units_Z 168
_cell_length_a 24.939404
_cell_length_b 24.939404
_cell_length_c 19.571221
_cell_angle_alpha 90.000000
_cell_angle_beta 90.000000
_cell_angle_gamma 120.000000
_cell_volume 10541.943732
_symmetry_space_group_name_H-M "P 63/M C M"
_symmetry_group_IT_number 193
_symmetry_cell_setting 'hexagonal'
loop_
_space_group_symop_operation_xyz
x,y,z
x-y,x,1/2+z
-y,x-y,z
-x,-y,1/2+z
-x+y,-x,z
y,-x+y,1/2+z
x-y,-y,1/2-z
-x,-x+y,1/2-z
y,x,1/2-z
-y,-x,-z
-x+y,y,-z
x,x-y,-z
-x,-y,-z
-x+y,-x,1/2-z
y,-x+y,-z
x,y,1/2-z
x-y,x,-z
-y,x-y,1/2-z
-x+y,y,1/2+z
x,x-y,1/2+z
-y,-x,1/2+z
y,x,z
x-y,-y,z
-x,-x+y,z
loop_
_atom_site_type_symbol
_atom_site_label
_atom_site_fract_x
_atom_site_fract_y
_atom_site_fract_z
Si Si1 0.864536 0.071225 0.669043
Si Si2 0.070218 0.681871 0.951307
Si Si3 0.848477 0.848477 0.669952
Si Si4 0.000000 0.731011 0.329670
Si Si5 0.611886 0.896381 0.395889
Si Si6 0.673537 0.821708 0.076406
Si Si7 0.072323 0.476593 0.671433
Si Si8 0.507229 0.072988 0.433707
O O1 0.857875 0.079701 0.750000
O O2 0.935683 0.089518 0.650053
O O3 0.848968 0.117544 0.627925
O O4 0.819983 0.000000 0.646746
O O5 0.108145 0.748356 0.917412
O O6 0.099216 0.639353 0.927060
O O7 0.000000 0.653118 0.925942
O O8 0.071769 0.685311 0.032881
O O9 0.840161 0.840161 0.750000
O O10 0.789560 0.789560 0.634906
O O11 0.939671 0.669698 0.350275
O O12 0.000000 0.737593 0.250000
O O13 0.618377 0.835636 0.404316
O O14 0.550086 0.884581 0.356479
O O15 0.697736 0.848868 0.000000
O O16 0.087205 0.493975 0.750000
O O17 0.089946 0.540424 0.633439
O O18 0.000000 0.425403 0.659281
O O19 0.551042 0.102084 0.500000
O O20 0.465419 0.000000 0.444680
#
# Coordination Sequence:
#
# PCOD8329780 Si02
#       8
#    24  24  12  12  24  24  24  24
#     4  10  20  36  53  69  93 127 170 215 265 325
#     4  10  18  31  48  66  96 133 165 192 228 282
#     4   9  18  32  50  70  90 120 162 215 273 321
#     4  11  18  26  46  69  95 124 152 202 268 311
#     4  11  18  28  44  70 100 127 157 200 247 290
#     4  10  22  33  48  73 100 131 167 205 244 296
#     4  10  18  27  44  72  99 122 154 193 233 280
#     4   9  16  28  46  66  93 128 154 179 219 269
#
# _framework density 15.936341000000001
#
# number of rings (size 3 to 8) (size 9 to 14) (size 15 to 20)
#    0.000    2.000    4.286    0.857    0.000    0.571 
#    1.714    0.714    0.000    2.571    0.000    0.500 
#    1.429    1.429    0.000    0.000    0.000    0.000 
#
# Total GULP energy -2082051.006531 kJ/mol
# GULP energy per Si atom -12393.160753 kJ/mol
# Density = 1.590007 g / cm^3
# Si number density = 15.936341 Si / 1000 Ang^3
#
#
#
# Elastic Constant Matrix: (Units=GPa)
#
#
# Indices 1 2 3 4 5 6 
#
# 1 86.0186 48.8304 33.1623 0.0000 0.0000 0.0000
# 2 48.8304 86.0186 33.1623 0.0000 0.0000 0.0000
# 3 33.1623 33.1623 68.1284 0.0000 0.0000 0.0000
# 4 0.0000 0.0000 0.0000 16.1266 0.0000 0.0000
# 5 0.0000 0.0000 0.0000 0.0000 16.1266 0.0000
# 6 0.0000 0.0000 0.0000 0.0000 0.0000 18.5941
#
#
#
# Elastic Compliance Matrix: (Units=1/GPa)
#
#
# Indices 1 2 3 4 5 6 
#
# 1 0.018320 -0.008570 -0.004746 0.000000 0.000000 0.000000
# 2 -0.008570 0.018320 -0.004746 0.000000 0.000000 0.000000
# 3 -0.004746 -0.004746 0.019298 0.000000 0.000000 0.000000
# 4 0.000000 0.000000 0.000000 0.062009 0.000000 0.000000
# 5 0.000000 0.000000 0.000000 0.000000 0.062009 0.000000
# 6 0.000000 0.000000 0.000000 0.000000 0.000000 0.053781
#
#
# Mechanical properties :
#
#
# Convention : Reuss Voigt Hill
#
# Bulk Modulus (GPa) = 50.46756 52.27505 51.37130
# Shear Modulus (GPa) = 18.08537 18.50350 18.29443
#
# Velocity S-wave (km/s) = 3.37241 3.41117 3.39185
# Velocity P-wave (km/s) = 6.84844 6.95618 6.90252
#
# Compressibility (1/GPa) = 0.01981471
#
# Stress axis : x y z
#
# Youngs Moduli (GPa) = 54.58483 54.58483 51.81777
#
# Poissons Ratio (x) = 0.46780 0.24592
# Poissons Ratio (y) = 0.46780 0.24592
# Poissons Ratio (z) = 0.25905 0.25905
#
# Static dielectric constant tensor:
#      x y z
#    x 3.067230 0.000000 0.000000 
#    y 0.000000 3.067230 0.000000 
#    z 0.000000 0.000000 2.962140 
# 
# 
# High freq. dielectric constant tensor:
#      x y z
#    x 1.595100 0.000000 0.000000 
#    y 0.000000 1.595100 0.000000 
#    z 0.000000 0.000000 1.606470 
# 
# From -- ./inp_files/6873.got.cif
#   From: 2010.03.12/outbox.cif.g09.slc.cpg/sg193_4_cif.got.tgz:6873.got - 2010.04.01 12:20:39.
