data_PCOD8329423
_publ_section_title
;
Structure prediction by ZEFSAII (Michael W. Deem and Ramdas Pophale) SiO2 
 PCOD8329423
Probable space group: P 6/M C C
;
_chemical_formula_sum "Si O2"
_cell_formula_units_Z 128
_cell_length_a 24.321112
_cell_length_b 24.321112
_cell_length_c 17.084544
_cell_angle_alpha 90.000000
_cell_angle_beta 90.000000
_cell_angle_gamma 120.000000
_cell_volume 8751.870416
_symmetry_space_group_name_H-M "P 6/M C C"
_symmetry_group_IT_number 192
_symmetry_cell_setting 'hexagonal'
loop_
_space_group_symop_operation_xyz
x,y,z
x-y,x,z
-y,x-y,z
-x,-y,z
-x+y,-x,z
y,-x+y,z
x-y,-y,1/2-z
-x,-x+y,1/2-z
y,x,1/2-z
-y,-x,1/2-z
-x+y,y,1/2-z
x,x-y,1/2-z
-x,-y,-z
-x+y,-x,-z
y,-x+y,-z
x,y,-z
x-y,x,-z
-y,x-y,-z
-x+y,y,1/2+z
x,x-y,1/2+z
-y,-x,1/2+z
y,x,1/2+z
x-y,-y,1/2+z
-x,-x+y,1/2+z
loop_
_atom_site_type_symbol
_atom_site_label
_atom_site_fract_x
_atom_site_fract_y
_atom_site_fract_z
Si Si1 0.222965 0.574772 0.822308
Si Si2 0.337940 0.933619 0.910900
Si Si3 0.666668 0.333334 0.409224
Si Si4 0.451098 0.896981 0.410095
Si Si5 0.424092 0.378918 0.322297
Si Si6 0.156004 0.431375 0.224494
O O1 0.244842 0.622421 0.750000
O O2 0.283373 0.596205 0.878531
O O3 0.171504 0.583070 0.871056
O O4 0.200735 0.504853 0.793577
O O5 0.399770 0.925990 0.902800
O O6 0.280916 0.883488 0.854951
O O7 0.364089 0.005883 0.881190
O O8 0.312647 0.923999 0.000000
O O9 0.666667 0.333334 0.500000
O O10 0.430021 0.892025 0.500000
O O11 0.428258 0.939107 0.364274
O O12 0.416879 0.416879 0.250000
O O13 0.422535 0.314777 0.294607
O O14 0.201505 0.403009 0.250000
#
# Coordination Sequence:
#
# PCOD8329423 Si02
#       6
#    24  24   8  24  24  24
#     4  11  20  33  47  59  77 108 143 175 214 269
#     4   9  19  32  47  66  91 111 134 176 224 260
#     4  12  25  35  43  57  79 110 151 186 217 266
#     4  10  19  30  45  66  87 103 131 179 227 264
#     4  10  19  30  49  68  84 109 141 174 214 272
#     4  10  20  33  48  66  85 111 142 171 215 267
#
# _framework density 14.625444999999999
#
# number of rings (size 3 to 8) (size 9 to 14) (size 15 to 20)
#    0.000    1.875    1.875    3.375    0.000    6.000 
#    0.000    1.875    0.000    0.000    0.000    0.000 
#    0.000    0.000    0.000    0.000    0.000    0.000 
#
# Total GULP energy -1586696.629493 kJ/mol
# GULP energy per Si atom -12396.067418 kJ/mol
# Density = 1.459216 g / cm^3
# Si number density = 14.625445 Si / 1000 Ang^3
#
#
#
# Elastic Constant Matrix: (Units=GPa)
#
#
# Indices 1 2 3 4 5 6 
#
# 1 60.2463 27.0137 35.6681 0.0000 0.0000 -0.0002
# 2 27.0137 60.2458 35.6674 -0.0001 0.0000 0.0001
# 3 35.6681 35.6674 107.3547 0.0000 0.0000 -0.0003
# 4 0.0000 -0.0001 0.0000 16.2420 0.0000 0.0000
# 5 0.0000 0.0000 0.0000 0.0000 16.2420 -0.0001
# 6 -0.0002 0.0001 -0.0003 0.0000 -0.0001 16.6167
#
#
#
# Elastic Compliance Matrix: (Units=1/GPa)
#
#
# Indices 1 2 3 4 5 6 
#
# 1 0.022912 -0.007179 -0.005227 0.000000 0.000000 0.000000
# 2 -0.007179 0.022912 -0.005227 0.000000 0.000000 0.000000
# 3 -0.005227 -0.005227 0.012788 0.000000 0.000000 0.000000
# 4 0.000000 0.000000 0.000000 0.061569 0.000000 0.000000
# 5 0.000000 0.000000 0.000000 0.000000 0.061569 0.000000
# 6 0.000000 0.000000 0.000000 0.000000 0.000000 0.060181
#
#
# Mechanical properties :
#
#
# Convention : Reuss Voigt Hill
#
# Bulk Modulus (GPa) = 42.83393 47.17169 45.00281
# Shear Modulus (GPa) = 17.54509 18.45330 17.99920
#
# Velocity S-wave (km/s) = 3.46732 3.55593 3.51191
# Velocity P-wave (km/s) = 6.73651 7.01304 6.87617
#
# Compressibility (1/GPa) = 0.02334598
#
# Stress axis : x y z
#
# Youngs Moduli (GPa) = 43.64472 43.64472 78.19605
#
# Poissons Ratio (x) = 0.31332 0.40876
# Poissons Ratio (y) = 0.31332 0.40875
# Poissons Ratio (z) = 0.22815 0.22814
#
# Static dielectric constant tensor:
#      x y z
#    x 2.440650 0.000000 -0.000030 
#    y 0.000000 2.440150 -0.000030 
#    z -0.000030 -0.000030 3.158990 
# 
# 
# High freq. dielectric constant tensor:
#      x y z
#    x 1.522810 0.000000 0.000000 
#    y 0.000000 1.522810 0.000000 
#    z 0.000000 0.000000 1.580370 
# 
# From -- ./inp_files/4293.got.cif
#   From: 2010.03.12/outbox.cif.g09.slc.cpg/sg192_3_cif.got.tgz:4293.got - 2010.04.01 12:16:15.
