data_PCOD8329639
_publ_section_title
;
Structure prediction by ZEFSAII (Michael W. Deem and Ramdas Pophale) SiO2 
 PCOD8329639
Probable space group: P 6/M C C
;
_chemical_formula_sum "Si O2"
_cell_formula_units_Z 192
_cell_length_a 23.021163
_cell_length_b 23.021163
_cell_length_c 22.242882
_cell_angle_alpha 90.000000
_cell_angle_beta 90.000000
_cell_angle_gamma 120.000000
_cell_volume 10208.835581
_symmetry_space_group_name_H-M "P 6/M C C"
_symmetry_group_IT_number 192
_symmetry_cell_setting 'hexagonal'
loop_
_space_group_symop_operation_xyz
x,y,z
x-y,x,z
-y,x-y,z
-x,-y,z
-x+y,-x,z
y,-x+y,z
x-y,-y,1/2-z
-x,-x+y,1/2-z
y,x,1/2-z
-y,-x,1/2-z
-x+y,y,1/2-z
x,x-y,1/2-z
-x,-y,-z
-x+y,-x,-z
y,-x+y,-z
x,y,-z
x-y,x,-z
-y,x-y,-z
-x+y,y,1/2+z
x,x-y,1/2+z
-y,-x,1/2+z
y,x,1/2+z
x-y,-y,1/2+z
-x,-x+y,1/2+z
loop_
_atom_site_type_symbol
_atom_site_label
_atom_site_fract_x
_atom_site_fract_y
_atom_site_fract_z
Si Si1 0.965458 0.235153 0.349292
Si Si2 0.407821 0.268089 0.654098
Si Si3 0.986875 0.342971 0.930306
Si Si4 0.819759 0.421587 0.932333
Si Si5 0.269959 0.513651 0.068919
Si Si6 0.480637 0.054595 0.368687
Si Si7 0.601793 0.673370 0.227738
Si Si8 0.731744 0.844962 0.683358
O O1 0.938521 0.265165 0.296235
O O2 0.911024 0.156217 0.359052
O O3 0.972231 0.278288 0.408942
O O4 0.034868 0.236946 0.332213
O O5 0.391448 0.311756 0.609002
O O6 0.459400 0.252595 0.620600
O O7 0.430918 0.305481 0.718462
O O8 0.346798 0.196390 0.670757
O O9 0.025714 0.422930 0.920055
O O10 0.969322 0.327366 0.000000
O O11 0.781565 0.461377 0.918687
O O12 0.769560 0.344033 0.918944
O O13 0.886405 0.449181 0.893215
O O14 0.845286 0.432005 0.000000
O O15 0.262846 0.486213 0.000000
O O16 0.456321 0.089997 0.320382
O O17 0.500000 0.000000 0.344605
O O18 0.616262 0.616262 0.250000
O O19 0.750952 0.875476 0.750000
#
# Coordination Sequence:
#
# PCOD8329639 Si02
#       8
#    24  24  24  24  24  24  24  24
#     4  10  21  36  57  86 113 150 192 227 275 336
#     4  11  21  34  59  84 113 147 186 234 283 336
#     4  10  21  37  54  79 117 148 180 232 283 338
#     4  10  22  40  59  80 107 146 191 237 284 337
#     4  10  22  40  59  81 107 145 194 237 284 337
#     4  11  23  36  57  82 113 146 183 232 286 351
#     4  11  19  39  53  81 113 144 186 223 279 339
#     4  11  19  33  58  84 117 149 188 233 277 333
#
# _framework density 18.807238000000002
#
# number of rings (size 3 to 8) (size 9 to 14) (size 15 to 20)
#    0.000    1.500    5.000    2.125    3.500    3.250 
#    0.000    2.500    0.000    0.250    0.000    2.625 
#    0.000    0.000    0.000    4.500    0.000    0.500 
#
# Total GULP energy -2379015.909705 kJ/mol
# GULP energy per Si atom -12390.707863 kJ/mol
# Density = 1.876443 g / cm^3
# Si number density = 18.807238 Si / 1000 Ang^3
#
#
#
# Elastic Constant Matrix: (Units=GPa)
#
#
# Indices 1 2 3 4 5 6 
#
# 1 74.5962 30.6809 27.1614 0.0000 0.0000 0.0000
# 2 30.6809 74.5962 27.1614 0.0000 0.0000 0.0000
# 3 27.1614 27.1614 85.9797 0.0000 0.0000 0.0000
# 4 0.0000 0.0000 0.0000 18.5470 0.0000 0.0000
# 5 0.0000 0.0000 0.0000 0.0000 18.5470 0.0000
# 6 0.0000 0.0000 0.0000 0.0000 0.0000 21.9576
#
#
#
# Elastic Compliance Matrix: (Units=1/GPa)
#
#
# Indices 1 2 3 4 5 6 
#
# 1 0.017060 -0.005711 -0.003585 0.000000 0.000000 0.000000
# 2 -0.005711 0.017060 -0.003585 0.000000 0.000000 0.000000
# 3 -0.003585 -0.003585 0.013896 0.000000 0.000000 0.000000
# 4 0.000000 0.000000 0.000000 0.053917 0.000000 0.000000
# 5 0.000000 0.000000 0.000000 0.000000 0.053917 0.000000
# 6 0.000000 0.000000 0.000000 0.000000 0.000000 0.045542
#
#
# Mechanical properties :
#
#
# Convention : Reuss Voigt Hill
#
# Bulk Modulus (GPa) = 44.93843 45.01995 44.97919
# Shear Modulus (GPa) = 21.31540 21.82155 21.56848
#
# Velocity S-wave (km/s) = 3.37020 3.40998 3.39014
# Velocity P-wave (km/s) = 6.25223 6.28438 6.26833
#
# Compressibility (1/GPa) = 0.02225267
#
# Stress axis : x y z
#
# Youngs Moduli (GPa) = 58.61702 58.61702 71.96440
#
# Poissons Ratio (x) = 0.33478 0.25800
# Poissons Ratio (y) = 0.33478 0.25800
# Poissons Ratio (z) = 0.21015 0.21015
#
# Static dielectric constant tensor:
#      x y z
#    x 3.537620 0.000000 0.000000 
#    y 0.000000 3.537620 0.000000 
#    z 0.000000 0.000000 3.657230 
# 
# 
# High freq. dielectric constant tensor:
#      x y z
#    x 1.723840 0.000000 0.000000 
#    y 0.000000 1.723840 0.000000 
#    z 0.000000 0.000000 1.720740 
# 
# From -- ./inp_files/5410.got.cif
#   From: 2010.03.12/outbox.cif.g09.slc.cpg/sg192_3_cif.got.tgz:5410.got - 2010.04.01 12:16:15.
