data_PCOD8329042
_publ_section_title
;
Structure prediction by ZEFSAII (Michael W. Deem and Ramdas Pophale) SiO2 
 PCOD8329042
Probable space group: P 6/M M M
;
_chemical_formula_sum "Si O2"
_cell_formula_units_Z 156
_cell_length_a 21.486527
_cell_length_b 21.486527
_cell_length_c 21.304241
_cell_angle_alpha 90.000000
_cell_angle_beta 90.000000
_cell_angle_gamma 120.000000
_cell_volume 8517.833468
_symmetry_space_group_name_H-M "P 6/M M M"
_symmetry_group_IT_number 191
_symmetry_cell_setting 'hexagonal'
loop_
_space_group_symop_operation_xyz
x,y,z
x-y,x,z
-y,x-y,z
-x,-y,z
-x+y,-x,z
y,-x+y,z
x-y,-y,-z
-x,-x+y,-z
y,x,-z
-y,-x,-z
-x+y,y,-z
x,x-y,-z
-x,-y,-z
-x+y,-x,-z
y,-x+y,-z
x,y,-z
x-y,x,-z
-y,x-y,-z
-x+y,y,z
x,x-y,z
-y,-x,z
y,x,z
x-y,-y,z
-x,-x+y,z
loop_
_atom_site_type_symbol
_atom_site_label
_atom_site_fract_x
_atom_site_fract_y
_atom_site_fract_z
Si Si1 0.812150 0.476362 0.500000
Si Si2 0.392265 0.123248 0.068441
Si Si3 0.349558 0.918464 0.607513
Si Si4 0.920749 0.223880 0.811637
Si Si5 0.078317 0.292643 0.572806
Si Si6 0.917705 0.567633 0.249988
Si Si7 0.664524 0.188909 0.850872
O O1 0.745575 0.491149 0.500000
O O2 0.782151 0.391076 0.500000
O O3 0.860932 0.509295 0.561584
O O4 0.390019 0.195009 0.060074
O O5 0.332499 0.074820 0.119409
O O6 0.471453 0.143541 0.092423
O O7 0.377889 0.084598 0.000000
O O8 0.270700 0.908740 0.610254
O O9 0.364251 0.904405 0.678351
O O10 0.407323 0.000000 0.585747
O O11 0.860067 0.139934 0.806980
O O12 0.903079 0.269053 0.761206
O O13 0.000000 0.234263 0.798607
O O14 0.087986 0.314708 0.500000
O O15 0.134446 0.268891 0.595408
O O16 0.000000 0.225096 0.586584
O O17 0.861613 0.499406 0.210330
O O18 0.000000 0.593480 0.230483
O O19 0.604988 0.209975 0.869546
O O20 0.739575 0.260426 0.836084
#
# Coordination Sequence:
#
# PCOD8329042 Si02
#       7
#    12  24  24  24  24  24  24
#     4  12  26  41  55  73 102 137 167 195 235 296
#     4   8  15  29  48  69  94 125 163 207 249 285
#     4  10  20  36  58  80  97 118 157 210 262 298
#     4   9  17  30  49  74 103 134 168 207 252 301
#     4   9  16  27  45  70  97 122 150 187 233 281
#     4   9  19  35  55  76  97 123 159 208 259 299
#     4  10  20  33  49  71 101 136 170 202 240 293
#
# _framework density 18.314516000000001
#
# number of rings (size 3 to 8) (size 9 to 14) (size 15 to 20)
#    0.000    2.615    0.769    2.308    0.000    4.615 
#    0.000    1.538    0.000    3.077    0.000    5.385 
#    0.000    0.000    0.000   11.538    0.000    4.000 
#
# Total GULP energy -1933456.871123 kJ/mol
# GULP energy per Si atom -12393.954302 kJ/mol
# Density = 1.827283 g / cm^3
# Si number density = 18.314516 Si / 1000 Ang^3
#
#
#
# Elastic Constant Matrix: (Units=GPa)
#
#
# Indices 1 2 3 4 5 6 
#
# 1 71.8066 28.9200 14.9832 0.0000 0.0000 0.0000
# 2 28.9200 71.8066 14.9832 0.0000 0.0000 0.0000
# 3 14.9832 14.9832 73.5528 0.0000 0.0000 0.0000
# 4 0.0000 0.0000 0.0000 13.1514 0.0000 0.0000
# 5 0.0000 0.0000 0.0000 0.0000 13.1514 0.0000
# 6 0.0000 0.0000 0.0000 0.0000 0.0000 21.4433
#
#
#
# Elastic Compliance Matrix: (Units=1/GPa)
#
#
# Indices 1 2 3 4 5 6 
#
# 1 0.016943 -0.006374 -0.002153 0.000000 0.000000 0.000000
# 2 -0.006374 0.016943 -0.002153 0.000000 0.000000 0.000000
# 3 -0.002153 -0.002153 0.014473 0.000000 0.000000 0.000000
# 4 0.000000 0.000000 0.000000 0.076038 0.000000 0.000000
# 5 0.000000 0.000000 0.000000 0.000000 0.076038 0.000000
# 6 0.000000 0.000000 0.000000 0.000000 0.000000 0.046635
#
#
# Mechanical properties :
#
#
# Convention : Reuss Voigt Hill
#
# Bulk Modulus (GPa) = 37.03964 37.21540 37.12752
# Shear Modulus (GPa) = 18.02271 20.10120 19.06196
#
# Velocity S-wave (km/s) = 3.14039 3.31653 3.22966
# Velocity P-wave (km/s) = 5.78079 5.91863 5.85011
#
# Compressibility (1/GPa) = 0.02699810
#
# Stress axis : x y z
#
# Youngs Moduli (GPa) = 59.02205 59.02205 69.09532
#
# Poissons Ratio (x) = 0.37623 0.14875
# Poissons Ratio (y) = 0.37623 0.14875
# Poissons Ratio (z) = 0.12706 0.12706
#
# Static dielectric constant tensor:
#      x y z
#    x 3.245920 0.000000 0.000000 
#    y 0.000000 3.245920 0.000000 
#    z 0.000000 0.000000 3.474610 
# 
# 
# High freq. dielectric constant tensor:
#      x y z
#    x 1.693730 0.000000 0.000000 
#    y 0.000000 1.693730 0.000000 
#    z 0.000000 0.000000 1.709080 
# 
# From -- ./inp_files/7739.got.cif
#   From: 2010.03.12/outbox.cif.g09.slc.cpg/sg191_4_cif.got.tgz:7739.got - 2010.04.01 12:09:02.
