data_PCOD8329086
_publ_section_title
;
Structure prediction by ZEFSAII (Michael W. Deem and Ramdas Pophale) SiO2 
 PCOD8329086
Probable space group: P 6/M M M
;
_chemical_formula_sum "Si O2"
_cell_formula_units_Z 96
_cell_length_a 28.077119
_cell_length_b 28.077119
_cell_length_c 9.547705
_cell_angle_alpha 90.000000
_cell_angle_beta 90.000000
_cell_angle_gamma 120.000000
_cell_volume 6518.305468
_symmetry_space_group_name_H-M "P 6/M M M"
_symmetry_group_IT_number 191
_symmetry_cell_setting 'hexagonal'
loop_
_space_group_symop_operation_xyz
x,y,z
x-y,x,z
-y,x-y,z
-x,-y,z
-x+y,-x,z
y,-x+y,z
x-y,-y,-z
-x,-x+y,-z
y,x,-z
-y,-x,-z
-x+y,y,-z
x,x-y,-z
-x,-y,-z
-x+y,-x,-z
y,-x+y,-z
x,y,-z
x-y,x,-z
-y,x-y,-z
-x+y,y,z
x,x-y,z
-y,-x,z
y,x,z
x-y,-y,z
-x,-x+y,z
loop_
_atom_site_type_symbol
_atom_site_label
_atom_site_fract_x
_atom_site_fract_y
_atom_site_fract_z
Si Si1 0.215037 0.215037 0.167122
Si Si2 0.063023 0.393235 0.340136
Si Si3 0.000000 0.894030 0.833997
Si Si4 0.480385 0.415020 0.157895
Si Si5 0.790730 0.098388 0.338958
O O1 0.160308 0.160308 0.211720
O O2 0.264297 0.209532 0.232069
O O3 0.222873 0.222873 0.000000
O O4 0.064951 0.410488 0.500000
O O5 0.089280 0.449990 0.253070
O O6 0.100101 0.365216 0.313747
O O7 0.000000 0.350107 0.295410
O O8 0.946284 0.892567 0.770206
O O9 0.000000 0.898646 0.000000
O O10 0.543114 0.456886 0.208569
O O11 0.446799 0.446799 0.166789
O O12 0.481197 0.395892 0.000000
O O13 0.792715 0.080874 0.500000
O O14 0.841749 0.158251 0.304989
#
# Coordination Sequence:
#
# PCOD8329086 Si02
#       5
#    12  24  12  24  24
#     4  11  21  32  47  66  87 105 134 182 225 271
#     4   9  16  27  42  60  82 107 142 180 211 248
#     4   9  17  29  44  61  80  99 119 152 207 272
#     4   8  14  24  38  58  84 112 139 164 195 236
#     4  10  20  34  49  63  84 115 149 183 223 273
#
# _framework density 14.727753999999999
#
# number of rings (size 3 to 8) (size 9 to 14) (size 15 to 20)
#    0.000    2.750    1.250    2.000    0.000    3.500 
#    0.000    2.500    0.000    0.000    0.000    0.000 
#    0.000    6.000    0.000    0.750    0.000   11.500 
#
# Total GULP energy -1189963.111038 kJ/mol
# GULP energy per Si atom -12395.449073 kJ/mol
# Density = 1.469423 g / cm^3
# Si number density = 14.727754 Si / 1000 Ang^3
#
#
#
# Elastic Constant Matrix: (Units=GPa)
#
#
# Indices 1 2 3 4 5 6 
#
# 1 85.4212 61.1394 50.9729 0.0000 0.0000 0.0000
# 2 61.1394 85.4212 50.9729 0.0000 0.0000 0.0000
# 3 50.9729 50.9729 68.3176 0.0000 0.0000 0.0000
# 4 0.0000 0.0000 0.0000 18.7848 0.0000 0.0000
# 5 0.0000 0.0000 0.0000 0.0000 18.7848 0.0000
# 6 0.0000 0.0000 0.0000 0.0000 0.0000 12.1409
#
#
#
# Elastic Compliance Matrix: (Units=1/GPa)
#
#
# Indices 1 2 3 4 5 6 
#
# 1 0.027684 -0.013499 -0.010584 0.000000 0.000000 0.000000
# 2 -0.013499 0.027684 -0.010584 0.000000 0.000000 0.000000
# 3 -0.010584 -0.010584 0.030431 0.000000 0.000000 0.000000
# 4 0.000000 0.000000 0.000000 0.053235 0.000000 0.000000
# 5 0.000000 0.000000 0.000000 0.000000 0.053235 0.000000
# 6 0.000000 0.000000 0.000000 0.000000 0.000000 0.082366
#
#
# Mechanical properties :
#
#
# Convention : Reuss Voigt Hill
#
# Bulk Modulus (GPa) = 60.73065 62.81450 61.77258
# Shear Modulus (GPa) = 14.30797 15.01376 14.66086
#
# Velocity S-wave (km/s) = 3.12027 3.19630 3.15851
# Velocity P-wave (km/s) = 7.36929 7.50765 7.43879
#
# Compressibility (1/GPa) = 0.01646615
#
# Stress axis : x y z
#
# Youngs Moduli (GPa) = 36.12190 36.12190 32.86146
#
# Poissons Ratio (x) = 0.48761 0.34779
# Poissons Ratio (y) = 0.48761 0.34779
# Poissons Ratio (z) = 0.38230 0.38230
#
# Static dielectric constant tensor:
#      x y z
#    x 2.861880 0.000000 0.000000 
#    y 0.000000 2.861880 0.000000 
#    z 0.000000 0.000000 2.863480 
# 
# 
# High freq. dielectric constant tensor:
#      x y z
#    x 1.542330 0.000000 0.000000 
#    y 0.000000 1.542330 0.000000 
#    z 0.000000 0.000000 1.559210 
# 
# From -- ./inp_files/2841.got.cif
#   From: 2010.03.12/outbox.cif.g09.slc.cpg/sg191_2_cif.got.tgz:2841.got - 2010.04.01 12:09:02.
