data_PCOD8329539
_publ_section_title
;
Structure prediction by ZEFSAII (Michael W. Deem and Ramdas Pophale) SiO2 
 PCOD8329539
Probable space group: P 6/M C C
;
_chemical_formula_sum "Si O2"
_cell_formula_units_Z 144
_cell_length_a 32.270084
_cell_length_b 32.270084
_cell_length_c 8.610149
_cell_angle_alpha 90.000000
_cell_angle_beta 90.000000
_cell_angle_gamma 120.000000
_cell_volume 7765.000545
_symmetry_space_group_name_H-M "P 6/M C C"
_symmetry_group_IT_number 192
_symmetry_cell_setting 'hexagonal'
loop_
_space_group_symop_operation_xyz
x,y,z
x-y,x,z
-y,x-y,z
-x,-y,z
-x+y,-x,z
y,-x+y,z
x-y,-y,1/2-z
-x,-x+y,1/2-z
y,x,1/2-z
-y,-x,1/2-z
-x+y,y,1/2-z
x,x-y,1/2-z
-x,-y,-z
-x+y,-x,-z
y,-x+y,-z
x,y,-z
x-y,x,-z
-y,x-y,-z
-x+y,y,1/2+z
x,x-y,1/2+z
-y,-x,1/2+z
y,x,1/2+z
x-y,-y,1/2+z
-x,-x+y,1/2+z
loop_
_atom_site_type_symbol
_atom_site_label
_atom_site_fract_x
_atom_site_fract_y
_atom_site_fract_z
Si Si1 0.229681 0.949044 0.816757
Si Si2 0.192615 0.721576 0.683008
Si Si3 0.382564 0.105143 0.817463
Si Si4 0.192308 0.051743 0.184462
Si Si5 0.438569 0.051791 0.817505
Si Si6 0.612507 0.139136 0.181772
O O1 0.243994 0.909579 0.776006
O O2 0.178503 0.932936 0.740884
O O3 0.269949 0.000000 0.750000
O O4 0.225820 0.953338 0.000000
O O5 0.245808 0.754193 0.750000
O O6 0.190627 0.728236 0.500000
O O7 0.158698 0.737849 0.767752
O O8 0.176736 0.667148 0.726895
O O9 0.401929 0.069669 0.767543
O O10 0.372610 0.103017 0.000000
O O11 0.177360 0.088680 0.250000
O O12 0.154374 0.000000 0.250000
O O13 0.190780 0.050951 0.000000
O O14 0.491016 0.087279 0.752305
O O15 0.421177 0.000000 0.750000
O O16 0.442227 0.050228 0.000000
O O17 0.579520 0.159040 0.250000
O O18 0.605384 0.133123 0.000000
#
# Coordination Sequence:
#
# PCOD8329539 Si02
#       6
#    24  24  24  24  24  24
#     4  11  21  34  52  77 109 147 188 229 269 313
#     4  10  21  37  57  81 107 137 172 214 262 317
#     4  10  20  34  52  76 107 145 185 226 267 310
#     4  11  22  39  60  84 111 142 179 221 269 322
#     4  10  20  33  51  75 106 143 183 223 263 306
#     4  10  21  37  57  80 106 135 171 213 261 314
#
# _framework density 18.544751000000002
#
# number of rings (size 3 to 8) (size 9 to 14) (size 15 to 20)
#    0.000    1.667    0.000    6.500    0.000    6.333 
#    0.000    5.000    0.000    0.500    0.000    1.167 
#    0.000    0.000    0.000    0.000    0.000    0.000 
#
# Total GULP energy -1786386.991494 kJ/mol
# GULP energy per Si atom -12405.465219 kJ/mol
# Density = 1.850254 g / cm^3
# Si number density = 18.544751 Si / 1000 Ang^3
#
#
#
# Elastic Constant Matrix: (Units=GPa)
#
#
# Indices 1 2 3 4 5 6 
#
# 1 107.4213 72.4779 45.4772 0.0000 0.0000 0.0000
# 2 72.4779 107.4213 45.4772 0.0000 0.0000 0.0000
# 3 45.4772 45.4772 118.0026 0.0000 0.0000 0.0000
# 4 0.0000 0.0000 0.0000 32.4492 0.0000 0.0000
# 5 0.0000 0.0000 0.0000 0.0000 32.4492 0.0000
# 6 0.0000 0.0000 0.0000 0.0000 0.0000 17.4717
#
#
#
# Elastic Compliance Matrix: (Units=1/GPa)
#
#
# Indices 1 2 3 4 5 6 
#
# 1 0.017761 -0.010857 -0.002661 0.000000 0.000000 0.000000
# 2 -0.010857 0.017761 -0.002661 0.000000 0.000000 0.000000
# 3 -0.002661 -0.002661 0.010525 0.000000 0.000000 0.000000
# 4 0.000000 0.000000 0.000000 0.030817 0.000000 0.000000
# 5 0.000000 0.000000 0.000000 0.000000 0.030817 0.000000
# 6 0.000000 0.000000 0.000000 0.000000 0.000000 0.057235
#
#
# Mechanical properties :
#
#
# Convention : Reuss Voigt Hill
#
# Bulk Modulus (GPa) = 73.04508 73.30112 73.17310
# Shear Modulus (GPa) = 24.77246 27.76820 26.27033
#
# Velocity S-wave (km/s) = 3.65885 3.87377 3.76785
# Velocity P-wave (km/s) = 7.57124 7.72144 7.64671
#
# Compressibility (1/GPa) = 0.01369018
#
# Stress axis : x y z
#
# Youngs Moduli (GPa) = 56.30382 56.30382 95.00995
#
# Poissons Ratio (x) = 0.61129 0.25279
# Poissons Ratio (y) = 0.61129 0.25279
# Poissons Ratio (z) = 0.14981 0.14981
#
# Static dielectric constant tensor:
#      x y z
#    x 3.231450 0.000000 0.000000 
#    y 0.000000 3.231450 0.000000 
#    z 0.000000 0.000000 3.529840 
# 
# 
# High freq. dielectric constant tensor:
#      x y z
#    x 1.710390 0.000000 0.000000 
#    y 0.000000 1.710390 0.000000 
#    z 0.000000 0.000000 1.740940 
# 
# From -- ./inp_files/1146.got.cif
#   From: 2010.03.12/outbox.cif.g09.slc.cpg/sg192_1_cif.got.tgz:1146.got - 2010.04.01 12:16:15.
