data_PCOD8329161
_publ_section_title
;
Structure prediction by ZEFSAII (Michael W. Deem and Ramdas Pophale) SiO2 
 PCOD8329161
Probable space group: P 6/M M M
;
_chemical_formula_sum "Si O2"
_cell_formula_units_Z 88
_cell_length_a 24.306278
_cell_length_b 24.306278
_cell_length_c 9.741009
_cell_angle_alpha 90.000000
_cell_angle_beta 90.000000
_cell_angle_gamma 120.000000
_cell_volume 4983.924995
_symmetry_space_group_name_H-M "P 6/M M M"
_symmetry_group_IT_number 191
_symmetry_cell_setting 'hexagonal'
loop_
_space_group_symop_operation_xyz
x,y,z
x-y,x,z
-y,x-y,z
-x,-y,z
-x+y,-x,z
y,-x+y,z
x-y,-y,-z
-x,-x+y,-z
y,x,-z
-y,-x,-z
-x+y,y,-z
x,x-y,-z
-x,-y,-z
-x+y,-x,-z
y,-x+y,-z
x,y,-z
x-y,x,-z
-y,x-y,-z
-x+y,y,z
x,x-y,z
-y,-x,z
y,x,z
x-y,-y,z
-x,-x+y,z
loop_
_atom_site_type_symbol
_atom_site_label
_atom_site_fract_x
_atom_site_fract_y
_atom_site_fract_z
Si Si1 0.629553 0.497391 0.155143
Si Si2 0.548883 0.274442 0.848227
Si Si3 0.666667 0.333334 0.336330
Si Si4 0.073989 0.686382 0.649762
Si Si5 0.734841 0.928766 0.663699
O O1 0.568511 0.431490 0.205004
O O2 0.693665 0.494227 0.165032
O O3 0.641330 0.555027 0.251013
O O4 0.618176 0.512240 0.000000
O O5 0.596062 0.298031 0.721135
O O6 0.582644 0.291322 0.000000
O O7 0.666667 0.333334 0.500000
O O8 0.106528 0.692299 0.500000
O O9 0.094107 0.756217 0.711212
O O10 0.000000 0.652952 0.626228
O O11 0.736144 0.930709 0.500000
O O12 0.753191 0.876596 0.718067
O O13 0.784993 0.000000 0.720123
#
# Coordination Sequence:
#
# PCOD8329161 Si02
#       5
#    24  12   4  24  24
#     4  10  21  35  53  72  91 125 166 201 242 298
#     4  10  20  38  54  66  96 133 159 192 251 309
#     4  12  22  32  52  78  97 119 160 210 250 290
#     4   9  19  34  50  71 100 129 158 200 251 293
#     4   8  14  26  45  69  97 130 165 200 243 293
#
# _framework density 17.656766999999999
#
# number of rings (size 3 to 8) (size 9 to 14) (size 15 to 20)
#    0.000    2.727    1.364    2.045    1.909    2.727 
#    0.000    2.727    0.000    0.273    0.000    1.909 
#    0.000    0.000    0.000    0.000    0.000    0.000 
#
# Total GULP energy -1090277.997729 kJ/mol
# GULP energy per Si atom -12389.522701 kJ/mol
# Density = 1.761658 g / cm^3
# Si number density = 17.656767 Si / 1000 Ang^3
#
#
#
# Elastic Constant Matrix: (Units=GPa)
#
#
# Indices 1 2 3 4 5 6 
#
# 1 81.7486 44.8397 23.6642 0.0000 0.0000 0.0000
# 2 44.8397 81.7486 23.6643 0.0000 0.0000 0.0000
# 3 23.6642 23.6643 61.6028 -0.0001 0.0000 0.0000
# 4 0.0000 0.0000 -0.0001 16.6150 0.0000 0.0000
# 5 0.0000 0.0000 0.0000 0.0000 16.6149 0.0000
# 6 0.0000 0.0000 0.0000 0.0000 0.0000 18.4545
#
#
#
# Elastic Compliance Matrix: (Units=1/GPa)
#
#
# Indices 1 2 3 4 5 6 
#
# 1 0.018159 -0.008935 -0.003544 0.000000 0.000000 0.000000
# 2 -0.008935 0.018159 -0.003544 0.000000 0.000000 0.000000
# 3 -0.003544 -0.003544 0.018955 0.000000 0.000000 0.000000
# 4 0.000000 0.000000 0.000000 0.060187 0.000000 0.000000
# 5 0.000000 0.000000 0.000000 0.000000 0.060187 0.000000
# 6 0.000000 0.000000 0.000000 0.000000 0.000000 0.054187
#
#
# Mechanical properties :
#
#
# Convention : Reuss Voigt Hill
#
# Bulk Modulus (GPa) = 43.04713 45.49292 44.27003
# Shear Modulus (GPa) = 18.54452 19.19899 18.87175
#
# Velocity S-wave (km/s) = 3.24432 3.30107 3.27281
# Velocity P-wave (km/s) = 6.20218 6.35220 6.27764
#
# Compressibility (1/GPa) = 0.02323035
#
# Stress axis : x y z
#
# Youngs Moduli (GPa) = 55.06881 55.06885 52.75527
#
# Poissons Ratio (x) = 0.49202 0.18694
# Poissons Ratio (y) = 0.49202 0.18694
# Poissons Ratio (z) = 0.19514 0.19514
#
# Static dielectric constant tensor:
#      x y z
#    x 3.311240 0.000000 0.000000 
#    y 0.000000 3.311240 0.000000 
#    z 0.000000 0.000000 3.040480 
# 
# 
# High freq. dielectric constant tensor:
#      x y z
#    x 1.676700 0.000000 0.000000 
#    y 0.000000 1.676700 0.000000 
#    z 0.000000 0.000000 1.648100 
# 
# From -- ./inp_files/1285.got.cif
#   From: 2010.03.12/outbox.cif.g09.slc.cpg/sg191_1_cif.got.tgz:1285.got - 2010.04.01 12:09:02.
