data_PCOD8329245
_publ_section_title
;
Structure prediction by ZEFSAII (Michael W. Deem and Ramdas Pophale) SiO2 
 PCOD8329245
Probable space group: P 6/M M M
;
_chemical_formula_sum "Si O2"
_cell_formula_units_Z 60
_cell_length_a 17.320431
_cell_length_b 17.320431
_cell_length_c 11.912276
_cell_angle_alpha 90.000000
_cell_angle_beta 90.000000
_cell_angle_gamma 120.000000
_cell_volume 3094.872546
_symmetry_space_group_name_H-M "P 6/M M M"
_symmetry_group_IT_number 191
_symmetry_cell_setting 'hexagonal'
loop_
_space_group_symop_operation_xyz
x,y,z
x-y,x,z
-y,x-y,z
-x,-y,z
-x+y,-x,z
y,-x+y,z
x-y,-y,-z
-x,-x+y,-z
y,x,-z
-y,-x,-z
-x+y,y,-z
x,x-y,-z
-x,-y,-z
-x+y,-x,-z
y,-x+y,-z
x,y,-z
x-y,x,-z
-y,x-y,-z
-x+y,y,z
x,x-y,z
-y,-x,z
y,x,z
x-y,-y,z
-x,-x+y,z
loop_
_atom_site_type_symbol
_atom_site_label
_atom_site_fract_x
_atom_site_fract_y
_atom_site_fract_z
Si Si1 0.000000 0.825399 0.866353
Si Si2 0.626038 0.725754 0.500000
Si Si3 0.667173 0.513037 0.721632
Si Si4 0.000000 0.350527 0.867021
O O1 0.912350 0.824699 0.819295
O O2 0.000000 0.737747 0.822279
O O3 0.000000 0.827215 0.000000
O O4 0.710416 0.710416 0.500000
O O5 0.663296 0.831648 0.500000
O O6 0.565789 0.678827 0.392561
O O7 0.752806 0.505612 0.751997
O O8 0.585026 0.414975 0.706621
O O9 0.650036 0.562508 0.823830
O O10 0.000000 0.353769 0.000000
#
# Coordination Sequence:
#
# PCOD8329245 Si02
#       4
#    12  12  24  12
#     4   9  17  31  52  77 105 138 182 237 292 342
#     4  10  21  39  65  94 121 152 192 242 298 356
#     4  11  23  39  61  88 119 153 194 246 302 358
#     4  11  23  38  57  81 115 161 206 244 289 352
#
# _framework density 19.386904999999999
#
# number of rings (size 3 to 8) (size 9 to 14) (size 15 to 20)
#    0.000    1.600    2.000    3.000    0.000    5.600 
#    0.000    2.000    0.000    2.600    0.000    0.000 
#    0.000    0.000    0.000    0.000    0.000    0.000 
#
# Total GULP energy -744278.941214 kJ/mol
# GULP energy per Si atom -12404.649020 kJ/mol
# Density = 1.934278 g / cm^3
# Si number density = 19.386905 Si / 1000 Ang^3
#
#
#
# Elastic Constant Matrix: (Units=GPa)
#
#
# Indices 1 2 3 4 5 6 
#
# 1 130.6478 84.2579 39.0920 0.0000 0.0000 0.0000
# 2 84.2579 130.6478 39.0920 0.0000 0.0000 0.0000
# 3 39.0920 39.0920 84.9462 0.0000 0.0000 0.0000
# 4 0.0000 0.0000 0.0000 20.3248 0.0000 0.0000
# 5 0.0000 0.0000 0.0000 0.0000 20.3248 0.0000
# 6 0.0000 0.0000 0.0000 0.0000 0.0000 23.1949
#
#
#
# Elastic Compliance Matrix: (Units=1/GPa)
#
#
# Indices 1 2 3 4 5 6 
#
# 1 0.013573 -0.007984 -0.002572 0.000000 0.000000 0.000000
# 2 -0.007984 0.013573 -0.002572 0.000000 0.000000 0.000000
# 3 -0.002572 -0.002572 0.014139 0.000000 0.000000 0.000000
# 4 0.000000 0.000000 0.000000 0.049201 0.000000 0.000000
# 5 0.000000 0.000000 0.000000 0.000000 0.049201 0.000000
# 6 0.000000 0.000000 0.000000 0.000000 0.000000 0.043113
#
#
# Mechanical properties :
#
#
# Convention : Reuss Voigt Hill
#
# Bulk Modulus (GPa) = 66.53700 74.56950 70.55325
# Shear Modulus (GPa) = 23.35740 25.02223 24.18981
#
# Velocity S-wave (km/s) = 3.47479 3.59650 3.53617
# Velocity P-wave (km/s) = 7.10591 7.46952 7.28998
#
# Compressibility (1/GPa) = 0.01502923
#
# Stress axis : x y z
#
# Youngs Moduli (GPa) = 73.67743 73.67743 70.72435
#
# Poissons Ratio (x) = 0.58822 0.18190
# Poissons Ratio (y) = 0.58822 0.18190
# Poissons Ratio (z) = 0.18950 0.18950
#
# Static dielectric constant tensor:
#      x y z
#    x 3.683210 0.000000 0.000000 
#    y 0.000000 3.683210 0.000000 
#    z 0.000000 0.000000 3.371940 
# 
# 
# High freq. dielectric constant tensor:
#      x y z
#    x 1.764410 0.000000 0.000000 
#    y 0.000000 1.764410 0.000000 
#    z 0.000000 0.000000 1.741010 
# 
# From -- ./inp_files/2251.got.cif
#   From: 2010.03.12/outbox.cif.g09.slc.cpg/sg191_2_cif.got.tgz:2251.got - 2010.04.01 12:09:02.
