data_PCOD8329395
_publ_section_title
;
Structure prediction by ZEFSAII (Michael W. Deem and Ramdas Pophale) SiO2 
 PCOD8329395
Probable space group: P 6/M C C
;
_chemical_formula_sum "Si O2"
_cell_formula_units_Z 92
_cell_length_a 20.696452
_cell_length_b 20.696452
_cell_length_c 14.420759
_cell_angle_alpha 90.000000
_cell_angle_beta 90.000000
_cell_angle_gamma 120.000000
_cell_volume 5349.467481
_symmetry_space_group_name_H-M "P 6/M C C"
_symmetry_group_IT_number 192
_symmetry_cell_setting 'hexagonal'
loop_
_space_group_symop_operation_xyz
x,y,z
x-y,x,z
-y,x-y,z
-x,-y,z
-x+y,-x,z
y,-x+y,z
x-y,-y,1/2-z
-x,-x+y,1/2-z
y,x,1/2-z
-y,-x,1/2-z
-x+y,y,1/2-z
x,x-y,1/2-z
-x,-y,-z
-x+y,-x,-z
y,-x+y,-z
x,y,-z
x-y,x,-z
-y,x-y,-z
-x+y,y,1/2+z
x,x-y,1/2+z
-y,-x,1/2+z
y,x,1/2+z
x-y,-y,1/2+z
-x,-x+y,1/2+z
loop_
_atom_site_type_symbol
_atom_site_label
_atom_site_fract_x
_atom_site_fract_y
_atom_site_fract_z
Si Si1 0.666668 0.333334 0.864043
Si Si2 0.689111 0.772269 0.142971
Si Si3 0.199307 0.599653 0.000000
Si Si4 0.708278 0.142677 0.500000
Si Si5 0.227730 0.916840 0.357029
Si Si6 0.708276 0.142674 0.000000
O O1 0.666668 0.333334 0.750000
O O2 0.624682 0.249359 0.905893
O O3 0.668048 0.758733 0.250000
O O4 0.755876 0.755876 0.118536
O O5 0.715331 0.857665 0.113577
O O6 0.614117 0.714639 0.090055
O O7 0.142197 0.630961 0.000000
O O8 0.142194 0.511236 0.000000
O O9 0.714640 0.100524 0.409945
O O10 0.771261 0.228741 0.500000
#
# Coordination Sequence:
#
# PCOD8329395 Si02
#       6
#     8  24  12  12  24  12
#     4  10  20  34  52  71 100 133 167 214 256 293
#     4   9  18  32  51  74  98 129 167 205 247 295
#     4  10  20  36  47  76 102 128 172 210 248 306
#     4  10  18  32  51  69  99 128 166 205 249 293
#     4   9  18  32  51  74  98 129 167 205 247 295
#     4  10  18  32  51  69  99 128 166 205 249 293
#
# _framework density 17.197973000000001
#
# number of rings (size 3 to 8) (size 9 to 14) (size 15 to 20)
#    0.000    2.609    2.609    0.783    0.000    2.087 
#    0.000    2.609    0.000    3.652    0.000    3.652 
#    0.000    6.261    0.000    0.522    0.000    0.000 
#
# Total GULP energy -1140264.122269 kJ/mol
# GULP energy per Si atom -12394.175242 kJ/mol
# Density = 1.715883 g / cm^3
# Si number density = 17.197973 Si / 1000 Ang^3
#
#
#
# Elastic Constant Matrix: (Units=GPa)
#
#
# Indices 1 2 3 4 5 6 
#
# 1 125.0010 77.5301 44.7436 0.0000 0.0000 0.0000
# 2 77.5301 125.0008 44.7435 0.0001 0.0000 0.0000
# 3 44.7436 44.7435 97.5854 0.0002 0.0000 0.0000
# 4 0.0000 0.0001 0.0002 18.8046 0.0000 0.0000
# 5 0.0000 0.0000 0.0000 0.0000 18.8047 0.0000
# 6 0.0000 0.0000 0.0000 0.0000 0.0000 23.7355
#
#
#
# Elastic Compliance Matrix: (Units=1/GPa)
#
#
# Indices 1 2 3 4 5 6 
#
# 1 0.013629 -0.007437 -0.002839 0.000000 0.000000 0.000000
# 2 -0.007437 0.013629 -0.002839 0.000000 0.000000 0.000000
# 3 -0.002839 -0.002839 0.012851 0.000000 0.000000 0.000000
# 4 0.000000 0.000000 0.000000 0.053179 0.000000 0.000000
# 5 0.000000 0.000000 0.000000 0.000000 0.053178 0.000000
# 6 0.000000 0.000000 0.000000 0.000000 0.000000 0.042131
#
#
# Mechanical properties :
#
#
# Convention : Reuss Voigt Hill
#
# Bulk Modulus (GPa) = 72.05356 75.73574 73.89465
# Shear Modulus (GPa) = 22.78401 24.30695 23.54548
#
# Velocity S-wave (km/s) = 3.64374 3.76355 3.70413
# Velocity P-wave (km/s) = 7.72593 7.93845 7.83291
#
# Compressibility (1/GPa) = 0.01387857
#
# Stress axis : x y z
#
# Youngs Moduli (GPa) = 73.37434 73.37421 77.81575
#
# Poissons Ratio (x) = 0.54567 0.22092
# Poissons Ratio (y) = 0.54567 0.22092
# Poissons Ratio (z) = 0.20831 0.20831
#
# Static dielectric constant tensor:
#      x y z
#    x 3.200780 0.000000 0.000000 
#    y 0.000000 3.200780 0.000000 
#    z 0.000000 0.000000 3.328770 
# 
# 
# High freq. dielectric constant tensor:
#      x y z
#    x 1.648410 0.000000 0.000000 
#    y 0.000000 1.648410 0.000000 
#    z 0.000000 0.000000 1.674190 
# 
# From -- ./inp_files/2814.got.cif
#   From: 2010.03.12/outbox.cif.g09.slc.cpg/sg192_2_cif.got.tgz:2814.got - 2010.04.01 12:16:15.
