data_PCOD8329183
_publ_section_title
;
Structure prediction by ZEFSAII (Michael W. Deem and Ramdas Pophale) SiO2 
 PCOD8329183
Probable space group: P 6/M M M
;
_chemical_formula_sum "Si O2"
_cell_formula_units_Z 108
_cell_length_a 18.155739
_cell_length_b 18.155739
_cell_length_c 23.266009
_cell_angle_alpha 90.000000
_cell_angle_beta 90.000000
_cell_angle_gamma 120.000000
_cell_volume 6641.717284
_symmetry_space_group_name_H-M "P 6/M M M"
_symmetry_group_IT_number 191
_symmetry_cell_setting 'hexagonal'
loop_
_space_group_symop_operation_xyz
x,y,z
x-y,x,z
-y,x-y,z
-x,-y,z
-x+y,-x,z
y,-x+y,z
x-y,-y,-z
-x,-x+y,-z
y,x,-z
-y,-x,-z
-x+y,y,-z
x,x-y,-z
-x,-y,-z
-x+y,-x,-z
y,-x+y,-z
x,y,-z
x-y,x,-z
-y,x-y,-z
-x+y,y,z
x,x-y,z
-y,-x,z
y,x,z
x-y,-y,z
-x,-x+y,z
loop_
_atom_site_type_symbol
_atom_site_label
_atom_site_fract_x
_atom_site_fract_y
_atom_site_fract_z
Si Si1 0.834829 0.501393 0.065915
Si Si2 0.668670 0.499627 0.384643
Si Si3 0.466187 0.367101 0.500000
Si Si4 0.162994 0.668775 0.258233
Si Si5 0.095672 0.733919 0.160696
O O1 0.735789 0.471579 0.074315
O O2 0.847917 0.423959 0.086304
O O3 0.892757 0.584514 0.103244
O O4 0.862959 0.525423 0.000000
O O5 0.729469 0.458937 0.386424
O O6 0.571776 0.428225 0.388339
O O7 0.688972 0.559545 0.441132
O O8 0.680391 0.545440 0.322864
O O9 0.417035 0.417035 0.500000
O O10 0.568227 0.431774 0.500000
O O11 0.151969 0.575985 0.249489
O O12 0.261446 0.738555 0.246462
O O13 0.103524 0.683257 0.214777
O O14 0.165208 0.834793 0.163687
O O15 0.000000 0.719571 0.160489
#
# Coordination Sequence:
#
# PCOD8329183 Si02
#       5
#    24  24  12  24  24
#     4   9  17  29  46  69  98 131 162 187 210 241
#     4   9  16  26  40  57  77 103 137 174 208 242
#     4   9  17  26  34  48  72 101 134 174 218 254
#     4   9  17  28  43  64  90 119 148 177 209 249
#     4  10  21  35  49  66  88 114 145 182 225 269
#
# _framework density 16.260853999999998
#
# number of rings (size 3 to 8) (size 9 to 14) (size 15 to 20)
#    0.000    2.778    0.000    1.667    0.000    5.778 
#    0.000    6.667    0.000    0.222    0.000    0.000 
#    0.000    0.000    0.000    5.556    0.000    0.000 
#
# Total GULP energy -1338064.831547 kJ/mol
# GULP energy per Si atom -12389.489181 kJ/mol
# Density = 1.622384 g / cm^3
# Si number density = 16.260854 Si / 1000 Ang^3
#
#
#
# Elastic Constant Matrix: (Units=GPa)
#
#
# Indices 1 2 3 4 5 6 
#
# 1 62.8574 38.7079 34.0245 0.0000 0.0000 0.0000
# 2 38.7079 62.8574 34.0245 0.0000 0.0000 0.0000
# 3 34.0245 34.0245 113.7666 0.0000 0.0000 0.0000
# 4 0.0000 0.0000 0.0000 15.5022 0.0000 0.0000
# 5 0.0000 0.0000 0.0000 0.0000 15.5022 0.0000
# 6 0.0000 0.0000 0.0000 0.0000 0.0000 12.0748
#
#
#
# Elastic Compliance Matrix: (Units=1/GPa)
#
#
# Indices 1 2 3 4 5 6 
#
# 1 0.026861 -0.014548 -0.003683 0.000000 0.000000 0.000000
# 2 -0.014548 0.026861 -0.003683 0.000000 0.000000 0.000000
# 3 -0.003683 -0.003683 0.010993 0.000000 0.000000 0.000000
# 4 0.000000 0.000000 0.000000 0.064507 0.000000 0.000000
# 5 0.000000 0.000000 0.000000 0.000000 0.064507 0.000000
# 6 0.000000 0.000000 0.000000 0.000000 0.000000 0.082817
#
#
# Mechanical properties :
#
#
# Convention : Reuss Voigt Hill
#
# Bulk Modulus (GPa) = 47.87243 50.33278 49.10261
# Shear Modulus (GPa) = 15.27489 17.46413 16.36951
#
# Velocity S-wave (km/s) = 3.06823 3.28075 3.17627
# Velocity P-wave (km/s) = 6.48508 6.73584 6.61165
#
# Compressibility (1/GPa) = 0.02088885
#
# Stress axis : x y z
#
# Youngs Moduli (GPa) = 37.22877 37.22877 90.97014
#
# Poissons Ratio (x) = 0.54160 0.33500
# Poissons Ratio (y) = 0.54160 0.33500
# Poissons Ratio (z) = 0.13710 0.13710
#
# Static dielectric constant tensor:
#      x y z
#    x 2.756000 0.000000 0.000000 
#    y 0.000000 2.756000 0.000000 
#    z 0.000000 0.000000 3.674700 
# 
# 
# High freq. dielectric constant tensor:
#      x y z
#    x 1.581700 0.000000 0.000000 
#    y 0.000000 1.581700 0.000000 
#    z 0.000000 0.000000 1.658330 
# 
# From -- ./inp_files/8354.got.cif
#   From: 2010.03.12/outbox.cif.g09.slc.cpg/sg191_5_cif.got.tgz:8354.got - 2010.04.01 12:09:02.
