data_PCOD8329752
_publ_section_title
;
Structure prediction by ZEFSAII (Michael W. Deem and Ramdas Pophale) SiO2 
 PCOD8329752
Probable space group: P 6/M C C
;
_chemical_formula_sum "Si O2"
_cell_formula_units_Z 168
_cell_length_a 30.000000
_cell_length_b 30.000000
_cell_length_c 15.000000
_cell_angle_alpha 90.000000
_cell_angle_beta 90.000000
_cell_angle_gamma 120.000000
_cell_volume 11691.342951
_symmetry_space_group_name_H-M "P 6/M C C"
_symmetry_group_IT_number 192
_symmetry_cell_setting 'hexagonal'
loop_
_space_group_symop_operation_xyz
x,y,z
x-y,x,z
-y,x-y,z
-x,-y,z
-x+y,-x,z
y,-x+y,z
x-y,-y,1/2-z
-x,-x+y,1/2-z
y,x,1/2-z
-y,-x,1/2-z
-x+y,y,1/2-z
x,x-y,1/2-z
-x,-y,-z
-x+y,-x,-z
y,-x+y,-z
x,y,-z
x-y,x,-z
-y,x-y,-z
-x+y,y,1/2+z
x,x-y,1/2+z
-y,-x,1/2+z
y,x,1/2+z
x-y,-y,1/2+z
-x,-x+y,1/2+z
loop_
_atom_site_type_symbol
_atom_site_label
_atom_site_fract_x
_atom_site_fract_y
_atom_site_fract_z
Si Si1 1.000000 0.102104 0.394606
Si Si2 0.899777 0.205386 0.398253
Si Si3 0.694391 0.899777 0.898253
Si Si4 0.602004 0.541153 0.250000
Si Si5 0.530546 0.061092 0.395896
Si Si6 0.708143 0.062454 0.750000
Si Si7 0.000000 0.203689 0.149263
O O1 0.050109 0.100219 0.362058
O O2 1.000000 0.107801 0.500000
O O3 1.000000 0.150478 0.350686
O O4 0.893564 0.219279 0.500000
O O5 0.846912 0.153088 0.368406
O O6 0.912593 0.254744 0.336319
O O7 0.947835 0.195242 0.396562
O O8 0.657849 0.912593 0.836319
O O9 0.752593 0.947835 0.896562
O O10 0.674285 0.893564 0.000000
O O11 0.571495 0.571495 0.250000
O O12 0.584055 0.504653 0.339631
O O13 0.584055 0.504653 0.160369
O O14 0.663505 0.584471 0.250000
O O15 0.541121 0.082241 0.500000
O O16 0.500000 0.000000 0.400581
O O17 0.681355 0.000000 0.750000
O O18 0.000000 0.221732 0.250000
#
# Coordination Sequence:
#
# PCOD8329752 Si02
#       7
#    24  24  24  24  24  24  24
#     4  10  21  36  52  68  84 101 123 158 213 291
#     4  11  22  35  50  65  86 115 147 191 245 299
#     4  11  22  35  50  65  86 115 147 191 245 299
#     4   8  16  26  41  64  92 117 147 181 213 245
#     4   8  13  25  42  63  91 124 151 173 202 237
#     4  11  20  33  48  69  91 115 146 191 235 281
#     4  12  22  35  51  68  83 104 135 180 236 294
#
# _framework density 14.369607
#
# number of rings (size 3 to 8) (size 9 to 14) (size 15 to 20)
#    0.000    1.857    2.857    3.571    0.000    5.714 
#    0.000    2.857    0.000    0.857    0.000    0.000 
#    0.000    0.000    0.000    0.000    0.000    0.000 
#
# Total GULP energy -2081691.886735 kJ/mol
# GULP energy per Si atom -12391.023135 kJ/mol
# Density = 1.433690 g / cm^3
# Si number density = 14.369607 Si / 1000 Ang^3
#
#
#
# Elastic Constant Matrix: (Units=GPa)
#
#
# Indices 1 2 3 4 5 6 
#
# 1 96.7565 41.4209 35.4164 0.0000 0.0000 0.0000
# 2 41.4209 96.7565 35.4164 0.0000 0.0000 0.0000
# 3 35.4164 35.4164 111.6300 0.0000 0.0000 0.0000
# 4 0.0000 0.0000 0.0000 23.2090 0.0000 0.0000
# 5 0.0000 0.0000 0.0000 0.0000 23.2090 0.0000
# 6 0.0000 0.0000 0.0000 0.0000 0.0000 27.6678
#
#
#
# Elastic Compliance Matrix: (Units=1/GPa)
#
#
# Indices 1 2 3 4 5 6 
#
# 1 0.013357 -0.004714 -0.002742 0.000000 0.000000 0.000000
# 2 -0.004714 0.013357 -0.002742 0.000000 0.000000 0.000000
# 3 -0.002742 -0.002742 0.010698 0.000000 0.000000 0.000000
# 4 0.000000 0.000000 0.000000 0.043087 0.000000 0.000000
# 5 0.000000 0.000000 0.000000 0.000000 0.043087 0.000000
# 6 0.000000 0.000000 0.000000 0.000000 0.000000 0.036143
#
#
# Mechanical properties :
#
#
# Convention : Reuss Voigt Hill
#
# Bulk Modulus (GPa) = 58.77053 58.85007 58.81030
# Shear Modulus (GPa) = 26.91099 27.67643 27.29371
#
# Velocity S-wave (km/s) = 4.33225 4.39343 4.36295
# Velocity P-wave (km/s) = 8.12481 8.17189 8.14838
#
# Compressibility (1/GPa) = 0.01701533
#
# Stress axis : x y z
#
# Youngs Moduli (GPa) = 74.86635 74.86635 93.47475
#
# Poissons Ratio (x) = 0.35295 0.25631
# Poissons Ratio (y) = 0.35295 0.25631
# Poissons Ratio (z) = 0.20529 0.20529
#
# Static dielectric constant tensor:
#      x y z
#    x 2.910810 0.000000 0.000000 
#    y 0.000000 2.910810 0.000000 
#    z 0.000000 0.000000 3.169690 
# 
# 
# High freq. dielectric constant tensor:
#      x y z
#    x 1.533660 0.000000 0.000000 
#    y 0.000000 1.533660 0.000000 
#    z 0.000000 0.000000 1.576960 
# 
# From -- ./inp_files/3496.got.cif
#   From: 2010.03.12/outbox.ucp.g09.slc.cvg/sg192_2_cif.got.tgz:3496.got - 2010.05.04 20:47:40.
