data_PCOD8329446
_publ_section_title
;
Structure prediction by ZEFSAII (Michael W. Deem and Ramdas Pophale) SiO2 
 PCOD8329446
Probable space group: P 6/M C C
;
_chemical_formula_sum "Si O2"
_cell_formula_units_Z 192
_cell_length_a 22.052790
_cell_length_b 22.052790
_cell_length_c 26.956961
_cell_angle_alpha 90.000000
_cell_angle_beta 90.000000
_cell_angle_gamma 120.000000
_cell_volume 11353.470759
_symmetry_space_group_name_H-M "P 6/M C C"
_symmetry_group_IT_number 192
_symmetry_cell_setting 'hexagonal'
loop_
_space_group_symop_operation_xyz
x,y,z
x-y,x,z
-y,x-y,z
-x,-y,z
-x+y,-x,z
y,-x+y,z
x-y,-y,1/2-z
-x,-x+y,1/2-z
y,x,1/2-z
-y,-x,1/2-z
-x+y,y,1/2-z
x,x-y,1/2-z
-x,-y,-z
-x+y,-x,-z
y,-x+y,-z
x,y,-z
x-y,x,-z
-y,x-y,-z
-x+y,y,1/2+z
x,x-y,1/2+z
-y,-x,1/2+z
y,x,1/2+z
x-y,-y,1/2+z
-x,-x+y,1/2+z
loop_
_atom_site_type_symbol
_atom_site_label
_atom_site_fract_x
_atom_site_fract_y
_atom_site_fract_z
Si Si1 0.798875 0.945960 0.286627
Si Si2 0.037313 0.151979 0.894315
Si Si3 0.823917 0.178182 0.195023
Si Si4 0.076700 0.615055 0.945038
Si Si5 0.343725 0.274906 0.618877
Si Si6 0.513178 0.600837 0.055253
Si Si7 0.711897 0.850551 0.942341
Si Si8 0.719202 0.622165 0.385313
O O1 0.839785 0.919893 0.250000
O O2 0.842863 0.977997 0.336212
O O3 0.726307 0.880845 0.303114
O O4 0.789245 0.000000 0.250000
O O5 0.092459 0.129569 0.912304
O O6 0.065011 0.224921 0.922402
O O7 0.806011 0.193990 0.250000
O O8 0.889053 0.247869 0.170911
O O9 0.753124 0.145155 0.162943
O O10 0.098249 0.679339 0.907761
O O11 0.107646 0.565309 0.927836
O O12 0.994359 0.565738 0.948100
O O13 0.104987 0.646166 0.000000
O O14 0.293367 0.205915 0.586210
O O15 0.307009 0.322026 0.626903
O O16 0.545338 0.659730 0.097516
O O17 0.509522 0.628575 0.000000
O O18 0.646524 0.774820 0.930239
O O19 0.718117 0.867614 0.000000
#
# Coordination Sequence:
#
# PCOD8329446 Si02
#       8
#    24  24  24  24  24  24  24  24
#     4  11  21  32  52  67  84 113 154 221 283 340
#     4  12  24  38  49  65  84 118 168 228 294 354
#     4  10  23  32  47  70  98 126 171 217 267 315
#     4   8  14  26  47  73 104 131 153 179 217 279
#     4  10  19  32  49  73  97 129 165 204 254 312
#     4   8  14  26  46  74 102 130 156 179 216 278
#     4  11  23  34  48  69  96 128 166 212 260 319
#     4  10  19  31  50  70  97 129 166 205 253 306
#
# _framework density 16.911128999999999
#
# number of rings (size 3 to 8) (size 9 to 14) (size 15 to 20)
#    0.000    2.000    3.750    2.375    3.500    3.000 
#    0.000    0.000    0.000    1.500    0.000    3.500 
#   10.000    0.000    6.000    0.000    0.000    0.000 
#
# Total GULP energy -2378533.944398 kJ/mol
# GULP energy per Si atom -12388.197627 kJ/mol
# Density = 1.687264 g / cm^3
# Si number density = 16.911129 Si / 1000 Ang^3
#
#
#
# Elastic Constant Matrix: (Units=GPa)
#
#
# Indices 1 2 3 4 5 6 
#
# 1 59.1057 12.7329 24.2389 0.0000 0.0000 0.0000
# 2 12.7329 59.1057 24.2389 0.0000 0.0000 0.0000
# 3 24.2389 24.2389 105.4160 0.0000 0.0000 0.0000
# 4 0.0000 0.0000 0.0000 25.5509 0.0000 0.0000
# 5 0.0000 0.0000 0.0000 0.0000 25.5509 0.0000
# 6 0.0000 0.0000 0.0000 0.0000 0.0000 23.1864
#
#
#
# Elastic Compliance Matrix: (Units=1/GPa)
#
#
# Indices 1 2 3 4 5 6 
#
# 1 0.019021 -0.002544 -0.003789 0.000000 0.000000 0.000000
# 2 -0.002544 0.019021 -0.003789 0.000000 0.000000 0.000000
# 3 -0.003789 -0.003789 0.011228 0.000000 0.000000 0.000000
# 4 0.000000 0.000000 0.000000 0.039138 0.000000 0.000000
# 5 0.000000 0.000000 0.000000 0.000000 0.039138 0.000000
# 6 0.000000 0.000000 0.000000 0.000000 0.000000 0.043129
#
#
# Mechanical properties :
#
#
# Convention : Reuss Voigt Hill
#
# Bulk Modulus (GPa) = 34.44999 38.44982 36.44991
# Shear Modulus (GPa) = 24.92630 25.68541 25.30585
#
# Velocity S-wave (km/s) = 3.84338 3.90147 3.87253
# Velocity P-wave (km/s) = 6.33331 6.56361 6.44949
#
# Compressibility (1/GPa) = 0.02902758
#
# Stress axis : x y z
#
# Youngs Moduli (GPa) = 52.57476 52.57476 89.05920
#
# Poissons Ratio (x) = 0.13374 0.33741
# Poissons Ratio (y) = 0.13374 0.33741
# Poissons Ratio (z) = 0.19918 0.19918
#
# Static dielectric constant tensor:
#      x y z
#    x 3.134960 0.000000 0.000000 
#    y 0.000000 3.134960 0.000000 
#    z 0.000000 0.000000 3.462610 
# 
# 
# High freq. dielectric constant tensor:
#      x y z
#    x 1.626280 0.000000 0.000000 
#    y 0.000000 1.626280 0.000000 
#    z 0.000000 0.000000 1.651260 
# 
# From -- ./inp_files/6686.got.cif
#   From: 2010.03.12/outbox.cif.g09.slc.cpg/sg192_4_cif.got.tgz:6686.got - 2010.04.01 12:16:15.
