data_PCOD8329703
_publ_section_title
;
Structure prediction by ZEFSAII (Michael W. Deem and Ramdas Pophale) SiO2 
 PCOD8329703
Probable space group: P 6/M C C
;
_chemical_formula_sum "Si O2"
_cell_formula_units_Z 128
_cell_length_a 21.616416
_cell_length_b 21.616416
_cell_length_c 18.193957
_cell_angle_alpha 90.000000
_cell_angle_beta 90.000000
_cell_angle_gamma 120.000000
_cell_volume 7362.497746
_symmetry_space_group_name_H-M "P 6/M C C"
_symmetry_group_IT_number 192
_symmetry_cell_setting 'hexagonal'
loop_
_space_group_symop_operation_xyz
x,y,z
x-y,x,z
-y,x-y,z
-x,-y,z
-x+y,-x,z
y,-x+y,z
x-y,-y,1/2-z
-x,-x+y,1/2-z
y,x,1/2-z
-y,-x,1/2-z
-x+y,y,1/2-z
x,x-y,1/2-z
-x,-y,-z
-x+y,-x,-z
y,-x+y,-z
x,y,-z
x-y,x,-z
-y,x-y,-z
-x+y,y,1/2+z
x,x-y,1/2+z
-y,-x,1/2+z
y,x,1/2+z
x-y,-y,1/2+z
-x,-x+y,1/2+z
loop_
_atom_site_type_symbol
_atom_site_label
_atom_site_fract_x
_atom_site_fract_y
_atom_site_fract_z
Si Si1 0.544266 0.843361 0.835653
Si Si2 0.333334 0.666668 0.587056
Si Si3 0.700905 0.156638 0.164347
Si Si4 0.078988 0.294191 0.837474
Si Si5 0.828171 0.414085 0.412920
Si Si6 0.294191 0.215203 0.662526
O O1 0.524481 0.762240 0.852815
O O2 0.534715 0.853095 0.750000
O O3 0.494192 0.864973 0.881294
O O4 0.625203 0.896733 0.861696
O O5 0.333334 0.666668 0.500000
O O6 0.252920 0.626461 0.616603
O O7 0.728470 0.103267 0.138304
O O8 0.629218 0.135025 0.118707
O O9 0.078585 0.291400 0.750000
O O10 0.135894 0.271787 0.867486
O O11 1.000000 0.240369 0.869394
O O12 0.834873 0.417436 0.500000
#
# Coordination Sequence:
#
# PCOD8329703 Si02
#       6
#    24   8  24  24  24  24
#     4   9  17  28  42  62  86 114 152 193 227 262
#     4   9  18  27  37  56  82 111 148 188 229 273
#     4   9  17  28  42  62  86 114 152 193 227 262
#     4   8  14  26  45  67  89 113 144 182 221 262
#     4  11  19  29  42  60  87 118 152 192 236 275
#     4   8  14  26  45  67  89 113 144 182 221 262
#
# _framework density 17.385404000000001
#
# number of rings (size 3 to 8) (size 9 to 14) (size 15 to 20)
#    0.000    3.000    1.875    2.812    0.000    0.000 
#    0.000    0.938    0.000    7.125    0.000    2.625 
#    0.000    0.000    0.000    0.000    0.000    0.000 
#
# Total GULP energy -1586481.706793 kJ/mol
# GULP energy per Si atom -12394.388334 kJ/mol
# Density = 1.734583 g / cm^3
# Si number density = 17.385404 Si / 1000 Ang^3
#
#
#
# Elastic Constant Matrix: (Units=GPa)
#
#
# Indices 1 2 3 4 5 6 
#
# 1 123.4777 78.2030 28.3808 0.0000 0.0000 0.0000
# 2 78.2030 123.4780 28.3808 0.0000 0.0000 0.0000
# 3 28.3808 28.3808 38.4845 0.0000 0.0000 0.0000
# 4 0.0000 0.0000 0.0000 7.3809 0.0000 0.0000
# 5 0.0000 0.0000 0.0000 0.0000 7.3808 0.0000
# 6 0.0000 0.0000 0.0000 0.0000 0.0000 22.6373
#
#
#
# Elastic Compliance Matrix: (Units=1/GPa)
#
#
# Indices 1 2 3 4 5 6 
#
# 1 0.014172 -0.007915 -0.004614 0.000000 0.000000 0.000000
# 2 -0.007915 0.014172 -0.004614 0.000000 0.000000 0.000000
# 3 -0.004614 -0.004614 0.032790 0.000000 0.000000 0.000000
# 4 0.000000 0.000000 0.000000 0.135485 0.000000 0.000000
# 5 0.000000 0.000000 0.000000 0.000000 0.135487 0.000000
# 6 0.000000 0.000000 0.000000 0.000000 0.000000 0.044175
#
#
# Mechanical properties :
#
#
# Convention : Reuss Voigt Hill
#
# Bulk Modulus (GPa) = 37.24803 61.70771 49.47787
# Shear Modulus (GPa) = 11.91845 17.51149 14.71497
#
# Velocity S-wave (km/s) = 2.62113 3.17717 2.91245
# Velocity P-wave (km/s) = 5.53460 7.00216 6.31118
#
# Compressibility (1/GPa) = 0.02684706
#
# Stress axis : x y z
#
# Youngs Moduli (GPa) = 70.56075 70.56100 30.49687
#
# Poissons Ratio (x) = 0.55850 0.14072
# Poissons Ratio (y) = 0.55850 0.14072
# Poissons Ratio (z) = 0.32559 0.32559
#
# Static dielectric constant tensor:
#      x y z
#    x 3.363400 0.000000 0.000000 
#    y 0.000000 3.363390 0.000000 
#    z 0.000000 0.000000 2.718050 
# 
# 
# High freq. dielectric constant tensor:
#      x y z
#    x 1.659670 0.000000 0.000000 
#    y 0.000000 1.659670 0.000000 
#    z 0.000000 0.000000 1.625070 
# 
# From -- ./inp_files/5043.got.cif
#   From: 2010.03.12/outbox.cif.g09.slc.cpg/sg192_3_cif.got.tgz:5043.got - 2010.04.01 12:16:15.
