data_PCOD8329219
_publ_section_title
;
Structure prediction by ZEFSAII (Michael W. Deem and Ramdas Pophale) SiO2 
 PCOD8329219
Probable space group: P 6/M M M
;
_chemical_formula_sum "Si O2"
_cell_formula_units_Z 72
_cell_length_a 22.496506
_cell_length_b 22.496506
_cell_length_c 8.755741
_cell_angle_alpha 90.000000
_cell_angle_beta 90.000000
_cell_angle_gamma 120.000000
_cell_volume 3837.546771
_symmetry_space_group_name_H-M "P 6/M M M"
_symmetry_group_IT_number 191
_symmetry_cell_setting 'hexagonal'
loop_
_space_group_symop_operation_xyz
x,y,z
x-y,x,z
-y,x-y,z
-x,-y,z
-x+y,-x,z
y,-x+y,z
x-y,-y,-z
-x,-x+y,-z
y,x,-z
-y,-x,-z
-x+y,y,-z
x,x-y,-z
-x,-y,-z
-x+y,-x,-z
y,-x+y,-z
x,y,-z
x-y,x,-z
-y,x-y,-z
-x+y,y,z
x,x-y,z
-y,-x,z
y,x,z
x-y,-y,z
-x,-x+y,z
loop_
_atom_site_type_symbol
_atom_site_label
_atom_site_fract_x
_atom_site_fract_y
_atom_site_fract_z
Si Si1 0.530626 0.196971 0.822124
Si Si2 0.389571 0.264722 0.325386
Si Si3 0.000000 0.865608 0.681246
Si Si4 0.263329 0.000000 0.177565
O O1 0.594841 0.189681 0.769202
O O2 0.548364 0.274182 0.786150
O O3 0.465160 0.142430 0.726394
O O4 0.514430 0.180112 0.000000
O O5 0.377875 0.278261 0.500000
O O6 0.380751 0.190376 0.303753
O O7 0.334812 0.268599 0.217991
O O8 0.932579 0.865158 0.745883
O O9 0.000000 0.867497 0.500000
O O10 0.000000 0.797729 0.730669
O O11 0.248209 0.000000 0.000000
#
# Coordination Sequence:
#
# PCOD8329219 Si02
#       4
#    24  24  12  12
#     4   9  17  31  53  81 112 144 177 215 262 316
#     4  10  21  37  56  78 106 140 178 221 266 313
#     4  10  21  38  60  85 113 144 177 214 259 313
#     4  12  24  37  56  80 106 140 181 223 267 316
#
# _framework density 18.761986
#
# number of rings (size 3 to 8) (size 9 to 14) (size 15 to 20)
#    0.000    2.000    0.000    4.000    0.000    9.333 
#    0.000    0.833    0.000    8.000    0.000    0.000 
#    0.000    0.000    0.000    0.000    0.000    0.000 
#
# Total GULP energy -893098.974589 kJ/mol
# GULP energy per Si atom -12404.152425 kJ/mol
# Density = 1.871928 g / cm^3
# Si number density = 18.761986 Si / 1000 Ang^3
#
#
#
# Elastic Constant Matrix: (Units=GPa)
#
#
# Indices 1 2 3 4 5 6 
#
# 1 100.8611 56.6895 18.2277 0.0000 0.0000 0.0000
# 2 56.6895 100.8611 18.2277 0.0000 0.0000 0.0000
# 3 18.2277 18.2277 38.9679 0.0000 0.0000 0.0000
# 4 0.0000 0.0000 0.0000 28.3650 0.0000 0.0000
# 5 0.0000 0.0000 0.0000 0.0000 28.3650 0.0000
# 6 0.0000 0.0000 0.0000 0.0000 0.0000 22.0858
#
#
#
# Elastic Compliance Matrix: (Units=1/GPa)
#
#
# Indices 1 2 3 4 5 6 
#
# 1 0.014878 -0.007761 -0.003329 0.000000 0.000000 0.000000
# 2 -0.007761 0.014878 -0.003329 0.000000 0.000000 0.000000
# 3 -0.003329 -0.003329 0.028777 0.000000 0.000000 0.000000
# 4 0.000000 0.000000 0.000000 0.035255 0.000000 0.000000
# 5 0.000000 0.000000 0.000000 0.000000 0.035255 0.000000
# 6 0.000000 0.000000 0.000000 0.000000 0.000000 0.045278
#
#
# Mechanical properties :
#
#
# Convention : Reuss Voigt Hill
#
# Bulk Modulus (GPa) = 33.67615 47.44221 40.55918
# Shear Modulus (GPa) = 23.46784 25.59951 24.53367
#
# Velocity S-wave (km/s) = 3.54053 3.69783 3.62004
# Velocity P-wave (km/s) = 5.89083 6.60100 6.25600
#
# Compressibility (1/GPa) = 0.02969461
#
# Stress axis : x y z
#
# Youngs Moduli (GPa) = 67.21217 67.21217 34.75025
#
# Poissons Ratio (x) = 0.52162 0.11569
# Poissons Ratio (y) = 0.52162 0.11569
# Poissons Ratio (z) = 0.22377 0.22377
#
# Static dielectric constant tensor:
#      x y z
#    x 3.486660 0.000000 0.000000 
#    y 0.000000 3.486660 0.000000 
#    z 0.000000 0.000000 3.416040 
# 
# 
# High freq. dielectric constant tensor:
#      x y z
#    x 1.730880 0.000000 0.000000 
#    y 0.000000 1.730880 0.000000 
#    z 0.000000 0.000000 1.726090 
# 
# From -- ./inp_files/967.got.cif
#   From: 2010.03.12/outbox.cif.g09.slc.cpg/sg191_1_cif.got.tgz:967.got - 2010.04.01 12:09:02.
