data_PCOD8329447
_publ_section_title
;
Structure prediction by ZEFSAII (Michael W. Deem and Ramdas Pophale) SiO2 
 PCOD8329447
Probable space group: P 6/M C C
;
_chemical_formula_sum "Si O2"
_cell_formula_units_Z 96
_cell_length_a 14.091979
_cell_length_b 14.091979
_cell_length_c 25.494377
_cell_angle_alpha 90.000000
_cell_angle_beta 90.000000
_cell_angle_gamma 120.000000
_cell_volume 4384.489254
_symmetry_space_group_name_H-M "P 6/M C C"
_symmetry_group_IT_number 192
_symmetry_cell_setting 'hexagonal'
loop_
_space_group_symop_operation_xyz
x,y,z
x-y,x,z
-y,x-y,z
-x,-y,z
-x+y,-x,z
y,-x+y,z
x-y,-y,1/2-z
-x,-x+y,1/2-z
y,x,1/2-z
-y,-x,1/2-z
-x+y,y,1/2-z
x,x-y,1/2-z
-x,-y,-z
-x+y,-x,-z
y,-x+y,-z
x,y,-z
x-y,x,-z
-y,x-y,-z
-x+y,y,1/2+z
x,x-y,1/2+z
-y,-x,1/2+z
y,x,1/2+z
x-y,-y,1/2+z
-x,-x+y,1/2+z
loop_
_atom_site_type_symbol
_atom_site_label
_atom_site_fract_x
_atom_site_fract_y
_atom_site_fract_z
Si Si1 0.127200 0.870852 0.188474
Si Si2 0.416191 0.874178 0.059975
Si Si3 0.243243 0.811907 0.605245
Si Si4 0.224477 0.032521 0.060784
O O1 0.138908 0.861093 0.250000
O O2 0.180649 0.802549 0.162327
O O3 0.999209 0.811177 0.171717
O O4 0.452433 0.808815 0.101238
O O5 0.295562 0.850707 0.075773
O O6 0.500000 0.000000 0.066684
O O7 0.414173 0.835006 0.000000
O O8 0.276175 0.925026 0.572560
O O9 0.214699 0.133645 0.087082
O O10 0.197137 0.015217 0.000000
#
# Coordination Sequence:
#
# PCOD8329447 Si02
#       4
#    24  24  24  24
#     4  10  21  39  65  97 130 161 194 238 299 372
#     4  11  23  38  57  82 112 150 198 250 303 356
#     4  12  23  38  58  81 112 154 204 251 298 350
#     4  10  19  31  50  79 114 148 182 228 294 373
#
# _framework density 21.895367
#
# number of rings (size 3 to 8) (size 9 to 14) (size 15 to 20)
#    0.000    1.250    0.000    7.750    0.000    6.000 
#    0.000    3.750    0.000    4.500    0.000    0.000 
#    0.000    0.000    0.000    0.000    0.000    0.000 
#
# Total GULP energy -1189612.982045 kJ/mol
# GULP energy per Si atom -12391.801896 kJ/mol
# Density = 2.184553 g / cm^3
# Si number density = 21.895367 Si / 1000 Ang^3
#
#
#
# Elastic Constant Matrix: (Units=GPa)
#
#
# Indices 1 2 3 4 5 6 
#
# 1 81.2781 8.8089 23.3203 0.0000 0.0000 0.0000
# 2 8.8089 81.2781 23.3203 0.0000 0.0000 0.0000
# 3 23.3203 23.3203 72.3290 0.0000 0.0000 0.0000
# 4 0.0000 0.0000 0.0000 23.0603 0.0000 0.0000
# 5 0.0000 0.0000 0.0000 0.0000 23.0603 0.0000
# 6 0.0000 0.0000 0.0000 0.0000 0.0000 36.2346
#
#
#
# Elastic Compliance Matrix: (Units=1/GPa)
#
#
# Indices 1 2 3 4 5 6 
#
# 1 0.013562 -0.000237 -0.004296 0.000000 0.000000 0.000000
# 2 -0.000237 0.013562 -0.004296 0.000000 0.000000 0.000000
# 3 -0.004296 -0.004296 0.016596 0.000000 0.000000 0.000000
# 4 0.000000 0.000000 0.000000 0.043365 0.000000 0.000000
# 5 0.000000 0.000000 0.000000 0.000000 0.043365 0.000000
# 6 0.000000 0.000000 0.000000 0.000000 0.000000 0.027598
#
#
# Mechanical properties :
#
#
# Convention : Reuss Voigt Hill
#
# Bulk Modulus (GPa) = 38.37188 38.42048 38.39618
# Shear Modulus (GPa) = 27.11610 28.43343 27.77476
#
# Velocity S-wave (km/s) = 3.52297 3.60753 3.56550
# Velocity P-wave (km/s) = 5.84051 5.91081 5.87577
#
# Compressibility (1/GPa) = 0.02606075
#
# Stress axis : x y z
#
# Youngs Moduli (GPa) = 73.73658 73.73658 60.25542
#
# Poissons Ratio (x) = 0.01749 0.25886
# Poissons Ratio (y) = 0.01749 0.25886
# Poissons Ratio (z) = 0.31678 0.31678
#
# Static dielectric constant tensor:
#      x y z
#    x 4.069740 0.000000 0.000000 
#    y 0.000000 4.069740 0.000000 
#    z 0.000000 0.000000 3.763360 
# 
# 
# High freq. dielectric constant tensor:
#      x y z
#    x 1.868740 0.000000 0.000000 
#    y 0.000000 1.868740 0.000000 
#    z 0.000000 0.000000 1.848840 
# 
# From -- ./inp_files/6334.got.cif
#   From: 2010.03.12/outbox.cif.g09.slc.cpg/sg192_4_cif.got.tgz:6334.got - 2010.04.01 12:16:15.
