data_PCOD8329365
_publ_section_title
;
Structure prediction by ZEFSAII (Michael W. Deem and Ramdas Pophale) SiO2 
 PCOD8329365
Probable space group: P 6/M C C
;
_chemical_formula_sum "Si O2"
_cell_formula_units_Z 144
_cell_length_a 20.829517
_cell_length_b 20.829517
_cell_length_c 22.566093
_cell_angle_alpha 90.000000
_cell_angle_beta 90.000000
_cell_angle_gamma 120.000000
_cell_volume 8479.015016
_symmetry_space_group_name_H-M "P 6/M C C"
_symmetry_group_IT_number 192
_symmetry_cell_setting 'hexagonal'
loop_
_space_group_symop_operation_xyz
x,y,z
x-y,x,z
-y,x-y,z
-x,-y,z
-x+y,-x,z
y,-x+y,z
x-y,-y,1/2-z
-x,-x+y,1/2-z
y,x,1/2-z
-y,-x,1/2-z
-x+y,y,1/2-z
x,x-y,1/2-z
-x,-y,-z
-x+y,-x,-z
y,-x+y,-z
x,y,-z
x-y,x,-z
-y,x-y,-z
-x+y,y,1/2+z
x,x-y,1/2+z
-y,-x,1/2+z
y,x,1/2+z
x-y,-y,1/2+z
-x,-x+y,1/2+z
loop_
_atom_site_type_symbol
_atom_site_label
_atom_site_fract_x
_atom_site_fract_y
_atom_site_fract_z
Si Si1 0.484497 0.668424 0.500000
Si Si2 0.300688 0.840011 0.373769
Si Si3 0.832074 0.664145 0.678995
Si Si4 0.916593 0.833187 0.179518
Si Si5 0.458961 0.541041 0.818991
Si Si6 0.159989 0.699314 0.626230
Si Si7 0.515503 0.331576 0.000000
O O1 0.535689 0.678332 0.443065
O O2 0.458291 0.729145 0.500000
O O3 0.412490 0.587510 0.500000
O O4 0.251336 0.875337 0.349276
O O5 0.373762 0.871386 0.335782
O O6 0.249806 0.750195 0.365094
O O7 0.828187 0.656373 0.750000
O O8 0.874324 0.748645 0.657715
O O9 0.748668 0.624003 0.650722
O O10 0.874308 0.874308 0.154230
O O11 0.917969 0.835937 0.250000
O O12 0.500000 0.500000 0.849072
O O13 0.464457 0.535544 0.750000
O O14 0.497630 0.626241 0.835780
O O15 0.142643 0.678332 0.556935
#
# Coordination Sequence:
#
# PCOD8329365 Si02
#       7
#    12  24  24  24  24  24  12
#     4  10  17  32  54  76 100 134 179 231 277 315
#     4   9  20  35  52  73 105 135 181 224 264 313
#     4   9  18  32  50  73 107 150 181 210 261 323
#     4   9  17  30  52  82 112 140 171 210 259 318
#     4  11  22  35  52  75 104 139 176 217 268 320
#     4   9  20  35  52  73 105 135 181 224 264 313
#     4  10  17  32  54  76 100 134 179 231 277 315
#
# _framework density 16.983104999999998
#
# number of rings (size 3 to 8) (size 9 to 14) (size 15 to 20)
#    1.000    1.500    1.667    1.333    0.000    2.000 
#    1.000    5.000    0.000    0.000    0.000    1.167 
#    0.000    0.000    0.000    6.000    0.000    2.667 
#
# Total GULP energy -1783981.202456 kJ/mol
# GULP energy per Si atom -12388.758350 kJ/mol
# Density = 1.694445 g / cm^3
# Si number density = 16.983105 Si / 1000 Ang^3
#
#
#
# Elastic Constant Matrix: (Units=GPa)
#
#
# Indices 1 2 3 4 5 6 
#
# 1 124.4428 66.1859 41.5405 0.0000 0.0000 0.0000
# 2 66.1859 124.4428 41.5405 0.0000 0.0000 0.0000
# 3 41.5405 41.5405 85.7786 0.0000 0.0000 0.0000
# 4 0.0000 0.0000 0.0000 7.7567 0.0000 0.0000
# 5 0.0000 0.0000 0.0000 0.0000 7.7567 0.0000
# 6 0.0000 0.0000 0.0000 0.0000 0.0000 29.1285
#
#
#
# Elastic Compliance Matrix: (Units=1/GPa)
#
#
# Indices 1 2 3 4 5 6 
#
# 1 0.011907 -0.005258 -0.003220 0.000000 0.000000 0.000000
# 2 -0.005258 0.011907 -0.003220 0.000000 0.000000 0.000000
# 3 -0.003220 -0.003220 0.014777 0.000000 0.000000 0.000000
# 4 0.000000 0.000000 0.000000 0.128922 0.000000 0.000000
# 5 0.000000 0.000000 0.000000 0.000000 0.128922 0.000000
# 6 0.000000 0.000000 0.000000 0.000000 0.000000 0.034331
#
#
# Mechanical properties :
#
#
# Convention : Reuss Voigt Hill
#
# Bulk Modulus (GPa) = 65.81154 70.35533 68.08344
# Shear Modulus (GPa) = 13.91880 21.28818 17.60349
#
# Velocity S-wave (km/s) = 2.86591 3.54431 3.22301
# Velocity P-wave (km/s) = 7.05596 7.63322 7.35026
#
# Compressibility (1/GPa) = 0.01519490
#
# Stress axis : x y z
#
# Youngs Moduli (GPa) = 83.98239 83.98239 67.67416
#
# Poissons Ratio (x) = 0.44159 0.21791
# Poissons Ratio (y) = 0.44159 0.21791
# Poissons Ratio (z) = 0.27043 0.27043
#
# Static dielectric constant tensor:
#      x y z
#    x 3.159060 0.000000 0.000000 
#    y 0.000000 3.159060 0.000000 
#    z 0.000000 0.000000 3.136620 
# 
# 
# High freq. dielectric constant tensor:
#      x y z
#    x 1.646320 0.000000 0.000000 
#    y 0.000000 1.646320 0.000000 
#    z 0.000000 0.000000 1.642050 
# 
# From -- ./inp_files/5982.got.cif
#   From: 2010.03.12/outbox.cif.g09.slc.cpg/sg192_3_cif.got.tgz:5982.got - 2010.04.01 12:16:15.
