data_PCOD8329208
_publ_section_title
;
Structure prediction by ZEFSAII (Michael W. Deem and Ramdas Pophale) SiO2 
 PCOD8329208
Probable space group: P 6/M M M
;
_chemical_formula_sum "Si O2"
_cell_formula_units_Z 144
_cell_length_a 31.270309
_cell_length_b 31.270309
_cell_length_c 8.951053
_cell_angle_alpha 90.000000
_cell_angle_beta 90.000000
_cell_angle_gamma 120.000000
_cell_volume 7579.998259
_symmetry_space_group_name_H-M "P 6/M M M"
_symmetry_group_IT_number 191
_symmetry_cell_setting 'hexagonal'
loop_
_space_group_symop_operation_xyz
x,y,z
x-y,x,z
-y,x-y,z
-x,-y,z
-x+y,-x,z
y,-x+y,z
x-y,-y,-z
-x,-x+y,-z
y,x,-z
-y,-x,-z
-x+y,y,-z
x,x-y,-z
-x,-y,-z
-x+y,-x,-z
y,-x+y,-z
x,y,-z
x-y,x,-z
-y,x-y,-z
-x+y,y,z
x,x-y,z
-y,-x,z
y,x,z
x-y,-y,z
-x,-x+y,z
loop_
_atom_site_type_symbol
_atom_site_label
_atom_site_fract_x
_atom_site_fract_y
_atom_site_fract_z
Si Si1 0.520547 0.575145 0.822632
Si Si2 0.944937 0.794692 0.671826
Si Si3 0.666758 0.234397 0.671841
Si Si4 0.706028 0.762669 0.174489
Si Si5 0.672461 0.148863 0.823269
Si Si6 0.758680 0.143424 0.325394
O O1 0.467562 0.532438 0.760408
O O2 0.563340 0.563340 0.770235
O O3 0.532436 0.628494 0.763301
O O4 0.517916 0.574714 0.000000
O O5 0.940806 0.777824 0.500000
O O6 0.907139 0.814277 0.707174
O O7 0.930677 0.747367 0.772609
O O8 0.000000 0.839011 0.708726
O O9 0.668221 0.219821 0.500000
O O10 0.622523 0.245045 0.700232
O O11 0.716820 0.283180 0.716874
O O12 0.659262 0.190336 0.778794
O O13 0.722925 0.722925 0.213107
O O14 0.655048 0.746280 0.256949
O O15 0.697685 0.764855 0.000000
O O16 0.723298 0.160971 0.746324
O O17 0.678685 0.148634 0.000000
O O18 0.748363 0.136613 0.500000
O O19 0.815141 0.184860 0.290991
#
# Coordination Sequence:
#
# PCOD8329208 Si02
#       6
#    24  24  24  24  24  24
#     4   8  15  30  52  77 105 136 169 207 254 307
#     4   9  17  30  49  73 102 137 176 217 263 316
#     4  10  21  38  59  81 107 141 180 220 265 321
#     4  10  21  36  55  80 107 134 169 217 270 320
#     4  11  22  35  55  83 111 139 176 222 270 320
#     4  11  24  40  56  75 104 144 185 220 259 313
#
# _framework density 18.997366
#
# number of rings (size 3 to 8) (size 9 to 14) (size 15 to 20)
#    0.000    2.167    0.000    3.667    0.000    9.333 
#    0.000    1.667    0.000    2.667    0.000    7.000 
#    0.000    0.000    0.000    4.167    0.000    4.333 
#
# Total GULP energy -1785839.697516 kJ/mol
# GULP energy per Si atom -12401.664566 kJ/mol
# Density = 1.895413 g / cm^3
# Si number density = 18.997366 Si / 1000 Ang^3
#
#
#
# Elastic Constant Matrix: (Units=GPa)
#
#
# Indices 1 2 3 4 5 6 
#
# 1 107.4893 42.3479 41.4284 0.0000 0.0000 0.0000
# 2 42.3479 107.4893 41.4284 0.0000 0.0000 0.0000
# 3 41.4284 41.4284 68.6459 0.0000 0.0000 0.0000
# 4 0.0000 0.0000 0.0000 25.7490 0.0000 0.0000
# 5 0.0000 0.0000 0.0000 0.0000 25.7490 0.0000
# 6 0.0000 0.0000 0.0000 0.0000 0.0000 32.5707
#
#
#
# Elastic Compliance Matrix: (Units=1/GPa)
#
#
# Indices 1 2 3 4 5 6 
#
# 1 0.012684 -0.002667 -0.006045 0.000000 0.000000 0.000000
# 2 -0.002667 0.012684 -0.006045 0.000000 0.000000 0.000000
# 3 -0.006045 -0.006045 0.021864 0.000000 0.000000 0.000000
# 4 0.000000 0.000000 0.000000 0.038836 0.000000 0.000000
# 5 0.000000 0.000000 0.000000 0.000000 0.038836 0.000000
# 6 0.000000 0.000000 0.000000 0.000000 0.000000 0.030702
#
#
# Mechanical properties :
#
#
# Convention : Reuss Voigt Hill
#
# Bulk Modulus (GPa) = 56.44330 59.33710 57.89020
# Shear Modulus (GPa) = 26.17411 27.37506 26.77458
#
# Velocity S-wave (km/s) = 3.71587 3.80016 3.75825
# Velocity P-wave (km/s) = 6.94160 7.11035 7.02648
#
# Compressibility (1/GPa) = 0.01771690
#
# Stress axis : x y z
#
# Youngs Moduli (GPa) = 78.83943 78.83943 45.73689
#
# Poissons Ratio (x) = 0.21028 0.27649
# Poissons Ratio (y) = 0.21028 0.27649
# Poissons Ratio (z) = 0.47660 0.47660
#
# Static dielectric constant tensor:
#      x y z
#    x 3.574300 0.000000 0.000000 
#    y 0.000000 3.574300 0.000000 
#    z 0.000000 0.000000 3.354790 
# 
# 
# High freq. dielectric constant tensor:
#      x y z
#    x 1.742140 0.000000 0.000000 
#    y 0.000000 1.742140 0.000000 
#    z 0.000000 0.000000 1.724750 
# 
# From -- ./inp_files/1954.got.cif
#   From: 2010.03.12/outbox.cif.g09.slc.cpg/sg191_1_cif.got.tgz:1954.got - 2010.04.01 12:09:02.
