data_PCOD8329384
_publ_section_title
;
Structure prediction by ZEFSAII (Michael W. Deem and Ramdas Pophale) SiO2 
 PCOD8329384
Probable space group: P 6/M C C
;
_chemical_formula_sum "Si O2"
_cell_formula_units_Z 120
_cell_length_a 27.821513
_cell_length_b 27.821513
_cell_length_c 10.385621
_cell_angle_alpha 90.000000
_cell_angle_beta 90.000000
_cell_angle_gamma 120.000000
_cell_volume 6961.848853
_symmetry_space_group_name_H-M "P 6/M C C"
_symmetry_group_IT_number 192
_symmetry_cell_setting 'hexagonal'
loop_
_space_group_symop_operation_xyz
x,y,z
x-y,x,z
-y,x-y,z
-x,-y,z
-x+y,-x,z
y,-x+y,z
x-y,-y,1/2-z
-x,-x+y,1/2-z
y,x,1/2-z
-y,-x,1/2-z
-x+y,y,1/2-z
x,x-y,1/2-z
-x,-y,-z
-x+y,-x,-z
y,-x+y,-z
x,y,-z
x-y,x,-z
-y,x-y,-z
-x+y,y,1/2+z
x,x-y,1/2+z
-y,-x,1/2+z
y,x,1/2+z
x-y,-y,1/2+z
-x,-x+y,1/2+z
loop_
_atom_site_type_symbol
_atom_site_label
_atom_site_fract_x
_atom_site_fract_y
_atom_site_fract_z
Si Si1 0.238552 0.362973 0.250000
Si Si2 0.896427 0.103572 0.000000
Si Si3 0.333852 0.780479 0.500000
Si Si4 0.301299 0.488460 0.250000
Si Si5 0.935463 0.231198 0.500000
Si Si6 0.333852 0.780479 0.000000
Si Si7 0.231198 0.935464 0.500000
Si Si8 0.131168 0.065584 0.250000
O O1 0.180523 0.361046 0.250000
O O2 0.289701 0.425780 0.250000
O O3 0.242910 0.333012 0.375478
O O4 0.242910 0.333011 0.124522
O O5 0.830566 0.074860 0.000000
O O6 0.925141 0.169434 0.000000
O O7 0.915273 0.084727 0.125383
O O8 0.336254 0.815974 0.375693
O O9 0.279396 0.720604 0.500000
O O10 0.385377 0.770755 0.500000
O O11 0.243524 0.487048 0.250000
O O12 0.336254 0.520280 0.375693
O O13 1.000000 0.274046 0.500000
O O14 0.092198 0.092198 0.250000
#
# Coordination Sequence:
#
# PCOD8329384 Si02
#       8
#    24  12  12  24  12  12  12  12
#     4  11  20  38  56  76 107 140 175 212 266 315
#     4  12  24  42  57  84 108 140 168 214 276 326
#     4  10  18  30  46  75 111 150 185 218 254 294
#     4   9  19  31  50  72 101 144 184 218 256 309
#     4  12  23  37  57  82 107 134 172 210 263 330
#     4  10  18  30  46  75 111 150 185 218 254 294
#     4  12  23  37  57  82 107 134 172 210 263 330
#     4  12  25  42  60  78 104 140 182 222 258 306
#
# _framework density 17.236801
#
# number of rings (size 3 to 8) (size 9 to 14) (size 15 to 20)
#    0.000    1.200    2.000    5.700    0.000    3.200 
#    0.000    3.000    0.000    0.000    0.000    0.000 
#    0.000   56.000    0.000    0.000    0.000    0.000 
#
# Total GULP energy -1488425.929098 kJ/mol
# GULP energy per Si atom -12403.549409 kJ/mol
# Density = 1.719757 g / cm^3
# Si number density = 17.236801 Si / 1000 Ang^3
#
#
#
# Elastic Constant Matrix: (Units=GPa)
#
#
# Indices 1 2 3 4 5 6 
#
# 1 230.9225 -69.4264 69.0987 0.0000 0.0000 0.0000
# 2 -69.4264 230.9225 69.0987 0.0000 0.0000 0.0000
# 3 69.0987 69.0987 195.0955 0.0000 0.0000 0.0000
# 4 0.0000 0.0000 0.0000 34.3931 0.0000 0.0000
# 5 0.0000 0.0000 0.0000 0.0000 34.3931 0.0000
# 6 0.0000 0.0000 0.0000 0.0000 0.0000 150.1745
#
#
#
# Elastic Compliance Matrix: (Units=1/GPa)
#
#
# Indices 1 2 3 4 5 6 
#
# 1 0.006107 0.002778 -0.003147 0.000000 0.000000 0.000000
# 2 0.002778 0.006107 -0.003147 0.000000 0.000000 0.000000
# 3 -0.003147 -0.003147 0.007355 0.000000 0.000000 0.000000
# 4 0.000000 0.000000 0.000000 0.029076 0.000000 0.000000
# 5 0.000000 0.000000 0.000000 0.000000 0.029076 0.000000
# 6 0.000000 0.000000 0.000000 0.000000 0.000000 0.006659
#
#
# Mechanical properties :
#
#
# Convention : Reuss Voigt Hill
#
# Bulk Modulus (GPa) = 79.76216 88.27584 84.01900
# Shear Modulus (GPa) = 52.30652 83.00345 67.65499
#
# Velocity S-wave (km/s) = 5.51468 6.94689 6.27180
# Velocity P-wave (km/s) = 9.32329 10.75502 10.06465
#
# Compressibility (1/GPa) = 0.01253727
#
# Stress axis : x y z
#
# Youngs Moduli (GPa) = 163.74075 163.74075 135.96564
#
# Poissons Ratio (x) = -0.45483 0.42787
# Poissons Ratio (y) = -0.45483 0.42787
# Poissons Ratio (z) = 0.51527 0.51527
#
# Static dielectric constant tensor:
#      x y z
#    x 3.214990 0.000000 0.000000 
#    y 0.000000 3.214990 0.000000 
#    z 0.000000 0.000000 3.561960 
# 
# 
# High freq. dielectric constant tensor:
#      x y z
#    x 1.654130 0.000000 0.000000 
#    y 0.000000 1.654130 0.000000 
#    z 0.000000 0.000000 1.694150 
# 
# From -- ./inp_files/1891.got.cif
#   From: 2010.03.12/outbox.cif.g09.slc.cpg/sg192_1_cif.got.tgz:1891.got - 2010.04.01 12:16:15.
