data_PCOD8329956
_publ_section_title
;
Structure prediction by ZEFSAII (Michael W. Deem and Ramdas Pophale) SiO2 
 PCOD8329956
Probable space group: P 63/M C M
;
_chemical_formula_sum "Si O2"
_cell_formula_units_Z 104
_cell_length_a 17.919050
_cell_length_b 17.919050
_cell_length_c 20.948939
_cell_angle_alpha 90.000000
_cell_angle_beta 90.000000
_cell_angle_gamma 120.000000
_cell_volume 5825.358083
_symmetry_space_group_name_H-M "P 63/M C M"
_symmetry_group_IT_number 193
_symmetry_cell_setting 'hexagonal'
loop_
_space_group_symop_operation_xyz
x,y,z
x-y,x,1/2+z
-y,x-y,z
-x,-y,1/2+z
-x+y,-x,z
y,-x+y,1/2+z
x-y,-y,1/2-z
-x,-x+y,1/2-z
y,x,1/2-z
-y,-x,-z
-x+y,y,-z
x,x-y,-z
-x,-y,-z
-x+y,-x,1/2-z
y,-x+y,-z
x,y,1/2-z
x-y,x,-z
-y,x-y,1/2-z
-x+y,y,1/2+z
x,x-y,1/2+z
-y,-x,1/2+z
y,x,z
x-y,-y,z
-x,-x+y,z
loop_
_atom_site_type_symbol
_atom_site_label
_atom_site_fract_x
_atom_site_fract_y
_atom_site_fract_z
Si Si1 0.299866 0.199611 0.879418
Si Si2 0.333334 0.666667 0.925180
Si Si3 0.494381 0.589452 0.250000
Si Si4 0.493885 0.211524 0.144923
Si Si5 0.201641 0.100821 0.500000
Si Si6 0.541514 0.850492 0.250000
Si Si7 0.829282 0.098094 0.250000
O O1 0.271717 0.271717 0.882602
O O2 0.402279 0.244638 0.890242
O O3 0.259579 0.132386 0.936851
O O4 0.266968 0.149369 0.812294
O O5 0.426844 0.742649 0.903439
O O6 0.333334 0.666667 0.000000
O O7 0.577988 0.577988 0.250000
O O8 0.495028 0.638928 0.312861
O O9 0.410336 0.495308 0.250000
O O10 0.494631 0.285425 0.187935
O O11 0.141366 0.141366 0.494063
O O12 0.644167 0.906604 0.250000
O O13 0.811504 0.000000 0.250000
#
# Coordination Sequence:
#
# PCOD8329956 Si02
#       7
#    24   8  12  24  12  12  12
#     4  10  21  37  58  83 115 152 186 232 290 346
#     4  12  24  37  59  79 114 165 205 245 286 339
#     4  11  19  31  58  85 110 139 181 243 300 344
#     4  10  21  36  56  81 113 148 196 234 284 347
#     4  10  21  38  62  86 112 148 192 236 285 346
#     4   9  18  32  53  77 110 142 177 233 290 327
#     4  10  19  33  55  82 113 143 181 226 280 351
#
# _framework density 17.852979999999999
#
# number of rings (size 3 to 8) (size 9 to 14) (size 15 to 20)
#    0.000    1.846    2.308    2.885    1.615    0.000 
#    0.000    0.000    0.000    6.000    0.000    0.000 
#    0.000    0.000    0.000    0.000    0.000    0.000 
#
# Total GULP energy -1289577.914838 kJ/mol
# GULP energy per Si atom -12399.787643 kJ/mol
# Density = 1.781235 g / cm^3
# Si number density = 17.852980 Si / 1000 Ang^3
#
#
#
# Elastic Constant Matrix: (Units=GPa)
#
#
# Indices 1 2 3 4 5 6 
#
# 1 101.1305 53.2146 54.1311 0.0000 0.0001 0.0000
# 2 53.2146 101.1307 54.1313 0.0000 0.0000 0.0001
# 3 54.1311 54.1313 137.6122 0.0000 0.0001 0.0000
# 4 0.0000 0.0000 0.0000 26.9541 0.0001 0.0000
# 5 0.0001 0.0000 0.0001 0.0001 26.9541 0.0000
# 6 0.0000 0.0001 0.0000 0.0000 0.0000 23.9581
#
#
#
# Elastic Compliance Matrix: (Units=1/GPa)
#
#
# Indices 1 2 3 4 5 6 
#
# 1 0.014909 -0.005961 -0.003520 0.000000 0.000000 0.000000
# 2 -0.005961 0.014909 -0.003520 0.000000 0.000000 0.000000
# 3 -0.003520 -0.003520 0.010036 0.000000 0.000000 0.000000
# 4 0.000000 0.000000 0.000000 0.037100 0.000000 0.000000
# 5 0.000000 0.000000 0.000000 0.000000 0.037100 0.000000
# 6 0.000000 0.000000 0.000000 0.000000 0.000000 0.041740
#
#
# Mechanical properties :
#
#
# Convention : Reuss Voigt Hill
#
# Bulk Modulus (GPa) = 72.18860 73.64747 72.91803
# Shear Modulus (GPa) = 26.82234 27.46634 27.14434
#
# Velocity S-wave (km/s) = 3.88029 3.92659 3.90351
# Velocity P-wave (km/s) = 7.78449 7.86761 7.82616
#
# Compressibility (1/GPa) = 0.01385260
#
# Stress axis : x y z
#
# Youngs Moduli (GPa) = 67.07435 67.07437 99.64291
#
# Poissons Ratio (x) = 0.39983 0.35071
# Poissons Ratio (y) = 0.39983 0.35072
# Poissons Ratio (z) = 0.23608 0.23608
#
# Static dielectric constant tensor:
#      x y z
#    x 3.308750 0.000000 -0.000010 
#    y 0.000000 3.308740 0.000000 
#    z -0.000010 0.000000 3.212060 
# 
# 
# High freq. dielectric constant tensor:
#      x y z
#    x 1.698890 0.000000 0.000000 
#    y 0.000000 1.698890 0.000000 
#    z 0.000000 0.000000 1.680800 
# 
# From -- ./inp_files/6379.got.cif
#   From: 2010.03.12/outbox.cif.g09.slc.cpg/sg193_4_cif.got.tgz:6379.got - 2010.04.01 12:20:39.
