data_PCOD8329006
_publ_section_title
;
Structure prediction by ZEFSAII (Michael W. Deem and Ramdas Pophale) SiO2 
 PCOD8329006
Probable space group: P 6/M M M
;
_chemical_formula_sum "Si O2"
_cell_formula_units_Z 120
_cell_length_a 17.845678
_cell_length_b 17.845678
_cell_length_c 25.739825
_cell_angle_alpha 90.000000
_cell_angle_beta 90.000000
_cell_angle_gamma 120.000000
_cell_volume 7099.084189
_symmetry_space_group_name_H-M "P 6/M M M"
_symmetry_group_IT_number 191
_symmetry_cell_setting 'hexagonal'
loop_
_space_group_symop_operation_xyz
x,y,z
x-y,x,z
-y,x-y,z
-x,-y,z
-x+y,-x,z
y,-x+y,z
x-y,-y,-z
-x,-x+y,-z
y,x,-z
-y,-x,-z
-x+y,y,-z
x,x-y,-z
-x,-y,-z
-x+y,-x,-z
y,-x+y,-z
x,y,-z
x-y,x,-z
-y,x-y,-z
-x+y,y,z
x,x-y,z
-y,-x,z
y,x,z
x-y,-y,z
-x,-x+y,z
loop_
_atom_site_type_symbol
_atom_site_label
_atom_site_fract_x
_atom_site_fract_y
_atom_site_fract_z
Si Si1 0.159885 0.491863 0.148967
Si Si2 0.633996 0.733356 0.757576
Si Si3 0.902683 0.265293 0.059591
Si Si4 0.366936 0.900166 0.663834
Si Si5 0.506395 0.837671 0.555865
O O1 0.260957 0.521914 0.154067
O O2 0.147290 0.573645 0.155005
O O3 0.104334 0.422785 0.193032
O O4 0.122343 0.447361 0.093495
O O5 0.673923 0.836962 0.764890
O O6 0.711404 0.711404 0.750765
O O7 0.570331 0.706326 0.707738
O O8 0.836322 0.163679 0.071862
O O9 0.000000 0.285923 0.072311
O O10 0.894827 0.287121 0.000000
O O11 0.427999 0.855997 0.667442
O O12 0.322903 0.886133 0.606591
O O13 0.426798 0.000000 0.674840
O O14 0.556531 0.872488 0.500000
O O15 0.426565 0.853129 0.555118
O O16 0.472654 0.736327 0.561383
#
# Coordination Sequence:
#
# PCOD8329006 Si02
#       5
#    24  24  24  24  24
#     4  10  20  33  49  70  96 125 155 186 220 258
#     4  10  20  33  49  68  90 116 146 181 222 267
#     4   9  18  32  49  69  93 122 156 193 233 275
#     4   9  17  28  42  61  84 110 141 176 214 258
#     4   9  16  25  37  53  75 105 141 178 212 246
#
# _framework density 16.903589
#
# number of rings (size 3 to 8) (size 9 to 14) (size 15 to 20)
#    0.000    2.600    0.000    2.200    0.000    4.000 
#    0.000    3.000    0.000    8.000    0.000    1.400 
#    0.000    4.800    0.000    0.200    0.000    0.000 
#
# Total GULP energy -1486960.710775 kJ/mol
# GULP energy per Si atom -12391.339256 kJ/mol
# Density = 1.686512 g / cm^3
# Si number density = 16.903589 Si / 1000 Ang^3
#
#
#
# Elastic Constant Matrix: (Units=GPa)
#
#
# Indices 1 2 3 4 5 6 
#
# 1 69.7693 42.5901 31.0848 0.0000 0.0000 0.0000
# 2 42.5901 69.7693 31.0848 0.0000 0.0000 0.0000
# 3 31.0848 31.0848 104.4412 0.0000 0.0000 0.0000
# 4 0.0000 0.0000 0.0000 17.7389 0.0000 0.0000
# 5 0.0000 0.0000 0.0000 0.0000 17.7389 0.0000
# 6 0.0000 0.0000 0.0000 0.0000 0.0000 13.5896
#
#
#
# Elastic Compliance Matrix: (Units=1/GPa)
#
#
# Indices 1 2 3 4 5 6 
#
# 1 0.023724 -0.013069 -0.003171 0.000000 0.000000 0.000000
# 2 -0.013069 0.023724 -0.003171 0.000000 0.000000 0.000000
# 3 -0.003171 -0.003171 0.011462 0.000000 0.000000 0.000000
# 4 0.000000 0.000000 0.000000 0.056373 0.000000 0.000000
# 5 0.000000 0.000000 0.000000 0.000000 0.056373 0.000000
# 6 0.000000 0.000000 0.000000 0.000000 0.000000 0.073586
#
#
# Mechanical properties :
#
#
# Convention : Reuss Voigt Hill
#
# Bulk Modulus (GPa) = 49.78310 50.38881 50.08595
# Shear Modulus (GPa) = 17.19628 19.09481 18.14555
#
# Velocity S-wave (km/s) = 3.19300 3.36464 3.27994
# Velocity P-wave (km/s) = 6.56573 6.70587 6.63617
#
# Compressibility (1/GPa) = 0.02008714
#
# Stress axis : x y z
#
# Youngs Moduli (GPa) = 42.15194 42.15194 87.24163
#
# Poissons Ratio (x) = 0.55089 0.27666
# Poissons Ratio (y) = 0.55089 0.27666
# Poissons Ratio (z) = 0.13367 0.13367
#
# Static dielectric constant tensor:
#      x y z
#    x 3.000520 0.000000 0.000000 
#    y 0.000000 3.000520 0.000000 
#    z 0.000000 0.000000 3.666160 
# 
# 
# High freq. dielectric constant tensor:
#      x y z
#    x 1.623060 0.000000 0.000000 
#    y 0.000000 1.623060 0.000000 
#    z 0.000000 0.000000 1.679120 
# 
# From -- ./inp_files/10291.got.cif
#   From: 2010.03.12/outbox.cif.g09.slc.cpg/sg191_6_cif.got.tgz:10291.got - 2010.04.01 12:09:02.
