data_PCOD8329074
_publ_section_title
;
Structure prediction by ZEFSAII (Michael W. Deem and Ramdas Pophale) SiO2 
 PCOD8329074
Probable space group: P 6/M M M
;
_chemical_formula_sum "Si O2"
_cell_formula_units_Z 78
_cell_length_a 25.468043
_cell_length_b 25.468043
_cell_length_c 7.380341
_cell_angle_alpha 90.000000
_cell_angle_beta 90.000000
_cell_angle_gamma 120.000000
_cell_volume 4145.703221
_symmetry_space_group_name_H-M "P 6/M M M"
_symmetry_group_IT_number 191
_symmetry_cell_setting 'hexagonal'
loop_
_space_group_symop_operation_xyz
x,y,z
x-y,x,z
-y,x-y,z
-x,-y,z
-x+y,-x,z
y,-x+y,z
x-y,-y,-z
-x,-x+y,-z
y,x,-z
-y,-x,-z
-x+y,y,-z
x,x-y,-z
-x,-y,-z
-x+y,-x,-z
y,-x+y,-z
x,y,-z
x-y,x,-z
-y,x-y,-z
-x+y,y,z
x,x-y,z
-y,-x,z
y,x,z
x-y,-y,z
-x,-x+y,z
loop_
_atom_site_type_symbol
_atom_site_label
_atom_site_fract_x
_atom_site_fract_y
_atom_site_fract_z
Si Si1 0.562359 0.630573 0.714088
Si Si2 0.627456 0.254911 0.000000
Si Si3 0.250085 0.066836 0.000000
Si Si4 0.850028 0.425014 0.715944
Si Si5 0.349875 0.115646 0.291286
O O1 0.562490 0.626138 0.500000
O O2 0.591963 0.591963 0.795670
O O3 0.494274 0.605022 0.782131
O O4 0.599846 0.700013 0.779576
O O5 0.701094 0.298907 0.000000
O O6 0.607054 0.214108 0.181257
O O7 0.289307 0.076068 0.178884
O O8 0.222992 0.111496 0.000000
O O9 0.192949 0.000000 0.000000
O O10 0.837511 0.418756 0.500000
O O11 0.333592 0.096933 0.500000
O O12 0.374693 0.187347 0.261575
#
# Coordination Sequence:
#
# PCOD8329074 Si02
#       5
#    24   6  12  12  24
#     4   9  17  31  53  81 112 142 173 213 259 310
#     4  10  26  46  59  78 102 126 172 234 282 322
#     4  10  20  33  51  75 102 134 172 208 248 298
#     4  10  21  38  60  80 102 138 176 214 268 328
#     4   9  18  32  50  75 106 139 173 209 252 301
#
# _framework density 18.814661999999998
#
# number of rings (size 3 to 8) (size 9 to 14) (size 15 to 20)
#    0.154    2.462    0.000    1.385    0.000    6.769 
#    0.000    7.692    0.000    0.154    0.000    0.000 
#    0.000    0.000    0.000    7.692    0.000    0.000 
#
# Total GULP energy -966972.882337 kJ/mol
# GULP energy per Si atom -12397.088235 kJ/mol
# Density = 1.877184 g / cm^3
# Si number density = 18.814662 Si / 1000 Ang^3
#
#
#
# Elastic Constant Matrix: (Units=GPa)
#
#
# Indices 1 2 3 4 5 6 
#
# 1 155.3207 93.7216 37.6672 0.0000 0.0000 0.0000
# 2 93.7216 155.3207 37.6672 0.0000 0.0000 0.0000
# 3 37.6672 37.6672 71.3678 0.0000 0.0000 0.0000
# 4 0.0000 0.0000 0.0000 13.3858 0.0000 0.0000
# 5 0.0000 0.0000 0.0000 0.0000 13.3858 0.0000
# 6 0.0000 0.0000 0.0000 0.0000 0.0000 30.7995
#
#
#
# Elastic Compliance Matrix: (Units=1/GPa)
#
#
# Indices 1 2 3 4 5 6 
#
# 1 0.010506 -0.005728 -0.002522 0.000000 0.000000 0.000000
# 2 -0.005728 0.010506 -0.002522 0.000000 0.000000 0.000000
# 3 -0.002522 -0.002522 0.016674 0.000000 0.000000 0.000000
# 4 0.000000 0.000000 0.000000 0.074706 0.000000 0.000000
# 5 0.000000 0.000000 0.000000 0.000000 0.074706 0.000000
# 6 0.000000 0.000000 0.000000 0.000000 0.000000 0.032468
#
#
# Mechanical properties :
#
#
# Convention : Reuss Voigt Hill
#
# Bulk Modulus (GPa) = 61.94694 80.01348 70.98021
# Shear Modulus (GPa) = 20.28471 25.71110 22.99790
#
# Velocity S-wave (km/s) = 3.28706 3.70069 3.49999
# Velocity P-wave (km/s) = 6.88496 7.80254 7.35807
#
# Compressibility (1/GPa) = 0.01614285
#
# Stress axis : x y z
#
# Youngs Moduli (GPa) = 95.18252 95.18252 59.97365
#
# Poissons Ratio (x) = 0.54519 0.15125
# Poissons Ratio (y) = 0.54519 0.15125
# Poissons Ratio (z) = 0.24004 0.24004
#
# Static dielectric constant tensor:
#      x y z
#    x 3.499870 0.000000 0.000000 
#    y 0.000000 3.499870 0.000000 
#    z 0.000000 0.000000 3.364540 
# 
# 
# High freq. dielectric constant tensor:
#      x y z
#    x 1.722220 0.000000 0.000000 
#    y 0.000000 1.722220 0.000000 
#    z 0.000000 0.000000 1.733200 
# 
# From -- ./inp_files/1099.got.cif
#   From: 2010.03.12/outbox.cif.g09.slc.cpg/sg191_1_cif.got.tgz:1099.got - 2010.04.01 12:09:02.
