data_PCOD8329289
_publ_section_title
;
Structure prediction by ZEFSAII (Michael W. Deem and Ramdas Pophale) SiO2 
 PCOD8329289
Probable space group: P 6/M M M
;
_chemical_formula_sum "Si O2"
_cell_formula_units_Z 84
_cell_length_a 26.618207
_cell_length_b 26.618207
_cell_length_c 9.702689
_cell_angle_alpha 90.000000
_cell_angle_beta 90.000000
_cell_angle_gamma 120.000000
_cell_volume 5953.609409
_symmetry_space_group_name_H-M "P 6/M M M"
_symmetry_group_IT_number 191
_symmetry_cell_setting 'hexagonal'
loop_
_space_group_symop_operation_xyz
x,y,z
x-y,x,z
-y,x-y,z
-x,-y,z
-x+y,-x,z
y,-x+y,z
x-y,-y,-z
-x,-x+y,-z
y,x,-z
-y,-x,-z
-x+y,y,-z
x,x-y,-z
-x,-y,-z
-x+y,-x,-z
y,-x+y,-z
x,y,-z
x-y,x,-z
-y,x-y,-z
-x+y,y,z
x,x-y,z
-y,-x,z
y,x,z
x-y,-y,z
-x,-x+y,z
loop_
_atom_site_type_symbol
_atom_site_label
_atom_site_fract_x
_atom_site_fract_y
_atom_site_fract_z
Si Si1 0.265073 0.333878 0.346475
Si Si2 0.465351 0.534650 0.843885
Si Si3 0.623765 0.554765 0.655076
Si Si4 0.934672 0.757902 0.840941
O O1 0.240565 0.331716 0.500000
O O2 0.300445 0.300445 0.344591
O O3 0.309187 0.400710 0.303317
O O4 0.211828 0.302595 0.241149
O O5 0.500000 0.500000 0.844167
O O6 0.404096 0.497764 0.764312
O O7 0.453345 0.546656 0.000000
O O8 0.620855 0.530753 0.500000
O O9 0.588035 0.588035 0.657971
O O10 0.891933 0.783865 0.814053
O O11 0.000000 0.805686 0.793625
O O12 0.934500 0.742125 0.000000
#
# Coordination Sequence:
#
# PCOD8329289 Si02
#       4
#    24  12  24  24
#     4   8  14  24  37  52  68  87 113 144 176 210
#     4   9  15  19  25  41  63  87 117 149 173 191
#     4   8  13  21  31  42  60  87 115 142 172 201
#     4   9  17  28  41  56  73  92 113 141 182 232
#
# _framework density 14.109087000000001
#
# number of rings (size 3 to 8) (size 9 to 14) (size 15 to 20)
#    0.000    3.571    0.000    2.143    0.000    3.429 
#    0.000    5.714    0.000    0.286    0.000    2.000 
#    0.000    0.000    0.000    7.143    0.000    7.429 
#
# Total GULP energy -1040691.480855 kJ/mol
# GULP energy per Si atom -12389.184296 kJ/mol
# Density = 1.407697 g / cm^3
# Si number density = 14.109087 Si / 1000 Ang^3
#
#
#
# Elastic Constant Matrix: (Units=GPa)
#
#
# Indices 1 2 3 4 5 6 
#
# 1 61.0399 33.9260 40.5984 0.0000 0.0000 0.0000
# 2 33.9260 61.0399 40.5984 0.0000 0.0000 0.0000
# 3 40.5984 40.5984 81.2190 0.0000 0.0000 0.0000
# 4 0.0000 0.0000 0.0000 15.8971 0.0000 0.0000
# 5 0.0000 0.0000 0.0000 0.0000 15.8971 0.0000
# 6 0.0000 0.0000 0.0000 0.0000 0.0000 13.5569
#
#
#
# Elastic Compliance Matrix: (Units=1/GPa)
#
#
# Indices 1 2 3 4 5 6 
#
# 1 0.027636 -0.009246 -0.009192 0.000000 0.000000 0.000000
# 2 -0.009246 0.027636 -0.009192 0.000000 0.000000 0.000000
# 3 -0.009192 -0.009192 0.021502 0.000000 0.000000 0.000000
# 4 0.000000 0.000000 0.000000 0.062904 0.000000 0.000000
# 5 0.000000 0.000000 0.000000 0.000000 0.062904 0.000000
# 6 0.000000 0.000000 0.000000 0.000000 0.000000 0.073763
#
#
# Mechanical properties :
#
#
# Convention : Reuss Voigt Hill
#
# Bulk Modulus (GPa) = 46.48524 48.17162 47.32843
# Shear Modulus (GPa) = 14.75897 14.94863 14.85380
#
# Velocity S-wave (km/s) = 3.23780 3.25853 3.24818
# Velocity P-wave (km/s) = 6.85539 6.95513 6.90544
#
# Compressibility (1/GPa) = 0.02151221
#
# Stress axis : x y z
#
# Youngs Moduli (GPa) = 36.18527 36.18527 46.50697
#
# Poissons Ratio (x) = 0.33457 0.42751
# Poissons Ratio (y) = 0.33457 0.42751
# Poissons Ratio (z) = 0.33263 0.33263
#
# Static dielectric constant tensor:
#      x y z
#    x 2.645870 0.000000 0.000000 
#    y 0.000000 2.645870 0.000000 
#    z 0.000000 0.000000 2.992910 
# 
# 
# High freq. dielectric constant tensor:
#      x y z
#    x 1.498460 0.000000 0.000000 
#    y 0.000000 1.498460 0.000000 
#    z 0.000000 0.000000 1.546340 
# 
# From -- ./inp_files/2630.got.cif
#   From: 2010.03.12/outbox.cif.g09.slc.cpg/sg191_2_cif.got.tgz:2630.got - 2010.04.01 12:09:02.
