data_PCOD8329490
_publ_section_title
;
Structure prediction by ZEFSAII (Michael W. Deem and Ramdas Pophale) SiO2 
 PCOD8329490
Probable space group: P 6/M C C
;
_chemical_formula_sum "Si O2"
_cell_formula_units_Z 104
_cell_length_a 18.808953
_cell_length_b 18.808953
_cell_length_c 17.179938
_cell_angle_alpha 90.000000
_cell_angle_beta 90.000000
_cell_angle_gamma 120.000000
_cell_volume 5263.582888
_symmetry_space_group_name_H-M "P 6/M C C"
_symmetry_group_IT_number 192
_symmetry_cell_setting 'hexagonal'
loop_
_space_group_symop_operation_xyz
x,y,z
x-y,x,z
-y,x-y,z
-x,-y,z
-x+y,-x,z
y,-x+y,z
x-y,-y,1/2-z
-x,-x+y,1/2-z
y,x,1/2-z
-y,-x,1/2-z
-x+y,y,1/2-z
x,x-y,1/2-z
-x,-y,-z
-x+y,-x,-z
y,-x+y,-z
x,y,-z
x-y,x,-z
-y,x-y,-z
-x+y,y,1/2+z
x,x-y,1/2+z
-y,-x,1/2+z
y,x,1/2+z
x-y,-y,1/2+z
-x,-x+y,1/2+z
loop_
_atom_site_type_symbol
_atom_site_label
_atom_site_fract_x
_atom_site_fract_y
_atom_site_fract_z
Si Si1 0.492364 0.206105 0.907578
Si Si2 0.894013 0.255391 0.592770
Si Si3 0.666668 0.333334 0.158463
Si Si4 0.125753 0.944272 0.907165
Si Si5 0.023590 0.434413 0.592638
O O1 0.429336 0.234073 0.876935
O O2 0.580684 0.261718 0.871581
O O3 0.458787 0.113758 0.878231
O O4 0.500796 0.212664 0.000000
O O5 0.895319 0.254883 0.500000
O O6 0.916129 0.188359 0.624984
O O7 0.959804 0.344588 0.625688
O O8 0.666668 0.333334 0.250000
O O9 0.035042 0.881405 0.875338
O O10 0.125843 0.944370 0.000000
O O11 0.019916 0.433082 0.500000
O O12 0.000000 0.500000 0.625886
#
# Coordination Sequence:
#
# PCOD8329490 Si02
#       5
#    24  24   8  24  24
#     4  10  19  33  54  75  97 130 168 204 246 296
#     4   9  16  26  43  69  96 122 161 211 251 285
#     4  12  25  38  52  72 100 128 157 201 250 299
#     4   9  15  22  33  55  93 137 171 197 235 290
#     4   9  16  26  43  69  96 120 156 209 255 289
#
# _framework density 19.758403999999999
#
# number of rings (size 3 to 8) (size 9 to 14) (size 15 to 20)
#    0.000    2.538    0.000    3.692    0.000   10.154 
#    0.000    0.000    0.000    6.231    0.000    0.000 
#    0.000    0.000    0.000    0.000    0.000    6.231 
#
# Total GULP energy -1289641.472602 kJ/mol
# GULP energy per Si atom -12400.398775 kJ/mol
# Density = 1.971343 g / cm^3
# Si number density = 19.758404 Si / 1000 Ang^3
#
#
#
# Elastic Constant Matrix: (Units=GPa)
#
#
# Indices 1 2 3 4 5 6 
#
# 1 171.1199 69.3608 19.0033 -0.0002 -0.0005 -0.0005
# 2 69.3608 171.1133 19.0033 -0.0001 -0.0005 -0.0006
# 3 19.0033 19.0033 10.7921 -0.0001 0.0000 0.0000
# 4 -0.0002 -0.0001 -0.0001 -0.2563 0.0001 0.0000
# 5 -0.0005 -0.0005 0.0000 0.0001 -0.2564 0.0000
# 6 -0.0005 -0.0006 0.0000 0.0000 0.0000 50.8775
#
#
#
# Elastic Compliance Matrix: (Units=1/GPa)
#
#
# Indices 1 2 3 4 5 6 
#
# 1 0.007794 -0.002033 -0.010146 -0.000002 -0.000012 0.000000
# 2 -0.002033 0.007795 -0.010146 0.000002 -0.000014 0.000000
# 3 -0.010146 -0.010146 0.128391 -0.000039 0.000057 0.000000
# 4 -0.000002 0.000002 -0.000039 -3.902086 -0.001940 0.000002
# 5 -0.000012 -0.000014 0.000057 -0.001940 -3.899772 0.000003
# 6 0.000000 0.000000 0.000000 0.000002 0.000003 0.019655
#
#
# Mechanical properties :
#
#
# Convention : Reuss Voigt Hill
#
# Bulk Modulus (GPa) = 10.06730 63.08445 36.57588
# Shear Modulus (GPa) = -0.66134 26.45016 12.89441
#
# Velocity S-wave (km/s) = -0.57917 3.66277 2.55738
# Velocity P-wave (km/s) = 2.15847 7.06293 5.22226
#
# Compressibility (1/GPa) = 0.09933145
#
# Stress axis : x y z
#
# Youngs Moduli (GPa) = 128.29572 128.28955 7.78871
#
# Poissons Ratio (x) = 0.26078 0.07902
# Poissons Ratio (y) = 0.26080 0.07903
# Poissons Ratio (z) = 1.30163 1.30165
#
# Static dielectric constant tensor:
#      x y z
#    x 3.883800 0.000000 0.000000 
#    y 0.000000 3.883810 0.000000 
#    z 0.000000 0.000000 2.732870 
# 
# 
# High freq. dielectric constant tensor:
#      x y z
#    x 1.792870 0.000000 0.000000 
#    y 0.000000 1.792870 0.000000 
#    z 0.000000 0.000000 1.680660 
# 
# From -- ./inp_files/4881.got.cif
#   From: 2010.03.12/outbox.cif.g09.slc.cpg/sg192_3_cif.got.tgz:4881.got - 2010.04.01 12:16:15.
