data_PCOD8329414
_publ_section_title
;
Structure prediction by ZEFSAII (Michael W. Deem and Ramdas Pophale) SiO2 
 PCOD8329414
Probable space group: P 6/M C C
;
_chemical_formula_sum "Si O2"
_cell_formula_units_Z 168
_cell_length_a 30.242565
_cell_length_b 30.242565
_cell_length_c 14.507479
_cell_angle_alpha 90.000000
_cell_angle_beta 90.000000
_cell_angle_gamma 120.000000
_cell_volume 11491.053001
_symmetry_space_group_name_H-M "P 6/M C C"
_symmetry_group_IT_number 192
_symmetry_cell_setting 'hexagonal'
loop_
_space_group_symop_operation_xyz
x,y,z
x-y,x,z
-y,x-y,z
-x,-y,z
-x+y,-x,z
y,-x+y,z
x-y,-y,1/2-z
-x,-x+y,1/2-z
y,x,1/2-z
-y,-x,1/2-z
-x+y,y,1/2-z
x,x-y,1/2-z
-x,-y,-z
-x+y,-x,-z
y,-x+y,-z
x,y,-z
x-y,x,-z
-y,x-y,-z
-x+y,y,1/2+z
x,x-y,1/2+z
-y,-x,1/2+z
y,x,1/2+z
x-y,-y,1/2+z
-x,-x+y,1/2+z
loop_
_atom_site_type_symbol
_atom_site_label
_atom_site_fract_x
_atom_site_fract_y
_atom_site_fract_z
Si Si1 0.562209 0.333536 0.750000
Si Si2 0.811821 0.292790 0.102956
Si Si3 0.943023 0.155650 0.393661
Si Si4 0.601248 0.852792 0.750000
Si Si5 0.058390 0.771346 0.750000
Si Si6 0.787373 0.943023 0.106339
Si Si7 0.480969 0.188179 0.397044
O O1 0.616250 0.383751 0.750000
O O2 0.570451 0.285226 0.750000
O O3 0.531115 0.333297 0.659012
O O4 0.531115 0.333297 0.840988
O O5 0.851044 0.281320 0.158878
O O6 0.758904 0.241096 0.095997
O O7 0.833075 0.313634 0.000000
O O8 0.939158 0.166564 0.500000
O O9 0.929295 0.193252 0.339669
O O10 0.903185 0.096815 0.368020
O O11 1.000000 0.167302 0.367350
O O12 0.613284 0.806642 0.750000
O O13 0.652584 0.906609 0.750000
O O14 0.569724 0.851044 0.658878
O O15 0.070705 0.806749 0.839669
O O16 0.000000 0.725861 0.750000
O O17 0.772593 0.939158 0.000000
O O18 0.480559 0.166924 0.500000
#
# Coordination Sequence:
#
# PCOD8329414 Si02
#       7
#    24  24  24  24  24  24  24
#     4   9  16  25  38  58  85 115 144 170 195 224
#     4   8  15  27  40  55  77 105 137 171 201 228
#     4   9  17  28  41  57  78 104 132 162 197 237
#     4   9  16  26  41  58  75 101 136 165 192 234
#     4  10  19  29  41  60  84 104 126 160 202 248
#     4   9  17  28  41  57  78 104 132 162 197 237
#     4   8  15  27  40  55  77 105 137 171 201 228
#
# _framework density 14.62007
#
# number of rings (size 3 to 8) (size 9 to 14) (size 15 to 20)
#    0.000    3.143    0.000    3.143    0.000    1.714 
#    0.000    2.857    0.000    2.000    0.000    2.000 
#    0.000   12.571    0.000   10.571    0.000    0.000 
#
# Total GULP energy -2082193.611550 kJ/mol
# GULP energy per Si atom -12394.009593 kJ/mol
# Density = 1.458679 g / cm^3
# Si number density = 14.620070 Si / 1000 Ang^3
#
#
#
# Elastic Constant Matrix: (Units=GPa)
#
#
# Indices 1 2 3 4 5 6 
#
# 1 90.5200 45.5674 43.9538 0.0000 0.0000 0.0000
# 2 45.5674 90.5200 43.9538 0.0000 0.0000 0.0000
# 3 43.9538 43.9538 117.0374 0.0000 0.0000 0.0000
# 4 0.0000 0.0000 0.0000 12.9113 0.0000 0.0000
# 5 0.0000 0.0000 0.0000 0.0000 12.9113 0.0000
# 6 0.0000 0.0000 0.0000 0.0000 0.0000 22.4763
#
#
#
# Elastic Compliance Matrix: (Units=1/GPa)
#
#
# Indices 1 2 3 4 5 6 
#
# 1 0.015974 -0.006272 -0.003644 0.000000 0.000000 0.000000
# 2 -0.006272 0.015974 -0.003644 0.000000 0.000000 0.000000
# 3 -0.003644 -0.003644 0.011281 0.000000 0.000000 0.000000
# 4 0.000000 0.000000 0.000000 0.077452 0.000000 0.000000
# 5 0.000000 0.000000 0.000000 0.000000 0.077452 0.000000
# 6 0.000000 0.000000 0.000000 0.000000 0.000000 0.044491
#
#
# Mechanical properties :
#
#
# Convention : Reuss Voigt Hill
#
# Bulk Modulus (GPa) = 62.07167 62.78083 62.42625
# Shear Modulus (GPa) = 18.17447 20.63328 19.40387
#
# Velocity S-wave (km/s) = 3.52961 3.76080 3.64704
# Velocity P-wave (km/s) = 7.69152 7.86721 7.77986
#
# Compressibility (1/GPa) = 0.01611041
#
# Stress axis : x y z
#
# Youngs Moduli (GPa) = 62.60283 62.60283 88.64483
#
# Poissons Ratio (x) = 0.39264 0.32298
# Poissons Ratio (y) = 0.39264 0.32298
# Poissons Ratio (z) = 0.22810 0.22810
#
# Static dielectric constant tensor:
#      x y z
#    x 2.633050 0.000000 0.000000 
#    y 0.000000 2.633050 0.000000 
#    z 0.000000 0.000000 3.362190 
# 
# 
# High freq. dielectric constant tensor:
#      x y z
#    x 1.531020 0.000000 0.000000 
#    y 0.000000 1.531020 0.000000 
#    z 0.000000 0.000000 1.577870 
# 
# From -- ./inp_files/3528.got.cif
#   From: 2010.03.12/outbox.cif.g09.slc.cpg/sg192_2_cif.got.tgz:3528.got - 2010.04.01 12:16:15.
