data_PCOD8329814
_publ_section_title
;
Structure prediction by ZEFSAII (Michael W. Deem and Ramdas Pophale) SiO2 
 PCOD8329814
Probable space group: P 63/M C M
;
_chemical_formula_sum "Si O2"
_cell_formula_units_Z 96
_cell_length_a 17.162251
_cell_length_b 17.162251
_cell_length_c 19.838284
_cell_angle_alpha 90.000000
_cell_angle_beta 90.000000
_cell_angle_gamma 120.000000
_cell_volume 5060.381199
_symmetry_space_group_name_H-M "P 63/M C M"
_symmetry_group_IT_number 193
_symmetry_cell_setting 'hexagonal'
loop_
_space_group_symop_operation_xyz
x,y,z
x-y,x,1/2+z
-y,x-y,z
-x,-y,1/2+z
-x+y,-x,z
y,-x+y,1/2+z
x-y,-y,1/2-z
-x,-x+y,1/2-z
y,x,1/2-z
-y,-x,-z
-x+y,y,-z
x,x-y,-z
-x,-y,-z
-x+y,-x,1/2-z
y,-x+y,-z
x,y,1/2-z
x-y,x,-z
-y,x-y,1/2-z
-x+y,y,1/2+z
x,x-y,1/2+z
-y,-x,1/2+z
y,x,z
x-y,-y,z
-x,-x+y,z
loop_
_atom_site_type_symbol
_atom_site_label
_atom_site_fract_x
_atom_site_fract_y
_atom_site_fract_z
Si Si1 0.598443 0.498173 0.095749
Si Si2 0.895023 0.251725 0.175220
Si Si3 0.480480 0.162209 0.962074
Si Si4 0.181362 0.895990 0.571844
O O1 0.526225 0.526225 0.121633
O O2 0.689733 0.543598 0.141397
O O3 0.552919 0.389046 0.091897
O O4 0.627693 0.537417 0.020485
O O5 0.853409 0.219927 0.250000
O O6 0.882245 0.166130 0.131957
O O7 0.000000 0.319471 0.179693
O O8 0.386930 0.124480 0.924183
O O9 0.516360 0.258180 0.000000
O O10 0.131198 0.868803 0.500000
O O11 0.214320 0.000000 0.586515
#
# Coordination Sequence:
#
# PCOD8329814 Si02
#       4
#    24  24  24  24
#     4  10  18  33  53  78 109 144 185 229 273 325
#     4  10  21  38  59  81 109 149 193 235 284 342
#     4  10  18  30  52  85 113 141 180 231 277 324
#     4  11  20  34  57  88 116 144 185 236 288 342
#
# _framework density 18.970903
#
# number of rings (size 3 to 8) (size 9 to 14) (size 15 to 20)
#    0.000    1.750    5.000    3.750    0.000    0.500 
#    6.000    1.250    0.000    7.500    0.000    0.000 
#    0.000    0.000    0.000    0.000    0.000    0.000 
#
# Total GULP energy -1189331.161758 kJ/mol
# GULP energy per Si atom -12388.866268 kJ/mol
# Density = 1.892772 g / cm^3
# Si number density = 18.970903 Si / 1000 Ang^3
#
#
#
# Elastic Constant Matrix: (Units=GPa)
#
#
# Indices 1 2 3 4 5 6 
#
# 1 86.3898 30.2236 27.7833 0.0000 0.0000 0.0000
# 2 30.2236 86.3898 27.7833 0.0000 0.0000 0.0000
# 3 27.7833 27.7833 109.9831 0.0000 0.0000 0.0000
# 4 0.0000 0.0000 0.0000 20.0267 0.0000 0.0000
# 5 0.0000 0.0000 0.0000 0.0000 20.0267 0.0000
# 6 0.0000 0.0000 0.0000 0.0000 0.0000 28.0831
#
#
#
# Elastic Compliance Matrix: (Units=1/GPa)
#
#
# Indices 1 2 3 4 5 6 
#
# 1 0.013777 -0.004028 -0.002463 0.000000 0.000000 0.000000
# 2 -0.004028 0.013777 -0.002463 0.000000 0.000000 0.000000
# 3 -0.002463 -0.002463 0.010337 0.000000 0.000000 0.000000
# 4 0.000000 0.000000 0.000000 0.049933 0.000000 0.000000
# 5 0.000000 0.000000 0.000000 0.000000 0.049933 0.000000
# 6 0.000000 0.000000 0.000000 0.000000 0.000000 0.035609
#
#
# Mechanical properties :
#
#
# Convention : Reuss Voigt Hill
#
# Bulk Modulus (GPa) = 50.04152 50.48257 50.26204
# Shear Modulus (GPa) = 25.26118 26.75882 26.01000
#
# Velocity S-wave (km/s) = 3.65303 3.75976 3.70678
# Velocity P-wave (km/s) = 6.65043 6.74656 6.69866
#
# Compressibility (1/GPa) = 0.01998341
#
# Stress axis : x y z
#
# Youngs Moduli (GPa) = 72.58709 72.58709 96.74429
#
# Poissons Ratio (x) = 0.29236 0.23825
# Poissons Ratio (y) = 0.29236 0.23825
# Poissons Ratio (z) = 0.17876 0.17876
#
# Static dielectric constant tensor:
#      x y z
#    x 3.470900 0.000000 0.000000 
#    y 0.000000 3.470900 0.000000 
#    z 0.000000 0.000000 3.533460 
# 
# 
# High freq. dielectric constant tensor:
#      x y z
#    x 1.725850 0.000000 0.000000 
#    y 0.000000 1.725850 0.000000 
#    z 0.000000 0.000000 1.706820 
# 
# From -- ./inp_files/6125.got.cif
#   From: 2010.03.12/outbox.cif.g09.slc.cpg/sg193_4_cif.got.tgz:6125.got - 2010.04.01 12:20:39.
