data_PCOD8329237
_publ_section_title
;
Structure prediction by ZEFSAII (Michael W. Deem and Ramdas Pophale) SiO2 
 PCOD8329237
Probable space group: P 6/M M M
;
_chemical_formula_sum "Si O2"
_cell_formula_units_Z 36
_cell_length_a 17.310425
_cell_length_b 17.310425
_cell_length_c 7.075321
_cell_angle_alpha 90.000000
_cell_angle_beta 90.000000
_cell_angle_gamma 120.000000
_cell_volume 1836.082711
_symmetry_space_group_name_H-M "P 6/M M M"
_symmetry_group_IT_number 191
_symmetry_cell_setting 'hexagonal'
loop_
_space_group_symop_operation_xyz
x,y,z
x-y,x,z
-y,x-y,z
-x,-y,z
-x+y,-x,z
y,-x+y,z
x-y,-y,-z
-x,-x+y,-z
y,x,-z
-y,-x,-z
-x+y,y,-z
x,x-y,-z
-x,-y,-z
-x+y,-x,-z
y,-x+y,-z
x,y,-z
x-y,x,-z
-y,x-y,-z
-x+y,y,z
x,x-y,z
-y,-x,z
y,x,z
x-y,-y,z
-x,-x+y,z
loop_
_atom_site_type_symbol
_atom_site_label
_atom_site_fract_x
_atom_site_fract_y
_atom_site_fract_z
Si Si1 0.538249 0.642406 0.500000
Si Si2 0.900183 0.800365 0.776566
Si Si3 0.797668 0.595335 0.223790
O O1 0.609426 0.609426 0.500000
O O2 0.438325 0.561676 0.500000
O O3 0.550637 0.699001 0.310666
O O4 0.848524 0.848524 0.692642
O O5 0.849110 0.698219 0.713236
O O6 0.903664 0.807328 0.000000
O O7 0.790597 0.581194 0.000000
#
# Coordination Sequence:
#
# PCOD8329237 Si02
#       3
#    12  12  12
#     4  10  22  40  61  85 115 151 196 250 308 367
#     4   9  16  27  48  81 120 158 192 224 262 318
#     4  10  21  38  60  87 118 155 197 246 302 360
#
# _framework density 19.606961999999999
#
# number of rings (size 3 to 8) (size 9 to 14) (size 15 to 20)
#    0.000    2.333    0.000    2.333    0.000    6.667 
#    8.000    3.333    0.000    0.000    0.000   11.667 
#    0.000    0.000    0.000    0.000    0.000    0.000 
#
# Total GULP energy -446432.000351 kJ/mol
# GULP energy per Si atom -12400.888899 kJ/mol
# Density = 1.956234 g / cm^3
# Si number density = 19.606962 Si / 1000 Ang^3
#
#
#
# Elastic Constant Matrix: (Units=GPa)
#
#
# Indices 1 2 3 4 5 6 
#
# 1 154.0128 92.8064 56.4599 0.0000 0.0000 0.0000
# 2 92.8064 154.0128 56.4599 0.0000 0.0000 0.0000
# 3 56.4599 56.4599 140.5761 0.0000 0.0000 0.0000
# 4 0.0000 0.0000 0.0000 98.5824 0.0000 0.0000
# 5 0.0000 0.0000 0.0000 0.0000 98.5824 0.0000
# 6 0.0000 0.0000 0.0000 0.0000 0.0000 30.6032
#
#
#
# Elastic Compliance Matrix: (Units=1/GPa)
#
#
# Indices 1 2 3 4 5 6 
#
# 1 0.010651 -0.005687 -0.001994 0.000000 0.000000 0.000000
# 2 -0.005687 0.010651 -0.001994 0.000000 0.000000 0.000000
# 3 -0.001994 -0.001994 0.008715 0.000000 0.000000 0.000000
# 4 0.000000 0.000000 0.000000 0.010144 0.000000 0.000000
# 5 0.000000 0.000000 0.000000 0.000000 0.010144 0.000000
# 6 0.000000 0.000000 0.000000 0.000000 0.000000 0.032676
#
#
# Mechanical properties :
#
#
# Convention : Reuss Voigt Hill
#
# Bulk Modulus (GPa) = 93.73867 95.56154 94.65011
# Shear Modulus (GPa) = 47.22090 61.74529 54.48310
#
# Velocity S-wave (km/s) = 4.91284 5.61782 5.27712
# Velocity P-wave (km/s) = 8.94953 9.53542 9.24711
#
# Compressibility (1/GPa) = 0.01066796
#
# Stress axis : x y z
#
# Youngs Moduli (GPa) = 93.88896 93.88896 114.74574
#
# Poissons Ratio (x) = 0.53397 0.22875
# Poissons Ratio (y) = 0.53397 0.22875
# Poissons Ratio (z) = 0.18717 0.18717
#
# Static dielectric constant tensor:
#      x y z
#    x 3.656370 0.000000 0.000000 
#    y 0.000000 3.656370 0.000000 
#    z 0.000000 0.000000 3.375360 
# 
# 
# High freq. dielectric constant tensor:
#      x y z
#    x 1.769530 0.000000 0.000000 
#    y 0.000000 1.769530 0.000000 
#    z 0.000000 0.000000 1.766810 
# 
# From -- ./inp_files/244.got.cif
#   From: 2010.03.12/outbox.cif.g09.slc.cpg/sg191_1_cif.got.tgz:244.got - 2010.04.01 12:09:02.
