data_PCOD8329965
_publ_section_title
;
Structure prediction by ZEFSAII (Michael W. Deem and Ramdas Pophale) SiO2 
 PCOD8329965
Probable space group: P 63/M C M
;
_chemical_formula_sum "Si O2"
_cell_formula_units_Z 108
_cell_length_a 13.991508
_cell_length_b 13.991508
_cell_length_c 33.071950
_cell_angle_alpha 90.000000
_cell_angle_beta 90.000000
_cell_angle_gamma 120.000000
_cell_volume 5606.857063
_symmetry_space_group_name_H-M "P 63/M C M"
_symmetry_group_IT_number 193
_symmetry_cell_setting 'hexagonal'
loop_
_space_group_symop_operation_xyz
x,y,z
x-y,x,1/2+z
-y,x-y,z
-x,-y,1/2+z
-x+y,-x,z
y,-x+y,1/2+z
x-y,-y,1/2-z
-x,-x+y,1/2-z
y,x,1/2-z
-y,-x,-z
-x+y,y,-z
x,x-y,-z
-x,-y,-z
-x+y,-x,1/2-z
y,-x+y,-z
x,y,1/2-z
x-y,x,-z
-y,x-y,1/2-z
-x+y,y,1/2+z
x,x-y,1/2+z
-y,-x,1/2+z
y,x,z
x-y,-y,z
-x,-x+y,z
loop_
_atom_site_type_symbol
_atom_site_label
_atom_site_fract_x
_atom_site_fract_y
_atom_site_fract_z
Si Si1 0.760814 0.470880 0.250000
Si Si2 0.568905 0.126752 0.401792
Si Si3 0.129137 0.703154 0.331781
Si Si4 0.872421 0.654598 0.604080
Si Si5 0.720828 0.593899 0.964982
O O1 0.627776 0.418080 0.250000
O O2 0.808896 0.544601 0.210560
O O3 0.641786 0.176663 0.360907
O O4 0.468529 0.148819 0.403812
O O5 0.642009 0.166501 0.442939
O O6 0.532315 0.000000 0.398524
O O7 0.158585 0.818277 0.353638
O O8 0.000000 0.629887 0.322941
O O9 0.810565 0.677724 0.567544
O O10 0.000000 0.746185 0.604749
O O11 0.650907 0.650907 0.981417
O O12 0.786024 0.572048 0.000000
#
# Coordination Sequence:
#
# PCOD8329965 Si02
#       5
#    12  24  24  24  24
#     4  10  21  32  52  84 111 138 174 216 258 314
#     4   8  17  32  51  75 103 137 176 215 260 312
#     4  10  19  35  55  78 112 145 175 216 266 316
#     4  10  19  34  56  78 104 142 183 222 265 321
#     4  10  20  35  54  78 108 140 176 223 274 325
#
# _framework density 19.262128000000001
#
# number of rings (size 3 to 8) (size 9 to 14) (size 15 to 20)
#    0.222    2.222    0.000    4.333    0.000    0.889 
#   10.667    5.000    0.000    8.444    0.000    0.000 
#    0.000    0.000    0.000    0.000    0.000    0.000 
#
# Total GULP energy -1338347.563288 kJ/mol
# GULP energy per Si atom -12392.107067 kJ/mol
# Density = 1.921829 g / cm^3
# Si number density = 19.262128 Si / 1000 Ang^3
#
#
#
# Elastic Constant Matrix: (Units=GPa)
#
#
# Indices 1 2 3 4 5 6 
#
# 1 34.7429 -7.3281 6.6379 0.0000 0.0000 0.0000
# 2 -7.3281 34.7429 6.6379 0.0000 0.0000 0.0000
# 3 6.6379 6.6379 120.7199 0.0000 0.0000 0.0000
# 4 0.0000 0.0000 0.0000 25.3990 0.0000 0.0000
# 5 0.0000 0.0000 0.0000 0.0000 25.3990 0.0000
# 6 0.0000 0.0000 0.0000 0.0000 0.0000 21.0355
#
#
#
# Elastic Compliance Matrix: (Units=1/GPa)
#
#
# Indices 1 2 3 4 5 6 
#
# 1 0.030622 0.006853 -0.002061 0.000000 0.000000 0.000000
# 2 0.006853 0.030622 -0.002061 0.000000 0.000000 0.000000
# 3 -0.002061 -0.002061 0.008510 0.000000 0.000000 0.000000
# 4 0.000000 0.000000 0.000000 0.039372 0.000000 0.000000
# 5 0.000000 0.000000 0.000000 0.000000 0.039372 0.000000
# 6 0.000000 0.000000 0.000000 0.000000 0.000000 0.047539
#
#
# Mechanical properties :
#
#
# Convention : Reuss Voigt Hill
#
# Bulk Modulus (GPa) = 13.29489 22.45570 17.87529
# Shear Modulus (GPa) = 23.18623 26.65059 24.91841
#
# Velocity S-wave (km/s) = 3.47323 3.72368 3.60063
# Velocity P-wave (km/s) = 4.79599 5.49281 5.15619
#
# Compressibility (1/GPa) = 0.07521687
#
# Stress axis : x y z
#
# Youngs Moduli (GPa) = 32.65638 32.65638 117.50538
#
# Poissons Ratio (x) = -0.22378 0.24213
# Poissons Ratio (y) = -0.22378 0.24213
# Poissons Ratio (z) = 0.06729 0.06729
#
# Static dielectric constant tensor:
#      x y z
#    x 3.398290 0.000000 0.000000 
#    y 0.000000 3.398290 0.000000 
#    z 0.000000 0.000000 3.496430 
# 
# 
# High freq. dielectric constant tensor:
#      x y z
#    x 1.732010 0.000000 0.000000 
#    y 0.000000 1.732010 0.000000 
#    z 0.000000 0.000000 1.752970 
# 
# From -- ./inp_files/8826.got.cif
#   From: 2010.03.12/outbox.cif.g09.slc.cpg/sg193_5_cif.got.tgz:8826.got - 2010.04.01 12:20:39.
