data_PCOD8329473
_publ_section_title
;
Structure prediction by ZEFSAII (Michael W. Deem and Ramdas Pophale) SiO2 
 PCOD8329473
Probable space group: P 6/M C C
;
_chemical_formula_sum "Si O2"
_cell_formula_units_Z 132
_cell_length_a 24.038785
_cell_length_b 24.038785
_cell_length_c 14.636466
_cell_angle_alpha 90.000000
_cell_angle_beta 90.000000
_cell_angle_gamma 120.000000
_cell_volume 7324.734482
_symmetry_space_group_name_H-M "P 6/M C C"
_symmetry_group_IT_number 192
_symmetry_cell_setting 'hexagonal'
loop_
_space_group_symop_operation_xyz
x,y,z
x-y,x,z
-y,x-y,z
-x,-y,z
-x+y,-x,z
y,-x+y,z
x-y,-y,1/2-z
-x,-x+y,1/2-z
y,x,1/2-z
-y,-x,1/2-z
-x+y,y,1/2-z
x,x-y,1/2-z
-x,-y,-z
-x+y,-x,-z
y,-x+y,-z
x,y,-z
x-y,x,-z
-y,x-y,-z
-x+y,y,1/2+z
x,x-y,1/2+z
-y,-x,1/2+z
y,x,1/2+z
x-y,-y,1/2+z
-x,-x+y,1/2+z
loop_
_atom_site_type_symbol
_atom_site_label
_atom_site_fract_x
_atom_site_fract_y
_atom_site_fract_z
Si Si1 0.224091 0.165098 0.311121
Si Si2 0.107326 0.149884 0.000000
Si Si3 0.883854 0.638231 0.264041
Si Si4 0.929017 0.456684 0.356821
Si Si5 0.342477 0.940786 0.103933
Si Si6 0.564616 0.652789 0.399502
O O1 0.174876 0.174876 0.250000
O O2 0.236808 0.118404 0.250000
O O3 0.194483 0.138674 0.411022
O O4 0.294832 0.228668 0.316281
O O5 0.121354 0.090802 0.000000
O O6 0.815792 0.631584 0.250000
O O7 0.912364 0.632779 0.166920
O O8 0.870101 0.578769 0.328576
O O9 0.929231 0.464616 0.250000
O O10 0.902454 0.382293 0.384201
O O11 0.888813 0.488465 0.398093
O O12 0.000000 0.500000 0.398863
O O13 0.391467 0.014097 0.132655
O O14 0.318274 0.934546 0.000000
O O15 0.584041 0.682788 0.500000
#
# Coordination Sequence:
#
# PCOD8329473 Si02
#       6
#    24  12  24  24  24  24
#     4  11  23  42  60  82 115 145 182 229 287 359
#     4  12  25  44  72  94 108 136 183 249 327 377
#     4  11  24  38  50  72 109 154 191 226 264 326
#     4   9  15  27  52  80 113 140 164 218 268 313
#     4  10  19  34  55  80 108 143 188 226 277 328
#     4  10  19  32  53  81 108 138 180 221 271 320
#
# _framework density 18.021132000000001
#
# number of rings (size 3 to 8) (size 9 to 14) (size 15 to 20)
#    0.000    1.636    3.636    2.273    1.273    2.909 
#    6.545    0.000    0.000    0.000    0.000    0.000 
#    7.273    0.000    2.182    0.000    0.000    0.000 
#
# Total GULP energy -1635764.112126 kJ/mol
# GULP energy per Si atom -12392.152365 kJ/mol
# Density = 1.798011 g / cm^3
# Si number density = 18.021132 Si / 1000 Ang^3
#
#
#
# Elastic Constant Matrix: (Units=GPa)
#
#
# Indices 1 2 3 4 5 6 
#
# 1 80.5539 36.8426 41.9190 0.0000 0.0000 0.0000
# 2 36.8426 80.5539 41.9190 0.0000 0.0000 0.0000
# 3 41.9190 41.9190 125.4806 0.0000 0.0000 0.0000
# 4 0.0000 0.0000 0.0000 24.4303 0.0000 0.0000
# 5 0.0000 0.0000 0.0000 0.0000 24.4303 0.0000
# 6 0.0000 0.0000 0.0000 0.0000 0.0000 21.8556
#
#
#
# Elastic Compliance Matrix: (Units=1/GPa)
#
#
# Indices 1 2 3 4 5 6 
#
# 1 0.017032 -0.005845 -0.003737 0.000000 0.000000 0.000000
# 2 -0.005845 0.017032 -0.003737 0.000000 0.000000 0.000000
# 3 -0.003737 -0.003737 0.010466 0.000000 0.000000 0.000000
# 4 0.000000 0.000000 0.000000 0.040933 0.000000 0.000000
# 5 0.000000 0.000000 0.000000 0.000000 0.040933 0.000000
# 6 0.000000 0.000000 0.000000 0.000000 0.000000 0.045755
#
#
# Mechanical properties :
#
#
# Convention : Reuss Voigt Hill
#
# Bulk Modulus (GPa) = 55.89236 58.66104 57.27670
# Shear Modulus (GPa) = 24.41952 25.20377 24.81165
#
# Velocity S-wave (km/s) = 3.68509 3.74380 3.71456
# Velocity P-wave (km/s) = 7.01347 7.16310 7.08868
#
# Compressibility (1/GPa) = 0.01789153
#
# Stress axis : x y z
#
# Youngs Moduli (GPa) = 58.71223 58.71223 95.54441
#
# Poissons Ratio (x) = 0.34318 0.35707
# Poissons Ratio (y) = 0.34318 0.35707
# Poissons Ratio (z) = 0.21942 0.21942
#
# Static dielectric constant tensor:
#      x y z
#    x 4.042500 0.000000 0.000000 
#    y 0.000000 4.042500 0.000000 
#    z 0.000000 0.000000 3.378640 
# 
# 
# High freq. dielectric constant tensor:
#      x y z
#    x 1.674210 0.000000 0.000000 
#    y 0.000000 1.674210 0.000000 
#    z 0.000000 0.000000 1.715890 
# 
# From -- ./inp_files/3244.got.cif
#   From: 2010.03.12/outbox.cif.g09.slc.cpg/sg192_2_cif.got.tgz:3244.got - 2010.04.01 12:16:15.
