data_PCOD8329963
_publ_section_title
;
Structure prediction by ZEFSAII (Michael W. Deem and Ramdas Pophale) SiO2 
 PCOD8329963
Probable space group: P 63/M C M
;
_chemical_formula_sum "Si O2"
_cell_formula_units_Z 112
_cell_length_a 20.988373
_cell_length_b 20.988373
_cell_length_c 15.703697
_cell_angle_alpha 90.000000
_cell_angle_beta 90.000000
_cell_angle_gamma 120.000000
_cell_volume 5990.872630
_symmetry_space_group_name_H-M "P 63/M C M"
_symmetry_group_IT_number 193
_symmetry_cell_setting 'hexagonal'
loop_
_space_group_symop_operation_xyz
x,y,z
x-y,x,1/2+z
-y,x-y,z
-x,-y,1/2+z
-x+y,-x,z
y,-x+y,1/2+z
x-y,-y,1/2-z
-x,-x+y,1/2-z
y,x,1/2-z
-y,-x,-z
-x+y,y,-z
x,x-y,-z
-x,-y,-z
-x+y,-x,1/2-z
y,-x+y,-z
x,y,1/2-z
x-y,x,-z
-y,x-y,1/2-z
-x+y,y,1/2+z
x,x-y,1/2+z
-y,-x,1/2+z
y,x,z
x-y,-y,z
-x,-x+y,z
loop_
_atom_site_type_symbol
_atom_site_label
_atom_site_fract_x
_atom_site_fract_y
_atom_site_fract_z
Si Si1 0.299134 0.383601 0.156604
Si Si2 0.607100 0.915024 0.844467
Si Si3 0.000000 0.144948 0.151667
Si Si4 0.384560 0.912262 0.995935
Si Si5 0.857432 0.708614 0.901370
Si Si6 0.000000 0.000000 0.101444
O O1 0.294661 0.415091 0.250000
O O2 0.359863 0.359863 0.161519
O O3 0.221717 0.309664 0.134810
O O4 0.327107 0.447467 0.083771
O O5 0.571798 0.902751 0.750000
O O6 0.543902 0.884804 0.915217
O O7 0.651775 0.872740 0.851258
O O8 0.665163 0.000000 0.861492
O O9 0.924611 0.133277 0.110428
O O10 0.000000 0.163937 0.250000
O O11 0.000000 0.070259 0.138430
O O12 0.428878 0.000000 0.990963
O O13 0.440382 0.880763 0.000000
O O14 0.845256 0.690511 0.000000
O O15 0.000000 0.000000 0.000000
#
# Coordination Sequence:
#
# PCOD8329963 Si02
#       6
#    24  24  12  24  24   4
#     4  10  21  35  53  79 112 149 191 236 293 357
#     4  10  19  34  54  79 109 144 187 231 285 350
#     4  12  26  42  60  80 109 152 206 276 333 383
#     4   9  18  33  52  78 111 141 171 210 265 340
#     4  12  23  36  58  81 110 152 201 258 312 366
#     4  12  28  50  58  78 106 152 217 276 343 395
#
# _framework density 18.695107
#
# number of rings (size 3 to 8) (size 9 to 14) (size 15 to 20)
#    0.000    1.500    3.214    2.893    3.000    0.857 
#    0.000    4.286    0.000    0.000    0.000    0.000 
#    8.571    0.000    2.571    0.000    0.000    0.000 
#
# Total GULP energy -1388113.590198 kJ/mol
# GULP energy per Si atom -12393.871341 kJ/mol
# Density = 1.865256 g / cm^3
# Si number density = 18.695107 Si / 1000 Ang^3
#
#
#
# Elastic Constant Matrix: (Units=GPa)
#
#
# Indices 1 2 3 4 5 6 
#
# 1 74.2968 29.4190 34.4301 0.0000 0.0000 0.0000
# 2 29.4190 74.2968 34.4301 0.0000 0.0000 0.0000
# 3 34.4301 34.4301 162.5529 0.0000 0.0000 0.0000
# 4 0.0000 0.0000 0.0000 20.1311 0.0000 0.0000
# 5 0.0000 0.0000 0.0000 0.0000 20.1311 0.0000
# 6 0.0000 0.0000 0.0000 0.0000 0.0000 22.4389
#
#
#
# Elastic Compliance Matrix: (Units=1/GPa)
#
#
# Indices 1 2 3 4 5 6 
#
# 1 0.016751 -0.005532 -0.002376 0.000000 0.000000 0.000000
# 2 -0.005532 0.016751 -0.002376 0.000000 0.000000 0.000000
# 3 -0.002376 -0.002376 0.007159 0.000000 0.000000 0.000000
# 4 0.000000 0.000000 0.000000 0.049674 0.000000 0.000000
# 5 0.000000 0.000000 0.000000 0.000000 0.049674 0.000000
# 6 0.000000 0.000000 0.000000 0.000000 0.000000 0.044565
#
#
# Mechanical properties :
#
#
# Convention : Reuss Voigt Hill
#
# Bulk Modulus (GPa) = 49.77113 56.41165 53.09139
# Shear Modulus (GPa) = 23.60262 26.73139 25.16700
#
# Velocity S-wave (km/s) = 3.55703 3.78545 3.67301
# Velocity P-wave (km/s) = 6.59926 7.02469 6.81530
#
# Compressibility (1/GPa) = 0.02009197
#
# Stress axis : x y z
#
# Youngs Moduli (GPa) = 59.69756 59.69756 139.69370
#
# Poissons Ratio (x) = 0.33022 0.33197
# Poissons Ratio (y) = 0.33022 0.33197
# Poissons Ratio (z) = 0.14186 0.14186
#
# Static dielectric constant tensor:
#      x y z
#    x 3.307430 0.000000 0.000000 
#    y 0.000000 3.307430 0.000000 
#    z 0.000000 0.000000 3.935070 
# 
# 
# High freq. dielectric constant tensor:
#      x y z
#    x 1.693500 0.000000 0.000000 
#    y 0.000000 1.693500 0.000000 
#    z 0.000000 0.000000 1.754860 
# 
# From -- ./inp_files/3850.got.cif
#   From: 2010.03.12/outbox.cif.g09.slc.cpg/sg193_2_cif.got.tgz:3850.got - 2010.04.01 12:20:39.
