data_PCOD8329170
_publ_section_title
;
Structure prediction by ZEFSAII (Michael W. Deem and Ramdas Pophale) SiO2 
 PCOD8329170
Probable space group: P 6/M M M
;
_chemical_formula_sum "Si O2"
_cell_formula_units_Z 168
_cell_length_a 29.857619
_cell_length_b 29.857619
_cell_length_c 13.020131
_cell_angle_alpha 90.000000
_cell_angle_beta 90.000000
_cell_angle_gamma 120.000000
_cell_volume 10052.089097
_symmetry_space_group_name_H-M "P 6/M M M"
_symmetry_group_IT_number 191
_symmetry_cell_setting 'hexagonal'
loop_
_space_group_symop_operation_xyz
x,y,z
x-y,x,z
-y,x-y,z
-x,-y,z
-x+y,-x,z
y,-x+y,z
x-y,-y,-z
-x,-x+y,-z
y,x,-z
-y,-x,-z
-x+y,y,-z
x,x-y,-z
-x,-y,-z
-x+y,-x,-z
y,-x+y,-z
x,y,-z
x-y,x,-z
-y,x-y,-z
-x+y,y,z
x,x-y,z
-y,-x,z
y,x,z
x-y,-y,z
-x,-x+y,z
loop_
_atom_site_type_symbol
_atom_site_label
_atom_site_fract_x
_atom_site_fract_y
_atom_site_fract_z
Si Si1 0.665938 0.529573 0.757393
Si Si2 0.333255 0.771976 0.118471
Si Si3 0.158474 0.217001 0.117142
Si Si4 0.326582 0.942955 0.114653
Si Si5 0.057941 0.758499 0.741834
Si Si6 0.612585 0.858904 0.615280
Si Si7 0.580887 0.524218 0.385979
O O1 0.668756 0.481053 0.802234
O O2 0.658890 0.559188 0.852875
O O3 0.716200 0.566933 0.691264
O O4 0.616414 0.512348 0.686653
O O5 0.384367 0.768734 0.141382
O O6 0.283969 0.716032 0.140005
O O7 0.333000 0.788649 0.000000
O O8 0.097290 0.194579 0.134032
O O9 0.171330 0.171330 0.139215
O O10 0.188822 0.264121 0.196118
O O11 0.174415 0.237338 0.000000
O O12 0.280590 0.939628 0.179743
O O13 0.377051 0.000000 0.124614
O O14 0.305532 0.930664 0.000000
O O15 0.095979 0.765541 0.648746
O O16 0.000000 0.735575 0.697581
O O17 0.601909 0.871540 0.500000
O O18 0.613746 0.806873 0.617146
O O19 0.605664 0.537936 0.500000
O O20 0.526484 0.473517 0.390631
O O21 0.571401 0.571401 0.348757
#
# Coordination Sequence:
#
# PCOD8329170 Si02
#       7
#    24  24  24  24  24  24  24
#     4  11  19  31  50  73  94 121 157 191 222 268
#     4  10  21  37  56  76  97 121 152 194 245 297
#     4   9  16  26  42  64  89 118 155 199 244 288
#     4   9  17  28  42  64  96 127 150 176 214 259
#     4   9  17  29  46  65  86 118 158 194 225 263
#     4  10  21  34  46  64  93 124 151 184 227 271
#     4   9  18  32  49  70  96 124 154 189 226 261
#
# _framework density 16.712942999999999
#
# number of rings (size 3 to 8) (size 9 to 14) (size 15 to 20)
#    0.000    2.429    0.000    3.571    0.000    3.143 
#    0.000    0.000    0.000    7.000    0.000    7.000 
#    0.000    6.857    0.000    0.000    0.000    0.000 
#
# Total GULP energy -2082110.565921 kJ/mol
# GULP energy per Si atom -12393.515273 kJ/mol
# Density = 1.667490 g / cm^3
# Si number density = 16.712943 Si / 1000 Ang^3
#
#
#
# Elastic Constant Matrix: (Units=GPa)
#
#
# Indices 1 2 3 4 5 6 
#
# 1 95.9393 43.4890 42.6699 0.0000 0.0000 0.0000
# 2 43.4890 95.9393 42.6699 0.0000 0.0000 0.0000
# 3 42.6699 42.6699 83.4714 0.0000 0.0000 0.0000
# 4 0.0000 0.0000 0.0000 29.9551 0.0000 0.0000
# 5 0.0000 0.0000 0.0000 0.0000 29.9551 0.0000
# 6 0.0000 0.0000 0.0000 0.0000 0.0000 26.2251
#
#
#
# Elastic Compliance Matrix: (Units=1/GPa)
#
#
# Indices 1 2 3 4 5 6 
#
# 1 0.014752 -0.004314 -0.005336 0.000000 0.000000 0.000000
# 2 -0.004314 0.014752 -0.005336 0.000000 0.000000 0.000000
# 3 -0.005336 -0.005336 0.017435 0.000000 0.000000 0.000000
# 4 0.000000 0.000000 0.000000 0.033383 0.000000 0.000000
# 5 0.000000 0.000000 0.000000 0.000000 0.033383 0.000000
# 6 0.000000 0.000000 0.000000 0.000000 0.000000 0.038131
#
#
# Mechanical properties :
#
#
# Convention : Reuss Voigt Hill
#
# Bulk Modulus (GPa) = 58.93392 59.22305 59.07848
# Shear Modulus (GPa) = 26.67176 26.99515 26.83346
#
# Velocity S-wave (km/s) = 3.99917 4.02335 4.01128
# Velocity P-wave (km/s) = 7.52752 7.55615 7.54185
#
# Compressibility (1/GPa) = 0.01696816
#
# Stress axis : x y z
#
# Youngs Moduli (GPa) = 67.78801 67.78801 57.35449
#
# Poissons Ratio (x) = 0.29243 0.30603
# Poissons Ratio (y) = 0.29243 0.30603
# Poissons Ratio (z) = 0.36171 0.36171
#
# Static dielectric constant tensor:
#      x y z
#    x 3.199000 0.000000 0.000000 
#    y 0.000000 3.199000 0.000000 
#    z 0.000000 0.000000 3.253600 
# 
# 
# High freq. dielectric constant tensor:
#      x y z
#    x 1.640390 0.000000 0.000000 
#    y 0.000000 1.640390 0.000000 
#    z 0.000000 0.000000 1.641100 
# 
# From -- ./inp_files/3628.got.cif
#   From: 2010.03.12/outbox.cif.g09.slc.cpg/sg191_2_cif.got.tgz:3628.got - 2010.04.01 12:09:02.
