data_PCOD8329511
_publ_section_title
;
Structure prediction by ZEFSAII (Michael W. Deem and Ramdas Pophale) SiO2 
 PCOD8329511
Probable space group: P 6/M C C
;
_chemical_formula_sum "Si O2"
_cell_formula_units_Z 80
_cell_length_a 19.152351
_cell_length_b 19.152351
_cell_length_c 14.087825
_cell_angle_alpha 90.000000
_cell_angle_beta 90.000000
_cell_angle_gamma 120.000000
_cell_volume 4475.265079
_symmetry_space_group_name_H-M "P 6/M C C"
_symmetry_group_IT_number 192
_symmetry_cell_setting 'hexagonal'
loop_
_space_group_symop_operation_xyz
x,y,z
x-y,x,z
-y,x-y,z
-x,-y,z
-x+y,-x,z
y,-x+y,z
x-y,-y,1/2-z
-x,-x+y,1/2-z
y,x,1/2-z
-y,-x,1/2-z
-x+y,y,1/2-z
x,x-y,1/2-z
-x,-y,-z
-x+y,-x,-z
y,-x+y,-z
x,y,-z
x-y,x,-z
-y,x-y,-z
-x+y,y,1/2+z
x,x-y,1/2+z
-y,-x,1/2+z
y,x,1/2+z
x-y,-y,1/2+z
-x,-x+y,1/2+z
loop_
_atom_site_type_symbol
_atom_site_label
_atom_site_fract_x
_atom_site_fract_y
_atom_site_fract_z
Si Si1 0.299850 0.000001 0.145921
Si Si2 0.333334 0.666667 0.864356
Si Si3 0.000000 0.164855 0.750000
Si Si4 0.586430 0.712014 0.000000
Si Si5 0.812372 0.406181 0.500000
Si Si6 0.874414 0.287990 0.000000
O O1 0.215187 0.000003 0.156816
O O2 0.335419 0.000000 0.250000
O O3 0.283323 0.919584 0.092987
O O4 0.363745 0.080416 0.092987
O O5 0.333334 0.666667 0.750000
O O6 0.378898 0.621122 0.904709
O O7 0.077373 0.154746 0.750000
O O8 0.501773 0.629682 0.000000
O O9 0.567511 0.783756 0.000000
O O10 0.872082 0.501764 0.500000
#
# Coordination Sequence:
#
# PCOD8329511 Si02
#       6
#    24   8  12  12  12  12
#     4   9  23  37  56  92 117 155 206 244 301 382
#     4  10  20  40  55  92 127 157 218 256 310 365
#     4  10  19  38  60  89 120 150 204 248 296 361
#     4  11  20  39  63  81 124 165 193 261 312 355
#     4  10  22  39  58  94 120 160 216 252 304 371
#     4  11  20  39  63  81 124 165 193 261 312 355
#
# _framework density 17.876035000000002
#
# number of rings (size 3 to 8) (size 9 to 14) (size 15 to 20)
#    0.900    1.200    3.000    1.950    0.000    4.800 
#    0.000    1.500    0.000    0.000    0.000   10.500 
#    0.000    0.000    0.000    0.000    0.000    0.000 
#
# Total GULP energy -991752.115178 kJ/mol
# GULP energy per Si atom -12396.901440 kJ/mol
# Density = 1.783535 g / cm^3
# Si number density = 17.876035 Si / 1000 Ang^3
#
#
#
# Elastic Constant Matrix: (Units=GPa)
#
#
# Indices 1 2 3 4 5 6 
#
# 1 143.4420 70.7621 46.8816 0.0001 0.0000 0.0000
# 2 70.7621 143.4421 46.8816 0.0001 0.0000 0.0000
# 3 46.8816 46.8816 148.5216 0.0003 -0.0001 0.0000
# 4 0.0001 0.0001 0.0003 27.3968 0.0000 0.0000
# 5 0.0000 0.0000 -0.0001 0.0000 27.3967 0.0000
# 6 0.0000 0.0000 0.0000 0.0000 0.0000 36.3399
#
#
#
# Elastic Compliance Matrix: (Units=1/GPa)
#
#
# Indices 1 2 3 4 5 6 
#
# 1 0.009588 -0.004171 -0.001710 0.000000 0.000000 0.000000
# 2 -0.004171 0.009588 -0.001710 0.000000 0.000000 0.000000
# 3 -0.001710 -0.001710 0.007812 0.000000 0.000000 0.000000
# 4 0.000000 0.000000 0.000000 0.036501 0.000000 0.000000
# 5 0.000000 0.000000 0.000000 0.000000 0.036501 0.000000
# 6 0.000000 0.000000 0.000000 0.000000 0.000000 0.027518
#
#
# Mechanical properties :
#
#
# Convention : Reuss Voigt Hill
#
# Bulk Modulus (GPa) = 84.69695 84.93959 84.81827
# Shear Modulus (GPa) = 34.10065 36.28538 35.19302
#
# Velocity S-wave (km/s) = 4.37237 4.51026 4.44185
# Velocity P-wave (km/s) = 8.54243 8.64536 8.59405
#
# Compressibility (1/GPa) = 0.01180680
#
# Stress axis : x y z
#
# Youngs Moduli (GPa) = 104.29776 104.29789 128.00023
#
# Poissons Ratio (x) = 0.43503 0.21886
# Poissons Ratio (y) = 0.43503 0.21886
# Poissons Ratio (z) = 0.17834 0.17834
#
# Static dielectric constant tensor:
#      x y z
#    x 3.232650 0.000000 0.000000 
#    y 0.000000 3.232650 0.000000 
#    z 0.000000 0.000000 3.208060 
# 
# 
# High freq. dielectric constant tensor:
#      x y z
#    x 1.695450 0.000000 0.000000 
#    y 0.000000 1.695450 0.000000 
#    z 0.000000 0.000000 1.683610 
# 
# From -- ./inp_files/2693.got.cif
#   From: 2010.03.12/outbox.cif.g09.slc.cpg/sg192_2_cif.got.tgz:2693.got - 2010.04.01 12:16:15.
