data_PCOD8329376
_publ_section_title
;
Structure prediction by ZEFSAII (Michael W. Deem and Ramdas Pophale) SiO2 
 PCOD8329376
Probable space group: P 6/M C C
;
_chemical_formula_sum "Si O2"
_cell_formula_units_Z 120
_cell_length_a 22.071551
_cell_length_b 22.071551
_cell_length_c 16.642112
_cell_angle_alpha 90.000000
_cell_angle_beta 90.000000
_cell_angle_gamma 120.000000
_cell_volume 7021.093840
_symmetry_space_group_name_H-M "P 6/M C C"
_symmetry_group_IT_number 192
_symmetry_cell_setting 'hexagonal'
loop_
_space_group_symop_operation_xyz
x,y,z
x-y,x,z
-y,x-y,z
-x,-y,z
-x+y,-x,z
y,-x+y,z
x-y,-y,1/2-z
-x,-x+y,1/2-z
y,x,1/2-z
-y,-x,1/2-z
-x+y,y,1/2-z
x,x-y,1/2-z
-x,-y,-z
-x+y,-x,-z
y,-x+y,-z
x,y,-z
x-y,x,-z
-y,x-y,-z
-x+y,y,1/2+z
x,x-y,1/2+z
-y,-x,1/2+z
y,x,1/2+z
x-y,-y,1/2+z
-x,-x+y,1/2+z
loop_
_atom_site_type_symbol
_atom_site_label
_atom_site_fract_x
_atom_site_fract_y
_atom_site_fract_z
Si Si1 0.082426 0.397847 0.590655
Si Si2 0.094218 0.154254 0.094808
Si Si3 0.843965 0.689643 0.406749
Si Si4 0.082020 0.475536 0.261972
Si Si5 0.949392 0.651418 0.174642
O O1 0.093971 0.425717 0.500000
O O2 0.133558 0.367563 0.611353
O O3 0.101902 0.463305 0.648650
O O4 0.001040 0.338423 0.600669
O O5 0.127308 0.109971 0.132395
O O6 0.145118 0.235318 0.115723
O O7 0.087325 0.143488 0.000000
O O8 0.822342 0.687361 0.500000
O O9 0.781276 0.678597 0.349181
O O10 0.119863 0.559932 0.250000
O O11 0.100242 0.431493 0.197662
O O12 0.000000 0.443896 0.250000
O O13 0.000000 0.693973 0.250000
#
# Coordination Sequence:
#
# PCOD8329376 Si02
#       5
#    24  24  24  24  24
#     4   9  17  29  46  66  92 125 157 190 235 287
#     4   9  16  25  38  56  82 120 168 220 266 300
#     4  10  18  28  43  66  95 124 160 209 255 294
#     4   8  16  31  46  64  91 116 139 173 217 271
#     4   9  18  29  44  65  93 124 156 193 238 289
#
# _framework density 17.091353000000002
#
# number of rings (size 3 to 8) (size 9 to 14) (size 15 to 20)
#    0.000    3.400    0.000    2.000    0.000    7.200 
#    0.000    9.000    0.000    0.000    0.000    0.000 
#    8.000    1.600    0.000    0.000    0.000    0.000 
#
# Total GULP energy -1486737.646393 kJ/mol
# GULP energy per Si atom -12389.480387 kJ/mol
# Density = 1.705245 g / cm^3
# Si number density = 17.091353 Si / 1000 Ang^3
#
#
#
# Elastic Constant Matrix: (Units=GPa)
#
#
# Indices 1 2 3 4 5 6 
#
# 1 75.7572 32.8689 42.4513 0.0000 0.0000 0.0000
# 2 32.8689 75.7572 42.4513 0.0000 0.0000 0.0000
# 3 42.4513 42.4513 66.8931 0.0000 0.0000 0.0000
# 4 0.0000 0.0000 0.0000 17.5319 0.0000 0.0000
# 5 0.0000 0.0000 0.0000 0.0000 17.5319 0.0000
# 6 0.0000 0.0000 0.0000 0.0000 0.0000 21.4442
#
#
#
# Elastic Compliance Matrix: (Units=1/GPa)
#
#
# Indices 1 2 3 4 5 6 
#
# 1 0.020791 -0.002525 -0.011592 0.000000 0.000000 0.000000
# 2 -0.002525 0.020791 -0.011592 0.000000 0.000000 0.000000
# 3 -0.011592 -0.011592 0.029662 0.000000 0.000000 0.000000
# 4 0.000000 0.000000 0.000000 0.057039 0.000000 0.000000
# 5 0.000000 0.000000 0.000000 0.000000 0.057039 0.000000
# 6 0.000000 0.000000 0.000000 0.000000 0.000000 0.046633
#
#
# Mechanical properties :
#
#
# Convention : Reuss Voigt Hill
#
# Bulk Modulus (GPa) = 50.43735 50.43893 50.43814
# Shear Modulus (GPa) = 17.24244 18.01068 17.62656
#
# Velocity S-wave (km/s) = 3.17967 3.24973 3.21489
# Velocity P-wave (km/s) = 6.56162 6.60730 6.58450
#
# Compressibility (1/GPa) = 0.01982658
#
# Stress axis : x y z
#
# Youngs Moduli (GPa) = 48.09697 48.09697 33.71297
#
# Poissons Ratio (x) = 0.12145 0.39080
# Poissons Ratio (y) = 0.12145 0.39080
# Poissons Ratio (z) = 0.55754 0.55754
#
# Static dielectric constant tensor:
#      x y z
#    x 3.317020 0.000000 0.000000 
#    y 0.000000 3.317020 0.000000 
#    z 0.000000 0.000000 3.108650 
# 
# 
# High freq. dielectric constant tensor:
#      x y z
#    x 1.636560 0.000000 0.000000 
#    y 0.000000 1.636560 0.000000 
#    z 0.000000 0.000000 1.648280 
# 
# From -- ./inp_files/3139.got.cif
#   From: 2010.03.12/outbox.cif.g09.slc.cpg/sg192_2_cif.got.tgz:3139.got - 2010.04.01 12:16:15.
