data_PCOD8329791
_publ_section_title
;
Structure prediction by ZEFSAII (Michael W. Deem and Ramdas Pophale) SiO2 
 PCOD8329791
Probable space group: P 63/M C M
;
_chemical_formula_sum "Si O2"
_cell_formula_units_Z 96
_cell_length_a 26.890834
_cell_length_b 26.890834
_cell_length_c 10.053612
_cell_angle_alpha 90.000000
_cell_angle_beta 90.000000
_cell_angle_gamma 120.000000
_cell_volume 6295.950367
_symmetry_space_group_name_H-M "P 63/M C M"
_symmetry_group_IT_number 193
_symmetry_cell_setting 'hexagonal'
loop_
_space_group_symop_operation_xyz
x,y,z
x-y,x,1/2+z
-y,x-y,z
-x,-y,1/2+z
-x+y,-x,z
y,-x+y,1/2+z
x-y,-y,1/2-z
-x,-x+y,1/2-z
y,x,1/2-z
-y,-x,-z
-x+y,y,-z
x,x-y,-z
-x,-y,-z
-x+y,-x,1/2-z
y,-x+y,-z
x,y,1/2-z
x-y,x,-z
-y,x-y,1/2-z
-x+y,y,1/2+z
x,x-y,1/2+z
-y,-x,1/2+z
y,x,z
x-y,-y,z
-x,-x+y,z
loop_
_atom_site_type_symbol
_atom_site_label
_atom_site_fract_x
_atom_site_fract_y
_atom_site_fract_z
Si Si1 0.350992 0.418948 0.526176
Si Si2 0.219279 0.066649 0.402407
Si Si3 0.494096 0.426375 0.750000
Si Si4 0.132977 0.781001 0.598293
Si Si5 0.604784 0.536781 0.750000
O O1 0.375251 0.375251 0.536729
O O2 0.387089 0.474363 0.618877
O O3 0.286199 0.386564 0.573468
O O4 0.354367 0.442608 0.378088
O O5 0.196678 0.098339 0.500000
O O6 0.209943 0.078873 0.250000
O O7 0.285641 0.087994 0.431138
O O8 0.183745 0.000000 0.436710
O O9 0.465954 0.465954 0.750000
O O10 0.563116 0.467599 0.750000
O O11 0.187284 0.812717 0.500000
O O12 0.155321 0.794456 0.750000
O O13 0.565307 0.565307 0.750000
#
# Coordination Sequence:
#
# PCOD8329791 Si02
#       5
#    24  24  12  24  12
#     4  10  18  29  46  65  89 123 158 188 221 265
#     4   9  18  32  49  68  91 117 149 190 231 276
#     4   9  16  28  45  64  88 120 154 182 213 254
#     4  10  20  32  46  64  89 122 158 192 230 271
#     4   9  18  28  41  66  94 118 148 186 219 250
#
# _framework density 15.247897
#
# number of rings (size 3 to 8) (size 9 to 14) (size 15 to 20)
#    0.000    2.500    1.250    1.500    1.750    4.500 
#    0.000    0.000    0.000    0.250    0.000    0.000 
#    0.000    0.000    0.000   15.000    0.000    0.000 
#
# Total GULP energy -1190356.503562 kJ/mol
# GULP energy per Si atom -12399.546912 kJ/mol
# Density = 1.521319 g / cm^3
# Si number density = 15.247897 Si / 1000 Ang^3
#
#
#
# Elastic Constant Matrix: (Units=GPa)
#
#
# Indices 1 2 3 4 5 6 
#
# 1 61.2566 24.5612 30.2391 0.0000 0.0000 0.0000
# 2 24.5612 61.2566 30.2391 0.0000 0.0000 0.0000
# 3 30.2391 30.2391 104.6842 0.0000 0.0000 0.0000
# 4 0.0000 0.0000 0.0000 -0.3298 0.0000 0.0000
# 5 0.0000 0.0000 0.0000 0.0000 -0.3298 0.0000
# 6 0.0000 0.0000 0.0000 0.0000 0.0000 18.3477
#
#
#
# Elastic Compliance Matrix: (Units=1/GPa)
#
#
# Indices 1 2 3 4 5 6 
#
# 1 0.020941 -0.006310 -0.004226 0.000000 0.000000 0.000000
# 2 -0.006310 0.020941 -0.004226 0.000000 0.000000 0.000000
# 3 -0.004226 -0.004226 0.011994 0.000000 0.000000 0.000000
# 4 0.000000 0.000000 0.000000 -3.032536 -0.000007 0.000000
# 5 0.000000 0.000000 0.000000 -0.000007 -3.032528 0.000000
# 6 0.000000 0.000000 0.000000 0.000000 0.000000 0.054503
#
#
# Mechanical properties :
#
#
# Convention : Reuss Voigt Hill
#
# Bulk Modulus (GPa) = 41.06625 44.14183 42.60404
# Shear Modulus (GPa) = -0.84473 13.01482 6.08504
#
# Velocity S-wave (km/s) = -0.74512 2.92472 1.99985
# Velocity P-wave (km/s) = 5.12353 6.35749 5.77357
#
# Compressibility (1/GPa) = 0.02435089
#
# Stress axis : x y z
#
# Youngs Moduli (GPa) = 47.75273 47.75273 83.37380
#
# Poissons Ratio (x) = 0.30133 0.35236
# Poissons Ratio (y) = 0.30133 0.35236
# Poissons Ratio (z) = 0.20182 0.20182
#
# Static dielectric constant tensor:
#      x y z
#    x 2.762820 0.000000 0.000000 
#    y 0.000000 2.762820 0.000000 
#    z 0.000000 0.000000 3.255910 
# 
# 
# High freq. dielectric constant tensor:
#      x y z
#    x 1.558670 0.000000 0.000000 
#    y 0.000000 1.558670 0.000000 
#    z 0.000000 0.000000 1.605470 
# 
# From -- ./inp_files/2303.got.cif
#   From: 2010.03.12/outbox.cif.g09.slc.cpg/sg193_2_cif.got.tgz:2303.got - 2010.04.01 12:20:39.
