data_PCOD8329828
_publ_section_title
;
Structure prediction by ZEFSAII (Michael W. Deem and Ramdas Pophale) SiO2 
 PCOD8329828
Probable space group: P 63/M C M
;
_chemical_formula_sum "Si O2"
_cell_formula_units_Z 96
_cell_length_a 26.222130
_cell_length_b 26.222130
_cell_length_c 9.621689
_cell_angle_alpha 90.000000
_cell_angle_beta 90.000000
_cell_angle_gamma 120.000000
_cell_volume 5729.515243
_symmetry_space_group_name_H-M "P 63/M C M"
_symmetry_group_IT_number 193
_symmetry_cell_setting 'hexagonal'
loop_
_space_group_symop_operation_xyz
x,y,z
x-y,x,1/2+z
-y,x-y,z
-x,-y,1/2+z
-x+y,-x,z
y,-x+y,1/2+z
x-y,-y,1/2-z
-x,-x+y,1/2-z
y,x,1/2-z
-y,-x,-z
-x+y,y,-z
x,x-y,-z
-x,-y,-z
-x+y,-x,1/2-z
y,-x+y,-z
x,y,1/2-z
x-y,x,-z
-y,x-y,1/2-z
-x+y,y,1/2+z
x,x-y,1/2+z
-y,-x,1/2+z
y,x,z
x-y,-y,z
-x,-x+y,z
loop_
_atom_site_type_symbol
_atom_site_label
_atom_site_fract_x
_atom_site_fract_y
_atom_site_fract_z
Si Si1 0.609859 0.069419 0.750000
Si Si2 0.427765 0.930705 0.750000
Si Si3 0.107598 0.107598 0.576875
Si Si4 0.790297 0.000000 0.086535
Si Si5 0.344956 0.930565 0.965548
Si Si6 0.213277 0.329655 0.094690
O O1 0.568137 0.098989 0.750000
O O2 0.653900 0.089078 0.621536
O O3 0.567029 0.000000 0.750000
O O4 0.386079 0.911261 0.884179
O O5 0.469996 0.000000 0.750000
O O6 0.102314 0.102314 0.750000
O O7 0.054958 0.109915 0.500000
O O8 0.165876 0.165876 0.529490
O O9 0.785783 0.057054 0.050580
O O10 0.808443 0.000000 0.250000
O O11 0.278811 0.894150 0.911878
O O12 0.368677 0.000000 0.946217
O O13 0.188994 0.322926 0.250000
O O14 0.170473 0.340947 0.000000
#
# Coordination Sequence:
#
# PCOD8329828 Si02
#       6
#    12  12  12  12  24  24
#     4   9  18  28  45  80 106 135 171 214 240 294
#     4   9  16  28  51  72 104 139 177 202 246 294
#     4  12  25  43  64  88 109 131 159 213 286 353
#     4  10  22  41  61  78 103 136 184 231 273 338
#     4  10  18  32  51  72 105 143 178 217 260 308
#     4  11  23  37  54  76 103 143 187 229 277 328
#
# _framework density 16.755343
#
# number of rings (size 3 to 8) (size 9 to 14) (size 15 to 20)
#    0.000    1.750    2.500    2.750    1.750    6.000 
#    0.000    0.000    0.000    0.000    0.000    0.000 
#    0.000    0.000    0.000   15.000    0.000    0.000 
#
# Total GULP energy -1189777.539074 kJ/mol
# GULP energy per Si atom -12393.516032 kJ/mol
# Density = 1.671721 g / cm^3
# Si number density = 16.755343 Si / 1000 Ang^3
#
#
#
# Elastic Constant Matrix: (Units=GPa)
#
#
# Indices 1 2 3 4 5 6 
#
# 1 67.6665 21.8008 18.4351 0.0000 0.0000 0.0000
# 2 21.8008 67.6665 18.4351 0.0000 0.0000 0.0000
# 3 18.4351 18.4351 98.1529 0.0000 0.0000 0.0000
# 4 0.0000 0.0000 0.0000 38.0995 0.0000 0.0000
# 5 0.0000 0.0000 0.0000 0.0000 38.0995 0.0000
# 6 0.0000 0.0000 0.0000 0.0000 0.0000 22.9328
#
#
#
# Elastic Compliance Matrix: (Units=1/GPa)
#
#
# Indices 1 2 3 4 5 6 
#
# 1 0.016959 -0.004844 -0.002275 0.000000 0.000000 0.000000
# 2 -0.004844 0.016959 -0.002275 0.000000 0.000000 0.000000
# 3 -0.002275 -0.002275 0.011043 0.000000 0.000000 0.000000
# 4 0.000000 0.000000 0.000000 0.026247 0.000000 0.000000
# 5 0.000000 0.000000 0.000000 0.000000 0.026247 0.000000
# 6 0.000000 0.000000 0.000000 0.000000 0.000000 0.043606
#
#
# Mechanical properties :
#
#
# Convention : Reuss Voigt Hill
#
# Bulk Modulus (GPa) = 38.21002 38.98089 38.59545
# Shear Modulus (GPa) = 29.66062 31.48071 30.57066
#
# Velocity S-wave (km/s) = 4.21196 4.33927 4.27609
# Velocity P-wave (km/s) = 6.81970 6.95851 6.88946
#
# Compressibility (1/GPa) = 0.02617115
#
# Stress axis : x y z
#
# Youngs Moduli (GPa) = 58.96611 58.96611 90.55562
#
# Poissons Ratio (x) = 0.28563 0.20605
# Poissons Ratio (y) = 0.28563 0.20605
# Poissons Ratio (z) = 0.13417 0.13417
#
# Static dielectric constant tensor:
#      x y z
#    x 3.020630 0.000000 0.000000 
#    y 0.000000 3.020630 0.000000 
#    z 0.000000 0.000000 3.620850 
# 
# 
# High freq. dielectric constant tensor:
#      x y z
#    x 1.623170 0.000000 0.000000 
#    y 0.000000 1.623170 0.000000 
#    z 0.000000 0.000000 1.664870 
# 
# From -- ./inp_files/1282.got.cif
#   From: 2010.03.12/outbox.cif.g09.slc.cpg/sg193_1_cif.got.tgz:1282.got - 2010.04.01 12:20:39.
