data_PCOD8329059
_publ_section_title
;
Structure prediction by ZEFSAII (Michael W. Deem and Ramdas Pophale) SiO2 
 PCOD8329059
Probable space group: P 6/M M M
;
_chemical_formula_sum "Si O2"
_cell_formula_units_Z 144
_cell_length_a 32.202218
_cell_length_b 32.202218
_cell_length_c 9.083315
_cell_angle_alpha 90.000000
_cell_angle_beta 90.000000
_cell_angle_gamma 120.000000
_cell_volume 8157.302703
_symmetry_space_group_name_H-M "P 6/M M M"
_symmetry_group_IT_number 191
_symmetry_cell_setting 'hexagonal'
loop_
_space_group_symop_operation_xyz
x,y,z
x-y,x,z
-y,x-y,z
-x,-y,z
-x+y,-x,z
y,-x+y,z
x-y,-y,-z
-x,-x+y,-z
y,x,-z
-y,-x,-z
-x+y,y,-z
x,x-y,-z
-x,-y,-z
-x+y,-x,-z
y,-x+y,-z
x,y,-z
x-y,x,-z
-y,x-y,-z
-x+y,y,z
x,x-y,z
-y,-x,z
y,x,z
x-y,-y,z
-x,-x+y,z
loop_
_atom_site_type_symbol
_atom_site_label
_atom_site_fract_x
_atom_site_fract_y
_atom_site_fract_z
Si Si1 0.223089 0.942885 0.664528
Si Si2 0.142269 0.522633 0.835684
Si Si3 0.946886 0.144195 0.831057
Si Si4 0.333109 0.570382 0.327366
Si Si5 0.358209 0.301684 0.163692
Si Si6 0.441029 0.055136 0.674328
O O1 0.215423 0.922015 0.500000
O O2 0.171829 0.926477 0.735996
O O3 0.249691 0.921040 0.760425
O O4 0.254528 0.000000 0.662675
O O5 0.149464 0.574732 0.847626
O O6 0.189665 0.528673 0.753674
O O7 0.092808 0.491174 0.746843
O O8 0.138469 0.501210 0.000000
O O9 0.912509 0.087492 0.806742
O O10 0.000000 0.157256 0.780090
O O11 0.947145 0.159039 0.000000
O O12 0.332103 0.560431 0.500000
O O13 0.283537 0.567074 0.275388
O O14 0.376559 0.623442 0.288762
O O15 0.324835 0.324835 0.151283
O O16 0.403249 0.333501 0.266774
O O17 0.374900 0.296411 0.000000
O O18 0.444822 0.060911 0.500000
O O19 0.424948 0.000000 0.718630
#
# Coordination Sequence:
#
# PCOD8329059 Si02
#       6
#    24  24  24  24  24  24
#     4   9  16  26  42  65  91 116 144 181 225 272
#     4  10  21  35  50  71 101 136 173 213 256 301
#     4   9  17  29  45  65  90 121 156 193 235 284
#     4   9  17  31  53  79 104 129 159 198 246 301
#     4   9  16  27  45  68  93 120 151 188 230 277
#     4  10  20  33  50  72  98 131 173 217 256 294
#
# _framework density 17.652894
#
# number of rings (size 3 to 8) (size 9 to 14) (size 15 to 20)
#    0.000    2.667    0.000    2.167    0.000    7.667 
#    0.000    1.667    0.000    2.167    0.000    1.167 
#    0.000    0.000    0.000    4.167    0.000    4.333 
#
# Total GULP energy -1784980.747347 kJ/mol
# GULP energy per Si atom -12395.699634 kJ/mol
# Density = 1.761272 g / cm^3
# Si number density = 17.652894 Si / 1000 Ang^3
#
#
#
# Elastic Constant Matrix: (Units=GPa)
#
#
# Indices 1 2 3 4 5 6 
#
# 1 73.3868 33.8623 38.1881 0.0000 0.0000 0.0000
# 2 33.8623 73.3868 38.1881 0.0000 0.0000 0.0000
# 3 38.1881 38.1881 103.9147 0.0000 0.0000 0.0000
# 4 0.0000 0.0000 0.0000 22.3965 0.0000 0.0000
# 5 0.0000 0.0000 0.0000 0.0000 22.3965 0.0000
# 6 0.0000 0.0000 0.0000 0.0000 0.0000 19.7622
#
#
#
# Elastic Compliance Matrix: (Units=1/GPa)
#
#
# Indices 1 2 3 4 5 6 
#
# 1 0.018965 -0.006336 -0.004641 0.000000 0.000000 0.000000
# 2 -0.006336 0.018965 -0.004641 0.000000 0.000000 0.000000
# 3 -0.004641 -0.004641 0.013034 0.000000 0.000000 0.000000
# 4 0.000000 0.000000 0.000000 0.044650 0.000000 0.000000
# 5 0.000000 0.000000 0.000000 0.000000 0.044650 0.000000
# 6 0.000000 0.000000 0.000000 0.000000 0.000000 0.050602
#
#
# Mechanical properties :
#
#
# Convention : Reuss Voigt Hill
#
# Bulk Modulus (GPa) = 50.68867 52.35169 51.52018
# Shear Modulus (GPa) = 21.86477 22.27434 22.06956
#
# Velocity S-wave (km/s) = 3.52318 3.55603 3.53965
# Velocity P-wave (km/s) = 6.73252 6.82503 6.77893
#
# Compressibility (1/GPa) = 0.01972828
#
# Stress axis : x y z
#
# Youngs Moduli (GPa) = 52.72865 52.72865 76.71951
#
# Poissons Ratio (x) = 0.33408 0.35607
# Poissons Ratio (y) = 0.33408 0.35607
# Poissons Ratio (z) = 0.24472 0.24472
#
# Static dielectric constant tensor:
#      x y z
#    x 3.128520 0.000000 0.000000 
#    y 0.000000 3.128520 0.000000 
#    z 0.000000 0.000000 3.542710 
# 
# 
# High freq. dielectric constant tensor:
#      x y z
#    x 1.658030 0.000000 0.000000 
#    y 0.000000 1.658030 0.000000 
#    z 0.000000 0.000000 1.695310 
# 
# From -- ./inp_files/1994.got.cif
#   From: 2010.03.12/outbox.cif.g09.slc.cpg/sg191_1_cif.got.tgz:1994.got - 2010.04.01 12:09:02.
