data_PCOD8329028
_publ_section_title
;
Structure prediction by ZEFSAII (Michael W. Deem and Ramdas Pophale) SiO2 
 PCOD8329028
Probable space group: P 6/M M M
;
_chemical_formula_sum "Si O2"
_cell_formula_units_Z 168
_cell_length_a 17.923484
_cell_length_b 17.923484
_cell_length_c 35.383061
_cell_angle_alpha 90.000000
_cell_angle_beta 90.000000
_cell_angle_gamma 120.000000
_cell_volume 9843.983970
_symmetry_space_group_name_H-M "P 6/M M M"
_symmetry_group_IT_number 191
_symmetry_cell_setting 'hexagonal'
loop_
_space_group_symop_operation_xyz
x,y,z
x-y,x,z
-y,x-y,z
-x,-y,z
-x+y,-x,z
y,-x+y,z
x-y,-y,-z
-x,-x+y,-z
y,x,-z
-y,-x,-z
-x+y,y,-z
x,x-y,-z
-x,-y,-z
-x+y,-x,-z
y,-x+y,-z
x,y,-z
x-y,x,-z
-y,x-y,-z
-x+y,y,z
x,x-y,z
-y,-x,z
y,x,z
x-y,-y,z
-x,-x+y,z
loop_
_atom_site_type_symbol
_atom_site_label
_atom_site_fract_x
_atom_site_fract_y
_atom_site_fract_z
Si Si1 0.494140 0.161240 0.542609
Si Si2 0.739666 0.093689 0.397755
Si Si3 0.160587 0.668172 0.892345
Si Si4 0.268007 0.900524 0.176092
Si Si5 0.097074 0.735477 0.956532
Si Si6 0.360789 0.097652 0.687542
Si Si7 0.366944 0.898800 0.753987
O O1 0.459736 0.131027 0.500000
O O2 0.577382 0.154764 0.550834
O O3 0.518535 0.259268 0.549197
O O4 0.423290 0.099066 0.572309
O O5 0.838057 0.161944 0.407422
O O6 0.713240 0.106886 0.355621
O O7 0.730447 0.000000 0.401044
O O8 0.147590 0.573795 0.888160
O O9 0.261467 0.738534 0.888822
O O10 0.105790 0.682501 0.860317
O O11 0.122786 0.675713 0.932500
O O12 0.164391 0.835610 0.172333
O O13 0.299369 0.867592 0.211828
O O14 0.290136 0.000000 0.180428
O O15 0.163353 0.836648 0.947393
O O16 0.000000 0.714198 0.946887
O O17 0.104359 0.714513 0.000000
O O18 0.321811 0.160906 0.694478
O O19 0.443523 0.126691 0.714119
O O20 0.285922 0.000000 0.696916
O O21 0.427783 0.855565 0.756326
O O22 0.427037 0.000000 0.757026
#
# Coordination Sequence:
#
# PCOD8329028 Si02
#       7
#    24  24  24  24  24  24  24
#     4   9  17  29  45  65  90 119 148 177 212 258
#     4   9  18  31  46  65  89 117 149 186 228 270
#     4  10  20  33  49  70  96 125 156 191 232 276
#     4  10  20  33  50  72  97 125 157 193 233 276
#     4   9  18  32  49  69  93 122 156 193 233 276
#     4   9  17  30  48  68  90 118 152 188 226 269
#     4   9  17  29  46  68  92 118 149 184 220 260
#
# _framework density 17.066261999999998
#
# number of rings (size 3 to 8) (size 9 to 14) (size 15 to 20)
#    0.000    2.714    0.000    1.571    0.000    3.714 
#    0.000    2.857    0.000    4.571    0.000    3.000 
#    0.000    6.857    0.000    3.857    0.000    4.286 
#
# Total GULP energy -2082461.142053 kJ/mol
# GULP energy per Si atom -12395.602036 kJ/mol
# Density = 1.702742 g / cm^3
# Si number density = 17.066262 Si / 1000 Ang^3
#
#
#
# Elastic Constant Matrix: (Units=GPa)
#
#
# Indices 1 2 3 4 5 6 
#
# 1 88.0221 57.7595 41.8307 0.0000 0.0000 0.0000
# 2 57.7595 88.0221 41.8307 0.0000 0.0000 0.0000
# 3 41.8307 41.8307 91.4145 0.0000 0.0000 0.0000
# 4 0.0000 0.0000 0.0000 23.0231 0.0000 0.0000
# 5 0.0000 0.0000 0.0000 0.0000 23.0231 0.0000
# 6 0.0000 0.0000 0.0000 0.0000 0.0000 15.1313
#
#
#
# Elastic Compliance Matrix: (Units=1/GPa)
#
#
# Indices 1 2 3 4 5 6 
#
# 1 0.021173 -0.011871 -0.004257 0.000000 0.000000 0.000000
# 2 -0.011871 0.021173 -0.004257 0.000000 0.000000 0.000000
# 3 -0.004257 -0.004257 0.014835 0.000000 0.000000 0.000000
# 4 0.000000 0.000000 0.000000 0.043435 0.000000 0.000000
# 5 0.000000 0.000000 0.000000 0.000000 0.043435 0.000000
# 6 0.000000 0.000000 0.000000 0.000000 0.000000 0.066088
#
#
# Mechanical properties :
#
#
# Convention : Reuss Voigt Hill
#
# Bulk Modulus (GPa) = 60.92798 61.14452 61.03625
# Shear Modulus (GPa) = 19.50245 20.63804 20.07024
#
# Velocity S-wave (km/s) = 3.38412 3.48126 3.43303
# Velocity P-wave (km/s) = 7.14479 7.21556 7.18026
#
# Compressibility (1/GPa) = 0.01641282
#
# Stress axis : x y z
#
# Youngs Moduli (GPa) = 47.22943 47.22943 67.40860
#
# Poissons Ratio (x) = 0.56065 0.28694
# Poissons Ratio (y) = 0.56065 0.28694
# Poissons Ratio (z) = 0.20104 0.20104
#
# Static dielectric constant tensor:
#      x y z
#    x 3.145740 0.000000 0.000000 
#    y 0.000000 3.145740 0.000000 
#    z 0.000000 0.000000 3.433050 
# 
# 
# High freq. dielectric constant tensor:
#      x y z
#    x 1.640900 0.000000 0.000000 
#    y 0.000000 1.640900 0.000000 
#    z 0.000000 0.000000 1.676450 
# 
# From -- ./inp_files/10745.got.cif
#   From: 2010.03.12/outbox.cif.g09.slc.cpg/sg191_6_cif.got.tgz:10745.got - 2010.04.01 12:09:02.
