data_PCOD8329081
_publ_section_title
;
Structure prediction by ZEFSAII (Michael W. Deem and Ramdas Pophale) SiO2 
 PCOD8329081
Probable space group: P 6/M M M
;
_chemical_formula_sum "Si O2"
_cell_formula_units_Z 52
_cell_length_a 16.644028
_cell_length_b 16.644028
_cell_length_c 11.625177
_cell_angle_alpha 90.000000
_cell_angle_beta 90.000000
_cell_angle_gamma 120.000000
_cell_volume 2788.990797
_symmetry_space_group_name_H-M "P 6/M M M"
_symmetry_group_IT_number 191
_symmetry_cell_setting 'hexagonal'
loop_
_space_group_symop_operation_xyz
x,y,z
x-y,x,z
-y,x-y,z
-x,-y,z
-x+y,-x,z
y,-x+y,z
x-y,-y,-z
-x,-x+y,-z
y,x,-z
-y,-x,-z
-x+y,y,-z
x,x-y,-z
-x,-y,-z
-x+y,-x,-z
y,-x+y,-z
x,y,-z
x-y,x,-z
-y,x-y,-z
-x+y,y,z
x,x-y,z
-y,-x,z
y,x,z
x-y,-y,z
-x,-x+y,z
loop_
_atom_site_type_symbol
_atom_site_label
_atom_site_fract_x
_atom_site_fract_y
_atom_site_fract_z
Si Si1 0.666667 0.333334 0.136851
Si Si2 0.435330 0.564671 0.136524
Si Si3 0.612232 0.899558 0.740770
Si Si4 0.153670 0.669670 0.500000
O O1 0.768003 0.384002 0.187933
O O2 0.666667 0.333334 0.000000
O O3 0.538958 0.626243 0.182100
O O4 0.439324 0.560677 0.000000
O O5 0.626407 0.813204 0.780688
O O6 0.581200 0.888842 0.609527
O O7 0.707704 0.000000 0.752912
O O8 0.265200 0.734801 0.500000
O O9 0.125775 0.562888 0.500000
#
# Coordination Sequence:
#
# PCOD8329081 Si02
#       4
#     4  12  24  12
#     4   9  18  33  51  73 110 148 174 207 244 302
#     4  11  21  35  55  80 112 147 179 211 256 313
#     4  11  23  37  55  78 107 141 180 224 268 314
#     4  10  20  33  52  79 110 144 178 213 254 308
#
# _framework density 18.644736000000002
#
# number of rings (size 3 to 8) (size 9 to 14) (size 15 to 20)
#    0.000    1.385    4.615    1.615    0.000    2.769 
#    0.000    0.000    0.000    0.462    0.000    0.000 
#    0.000    5.538    0.000    4.154    0.000    0.000 
#
# Total GULP energy -644201.934086 kJ/mol
# GULP energy per Si atom -12388.498732 kJ/mol
# Density = 1.860230 g / cm^3
# Si number density = 18.644736 Si / 1000 Ang^3
#
#
#
# Elastic Constant Matrix: (Units=GPa)
#
#
# Indices 1 2 3 4 5 6 
#
# 1 102.5540 78.5209 16.6661 0.0000 0.0000 0.0000
# 2 78.5209 102.5540 16.6662 0.0000 0.0000 0.0000
# 3 16.6661 16.6662 89.6886 0.0000 0.0000 0.0000
# 4 0.0000 0.0000 0.0000 23.7656 0.0000 0.0000
# 5 0.0000 0.0000 0.0000 0.0000 23.7655 0.0000
# 6 0.0000 0.0000 0.0000 0.0000 0.0000 12.0166
#
#
#
# Elastic Compliance Matrix: (Units=1/GPa)
#
#
# Indices 1 2 3 4 5 6 
#
# 1 0.023664 -0.017946 -0.001063 0.000000 0.000000 0.000000
# 2 -0.017946 0.023664 -0.001063 0.000000 0.000000 0.000000
# 3 -0.001063 -0.001063 0.011545 0.000000 0.000000 0.000000
# 4 0.000000 0.000000 0.000000 0.042078 0.000000 0.000000
# 5 0.000000 0.000000 0.000000 0.000000 0.042078 0.000000
# 6 0.000000 0.000000 0.000000 0.000000 0.000000 0.083218
#
#
# Mechanical properties :
#
#
# Convention : Reuss Voigt Hill
#
# Bulk Modulus (GPa) = 53.38837 57.61145 55.49991
# Shear Modulus (GPa) = 18.33981 24.10575 21.22278
#
# Velocity S-wave (km/s) = 3.13971 3.59959 3.37749
# Velocity P-wave (km/s) = 6.46842 6.94570 6.71130
#
# Compressibility (1/GPa) = 0.01873067
#
# Stress axis : x y z
#
# Youngs Moduli (GPa) = 42.25874 42.25871 86.62069
#
# Poissons Ratio (x) = 0.75836 0.09204
# Poissons Ratio (y) = 0.75836 0.09204
# Poissons Ratio (z) = 0.04490 0.04490
#
# Static dielectric constant tensor:
#      x y z
#    x 3.532160 0.000000 0.000000 
#    y 0.000000 3.532160 0.000000 
#    z 0.000000 0.000000 3.357060 
# 
# 
# High freq. dielectric constant tensor:
#      x y z
#    x 1.707780 0.000000 0.000000 
#    y 0.000000 1.707780 0.000000 
#    z 0.000000 0.000000 1.729440 
# 
# From -- ./inp_files/2205.got.cif
#   From: 2010.03.12/outbox.cif.g09.slc.cpg/sg191_2_cif.got.tgz:2205.got - 2010.04.01 12:09:02.
