data_PCOD8329671
_publ_section_title
;
Structure prediction by ZEFSAII (Michael W. Deem and Ramdas Pophale) SiO2 
 PCOD8329671
Probable space group: P 6/M C C
;
_chemical_formula_sum "Si O2"
_cell_formula_units_Z 168
_cell_length_a 17.711588
_cell_length_b 17.711588
_cell_length_c 28.810537
_cell_angle_alpha 90.000000
_cell_angle_beta 90.000000
_cell_angle_gamma 120.000000
_cell_volume 7827.029801
_symmetry_space_group_name_H-M "P 6/M C C"
_symmetry_group_IT_number 192
_symmetry_cell_setting 'hexagonal'
loop_
_space_group_symop_operation_xyz
x,y,z
x-y,x,z
-y,x-y,z
-x,-y,z
-x+y,-x,z
y,-x+y,z
x-y,-y,1/2-z
-x,-x+y,1/2-z
y,x,1/2-z
-y,-x,1/2-z
-x+y,y,1/2-z
x,x-y,1/2-z
-x,-y,-z
-x+y,-x,-z
y,-x+y,-z
x,y,-z
x-y,x,-z
-y,x-y,-z
-x+y,y,1/2+z
x,x-y,1/2+z
-y,-x,1/2+z
y,x,1/2+z
x-y,-y,1/2+z
-x,-x+y,1/2+z
loop_
_atom_site_type_symbol
_atom_site_label
_atom_site_fract_x
_atom_site_fract_y
_atom_site_fract_z
Si Si1 0.200923 0.137916 0.117834
Si Si2 0.283429 0.206457 0.782938
Si Si3 0.522271 0.836010 0.272642
Si Si4 0.542686 0.635946 0.588810
Si Si5 0.094515 0.513776 0.685657
Si Si6 0.092995 0.614208 0.552619
Si Si7 0.362798 0.191181 0.053487
O O1 0.125950 0.161539 0.108067
O O2 0.229666 0.173786 0.169840
O O3 0.283473 0.185856 0.083479
O O4 0.274909 0.274909 0.750000
O O5 0.246878 0.123439 0.750000
O O6 0.385241 0.248124 0.796091
O O7 0.480169 0.740085 0.250000
O O8 0.456010 0.837719 0.310435
O O9 0.535913 0.904455 0.231865
O O10 0.526293 0.647373 0.642774
O O11 0.447812 0.581834 0.563834
O O12 0.590427 0.579323 0.585474
O O13 0.607855 0.730127 0.567902
O O14 0.000000 0.500000 0.676994
O O15 0.058647 0.597768 0.500000
O O16 0.163986 0.714829 0.560718
O O17 0.332206 0.175238 0.000000
#
# Coordination Sequence:
#
# PCOD8329671 Si02
#       7
#    24  24  24  24  24  24  24
#     4  12  27  45  70  99 137 182 236 295 365 431
#     4  11  22  39  65  95 131 172 221 281 338 403
#     4  10  24  39  60  89 132 172 222 271 329 388
#     4  11  22  39  70  98 130 170 223 274 334 405
#     4  11  22  41  63  91 126 176 218 266 321 395
#     4  10  21  41  66  94 132 172 213 269 339 406
#     4  11  26  45  70 103 137 176 227 289 351 421
#
# _framework density 21.464082000000001
#
# number of rings (size 3 to 8) (size 9 to 14) (size 15 to 20)
#    0.000    1.143    2.857    4.429    6.000    4.000 
#    4.286    0.000    0.000    0.857    0.000    0.000 
#    0.000    0.000    0.000    0.000    0.000    0.000 
#
# Total GULP energy -2082441.476841 kJ/mol
# GULP energy per Si atom -12395.484981 kJ/mol
# Density = 2.141523 g / cm^3
# Si number density = 21.464082 Si / 1000 Ang^3
#
#
#
# Elastic Constant Matrix: (Units=GPa)
#
#
# Indices 1 2 3 4 5 6 
#
# 1 88.1348 17.0580 20.3123 0.0000 0.0000 0.0000
# 2 17.0580 88.1348 20.3123 0.0000 0.0000 0.0000
# 3 20.3123 20.3123 106.7759 0.0000 0.0000 0.0000
# 4 0.0000 0.0000 0.0000 54.0981 0.0000 0.0000
# 5 0.0000 0.0000 0.0000 0.0000 54.0981 0.0000
# 6 0.0000 0.0000 0.0000 0.0000 0.0000 35.5384
#
#
#
# Elastic Compliance Matrix: (Units=1/GPa)
#
#
# Indices 1 2 3 4 5 6 
#
# 1 0.012165 -0.001905 -0.001952 0.000000 0.000000 0.000000
# 2 -0.001905 0.012165 -0.001952 0.000000 0.000000 0.000000
# 3 -0.001952 -0.001952 0.010108 0.000000 0.000000 0.000000
# 4 0.000000 0.000000 0.000000 0.018485 0.000000 0.000000
# 5 0.000000 0.000000 0.000000 0.000000 0.018485 0.000000
# 6 0.000000 0.000000 0.000000 0.000000 0.000000 0.028139
#
#
# Mechanical properties :
#
#
# Convention : Reuss Voigt Hill
#
# Bulk Modulus (GPa) = 43.81925 44.26783 44.04354
# Shear Modulus (GPa) = 42.09842 43.77111 42.93476
#
# Velocity S-wave (km/s) = 4.43351 4.52073 4.47733
# Velocity P-wave (km/s) = 6.83136 6.92230 6.87698
#
# Compressibility (1/GPa) = 0.02282102
#
# Stress axis : x y z
#
# Youngs Moduli (GPa) = 82.20499 82.20499 98.93146
#
# Poissons Ratio (x) = 0.15657 0.19310
# Poissons Ratio (y) = 0.15657 0.19310
# Poissons Ratio (z) = 0.16045 0.16045
#
# Static dielectric constant tensor:
#      x y z
#    x 3.889780 0.000000 0.000000 
#    y 0.000000 3.889780 0.000000 
#    z 0.000000 0.000000 3.913350 
# 
# 
# High freq. dielectric constant tensor:
#      x y z
#    x 1.838370 0.000000 0.000000 
#    y 0.000000 1.838370 0.000000 
#    z 0.000000 0.000000 1.846700 
# 
# From -- ./inp_files/7210.got.cif
#   From: 2010.03.12/outbox.cif.g09.slc.cpg/sg192_4_cif.got.tgz:7210.got - 2010.04.01 12:16:15.
