data_PCOD8329386
_publ_section_title
;
Structure prediction by ZEFSAII (Michael W. Deem and Ramdas Pophale) SiO2 
 PCOD8329386
Probable space group: P 6/M C C
;
_chemical_formula_sum "Si O2"
_cell_formula_units_Z 44
_cell_length_a 12.938993
_cell_length_b 12.938993
_cell_length_c 18.191113
_cell_angle_alpha 90.000000
_cell_angle_beta 90.000000
_cell_angle_gamma 120.000000
_cell_volume 2637.490228
_symmetry_space_group_name_H-M "P 6/M C C"
_symmetry_group_IT_number 192
_symmetry_cell_setting 'hexagonal'
loop_
_space_group_symop_operation_xyz
x,y,z
x-y,x,z
-y,x-y,z
-x,-y,z
-x+y,-x,z
y,-x+y,z
x-y,-y,1/2-z
-x,-x+y,1/2-z
y,x,1/2-z
-y,-x,1/2-z
-x+y,y,1/2-z
x,x-y,1/2-z
-x,-y,-z
-x+y,-x,-z
y,-x+y,-z
x,y,-z
x-y,x,-z
-y,x-y,-z
-x+y,y,1/2+z
x,x-y,1/2+z
-y,-x,1/2+z
y,x,1/2+z
x-y,-y,1/2+z
-x,-x+y,1/2+z
loop_
_atom_site_type_symbol
_atom_site_label
_atom_site_fract_x
_atom_site_fract_y
_atom_site_fract_z
Si Si1 0.051793 0.265159 0.500000
Si Si2 0.666668 0.333334 0.663274
Si Si3 0.107315 0.621766 0.081497
O O1 0.148885 0.224608 0.500000
O O2 0.067542 0.345688 0.427552
O O3 0.666668 0.333334 0.750000
O O4 0.673887 0.219904 0.634896
O O5 0.000000 0.500000 0.115650
O O6 0.140051 0.592121 0.000000
#
# Coordination Sequence:
#
# PCOD8329386 Si02
#       3
#    12   8  24
#     4  10  18  30  52  78 101 128 168 220 264 308
#     4  12  22  32  52  78 109 137 169 210 259 326
#     4   9  19  34  54  75 101 138 174 215 260 309
#
# _framework density 16.682525999999999
#
# number of rings (size 3 to 8) (size 9 to 14) (size 15 to 20)
#    1.636    0.545    0.000    5.182    0.000    1.091 
#    0.000    0.000    0.000    0.000    0.000    0.000 
#    0.000    4.364    0.000    0.000    0.000    0.000 
#
# Total GULP energy -545314.352967 kJ/mol
# GULP energy per Si atom -12393.508022 kJ/mol
# Density = 1.664456 g / cm^3
# Si number density = 16.682526 Si / 1000 Ang^3
#
#
#
# Elastic Constant Matrix: (Units=GPa)
#
#
# Indices 1 2 3 4 5 6 
#
# 1 147.8622 70.3575 30.1522 0.0000 0.0000 0.0000
# 2 70.3575 147.8637 30.1527 0.0000 0.0000 0.0003
# 3 30.1522 30.1527 62.4579 -0.0002 -0.0002 0.0000
# 4 0.0000 0.0000 -0.0002 7.4750 0.0000 0.0000
# 5 0.0000 0.0000 -0.0002 0.0000 7.4751 0.0000
# 6 0.0000 0.0003 0.0000 0.0000 0.0000 38.7531
#
#
#
# Elastic Compliance Matrix: (Units=1/GPa)
#
#
# Indices 1 2 3 4 5 6 
#
# 1 0.009095 -0.003807 -0.002553 0.000000 0.000000 0.000000
# 2 -0.003807 0.009095 -0.002553 0.000000 0.000000 0.000000
# 3 -0.002553 -0.002553 0.018476 0.000001 0.000000 0.000000
# 4 0.000000 0.000000 0.000001 0.133779 -0.000001 0.000000
# 5 0.000000 0.000000 0.000000 -0.000001 0.133777 0.000000
# 6 0.000000 0.000000 0.000000 0.000000 0.000000 0.025804
#
#
# Mechanical properties :
#
#
# Convention : Reuss Voigt Hill
#
# Bulk Modulus (GPa) = 53.07798 68.83429 60.95613
# Shear Modulus (GPa) = 14.11905 25.90875 20.01390
#
# Velocity S-wave (km/s) = 2.91234 3.94515 3.46742
# Velocity P-wave (km/s) = 6.57226 7.88055 7.25595
#
# Compressibility (1/GPa) = 0.01884021
#
# Stress axis : x y z
#
# Youngs Moduli (GPa) = 109.94812 109.94897 54.12536
#
# Poissons Ratio (x) = 0.41859 0.13817
# Poissons Ratio (y) = 0.41859 0.13818
# Poissons Ratio (z) = 0.28068 0.28069
#
# Static dielectric constant tensor:
#      x y z
#    x 3.072470 0.000000 0.000000 
#    y 0.000000 3.072450 0.000000 
#    z 0.000000 0.000000 2.671260 
# 
# 
# High freq. dielectric constant tensor:
#      x y z
#    x 1.648240 0.000000 0.000000 
#    y 0.000000 1.648240 0.000000 
#    z 0.000000 0.000000 1.584980 
# 
# From -- ./inp_files/2110.got.cif
#   From: 2010.03.12/outbox.cif.g09.slc.cpg/sg192_2_cif.got.tgz:2110.got - 2010.04.01 12:16:15.
