data_PCOD8329807
_publ_section_title
;
Structure prediction by ZEFSAII (Michael W. Deem and Ramdas Pophale) SiO2 
 PCOD8329807
Probable space group: P 63/M C M
;
_chemical_formula_sum "Si O2"
_cell_formula_units_Z 168
_cell_length_a 25.737508
_cell_length_b 25.737508
_cell_length_c 17.837654
_cell_angle_alpha 90.000000
_cell_angle_beta 90.000000
_cell_angle_gamma 120.000000
_cell_volume 10232.961885
_symmetry_space_group_name_H-M "P 63/M C M"
_symmetry_group_IT_number 193
_symmetry_cell_setting 'hexagonal'
loop_
_space_group_symop_operation_xyz
x,y,z
x-y,x,1/2+z
-y,x-y,z
-x,-y,1/2+z
-x+y,-x,z
y,-x+y,1/2+z
x-y,-y,1/2-z
-x,-x+y,1/2-z
y,x,1/2-z
-y,-x,-z
-x+y,y,-z
x,x-y,-z
-x,-y,-z
-x+y,-x,1/2-z
y,-x+y,-z
x,y,1/2-z
x-y,x,-z
-y,x-y,1/2-z
-x+y,y,1/2+z
x,x-y,1/2+z
-y,-x,1/2+z
y,x,z
x-y,-y,z
-x,-x+y,z
loop_
_atom_site_type_symbol
_atom_site_label
_atom_site_fract_x
_atom_site_fract_y
_atom_site_fract_z
Si Si1 0.344190 0.409270 0.163142
Si Si2 0.630024 0.163782 0.160726
Si Si3 0.627824 0.697609 0.162233
Si Si4 0.847878 0.492999 0.837119
Si Si5 0.250303 0.490907 0.411805
Si Si6 0.772193 0.706471 0.661081
Si Si7 0.814904 0.644850 0.087945
O O1 0.331125 0.411432 0.250000
O O2 0.401712 0.401712 0.150242
O O3 0.360314 0.471711 0.126215
O O4 0.285648 0.352870 0.128782
O O5 0.637728 0.172044 0.250000
O O6 0.563043 0.145439 0.135744
O O7 0.683660 0.221469 0.119973
O O8 0.636568 0.715335 0.250000
O O9 0.665569 0.665569 0.139190
O O10 0.557426 0.650828 0.144928
O O11 0.650935 0.757736 0.112749
O O12 0.833272 0.487701 0.750000
O O13 0.790592 0.484718 0.879721
O O14 0.247244 0.494488 0.500000
O O15 0.224199 0.421105 0.385929
O O16 0.777782 0.706649 0.750000
O O17 0.763669 0.763669 0.637643
O O18 0.826941 0.701224 0.625301
O O19 0.826147 0.652293 0.000000
#
# Coordination Sequence:
#
# PCOD8329807 Si02
#       7
#    24  24  24  24  24  24  24
#     4   8  14  24  41  67  91 109 135 175 226 280
#     4  10  18  30  50  68  86 113 146 190 242 294
#     4   9  18  33  52  72  97 130 166 201 238 288
#     4   9  19  33  49  69  88 112 149 195 243 290
#     4  10  20  33  47  64  85 116 149 187 234 291
#     4   9  16  27  45  69  95 121 151 190 234 278
#     4  10  19  30  47  71  95 128 161 194 234 280
#
# _framework density 16.417535000000001
#
# number of rings (size 3 to 8) (size 9 to 14) (size 15 to 20)
#    0.000    2.714    1.429    1.714    0.000    2.857 
#    0.857    2.857    0.000    0.000    0.000    4.000 
#    0.000    0.000    0.000    0.429    0.000    8.286 
#
# Total GULP energy -2081217.067426 kJ/mol
# GULP energy per Si atom -12388.196830 kJ/mol
# Density = 1.638017 g / cm^3
# Si number density = 16.417535 Si / 1000 Ang^3
#
#
#
# Elastic Constant Matrix: (Units=GPa)
#
#
# Indices 1 2 3 4 5 6 
#
# 1 85.4999 42.8545 29.0810 0.0000 0.0000 0.0000
# 2 42.8545 85.4999 29.0810 0.0000 0.0000 0.0000
# 3 29.0810 29.0810 34.8144 0.0000 0.0000 0.0000
# 4 0.0000 0.0000 0.0000 11.8780 0.0000 0.0000
# 5 0.0000 0.0000 0.0000 0.0000 11.8780 0.0000
# 6 0.0000 0.0000 0.0000 0.0000 0.0000 21.3227
#
#
#
# Elastic Compliance Matrix: (Units=1/GPa)
#
#
# Indices 1 2 3 4 5 6 
#
# 1 0.017993 -0.005457 -0.010471 0.000000 0.000000 0.000000
# 2 -0.005457 0.017993 -0.010471 0.000000 0.000000 0.000000
# 3 -0.010471 -0.010471 0.046218 0.000000 0.000000 0.000000
# 4 0.000000 0.000000 0.000000 0.084189 0.000000 0.000000
# 5 0.000000 0.000000 0.000000 0.000000 0.084189 0.000000
# 6 0.000000 0.000000 0.000000 0.000000 0.000000 0.046898
#
#
# Mechanical properties :
#
#
# Convention : Reuss Voigt Hill
#
# Bulk Modulus (GPa) = 34.00932 45.31637 39.66285
# Shear Modulus (GPa) = 13.88582 16.00226 14.94404
#
# Velocity S-wave (km/s) = 2.91141 3.12541 3.02031
# Velocity P-wave (km/s) = 5.66232 6.37861 6.03111
#
# Compressibility (1/GPa) = 0.02940370
#
# Stress axis : x y z
#
# Youngs Moduli (GPa) = 55.57856 55.57856 21.63677
#
# Poissons Ratio (x) = 0.30327 0.22657
# Poissons Ratio (y) = 0.30327 0.22657
# Poissons Ratio (z) = 0.58199 0.58199
#
# Static dielectric constant tensor:
#      x y z
#    x 3.062780 0.000000 0.000000 
#    y 0.000000 3.062780 0.000000 
#    z 0.000000 0.000000 2.952060 
# 
# 
# High freq. dielectric constant tensor:
#      x y z
#    x 1.614430 0.000000 0.000000 
#    y 0.000000 1.614430 0.000000 
#    z 0.000000 0.000000 1.615490 
# 
# From -- ./inp_files/6856.got.cif
#   From: 2010.03.12/outbox.cif.g09.slc.cpg/sg193_4_cif.got.tgz:6856.got - 2010.04.01 12:20:39.
