data_PCOD8329785
_publ_section_title
;
Structure prediction by ZEFSAII (Michael W. Deem and Ramdas Pophale) SiO2 
 PCOD8329785
Probable space group: P 63/M C M
;
_chemical_formula_sum "Si O2"
_cell_formula_units_Z 96
_cell_length_a 27.620756
_cell_length_b 27.620756
_cell_length_c 9.724243
_cell_angle_alpha 90.000000
_cell_angle_beta 90.000000
_cell_angle_gamma 120.000000
_cell_volume 6424.769591
_symmetry_space_group_name_H-M "P 63/M C M"
_symmetry_group_IT_number 193
_symmetry_cell_setting 'hexagonal'
loop_
_space_group_symop_operation_xyz
x,y,z
x-y,x,1/2+z
-y,x-y,z
-x,-y,1/2+z
-x+y,-x,z
y,-x+y,1/2+z
x-y,-y,1/2-z
-x,-x+y,1/2-z
y,x,1/2-z
-y,-x,-z
-x+y,y,-z
x,x-y,-z
-x,-y,-z
-x+y,-x,1/2-z
y,-x+y,-z
x,y,1/2-z
x-y,x,-z
-y,x-y,1/2-z
-x+y,y,1/2+z
x,x-y,1/2+z
-y,-x,1/2+z
y,x,z
x-y,-y,z
-x,-x+y,z
loop_
_atom_site_type_symbol
_atom_site_label
_atom_site_fract_x
_atom_site_fract_y
_atom_site_fract_z
Si Si1 0.577454 0.511055 0.907801
Si Si2 0.333124 0.398582 0.591959
Si Si3 0.165127 0.937452 0.250000
Si Si4 0.687218 0.898691 0.511070
Si Si5 0.180186 0.937996 0.750000
O O1 0.588057 0.498233 0.750000
O O2 0.541075 0.541075 0.901788
O O3 0.544995 0.455006 0.000000
O O4 0.635363 0.549749 0.987382
O O5 0.340605 0.420024 0.750000
O O6 0.355757 0.355757 0.575714
O O7 0.268932 0.367513 0.548066
O O8 0.196291 0.931674 0.379710
O O9 0.100756 0.887408 0.250000
O O10 0.172390 0.000000 0.250000
O O11 0.666764 0.833382 0.500000
O O12 0.716077 0.929171 0.372180
O O13 0.189449 0.000000 0.750000
#
# Coordination Sequence:
#
# PCOD8329785 Si02
#       5
#    24  24  12  24  12
#     4   9  17  28  41  60  85 112 144 178 208 236
#     4  10  18  28  44  61  81 113 148 180 216 260
#     4  10  18  32  48  61  81 113 145 179 227 289
#     4  10  20  31  44  63  87 114 145 183 228 279
#     4  10  20  30  44  65  87 107 139 187 233 279
#
# _framework density 14.942170000000001
#
# number of rings (size 3 to 8) (size 9 to 14) (size 15 to 20)
#    0.000    2.250    1.250    3.000    1.750    3.000 
#    0.000    0.000    0.000    0.250    0.000    0.000 
#    0.000    6.000    0.000    0.750    0.000    5.250 
#
# Total GULP energy -1189867.585824 kJ/mol
# GULP energy per Si atom -12394.454019 kJ/mol
# Density = 1.490816 g / cm^3
# Si number density = 14.942170 Si / 1000 Ang^3
#
#
#
# Elastic Constant Matrix: (Units=GPa)
#
#
# Indices 1 2 3 4 5 6 
#
# 1 79.0310 32.8363 41.0113 0.0000 0.0000 0.0000
# 2 32.8363 79.0310 41.0113 0.0000 0.0000 0.0000
# 3 41.0113 41.0113 139.8826 0.0000 0.0000 0.0000
# 4 0.0000 0.0000 0.0000 23.3451 0.0000 0.0000
# 5 0.0000 0.0000 0.0000 0.0000 23.3451 0.0000
# 6 0.0000 0.0000 0.0000 0.0000 0.0000 23.0974
#
#
#
# Elastic Compliance Matrix: (Units=1/GPa)
#
#
# Indices 1 2 3 4 5 6 
#
# 1 0.016517 -0.005130 -0.003338 0.000000 0.000000 0.000000
# 2 -0.005130 0.016517 -0.003338 0.000000 0.000000 0.000000
# 3 -0.003338 -0.003338 0.009106 0.000000 0.000000 0.000000
# 4 0.000000 0.000000 0.000000 0.042835 0.000000 0.000000
# 5 0.000000 0.000000 0.000000 0.000000 0.042835 0.000000
# 6 0.000000 0.000000 0.000000 0.000000 0.000000 0.043295
#
#
# Mechanical properties :
#
#
# Convention : Reuss Voigt Hill
#
# Bulk Modulus (GPa) = 53.97678 58.62914 56.30296
# Shear Modulus (GPa) = 24.88840 26.16323 25.52582
#
# Velocity S-wave (km/s) = 4.08566 4.18899 4.13765
# Velocity P-wave (km/s) = 7.64585 7.91956 7.78391
#
# Compressibility (1/GPa) = 0.01852649
#
# Stress axis : x y z
#
# Youngs Moduli (GPa) = 60.54278 60.54278 109.81257
#
# Poissons Ratio (x) = 0.31060 0.36661
# Poissons Ratio (y) = 0.31060 0.36661
# Poissons Ratio (z) = 0.20212 0.20212
#
# Static dielectric constant tensor:
#      x y z
#    x 2.721330 0.000000 0.000000 
#    y 0.000000 2.721330 0.000000 
#    z 0.000000 0.000000 3.230000 
# 
# 
# High freq. dielectric constant tensor:
#      x y z
#    x 1.540830 0.000000 0.000000 
#    y 0.000000 1.540830 0.000000 
#    z 0.000000 0.000000 1.601840 
# 
# From -- ./inp_files/1242.got.cif
#   From: 2010.03.12/outbox.cif.g09.slc.cpg/sg193_1_cif.got.tgz:1242.got - 2010.04.01 12:20:39.
