data_PCOD8329319
_publ_section_title
;
Structure prediction by ZEFSAII (Michael W. Deem and Ramdas Pophale) SiO2 
 PCOD8329319
Probable space group: P 6/M M M
;
_chemical_formula_sum "Si O2"
_cell_formula_units_Z 90
_cell_length_a 25.792381
_cell_length_b 25.792381
_cell_length_c 9.610213
_cell_angle_alpha 90.000000
_cell_angle_beta 90.000000
_cell_angle_gamma 120.000000
_cell_volume 5536.642934
_symmetry_space_group_name_H-M "P 6/M M M"
_symmetry_group_IT_number 191
_symmetry_cell_setting 'hexagonal'
loop_
_space_group_symop_operation_xyz
x,y,z
x-y,x,z
-y,x-y,z
-x,-y,z
-x+y,-x,z
y,-x+y,z
x-y,-y,-z
-x,-x+y,-z
y,x,-z
-y,-x,-z
-x+y,y,-z
x,x-y,-z
-x,-y,-z
-x+y,-x,-z
y,-x+y,-z
x,y,-z
x-y,x,-z
-y,x-y,-z
-x+y,y,z
x,x-y,z
-y,-x,z
y,x,z
x-y,-y,z
-x,-x+y,z
loop_
_atom_site_type_symbol
_atom_site_label
_atom_site_fract_x
_atom_site_fract_y
_atom_site_fract_z
Si Si1 0.930651 0.562542 0.162159
Si Si2 0.569377 0.430624 0.846675
Si Si3 0.339427 0.069814 0.341406
Si Si4 0.744297 0.372149 0.000000
Si Si5 0.067688 0.135375 0.333940
Si Si6 0.134872 0.269743 0.334638
O O1 0.887610 0.495615 0.224290
O O2 0.910961 0.603119 0.246357
O O3 0.000000 0.582633 0.189685
O O4 0.918626 0.567607 0.000000
O O5 0.554291 0.445710 0.000000
O O6 0.605965 0.394036 0.863138
O O7 0.361047 0.088946 0.500000
O O8 0.305324 0.102565 0.281320
O O9 0.293089 0.000000 0.331283
O O10 0.700648 0.401295 0.000000
O O11 0.101309 0.101309 0.277366
O O12 0.068080 0.136160 0.500000
O O13 0.101351 0.202702 0.273189
O O14 0.132754 0.265507 0.500000
#
# Coordination Sequence:
#
# PCOD8329319 Si02
#       6
#    24  12  24   6  12  12
#     4   9  16  28  46  68  91 114 140 176 218 260
#     4   8  15  28  45  64  85 116 145 168 215 259
#     4   9  17  29  43  61  88 118 148 180 213 254
#     4   8  16  30  43  62  92 120 140 182 214 250
#     4   9  15  22  35  56  80 107 145 192 232 261
#     4   9  16  27  40  55  79 119 155 175 210 267
#
# _framework density 16.255337999999998
#
# number of rings (size 3 to 8) (size 9 to 14) (size 15 to 20)
#    0.533    2.667    0.000    1.333    0.000    5.333 
#    2.400    1.333    0.000    3.200    0.000    0.000 
#    0.000    0.000    0.000    0.800    0.000   24.667 
#
# Total GULP energy -1115327.264334 kJ/mol
# GULP energy per Si atom -12392.525159 kJ/mol
# Density = 1.621834 g / cm^3
# Si number density = 16.255338 Si / 1000 Ang^3
#
#
#
# Elastic Constant Matrix: (Units=GPa)
#
#
# Indices 1 2 3 4 5 6 
#
# 1 137.0664 88.5655 30.5931 0.0000 0.0000 0.0000
# 2 88.5655 137.0664 30.5931 0.0000 0.0000 0.0000
# 3 30.5931 30.5931 29.8501 0.0000 0.0000 0.0000
# 4 0.0000 0.0000 0.0000 14.2991 0.0000 0.0000
# 5 0.0000 0.0000 0.0000 0.0000 14.2991 0.0000
# 6 0.0000 0.0000 0.0000 0.0000 0.0000 24.2505
#
#
#
# Elastic Compliance Matrix: (Units=1/GPa)
#
#
# Indices 1 2 3 4 5 6 
#
# 1 0.013378 -0.007240 -0.006291 0.000000 0.000000 0.000000
# 2 -0.007240 0.013378 -0.006291 0.000000 0.000000 0.000000
# 3 -0.006291 -0.006291 0.046395 0.000000 0.000000 0.000000
# 4 0.000000 0.000000 0.000000 0.069934 0.000000 0.000000
# 5 0.000000 0.000000 0.000000 0.000000 0.069934 0.000000
# 6 0.000000 0.000000 0.000000 0.000000 0.000000 0.041236
#
#
# Mechanical properties :
#
#
# Convention : Reuss Voigt Hill
#
# Bulk Modulus (GPa) = 29.84330 67.05402 48.44866
# Shear Modulus (GPa) = 16.38975 20.85183 18.62079
#
# Velocity S-wave (km/s) = 3.17877 3.58546 3.38822
# Velocity P-wave (km/s) = 5.64550 7.64727 6.72133
#
# Compressibility (1/GPa) = 0.03350836
#
# Stress axis : x y z
#
# Youngs Moduli (GPa) = 74.74952 74.74952 21.55393
#
# Poissons Ratio (x) = 0.54120 0.13559
# Poissons Ratio (y) = 0.54120 0.13559
# Poissons Ratio (z) = 0.47022 0.47022
#
# Static dielectric constant tensor:
#      x y z
#    x 3.122010 0.000000 0.000000 
#    y 0.000000 3.122010 0.000000 
#    z 0.000000 0.000000 2.632440 
# 
# 
# High freq. dielectric constant tensor:
#      x y z
#    x 1.628420 0.000000 0.000000 
#    y 0.000000 1.628420 0.000000 
#    z 0.000000 0.000000 1.566600 
# 
# From -- ./inp_files/1331.got.cif
#   From: 2010.03.12/outbox.cif.g09.slc.cpg/sg191_1_cif.got.tgz:1331.got - 2010.04.01 12:09:02.
