data_PCOD8329859
_publ_section_title
;
Structure prediction by ZEFSAII (Michael W. Deem and Ramdas Pophale) SiO2 
 PCOD8329859
Probable space group: P 63/M C M
;
_chemical_formula_sum "Si O2"
_cell_formula_units_Z 84
_cell_length_a 30.491332
_cell_length_b 30.491332
_cell_length_c 5.325271
_cell_angle_alpha 90.000000
_cell_angle_beta 90.000000
_cell_angle_gamma 120.000000
_cell_volume 4287.707381
_symmetry_space_group_name_H-M "P 63/M C M"
_symmetry_group_IT_number 193
_symmetry_cell_setting 'hexagonal'
loop_
_space_group_symop_operation_xyz
x,y,z
x-y,x,1/2+z
-y,x-y,z
-x,-y,1/2+z
-x+y,-x,z
y,-x+y,1/2+z
x-y,-y,1/2-z
-x,-x+y,1/2-z
y,x,1/2-z
-y,-x,-z
-x+y,y,-z
x,x-y,-z
-x,-y,-z
-x+y,-x,1/2-z
y,-x+y,-z
x,y,1/2-z
x-y,x,-z
-y,x-y,1/2-z
-x+y,y,1/2+z
x,x-y,1/2+z
-y,-x,1/2+z
y,x,z
x-y,-y,z
-x,-x+y,z
loop_
_atom_site_type_symbol
_atom_site_label
_atom_site_fract_x
_atom_site_fract_y
_atom_site_fract_z
Si Si1 0.559084 0.828163 0.250000
Si Si2 0.527368 0.856486 0.750000
Si Si3 0.702278 0.942951 0.750000
Si Si4 0.233030 0.130645 0.750000
Si Si5 0.058269 0.501692 0.250000
Si Si6 0.462835 0.716206 0.250000
Si Si7 0.330017 0.214352 0.250000
O O1 0.555682 0.857103 0.495429
O O2 0.517593 0.768753 0.250000
O O3 0.614771 0.833716 0.250000
O O4 0.521995 0.905664 0.750000
O O5 0.472642 0.803677 0.750000
O O6 0.756064 0.943662 0.750000
O O7 0.672818 0.916443 0.495806
O O8 0.713304 0.000000 0.750000
O O9 0.202165 0.101083 0.500000
O O10 0.287442 0.132087 0.750000
O O11 0.070229 0.535115 0.500000
O O12 0.000000 0.456586 0.250000
O O13 0.432463 0.716232 0.500000
#
# Coordination Sequence:
#
# PCOD8329859 Si02
#       7
#    12  12  12  12  12  12  12
#     4  10  19  31  48  69  95 123 148 179 225 273
#     4  10  19  32  50  72  92 115 150 191 227 266
#     4  10  19  30  41  56  80 109 146 191 232 262
#     4   8  16  27  42  58  73 102 146 187 217 258
#     4  10  21  38  57  72  90 123 162 199 238 277
#     4   8  16  27  44  69  95 119 140 170 220 268
#     4  10  19  31  46  62  84 119 156 183 220 278
#
# _framework density 19.590890999999999
#
# number of rings (size 3 to 8) (size 9 to 14) (size 15 to 20)
#    0.000    2.571    0.000    2.143    0.000   10.286 
#    0.000    4.286    0.000    0.000    0.000    0.000 
#    0.000    0.000    0.000  231.429    0.000    0.000 
#
# Total GULP energy -1040614.253039 kJ/mol
# GULP energy per Si atom -12388.264917 kJ/mol
# Density = 1.954630 g / cm^3
# Si number density = 19.590891 Si / 1000 Ang^3
#
#
#
# Elastic Constant Matrix: (Units=GPa)
#
#
# Indices 1 2 3 4 5 6 
#
# 1 49.7712 16.3055 14.9313 0.0000 0.0000 0.0000
# 2 16.3055 49.7712 14.9313 0.0000 0.0000 0.0000
# 3 14.9313 14.9313 199.2217 0.0000 0.0000 0.0000
# 4 0.0000 0.0000 0.0000 19.5846 0.0000 0.0000
# 5 0.0000 0.0000 0.0000 0.0000 19.5846 0.0000
# 6 0.0000 0.0000 0.0000 0.0000 0.0000 16.7329
#
#
#
# Elastic Compliance Matrix: (Units=1/GPa)
#
#
# Indices 1 2 3 4 5 6 
#
# 1 0.022773 -0.007108 -0.001174 0.000000 0.000000 0.000000
# 2 -0.007108 0.022773 -0.001174 0.000000 0.000000 0.000000
# 3 -0.001174 -0.001174 0.005196 0.000000 0.000000 0.000000
# 4 0.000000 0.000000 0.000000 0.051061 0.000000 0.000000
# 5 0.000000 0.000000 0.000000 0.000000 0.051061 0.000000
# 6 0.000000 0.000000 0.000000 0.000000 0.000000 0.059763
#
#
# Mechanical properties :
#
#
# Convention : Reuss Voigt Hill
#
# Bulk Modulus (GPa) = 31.41847 43.45559 37.43703
# Shear Modulus (GPa) = 20.64856 28.02013 24.33435
#
# Velocity S-wave (km/s) = 3.25004 3.78599 3.52820
# Velocity P-wave (km/s) = 5.49143 6.42972 5.97901
#
# Compressibility (1/GPa) = 0.03182842
#
# Stress axis : x y z
#
# Youngs Moduli (GPa) = 43.91181 43.91181 192.47367
#
# Poissons Ratio (x) = 0.31214 0.22597
# Poissons Ratio (y) = 0.31214 0.22597
# Poissons Ratio (z) = 0.05155 0.05155
#
# Static dielectric constant tensor:
#      x y z
#    x 3.089440 0.000000 0.000000 
#    y 0.000000 3.089440 0.000000 
#    z 0.000000 0.000000 5.406930 
# 
# 
# High freq. dielectric constant tensor:
#      x y z
#    x 1.711150 0.000000 0.000000 
#    y 0.000000 1.711150 0.000000 
#    z 0.000000 0.000000 1.816100 
# 
# From -- ./inp_files/176.got.cif
#   From: 2010.03.12/outbox.cif.g09.slc.cpg/sg193_1_cif.got.tgz:176.got - 2010.04.01 12:20:39.
