data_PCOD8329418
_publ_section_title
;
Structure prediction by ZEFSAII (Michael W. Deem and Ramdas Pophale) SiO2 
 PCOD8329418
Probable space group: P 6/M C C
;
_chemical_formula_sum "Si O2"
_cell_formula_units_Z 192
_cell_length_a 29.773532
_cell_length_b 29.773532
_cell_length_c 13.899000
_cell_angle_alpha 90.000000
_cell_angle_beta 90.000000
_cell_angle_gamma 120.000000
_cell_volume 10670.257539
_symmetry_space_group_name_H-M "P 6/M C C"
_symmetry_group_IT_number 192
_symmetry_cell_setting 'hexagonal'
loop_
_space_group_symop_operation_xyz
x,y,z
x-y,x,z
-y,x-y,z
-x,-y,z
-x+y,-x,z
y,-x+y,z
x-y,-y,1/2-z
-x,-x+y,1/2-z
y,x,1/2-z
-y,-x,1/2-z
-x+y,y,1/2-z
x,x-y,1/2-z
-x,-y,-z
-x+y,-x,-z
y,-x+y,-z
x,y,-z
x-y,x,-z
-y,x-y,-z
-x+y,y,1/2+z
x,x-y,1/2+z
-y,-x,1/2+z
y,x,1/2+z
x-y,-y,1/2+z
-x,-x+y,1/2+z
loop_
_atom_site_type_symbol
_atom_site_label
_atom_site_fract_x
_atom_site_fract_y
_atom_site_fract_z
Si Si1 0.216609 0.575709 0.389772
Si Si2 0.941735 0.782858 0.749045
Si Si3 0.248181 0.557069 0.108783
Si Si4 0.877588 0.281411 0.610601
Si Si5 0.040627 0.750851 0.388841
Si Si6 0.484679 0.307787 0.256259
Si Si7 0.223961 0.299418 0.111373
Si Si8 0.599377 0.825061 0.110941
O O1 0.196657 0.561326 0.500000
O O2 0.274264 0.583969 0.379241
O O3 0.224946 0.631386 0.360336
O O4 0.175360 0.530852 0.317218
O O5 0.902716 0.805432 0.750000
O O6 0.937185 0.741779 0.830467
O O7 0.924941 0.751343 0.649670
O O8 0.000000 0.831768 0.750000
O O9 0.223768 0.508275 0.179387
O O10 0.231550 0.537260 0.000000
O O11 0.878091 0.299594 0.500000
O O12 0.929409 0.279952 0.634863
O O13 0.872854 0.320576 0.687514
O O14 0.831512 0.222664 0.627258
O O15 0.046527 0.767422 0.500000
O O16 0.981095 0.708650 0.362464
O O17 0.452127 0.265123 0.334572
O O18 0.230248 0.352517 0.155306
O O19 0.214854 0.301283 0.000000
O O20 0.590524 0.832662 0.000000
#
# Coordination Sequence:
#
# PCOD8329418 Si02
#       8
#    24  24  24  24  24  24  24  24
#     4  10  20  33  48  65  86 114 150 190 228 264
#     4  10  19  30  46  68  93 122 158 199 239 277
#     4  10  20  33  48  65  86 114 150 190 228 264
#     4  10  19  29  43  65  93 123 151 178 214 264
#     4   9  18  32  49  69  94 124 157 192 228 268
#     4  12  21  30  44  63  90 123 154 181 214 263
#     4   9  18  32  49  69  94 124 157 192 228 268
#     4  10  19  29  43  65  93 123 151 178 214 264
#
# _framework density 17.993942000000001
#
# number of rings (size 3 to 8) (size 9 to 14) (size 15 to 20)
#    0.000    2.000    0.000    5.125    0.000    4.500 
#    0.000    1.250    0.000    0.125    0.000    0.000 
#    0.000    8.000    0.000   43.250    0.000    0.000 
#
# Total GULP energy -2379153.074495 kJ/mol
# GULP energy per Si atom -12391.422263 kJ/mol
# Density = 1.795299 g / cm^3
# Si number density = 17.993942 Si / 1000 Ang^3
#
#
#
# Elastic Constant Matrix: (Units=GPa)
#
#
# Indices 1 2 3 4 5 6 
#
# 1 82.9411 39.3008 32.0259 0.0000 0.0000 0.0000
# 2 39.3008 82.9411 32.0259 0.0000 0.0000 0.0000
# 3 32.0259 32.0259 60.0006 0.0000 0.0000 0.0000
# 4 0.0000 0.0000 0.0000 21.4222 0.0000 0.0000
# 5 0.0000 0.0000 0.0000 0.0000 21.4222 0.0000
# 6 0.0000 0.0000 0.0000 0.0000 0.0000 21.8202
#
#
#
# Elastic Compliance Matrix: (Units=1/GPa)
#
#
# Indices 1 2 3 4 5 6 
#
# 1 0.017136 -0.005779 -0.006062 0.000000 0.000000 0.000000
# 2 -0.005779 0.017136 -0.006062 0.000000 0.000000 0.000000
# 3 -0.006062 -0.006062 0.023138 0.000000 0.000000 0.000000
# 4 0.000000 0.000000 0.000000 0.046681 0.000000 0.000000
# 5 0.000000 0.000000 0.000000 0.000000 0.046681 0.000000
# 6 0.000000 0.000000 0.000000 0.000000 0.000000 0.045829
#
#
# Mechanical properties :
#
#
# Convention : Reuss Voigt Hill
#
# Bulk Modulus (GPa) = 46.28785 48.06535 47.17660
# Shear Modulus (GPa) = 20.86765 21.10160 20.98462
#
# Velocity S-wave (km/s) = 3.40914 3.42819 3.41868
# Velocity P-wave (km/s) = 6.42466 6.51460 6.46978
#
# Compressibility (1/GPa) = 0.02160394
#
# Stress axis : x y z
#
# Youngs Moduli (GPa) = 58.35789 58.35789 43.21980
#
# Poissons Ratio (x) = 0.33725 0.26199
# Poissons Ratio (y) = 0.33725 0.26199
# Poissons Ratio (z) = 0.35375 0.35375
#
# Static dielectric constant tensor:
#      x y z
#    x 3.271740 0.000000 0.000000 
#    y 0.000000 3.271740 0.000000 
#    z 0.000000 0.000000 3.763490 
# 
# 
# High freq. dielectric constant tensor:
#      x y z
#    x 1.666460 0.000000 0.000000 
#    y 0.000000 1.666460 0.000000 
#    z 0.000000 0.000000 1.727940 
# 
# From -- ./inp_files/3588.got.cif
#   From: 2010.03.12/outbox.cif.g09.slc.cpg/sg192_2_cif.got.tgz:3588.got - 2010.04.01 12:16:15.
