data_PCOD8329711
_publ_section_title
;
Structure prediction by ZEFSAII (Michael W. Deem and Ramdas Pophale) SiO2 
 PCOD8329711
Probable space group: P 6/M C C
;
_chemical_formula_sum "Si O2"
_cell_formula_units_Z 72
_cell_length_a 22.315946
_cell_length_b 22.315946
_cell_length_c 8.471815
_cell_angle_alpha 90.000000
_cell_angle_beta 90.000000
_cell_angle_gamma 120.000000
_cell_volume 3653.740497
_symmetry_space_group_name_H-M "P 6/M C C"
_symmetry_group_IT_number 192
_symmetry_cell_setting 'hexagonal'
loop_
_space_group_symop_operation_xyz
x,y,z
x-y,x,z
-y,x-y,z
-x,-y,z
-x+y,-x,z
y,-x+y,z
x-y,-y,1/2-z
-x,-x+y,1/2-z
y,x,1/2-z
-y,-x,1/2-z
-x+y,y,1/2-z
x,x-y,1/2-z
-x,-y,-z
-x+y,-x,-z
y,-x+y,-z
x,y,-z
x-y,x,-z
-y,x-y,-z
-x+y,y,1/2+z
x,x-y,1/2+z
-y,-x,1/2+z
y,x,1/2+z
x-y,-y,1/2+z
-x,-x+y,1/2+z
loop_
_atom_site_type_symbol
_atom_site_label
_atom_site_fract_x
_atom_site_fract_y
_atom_site_fract_z
Si Si1 0.665931 0.591056 0.313029
Si Si2 0.074983 0.795974 0.186946
Si Si3 0.795764 0.462374 0.313036
O O1 0.609370 0.609370 0.250000
O O2 0.667434 0.593870 0.500000
O O3 0.741851 0.644775 0.248829
O O4 0.643364 0.514893 0.252893
O O5 0.128300 0.871701 0.250000
O O6 0.000000 0.777127 0.250000
O O7 0.074297 0.794494 0.000000
O O8 0.742732 0.485464 0.250000
O O9 0.772278 0.386139 0.250000
O O10 0.796364 0.463057 0.500000
#
# Coordination Sequence:
#
# PCOD8329711 Si02
#       3
#    24  24  24
#     4  11  22  39  61  89 119 152 190 237 290 345
#     4  11  21  36  57  85 117 153 192 237 286 341
#     4  12  25  43  63  87 116 153 195 240 287 341
#
# _framework density 19.705832999999998
#
# number of rings (size 3 to 8) (size 9 to 14) (size 15 to 20)
#    0.000    0.667    0.000   12.333    0.000    0.667 
#    0.000    3.333    0.000    0.333    0.000    2.333 
#    0.000    0.000    0.000    0.000    0.000    0.000 
#
# Total GULP energy -893413.233305 kJ/mol
# GULP energy per Si atom -12408.517129 kJ/mol
# Density = 1.966098 g / cm^3
# Si number density = 19.705833 Si / 1000 Ang^3
#
#
#
# Elastic Constant Matrix: (Units=GPa)
#
#
# Indices 1 2 3 4 5 6 
#
# 1 100.4617 43.6935 50.4480 0.0000 0.0000 0.0000
# 2 43.6935 100.4617 50.4480 0.0000 0.0000 0.0000
# 3 50.4480 50.4480 235.1997 0.0000 0.0000 0.0000
# 4 0.0000 0.0000 0.0000 142.3189 0.0000 0.0000
# 5 0.0000 0.0000 0.0000 0.0000 142.3189 0.0000
# 6 0.0000 0.0000 0.0000 0.0000 0.0000 28.3841
#
#
#
# Elastic Compliance Matrix: (Units=1/GPa)
#
#
# Indices 1 2 3 4 5 6 
#
# 1 0.012889 -0.004727 -0.001751 0.000000 0.000000 0.000000
# 2 -0.004727 0.012889 -0.001751 0.000000 0.000000 0.000000
# 3 -0.001751 -0.001751 0.005003 0.000000 0.000000 0.000000
# 4 0.000000 0.000000 0.000000 0.007026 0.000000 0.000000
# 5 0.000000 0.000000 0.000000 0.000000 0.007026 0.000000
# 6 0.000000 0.000000 0.000000 0.000000 0.000000 0.035231
#
#
# Mechanical properties :
#
#
# Convention : Reuss Voigt Hill
#
# Bulk Modulus (GPa) = 69.81072 80.58911 75.19991
# Shear Modulus (GPa) = 49.36053 82.03996 65.70024
#
# Velocity S-wave (km/s) = 5.01030 6.45931 5.78039
# Velocity P-wave (km/s) = 8.30506 9.82930 9.09915
#
# Compressibility (1/GPa) = 0.01432445
#
# Stress axis : x y z
#
# Youngs Moduli (GPa) = 77.58600 77.58600 199.89060
#
# Poissons Ratio (x) = 0.36672 0.34996
# Poissons Ratio (y) = 0.36672 0.34996
# Poissons Ratio (z) = 0.13583 0.13583
#
# Static dielectric constant tensor:
#      x y z
#    x 3.504470 0.000000 0.000000 
#    y 0.000000 3.504470 0.000000 
#    z 0.000000 0.000000 3.812720 
# 
# 
# High freq. dielectric constant tensor:
#      x y z
#    x 1.768540 0.000000 0.000000 
#    y 0.000000 1.768540 0.000000 
#    z 0.000000 0.000000 1.798560 
# 
# From -- ./inp_files/521.got.cif
#   From: 2010.03.12/outbox.cif.g09.slc.cpg/sg192_1_cif.got.tgz:521.got - 2010.04.01 12:16:15.
