data_PCOD8329411
_publ_section_title
;
Structure prediction by ZEFSAII (Michael W. Deem and Ramdas Pophale) SiO2 
 PCOD8329411
Probable space group: P 6/M C C
;
_chemical_formula_sum "Si O2"
_cell_formula_units_Z 108
_cell_length_a 14.292276
_cell_length_b 14.292276
_cell_length_c 28.886615
_cell_angle_alpha 90.000000
_cell_angle_beta 90.000000
_cell_angle_gamma 120.000000
_cell_volume 5110.107937
_symmetry_space_group_name_H-M "P 6/M C C"
_symmetry_group_IT_number 192
_symmetry_cell_setting 'hexagonal'
loop_
_space_group_symop_operation_xyz
x,y,z
x-y,x,z
-y,x-y,z
-x,-y,z
-x+y,-x,z
y,-x+y,z
x-y,-y,1/2-z
-x,-x+y,1/2-z
y,x,1/2-z
-y,-x,1/2-z
-x+y,y,1/2-z
x,x-y,1/2-z
-x,-y,-z
-x+y,-x,-z
y,-x+y,-z
x,y,-z
x-y,x,-z
-y,x-y,-z
-x+y,y,1/2+z
x,x-y,1/2+z
-y,-x,1/2+z
y,x,1/2+z
x-y,-y,1/2+z
-x,-x+y,1/2+z
loop_
_atom_site_type_symbol
_atom_site_label
_atom_site_fract_x
_atom_site_fract_y
_atom_site_fract_z
Si Si1 0.112821 0.411394 0.777598
Si Si2 0.561337 0.121849 0.858058
Si Si3 0.235972 0.533415 0.500000
Si Si4 0.248594 0.163601 0.854628
Si Si5 0.226064 0.773314 0.903608
O O1 0.224620 0.449240 0.750000
O O2 0.133068 0.516011 0.807928
O O3 0.097731 0.310033 0.806921
O O4 0.000000 0.371415 0.750000
O O5 0.473528 0.161764 0.861294
O O6 0.648855 0.191713 0.897304
O O7 0.500000 0.000000 0.874453
O O8 0.366113 0.580082 0.500000
O O9 0.184274 0.459944 0.545551
O O10 0.156287 0.192783 0.858846
O O11 0.335170 0.213270 0.896419
#
# Coordination Sequence:
#
# PCOD8329411 Si02
#       5
#    24  24  12  24  24
#     4  11  23  42  65  93 129 170 223 277 332 388
#     4  11  24  41  64  91 133 175 218 264 332 403
#     4  10  18  38  66 102 134 168 224 264 318 414
#     4  11  23  42  67  92 128 172 227 281 337 391
#     4  11  21  42  66  98 135 176 207 275 337 394
#
# _framework density 21.134585000000001
#
# number of rings (size 3 to 8) (size 9 to 14) (size 15 to 20)
#    0.222    0.889    4.444    3.333    3.111    0.444 
#    0.000    5.556    0.000    0.000    0.000    1.556 
#    0.000    0.000    0.000    0.000    0.000    0.000 
#
# Total GULP energy -1338364.233469 kJ/mol
# GULP energy per Si atom -12392.261421 kJ/mol
# Density = 2.108648 g / cm^3
# Si number density = 21.134585 Si / 1000 Ang^3
#
#
#
# Elastic Constant Matrix: (Units=GPa)
#
#
# Indices 1 2 3 4 5 6 
#
# 1 85.4138 13.4865 40.5404 0.0000 0.0000 0.0000
# 2 13.4865 85.4138 40.5404 0.0000 0.0000 0.0000
# 3 40.5404 40.5404 117.7991 0.0000 0.0000 0.0000
# 4 0.0000 0.0000 0.0000 19.7314 0.0000 0.0000
# 5 0.0000 0.0000 0.0000 0.0000 19.7314 0.0000
# 6 0.0000 0.0000 0.0000 0.0000 0.0000 35.9637
#
#
#
# Elastic Compliance Matrix: (Units=1/GPa)
#
#
# Indices 1 2 3 4 5 6 
#
# 1 0.013994 0.000091 -0.004847 0.000000 0.000000 0.000000
# 2 0.000091 0.013994 -0.004847 0.000000 0.000000 0.000000
# 3 -0.004847 -0.004847 0.011825 0.000000 0.000000 0.000000
# 4 0.000000 0.000000 0.000000 0.050681 0.000000 0.000000
# 5 0.000000 0.000000 0.000000 0.000000 0.050681 0.000000
# 6 0.000000 0.000000 0.000000 0.000000 0.000000 0.027806
#
#
# Mechanical properties :
#
#
# Convention : Reuss Voigt Hill
#
# Bulk Modulus (GPa) = 48.52887 53.08458 50.80672
# Shear Modulus (GPa) = 25.63353 28.02257 26.82805
#
# Velocity S-wave (km/s) = 3.48641 3.64526 3.56672
# Velocity P-wave (km/s) = 6.26246 6.54898 6.40732
#
# Compressibility (1/GPa) = 0.02060629
#
# Stress axis : x y z
#
# Youngs Moduli (GPa) = 71.45882 71.45882 84.56314
#
# Poissons Ratio (x) = -0.00651 0.40991
# Poissons Ratio (y) = -0.00651 0.40991
# Poissons Ratio (z) = 0.34639 0.34639
#
# Static dielectric constant tensor:
#      x y z
#    x 3.970500 0.000000 0.000000 
#    y 0.000000 3.970500 0.000000 
#    z 0.000000 0.000000 3.601810 
# 
# 
# High freq. dielectric constant tensor:
#      x y z
#    x 1.831410 0.000000 0.000000 
#    y 0.000000 1.831410 0.000000 
#    z 0.000000 0.000000 1.809900 
# 
# From -- ./inp_files/6873.got.cif
#   From: 2010.03.12/outbox.cif.g09.slc.cpg/sg192_4_cif.got.tgz:6873.got - 2010.04.01 12:16:15.
