data_PCOD8329401
_publ_section_title
;
Structure prediction by ZEFSAII (Michael W. Deem and Ramdas Pophale) SiO2 
 PCOD8329401
Probable space group: P 6/M C C
;
_chemical_formula_sum "Si O2"
_cell_formula_units_Z 168
_cell_length_a 20.918741
_cell_length_b 20.918741
_cell_length_c 24.964207
_cell_angle_alpha 90.000000
_cell_angle_beta 90.000000
_cell_angle_gamma 120.000000
_cell_volume 9460.617684
_symmetry_space_group_name_H-M "P 6/M C C"
_symmetry_group_IT_number 192
_symmetry_cell_setting 'hexagonal'
loop_
_space_group_symop_operation_xyz
x,y,z
x-y,x,z
-y,x-y,z
-x,-y,z
-x+y,-x,z
y,-x+y,z
x-y,-y,1/2-z
-x,-x+y,1/2-z
y,x,1/2-z
-y,-x,1/2-z
-x+y,y,1/2-z
x,x-y,1/2-z
-x,-y,-z
-x+y,-x,-z
y,-x+y,-z
x,y,-z
x-y,x,-z
-y,x-y,-z
-x+y,y,1/2+z
x,x-y,1/2+z
-y,-x,1/2+z
y,x,1/2+z
x-y,-y,1/2+z
-x,-x+y,1/2+z
loop_
_atom_site_type_symbol
_atom_site_label
_atom_site_fract_x
_atom_site_fract_y
_atom_site_fract_z
Si Si1 0.294169 0.080480 0.780060
Si Si2 0.280985 0.129231 0.940353
Si Si3 0.166746 0.055907 0.857620
Si Si4 0.482950 0.678138 0.937131
Si Si5 0.344222 0.819257 0.564062
Si Si6 0.084450 0.379015 0.621028
Si Si7 0.297122 0.362124 0.561272
O O1 0.319003 0.159502 0.750000
O O2 0.233426 0.078385 0.818501
O O3 0.363754 0.088548 0.815296
O O4 0.257864 0.000000 0.750000
O O5 0.200393 0.072033 0.917278
O O6 0.348547 0.129652 0.910935
O O7 0.296595 0.212452 0.937247
O O8 0.280847 0.102396 0.000000
O O9 0.130605 0.104939 0.846030
O O10 0.465657 0.741134 0.918197
O O11 0.417764 0.598972 0.918845
O O12 0.561482 0.692850 0.915212
O O13 0.488878 0.682190 0.000000
O O14 0.342972 0.835612 0.500000
O O15 0.344416 0.880643 0.603176
O O16 0.000054 0.339258 0.602944
O O17 0.327244 0.371394 0.500000
#
# Coordination Sequence:
#
# PCOD8329401 Si02
#       7
#    24  24  24  24  24  24  24
#     4  11  23  39  57  76  98 128 177 239 295 346
#     4  10  19  33  50  72 107 146 185 221 259 321
#     4  11  22  35  52  74 101 137 181 226 289 339
#     4   9  18  30  50  78 119 159 186 211 248 307
#     4  10  18  33  53  84 121 155 185 213 253 315
#     4  11  22  32  55  79 107 140 181 227 281 323
#     4  10  19  32  50  79 112 149 186 220 261 317
#
# _framework density 17.757825
#
# number of rings (size 3 to 8) (size 9 to 14) (size 15 to 20)
#    0.000    1.714    2.857    3.429    2.000    3.429 
#    0.000    2.143    0.000    0.857    0.000    7.000 
#    0.000    0.000    0.000    0.000    0.000    0.000 
#
# Total GULP energy -2081706.621377 kJ/mol
# GULP energy per Si atom -12391.110842 kJ/mol
# Density = 1.771741 g / cm^3
# Si number density = 17.757825 Si / 1000 Ang^3
#
#
#
# Elastic Constant Matrix: (Units=GPa)
#
#
# Indices 1 2 3 4 5 6 
#
# 1 87.1492 18.7413 25.0780 0.0000 0.0000 0.0000
# 2 18.7413 87.1492 25.0780 0.0000 0.0000 0.0000
# 3 25.0780 25.0780 68.5272 0.0000 0.0000 0.0000
# 4 0.0000 0.0000 0.0000 19.4916 0.0000 0.0000
# 5 0.0000 0.0000 0.0000 0.0000 19.4916 0.0000
# 6 0.0000 0.0000 0.0000 0.0000 0.0000 34.2040
#
#
#
# Elastic Compliance Matrix: (Units=1/GPa)
#
#
# Indices 1 2 3 4 5 6 
#
# 1 0.013021 -0.001597 -0.004181 0.000000 0.000000 0.000000
# 2 -0.001597 0.013021 -0.004181 0.000000 0.000000 0.000000
# 3 -0.004181 -0.004181 0.017653 0.000000 0.000000 0.000000
# 4 0.000000 0.000000 0.000000 0.051304 0.000000 0.000000
# 5 0.000000 0.000000 0.000000 0.000000 0.051304 0.000000
# 6 0.000000 0.000000 0.000000 0.000000 0.000000 0.029236
#
#
# Mechanical properties :
#
#
# Convention : Reuss Voigt Hill
#
# Bulk Modulus (GPa) = 42.05597 42.29112 42.17355
# Shear Modulus (GPa) = 24.58422 26.23264 25.40843
#
# Velocity S-wave (km/s) = 3.72481 3.84766 3.78673
# Velocity P-wave (km/s) = 6.49873 6.60352 6.55133
#
# Compressibility (1/GPa) = 0.02377784
#
# Stress axis : x y z
#
# Youngs Moduli (GPa) = 76.79869 76.79869 56.64877
#
# Poissons Ratio (x) = 0.12266 0.23683
# Poissons Ratio (y) = 0.12266 0.23683
# Poissons Ratio (z) = 0.32107 0.32107
#
# Static dielectric constant tensor:
#      x y z
#    x 3.473070 0.000000 0.000000 
#    y 0.000000 3.473070 0.000000 
#    z 0.000000 0.000000 3.331300 
# 
# 
# High freq. dielectric constant tensor:
#      x y z
#    x 1.688070 0.000000 0.000000 
#    y 0.000000 1.688070 0.000000 
#    z 0.000000 0.000000 1.650740 
# 
# From -- ./inp_files/6063.got.cif
#   From: 2010.03.12/outbox.cif.g09.slc.cpg/sg192_4_cif.got.tgz:6063.got - 2010.04.01 12:16:15.
