data_PCOD8329613
_publ_section_title
;
Structure prediction by ZEFSAII (Michael W. Deem and Ramdas Pophale) SiO2 
 PCOD8329613
Probable space group: P 6/M C C
;
_chemical_formula_sum "Si O2"
_cell_formula_units_Z 116
_cell_length_a 19.712382
_cell_length_b 19.712382
_cell_length_c 15.548559
_cell_angle_alpha 90.000000
_cell_angle_beta 90.000000
_cell_angle_gamma 120.000000
_cell_volume 5232.376553
_symmetry_space_group_name_H-M "P 6/M C C"
_symmetry_group_IT_number 192
_symmetry_cell_setting 'hexagonal'
loop_
_space_group_symop_operation_xyz
x,y,z
x-y,x,z
-y,x-y,z
-x,-y,z
-x+y,-x,z
y,-x+y,z
x-y,-y,1/2-z
-x,-x+y,1/2-z
y,x,1/2-z
-y,-x,1/2-z
-x+y,y,1/2-z
x,x-y,1/2-z
-x,-y,-z
-x+y,-x,-z
y,-x+y,-z
x,y,-z
x-y,x,-z
-y,x-y,-z
-x+y,y,1/2+z
x,x-y,1/2+z
-y,-x,1/2+z
y,x,1/2+z
x-y,-y,1/2+z
-x,-x+y,1/2+z
loop_
_atom_site_type_symbol
_atom_site_label
_atom_site_fract_x
_atom_site_fract_y
_atom_site_fract_z
Si Si1 0.333333 0.666667 0.351318
Si Si2 0.934113 0.605204 0.098558
Si Si3 0.116560 0.687144 0.901028
Si Si4 0.813555 0.915301 0.000000
Si Si5 0.432582 0.834659 0.599276
Si Si6 0.695143 0.841243 0.844951
O O1 0.333334 0.666667 0.250000
O O2 0.336772 0.592220 0.387577
O O3 0.886975 0.518518 0.141013
O O4 0.917139 0.667198 0.145666
O O5 0.024294 0.634369 0.108247
O O6 0.907917 0.601808 0.000000
O O7 0.150508 0.634455 0.859497
O O8 0.148890 0.767732 0.849831
O O9 0.142561 0.708974 0.000000
O O10 0.863756 0.871871 0.000000
O O11 0.759659 0.893715 0.084517
O O12 0.439433 0.858657 0.500000
O O13 0.733017 0.866509 0.750000
#
# Coordination Sequence:
#
# PCOD8329613 Si02
#       6
#     8  24  24  12  24  24
#     4  12  25  38  52  75 115 164 211 258 310 368
#     4  10  20  38  63  93 128 167 213 266 322 377
#     4  10  20  38  63  93 128 167 213 266 322 377
#     4  12  27  50  76 102 132 166 210 268 340 418
#     4  10  21  37  61  89 122 168 221 272 320 373
#     4  12  25  42  69 102 136 176 221 268 322 394
#
# _framework density 22.169657999999998
#
# number of rings (size 3 to 8) (size 9 to 14) (size 15 to 20)
#    0.000    1.241    2.069    3.828    0.000   12.414 
#    0.000    0.000    0.000    4.966    0.000    0.000 
#    0.000    0.000    0.000    0.000    0.000    0.000 
#
# Total GULP energy -1438800.221383 kJ/mol
# GULP energy per Si atom -12403.450184 kJ/mol
# Density = 2.211920 g / cm^3
# Si number density = 22.169658 Si / 1000 Ang^3
#
#
#
# Elastic Constant Matrix: (Units=GPa)
#
#
# Indices 1 2 3 4 5 6 
#
# 1 91.2619 8.0166 20.0471 0.0000 0.0000 0.0000
# 2 8.0166 91.2615 20.0471 0.0001 0.0001 0.0000
# 3 20.0471 20.0471 93.3115 0.0000 0.0001 0.0000
# 4 0.0000 0.0001 0.0000 4.7239 0.0000 0.0000
# 5 0.0000 0.0001 0.0001 0.0000 4.7240 0.0000
# 6 0.0000 0.0000 0.0000 0.0000 0.0000 41.6228
#
#
#
# Elastic Compliance Matrix: (Units=1/GPa)
#
#
# Indices 1 2 3 4 5 6 
#
# 1 0.011521 -0.000492 -0.002370 0.000000 0.000000 0.000000
# 2 -0.000492 0.011521 -0.002370 0.000000 0.000000 0.000000
# 3 -0.002370 -0.002370 0.011735 0.000000 0.000000 0.000000
# 4 0.000000 0.000000 0.000000 0.211691 -0.000002 0.000000
# 5 0.000000 0.000000 0.000000 -0.000002 0.211684 0.000000
# 6 0.000000 0.000000 0.000000 0.000000 0.000000 0.024025
#
#
# Mechanical properties :
#
#
# Convention : Reuss Voigt Hill
#
# Bulk Modulus (GPa) = 41.12543 41.33960 41.23252
# Shear Modulus (GPa) = 9.98512 25.39573 17.69043
#
# Velocity S-wave (km/s) = 2.12456 3.38822 2.82788
# Velocity P-wave (km/s) = 4.96074 5.83045 5.41309
#
# Compressibility (1/GPa) = 0.02431585
#
# Stress axis : x y z
#
# Youngs Moduli (GPa) = 86.79667 86.79628 85.21534
#
# Poissons Ratio (x) = 0.04266 0.20193
# Poissons Ratio (y) = 0.04266 0.20193
# Poissons Ratio (z) = 0.20567 0.20568
#
# Static dielectric constant tensor:
#      x y z
#    x 4.039570 0.000000 0.000000 
#    y 0.000000 4.039570 0.000000 
#    z 0.000000 0.000000 3.783720 
# 
# 
# High freq. dielectric constant tensor:
#      x y z
#    x 1.880760 0.000000 0.000000 
#    y 0.000000 1.880760 0.000000 
#    z 0.000000 0.000000 1.847720 
# 
# From -- ./inp_files/2989.got.cif
#   From: 2010.03.12/outbox.cif.g09.slc.cpg/sg192_2_cif.got.tgz:2989.got - 2010.04.01 12:16:15.
