data_PCOD8329716
_publ_section_title
;
Structure prediction by ZEFSAII (Michael W. Deem and Ramdas Pophale) SiO2 
 PCOD8329716
Probable space group: P 6/M C C
;
_chemical_formula_sum "Si O2"
_cell_formula_units_Z 92
_cell_length_a 21.107658
_cell_length_b 21.107658
_cell_length_c 14.620634
_cell_angle_alpha 90.000000
_cell_angle_beta 90.000000
_cell_angle_gamma 120.000000
_cell_volume 5641.270632
_symmetry_space_group_name_H-M "P 6/M C C"
_symmetry_group_IT_number 192
_symmetry_cell_setting 'hexagonal'
loop_
_space_group_symop_operation_xyz
x,y,z
x-y,x,z
-y,x-y,z
-x,-y,z
-x+y,-x,z
y,-x+y,z
x-y,-y,1/2-z
-x,-x+y,1/2-z
y,x,1/2-z
-y,-x,1/2-z
-x+y,y,1/2-z
x,x-y,1/2-z
-x,-y,-z
-x+y,-x,-z
y,-x+y,-z
x,y,-z
x-y,x,-z
-y,x-y,-z
-x+y,y,1/2+z
x,x-y,1/2+z
-y,-x,1/2+z
y,x,1/2+z
x-y,-y,1/2+z
-x,-x+y,1/2+z
loop_
_atom_site_type_symbol
_atom_site_label
_atom_site_fract_x
_atom_site_fract_y
_atom_site_fract_z
Si Si1 0.260332 0.504984 0.148277
Si Si2 0.106338 0.663088 0.600045
Si Si3 0.333334 0.666668 0.392296
Si Si4 0.896727 0.411333 0.102743
Si Si5 0.000000 0.403902 0.250000
O O1 0.238009 0.476018 0.250000
O O2 0.186070 0.450055 0.093944
O O3 0.275117 0.587187 0.143689
O O4 0.330134 0.502464 0.111121
O O5 0.068848 0.654741 0.500000
O O6 0.123342 0.597541 0.620525
O O7 0.055756 0.664458 0.684521
O O8 0.333334 0.666668 0.500000
O O9 0.957798 0.425455 0.176512
O O10 0.928308 0.418723 0.000000
#
# Coordination Sequence:
#
# PCOD8329716 Si02
#       5
#    24  24   8  24  12
#     4  12  22  34  50  69  87 113 144 183 234 279
#     4  11  22  35  50  67  88 113 143 180 223 272
#     4  12  22  32  46  66  91 110 139 184 239 286
#     4  11  22  35  50  67  88 113 143 180 223 272
#     4  12  23  36  48  64  86 118 148 172 210 271
#
# _framework density 16.308382999999999
#
# number of rings (size 3 to 8) (size 9 to 14) (size 15 to 20)
#    0.000    0.522    5.217    6.261    0.000    2.087 
#    0.000    0.000    0.000    0.000    0.000    0.000 
#    0.000    0.000    0.000    0.000    0.000    0.000 
#
# Total GULP energy -1139812.387877 kJ/mol
# GULP energy per Si atom -12389.265086 kJ/mol
# Density = 1.627126 g / cm^3
# Si number density = 16.308383 Si / 1000 Ang^3
#
#
#
# Elastic Constant Matrix: (Units=GPa)
#
#
# Indices 1 2 3 4 5 6 
#
# 1 49.5182 19.7325 18.9439 -0.0001 0.0000 0.0000
# 2 19.7325 49.5184 18.9440 0.0000 -0.0001 0.0001
# 3 18.9439 18.9440 122.2842 -0.0002 0.0000 0.0000
# 4 -0.0001 0.0000 -0.0002 14.5437 0.0000 0.0001
# 5 0.0000 -0.0001 0.0000 0.0000 14.5437 0.0000
# 6 0.0000 0.0001 0.0000 0.0001 0.0000 14.8932
#
#
#
# Elastic Compliance Matrix: (Units=1/GPa)
#
#
# Indices 1 2 3 4 5 6 
#
# 1 0.024675 -0.008898 -0.002444 0.000000 0.000000 0.000000
# 2 -0.008898 0.024675 -0.002444 0.000000 0.000000 0.000000
# 3 -0.002444 -0.002444 0.008935 0.000000 0.000000 0.000000
# 4 0.000000 0.000000 0.000000 0.068758 0.000000 0.000000
# 5 0.000000 0.000000 0.000000 0.000000 0.068758 0.000000
# 6 0.000000 0.000000 0.000000 0.000000 0.000000 0.067145
#
#
# Mechanical properties :
#
#
# Convention : Reuss Voigt Hill
#
# Bulk Modulus (GPa) = 32.55935 37.39575 34.97755
# Shear Modulus (GPa) = 16.62473 19.70949 18.16711
#
# Velocity S-wave (km/s) = 3.19626 3.48019 3.34125
# Velocity P-wave (km/s) = 5.79910 6.25533 6.03153
#
# Compressibility (1/GPa) = 0.03071315
#
# Stress axis : x y z
#
# Youngs Moduli (GPa) = 40.52632 40.52642 111.91979
#
# Poissons Ratio (x) = 0.36060 0.27355
# Poissons Ratio (y) = 0.36059 0.27356
# Poissons Ratio (z) = 0.09905 0.09906
#
# Static dielectric constant tensor:
#      x y z
#    x 2.901290 -0.000010 0.000000 
#    y -0.000010 2.901280 0.000000 
#    z 0.000000 0.000000 3.580800 
# 
# 
# High freq. dielectric constant tensor:
#      x y z
#    x 1.579830 0.000000 0.000000 
#    y 0.000000 1.579830 0.000000 
#    z 0.000000 0.000000 1.667430 
# 
# From -- ./inp_files/2767.got.cif
#   From: 2010.03.12/outbox.cif.g09.slc.cpg/sg192_2_cif.got.tgz:2767.got - 2010.04.01 12:16:15.
