data_PCOD8329685
_publ_section_title
;
Structure prediction by ZEFSAII (Michael W. Deem and Ramdas Pophale) SiO2 
 PCOD8329685
Probable space group: P 6/M C C
;
_chemical_formula_sum "Si O2"
_cell_formula_units_Z 96
_cell_length_a 18.624854
_cell_length_b 18.624854
_cell_length_c 13.711094
_cell_angle_alpha 90.000000
_cell_angle_beta 90.000000
_cell_angle_gamma 120.000000
_cell_volume 4118.968721
_symmetry_space_group_name_H-M "P 6/M C C"
_symmetry_group_IT_number 192
_symmetry_cell_setting 'hexagonal'
loop_
_space_group_symop_operation_xyz
x,y,z
x-y,x,z
-y,x-y,z
-x,-y,z
-x+y,-x,z
y,-x+y,z
x-y,-y,1/2-z
-x,-x+y,1/2-z
y,x,1/2-z
-y,-x,1/2-z
-x+y,y,1/2-z
x,x-y,1/2-z
-x,-y,-z
-x+y,-x,-z
y,-x+y,-z
x,y,-z
x-y,x,-z
-y,x-y,-z
-x+y,y,1/2+z
x,x-y,1/2+z
-y,-x,1/2+z
y,x,1/2+z
x-y,-y,1/2+z
-x,-x+y,1/2+z
loop_
_atom_site_type_symbol
_atom_site_label
_atom_site_fract_x
_atom_site_fract_y
_atom_site_fract_z
Si Si1 0.704063 0.132497 0.226696
Si Si2 0.859317 0.034368 0.384645
Si Si3 0.347464 0.582927 0.389341
Si Si4 0.020726 0.331441 0.612477
O O1 0.795893 0.204108 0.250000
O O2 0.645670 0.167588 0.187142
O O3 0.708712 0.075452 0.140969
O O4 0.663467 0.077663 0.324031
O O5 0.838286 0.945397 0.339516
O O6 0.867914 0.031002 0.500000
O O7 0.784467 0.050797 0.360217
O O8 0.420112 0.678520 0.372545
O O9 0.350742 0.555184 0.500000
O O10 0.033266 0.356759 0.500000
#
# Coordination Sequence:
#
# PCOD8329685 Si02
#       4
#    24  24  24  24
#     4  11  22  36  63  96 128 170 221 277 327 391
#     4   9  16  28  49  78 117 164 217 275 328 377
#     4   8  18  39  69 104 131 154 195 263 339 402
#     4  10  22  38  56  88 135 184 226 268 331 406
#
# _framework density 23.306805000000001
#
# number of rings (size 3 to 8) (size 9 to 14) (size 15 to 20)
#    0.500    2.000    0.000    2.500    0.000    6.000 
#    0.000    0.000    0.000   13.500    0.000   29.750 
#    0.000    0.000    0.000    0.000    0.000    0.500 
#
# Total GULP energy -1189998.157202 kJ/mol
# GULP energy per Si atom -12395.814138 kJ/mol
# Density = 2.325376 g / cm^3
# Si number density = 23.306805 Si / 1000 Ang^3
#
#
#
# Elastic Constant Matrix: (Units=GPa)
#
#
# Indices 1 2 3 4 5 6 
#
# 1 78.5259 29.2013 46.7641 0.0000 0.0000 0.0000
# 2 29.2013 78.5259 46.7641 0.0000 0.0000 0.0000
# 3 46.7641 46.7641 136.1910 0.0000 0.0000 0.0000
# 4 0.0000 0.0000 0.0000 31.7471 0.0000 0.0000
# 5 0.0000 0.0000 0.0000 0.0000 31.7471 0.0000
# 6 0.0000 0.0000 0.0000 0.0000 0.0000 24.6623
#
#
#
# Elastic Compliance Matrix: (Units=1/GPa)
#
#
# Indices 1 2 3 4 5 6 
#
# 1 0.016750 -0.003524 -0.004541 0.000000 0.000000 0.000000
# 2 -0.003524 0.016750 -0.004541 0.000000 0.000000 0.000000
# 3 -0.004541 -0.004541 0.010461 0.000000 0.000000 0.000000
# 4 0.000000 0.000000 0.000000 0.031499 0.000000 0.000000
# 5 0.000000 0.000000 0.000000 0.000000 0.031499 0.000000
# 6 0.000000 0.000000 0.000000 0.000000 0.000000 0.040548
#
#
# Mechanical properties :
#
#
# Convention : Reuss Voigt Hill
#
# Bulk Modulus (GPa) = 53.34147 59.85577 56.59862
# Shear Modulus (GPa) = 27.93790 28.99887 28.46838
#
# Velocity S-wave (km/s) = 3.46598 3.53118 3.49873
# Velocity P-wave (km/s) = 6.24129 6.50869 6.37639
#
# Compressibility (1/GPa) = 0.01874714
#
# Stress axis : x y z
#
# Youngs Moduli (GPa) = 59.70290 59.70290 95.59065
#
# Poissons Ratio (x) = 0.21041 0.43410
# Poissons Ratio (y) = 0.21041 0.43410
# Poissons Ratio (z) = 0.27112 0.27112
#
# Static dielectric constant tensor:
#      x y z
#    x 3.982100 0.000000 0.000000 
#    y 0.000000 3.982100 0.000000 
#    z 0.000000 0.000000 4.167570 
# 
# 
# High freq. dielectric constant tensor:
#      x y z
#    x 1.901960 0.000000 0.000000 
#    y 0.000000 1.901960 0.000000 
#    z 0.000000 0.000000 1.938500 
# 
# From -- ./inp_files/2731.got.cif
#   From: 2010.03.12/outbox.cif.g09.slc.cpg/sg192_2_cif.got.tgz:2731.got - 2010.04.01 12:16:15.
