data_PCOD8329276
_publ_section_title
;
Structure prediction by ZEFSAII (Michael W. Deem and Ramdas Pophale) SiO2 
 PCOD8329276
Probable space group: P 6/M M M
;
_chemical_formula_sum "Si O2"
_cell_formula_units_Z 168
_cell_length_a 21.906561
_cell_length_b 21.906561
_cell_length_c 23.044665
_cell_angle_alpha 90.000000
_cell_angle_beta 90.000000
_cell_angle_gamma 120.000000
_cell_volume 9577.440030
_symmetry_space_group_name_H-M "P 6/M M M"
_symmetry_group_IT_number 191
_symmetry_cell_setting 'hexagonal'
loop_
_space_group_symop_operation_xyz
x,y,z
x-y,x,z
-y,x-y,z
-x,-y,z
-x+y,-x,z
y,-x+y,z
x-y,-y,-z
-x,-x+y,-z
y,x,-z
-y,-x,-z
-x+y,y,-z
x,x-y,-z
-x,-y,-z
-x+y,-x,-z
y,-x+y,-z
x,y,-z
x-y,x,-z
-y,x-y,-z
-x+y,y,z
x,x-y,z
-y,-x,z
y,x,z
x-y,-y,z
-x,-x+y,z
loop_
_atom_site_type_symbol
_atom_site_label
_atom_site_fract_x
_atom_site_fract_y
_atom_site_fract_z
Si Si1 0.081188 0.295124 0.818755
Si Si2 0.846952 0.554566 0.772013
Si Si3 0.918267 0.527152 0.871547
Si Si4 0.080284 0.429000 0.432171
Si Si5 0.211181 0.288058 0.431039
Si Si6 0.474336 0.808489 0.654958
Si Si7 0.357593 0.082404 0.062662
O O1 0.131723 0.263445 0.801527
O O2 0.098089 0.361519 0.777730
O O3 0.101315 0.321142 0.885476
O O4 0.000000 0.235222 0.810953
O O5 0.769006 0.538012 0.790205
O O6 0.871583 0.512579 0.813954
O O7 0.846881 0.528784 0.707221
O O8 0.906962 0.453481 0.895648
O O9 0.892224 0.561459 0.920472
O O10 0.000000 0.580327 0.855261
O O11 0.095034 0.444867 0.500000
O O12 0.091992 0.364907 0.412681
O O13 0.137104 0.498056 0.398565
O O14 0.000000 0.409166 0.417669
O O15 0.206936 0.284127 0.500000
O O16 0.137266 0.274532 0.404113
O O17 0.228612 0.228612 0.407523
O O18 0.396278 0.792555 0.671707
O O19 0.470375 0.735188 0.638042
O O20 0.317054 0.000000 0.054477
O O21 0.356773 0.116898 0.000000
#
# Coordination Sequence:
#
# PCOD8329276 Si02
#       7
#    24  24  24  24  24  24  24
#     4   9  17  30  48  69  95 126 159 197 240 286
#     4   9  18  32  48  66  89 119 156 194 230 270
#     4   9  16  26  42  64  90 118 149 189 236 285
#     4   9  19  35  53  73  95 120 155 200 245 283
#     4   8  13  23  41  63  86 113 145 180 218 261
#     4  11  23  37  53  73  99 130 161 193 231 281
#     4   8  14  24  38  60  91 123 153 187 230 279
#
# _framework density 17.541222000000001
#
# number of rings (size 3 to 8) (size 9 to 14) (size 15 to 20)
#    0.000    3.000    0.000    3.143    0.000    3.143 
#    0.000    2.143    0.000    1.429    0.000    1.000 
#    0.000    0.000    0.000    4.429    0.000   18.571 
#
# Total GULP energy -2081866.054156 kJ/mol
# GULP energy per Si atom -12392.059846 kJ/mol
# Density = 1.750130 g / cm^3
# Si number density = 17.541222 Si / 1000 Ang^3
#
#
#
# Elastic Constant Matrix: (Units=GPa)
#
#
# Indices 1 2 3 4 5 6 
#
# 1 81.2236 42.7267 28.4409 0.0000 0.0000 0.0000
# 2 42.7267 81.2236 28.4409 0.0000 0.0000 0.0000
# 3 28.4409 28.4409 64.5117 0.0000 0.0000 0.0000
# 4 0.0000 0.0000 0.0000 12.6342 0.0000 0.0000
# 5 0.0000 0.0000 0.0000 0.0000 12.6342 0.0000
# 6 0.0000 0.0000 0.0000 0.0000 0.0000 19.2485
#
#
#
# Elastic Compliance Matrix: (Units=1/GPa)
#
#
# Indices 1 2 3 4 5 6 
#
# 1 0.018045 -0.007931 -0.004459 0.000000 0.000000 0.000000
# 2 -0.007931 0.018045 -0.004459 0.000000 0.000000 0.000000
# 3 -0.004459 -0.004459 0.019433 0.000000 0.000000 0.000000
# 4 0.000000 0.000000 0.000000 0.079150 0.000000 0.000000
# 5 0.000000 0.000000 0.000000 0.000000 0.079150 0.000000
# 6 0.000000 0.000000 0.000000 0.000000 0.000000 0.051952
#
#
# Mechanical properties :
#
#
# Convention : Reuss Voigt Hill
#
# Bulk Modulus (GPa) = 45.81906 47.35288 46.58597
# Shear Modulus (GPa) = 16.30001 17.39339 16.84670
#
# Velocity S-wave (km/s) = 3.05165 3.15234 3.10240
# Velocity P-wave (km/s) = 6.21243 6.34850 6.28083
#
# Compressibility (1/GPa) = 0.02182498
#
# Stress axis : x y z
#
# Youngs Moduli (GPa) = 55.41691 55.41691 51.45992
#
# Poissons Ratio (x) = 0.43951 0.22945
# Poissons Ratio (y) = 0.43951 0.22945
# Poissons Ratio (z) = 0.24710 0.24710
#
# Static dielectric constant tensor:
#      x y z
#    x 3.233290 0.000000 0.000000 
#    y 0.000000 3.233290 0.000000 
#    z 0.000000 0.000000 3.172290 
# 
# 
# High freq. dielectric constant tensor:
#      x y z
#    x 1.666070 0.000000 0.000000 
#    y 0.000000 1.666070 0.000000 
#    z 0.000000 0.000000 1.659880 
# 
# From -- ./inp_files/9001.got.cif
#   From: 2010.03.12/outbox.cif.g09.slc.cpg/sg191_5_cif.got.tgz:9001.got - 2010.04.01 12:09:02.
