data_PCOD8329770
_publ_section_title
;
Structure prediction by ZEFSAII (Michael W. Deem and Ramdas Pophale) SiO2 
 PCOD8329770
Probable space group: P 63/M C M
;
_chemical_formula_sum "Si O2"
_cell_formula_units_Z 192
_cell_length_a 29.516703
_cell_length_b 29.516703
_cell_length_c 15.130307
_cell_angle_alpha 90.000000
_cell_angle_beta 90.000000
_cell_angle_gamma 120.000000
_cell_volume 11416.002695
_symmetry_space_group_name_H-M "P 63/M C M"
_symmetry_group_IT_number 193
_symmetry_cell_setting 'hexagonal'
loop_
_space_group_symop_operation_xyz
x,y,z
x-y,x,1/2+z
-y,x-y,z
-x,-y,1/2+z
-x+y,-x,z
y,-x+y,1/2+z
x-y,-y,1/2-z
-x,-x+y,1/2-z
y,x,1/2-z
-y,-x,-z
-x+y,y,-z
x,x-y,-z
-x,-y,-z
-x+y,-x,1/2-z
y,-x+y,-z
x,y,1/2-z
x-y,x,-z
-y,x-y,1/2-z
-x+y,y,1/2+z
x,x-y,1/2+z
-y,-x,1/2+z
y,x,z
x-y,-y,z
-x,-x+y,z
loop_
_atom_site_type_symbol
_atom_site_label
_atom_site_fract_x
_atom_site_fract_y
_atom_site_fract_z
Si Si1 0.562087 0.227370 0.500000
Si Si2 0.462392 0.061718 1.000000
Si Si3 0.061671 0.704327 0.000000
Si Si4 0.805753 0.506436 0.345295
Si Si5 0.493564 0.194246 0.345295
Si Si6 0.761795 0.135008 0.648384
Si Si7 0.238205 0.864991 0.648384
Si Si8 0.468879 0.531122 0.148228
O O1 0.622261 0.244522 0.500000
O O2 0.557180 0.278590 0.500000
O O3 0.532491 0.190958 0.584152
O O4 0.532491 0.190958 0.415848
O O5 0.418477 0.078527 1.000000
O O6 0.496834 0.081649 0.090969
O O7 0.436121 0.000000 1.000000
O O8 0.496834 0.081649 0.909031
O O9 0.084646 0.741632 0.914068
O O10 0.000000 0.680074 0.000000
O O11 0.084647 0.741632 0.085932
O O12 0.824862 0.497527 0.250000
O O13 0.746097 0.492194 0.336907
O O14 0.840189 0.566033 0.375485
O O15 0.502473 0.175137 0.250000
O O16 0.433967 0.159811 0.375485
O O17 0.754960 0.116902 0.750000
O O18 0.822324 0.177676 0.628882
O O19 0.245040 0.883098 0.750000
O O20 0.457665 0.542335 0.250000
O O21 0.500000 0.500000 0.154964
#
# Coordination Sequence:
#
# PCOD8329770 Si02
#       8
#    24  24  24  24  24  24  24  24
#     4  10  18  26  39  61  88 114 134 161 209 269
#     4   8  16  27  38  60  86 109 143 179 214 265
#     4  11  21  30  46  75 105 122 138 183 244 284
#     4   8  15  29  48  65  77  98 139 182 212 246
#     4   8  15  29  48  65  77  98 139 182 212 246
#     4   9  18  34  55  72  87 117 159 191 219 266
#     4   9  18  34  55  72  87 117 159 191 219 266
#     4   8  13  25  44  57  71 106 151 183 208 255
#
# _framework density 16.818496
#
# number of rings (size 3 to 8) (size 9 to 14) (size 15 to 20)
#    0.000    3.125    0.000    3.500    0.000    4.000 
#    0.000    2.500   11.000    1.500    0.000    0.000 
#    0.000    0.000    0.000    0.000    0.000    0.000 
#
# Total GULP energy -2379056.795690 kJ/mol
# GULP energy per Si atom -12390.920811 kJ/mol
# Density = 1.678022 g / cm^3
# Si number density = 16.818496 Si / 1000 Ang^3
#
#
#
# Elastic Constant Matrix: (Units=GPa)
#
#
# Indices 1 2 3 4 5 6 
#
# 1 53.6543 22.2676 42.7183 0.0000 0.0000 0.0000
# 2 22.2676 53.6543 42.7183 0.0000 0.0000 0.0000
# 3 42.7183 42.7183 143.2022 0.0000 0.0000 0.0000
# 4 0.0000 0.0000 0.0000 16.4201 0.0000 0.0000
# 5 0.0000 0.0000 0.0000 0.0000 16.4201 0.0000
# 6 0.0000 0.0000 0.0000 0.0000 0.0000 15.6933
#
#
#
# Elastic Compliance Matrix: (Units=1/GPa)
#
#
# Indices 1 2 3 4 5 6 
#
# 1 0.025844 -0.006017 -0.005915 0.000000 0.000000 0.000000
# 2 -0.006017 0.025844 -0.005915 0.000000 0.000000 0.000000
# 3 -0.005915 -0.005915 0.010512 0.000000 0.000000 0.000000
# 4 0.000000 0.000000 0.000000 0.060901 0.000000 0.000000
# 5 0.000000 0.000000 0.000000 0.000000 0.060901 0.000000
# 6 0.000000 0.000000 0.000000 0.000000 0.000000 0.063721
#
#
# Mechanical properties :
#
#
# Convention : Reuss Voigt Hill
#
# Bulk Modulus (GPa) = 37.72450 51.76881 44.74666
# Shear Modulus (GPa) = 17.10859 19.22715 18.16787
#
# Velocity S-wave (km/s) = 3.19289 3.38481 3.29025
# Velocity P-wave (km/s) = 6.00598 6.79144 6.41075
#
# Compressibility (1/GPa) = 0.02650797
#
# Stress axis : x y z
#
# Youngs Moduli (GPa) = 38.69368 38.69368 95.13019
#
# Poissons Ratio (x) = 0.23281 0.56266
# Poissons Ratio (y) = 0.23281 0.56266
# Poissons Ratio (z) = 0.22886 0.22886
#
# Static dielectric constant tensor:
#      x y z
#    x 2.779960 0.000000 0.000000 
#    y 0.000000 2.779960 0.000000 
#    z 0.000000 0.000000 3.534040 
# 
# 
# High freq. dielectric constant tensor:
#      x y z
#    x 1.606220 0.000000 0.000000 
#    y 0.000000 1.606220 0.000000 
#    z 0.000000 0.000000 1.671770 
# 
# From -- ./inp_files/4481.got.cif
#   From: 2010.03.12/outbox.cif.g09.slc.cpg/sg193_3_cif.got.tgz:4481.got - 2010.04.01 12:20:39.
