data_PCOD8329168
_publ_section_title
;
Structure prediction by ZEFSAII (Michael W. Deem and Ramdas Pophale) SiO2 
 PCOD8329168
Probable space group: P 6/M M M
;
_chemical_formula_sum "Si O2"
_cell_formula_units_Z 138
_cell_length_a 31.106807
_cell_length_b 31.106807
_cell_length_c 7.888440
_cell_angle_alpha 90.000000
_cell_angle_beta 90.000000
_cell_angle_gamma 120.000000
_cell_volume 6610.474399
_symmetry_space_group_name_H-M "P 6/M M M"
_symmetry_group_IT_number 191
_symmetry_cell_setting 'hexagonal'
loop_
_space_group_symop_operation_xyz
x,y,z
x-y,x,z
-y,x-y,z
-x,-y,z
-x+y,-x,z
y,-x+y,z
x-y,-y,-z
-x,-x+y,-z
y,x,-z
-y,-x,-z
-x+y,y,-z
x,x-y,-z
-x,-y,-z
-x+y,-x,-z
y,-x+y,-z
x,y,-z
x-y,x,-z
-y,x-y,-z
-x+y,y,z
x,x-y,z
-y,-x,z
y,x,z
x-y,-y,z
-x,-x+y,z
loop_
_atom_site_type_symbol
_atom_site_label
_atom_site_fract_x
_atom_site_fract_y
_atom_site_fract_z
Si Si1 0.422799 0.944056 0.303289
Si Si2 0.940987 0.881974 0.500000
Si Si3 0.765252 0.137597 0.202157
Si Si4 0.098462 0.901539 0.201447
Si Si5 0.145820 0.471971 0.808488
Si Si6 0.762055 0.428737 0.304007
Si Si7 0.267497 0.054951 0.200525
O O1 0.410872 0.930659 0.500000
O O2 0.469109 0.938218 0.247384
O O3 0.376019 0.907034 0.193200
O O4 0.434970 0.000000 0.267113
O O5 0.916451 0.916451 0.500000
O O6 0.925163 0.850325 0.325246
O O7 0.813072 0.186929 0.267488
O O8 0.717233 0.138529 0.274683
O O9 0.768394 0.090781 0.276390
O O10 0.763562 0.134957 0.000000
O O11 0.073563 0.843949 0.249469
O O12 0.090776 0.909225 0.000000
O O13 0.186928 0.519831 0.711519
O O14 0.164480 0.476411 0.000000
O O15 0.750970 0.417344 0.500000
O O16 0.715912 0.431823 0.220134
O O17 0.766628 0.383314 0.220313
O O18 0.246972 0.000000 0.276799
O O19 0.271332 0.054222 0.000000
#
# Coordination Sequence:
#
# PCOD8329168 Si02
#       7
#    24   6  24  12  24  24  24
#     4   9  19  37  58  76  99 138 185 229 276 333
#     4  12  27  44  64  92 132 172 208 256 314 374
#     4   9  17  31  49  73 109 150 185 217 264 334
#     4  10  20  39  67  95 120 158 212 260 304 360
#     4  11  22  33  52  82 114 146 182 227 282 347
#     4  10  21  38  59  80 104 140 189 240 288 345
#     4   9  16  29  55  86 111 141 187 238 283 331
#
# _framework density 20.875961
#
# number of rings (size 3 to 8) (size 9 to 14) (size 15 to 20)
#    0.000    2.261    0.870    2.826    0.000    6.609 
#    0.000    2.609    3.826    1.565    0.000    0.000 
#    0.000    0.000    0.000    0.000    0.000    0.000 
#
# Total GULP energy -1710865.552965 kJ/mol
# GULP energy per Si atom -12397.576471 kJ/mol
# Density = 2.082845 g / cm^3
# Si number density = 20.875961 Si / 1000 Ang^3
#
#
#
# Elastic Constant Matrix: (Units=GPa)
#
#
# Indices 1 2 3 4 5 6 
#
# 1 177.2220 101.9716 17.5567 0.0000 0.0000 0.0000
# 2 101.9716 177.2220 17.5567 0.0000 0.0000 0.0000
# 3 17.5567 17.5567 34.9974 0.0000 0.0000 0.0000
# 4 0.0000 0.0000 0.0000 19.0368 0.0000 0.0000
# 5 0.0000 0.0000 0.0000 0.0000 19.0368 0.0000
# 6 0.0000 0.0000 0.0000 0.0000 0.0000 37.6252
#
#
#
# Elastic Compliance Matrix: (Units=1/GPa)
#
#
# Indices 1 2 3 4 5 6 
#
# 1 0.008556 -0.004733 -0.001918 0.000000 0.000000 0.000000
# 2 -0.004733 0.008556 -0.001918 0.000000 0.000000 0.000000
# 3 -0.001918 -0.001918 0.030498 0.000000 0.000000 0.000000
# 4 0.000000 0.000000 0.000000 0.052530 0.000000 0.000000
# 5 0.000000 0.000000 0.000000 0.000000 0.052530 0.000000
# 6 0.000000 0.000000 0.000000 0.000000 0.000000 0.026578
#
#
# Mechanical properties :
#
#
# Convention : Reuss Voigt Hill
#
# Bulk Modulus (GPa) = 32.81663 73.73457 53.27560
# Shear Modulus (GPa) = 24.20818 31.96354 28.08586
#
# Velocity S-wave (km/s) = 3.40901 3.91719 3.67191
# Velocity P-wave (km/s) = 5.59009 7.47370 6.59944
#
# Compressibility (1/GPa) = 0.03047235
#
# Stress axis : x y z
#
# Youngs Moduli (GPa) = 116.87773 116.87773 32.78939
#
# Poissons Ratio (x) = 0.55318 0.06288
# Poissons Ratio (y) = 0.55318 0.06288
# Poissons Ratio (z) = 0.22415 0.22415
#
# Static dielectric constant tensor:
#      x y z
#    x 3.971620 0.000000 0.000000 
#    y 0.000000 3.971620 0.000000 
#    z 0.000000 0.000000 3.294750 
# 
# 
# High freq. dielectric constant tensor:
#      x y z
#    x 1.826650 0.000000 0.000000 
#    y 0.000000 1.826650 0.000000 
#    z 0.000000 0.000000 1.780070 
# 
# From -- ./inp_files/2043.got.cif
#   From: 2010.03.12/outbox.cif.g09.slc.cpg/sg191_2_cif.got.tgz:2043.got - 2010.04.01 12:09:02.
