data_PCOD8329075
_publ_section_title
;
Structure prediction by ZEFSAII (Michael W. Deem and Ramdas Pophale) SiO2 
 PCOD8329075
Probable space group: P 6/M M M
;
_chemical_formula_sum "Si O2"
_cell_formula_units_Z 144
_cell_length_a 31.346661
_cell_length_b 31.346661
_cell_length_c 9.311794
_cell_angle_alpha 90.000000
_cell_angle_beta 90.000000
_cell_angle_gamma 120.000000
_cell_volume 7924.038298
_symmetry_space_group_name_H-M "P 6/M M M"
_symmetry_group_IT_number 191
_symmetry_cell_setting 'hexagonal'
loop_
_space_group_symop_operation_xyz
x,y,z
x-y,x,z
-y,x-y,z
-x,-y,z
-x+y,-x,z
y,-x+y,z
x-y,-y,-z
-x,-x+y,-z
y,x,-z
-y,-x,-z
-x+y,y,-z
x,x-y,-z
-x,-y,-z
-x+y,-x,-z
y,-x+y,-z
x,y,-z
x-y,x,-z
-y,x-y,-z
-x+y,y,z
x,x-y,z
-y,-x,z
y,x,z
x-y,-y,z
-x,-x+y,z
loop_
_atom_site_type_symbol
_atom_site_label
_atom_site_fract_x
_atom_site_fract_y
_atom_site_fract_z
Si Si1 0.520452 0.576774 0.832017
Si Si2 0.945169 0.795584 0.664390
Si Si3 0.666839 0.237303 0.671157
Si Si4 0.709958 0.766552 0.167978
Si Si5 0.664481 0.140062 0.666182
Si Si6 0.762627 0.139163 0.334354
O O1 0.465531 0.534470 0.788177
O O2 0.559155 0.559155 0.790935
O O3 0.535831 0.626687 0.748471
O O4 0.522908 0.587625 0.000000
O O5 0.941156 0.777765 0.500000
O O6 0.907921 0.815841 0.694801
O O7 0.930510 0.749198 0.765233
O O8 0.000000 0.839810 0.699278
O O9 0.668594 0.238179 0.500000
O O10 0.620544 0.241087 0.728608
O O11 0.716521 0.283480 0.732908
O O12 0.661871 0.186633 0.728500
O O13 0.725680 0.725680 0.199952
O O14 0.657445 0.749014 0.238966
O O15 0.706765 0.774136 0.000000
O O16 0.649477 0.131469 0.500000
O O17 0.719977 0.152196 0.690064
O O18 0.765496 0.126448 0.500000
O O19 0.814129 0.185872 0.284910
#
# Coordination Sequence:
#
# PCOD8329075 Si02
#       6
#    24  24  24  24  24  24
#     4   9  19  36  55  74  99 132 167 203 247 297
#     4   9  17  30  49  72  98 129 164 201 243 292
#     4   9  16  27  46  73 103 131 159 194 238 286
#     4  10  21  35  51  73  99 126 161 208 255 295
#     4  10  20  33  51  76 103 130 164 206 246 285
#     4  10  21  36  52  71 100 137 170 201 244 298
#
# _framework density 18.172552
#
# number of rings (size 3 to 8) (size 9 to 14) (size 15 to 20)
#    0.000    2.500    0.000    2.667    0.000    9.000 
#    0.000    4.167    0.000    1.667    0.000    1.167 
#    0.000    1.333    0.000    4.167    0.000    4.333 
#
# Total GULP energy -1785797.145974 kJ/mol
# GULP energy per Si atom -12401.369069 kJ/mol
# Density = 1.813119 g / cm^3
# Si number density = 18.172552 Si / 1000 Ang^3
#
#
#
# Elastic Constant Matrix: (Units=GPa)
#
#
# Indices 1 2 3 4 5 6 
#
# 1 116.8420 55.0578 41.6486 0.0000 0.0000 0.0000
# 2 55.0578 116.8420 41.6486 0.0000 0.0000 0.0000
# 3 41.6486 41.6486 55.1470 0.0000 0.0000 0.0000
# 4 0.0000 0.0000 0.0000 16.3949 0.0000 0.0000
# 5 0.0000 0.0000 0.0000 0.0000 16.3949 0.0000
# 6 0.0000 0.0000 0.0000 0.0000 0.0000 30.8921
#
#
#
# Elastic Compliance Matrix: (Units=1/GPa)
#
#
# Indices 1 2 3 4 5 6 
#
# 1 0.012680 -0.003505 -0.006929 0.000000 0.000000 0.000000
# 2 -0.003505 0.012680 -0.006929 0.000000 0.000000 0.000000
# 3 -0.006929 -0.006929 0.028600 0.000000 0.000000 0.000000
# 4 0.000000 0.000000 0.000000 0.060994 0.000000 0.000000
# 5 0.000000 0.000000 0.000000 0.000000 0.060994 0.000000
# 6 0.000000 0.000000 0.000000 0.000000 0.000000 0.032371
#
#
# Mechanical properties :
#
#
# Convention : Reuss Voigt Hill
#
# Bulk Modulus (GPa) = 51.99463 62.83790 57.41626
# Shear Modulus (GPa) = 20.04346 22.76814 21.40580
#
# Velocity S-wave (km/s) = 3.32468 3.54345 3.43581
# Velocity P-wave (km/s) = 6.58876 7.16903 6.88501
#
# Compressibility (1/GPa) = 0.01923276
#
# Stress axis : x y z
#
# Youngs Moduli (GPa) = 78.86314 78.86314 34.96540
#
# Poissons Ratio (x) = 0.27643 0.24228
# Poissons Ratio (y) = 0.27643 0.24228
# Poissons Ratio (z) = 0.54646 0.54646
#
# Static dielectric constant tensor:
#      x y z
#    x 3.385960 0.000000 0.000000 
#    y 0.000000 3.385960 0.000000 
#    z 0.000000 0.000000 3.143730 
# 
# 
# High freq. dielectric constant tensor:
#      x y z
#    x 1.708220 0.000000 0.000000 
#    y 0.000000 1.708220 0.000000 
#    z 0.000000 0.000000 1.679240 
# 
# From -- ./inp_files/1974.got.cif
#   From: 2010.03.12/outbox.cif.g09.slc.cpg/sg191_1_cif.got.tgz:1974.got - 2010.04.01 12:09:02.
