data_PCOD8329088
_publ_section_title
;
Structure prediction by ZEFSAII (Michael W. Deem and Ramdas Pophale) SiO2 
 PCOD8329088
Probable space group: P 6/M M M
;
_chemical_formula_sum "Si O2"
_cell_formula_units_Z 156
_cell_length_a 21.890946
_cell_length_b 21.890946
_cell_length_c 21.175768
_cell_angle_alpha 90.000000
_cell_angle_beta 90.000000
_cell_angle_gamma 120.000000
_cell_volume 8788.178334
_symmetry_space_group_name_H-M "P 6/M M M"
_symmetry_group_IT_number 191
_symmetry_cell_setting 'hexagonal'
loop_
_space_group_symop_operation_xyz
x,y,z
x-y,x,z
-y,x-y,z
-x,-y,z
-x+y,-x,z
y,-x+y,z
x-y,-y,-z
-x,-x+y,-z
y,x,-z
-y,-x,-z
-x+y,y,-z
x,x-y,-z
-x,-y,-z
-x+y,-x,-z
y,-x+y,-z
x,y,-z
x-y,x,-z
-y,x-y,-z
-x+y,y,z
x,x-y,z
-y,-x,z
y,x,z
x-y,-y,z
-x,-x+y,z
loop_
_atom_site_type_symbol
_atom_site_label
_atom_site_fract_x
_atom_site_fract_y
_atom_site_fract_z
Si Si1 0.665627 0.477204 0.828617
Si Si2 0.333302 0.801296 0.425187
Si Si3 0.611067 0.688964 0.608615
Si Si4 0.919489 0.577638 0.926911
Si Si5 0.606300 0.733761 0.257032
Si Si6 0.081544 0.297809 0.500000
Si Si7 0.218674 0.920866 0.137451
O O1 0.736875 0.473750 0.841189
O O2 0.600687 0.399314 0.814045
O O3 0.646724 0.508919 0.889482
O O4 0.676684 0.529231 0.770024
O O5 0.332581 0.799403 0.500000
O O6 0.394416 0.788832 0.398118
O O7 0.259690 0.740311 0.397213
O O8 0.347221 0.875393 0.400438
O O9 0.630495 0.630495 0.588384
O O10 0.629165 0.707118 0.681955
O O11 0.653665 0.755598 0.562501
O O12 0.907031 0.643576 0.915155
O O13 0.000000 0.600648 0.906514
O O14 0.907537 0.557463 0.000000
O O15 0.603390 0.801695 0.279200
O O16 0.666180 0.753021 0.205126
O O17 0.131367 0.262733 0.500000
O O18 0.000000 0.235912 0.500000
O O19 0.135860 0.864141 0.128580
O O20 0.230760 0.000000 0.131505
#
# Coordination Sequence:
#
# PCOD8329088 Si02
#       7
#    24  24  24  24  24  12  24
#     4  10  21  36  53  74 101 134 170 207 249 299
#     4  10  20  34  51  68  90 122 162 201 235 279
#     4  11  21  33  52  78 104 129 156 198 257 311
#     4   9  18  33  53  76 101 130 167 211 253 291
#     4   9  18  33  52  71  95 127 166 208 245 287
#     4  10  20  34  53  78 107 137 167 201 246 300
#     4   9  17  30  49  73  99 128 162 202 245 289
#
# _framework density 17.751118999999999
#
# number of rings (size 3 to 8) (size 9 to 14) (size 15 to 20)
#    0.000    2.308    0.769    3.538    0.000    4.000 
#    0.000    1.538    0.000    3.000    0.000    0.000 
#    0.000    0.000    0.000    8.769    0.000    0.000 
#
# Total GULP energy -1933990.108986 kJ/mol
# GULP energy per Si atom -12397.372493 kJ/mol
# Density = 1.771072 g / cm^3
# Si number density = 17.751119 Si / 1000 Ang^3
#
#
#
# Elastic Constant Matrix: (Units=GPa)
#
#
# Indices 1 2 3 4 5 6 
#
# 1 88.4216 41.2636 19.3719 0.0000 0.0000 0.0000
# 2 41.2636 88.4216 19.3719 0.0000 0.0000 0.0000
# 3 19.3719 19.3719 67.1052 0.0000 0.0000 0.0000
# 4 0.0000 0.0000 0.0000 17.6383 0.0000 0.0000
# 5 0.0000 0.0000 0.0000 0.0000 17.6383 0.0000
# 6 0.0000 0.0000 0.0000 0.0000 0.0000 23.5790
#
#
#
# Elastic Compliance Matrix: (Units=1/GPa)
#
#
# Indices 1 2 3 4 5 6 
#
# 1 0.014822 -0.006383 -0.002436 0.000000 0.000000 0.000000
# 2 -0.006383 0.014822 -0.002436 0.000000 0.000000 0.000000
# 3 -0.002436 -0.002436 0.016308 0.000000 0.000000 0.000000
# 4 0.000000 0.000000 0.000000 0.056695 0.000000 0.000000
# 5 0.000000 0.000000 0.000000 0.000000 0.056695 0.000000
# 6 0.000000 0.000000 0.000000 0.000000 0.000000 0.042411
#
#
# Mechanical properties :
#
#
# Convention : Reuss Voigt Hill
#
# Bulk Modulus (GPa) = 42.65916 44.88479 43.77198
# Shear Modulus (GPa) = 21.54452 22.70051 22.12252
#
# Velocity S-wave (km/s) = 3.48760 3.57994 3.53407
# Velocity P-wave (km/s) = 6.34837 6.51371 6.43157
#
# Compressibility (1/GPa) = 0.02344162
#
# Stress axis : x y z
#
# Youngs Moduli (GPa) = 67.46704 67.46704 61.31777
#
# Poissons Ratio (x) = 0.43066 0.14938
# Poissons Ratio (y) = 0.43066 0.14938
# Poissons Ratio (z) = 0.16436 0.16436
#
# Static dielectric constant tensor:
#      x y z
#    x 3.235640 0.000000 0.000000 
#    y 0.000000 3.235640 0.000000 
#    z 0.000000 0.000000 3.287420 
# 
# 
# High freq. dielectric constant tensor:
#      x y z
#    x 1.675860 0.000000 0.000000 
#    y 0.000000 1.675860 0.000000 
#    z 0.000000 0.000000 1.686560 
# 
# From -- ./inp_files/7751.got.cif
#   From: 2010.03.12/outbox.cif.g09.slc.cpg/sg191_4_cif.got.tgz:7751.got - 2010.04.01 12:09:02.
