data_PCOD8329782
_publ_section_title
;
Structure prediction by ZEFSAII (Michael W. Deem and Ramdas Pophale) SiO2 
 PCOD8329782
Probable space group: P 63/M C M
;
_chemical_formula_sum "Si O2"
_cell_formula_units_Z 168
_cell_length_a 24.923531
_cell_length_b 24.923531
_cell_length_c 19.480271
_cell_angle_alpha 90.000000
_cell_angle_beta 90.000000
_cell_angle_gamma 120.000000
_cell_volume 10479.601457
_symmetry_space_group_name_H-M "P 63/M C M"
_symmetry_group_IT_number 193
_symmetry_cell_setting 'hexagonal'
loop_
_space_group_symop_operation_xyz
x,y,z
x-y,x,1/2+z
-y,x-y,z
-x,-y,1/2+z
-x+y,-x,z
y,-x+y,1/2+z
x-y,-y,1/2-z
-x,-x+y,1/2-z
y,x,1/2-z
-y,-x,-z
-x+y,y,-z
x,x-y,-z
-x,-y,-z
-x+y,-x,1/2-z
y,-x+y,-z
x,y,1/2-z
x-y,x,-z
-y,x-y,1/2-z
-x+y,y,1/2+z
x,x-y,1/2+z
-y,-x,1/2+z
y,x,z
x-y,-y,z
-x,-x+y,z
loop_
_atom_site_type_symbol
_atom_site_label
_atom_site_fract_x
_atom_site_fract_y
_atom_site_fract_z
Si Si1 0.602823 0.926344 0.054947
Si Si2 0.728565 0.892249 0.827417
Si Si3 0.361441 0.073500 0.094316
Si Si4 0.930937 0.862200 0.669091
Si Si5 0.926148 0.532898 0.827177
Si Si6 0.926445 0.484547 0.072601
Si Si7 0.070388 0.320738 0.824938
O O1 0.531040 0.899266 0.075344
O O2 0.627465 0.902711 0.116819
O O3 0.635505 0.000000 0.050465
O O4 0.614664 0.901672 0.982888
O O5 0.727434 0.917104 0.750000
O O6 0.682093 0.901079 0.876907
O O7 0.797872 0.924065 0.859832
O O8 0.710438 0.822011 0.823368
O O9 0.423036 0.097572 0.140458
O O10 0.321283 0.000000 0.095469
O O11 0.919699 0.852669 0.750000
O O12 0.882853 0.882853 0.638525
O O13 0.000000 0.916975 0.651801
O O14 0.900618 0.516178 0.750000
O O15 0.899717 0.468109 0.868582
O O16 0.000000 0.569262 0.829253
O O17 0.000000 0.521805 0.078571
O O18 0.904062 0.452031 0.000000
O O19 0.072982 0.350681 0.750000
O O20 0.000000 0.268475 0.842326
#
# Coordination Sequence:
#
# PCOD8329782 Si02
#       7
#    24  24  24  24  24  24  24
#     4   9  17  28  44  62  82 111 144 178 215 252
#     4  10  19  29  42  59  83 117 152 189 238 292
#     4  10  18  28  41  60  87 116 147 183 223 275
#     4   9  16  26  41  61  83 108 143 193 254 315
#     4   9  16  24  37  59  86 115 145 176 207 242
#     4   9  14  24  40  58  82 112 142 168 197 234
#     4   9  18  32  46  60  80 108 147 193 234 274
#
# _framework density 16.031144000000001
#
# number of rings (size 3 to 8) (size 9 to 14) (size 15 to 20)
#    0.000    2.714    1.429    1.429    0.000    4.857 
#    0.000    2.857    0.000    0.000    0.000    0.000 
#    0.000    0.000    0.000   11.714    3.143   19.286 
#
# Total GULP energy -2081545.105807 kJ/mol
# GULP energy per Si atom -12390.149439 kJ/mol
# Density = 1.599466 g / cm^3
# Si number density = 16.031144 Si / 1000 Ang^3
#
#
#
# Elastic Constant Matrix: (Units=GPa)
#
#
# Indices 1 2 3 4 5 6 
#
# 1 70.3146 27.9989 38.7289 0.0000 0.0000 0.0000
# 2 27.9989 70.3146 38.7289 0.0000 0.0000 0.0000
# 3 38.7289 38.7289 109.8266 0.0000 0.0000 0.0000
# 4 0.0000 0.0000 0.0000 16.4392 0.0000 0.0000
# 5 0.0000 0.0000 0.0000 0.0000 16.4392 0.0000
# 6 0.0000 0.0000 0.0000 0.0000 0.0000 21.1578
#
#
#
# Elastic Compliance Matrix: (Units=1/GPa)
#
#
# Indices 1 2 3 4 5 6 
#
# 1 0.018858 -0.004774 -0.004967 0.000000 0.000000 0.000000
# 2 -0.004774 0.018858 -0.004967 0.000000 0.000000 0.000000
# 3 -0.004967 -0.004967 0.012608 0.000000 0.000000 0.000000
# 4 0.000000 0.000000 0.000000 0.060830 0.000000 0.000000
# 5 0.000000 0.000000 0.000000 0.000000 0.060830 0.000000
# 6 0.000000 0.000000 0.000000 0.000000 0.000000 0.047264
#
#
# Mechanical properties :
#
#
# Convention : Reuss Voigt Hill
#
# Bulk Modulus (GPa) = 47.82294 51.26326 49.54310
# Shear Modulus (GPa) = 19.55925 20.47385 20.01655
#
# Velocity S-wave (km/s) = 3.49675 3.57757 3.53739
# Velocity P-wave (km/s) = 6.79699 7.00800 6.90330
#
# Compressibility (1/GPa) = 0.02091047
#
# Stress axis : x y z
#
# Youngs Moduli (GPa) = 53.02702 53.02702 79.31340
#
# Poissons Ratio (x) = 0.25313 0.39393
# Poissons Ratio (y) = 0.25313 0.39393
# Poissons Ratio (z) = 0.26337 0.26337
#
# Static dielectric constant tensor:
#      x y z
#    x 2.929260 0.000000 0.000000 
#    y 0.000000 2.929260 0.000000 
#    z 0.000000 0.000000 3.298130 
# 
# 
# High freq. dielectric constant tensor:
#      x y z
#    x 1.587930 0.000000 0.000000 
#    y 0.000000 1.587930 0.000000 
#    z 0.000000 0.000000 1.610160 
# 
# From -- ./inp_files/6812.got.cif
#   From: 2010.03.12/outbox.cif.g09.slc.cpg/sg193_4_cif.got.tgz:6812.got - 2010.04.01 12:20:39.
