data_PCOD8329001
_publ_section_title
;
Structure prediction by ZEFSAII (Michael W. Deem and Ramdas Pophale) SiO2 
 PCOD8329001
Probable space group: P 6/M M M
;
_chemical_formula_sum "Si O2"
_cell_formula_units_Z 132
_cell_length_a 17.879346
_cell_length_b 17.879346
_cell_length_c 27.698475
_cell_angle_alpha 90.000000
_cell_angle_beta 90.000000
_cell_angle_gamma 120.000000
_cell_volume 7668.134965
_symmetry_space_group_name_H-M "P 6/M M M"
_symmetry_group_IT_number 191
_symmetry_cell_setting 'hexagonal'
loop_
_space_group_symop_operation_xyz
x,y,z
x-y,x,z
-y,x-y,z
-x,-y,z
-x+y,-x,z
y,-x+y,z
x-y,-y,-z
-x,-x+y,-z
y,x,-z
-y,-x,-z
-x+y,y,-z
x,x-y,-z
-x,-y,-z
-x+y,-x,-z
y,-x+y,-z
x,y,-z
x-y,x,-z
-y,x-y,-z
-x+y,y,z
x,x-y,z
-y,-x,z
y,x,z
x-y,-y,z
-x,-x+y,z
loop_
_atom_site_type_symbol
_atom_site_label
_atom_site_fract_x
_atom_site_fract_y
_atom_site_fract_z
Si Si1 0.640961 0.903932 0.281139
Si Si2 0.507183 0.838988 0.911593
Si Si3 0.265221 0.902654 0.170834
Si Si4 0.667801 0.160752 0.363007
Si Si5 0.359602 0.096291 0.445072
Si Si6 0.633061 0.730839 0.000000
O O1 0.675254 0.837627 0.292678
O O2 0.607487 0.893668 0.226302
O O3 0.561664 0.885251 0.315374
O O4 0.720312 0.000000 0.290637
O O5 0.426676 0.853352 0.917798
O O6 0.474393 0.737197 0.914426
O O7 0.553006 0.878566 0.860623
O O8 0.575509 0.889797 0.953341
O O9 0.163951 0.836050 0.158961
O O10 0.285907 0.000000 0.159483
O O11 0.574001 0.148001 0.362787
O O12 0.738260 0.261741 0.362979
O O13 0.676040 0.114998 0.410869
O O14 0.393294 0.107165 0.500000
O O15 0.325313 0.162657 0.433419
O O16 0.280423 0.000000 0.435734
O O17 0.714288 0.714288 0.000000
O O18 0.667783 0.833892 0.000000
#
# Coordination Sequence:
#
# PCOD8329001 Si02
#       6
#    24  24  24  24  24  12
#     4   9  18  32  49  69  93 121 153 189 231 277
#     4  10  20  33  49  70  97 128 160 193 230 272
#     4   9  18  32  49  69  93 122 155 191 232 276
#     4  10  20  33  48  67  92 122 155 190 228 269
#     4   9  18  32  49  69  93 121 152 186 226 271
#     4  10  21  35  51  72  97 125 156 192 235 279
#
# _framework density 17.214093999999999
#
# number of rings (size 3 to 8) (size 9 to 14) (size 15 to 20)
#    0.000    2.545    0.000    1.727    0.000    4.364 
#    0.000    3.636    0.000    3.909    0.000    3.818 
#    0.000    8.727    0.000    0.545    0.000    0.364 
#
# Total GULP energy -1636566.550478 kJ/mol
# GULP energy per Si atom -12398.231443 kJ/mol
# Density = 1.717491 g / cm^3
# Si number density = 17.214094 Si / 1000 Ang^3
#
#
#
# Elastic Constant Matrix: (Units=GPa)
#
#
# Indices 1 2 3 4 5 6 
#
# 1 114.1835 86.2434 51.7795 0.0000 0.0000 0.0000
# 2 86.2434 114.1835 51.7795 0.0000 0.0000 0.0000
# 3 51.7795 51.7795 95.2559 0.0000 0.0000 0.0000
# 4 0.0000 0.0000 0.0000 21.8756 0.0000 0.0000
# 5 0.0000 0.0000 0.0000 0.0000 21.8756 0.0000
# 6 0.0000 0.0000 0.0000 0.0000 0.0000 13.9700
#
#
#
# Elastic Compliance Matrix: (Units=1/GPa)
#
#
# Indices 1 2 3 4 5 6 
#
# 1 0.021364 -0.014426 -0.003771 0.000000 0.000000 0.000000
# 2 -0.014426 0.021364 -0.003771 0.000000 0.000000 0.000000
# 3 -0.003771 -0.003771 0.014598 0.000000 0.000000 0.000000
# 4 0.000000 0.000000 0.000000 0.045713 0.000000 0.000000
# 5 0.000000 0.000000 0.000000 0.000000 0.045713 0.000000
# 6 0.000000 0.000000 0.000000 0.000000 0.000000 0.071582
#
#
# Mechanical properties :
#
#
# Convention : Reuss Voigt Hill
#
# Bulk Modulus (GPa) = 74.69026 78.13644 76.41335
# Shear Modulus (GPa) = 18.60561 20.46561 19.53561
#
# Velocity S-wave (km/s) = 3.29117 3.45176 3.37243
# Velocity P-wave (km/s) = 7.61089 7.83427 7.72339
#
# Compressibility (1/GPa) = 0.01338863
#
# Stress axis : x y z
#
# Youngs Moduli (GPa) = 46.80673 46.80673 68.50180
#
# Poissons Ratio (x) = 0.67526 0.25835
# Poissons Ratio (y) = 0.67526 0.25835
# Poissons Ratio (z) = 0.17653 0.17653
#
# Static dielectric constant tensor:
#      x y z
#    x 3.170670 0.000000 0.000000 
#    y 0.000000 3.170670 0.000000 
#    z 0.000000 0.000000 3.488580 
# 
# 
# High freq. dielectric constant tensor:
#      x y z
#    x 1.651580 0.000000 0.000000 
#    y 0.000000 1.651580 0.000000 
#    z 0.000000 0.000000 1.686170 
# 
# From -- ./inp_files/9755.got.cif
#   From: 2010.03.12/outbox.cif.g09.slc.cpg/sg191_5_cif.got.tgz:9755.got - 2010.04.01 12:09:02.
