data_PCOD8329481
_publ_section_title
;
Structure prediction by ZEFSAII (Michael W. Deem and Ramdas Pophale) SiO2 
 PCOD8329481
Probable space group: P 6/M C C
;
_chemical_formula_sum "Si O2"
_cell_formula_units_Z 144
_cell_length_a 32.508043
_cell_length_b 32.508043
_cell_length_c 8.659475
_cell_angle_alpha 90.000000
_cell_angle_beta 90.000000
_cell_angle_gamma 120.000000
_cell_volume 7925.083478
_symmetry_space_group_name_H-M "P 6/M C C"
_symmetry_group_IT_number 192
_symmetry_cell_setting 'hexagonal'
loop_
_space_group_symop_operation_xyz
x,y,z
x-y,x,z
-y,x-y,z
-x,-y,z
-x+y,-x,z
y,-x+y,z
x-y,-y,1/2-z
-x,-x+y,1/2-z
y,x,1/2-z
-y,-x,1/2-z
-x+y,y,1/2-z
x,x-y,1/2-z
-x,-y,-z
-x+y,-x,-z
y,-x+y,-z
x,y,-z
x-y,x,-z
-y,x-y,-z
-x+y,y,1/2+z
x,x-y,1/2+z
-y,-x,1/2+z
y,x,1/2+z
x-y,-y,1/2+z
-x,-x+y,1/2+z
loop_
_atom_site_type_symbol
_atom_site_label
_atom_site_fract_x
_atom_site_fract_y
_atom_site_fract_z
Si Si1 0.382969 0.432064 0.818339
Si Si2 0.473478 0.616148 0.315627
Si Si3 0.242603 0.666982 0.684744
Si Si4 0.808440 0.702313 0.318406
Si Si5 0.289670 0.951555 0.318272
Si Si6 0.948527 0.138156 0.317610
O O1 0.426453 0.426453 0.750000
O O2 0.381585 0.478202 0.758986
O O3 0.333358 0.387940 0.762982
O O4 0.389028 0.433998 0.000000
O O5 0.432987 0.567014 0.250000
O O6 0.470532 0.618381 0.500000
O O7 0.467069 0.658437 0.242222
O O8 0.282637 0.717364 0.750000
O O9 0.251473 0.625737 0.750000
O O10 0.244342 0.666714 0.500000
O O11 0.842326 0.684652 0.250000
O O12 0.807363 0.697994 0.500000
O O13 0.757484 0.665893 0.250152
O O14 0.825948 0.756227 0.265170
O O15 0.285841 0.952510 0.500000
O O16 0.295258 0.000000 0.250000
O O17 0.913883 0.086117 0.250000
O O18 0.949774 0.134727 0.500000
O O19 0.000000 0.155900 0.250000
#
# Coordination Sequence:
#
# PCOD8329481 Si02
#       6
#    24  24  24  24  24  24
#     4   9  20  36  55  77 104 136 174 217 261 310
#     4  10  20  36  55  79 108 139 175 218 265 313
#     4  11  21  35  55  81 110 142 177 216 259 309
#     4  10  20  33  50  74 102 133 166 205 249 298
#     4  10  19  33  52  74  99 131 168 208 251 299
#     4  10  20  33  50  72  99 128 161 199 244 292
#
# _framework density 18.170155999999999
#
# number of rings (size 3 to 8) (size 9 to 14) (size 15 to 20)
#    0.000    2.000    0.000    5.167    0.000    5.667 
#    0.000    2.500    0.000    0.167    0.000    1.167 
#    0.000    0.000    0.000    0.000    0.000    0.000 
#
# Total GULP energy -1785730.028968 kJ/mol
# GULP energy per Si atom -12400.902979 kJ/mol
# Density = 1.812880 g / cm^3
# Si number density = 18.170156 Si / 1000 Ang^3
#
#
#
# Elastic Constant Matrix: (Units=GPa)
#
#
# Indices 1 2 3 4 5 6 
#
# 1 133.3585 62.8328 42.8648 0.0000 0.0000 0.0000
# 2 62.8328 133.3585 42.8648 0.0000 0.0000 0.0000
# 3 42.8648 42.8648 86.3991 0.0000 0.0000 0.0000
# 4 0.0000 0.0000 0.0000 30.8454 0.0000 0.0000
# 5 0.0000 0.0000 0.0000 0.0000 30.8454 0.0000
# 6 0.0000 0.0000 0.0000 0.0000 0.0000 35.2628
#
#
#
# Elastic Compliance Matrix: (Units=1/GPa)
#
#
# Indices 1 2 3 4 5 6 
#
# 1 0.010344 -0.003836 -0.003229 0.000000 0.000000 0.000000
# 2 -0.003836 0.010344 -0.003229 0.000000 0.000000 0.000000
# 3 -0.003229 -0.003229 0.014778 0.000000 0.000000 0.000000
# 4 0.000000 0.000000 0.000000 0.032420 0.000000 0.000000
# 5 0.000000 0.000000 0.000000 0.000000 0.032420 0.000000
# 6 0.000000 0.000000 0.000000 0.000000 0.000000 0.028358
#
#
# Mechanical properties :
#
#
# Convention : Reuss Voigt Hill
#
# Bulk Modulus (GPa) = 67.20980 72.24901 69.72941
# Shear Modulus (GPa) = 32.42355 33.02765 32.72560
#
# Velocity S-wave (km/s) = 4.22885 4.26806 4.24850
# Velocity P-wave (km/s) = 7.80472 8.00857 7.90730
#
# Compressibility (1/GPa) = 0.01487878
#
# Stress axis : x y z
#
# Youngs Moduli (GPa) = 96.67830 96.67830 67.66842
#
# Poissons Ratio (x) = 0.37082 0.21848
# Poissons Ratio (y) = 0.37082 0.21848
# Poissons Ratio (z) = 0.31215 0.31215
#
# Static dielectric constant tensor:
#      x y z
#    x 3.474800 0.000000 0.000000 
#    y 0.000000 3.474800 0.000000 
#    z 0.000000 0.000000 3.466260 
# 
# 
# High freq. dielectric constant tensor:
#      x y z
#    x 1.699370 0.000000 0.000000 
#    y 0.000000 1.699370 0.000000 
#    z 0.000000 0.000000 1.718170 
# 
# From -- ./inp_files/1185.got.cif
#   From: 2010.03.12/outbox.cif.g09.slc.cpg/sg192_1_cif.got.tgz:1185.got - 2010.04.01 12:16:15.
