data_PCOD8329350
_publ_section_title
;
Structure prediction by ZEFSAII (Michael W. Deem and Ramdas Pophale) SiO2 
 PCOD8329350
Probable space group: P 6/M C C
;
_chemical_formula_sum "Si O2"
_cell_formula_units_Z 72
_cell_length_a 24.350375
_cell_length_b 24.350375
_cell_length_c 8.520534
_cell_angle_alpha 90.000000
_cell_angle_beta 90.000000
_cell_angle_gamma 120.000000
_cell_volume 4375.309234
_symmetry_space_group_name_H-M "P 6/M C C"
_symmetry_group_IT_number 192
_symmetry_cell_setting 'hexagonal'
loop_
_space_group_symop_operation_xyz
x,y,z
x-y,x,z
-y,x-y,z
-x,-y,z
-x+y,-x,z
y,-x+y,z
x-y,-y,1/2-z
-x,-x+y,1/2-z
y,x,1/2-z
-y,-x,1/2-z
-x+y,y,1/2-z
x,x-y,1/2-z
-x,-y,-z
-x+y,-x,-z
y,-x+y,-z
x,y,-z
x-y,x,-z
-y,x-y,-z
-x+y,y,1/2+z
x,x-y,1/2+z
-y,-x,1/2+z
y,x,1/2+z
x-y,-y,1/2+z
-x,-x+y,1/2+z
loop_
_atom_site_type_symbol
_atom_site_label
_atom_site_fract_x
_atom_site_fract_y
_atom_site_fract_z
Si Si1 0.814577 0.744157 0.314244
Si Si2 0.409002 0.480165 0.314243
Si Si3 0.298519 0.929153 0.686074
O O1 0.788859 0.788859 0.250000
O O2 0.885587 0.771174 0.250000
O O3 0.813859 0.745391 0.500000
O O4 0.772551 0.671290 0.253268
O O5 0.444646 0.444646 0.250000
O O6 0.447209 0.552792 0.250000
O O7 0.408732 0.480209 0.500000
O O8 0.336350 0.442206 0.249567
O O9 0.296796 0.927853 0.500000
O O10 0.335274 0.000000 0.750000
#
# Coordination Sequence:
#
# PCOD8329350 Si02
#       3
#    24  24  24
#     4  11  21  35  52  72  93 118 149 188 234 288
#     4  10  16  23  34  52  78 111 146 179 208 241
#     4  10  17  27  41  60  84 113 145 180 217 261
#
# _framework density 16.45598
#
# number of rings (size 3 to 8) (size 9 to 14) (size 15 to 20)
#    0.000    1.667    0.000   14.000    0.000    0.000 
#    0.000    0.000    0.000    0.333    0.000    2.333 
#    0.000    0.000    0.000    1.000    0.000   14.667 
#
# Total GULP energy -892212.451560 kJ/mol
# GULP energy per Si atom -12391.839605 kJ/mol
# Density = 1.641853 g / cm^3
# Si number density = 16.455980 Si / 1000 Ang^3
#
#
#
# Elastic Constant Matrix: (Units=GPa)
#
#
# Indices 1 2 3 4 5 6 
#
# 1 78.0849 44.7347 45.7518 0.0000 0.0000 0.0000
# 2 44.7347 78.0849 45.7518 0.0000 0.0000 0.0000
# 3 45.7518 45.7518 202.4810 0.0000 0.0000 0.0000
# 4 0.0000 0.0000 0.0000 23.4281 0.0000 0.0000
# 5 0.0000 0.0000 0.0000 0.0000 23.4281 0.0000
# 6 0.0000 0.0000 0.0000 0.0000 0.0000 16.6751
#
#
#
# Elastic Compliance Matrix: (Units=1/GPa)
#
#
# Indices 1 2 3 4 5 6 
#
# 1 0.019887 -0.010097 -0.002212 0.000000 0.000000 0.000000
# 2 -0.010097 0.019887 -0.002212 0.000000 0.000000 0.000000
# 3 -0.002212 -0.002212 0.005938 0.000000 0.000000 0.000000
# 4 0.000000 0.000000 0.000000 0.042684 0.000000 0.000000
# 5 0.000000 0.000000 0.000000 0.000000 0.042684 0.000000
# 6 0.000000 0.000000 0.000000 0.000000 0.000000 0.059970
#
#
# Mechanical properties :
#
#
# Convention : Reuss Voigt Hill
#
# Bulk Modulus (GPa) = 59.98760 70.12528 65.05644
# Shear Modulus (GPa) = 22.15817 27.53378 24.84597
#
# Velocity S-wave (km/s) = 3.67347 4.09489 3.88989
# Velocity P-wave (km/s) = 7.38410 8.06622 7.73268
#
# Compressibility (1/GPa) = 0.01667011
#
# Stress axis : x y z
#
# Youngs Moduli (GPa) = 50.28291 50.28291 168.39485
#
# Poissons Ratio (x) = 0.50772 0.37251
# Poissons Ratio (y) = 0.50772 0.37251
# Poissons Ratio (z) = 0.11123 0.11123
#
# Static dielectric constant tensor:
#      x y z
#    x 3.646930 0.000000 0.000000 
#    y 0.000000 3.646930 0.000000 
#    z 0.000000 0.000000 3.246700 
# 
# 
# High freq. dielectric constant tensor:
#      x y z
#    x 1.597220 0.000000 0.000000 
#    y 0.000000 1.597220 0.000000 
#    z 0.000000 0.000000 1.664300 
# 
# From -- ./inp_files/636.got.cif
#   From: 2010.03.12/outbox.cif.g09.slc.cpg/sg192_1_cif.got.tgz:636.got - 2010.04.01 12:16:15.
