data_PCOD8329719
_publ_section_title
;
Structure prediction by ZEFSAII (Michael W. Deem and Ramdas Pophale) SiO2 
 PCOD8329719
Probable space group: P 6/M C C
;
_chemical_formula_sum "Si O2"
_cell_formula_units_Z 102
_cell_length_a 25.516707
_cell_length_b 25.516707
_cell_length_c 8.829291
_cell_angle_alpha 90.000000
_cell_angle_beta 90.000000
_cell_angle_gamma 120.000000
_cell_volume 4978.582589
_symmetry_space_group_name_H-M "P 6/M C C"
_symmetry_group_IT_number 192
_symmetry_cell_setting 'hexagonal'
loop_
_space_group_symop_operation_xyz
x,y,z
x-y,x,z
-y,x-y,z
-x,-y,z
-x+y,-x,z
y,-x+y,z
x-y,-y,1/2-z
-x,-x+y,1/2-z
y,x,1/2-z
-y,-x,1/2-z
-x+y,y,1/2-z
x,x-y,1/2-z
-x,-y,-z
-x+y,-x,-z
y,-x+y,-z
x,y,-z
x-y,x,-z
-y,x-y,-z
-x+y,y,1/2+z
x,x-y,1/2+z
-y,-x,1/2+z
y,x,1/2+z
x-y,-y,1/2+z
-x,-x+y,1/2+z
loop_
_atom_site_type_symbol
_atom_site_label
_atom_site_fract_x
_atom_site_fract_y
_atom_site_fract_z
Si Si1 0.176662 0.243635 0.318130
Si Si2 0.000000 0.500000 0.750000
Si Si3 0.901778 0.532814 0.833666
Si Si4 0.768579 0.332133 0.674095
Si Si5 0.715691 0.064708 0.678427
O O1 0.201973 0.201973 0.250000
O O2 0.109840 0.219680 0.250000
O O3 0.175026 0.240215 0.500000
O O4 0.219080 0.313166 0.261175
O O5 0.043732 0.482343 0.840809
O O6 0.840017 0.472686 0.796242
O O7 0.902911 0.579693 0.710007
O O8 0.900016 0.558263 0.000000
O O9 0.734578 0.265423 0.750000
O O10 0.742352 0.371176 0.750000
O O11 0.752033 0.323853 0.500000
O O12 0.725301 0.061912 0.500000
O O13 0.674845 0.000000 0.750000
#
# Coordination Sequence:
#
# PCOD8329719 Si02
#       5
#    24   6  24  24  24
#     4  11  22  40  65  95 131 172 219 268 323 385
#     4  12  22  40  68  94 130 164 214 256 336 388
#     4  11  24  40  62  93 126 162 206 259 318 387
#     4  11  24  43  64  88 116 152 198 250 307 368
#     4  11  22  37  59  87 122 163 205 253 307 368
#
# _framework density 20.487759
#
# number of rings (size 3 to 8) (size 9 to 14) (size 15 to 20)
#    0.000    0.941    2.353    6.941    0.000    3.765 
#    0.000    2.353    0.000    0.235    0.000    1.647 
#    0.000    0.000    0.000    0.000    0.000    0.000 
#
# Total GULP energy -1264122.108201 kJ/mol
# GULP energy per Si atom -12393.354002 kJ/mol
# Density = 2.044113 g / cm^3
# Si number density = 20.487759 Si / 1000 Ang^3
#
#
#
# Elastic Constant Matrix: (Units=GPa)
#
#
# Indices 1 2 3 4 5 6 
#
# 1 108.3762 49.0163 58.1378 0.0000 0.0000 0.0000
# 2 49.0163 108.3762 58.1378 0.0000 0.0000 0.0000
# 3 58.1378 58.1378 176.5404 0.0000 0.0000 0.0000
# 4 0.0000 0.0000 0.0000 31.1375 0.0000 0.0000
# 5 0.0000 0.0000 0.0000 0.0000 31.1375 0.0000
# 6 0.0000 0.0000 0.0000 0.0000 0.0000 29.6800
#
#
#
# Elastic Compliance Matrix: (Units=1/GPa)
#
#
# Indices 1 2 3 4 5 6 
#
# 1 0.012621 -0.004225 -0.002765 0.000000 0.000000 0.000000
# 2 -0.004225 0.012621 -0.002765 0.000000 0.000000 0.000000
# 3 -0.002765 -0.002765 0.007486 0.000000 0.000000 0.000000
# 4 0.000000 0.000000 0.000000 0.032116 0.000000 0.000000
# 5 0.000000 0.000000 0.000000 0.000000 0.032116 0.000000
# 6 0.000000 0.000000 0.000000 0.000000 0.000000 0.033693
#
#
# Mechanical properties :
#
#
# Convention : Reuss Voigt Hill
#
# Bulk Modulus (GPa) = 75.65471 80.43070 78.04271
# Shear Modulus (GPa) = 32.34814 33.59106 32.96960
#
# Velocity S-wave (km/s) = 3.97785 4.05355 4.01588
# Velocity P-wave (km/s) = 7.62264 7.82633 7.72516
#
# Compressibility (1/GPa) = 0.01321795
#
# Stress axis : x y z
#
# Youngs Moduli (GPa) = 79.23105 79.23105 133.59046
#
# Poissons Ratio (x) = 0.33476 0.36938
# Poissons Ratio (y) = 0.33476 0.36938
# Poissons Ratio (z) = 0.21908 0.21908
#
# Static dielectric constant tensor:
#      x y z
#    x 3.818200 0.000000 0.000000 
#    y 0.000000 3.818200 0.000000 
#    z 0.000000 0.000000 3.986740 
# 
# 
# High freq. dielectric constant tensor:
#      x y z
#    x 1.796970 0.000000 0.000000 
#    y 0.000000 1.796970 0.000000 
#    z 0.000000 0.000000 1.813440 
# 
# From -- ./inp_files/882.got.cif
#   From: 2010.03.12/outbox.cif.g09.slc.cpg/sg192_1_cif.got.tgz:882.got - 2010.04.01 12:16:15.
