data_PCOD8329609
_publ_section_title
;
Structure prediction by ZEFSAII (Michael W. Deem and Ramdas Pophale) SiO2 
 PCOD8329609
Probable space group: P 6/M C C
;
_chemical_formula_sum "Si O2"
_cell_formula_units_Z 152
_cell_length_a 17.880914
_cell_length_b 17.880914
_cell_length_c 27.174643
_cell_angle_alpha 90.000000
_cell_angle_beta 90.000000
_cell_angle_gamma 120.000000
_cell_volume 7524.435225
_symmetry_space_group_name_H-M "P 6/M C C"
_symmetry_group_IT_number 192
_symmetry_cell_setting 'hexagonal'
loop_
_space_group_symop_operation_xyz
x,y,z
x-y,x,z
-y,x-y,z
-x,-y,z
-x+y,-x,z
y,-x+y,z
x-y,-y,1/2-z
-x,-x+y,1/2-z
y,x,1/2-z
-y,-x,1/2-z
-x+y,y,1/2-z
x,x-y,1/2-z
-x,-y,-z
-x+y,-x,-z
y,-x+y,-z
x,y,-z
x-y,x,-z
-y,x-y,-z
-x+y,y,1/2+z
x,x-y,1/2+z
-y,-x,1/2+z
y,x,1/2+z
x-y,-y,1/2+z
-x,-x+y,1/2+z
loop_
_atom_site_type_symbol
_atom_site_label
_atom_site_fract_x
_atom_site_fract_y
_atom_site_fract_z
Si Si1 0.898693 0.467200 0.445057
Si Si2 0.525125 0.783000 0.807231
Si Si3 0.666667 0.333334 0.192542
Si Si4 0.661784 0.708103 0.643314
Si Si5 0.873768 0.556906 0.887786
Si Si6 0.613320 0.763985 0.556068
Si Si7 0.832220 0.832352 0.308237
O O1 0.864849 0.432156 0.500000
O O2 0.853107 0.390809 0.405098
O O3 0.868099 0.535383 0.431942
O O4 0.000000 0.500000 0.443301
O O5 0.536646 0.768323 0.750000
O O6 0.425715 0.747249 0.823600
O O7 0.582744 0.883433 0.822765
O O8 0.556582 0.726413 0.836641
O O9 0.666668 0.333334 0.250000
O O10 0.639671 0.615873 0.621211
O O11 0.683537 0.773215 0.596560
O O12 0.747573 0.745307 0.675671
O O13 0.838133 0.590112 0.932721
O O14 0.646326 0.772756 0.500000
O O15 0.915315 0.831050 0.329537
O O16 0.835669 0.835669 0.250000
#
# Coordination Sequence:
#
# PCOD8329609 Si02
#       7
#    24  24   8  24  24  24  24
#     4  10  20  38  61  85 119 160 201 257 317 372
#     4  10  24  40  63  87 123 169 217 261 323 377
#     4   9  21  45  60  81 115 167 217 276 309 375
#     4  11  23  38  59  96 125 166 210 262 318 382
#     4  11  23  36  62  90 124 160 206 263 321 378
#     4  10  22  40  60  88 123 160 207 253 315 388
#     4  10  21  37  62  88 125 161 203 257 315 378
#
# _framework density 20.200852000000001
#
# number of rings (size 3 to 8) (size 9 to 14) (size 15 to 20)
#    0.000    1.737    1.579    2.526    8.842    1.263 
#    0.947    0.000    0.000    2.842    0.000    0.000 
#    0.000    2.526    0.000    0.000    0.000    0.000 
#
# Total GULP energy -1883794.309714 kJ/mol
# GULP energy per Si atom -12393.383617 kJ/mol
# Density = 2.015487 g / cm^3
# Si number density = 20.200852 Si / 1000 Ang^3
#
#
#
# Elastic Constant Matrix: (Units=GPa)
#
#
# Indices 1 2 3 4 5 6 
#
# 1 94.1080 29.7375 23.4827 0.0000 -0.0001 -0.0001
# 2 29.7375 94.1079 23.4824 0.0001 0.0000 0.0000
# 3 23.4827 23.4824 85.7463 0.0000 0.0000 0.0000
# 4 0.0000 0.0001 0.0000 21.6295 -0.0001 -0.0001
# 5 -0.0001 0.0000 0.0000 -0.0001 21.6306 0.0001
# 6 -0.0001 0.0000 0.0000 -0.0001 0.0001 32.1850
#
#
#
# Elastic Compliance Matrix: (Units=1/GPa)
#
#
# Indices 1 2 3 4 5 6 
#
# 1 0.012273 -0.003262 -0.002468 0.000000 0.000000 0.000000
# 2 -0.003262 0.012273 -0.002468 0.000000 0.000000 0.000000
# 3 -0.002468 -0.002468 0.013014 0.000000 0.000000 0.000000
# 4 0.000000 0.000000 0.000000 0.046233 0.000000 0.000000
# 5 0.000000 0.000000 0.000000 0.000000 0.046231 0.000000
# 6 0.000000 0.000000 0.000000 0.000000 0.000000 0.031070
#
#
# Mechanical properties :
#
#
# Convention : Reuss Voigt Hill
#
# Bulk Modulus (GPa) = 47.24954 47.48527 47.36740
# Shear Modulus (GPa) = 27.09391 28.23967 27.66679
#
# Velocity S-wave (km/s) = 3.66625 3.74297 3.70481
# Velocity P-wave (km/s) = 6.43137 6.49902 6.46528
#
# Compressibility (1/GPa) = 0.02116423
#
# Stress axis : x y z
#
# Youngs Moduli (GPa) = 81.48158 81.48169 76.84119
#
# Poissons Ratio (x) = 0.26582 0.18961
# Poissons Ratio (y) = 0.26582 0.18961
# Poissons Ratio (z) = 0.20107 0.20106
#
# Static dielectric constant tensor:
#      x y z
#    x 4.105770 -0.000040 0.000000 
#    y -0.000040 4.105700 -0.000010 
#    z 0.000000 -0.000010 3.765210 
# 
# 
# High freq. dielectric constant tensor:
#      x y z
#    x 1.782370 0.000000 0.000000 
#    y 0.000000 1.782370 0.000000 
#    z 0.000000 0.000000 1.794320 
# 
# From -- ./inp_files/7138.got.cif
#   From: 2010.03.12/outbox.cif.g09.slc.cpg/sg192_4_cif.got.tgz:7138.got - 2010.04.01 12:16:15.
