data_PCOD8329474
_publ_section_title
;
Structure prediction by ZEFSAII (Michael W. Deem and Ramdas Pophale) SiO2 
 PCOD8329474
Probable space group: P 6/M C C
;
_chemical_formula_sum "Si O2"
_cell_formula_units_Z 144
_cell_length_a 22.491743
_cell_length_b 22.491743
_cell_length_c 17.302254
_cell_angle_alpha 90.000000
_cell_angle_beta 90.000000
_cell_angle_gamma 120.000000
_cell_volume 7580.180371
_symmetry_space_group_name_H-M "P 6/M C C"
_symmetry_group_IT_number 192
_symmetry_cell_setting 'hexagonal'
loop_
_space_group_symop_operation_xyz
x,y,z
x-y,x,z
-y,x-y,z
-x,-y,z
-x+y,-x,z
y,-x+y,z
x-y,-y,1/2-z
-x,-x+y,1/2-z
y,x,1/2-z
-y,-x,1/2-z
-x+y,y,1/2-z
x,x-y,1/2-z
-x,-y,-z
-x+y,-x,-z
y,-x+y,-z
x,y,-z
x-y,x,-z
-y,x-y,-z
-x+y,y,1/2+z
x,x-y,1/2+z
-y,-x,1/2+z
y,x,1/2+z
x-y,-y,1/2+z
-x,-x+y,1/2+z
loop_
_atom_site_type_symbol
_atom_site_label
_atom_site_fract_x
_atom_site_fract_y
_atom_site_fract_z
Si Si1 0.357405 0.485255 0.908368
Si Si2 0.229834 0.440898 0.411108
Si Si3 0.696684 0.779359 0.092060
Si Si4 0.626712 0.635246 0.840263
Si Si5 0.047286 0.894103 0.408001
Si Si6 0.124292 0.507334 0.910681
O O1 0.285293 0.470884 0.871319
O O2 0.368319 0.425067 0.880057
O O3 0.418537 0.559031 0.879932
O O4 0.355344 0.486173 0.000000
O O5 0.208759 0.426073 0.500000
O O6 0.212212 0.366769 0.375773
O O7 0.308687 0.500254 0.401776
O O8 0.684864 0.706941 0.123312
O O9 0.769664 0.841322 0.121951
O O10 0.695426 0.775386 0.000000
O O11 0.639290 0.639290 0.750000
O O12 0.549639 0.617170 0.856192
O O13 0.046744 0.894403 0.500000
O O14 0.970596 0.870274 0.376783
O O15 0.098720 0.494615 0.000000
#
# Coordination Sequence:
#
# PCOD8329474 Si02
#       6
#    24  24  24  24  24  24
#     4  10  19  32  56  80 102 136 174 208 254 314
#     4   8  16  31  50  75 104 133 169 212 253 304
#     4   9  18  33  53  75 106 140 174 217 262 308
#     4  11  22  34  51  76 105 136 174 217 264 306
#     4   9  17  28  48  79 111 141 172 214 265 318
#     4   9  18  35  53  76 107 136 166 211 260 303
#
# _framework density 18.99691
#
# number of rings (size 3 to 8) (size 9 to 14) (size 15 to 20)
#    0.000    2.667    0.000    3.167    2.333    3.333 
#    1.000    3.333    0.000    0.000    0.000    0.000 
#    0.000    1.333    0.000    0.000    0.000    0.000 
#
# Total GULP energy -1784855.213513 kJ/mol
# GULP energy per Si atom -12394.827872 kJ/mol
# Density = 1.895367 g / cm^3
# Si number density = 18.996910 Si / 1000 Ang^3
#
#
#
# Elastic Constant Matrix: (Units=GPa)
#
#
# Indices 1 2 3 4 5 6 
#
# 1 157.9345 108.8481 11.7594 0.0000 0.0000 0.0000
# 2 108.8481 157.9345 11.7594 0.0000 0.0000 0.0000
# 3 11.7594 11.7594 15.5645 0.0000 0.0000 0.0000
# 4 0.0000 0.0000 0.0000 -0.0486 0.0000 0.0000
# 5 0.0000 0.0000 0.0000 0.0000 -0.0486 0.0000
# 6 0.0000 0.0000 0.0000 0.0000 0.0000 24.5432
#
#
#
# Elastic Compliance Matrix: (Units=1/GPa)
#
#
# Indices 1 2 3 4 5 6 
#
# 1 0.012194 -0.008178 -0.003034 0.000000 0.000000 0.000000
# 2 -0.008178 0.012194 -0.003034 0.000000 0.000000 0.000000
# 3 -0.003034 -0.003034 0.068834 0.000000 0.000000 0.000000
# 4 0.000000 0.000000 0.000000-20.556451 0.000006 0.000000
# 5 0.000000 0.000000 0.000000 0.000006-20.556457 0.000000
# 6 0.000000 0.000000 0.000000 0.000000 0.000000 0.040745
#
#
# Mechanical properties :
#
#
# Convention : Reuss Voigt Hill
#
# Bulk Modulus (GPa) = 15.44903 66.24079 40.84491
# Shear Modulus (GPa) = -0.12216 18.16027 9.01905
#
# Velocity S-wave (km/s) = -0.25386 3.09521 2.18127
# Velocity P-wave (km/s) = 2.83974 6.90788 5.28123
#
# Compressibility (1/GPa) = 0.06472898
#
# Stress axis : x y z
#
# Youngs Moduli (GPa) = 82.00713 82.00713 14.52778
#
# Poissons Ratio (x) = 0.67067 0.04408
# Poissons Ratio (y) = 0.67067 0.04408
# Poissons Ratio (z) = 0.24882 0.24882
#
# Static dielectric constant tensor:
#      x y z
#    x 3.820580 0.000000 0.000000 
#    y 0.000000 3.820580 0.000000 
#    z 0.000000 0.000000 2.776790 
# 
# 
# High freq. dielectric constant tensor:
#      x y z
#    x 1.746510 0.000000 0.000000 
#    y 0.000000 1.746510 0.000000 
#    z 0.000000 0.000000 1.686170 
# 
# From -- ./inp_files/4354.got.cif
#   From: 2010.03.12/outbox.cif.g09.slc.cpg/sg192_3_cif.got.tgz:4354.got - 2010.04.01 12:16:15.
