data_PCOD8329392
_publ_section_title
;
Structure prediction by ZEFSAII (Michael W. Deem and Ramdas Pophale) SiO2 
 PCOD8329392
Probable space group: P 6/M C C
;
_chemical_formula_sum "Si O2"
_cell_formula_units_Z 192
_cell_length_a 23.765656
_cell_length_b 23.765656
_cell_length_c 21.738833
_cell_angle_alpha 90.000000
_cell_angle_beta 90.000000
_cell_angle_gamma 120.000000
_cell_volume 10633.260928
_symmetry_space_group_name_H-M "P 6/M C C"
_symmetry_group_IT_number 192
_symmetry_cell_setting 'hexagonal'
loop_
_space_group_symop_operation_xyz
x,y,z
x-y,x,z
-y,x-y,z
-x,-y,z
-x+y,-x,z
y,-x+y,z
x-y,-y,1/2-z
-x,-x+y,1/2-z
y,x,1/2-z
-y,-x,1/2-z
-x+y,y,1/2-z
x,x-y,1/2-z
-x,-y,-z
-x+y,-x,-z
y,-x+y,-z
x,y,-z
x-y,x,-z
-y,x-y,-z
-x+y,y,1/2+z
x,x-y,1/2+z
-y,-x,1/2+z
y,x,1/2+z
x-y,-y,1/2+z
-x,-x+y,1/2+z
loop_
_atom_site_type_symbol
_atom_site_label
_atom_site_fract_x
_atom_site_fract_y
_atom_site_fract_z
Si Si1 0.968791 0.743241 0.573500
Si Si2 0.222941 0.714709 0.841804
Si Si3 0.419473 0.238387 0.930641
Si Si4 0.653961 0.187209 0.779562
Si Si5 0.891299 0.162390 0.428073
Si Si6 0.097095 0.476807 0.112138
Si Si7 0.616292 0.643927 0.428926
Si Si8 0.525778 0.140811 0.068879
O O1 0.966741 0.742419 0.500000
O O2 0.907811 0.748175 0.601085
O O3 0.964502 0.676209 0.595264
O O4 0.035213 0.805864 0.598298
O O5 0.205331 0.760578 0.882097
O O6 0.299655 0.752249 0.824567
O O7 0.182388 0.694941 0.777918
O O8 0.201406 0.649828 0.883265
O O9 0.345479 0.214584 0.913957
O O10 0.460440 0.315757 0.926246
O O11 0.425674 0.216896 0.000000
O O12 0.600542 0.201084 0.750000
O O13 0.625002 0.120157 0.816998
O O14 0.893492 0.152021 0.500000
O O15 0.098415 0.538241 0.080286
O O16 0.025025 0.415574 0.112049
O O17 0.626904 0.631263 0.500000
O O18 0.551057 0.646838 0.420695
O O19 0.540911 0.169057 0.000000
#
# Coordination Sequence:
#
# PCOD8329392 Si02
#       8
#    24  24  24  24  24  24  24  24
#     4   9  16  27  45  71 105 142 175 210 252 313
#     4  10  21  36  56  74  95 131 181 229 272 325
#     4  10  18  31  52  78 105 134 171 225 284 331
#     4  10  21  41  56  73  94 136 193 224 268 312
#     4   9  16  27  46  73 106 139 172 209 255 311
#     4  11  20  33  54  74 106 142 179 217 268 330
#     4  10  19  32  50  80 114 141 170 211 280 341
#     4  11  21  33  53  80 109 134 167 220 285 343
#
# _framework density 18.056549
#
# number of rings (size 3 to 8) (size 9 to 14) (size 15 to 20)
#    0.000    2.000    2.500    2.625    0.000    3.000 
#    3.000    0.625    0.000    0.250    0.000    1.750 
#    0.000    0.000    0.000    0.000    0.000    0.000 
#
# Total GULP energy -2379692.743262 kJ/mol
# GULP energy per Si atom -12394.233038 kJ/mol
# Density = 1.801545 g / cm^3
# Si number density = 18.056549 Si / 1000 Ang^3
#
#
#
# Elastic Constant Matrix: (Units=GPa)
#
#
# Indices 1 2 3 4 5 6 
#
# 1 103.4754 46.8352 31.3551 0.0000 0.0000 0.0000
# 2 46.8352 103.4754 31.3551 0.0000 0.0000 0.0000
# 3 31.3551 31.3551 80.5579 0.0000 0.0000 0.0000
# 4 0.0000 0.0000 0.0000 16.2841 0.0000 0.0000
# 5 0.0000 0.0000 0.0000 0.0000 16.2841 0.0000
# 6 0.0000 0.0000 0.0000 0.0000 0.0000 28.3201
#
#
#
# Elastic Compliance Matrix: (Units=1/GPa)
#
#
# Indices 1 2 3 4 5 6 
#
# 1 0.012799 -0.004856 -0.003091 0.000000 0.000000 0.000000
# 2 -0.004856 0.012799 -0.003091 0.000000 0.000000 0.000000
# 3 -0.003091 -0.003091 0.014820 0.000000 0.000000 0.000000
# 4 0.000000 0.000000 0.000000 0.061409 0.000000 0.000000
# 5 0.000000 0.000000 0.000000 0.000000 0.061409 0.000000
# 6 0.000000 0.000000 0.000000 0.000000 0.000000 0.035311
#
#
# Mechanical properties :
#
#
# Convention : Reuss Voigt Hill
#
# Bulk Modulus (GPa) = 54.52740 56.28885 55.40812
# Shear Modulus (GPa) = 22.05177 24.04190 23.04683
#
# Velocity S-wave (km/s) = 3.49845 3.65290 3.57651
# Velocity P-wave (km/s) = 6.82514 7.00235 6.91431
#
# Compressibility (1/GPa) = 0.01833940
#
# Stress axis : x y z
#
# Youngs Moduli (GPa) = 78.13122 78.13122 67.47635
#
# Poissons Ratio (x) = 0.37943 0.20860
# Poissons Ratio (y) = 0.37943 0.20860
# Poissons Ratio (z) = 0.24154 0.24154
#
# Static dielectric constant tensor:
#      x y z
#    x 3.419670 0.000000 0.000000 
#    y 0.000000 3.419670 0.000000 
#    z 0.000000 0.000000 3.253380 
# 
# 
# High freq. dielectric constant tensor:
#      x y z
#    x 1.691750 0.000000 0.000000 
#    y 0.000000 1.691750 0.000000 
#    z 0.000000 0.000000 1.665330 
# 
# From -- ./inp_files/5415.got.cif
#   From: 2010.03.12/outbox.cif.g09.slc.cpg/sg192_3_cif.got.tgz:5415.got - 2010.04.01 12:16:15.
