data_PCOD8329872
_publ_section_title
;
Structure prediction by ZEFSAII (Michael W. Deem and Ramdas Pophale) SiO2 
 PCOD8329872
Probable space group: P 63/M C M
;
_chemical_formula_sum "Si O2"
_cell_formula_units_Z 108
_cell_length_a 17.960602
_cell_length_b 17.960602
_cell_length_c 21.825149
_cell_angle_alpha 90.000000
_cell_angle_beta 90.000000
_cell_angle_gamma 120.000000
_cell_volume 6097.188578
_symmetry_space_group_name_H-M "P 63/M C M"
_symmetry_group_IT_number 193
_symmetry_cell_setting 'hexagonal'
loop_
_space_group_symop_operation_xyz
x,y,z
x-y,x,1/2+z
-y,x-y,z
-x,-y,1/2+z
-x+y,-x,z
y,-x+y,1/2+z
x-y,-y,1/2-z
-x,-x+y,1/2-z
y,x,1/2-z
-y,-x,-z
-x+y,y,-z
x,x-y,-z
-x,-y,-z
-x+y,-x,1/2-z
y,-x+y,-z
x,y,1/2-z
x-y,x,-z
-y,x-y,1/2-z
-x+y,y,1/2+z
x,x-y,1/2+z
-y,-x,1/2+z
y,x,z
x-y,-y,z
-x,-x+y,z
loop_
_atom_site_type_symbol
_atom_site_label
_atom_site_fract_x
_atom_site_fract_y
_atom_site_fract_z
Si Si1 0.481831 0.102077 0.419532
Si Si2 0.356527 0.458245 0.445379
Si Si3 0.901692 0.695264 0.385684
Si Si4 0.365359 0.100520 0.180561
Si Si5 0.901610 0.098391 0.500000
O O1 0.468122 0.136693 0.484813
O O2 0.583747 0.134757 0.413073
O O3 0.448245 0.137313 0.364291
O O4 0.428832 0.000000 0.417055
O O5 0.410296 0.410296 0.450922
O O6 0.272786 0.402613 0.404956
O O7 0.837398 0.689279 0.332403
O O8 0.891885 0.743820 0.443290
O O9 0.000000 0.744919 0.361171
O O10 0.399632 0.119239 0.250000
O O11 0.301185 0.000000 0.169487
O O12 0.000000 0.137112 0.480446
#
# Coordination Sequence:
#
# PCOD8329872 Si02
#       5
#    24  24  24  24  12
#     4   8  14  27  47  70  93 115 143 182 233 294
#     4   8  14  26  47  73  96 114 138 185 246 299
#     4  10  19  30  47  72  99 128 166 213 261 301
#     4  10  20  33  48  66  93 132 173 208 244 294
#     4  10  19  30  46  70 102 138 176 222 273 318
#
# _framework density 17.713082
#
# number of rings (size 3 to 8) (size 9 to 14) (size 15 to 20)
#    0.000    2.889    0.000    3.444    0.000    4.000 
#    0.000    1.111    0.000    5.333    0.000    3.111 
#    0.000    0.000    0.000    0.000    0.000    0.000 
#
# Total GULP energy -1338517.513681 kJ/mol
# GULP energy per Si atom -12393.680682 kJ/mol
# Density = 1.767277 g / cm^3
# Si number density = 17.713082 Si / 1000 Ang^3
#
#
#
# Elastic Constant Matrix: (Units=GPa)
#
#
# Indices 1 2 3 4 5 6 
#
# 1 81.1438 35.7286 43.4323 0.0000 0.0000 0.0000
# 2 35.7286 81.1438 43.4323 0.0000 0.0000 0.0000
# 3 43.4323 43.4323 94.4573 0.0000 0.0000 0.0000
# 4 0.0000 0.0000 0.0000 22.1285 0.0000 0.0000
# 5 0.0000 0.0000 0.0000 0.0000 22.1285 0.0000
# 6 0.0000 0.0000 0.0000 0.0000 0.0000 22.7076
#
#
#
# Elastic Compliance Matrix: (Units=1/GPa)
#
#
# Indices 1 2 3 4 5 6 
#
# 1 0.017509 -0.004510 -0.005977 0.000000 0.000000 0.000000
# 2 -0.004510 0.017509 -0.005977 0.000000 0.000000 0.000000
# 3 -0.005977 -0.005977 0.016083 0.000000 0.000000 0.000000
# 4 0.000000 0.000000 0.000000 0.045191 0.000000 0.000000
# 5 0.000000 0.000000 0.000000 0.000000 0.045191 0.000000
# 6 0.000000 0.000000 0.000000 0.000000 0.000000 0.044038
#
#
# Mechanical properties :
#
#
# Convention : Reuss Voigt Hill
#
# Bulk Modulus (GPa) = 55.02679 55.77011 55.39845
# Shear Modulus (GPa) = 22.27114 22.33636 22.30375
#
# Velocity S-wave (km/s) = 3.54973 3.55492 3.55233
# Velocity P-wave (km/s) = 6.92343 6.95727 6.94037
#
# Compressibility (1/GPa) = 0.01817297
#
# Stress axis : x y z
#
# Youngs Moduli (GPa) = 57.11403 57.11403 62.17658
#
# Poissons Ratio (x) = 0.25760 0.37162
# Poissons Ratio (y) = 0.25760 0.37162
# Poissons Ratio (z) = 0.34136 0.34136
#
# Static dielectric constant tensor:
#      x y z
#    x 3.416070 0.000000 0.000000 
#    y 0.000000 3.416070 0.000000 
#    z 0.000000 0.000000 3.175270 
# 
# 
# High freq. dielectric constant tensor:
#      x y z
#    x 1.674780 0.000000 0.000000 
#    y 0.000000 1.674780 0.000000 
#    z 0.000000 0.000000 1.661320 
# 
# From -- ./inp_files/6268.got.cif
#   From: 2010.03.12/outbox.cif.g09.slc.cpg/sg193_4_cif.got.tgz:6268.got - 2010.04.01 12:20:39.
