data_PCOD8329249
_publ_section_title
;
Structure prediction by ZEFSAII (Michael W. Deem and Ramdas Pophale) SiO2 
 PCOD8329249
Probable space group: P 6/M M M
;
_chemical_formula_sum "Si O2"
_cell_formula_units_Z 84
_cell_length_a 22.620398
_cell_length_b 22.620398
_cell_length_c 11.457086
_cell_angle_alpha 90.000000
_cell_angle_beta 90.000000
_cell_angle_gamma 120.000000
_cell_volume 5076.978084
_symmetry_space_group_name_H-M "P 6/M M M"
_symmetry_group_IT_number 191
_symmetry_cell_setting 'hexagonal'
loop_
_space_group_symop_operation_xyz
x,y,z
x-y,x,z
-y,x-y,z
-x,-y,z
-x+y,-x,z
y,-x+y,z
x-y,-y,-z
-x,-x+y,-z
y,x,-z
-y,-x,-z
-x+y,y,-z
x,x-y,-z
-x,-y,-z
-x+y,-x,-z
y,-x+y,-z
x,y,-z
x-y,x,-z
-y,x-y,-z
-x+y,y,z
x,x-y,z
-y,-x,z
y,x,z
x-y,-y,z
-x,-x+y,z
loop_
_atom_site_type_symbol
_atom_site_label
_atom_site_fract_x
_atom_site_fract_y
_atom_site_fract_z
Si Si1 0.391302 0.923091 0.000000
Si Si2 0.389577 0.000000 0.637489
Si Si3 0.255132 0.000000 0.360815
Si Si4 0.366107 0.867935 0.755204
Si Si5 0.853062 0.146939 0.361610
Si Si6 0.451475 0.225738 0.639214
O O1 0.349112 0.882133 0.113995
O O2 0.464512 0.929024 0.000000
O O3 0.403092 0.000000 0.000000
O O4 0.322365 0.000000 0.686440
O O5 0.458365 0.064268 0.679780
O O6 0.386883 0.000000 0.500000
O O7 0.187598 0.931399 0.314501
O O8 0.255795 0.000000 0.500000
O O9 0.422167 0.844333 0.757927
O O10 0.300221 0.809529 0.693120
O O11 0.854133 0.145868 0.500000
O O12 0.813731 0.186270 0.321219
O O13 0.457984 0.228992 0.500000
#
# Coordination Sequence:
#
# PCOD8329249 Si02
#       6
#    12  12  12  24  12  12
#     4   9  18  35  56  78 100 128 171 223 271 320
#     4  11  19  29  51  80 105 131 165 214 275 327
#     4   9  16  27  45  68  98 133 164 199 249 310
#     4  11  22  36  54  75 103 138 179 223 267 315
#     4   9  16  28  45  68  99 132 164 200 247 309
#     4  11  22  35  51  75 108 140 176 219 267 326
#
# _framework density 16.545275
#
# number of rings (size 3 to 8) (size 9 to 14) (size 15 to 20)
#    0.000    1.857    4.286    1.286    0.000    3.429 
#    0.857    0.000    0.000    0.286    0.000    2.000 
#    0.000    0.000    0.000    0.000    0.000    0.000 
#
# Total GULP energy -1041378.832591 kJ/mol
# GULP energy per Si atom -12397.367055 kJ/mol
# Density = 1.650762 g / cm^3
# Si number density = 16.545275 Si / 1000 Ang^3
#
#
#
# Elastic Constant Matrix: (Units=GPa)
#
#
# Indices 1 2 3 4 5 6 
#
# 1 121.2484 35.6914 37.4135 0.0000 0.0000 0.0000
# 2 35.6914 121.2484 37.4135 0.0000 0.0000 0.0000
# 3 37.4135 37.4135 84.1915 0.0000 0.0000 0.0000
# 4 0.0000 0.0000 0.0000 19.5356 0.0000 0.0000
# 5 0.0000 0.0000 0.0000 0.0000 19.5356 0.0000
# 6 0.0000 0.0000 0.0000 0.0000 0.0000 42.7785
#
#
#
# Elastic Compliance Matrix: (Units=1/GPa)
#
#
# Indices 1 2 3 4 5 6 
#
# 1 0.009886 -0.001802 -0.003593 0.000000 0.000000 0.000000
# 2 -0.001802 0.009886 -0.003593 0.000000 0.000000 0.000000
# 3 -0.003593 -0.003593 0.015071 0.000000 0.000000 0.000000
# 4 0.000000 0.000000 0.000000 0.051189 0.000000 0.000000
# 5 0.000000 0.000000 0.000000 0.000000 0.051189 0.000000
# 6 0.000000 0.000000 0.000000 0.000000 0.000000 0.023376
#
#
# Mechanical properties :
#
#
# Convention : Reuss Voigt Hill
#
# Bulk Modulus (GPa) = 59.27892 60.85835 60.06863
# Shear Modulus (GPa) = 27.14516 30.78127 28.96321
#
# Velocity S-wave (km/s) = 4.05490 4.31795 4.18849
# Velocity P-wave (km/s) = 7.60454 7.85635 7.73147
#
# Compressibility (1/GPa) = 0.01686940
#
# Stress axis : x y z
#
# Youngs Moduli (GPa) = 101.14814 101.14814 66.35320
#
# Poissons Ratio (x) = 0.18223 0.23839
# Poissons Ratio (y) = 0.18223 0.23839
# Poissons Ratio (z) = 0.36341 0.36341
#
# Static dielectric constant tensor:
#      x y z
#    x 3.151670 0.000000 0.000000 
#    y 0.000000 3.151670 0.000000 
#    z 0.000000 0.000000 3.086460 
# 
# 
# High freq. dielectric constant tensor:
#      x y z
#    x 1.627940 0.000000 0.000000 
#    y 0.000000 1.627940 0.000000 
#    z 0.000000 0.000000 1.615790 
# 
# From -- ./inp_files/2499.got.cif
#   From: 2010.03.12/outbox.cif.g09.slc.cpg/sg191_2_cif.got.tgz:2499.got - 2010.04.01 12:09:02.
