data_PCOD8329879
_publ_section_title
;
Structure prediction by ZEFSAII (Michael W. Deem and Ramdas Pophale) SiO2 
 PCOD8329879
Probable space group: P 63/M C M
;
_chemical_formula_sum "Si O2"
_cell_formula_units_Z 108
_cell_length_a 17.553839
_cell_length_b 17.553839
_cell_length_c 21.740768
_cell_angle_alpha 90.000000
_cell_angle_beta 90.000000
_cell_angle_gamma 120.000000
_cell_volume 5801.626082
_symmetry_space_group_name_H-M "P 63/M C M"
_symmetry_group_IT_number 193
_symmetry_cell_setting 'hexagonal'
loop_
_space_group_symop_operation_xyz
x,y,z
x-y,x,1/2+z
-y,x-y,z
-x,-y,1/2+z
-x+y,-x,z
y,-x+y,1/2+z
x-y,-y,1/2-z
-x,-x+y,1/2-z
y,x,1/2-z
-y,-x,-z
-x+y,y,-z
x,x-y,-z
-x,-y,-z
-x+y,-x,1/2-z
y,-x+y,-z
x,y,1/2-z
x-y,x,-z
-y,x-y,1/2-z
-x+y,y,1/2+z
x,x-y,1/2+z
-y,-x,1/2+z
y,x,z
x-y,-y,z
-x,-x+y,z
loop_
_atom_site_type_symbol
_atom_site_label
_atom_site_fract_x
_atom_site_fract_y
_atom_site_fract_z
Si Si1 0.372612 0.102206 0.179687
Si Si2 0.801877 0.900939 0.000000
Si Si3 0.786784 0.686328 0.611262
Si Si4 0.496909 0.398700 0.584180
Si Si5 0.515512 0.680499 0.964843
O O1 0.404175 0.118035 0.250000
O O2 0.322123 0.156155 0.166067
O O3 0.459615 0.134996 0.137468
O O4 0.304930 0.000000 0.165881
O O5 0.742976 0.892496 0.057364
O O6 0.862695 0.862695 0.021773
O O7 0.730047 0.730047 0.636000
O O8 0.725493 0.589502 0.585866
O O9 0.476675 0.476675 0.601382
O O10 0.448309 0.355879 0.519463
O O11 0.600592 0.434765 0.572405
O O12 0.485566 0.742783 0.000000
#
# Coordination Sequence:
#
# PCOD8329879 Si02
#       5
#    24  12  24  24  24
#     4  10  21  39  60  79 107 152 203 246 287 341
#     4  10  19  30  48  76 116 158 194 238 295 358
#     4  11  20  33  54  84 118 148 185 237 294 348
#     4  10  20  36  56  82 113 146 187 234 285 344
#     4  11  19  33  55  87 116 143 177 229 288 354
#
# _framework density 18.615469999999998
#
# number of rings (size 3 to 8) (size 9 to 14) (size 15 to 20)
#    0.000    1.556    3.333    3.444    0.000    4.000 
#    5.333    1.111    0.000    3.111    0.000    0.000 
#    0.000    0.000    0.000    0.000    0.000    0.000 
#
# Total GULP energy -1338591.418794 kJ/mol
# GULP energy per Si atom -12394.364989 kJ/mol
# Density = 1.857310 g / cm^3
# Si number density = 18.615470 Si / 1000 Ang^3
#
#
#
# Elastic Constant Matrix: (Units=GPa)
#
#
# Indices 1 2 3 4 5 6 
#
# 1 106.2187 54.5042 41.6417 0.0000 0.0000 0.0000
# 2 54.5042 106.2187 41.6417 0.0000 0.0000 0.0000
# 3 41.6417 41.6417 89.4783 0.0000 0.0000 0.0000
# 4 0.0000 0.0000 0.0000 28.2243 0.0000 0.0000
# 5 0.0000 0.0000 0.0000 0.0000 28.2243 0.0000
# 6 0.0000 0.0000 0.0000 0.0000 0.0000 25.8573
#
#
#
# Elastic Compliance Matrix: (Units=1/GPa)
#
#
# Indices 1 2 3 4 5 6 
#
# 1 0.013768 -0.005569 -0.003816 0.000000 0.000000 0.000000
# 2 -0.005569 0.013768 -0.003816 0.000000 0.000000 0.000000
# 3 -0.003816 -0.003816 0.014727 0.000000 0.000000 0.000000
# 4 0.000000 0.000000 0.000000 0.035430 0.000000 0.000000
# 5 0.000000 0.000000 0.000000 0.000000 0.035430 0.000000
# 6 0.000000 0.000000 0.000000 0.000000 0.000000 0.038674
#
#
# Mechanical properties :
#
#
# Convention : Reuss Voigt Hill
#
# Bulk Modulus (GPa) = 63.04071 64.16564 63.60317
# Shear Modulus (GPa) = 27.24995 27.40305 27.32650
#
# Velocity S-wave (km/s) = 3.83016 3.84090 3.83553
# Velocity P-wave (km/s) = 7.31426 7.36301 7.33867
#
# Compressibility (1/GPa) = 0.01586277
#
# Stress axis : x y z
#
# Youngs Moduli (GPa) = 72.63205 72.63205 67.90048
#
# Poissons Ratio (x) = 0.40448 0.25909
# Poissons Ratio (y) = 0.40448 0.25909
# Poissons Ratio (z) = 0.27714 0.27714
#
# Static dielectric constant tensor:
#      x y z
#    x 3.593550 0.000000 0.000000 
#    y 0.000000 3.593550 0.000000 
#    z 0.000000 0.000000 3.287850 
# 
# 
# High freq. dielectric constant tensor:
#      x y z
#    x 1.724470 0.000000 0.000000 
#    y 0.000000 1.724470 0.000000 
#    z 0.000000 0.000000 1.696540 
# 
# From -- ./inp_files/6267.got.cif
#   From: 2010.03.12/outbox.cif.g09.slc.cpg/sg193_4_cif.got.tgz:6267.got - 2010.04.01 12:20:39.
