data_PCOD8329399
_publ_section_title
;
Structure prediction by ZEFSAII (Michael W. Deem and Ramdas Pophale) SiO2 
 PCOD8329399
Probable space group: P 6/M C C
;
_chemical_formula_sum "Si O2"
_cell_formula_units_Z 192
_cell_length_a 24.404118
_cell_length_b 24.404118
_cell_length_c 21.089336
_cell_angle_alpha 90.000000
_cell_angle_beta 90.000000
_cell_angle_gamma 120.000000
_cell_volume 10877.266530
_symmetry_space_group_name_H-M "P 6/M C C"
_symmetry_group_IT_number 192
_symmetry_cell_setting 'hexagonal'
loop_
_space_group_symop_operation_xyz
x,y,z
x-y,x,z
-y,x-y,z
-x,-y,z
-x+y,-x,z
y,-x+y,z
x-y,-y,1/2-z
-x,-x+y,1/2-z
y,x,1/2-z
-y,-x,1/2-z
-x+y,y,1/2-z
x,x-y,1/2-z
-x,-y,-z
-x+y,-x,-z
y,-x+y,-z
x,y,-z
x-y,x,-z
-y,x-y,-z
-x+y,y,1/2+z
x,x-y,1/2+z
-y,-x,1/2+z
y,x,1/2+z
x-y,-y,1/2+z
-x,-x+y,1/2+z
loop_
_atom_site_type_symbol
_atom_site_label
_atom_site_fract_x
_atom_site_fract_y
_atom_site_fract_z
Si Si1 0.600089 0.072838 0.760405
Si Si2 0.205040 0.799022 0.427123
Si Si3 0.913614 0.588813 0.122142
Si Si4 0.015081 0.566695 0.929364
Si Si5 0.567943 0.886606 0.849793
Si Si6 0.011717 0.719176 0.822350
Si Si7 0.184452 0.915995 0.427032
Si Si8 0.073270 0.934358 0.425906
O O1 0.536769 0.073538 0.750000
O O2 0.631641 0.097898 0.828362
O O3 0.650186 0.124795 0.711747
O O4 0.585915 0.000000 0.750000
O O5 0.223454 0.797377 0.500000
O O6 0.151453 0.729060 0.407491
O O7 0.266778 0.821435 0.382737
O O8 0.183091 0.850361 0.417243
O O9 0.957175 0.581201 0.069404
O O10 0.948170 0.656873 0.155786
O O11 0.074712 0.625073 0.898423
O O12 0.000000 0.500000 0.895352
O O13 0.035894 0.563319 0.000000
O O14 0.638414 0.927453 0.822960
O O15 0.028933 0.772837 0.876343
O O16 0.000000 0.736114 0.750000
O O17 0.205963 0.941163 0.500000
O O18 0.112759 0.898852 0.414133
O O19 0.065773 0.941245 0.500000
O O20 0.004284 0.894110 0.394506
#
# Coordination Sequence:
#
# PCOD8329399 Si02
#       8
#    24  24  24  24  24  24  24  24
#     4  11  19  33  56  82 111 143 182 228 279 326
#     4  10  22  35  49  74 113 153 187 218 266 337
#     4  11  20  32  52  77 108 148 181 221 268 325
#     4  10  19  31  52  81 110 140 182 231 277 327
#     4  10  18  34  50  72 108 149 180 216 272 324
#     4  10  18  33  50  74 103 141 184 216 261 325
#     4   9  20  34  50  72 102 143 184 227 276 337
#     4   9  17  30  49  71  94 122 171 235 293 332
#
# _framework density 17.651492999999999
#
# number of rings (size 3 to 8) (size 9 to 14) (size 15 to 20)
#    0.000    2.000    3.750    1.625    1.750    4.500 
#    0.000    0.000    0.000    0.000    0.000    0.000 
#   17.500    1.000    6.000    0.000    0.000    0.000 
#
# Total GULP energy -2378817.674186 kJ/mol
# GULP energy per Si atom -12389.675386 kJ/mol
# Density = 1.761132 g / cm^3
# Si number density = 17.651493 Si / 1000 Ang^3
#
#
#
# Elastic Constant Matrix: (Units=GPa)
#
#
# Indices 1 2 3 4 5 6 
#
# 1 51.3171 14.1273 7.2456 0.0000 0.0000 0.0000
# 2 14.1273 51.3171 7.2456 0.0000 0.0000 0.0000
# 3 7.2456 7.2456 66.4389 0.0000 0.0000 0.0000
# 4 0.0000 0.0000 0.0000 29.1294 0.0000 0.0000
# 5 0.0000 0.0000 0.0000 0.0000 29.1294 0.0000
# 6 0.0000 0.0000 0.0000 0.0000 0.0000 18.5949
#
#
#
# Elastic Compliance Matrix: (Units=1/GPa)
#
#
# Indices 1 2 3 4 5 6 
#
# 1 0.021274 -0.005615 -0.001708 0.000000 0.000000 0.000000
# 2 -0.005615 0.021274 -0.001708 0.000000 0.000000 0.000000
# 3 -0.001708 -0.001708 0.015424 0.000000 0.000000 0.000000
# 4 0.000000 0.000000 0.000000 0.034330 0.000000 0.000000
# 5 0.000000 0.000000 0.000000 0.000000 0.034330 0.000000
# 6 0.000000 0.000000 0.000000 0.000000 0.000000 0.053778
#
#
# Mechanical properties :
#
#
# Convention : Reuss Voigt Hill
#
# Bulk Modulus (GPa) = 25.05648 25.14558 25.10103
# Shear Modulus (GPa) = 23.61016 24.73438 24.17227
#
# Velocity S-wave (km/s) = 3.66125 3.74741 3.70458
# Velocity P-wave (km/s) = 5.66559 5.74461 5.70524
#
# Compressibility (1/GPa) = 0.03990984
#
# Stress axis : x y z
#
# Youngs Moduli (GPa) = 47.00646 47.00646 64.83450
#
# Poissons Ratio (x) = 0.26396 0.11071
# Poissons Ratio (y) = 0.26396 0.11071
# Poissons Ratio (z) = 0.08027 0.08027
#
# Static dielectric constant tensor:
#      x y z
#    x 3.231640 0.000000 0.000000 
#    y 0.000000 3.231640 0.000000 
#    z 0.000000 0.000000 3.462290 
# 
# 
# High freq. dielectric constant tensor:
#      x y z
#    x 1.660380 0.000000 0.000000 
#    y 0.000000 1.660380 0.000000 
#    z 0.000000 0.000000 1.682100 
# 
# From -- ./inp_files/6174.got.cif
#   From: 2010.03.12/outbox.cif.g09.slc.cpg/sg192_4_cif.got.tgz:6174.got - 2010.04.01 12:16:15.
