data_PCOD8329466
_publ_section_title
;
Structure prediction by ZEFSAII (Michael W. Deem and Ramdas Pophale) SiO2 
 PCOD8329466
Probable space group: P 6/M C C
;
_chemical_formula_sum "Si O2"
_cell_formula_units_Z 192
_cell_length_a 24.065138
_cell_length_b 24.065138
_cell_length_c 21.048952
_cell_angle_alpha 90.000000
_cell_angle_beta 90.000000
_cell_angle_gamma 120.000000
_cell_volume 10556.934387
_symmetry_space_group_name_H-M "P 6/M C C"
_symmetry_group_IT_number 192
_symmetry_cell_setting 'hexagonal'
loop_
_space_group_symop_operation_xyz
x,y,z
x-y,x,z
-y,x-y,z
-x,-y,z
-x+y,-x,z
y,-x+y,z
x-y,-y,1/2-z
-x,-x+y,1/2-z
y,x,1/2-z
-y,-x,1/2-z
-x+y,y,1/2-z
x,x-y,1/2-z
-x,-y,-z
-x+y,-x,-z
y,-x+y,-z
x,y,-z
x-y,x,-z
-y,x-y,-z
-x+y,y,1/2+z
x,x-y,1/2+z
-y,-x,1/2+z
y,x,1/2+z
x-y,-y,1/2+z
-x,-x+y,1/2+z
loop_
_atom_site_type_symbol
_atom_site_label
_atom_site_fract_x
_atom_site_fract_y
_atom_site_fract_z
Si Si1 0.721575 0.475149 0.424514
Si Si2 0.011069 0.251697 0.681874
Si Si3 0.049914 0.569661 0.924792
Si Si4 0.955630 0.307745 0.072331
Si Si5 0.616828 0.813395 0.927929
Si Si6 0.740993 0.861872 0.855181
Si Si7 0.073313 0.933488 0.573518
Si Si8 0.611185 0.421339 0.075930
O O1 0.722329 0.472336 0.500000
O O2 0.756429 0.549102 0.402660
O O3 0.649367 0.438911 0.397951
O O4 0.759507 0.440838 0.397477
O O5 0.011072 0.293995 0.622391
O O6 0.079555 0.253363 0.688100
O O7 0.000000 0.276803 0.750000
O O8 0.949279 0.179983 0.676014
O O9 0.027356 0.620776 0.907304
O O10 0.119893 0.590985 0.896314
O O11 0.000000 0.500000 0.896143
O O12 0.053418 0.565489 0.000000
O O13 0.879085 0.264065 0.074496
O O14 0.979975 0.307055 0.000000
O O15 0.669211 0.815120 0.879733
O O16 0.630400 0.799964 0.000000
O O17 0.784152 0.898103 0.916454
O O18 0.066683 0.941371 0.500000
O O19 0.003458 0.893452 0.605719
O O20 0.611278 0.421978 0.000000
#
# Coordination Sequence:
#
# PCOD8329466 Si02
#       8
#    24  24  24  24  24  24  24  24
#     4   9  15  24  39  62  99 140 177 213 254 308
#     4  11  24  40  58  78 104 138 178 224 270 323
#     4   9  16  27  45  71 103 137 174 214 262 316
#     4   9  18  34  55  76 104 142 177 218 268 318
#     4   9  17  29  46  71 103 138 174 218 263 306
#     4  11  21  36  55  74  99 134 177 218 269 323
#     4  10  19  32  51  77 107 136 168 210 263 322
#     4   9  15  23  37  60  93 136 177 211 253 312
#
# _framework density 18.187099
#
# number of rings (size 3 to 8) (size 9 to 14) (size 15 to 20)
#    0.000    2.375    2.500    1.125    0.000    4.000 
#    0.000    2.500    0.000    0.375    0.000    1.750 
#    0.000    0.000    0.000    0.000    0.000    0.000 
#
# Total GULP energy -2379270.930747 kJ/mol
# GULP energy per Si atom -12392.036098 kJ/mol
# Density = 1.814570 g / cm^3
# Si number density = 18.187099 Si / 1000 Ang^3
#
#
#
# Elastic Constant Matrix: (Units=GPa)
#
#
# Indices 1 2 3 4 5 6 
#
# 1 105.2621 48.7226 28.4836 0.0000 0.0000 0.0000
# 2 48.7226 105.2621 28.4836 0.0000 0.0000 0.0000
# 3 28.4836 28.4836 53.6988 0.0000 0.0000 0.0000
# 4 0.0000 0.0000 0.0000 7.7564 0.0000 0.0000
# 5 0.0000 0.0000 0.0000 0.0000 7.7564 0.0000
# 6 0.0000 0.0000 0.0000 0.0000 0.0000 28.2698
#
#
#
# Elastic Compliance Matrix: (Units=1/GPa)
#
#
# Indices 1 2 3 4 5 6 
#
# 1 0.012883 -0.004804 -0.004286 0.000000 0.000000 0.000000
# 2 -0.004804 0.012883 -0.004286 0.000000 0.000000 0.000000
# 3 -0.004286 -0.004286 0.023169 0.000000 0.000000 0.000000
# 4 0.000000 0.000000 0.000000 0.128926 0.000000 0.000000
# 5 0.000000 0.000000 0.000000 0.000000 0.128926 0.000000
# 6 0.000000 0.000000 0.000000 0.000000 0.000000 0.035373
#
#
# Mechanical properties :
#
#
# Convention : Reuss Voigt Hill
#
# Bulk Modulus (GPa) = 45.07467 52.84475 48.95971
# Shear Modulus (GPa) = 13.28708 19.32540 16.30624
#
# Velocity S-wave (km/s) = 2.70585 3.26327 2.99755
# Velocity P-wave (km/s) = 5.88216 6.58163 6.24170
#
# Compressibility (1/GPa) = 0.02218541
#
# Stress axis : x y z
#
# Youngs Moduli (GPa) = 77.62044 77.62044 43.16116
#
# Poissons Ratio (x) = 0.37285 0.18498
# Poissons Ratio (y) = 0.37285 0.18498
# Poissons Ratio (z) = 0.33266 0.33266
#
# Static dielectric constant tensor:
#      x y z
#    x 3.499580 0.000000 0.000000 
#    y 0.000000 3.499580 0.000000 
#    z 0.000000 0.000000 2.757570 
# 
# 
# High freq. dielectric constant tensor:
#      x y z
#    x 1.712680 0.000000 0.000000 
#    y 0.000000 1.712680 0.000000 
#    z 0.000000 0.000000 1.630850 
# 
# From -- ./inp_files/6182.got.cif
#   From: 2010.03.12/outbox.cif.g09.slc.cpg/sg192_4_cif.got.tgz:6182.got - 2010.04.01 12:16:15.
