data_PCOD8329064
_publ_section_title
;
Structure prediction by ZEFSAII (Michael W. Deem and Ramdas Pophale) SiO2 
 PCOD8329064
Probable space group: P 6/M M M
;
_chemical_formula_sum "Si O2"
_cell_formula_units_Z 168
_cell_length_a 17.894461
_cell_length_b 17.894461
_cell_length_c 35.306372
_cell_angle_alpha 90.000000
_cell_angle_beta 90.000000
_cell_angle_gamma 120.000000
_cell_volume 9790.862861
_symmetry_space_group_name_H-M "P 6/M M M"
_symmetry_group_IT_number 191
_symmetry_cell_setting 'hexagonal'
loop_
_space_group_symop_operation_xyz
x,y,z
x-y,x,z
-y,x-y,z
-x,-y,z
-x+y,-x,z
y,-x+y,z
x-y,-y,-z
-x,-x+y,-z
y,x,-z
-y,-x,-z
-x+y,y,-z
x,x-y,-z
-x,-y,-z
-x+y,-x,-z
y,-x+y,-z
x,y,-z
x-y,x,-z
-y,x-y,-z
-x+y,y,z
x,x-y,z
-y,-x,z
y,x,z
x-y,-y,z
-x,-x+y,z
loop_
_atom_site_type_symbol
_atom_site_label
_atom_site_fract_x
_atom_site_fract_y
_atom_site_fract_z
Si Si1 0.333652 0.494851 0.398760
Si Si2 0.332952 0.495058 0.687310
Si Si3 0.097389 0.731481 0.891694
Si Si4 0.503877 0.666666 0.043348
Si Si5 0.668555 0.160623 0.822513
Si Si6 0.097450 0.731239 0.753211
Si Si7 0.259653 0.906104 0.542474
O O1 0.258245 0.516490 0.405341
O O2 0.421393 0.578608 0.409207
O O3 0.334065 0.465299 0.355646
O O4 0.324902 0.422372 0.427652
O O5 0.263190 0.526380 0.692114
O O6 0.425465 0.574536 0.699113
O O7 0.308267 0.413113 0.713498
O O8 0.165662 0.834339 0.889027
O O9 0.104640 0.692502 0.931628
O O10 0.115593 0.680336 0.859280
O O11 0.000000 0.714797 0.887732
O O12 0.472971 0.736486 0.048815
O O13 0.425433 0.574568 0.056342
O O14 0.529559 0.663438 0.000000
O O15 0.573419 0.146837 0.822438
O O16 0.737623 0.262377 0.822414
O O17 0.680366 0.115221 0.785896
O O18 0.165905 0.834096 0.755714
O O19 0.000000 0.714575 0.756973
O O20 0.282170 0.888785 0.500000
O O21 0.161552 0.838449 0.553401
O O22 0.269200 0.000000 0.545059
#
# Coordination Sequence:
#
# PCOD8329064 Si02
#       7
#    24  24  24  24  24  24  24
#     4   9  17  29  45  66  93 125 158 188 217 252
#     4   9  17  29  46  68  95 126 157 187 219 258
#     4  10  21  35  50  69  93 122 156 196 242 285
#     4   9  17  29  46  69  98 131 163 192 223 264
#     4  10  20  33  50  73 102 134 163 188 216 257
#     4  10  21  35  50  69  93 122 155 193 237 279
#     4   9  18  32  48  65  86 113 145 182 226 274
#
# _framework density 17.158854999999999
#
# number of rings (size 3 to 8) (size 9 to 14) (size 15 to 20)
#    0.000    2.571    0.000    1.857    0.000    6.000 
#    0.000    5.714    0.000    1.286    0.000    1.000 
#    0.000    3.429    0.000   10.714    0.000    3.714 
#
# Total GULP energy -2082910.136676 kJ/mol
# GULP energy per Si atom -12398.274623 kJ/mol
# Density = 1.711980 g / cm^3
# Si number density = 17.158855 Si / 1000 Ang^3
#
#
#
# Elastic Constant Matrix: (Units=GPa)
#
#
# Indices 1 2 3 4 5 6 
#
# 1 94.1530 69.2740 41.2425 0.0000 0.0000 0.0000
# 2 69.2740 94.1530 41.2425 0.0000 0.0000 0.0000
# 3 41.2425 41.2425 85.1799 0.0000 0.0000 0.0000
# 4 0.0000 0.0000 0.0000 15.8998 0.0000 0.0000
# 5 0.0000 0.0000 0.0000 0.0000 15.8998 0.0000
# 6 0.0000 0.0000 0.0000 0.0000 0.0000 12.4395
#
#
#
# Elastic Compliance Matrix: (Units=1/GPa)
#
#
# Indices 1 2 3 4 5 6 
#
# 1 0.024146 -0.016048 -0.003921 0.000000 0.000000 0.000000
# 2 -0.016048 0.024146 -0.003921 0.000000 0.000000 0.000000
# 3 -0.003921 -0.003921 0.015537 0.000000 0.000000 0.000000
# 4 0.000000 0.000000 0.000000 0.062894 0.000000 0.000000
# 5 0.000000 0.000000 0.000000 0.000000 0.062894 0.000000
# 6 0.000000 0.000000 0.000000 0.000000 0.000000 0.080389
#
#
# Mechanical properties :
#
#
# Convention : Reuss Voigt Hill
#
# Bulk Modulus (GPa) = 62.30900 64.11154 63.21027
# Shear Modulus (GPa) = 15.47341 16.96296 16.21818
#
# Velocity S-wave (km/s) = 3.00621 3.14759 3.07771
# Velocity P-wave (km/s) = 6.96000 7.11719 7.03903
#
# Compressibility (1/GPa) = 0.01604904
#
# Stress axis : x y z
#
# Youngs Moduli (GPa) = 41.41450 41.41450 64.36390
#
# Poissons Ratio (x) = 0.66463 0.25236
# Poissons Ratio (y) = 0.66463 0.25236
# Poissons Ratio (z) = 0.16238 0.16238
#
# Static dielectric constant tensor:
#      x y z
#    x 3.071310 0.000000 0.000000 
#    y 0.000000 3.071310 0.000000 
#    z 0.000000 0.000000 3.478830 
# 
# 
# High freq. dielectric constant tensor:
#      x y z
#    x 1.640870 0.000000 0.000000 
#    y 0.000000 1.640870 0.000000 
#    z 0.000000 0.000000 1.680940 
# 
# From -- ./inp_files/10747.got.cif
#   From: 2010.03.12/outbox.cif.g09.slc.cpg/sg191_6_cif.got.tgz:10747.got - 2010.04.01 12:09:02.
