data_PCOD8329072
_publ_section_title
;
Structure prediction by ZEFSAII (Michael W. Deem and Ramdas Pophale) SiO2 
 PCOD8329072
Probable space group: P 6/M M M
;
_chemical_formula_sum "Si O2"
_cell_formula_units_Z 84
_cell_length_a 21.978787
_cell_length_b 21.978787
_cell_length_c 12.568944
_cell_angle_alpha 90.000000
_cell_angle_beta 90.000000
_cell_angle_gamma 120.000000
_cell_volume 5258.197125
_symmetry_space_group_name_H-M "P 6/M M M"
_symmetry_group_IT_number 191
_symmetry_cell_setting 'hexagonal'
loop_
_space_group_symop_operation_xyz
x,y,z
x-y,x,z
-y,x-y,z
-x,-y,z
-x+y,-x,z
y,-x+y,z
x-y,-y,-z
-x,-x+y,-z
y,x,-z
-y,-x,-z
-x+y,y,-z
x,x-y,-z
-x,-y,-z
-x+y,-x,-z
y,-x+y,-z
x,y,-z
x-y,x,-z
-y,x-y,-z
-x+y,y,z
x,x-y,z
-y,-x,z
y,x,z
x-y,-y,z
-x,-x+y,z
loop_
_atom_site_type_symbol
_atom_site_label
_atom_site_fract_x
_atom_site_fract_y
_atom_site_fract_z
Si Si1 0.079063 0.920938 0.127049
Si Si2 0.467763 0.078512 0.678802
Si Si3 0.314639 0.157320 0.126054
Si Si4 0.520642 0.333712 0.500000
Si Si5 0.315329 0.396775 0.118626
O O1 0.118315 0.881686 0.174939
O O2 0.000000 0.881765 0.170796
O O3 0.079602 0.920399 0.000000
O O4 0.537832 0.075664 0.672576
O O5 0.475836 0.140182 0.600851
O O6 0.459123 0.097636 0.799676
O O7 0.403258 0.000000 0.647826
O O8 0.356486 0.119415 0.165243
O O9 0.308364 0.154182 0.000000
O O10 0.600562 0.399439 0.500000
O O11 0.522805 0.261403 0.500000
O O12 0.340132 0.340132 0.112447
O O13 0.319699 0.428543 0.000000
#
# Coordination Sequence:
#
# PCOD8329072 Si02
#       5
#    12  24  12  12  24
#     4   9  15  22  33  50  75 111 155 196 229 260
#     4   9  18  32  49  69  92 118 148 184 225 268
#     4   9  16  25  38  56  85 119 149 185 224 264
#     4  10  20  33  51  71  92 117 148 186 226 269
#     4   9  17  28  43  65  91 119 151 184 221 269
#
# _framework density 15.975058000000001
#
# number of rings (size 3 to 8) (size 9 to 14) (size 15 to 20)
#    0.000    2.857    0.000    1.571    2.000    6.286 
#    0.000    2.857    0.000    0.000    0.000    0.000 
#    0.000    0.000    0.000    0.000    0.000    0.000 
#
# Total GULP energy -1040976.139872 kJ/mol
# GULP energy per Si atom -12392.573094 kJ/mol
# Density = 1.593870 g / cm^3
# Si number density = 15.975058 Si / 1000 Ang^3
#
#
#
# Elastic Constant Matrix: (Units=GPa)
#
#
# Indices 1 2 3 4 5 6 
#
# 1 56.0609 25.4142 35.1556 0.0000 0.0000 0.0000
# 2 25.4142 56.0609 35.1556 0.0000 0.0000 0.0000
# 3 35.1556 35.1556 80.0228 0.0000 0.0000 0.0000
# 4 0.0000 0.0000 0.0000 13.4982 0.0000 0.0000
# 5 0.0000 0.0000 0.0000 0.0000 13.4982 0.0000
# 6 0.0000 0.0000 0.0000 0.0000 0.0000 15.3234
#
#
#
# Elastic Compliance Matrix: (Units=1/GPa)
#
#
# Indices 1 2 3 4 5 6 
#
# 1 0.026199 -0.006431 -0.008685 0.000000 0.000000 0.000000
# 2 -0.006431 0.026199 -0.008685 0.000000 0.000000 0.000000
# 3 -0.008685 -0.008685 0.020127 0.000000 0.000000 0.000000
# 4 0.000000 0.000000 0.000000 0.074084 0.000000 0.000000
# 5 0.000000 0.000000 0.000000 0.000000 0.074084 0.000000
# 6 0.000000 0.000000 0.000000 0.000000 0.000000 0.065260
#
#
# Mechanical properties :
#
#
# Convention : Reuss Voigt Hill
#
# Bulk Modulus (GPa) = 40.11994 42.62171 41.37083
# Shear Modulus (GPa) = 14.62580 14.89189 14.75885
#
# Velocity S-wave (km/s) = 3.02907 3.05650 3.04282
# Velocity P-wave (km/s) = 6.11574 6.26054 6.18857
#
# Compressibility (1/GPa) = 0.02492526
#
# Stress axis : x y z
#
# Youngs Moduli (GPa) = 38.16921 38.16921 49.68423
#
# Poissons Ratio (x) = 0.24546 0.43149
# Poissons Ratio (y) = 0.24546 0.43149
# Poissons Ratio (z) = 0.33149 0.33149
#
# Static dielectric constant tensor:
#      x y z
#    x 3.101210 0.000000 0.000000 
#    y 0.000000 3.101210 0.000000 
#    z 0.000000 0.000000 2.908050 
# 
# 
# High freq. dielectric constant tensor:
#      x y z
#    x 1.611080 0.000000 0.000000 
#    y 0.000000 1.611080 0.000000 
#    z 0.000000 0.000000 1.580960 
# 
# From -- ./inp_files/2682.got.cif
#   From: 2010.03.12/outbox.cif.g09.slc.cpg/sg191_2_cif.got.tgz:2682.got - 2010.04.01 12:09:02.
