data_PCOD8329043
_publ_section_title
;
Structure prediction by ZEFSAII (Michael W. Deem and Ramdas Pophale) SiO2 
 PCOD8329043
Probable space group: P 6/M M M
;
_chemical_formula_sum "Si O2"
_cell_formula_units_Z 156
_cell_length_a 21.040148
_cell_length_b 21.040148
_cell_length_c 22.944031
_cell_angle_alpha 90.000000
_cell_angle_beta 90.000000
_cell_angle_gamma 120.000000
_cell_volume 8796.257478
_symmetry_space_group_name_H-M "P 6/M M M"
_symmetry_group_IT_number 191
_symmetry_cell_setting 'hexagonal'
loop_
_space_group_symop_operation_xyz
x,y,z
x-y,x,z
-y,x-y,z
-x,-y,z
-x+y,-x,z
y,-x+y,z
x-y,-y,-z
-x,-x+y,-z
y,x,-z
-y,-x,-z
-x+y,y,-z
x,x-y,-z
-x,-y,-z
-x+y,-x,-z
y,-x+y,-z
x,y,-z
x-y,x,-z
-y,x-y,-z
-x+y,y,z
x,x-y,z
-y,-x,z
y,x,z
x-y,-y,z
-x,-x+y,z
loop_
_atom_site_type_symbol
_atom_site_label
_atom_site_fract_x
_atom_site_fract_y
_atom_site_fract_z
Si Si1 0.086159 0.543080 0.069266
Si Si2 0.778612 0.697343 0.066619
Si Si3 0.302523 0.078970 0.668376
Si Si4 0.914205 0.576617 0.253936
Si Si5 0.546384 0.847576 0.128753
Si Si6 0.334918 0.811980 0.348270
Si Si7 0.403791 0.276008 0.563712
O O1 0.131680 0.626436 0.091855
O O2 0.000000 0.500000 0.090104
O O3 0.088580 0.544290 0.000000
O O4 0.864818 0.729636 0.078071
O O5 0.761824 0.761824 0.082368
O O6 0.730204 0.628633 0.106922
O O7 0.757720 0.670984 0.000000
O O8 0.277056 0.138528 0.665332
O O9 0.355690 0.094797 0.723510
O O10 0.342971 0.074518 0.609846
O O11 0.229660 0.000000 0.675590
O O12 0.868886 0.544696 0.195129
O O13 0.875603 0.510439 0.299782
O O14 0.000000 0.601077 0.246428
O O15 0.521836 0.760918 0.122383
O O16 0.390977 0.781954 0.355146
O O17 0.254820 0.745181 0.330267
O O18 0.330625 0.846404 0.410042
O O19 0.395536 0.305266 0.500000
O O20 0.392925 0.196463 0.555395
#
# Coordination Sequence:
#
# PCOD8329043 Si02
#       7
#    12  24  24  24  24  24  24
#     4  11  24  40  58  82 112 146 183 219 263 323
#     4   9  17  30  50  75 102 130 162 202 247 295
#     4   9  17  30  49  73 101 132 167 209 260 310
#     4  10  20  35  55  76  99 128 167 217 264 307
#     4  11  22  37  57  80 103 132 174 221 268 314
#     4  10  20  33  49  71 101 137 171 208 255 311
#     4   8  15  29  47  67  93 125 165 210 252 295
#
# _framework density 17.734815000000001
#
# number of rings (size 3 to 8) (size 9 to 14) (size 15 to 20)
#    0.000    2.385    0.000    4.308    1.077    3.077 
#    0.462    0.000    0.000    1.231    0.000    5.385 
#    0.000    0.000    0.000    8.769    0.000    3.385 
#
# Total GULP energy -1933498.743932 kJ/mol
# GULP energy per Si atom -12394.222718 kJ/mol
# Density = 1.769445 g / cm^3
# Si number density = 17.734815 Si / 1000 Ang^3
#
#
#
# Elastic Constant Matrix: (Units=GPa)
#
#
# Indices 1 2 3 4 5 6 
#
# 1 89.1692 45.5279 21.5115 0.0000 0.0000 0.0000
# 2 45.5279 89.1692 21.5115 0.0000 0.0000 0.0000
# 3 21.5115 21.5115 79.9861 0.0000 0.0000 0.0000
# 4 0.0000 0.0000 0.0000 13.7340 0.0000 0.0000
# 5 0.0000 0.0000 0.0000 0.0000 13.7340 0.0000
# 6 0.0000 0.0000 0.0000 0.0000 0.0000 21.8207
#
#
#
# Elastic Compliance Matrix: (Units=1/GPa)
#
#
# Indices 1 2 3 4 5 6 
#
# 1 0.015518 -0.007396 -0.002184 0.000000 0.000000 0.000000
# 2 -0.007396 0.015518 -0.002184 0.000000 0.000000 0.000000
# 3 -0.002184 -0.002184 0.013677 0.000000 0.000000 0.000000
# 4 0.000000 0.000000 0.000000 0.072812 0.000000 0.000000
# 5 0.000000 0.000000 0.000000 0.000000 0.072812 0.000000
# 6 0.000000 0.000000 0.000000 0.000000 0.000000 0.045828
#
#
# Mechanical properties :
#
#
# Convention : Reuss Voigt Hill
#
# Bulk Modulus (GPa) = 47.20666 48.38071 47.79369
# Shear Modulus (GPa) = 18.74378 21.17598 19.95988
#
# Velocity S-wave (km/s) = 3.25451 3.45923 3.35843
# Velocity P-wave (km/s) = 6.38736 6.57984 6.48431
#
# Compressibility (1/GPa) = 0.02118345
#
# Stress axis : x y z
#
# Youngs Moduli (GPa) = 64.44170 64.44170 73.11516
#
# Poissons Ratio (x) = 0.47662 0.15970
# Poissons Ratio (y) = 0.47662 0.15970
# Poissons Ratio (z) = 0.14076 0.14076
#
# Static dielectric constant tensor:
#      x y z
#    x 3.202870 0.000000 0.000000 
#    y 0.000000 3.202870 0.000000 
#    z 0.000000 0.000000 3.623930 
# 
# 
# High freq. dielectric constant tensor:
#      x y z
#    x 1.671780 0.000000 0.000000 
#    y 0.000000 1.671780 0.000000 
#    z 0.000000 0.000000 1.694230 
# 
# From -- ./inp_files/7743.got.cif
#   From: 2010.03.12/outbox.cif.g09.slc.cpg/sg191_4_cif.got.tgz:7743.got - 2010.04.01 12:09:02.
