data_PCOD8329461
_publ_section_title
;
Structure prediction by ZEFSAII (Michael W. Deem and Ramdas Pophale) SiO2 
 PCOD8329461
Probable space group: P 6/M C C
;
_chemical_formula_sum "Si O2"
_cell_formula_units_Z 168
_cell_length_a 27.037479
_cell_length_b 27.037479
_cell_length_c 15.710349
_cell_angle_alpha 90.000000
_cell_angle_beta 90.000000
_cell_angle_gamma 120.000000
_cell_volume 9946.009159
_symmetry_space_group_name_H-M "P 6/M C C"
_symmetry_group_IT_number 192
_symmetry_cell_setting 'hexagonal'
loop_
_space_group_symop_operation_xyz
x,y,z
x-y,x,z
-y,x-y,z
-x,-y,z
-x+y,-x,z
y,-x+y,z
x-y,-y,1/2-z
-x,-x+y,1/2-z
y,x,1/2-z
-y,-x,1/2-z
-x+y,y,1/2-z
x,x-y,1/2-z
-x,-y,-z
-x+y,-x,-z
y,-x+y,-z
x,y,-z
x-y,x,-z
-y,x-y,-z
-x+y,y,1/2+z
x,x-y,1/2+z
-y,-x,1/2+z
y,x,1/2+z
x-y,-y,1/2+z
-x,-x+y,1/2+z
loop_
_atom_site_type_symbol
_atom_site_label
_atom_site_fract_x
_atom_site_fract_y
_atom_site_fract_z
Si Si1 0.344859 0.933921 0.845097
Si Si2 0.777597 0.777597 0.653630
Si Si3 0.332236 0.110062 0.597942
Si Si4 0.410938 0.066079 0.845097
Si Si5 0.113914 0.000000 0.900848
Si Si6 0.478720 0.067774 0.500000
Si Si7 0.667764 0.889938 0.902058
Si Si8 0.521280 0.932226 0.000000
O O1 0.276560 0.898068 0.849710
O O2 0.363725 0.926731 0.750000
O O3 0.364837 0.000000 0.864176
O O4 0.372502 0.910990 0.914625
O O5 0.757586 0.757586 0.750000
O O6 0.786874 0.730631 0.606358
O O7 0.836565 0.836565 0.653983
O O8 0.730631 0.786874 0.606358
O O9 0.350438 0.117556 0.500000
O O10 0.332298 0.166149 0.633025
O O11 0.378492 0.101932 0.849710
O O12 0.461512 0.089010 0.914625
O O13 0.109366 0.054683 0.875624
O O14 0.128036 0.000000 0.000000
O O15 0.547073 0.094147 0.500000
O O16 0.448034 1.000000 0.500000
O O17 0.649562 0.882444 0.000000
#
# Coordination Sequence:
#
# PCOD8329461 Si02
#       8
#    24  24  24  24  24  12  24  12
#     4  10  19  32  51  74 102 135 171 214 257 302
#     4  12  24  35  49  71  96 123 161 213 267 329
#     4  11  22  35  52  72  96 133 178 221 270 324
#     4  10  19  32  51  74 102 135 171 214 257 302
#     4  10  21  38  56  70  84 108 147 201 270 344
#     4   9  18  32  51  74 102 135 167 200 234 280
#     4  11  22  35  52  72  96 133 178 221 270 324
#     4   9  18  32  51  74 102 135 167 200 234 280
#
# _framework density 16.891197999999999
#
# number of rings (size 3 to 8) (size 9 to 14) (size 15 to 20)
#    0.000    1.571    2.857    3.143    0.000    7.429 
#    0.000    2.857    0.000    0.857    0.000    0.000 
#    0.000    0.000    0.000    3.429    0.000    7.429 
#
# Total GULP energy -2083690.756279 kJ/mol
# GULP energy per Si atom -12402.921168 kJ/mol
# Density = 1.685275 g / cm^3
# Si number density = 16.891198 Si / 1000 Ang^3
#
#
#
# Elastic Constant Matrix: (Units=GPa)
#
#
# Indices 1 2 3 4 5 6 
#
# 1 79.0000 56.3236 34.0922 0.0000 0.0000 0.0000
# 2 56.3236 79.0000 34.0922 0.0000 0.0000 0.0000
# 3 34.0922 34.0922 98.1090 0.0000 0.0000 0.0000
# 4 0.0000 0.0000 0.0000 13.5528 0.0000 0.0000
# 5 0.0000 0.0000 0.0000 0.0000 13.5528 0.0000
# 6 0.0000 0.0000 0.0000 0.0000 0.0000 11.3382
#
#
#
# Elastic Compliance Matrix: (Units=1/GPa)
#
#
# Indices 1 2 3 4 5 6 
#
# 1 0.026528 -0.017570 -0.003113 0.000000 0.000000 0.000000
# 2 -0.017570 0.026528 -0.003113 0.000000 0.000000 0.000000
# 3 -0.003113 -0.003113 0.012356 0.000000 0.000000 0.000000
# 4 0.000000 0.000000 0.000000 0.073786 0.000000 0.000000
# 5 0.000000 0.000000 0.000000 0.000000 0.073786 0.000000
# 6 0.000000 0.000000 0.000000 0.000000 0.000000 0.088197
#
#
# Mechanical properties :
#
#
# Convention : Reuss Voigt Hill
#
# Bulk Modulus (GPa) = 56.11391 56.12501 56.11946
# Shear Modulus (GPa) = 14.09586 16.46216 15.27901
#
# Velocity S-wave (km/s) = 2.89192 3.12524 3.01084
# Velocity P-wave (km/s) = 6.66662 6.80605 6.73670
#
# Compressibility (1/GPa) = 0.01782089
#
# Stress axis : x y z
#
# Youngs Moduli (GPa) = 37.69545 37.69545 80.93127
#
# Poissons Ratio (x) = 0.66232 0.25193
# Poissons Ratio (y) = 0.66232 0.25193
# Poissons Ratio (z) = 0.11734 0.11734
#
# Static dielectric constant tensor:
#      x y z
#    x 3.015500 0.000000 0.000000 
#    y 0.000000 3.015500 0.000000 
#    z 0.000000 0.000000 3.260910 
# 
# 
# High freq. dielectric constant tensor:
#      x y z
#    x 1.621810 0.000000 0.000000 
#    y 0.000000 1.621810 0.000000 
#    z 0.000000 0.000000 1.667340 
# 
# From -- ./inp_files/3470.got.cif
#   From: 2010.03.12/outbox.cif.g09.slc.cpg/sg192_2_cif.got.tgz:3470.got - 2010.04.01 12:16:15.
