data_PCOD8329929
_publ_section_title
;
Structure prediction by ZEFSAII (Michael W. Deem and Ramdas Pophale) SiO2 
 PCOD8329929
Probable space group: P 63/M C M
;
_chemical_formula_sum "Si O2"
_cell_formula_units_Z 144
_cell_length_a 32.149773
_cell_length_b 32.149773
_cell_length_c 8.894203
_cell_angle_alpha 90.000000
_cell_angle_beta 90.000000
_cell_angle_gamma 120.000000
_cell_volume 7961.474178
_symmetry_space_group_name_H-M "P 63/M C M"
_symmetry_group_IT_number 193
_symmetry_cell_setting 'hexagonal'
loop_
_space_group_symop_operation_xyz
x,y,z
x-y,x,1/2+z
-y,x-y,z
-x,-y,1/2+z
-x+y,-x,z
y,-x+y,1/2+z
x-y,-y,1/2-z
-x,-x+y,1/2-z
y,x,1/2-z
-y,-x,-z
-x+y,y,-z
x,x-y,-z
-x,-y,-z
-x+y,-x,1/2-z
y,-x+y,-z
x,y,1/2-z
x-y,x,-z
-y,x-y,1/2-z
-x+y,y,1/2+z
x,x-y,1/2+z
-y,-x,1/2+z
y,x,z
x-y,-y,z
-x,-x+y,z
loop_
_atom_site_type_symbol
_atom_site_label
_atom_site_fract_x
_atom_site_fract_y
_atom_site_fract_z
Si Si1 0.944812 0.139474 0.074003
Si Si2 0.860458 0.388007 0.925820
Si Si3 0.773332 0.055367 0.073904
Si Si4 0.945372 0.558463 0.925083
Si Si5 0.276569 0.384435 0.926353
Si Si6 0.278054 0.806175 0.927362
O O1 0.934363 0.137607 0.250000
O O2 0.000000 0.155558 0.041249
O O3 0.912740 0.087261 0.000000
O O4 0.930631 0.175761 0.997569
O O5 0.863394 0.396179 0.750000
O O6 0.823809 0.333042 0.970297
O O7 0.841151 0.420576 0.000000
O O8 0.913675 0.403983 0.984131
O O9 0.780351 0.066140 0.250000
O O10 0.734891 0.000000 0.040210
O O11 0.755571 0.088322 0.997490
O O12 0.938870 0.545565 0.750000
O O13 0.929641 0.597585 0.962081
O O14 0.000000 0.580306 0.978033
O O15 0.266422 0.381963 0.750000
O O16 0.261328 0.420050 0.001559
O O17 0.270442 0.804228 0.750000
O O18 0.246263 0.753738 0.000000
#
# Coordination Sequence:
#
# PCOD8329929 Si02
#       6
#    24  24  24  24  24  24
#     4  10  21  37  57  80 105 134 169 210 257 309
#     4  10  21  36  55  78 103 132 167 207 253 305
#     4  10  20  33  50  74 106 143 181 220 259 300
#     4   9  18  32  50  73 103 140 179 216 254 295
#     4  10  19  32  51  75 105 141 180 220 258 299
#     4  10  21  37  56  79 104 132 168 209 256 309
#
# _framework density 18.087102000000002
#
# number of rings (size 3 to 8) (size 9 to 14) (size 15 to 20)
#    0.000    2.167    0.000    3.000    0.000    6.667 
#    0.000    3.333    0.000    0.500    0.000    0.000 
#    0.000    0.000    0.000    0.000    0.000    0.000 
#
# Total GULP energy -1786243.821276 kJ/mol
# GULP energy per Si atom -12404.470981 kJ/mol
# Density = 1.804594 g / cm^3
# Si number density = 18.087102 Si / 1000 Ang^3
#
#
#
# Elastic Constant Matrix: (Units=GPa)
#
#
# Indices 1 2 3 4 5 6 
#
# 1 105.1003 70.8689 56.4703 0.0000 0.0000 0.0000
# 2 70.8689 105.1003 56.4703 0.0000 0.0000 0.0000
# 3 56.4703 56.4703 95.8573 0.0000 0.0000 0.0000
# 4 0.0000 0.0000 0.0000 32.8169 0.0000 0.0000
# 5 0.0000 0.0000 0.0000 0.0000 32.8169 0.0000
# 6 0.0000 0.0000 0.0000 0.0000 0.0000 17.1157
#
#
#
# Elastic Compliance Matrix: (Units=1/GPa)
#
#
# Indices 1 2 3 4 5 6 
#
# 1 0.019175 -0.010038 -0.005383 0.000000 0.000000 0.000000
# 2 -0.010038 0.019175 -0.005383 0.000000 0.000000 0.000000
# 3 -0.005383 -0.005383 0.016775 0.000000 0.000000 0.000000
# 4 0.000000 0.000000 0.000000 0.030472 0.000000 0.000000
# 5 0.000000 0.000000 0.000000 0.000000 0.030472 0.000000
# 6 0.000000 0.000000 0.000000 0.000000 0.000000 0.058426
#
#
# Mechanical properties :
#
#
# Convention : Reuss Voigt Hill
#
# Bulk Modulus (GPa) = 73.97710 74.85300 74.41505
# Shear Modulus (GPa) = 22.66450 24.69978 23.68214
#
# Velocity S-wave (km/s) = 3.54372 3.69941 3.62240
# Velocity P-wave (km/s) = 7.59824 7.72801 7.66340
#
# Compressibility (1/GPa) = 0.01351770
#
# Stress axis : x y z
#
# Youngs Moduli (GPa) = 52.15016 52.15016 59.61347
#
# Poissons Ratio (x) = 0.52346 0.32091
# Poissons Ratio (y) = 0.52346 0.32091
# Poissons Ratio (z) = 0.28073 0.28073
#
# Static dielectric constant tensor:
#      x y z
#    x 3.311190 0.000000 0.000000 
#    y 0.000000 3.311190 0.000000 
#    z 0.000000 0.000000 3.425920 
# 
# 
# High freq. dielectric constant tensor:
#      x y z
#    x 1.692460 0.000000 0.000000 
#    y 0.000000 1.692460 0.000000 
#    z 0.000000 0.000000 1.716000 
# 
# From -- ./inp_files/1487.got.cif
#   From: 2010.03.12/outbox.cif.g09.slc.cpg/sg193_1_cif.got.tgz:1487.got - 2010.04.01 12:20:39.
