data_PCOD8329055
_publ_section_title
;
Structure prediction by ZEFSAII (Michael W. Deem and Ramdas Pophale) SiO2 
 PCOD8329055
Probable space group: P 6/M M M
;
_chemical_formula_sum "Si O2"
_cell_formula_units_Z 168
_cell_length_a 17.421603
_cell_length_b 17.421603
_cell_length_c 36.088430
_cell_angle_alpha 90.000000
_cell_angle_beta 90.000000
_cell_angle_gamma 120.000000
_cell_volume 9485.819278
_symmetry_space_group_name_H-M "P 6/M M M"
_symmetry_group_IT_number 191
_symmetry_cell_setting 'hexagonal'
loop_
_space_group_symop_operation_xyz
x,y,z
x-y,x,z
-y,x-y,z
-x,-y,z
-x+y,-x,z
y,-x+y,z
x-y,-y,-z
-x,-x+y,-z
y,x,-z
-y,-x,-z
-x+y,y,-z
x,x-y,-z
-x,-y,-z
-x+y,-x,-z
y,-x+y,-z
x,y,-z
x-y,x,-z
-y,x-y,-z
-x+y,y,z
x,x-y,z
-y,-x,z
y,x,z
x-y,-y,z
-x,-x+y,z
loop_
_atom_site_type_symbol
_atom_site_label
_atom_site_fract_x
_atom_site_fract_y
_atom_site_fract_z
Si Si1 0.156611 0.488143 0.000000
Si Si2 0.729059 0.100125 0.785401
Si Si3 0.099298 0.726294 0.927926
Si Si4 0.155712 0.487535 0.427668
Si Si5 0.668176 0.512305 0.144399
Si Si6 0.627345 0.900721 0.500000
Si Si7 0.895447 0.362729 0.285807
Si Si8 0.628382 0.899675 0.642765
O O1 0.110276 0.429659 0.035773
O O2 0.261284 0.522568 0.000000
O O3 0.141813 0.570907 0.000000
O O4 0.834857 0.165144 0.790124
O O5 0.677223 0.102164 0.821572
O O6 0.697243 0.135335 0.750796
O O7 0.709413 0.000000 0.779218
O O8 0.168156 0.831845 0.927651
O O9 0.114452 0.678872 0.893229
O O10 0.000000 0.711081 0.926731
O O11 0.259394 0.518787 0.425347
O O12 0.143773 0.571887 0.427994
O O13 0.112556 0.432260 0.464468
O O14 0.103122 0.427596 0.392801
O O15 0.740476 0.480952 0.147145
O O16 0.571737 0.428264 0.145441
O O17 0.664359 0.832180 0.500000
O O18 0.711408 0.000000 0.500000
O O19 0.851854 0.425927 0.286015
O O20 0.864772 0.301828 0.322125
O O21 0.000000 0.423476 0.285830
O O22 0.668843 0.834422 0.637532
O O23 0.709053 0.000000 0.648409
#
# Coordination Sequence:
#
# PCOD8329055 Si02
#       8
#    12  24  24  24  24  12  24  24
#     4  10  20  33  50  73 102 134 165 196 232 277
#     4  10  20  33  50  72  97 127 163 203 245 286
#     4  10  21  35  51  72  97 127 162 201 244 286
#     4  10  20  33  50  73 101 131 161 194 234 281
#     4  10  20  33  50  73 101 131 161 194 234 281
#     4  10  21  35  51  72  97 127 162 200 241 283
#     4   9  17  30  49  72  96 122 154 191 231 280
#     4  10  20  33  50  72  97 127 163 203 245 286
#
# _framework density 17.710647999999999
#
# number of rings (size 3 to 8) (size 9 to 14) (size 15 to 20)
#    0.000    2.143    0.000    3.357    0.000    4.857 
#    0.000    2.143    0.000    4.500    0.000    0.000 
#    0.000   12.000    0.000    0.000    0.000    2.000 
#
# Total GULP energy -2083329.508054 kJ/mol
# GULP energy per Si atom -12400.770881 kJ/mol
# Density = 1.767034 g / cm^3
# Si number density = 17.710648 Si / 1000 Ang^3
#
#
#
# Elastic Constant Matrix: (Units=GPa)
#
#
# Indices 1 2 3 4 5 6 
#
# 1 100.9669 71.6259 29.9988 0.0000 0.0000 0.0000
# 2 71.6259 100.9669 29.9988 0.0000 0.0000 0.0000
# 3 29.9988 29.9988 138.2943 0.0000 0.0000 0.0000
# 4 0.0000 0.0000 0.0000 24.7098 0.0000 0.0000
# 5 0.0000 0.0000 0.0000 0.0000 24.7098 0.0000
# 6 0.0000 0.0000 0.0000 0.0000 0.0000 14.6705
#
#
#
# Elastic Compliance Matrix: (Units=1/GPa)
#
#
# Indices 1 2 3 4 5 6 
#
# 1 0.020174 -0.013908 -0.001359 0.000000 0.000000 0.000000
# 2 -0.013908 0.020174 -0.001359 0.000000 0.000000 0.000000
# 3 -0.001359 -0.001359 0.007821 0.000000 0.000000 0.000000
# 4 0.000000 0.000000 0.000000 0.040470 0.000000 0.000000
# 5 0.000000 0.000000 0.000000 0.000000 0.040470 0.000000
# 6 0.000000 0.000000 0.000000 0.000000 0.000000 0.068164
#
#
# Mechanical properties :
#
#
# Convention : Reuss Voigt Hill
#
# Bulk Modulus (GPa) = 67.04029 67.05277 67.04653
# Shear Modulus (GPa) = 21.23163 26.72500 23.97832
#
# Velocity S-wave (km/s) = 3.46613 3.88877 3.68352
# Velocity P-wave (km/s) = 7.34534 7.62271 7.48531
#
# Compressibility (1/GPa) = 0.01491640
#
# Stress axis : x y z
#
# Youngs Moduli (GPa) = 49.56809 49.56809 127.86598
#
# Poissons Ratio (x) = 0.68938 0.17381
# Poissons Ratio (y) = 0.68938 0.17381
# Poissons Ratio (z) = 0.06738 0.06738
#
# Static dielectric constant tensor:
#      x y z
#    x 3.169340 0.000000 0.000000 
#    y 0.000000 3.169340 0.000000 
#    z 0.000000 0.000000 3.554330 
# 
# 
# High freq. dielectric constant tensor:
#      x y z
#    x 1.668930 0.000000 0.000000 
#    y 0.000000 1.668930 0.000000 
#    z 0.000000 0.000000 1.711700 
# 
# From -- ./inp_files/10780.got.cif
#   From: 2010.03.12/outbox.cif.g09.slc.cpg/sg191_6_cif.got.tgz:10780.got - 2010.04.01 12:09:02.
