data_PCOD8329502
_publ_section_title
;
Structure prediction by ZEFSAII (Michael W. Deem and Ramdas Pophale) SiO2 
 PCOD8329502
Probable space group: P 6/M C C
;
_chemical_formula_sum "Si O2"
_cell_formula_units_Z 92
_cell_length_a 19.571702
_cell_length_b 19.571702
_cell_length_c 14.192853
_cell_angle_alpha 90.000000
_cell_angle_beta 90.000000
_cell_angle_gamma 120.000000
_cell_volume 4708.228430
_symmetry_space_group_name_H-M "P 6/M C C"
_symmetry_group_IT_number 192
_symmetry_cell_setting 'hexagonal'
loop_
_space_group_symop_operation_xyz
x,y,z
x-y,x,z
-y,x-y,z
-x,-y,z
-x+y,-x,z
y,-x+y,z
x-y,-y,1/2-z
-x,-x+y,1/2-z
y,x,1/2-z
-y,-x,1/2-z
-x+y,y,1/2-z
x,x-y,1/2-z
-x,-y,-z
-x+y,-x,-z
y,-x+y,-z
x,y,-z
x-y,x,-z
-y,x-y,-z
-x+y,y,1/2+z
x,x-y,1/2+z
-y,-x,1/2+z
y,x,1/2+z
x-y,-y,1/2+z
-x,-x+y,1/2+z
loop_
_atom_site_type_symbol
_atom_site_label
_atom_site_fract_x
_atom_site_fract_y
_atom_site_fract_z
Si Si1 0.596296 0.192591 0.750000
Si Si2 0.289867 0.416698 0.250002
Si Si3 0.333334 0.666668 0.613614
Si Si4 0.000003 0.155631 0.361096
Si Si5 0.690213 0.690211 0.895941
O O1 0.502869 0.136965 0.749989
O O2 0.622357 0.244696 0.654552
O O3 0.210460 0.420920 0.250000
O O4 0.293337 0.372286 0.157151
O O5 0.293329 0.372277 0.342850
O O6 0.333334 0.666668 0.500000
O O7 0.000006 0.228724 0.409332
O O8 0.075970 0.151937 0.394985
O O9 0.000000 0.166853 0.250000
O O10 0.656968 0.656967 0.000000
#
# Coordination Sequence:
#
# PCOD8329502 Si02
#       5
#    12  24   8  24  24
#     4  10  22  43  66  98 128 164 204 256 312 377
#     4  11  22  43  67  87 124 169 207 255 318 375
#     4  10  20  40  67 104 133 151 200 262 319 377
#     4  10  19  35  57  83 115 155 206 261 315 369
#     4  11  25  39  59  92 126 165 214 260 307 378
#
# _framework density 19.540257
#
# number of rings (size 3 to 8) (size 9 to 14) (size 15 to 20)
#    0.000    1.565    5.217    1.826    0.000    9.391 
#    0.000    1.304    0.000    1.565    0.000    0.000 
#    0.000    0.000    0.000    0.000    0.000    0.000 
#
# Total GULP energy -1140993.880425 kJ/mol
# GULP energy per Si atom -12402.107396 kJ/mol
# Density = 1.949578 g / cm^3
# Si number density = 19.540257 Si / 1000 Ang^3
#
#
#
# Elastic Constant Matrix: (Units=GPa)
#
#
# Indices 1 2 3 4 5 6 
#
# 1 139.4278 73.3840 44.9439 -0.0004 0.0001 0.0000
# 2 73.3840 139.4280 44.9438 0.0002 -0.0001 0.0000
# 3 44.9439 44.9438 159.9522 -0.0001 -0.0001 0.0000
# 4 -0.0004 0.0002 -0.0001 -37.2730 0.0000 0.0001
# 5 0.0001 -0.0001 -0.0001 0.0000 -37.2729 0.0003
# 6 0.0000 0.0000 0.0000 0.0001 0.0003 33.0218
#
#
#
# Elastic Compliance Matrix: (Units=1/GPa)
#
#
# Indices 1 2 3 4 5 6 
#
# 1 0.010237 -0.004905 -0.001498 0.000000 0.000000 0.000000
# 2 -0.004905 0.010237 -0.001498 0.000000 0.000000 0.000000
# 3 -0.001498 -0.001498 0.007094 0.000000 0.000000 0.000000
# 4 0.000000 0.000000 0.000000 -0.026829 0.000000 0.000000
# 5 0.000000 0.000000 0.000000 0.000000 -0.026829 0.000000
# 6 0.000000 0.000000 0.000000 0.000000 0.000000 0.030283
#
#
# Mechanical properties :
#
#
# Convention : Reuss Voigt Hill
#
# Bulk Modulus (GPa) = 84.99958 85.03904 85.01931
# Shear Modulus (GPa) = 209.06854 10.06426 109.56640
#
# Velocity S-wave (km/s) = 10.35500 2.27194 7.49626
# Velocity P-wave (km/s) = 13.65878 7.10610 10.88712
#
# Compressibility (1/GPa) = 0.01176476
#
# Stress axis : x y z
#
# Youngs Moduli (GPa) = 97.68852 97.68868 140.96873
#
# Poissons Ratio (x) = 0.47915 0.21119
# Poissons Ratio (y) = 0.47915 0.21119
# Poissons Ratio (z) = 0.14635 0.14635
#
# Static dielectric constant tensor:
#      x y z
#    x 3.606220 0.000000 0.000000 
#    y 0.000000 3.606220 0.000000 
#    z 0.000000 0.000000 3.509310 
# 
# 
# High freq. dielectric constant tensor:
#      x y z
#    x 1.764710 0.000000 0.000000 
#    y 0.000000 1.764710 0.000000 
#    z 0.000000 0.000000 1.761190 
# 
# From -- ./inp_files/2781.got.cif
#   From: 2010.03.12/outbox.cif.g09.slc.cpg/sg192_2_cif.got.tgz:2781.got - 2010.04.01 12:16:15.
