data_PCOD8329040
_publ_section_title
;
Structure prediction by ZEFSAII (Michael W. Deem and Ramdas Pophale) SiO2 
 PCOD8329040
Probable space group: P 6/M M M
;
_chemical_formula_sum "Si O2"
_cell_formula_units_Z 108
_cell_length_a 28.186034
_cell_length_b 28.186034
_cell_length_c 9.100481
_cell_angle_alpha 90.000000
_cell_angle_beta 90.000000
_cell_angle_gamma 120.000000
_cell_volume 6261.277064
_symmetry_space_group_name_H-M "P 6/M M M"
_symmetry_group_IT_number 191
_symmetry_cell_setting 'hexagonal'
loop_
_space_group_symop_operation_xyz
x,y,z
x-y,x,z
-y,x-y,z
-x,-y,z
-x+y,-x,z
y,-x+y,z
x-y,-y,-z
-x,-x+y,-z
y,x,-z
-y,-x,-z
-x+y,y,-z
x,x-y,-z
-x,-y,-z
-x+y,-x,-z
y,-x+y,-z
x,y,-z
x-y,x,-z
-y,x-y,-z
-x+y,y,z
x,x-y,z
-y,-x,z
y,x,z
x-y,-y,z
-x,-x+y,z
loop_
_atom_site_type_symbol
_atom_site_label
_atom_site_fract_x
_atom_site_fract_y
_atom_site_fract_z
Si Si1 0.444297 0.167014 0.672178
Si Si2 0.664113 0.775802 0.835269
Si Si3 0.494895 0.613682 0.825006
Si Si4 0.060819 0.228204 0.670109
Si Si5 0.000000 0.555852 0.159487
O O1 0.441591 0.156138 0.500000
O O2 0.454408 0.227204 0.707738
O O3 0.387970 0.119786 0.743422
O O4 0.494379 0.163137 0.744233
O O5 0.663971 0.831986 0.837592
O O6 0.719951 0.786559 0.759086
O O7 0.661034 0.753367 0.000000
O O8 0.433579 0.566422 0.784672
O O9 0.539918 0.597700 0.762106
O O10 0.501106 0.622303 0.000000
O O11 0.069324 0.245144 0.500000
O O12 0.105619 0.211237 0.720134
O O13 0.000000 0.176989 0.699667
O O14 0.000000 0.500000 0.134302
O O15 0.000000 0.580822 0.000000
#
# Coordination Sequence:
#
# PCOD8329040 Si02
#       5
#    24  24  24  24  12
#     4  10  20  33  49  70  98 131 164 198 239 287
#     4   9  17  30  48  68  90 118 155 198 240 283
#     4   9  17  31  52  75  98 126 160 197 237 283
#     4   9  17  30  48  69  95 127 161 198 242 291
#     4   7  12  26  47  69  93 119 147 183 229 277
#
# _framework density 17.248877
#
# number of rings (size 3 to 8) (size 9 to 14) (size 15 to 20)
#    0.000    3.000    0.000    2.667    0.000    4.889 
#    2.000    0.556    0.000    2.667    0.000    1.556 
#    0.000    0.000    0.000    5.556    0.000    5.778 
#
# Total GULP energy -1338328.707713 kJ/mol
# GULP energy per Si atom -12391.932479 kJ/mol
# Density = 1.720962 g / cm^3
# Si number density = 17.248877 Si / 1000 Ang^3
#
#
#
# Elastic Constant Matrix: (Units=GPa)
#
#
# Indices 1 2 3 4 5 6 
#
# 1 97.3894 53.4635 47.0744 0.0000 0.0000 0.0000
# 2 53.4635 97.3894 47.0744 0.0000 0.0000 0.0000
# 3 47.0744 47.0744 78.1856 0.0000 0.0000 0.0000
# 4 0.0000 0.0000 0.0000 20.9645 0.0000 0.0000
# 5 0.0000 0.0000 0.0000 0.0000 20.9645 0.0000
# 6 0.0000 0.0000 0.0000 0.0000 0.0000 21.9630
#
#
#
# Elastic Compliance Matrix: (Units=1/GPa)
#
#
# Indices 1 2 3 4 5 6 
#
# 1 0.016692 -0.006073 -0.006394 0.000000 0.000000 0.000000
# 2 -0.006073 0.016692 -0.006394 0.000000 0.000000 0.000000
# 3 -0.006394 -0.006394 0.020489 0.000000 0.000000 0.000000
# 4 0.000000 0.000000 0.000000 0.047700 0.000000 0.000000
# 5 0.000000 0.000000 0.000000 0.000000 0.047700 0.000000
# 6 0.000000 0.000000 0.000000 0.000000 0.000000 0.045531
#
#
# Mechanical properties :
#
#
# Convention : Reuss Voigt Hill
#
# Bulk Modulus (GPa) = 61.90819 63.13209 62.52014
# Shear Modulus (GPa) = 21.01633 21.13522 21.07578
#
# Velocity S-wave (km/s) = 3.49437 3.50424 3.49931
# Velocity P-wave (km/s) = 7.22841 7.28376 7.25613
#
# Compressibility (1/GPa) = 0.01615295
#
# Stress axis : x y z
#
# Youngs Moduli (GPa) = 59.90716 59.90716 48.80606
#
# Poissons Ratio (x) = 0.36382 0.31205
# Poissons Ratio (y) = 0.36382 0.31205
# Poissons Ratio (z) = 0.38303 0.38303
#
# Static dielectric constant tensor:
#      x y z
#    x 3.163150 0.000000 0.000000 
#    y 0.000000 3.163150 0.000000 
#    z 0.000000 0.000000 3.163640 
# 
# 
# High freq. dielectric constant tensor:
#      x y z
#    x 1.649770 0.000000 0.000000 
#    y 0.000000 1.649770 0.000000 
#    z 0.000000 0.000000 1.656550 
# 
# From -- ./inp_files/1671.got.cif
#   From: 2010.03.12/outbox.cif.g09.slc.cpg/sg191_1_cif.got.tgz:1671.got - 2010.04.01 12:09:02.
