data_PCOD8329707
_publ_section_title
;
Structure prediction by ZEFSAII (Michael W. Deem and Ramdas Pophale) SiO2 
 PCOD8329707
Probable space group: P 6/M C C
;
_chemical_formula_sum "Si O2"
_cell_formula_units_Z 120
_cell_length_a 14.891310
_cell_length_b 14.891310
_cell_length_c 30.944027
_cell_angle_alpha 90.000000
_cell_angle_beta 90.000000
_cell_angle_gamma 120.000000
_cell_volume 5942.555854
_symmetry_space_group_name_H-M "P 6/M C C"
_symmetry_group_IT_number 192
_symmetry_cell_setting 'hexagonal'
loop_
_space_group_symop_operation_xyz
x,y,z
x-y,x,z
-y,x-y,z
-x,-y,z
-x+y,-x,z
y,-x+y,z
x-y,-y,1/2-z
-x,-x+y,1/2-z
y,x,1/2-z
-y,-x,1/2-z
-x+y,y,1/2-z
x,x-y,1/2-z
-x,-y,-z
-x+y,-x,-z
y,-x+y,-z
x,y,-z
x-y,x,-z
-y,x-y,-z
-x+y,y,1/2+z
x,x-y,1/2+z
-y,-x,1/2+z
y,x,1/2+z
x-y,-y,1/2+z
-x,-x+y,1/2+z
loop_
_atom_site_type_symbol
_atom_site_label
_atom_site_fract_x
_atom_site_fract_y
_atom_site_fract_z
Si Si1 0.457771 0.762407 0.816175
Si Si2 0.253270 0.796734 0.589526
Si Si3 0.070897 0.833029 0.874279
Si Si4 0.670205 0.760452 0.279784
Si Si5 0.113914 0.533471 0.950147
O O1 0.359612 0.779625 0.808304
O O2 0.492637 0.792116 0.864966
O O3 0.548551 0.830735 0.783730
O O4 0.222558 0.887106 0.592658
O O5 0.342009 0.819696 0.554501
O O6 0.155245 0.685758 0.577284
O O7 0.064533 0.790942 0.825765
O O8 0.954597 0.807059 0.883051
O O9 0.674861 0.674861 0.250000
O O10 0.725037 0.862519 0.250000
O O11 0.000000 0.500000 0.932352
O O12 0.111834 0.503543 0.000000
#
# Coordination Sequence:
#
# PCOD8329707 Si02
#       5
#    24  24  24  24  24
#     4   9  19  39  60  80 115 164 202 244 306 378
#     4  11  20  39  60  91 128 162 202 251 306 376
#     4  11  23  40  65  88 119 164 214 273 324 369
#     4  11  22  38  58  84 119 152 206 268 320 376
#     4  11  22  36  60  93 127 163 200 240 300 373
#
# _framework density 20.193331000000001
#
# number of rings (size 3 to 8) (size 9 to 14) (size 15 to 20)
#    0.400    1.000    4.000    2.400    0.000    0.800 
#    0.000    2.000    0.000    0.000    0.000    0.000 
#    0.000    9.600    0.000    0.000    0.000    0.000 
#
# Total GULP energy -1486988.323418 kJ/mol
# GULP energy per Si atom -12391.569362 kJ/mol
# Density = 2.014737 g / cm^3
# Si number density = 20.193331 Si / 1000 Ang^3
#
#
#
# Elastic Constant Matrix: (Units=GPa)
#
#
# Indices 1 2 3 4 5 6 
#
# 1 108.6662 42.7688 27.6446 0.0000 0.0000 0.0000
# 2 42.7688 108.6662 27.6446 0.0000 0.0000 0.0000
# 3 27.6446 27.6446 63.7465 0.0000 0.0000 0.0000
# 4 0.0000 0.0000 0.0000 15.9231 0.0000 0.0000
# 5 0.0000 0.0000 0.0000 0.0000 15.9231 0.0000
# 6 0.0000 0.0000 0.0000 0.0000 0.0000 32.9487
#
#
#
# Elastic Compliance Matrix: (Units=1/GPa)
#
#
# Indices 1 2 3 4 5 6 
#
# 1 0.011510 -0.003665 -0.003402 0.000000 0.000000 0.000000
# 2 -0.003665 0.011510 -0.003402 0.000000 0.000000 0.000000
# 3 -0.003402 -0.003402 0.018638 0.000000 0.000000 0.000000
# 4 0.000000 0.000000 0.000000 0.062802 0.000000 0.000000
# 5 0.000000 0.000000 0.000000 0.000000 0.062802 0.000000
# 6 0.000000 0.000000 0.000000 0.000000 0.000000 0.030350
#
#
# Mechanical properties :
#
#
# Convention : Reuss Voigt Hill
#
# Bulk Modulus (GPa) = 48.26266 53.02163 50.64215
# Shear Modulus (GPa) = 22.17699 25.16034 23.66867
#
# Velocity S-wave (km/s) = 3.31756 3.53366 3.42731
# Velocity P-wave (km/s) = 6.21507 6.55462 6.38710
#
# Compressibility (1/GPa) = 0.02071995
#
# Stress axis : x y z
#
# Youngs Moduli (GPa) = 86.87781 86.87781 53.65342
#
# Poissons Ratio (x) = 0.31838 0.18255
# Poissons Ratio (y) = 0.31838 0.18255
# Poissons Ratio (z) = 0.29559 0.29559
#
# Static dielectric constant tensor:
#      x y z
#    x 3.774220 0.000000 0.000000 
#    y 0.000000 3.774220 0.000000 
#    z 0.000000 0.000000 3.523190 
# 
# 
# High freq. dielectric constant tensor:
#      x y z
#    x 1.789210 0.000000 0.000000 
#    y 0.000000 1.789210 0.000000 
#    z 0.000000 0.000000 1.781740 
# 
# From -- ./inp_files/6950.got.cif
#   From: 2010.03.12/outbox.cif.g09.slc.cpg/sg192_4_cif.got.tgz:6950.got - 2010.04.01 12:16:15.
