data_PCOD8329969
_publ_section_title
;
Structure prediction by ZEFSAII (Michael W. Deem and Ramdas Pophale) SiO2 
 PCOD8329969
Probable space group: P 63/M C M
;
_chemical_formula_sum "Si O2"
_cell_formula_units_Z 168
_cell_length_a 17.571365
_cell_length_b 17.571365
_cell_length_c 34.154863
_cell_angle_alpha 90.000000
_cell_angle_beta 90.000000
_cell_angle_gamma 120.000000
_cell_volume 9132.594604
_symmetry_space_group_name_H-M "P 63/M C M"
_symmetry_group_IT_number 193
_symmetry_cell_setting 'hexagonal'
loop_
_space_group_symop_operation_xyz
x,y,z
x-y,x,1/2+z
-y,x-y,z
-x,-y,1/2+z
-x+y,-x,z
y,-x+y,1/2+z
x-y,-y,1/2-z
-x,-x+y,1/2-z
y,x,1/2-z
-y,-x,-z
-x+y,y,-z
x,x-y,-z
-x,-y,-z
-x+y,-x,1/2-z
y,-x+y,-z
x,y,1/2-z
x-y,x,-z
-y,x-y,1/2-z
-x+y,y,1/2+z
x,x-y,1/2+z
-y,-x,1/2+z
y,x,z
x-y,-y,z
-x,-x+y,z
loop_
_atom_site_type_symbol
_atom_site_label
_atom_site_fract_x
_atom_site_fract_y
_atom_site_fract_z
Si Si1 0.532778 0.635518 0.498268
Si Si2 0.099369 0.198947 0.203413
Si Si3 0.635458 0.101467 0.150234
Si Si4 0.630325 0.899422 0.577685
Si Si5 0.202033 0.399701 0.296145
Si Si6 0.463861 0.101335 0.344209
Si Si7 0.627771 0.729569 0.572330
O O1 0.426687 0.573314 0.500000
O O2 0.574438 0.574438 0.504883
O O3 0.561058 0.685409 0.457211
O O4 0.567268 0.704381 0.533800
O O5 0.097377 0.196149 0.250000
O O6 0.150669 0.150669 0.187092
O O7 0.148481 0.299056 0.188417
O O8 0.000000 0.149195 0.186793
O O9 0.703134 0.152280 0.184529
O O10 0.566659 0.136624 0.148705
O O11 0.680897 0.117853 0.108211
O O12 0.587488 0.000000 0.161541
O O13 0.575610 0.881084 0.617098
O O14 0.671551 0.835084 0.576904
O O15 0.709663 0.000000 0.574645
O O16 0.214520 0.403137 0.250000
O O17 0.150793 0.450444 0.307757
O O18 0.414840 0.000000 0.332937
O O19 0.705021 0.705021 0.569394
#
# Coordination Sequence:
#
# PCOD8329969 Si02
#       7
#    24  24  24  24  24  24  24
#     4   9  17  30  53  84 114 144 180 221 263 312
#     4   9  17  30  51  80 111 139 169 213 273 335
#     4  10  21  38  58  78 104 141 183 226 276 333
#     4  10  19  34  57  84 114 148 185 224 269 326
#     4  11  22  37  56  78 105 139 184 235 279 332
#     4  10  21  38  58  78 104 141 183 226 276 333
#     4  10  19  34  57  84 114 148 185 224 269 326
#
# _framework density 18.395648999999999
#
# number of rings (size 3 to 8) (size 9 to 14) (size 15 to 20)
#    0.000    2.143    1.429    2.286    0.000    6.286 
#    0.857    1.429    0.000    4.286    0.000    0.000 
#    0.000    3.429    0.000    0.000    0.000    0.000 
#
# Total GULP energy -2083217.835906 kJ/mol
# GULP energy per Si atom -12400.106166 kJ/mol
# Density = 1.835378 g / cm^3
# Si number density = 18.395649 Si / 1000 Ang^3
#
#
#
# Elastic Constant Matrix: (Units=GPa)
#
#
# Indices 1 2 3 4 5 6 
#
# 1 92.0584 52.6100 11.1332 0.0000 0.0000 0.0000
# 2 52.6100 92.0584 11.1332 0.0000 0.0000 0.0000
# 3 11.1332 11.1332 57.8332 0.0000 0.0000 0.0000
# 4 0.0000 0.0000 0.0000 21.9800 0.0000 0.0000
# 5 0.0000 0.0000 0.0000 0.0000 21.9800 0.0000
# 6 0.0000 0.0000 0.0000 0.0000 0.0000 19.7242
#
#
#
# Elastic Compliance Matrix: (Units=1/GPa)
#
#
# Indices 1 2 3 4 5 6 
#
# 1 0.016236 -0.009113 -0.001371 0.000000 0.000000 0.000000
# 2 -0.009113 0.016236 -0.001371 0.000000 0.000000 0.000000
# 3 -0.001371 -0.001371 0.017819 0.000000 0.000000 0.000000
# 4 0.000000 0.000000 0.000000 0.045496 0.000000 0.000000
# 5 0.000000 0.000000 0.000000 0.000000 0.045496 0.000000
# 6 0.000000 0.000000 0.000000 0.000000 0.000000 0.050699
#
#
# Mechanical properties :
#
#
# Convention : Reuss Voigt Hill
#
# Bulk Modulus (GPa) = 37.62127 43.52255 40.57191
# Shear Modulus (GPa) = 22.26629 23.87506 23.07067
#
# Velocity S-wave (km/s) = 3.48287 3.60650 3.54522
# Velocity P-wave (km/s) = 6.05553 6.40726 6.23387
#
# Compressibility (1/GPa) = 0.02658071
#
# Stress axis : x y z
#
# Youngs Moduli (GPa) = 61.58963 61.58963 56.11967
#
# Poissons Ratio (x) = 0.56127 0.07696
# Poissons Ratio (y) = 0.56127 0.07696
# Poissons Ratio (z) = 0.08446 0.08446
#
# Static dielectric constant tensor:
#      x y z
#    x 3.456130 0.000000 0.000000 
#    y 0.000000 3.456130 0.000000 
#    z 0.000000 0.000000 3.301600 
# 
# 
# High freq. dielectric constant tensor:
#      x y z
#    x 1.706860 0.000000 0.000000 
#    y 0.000000 1.706860 0.000000 
#    z 0.000000 0.000000 1.710220 
# 
# From -- ./inp_files/9300.got.cif
#   From: 2010.03.12/outbox.cif.g09.slc.cpg/sg193_5_cif.got.tgz:9300.got - 2010.04.01 12:20:39.
