data_PCOD8329362
_publ_section_title
;
Structure prediction by ZEFSAII (Michael W. Deem and Ramdas Pophale) SiO2 
 PCOD8329362
Probable space group: P 6/M C C
;
_chemical_formula_sum "Si O2"
_cell_formula_units_Z 144
_cell_length_a 20.655085
_cell_length_b 20.655085
_cell_length_c 23.705178
_cell_angle_alpha 90.000000
_cell_angle_beta 90.000000
_cell_angle_gamma 120.000000
_cell_volume 8758.461505
_symmetry_space_group_name_H-M "P 6/M C C"
_symmetry_group_IT_number 192
_symmetry_cell_setting 'hexagonal'
loop_
_space_group_symop_operation_xyz
x,y,z
x-y,x,z
-y,x-y,z
-x,-y,z
-x+y,-x,z
y,-x+y,z
x-y,-y,1/2-z
-x,-x+y,1/2-z
y,x,1/2-z
-y,-x,1/2-z
-x+y,y,1/2-z
x,x-y,1/2-z
-x,-y,-z
-x+y,-x,-z
y,-x+y,-z
x,y,-z
x-y,x,-z
-y,x-y,-z
-x+y,y,1/2+z
x,x-y,1/2+z
-y,-x,1/2+z
y,x,1/2+z
x-y,-y,1/2+z
-x,-x+y,1/2+z
loop_
_atom_site_type_symbol
_atom_site_label
_atom_site_fract_x
_atom_site_fract_y
_atom_site_fract_z
Si Si1 0.474493 0.664704 0.500000
Si Si2 0.689386 0.916348 0.435824
Si Si3 0.689386 0.916348 0.935824
Si Si4 0.156867 0.464971 0.884245
Si Si5 0.308104 0.843133 0.384245
Si Si6 0.457093 0.914185 0.316676
Si Si7 0.525507 0.190211 0.500000
O O1 0.503791 0.646819 0.442856
O O2 0.384652 0.615348 0.500000
O O3 0.504419 0.752209 0.500000
O O4 0.657568 0.908716 0.500000
O O5 0.723828 0.861914 0.428711
O O6 0.624455 0.894122 0.389499
O O7 0.755264 1.000000 0.423561
O O8 0.624455 0.894122 0.889499
O O9 0.657568 0.908716 0.000000
O O10 0.244122 0.488244 0.873878
O O11 0.128464 0.498770 0.835728
O O12 0.143028 0.496209 0.942856
O O13 0.370306 0.871536 0.335728
O O14 0.456071 0.912142 0.250000
O O15 0.500000 0.000000 0.338754
#
# Coordination Sequence:
#
# PCOD8329362 Si02
#       7
#    12  24  24  24  24  24  12
#     4  10  17  28  46  70  97 120 147 193 251 301
#     4   9  16  27  45  70  97 123 151 189 236 287
#     4   9  16  27  45  70  97 123 151 189 236 287
#     4  10  19  33  51  71  96 122 158 202 249 295
#     4  10  19  33  51  71  96 122 158 202 249 295
#     4  11  24  39  51  67  95 132 173 211 245 285
#     4  10  17  28  46  70  97 120 147 193 251 301
#
# _framework density 16.441244000000001
#
# number of rings (size 3 to 8) (size 9 to 14) (size 15 to 20)
#    0.000    2.167    3.333    1.167    0.000    0.667 
#    1.000    0.833    0.000    0.333    0.000    2.333 
#    0.000    0.000    0.000    0.000    0.000    0.000 
#
# Total GULP energy -1784298.084482 kJ/mol
# GULP energy per Si atom -12390.958920 kJ/mol
# Density = 1.640382 g / cm^3
# Si number density = 16.441244 Si / 1000 Ang^3
#
#
#
# Elastic Constant Matrix: (Units=GPa)
#
#
# Indices 1 2 3 4 5 6 
#
# 1 104.8502 58.3877 32.2452 0.0000 0.0000 0.0000
# 2 58.3877 104.8502 32.2452 0.0000 0.0000 0.0000
# 3 32.2452 32.2452 59.2210 0.0000 0.0000 0.0000
# 4 0.0000 0.0000 0.0000 19.1456 0.0000 0.0000
# 5 0.0000 0.0000 0.0000 0.0000 19.1456 0.0000
# 6 0.0000 0.0000 0.0000 0.0000 0.0000 23.2313
#
#
#
# Elastic Compliance Matrix: (Units=1/GPa)
#
#
# Indices 1 2 3 4 5 6 
#
# 1 0.014664 -0.006859 -0.004250 0.000000 0.000000 0.000000
# 2 -0.006859 0.014664 -0.004250 0.000000 0.000000 0.000000
# 3 -0.004250 -0.004250 0.021514 0.000000 0.000000 0.000000
# 4 0.000000 0.000000 0.000000 0.052231 0.000000 0.000000
# 5 0.000000 0.000000 0.000000 0.000000 0.052231 0.000000
# 6 0.000000 0.000000 0.000000 0.000000 0.000000 0.043045
#
#
# Mechanical properties :
#
#
# Convention : Reuss Voigt Hill
#
# Bulk Modulus (GPa) = 49.68993 57.18640 53.43817
# Shear Modulus (GPa) = 21.20669 22.04070 21.62370
#
# Velocity S-wave (km/s) = 3.59534 3.66536 3.63052
# Velocity P-wave (km/s) = 6.89374 7.26436 7.08147
#
# Compressibility (1/GPa) = 0.02012480
#
# Stress axis : x y z
#
# Youngs Moduli (GPa) = 68.19493 68.19493 46.48194
#
# Poissons Ratio (x) = 0.46774 0.19753
# Poissons Ratio (y) = 0.46774 0.19753
# Poissons Ratio (z) = 0.28981 0.28981
#
# Static dielectric constant tensor:
#      x y z
#    x 3.044570 0.000000 0.000000 
#    y 0.000000 3.044570 0.000000 
#    z 0.000000 0.000000 2.874590 
# 
# 
# High freq. dielectric constant tensor:
#      x y z
#    x 1.625390 0.000000 0.000000 
#    y 0.000000 1.625390 0.000000 
#    z 0.000000 0.000000 1.601520 
# 
# From -- ./inp_files/5981.got.cif
#   From: 2010.03.12/outbox.cif.g09.slc.cpg/sg192_3_cif.got.tgz:5981.got - 2010.04.01 12:16:15.
