data_PCOD8329667
_publ_section_title
;
Structure prediction by ZEFSAII (Michael W. Deem and Ramdas Pophale) SiO2 
 PCOD8329667
Probable space group: P 6/M C C
;
_chemical_formula_sum "Si O2"
_cell_formula_units_Z 92
_cell_length_a 17.863097
_cell_length_b 17.863097
_cell_length_c 18.769699
_cell_angle_alpha 90.000000
_cell_angle_beta 90.000000
_cell_angle_gamma 120.000000
_cell_volume 5186.823298
_symmetry_space_group_name_H-M "P 6/M C C"
_symmetry_group_IT_number 192
_symmetry_cell_setting 'hexagonal'
loop_
_space_group_symop_operation_xyz
x,y,z
x-y,x,z
-y,x-y,z
-x,-y,z
-x+y,-x,z
y,-x+y,z
x-y,-y,1/2-z
-x,-x+y,1/2-z
y,x,1/2-z
-y,-x,1/2-z
-x+y,y,1/2-z
x,x-y,1/2-z
-x,-y,-z
-x+y,-x,-z
y,-x+y,-z
x,y,-z
x-y,x,-z
-y,x-y,-z
-x+y,y,1/2+z
x,x-y,1/2+z
-y,-x,1/2+z
y,x,1/2+z
x-y,-y,1/2+z
-x,-x+y,1/2+z
loop_
_atom_site_type_symbol
_atom_site_label
_atom_site_fract_x
_atom_site_fract_y
_atom_site_fract_z
Si Si1 0.741571 0.525231 0.168305
Si Si2 0.428351 0.403472 0.330580
Si Si3 0.148757 0.195763 0.500000
Si Si4 0.642037 0.736781 0.078795
Si Si5 0.333334 0.666668 0.665428
O O1 0.770058 0.540115 0.250000
O O2 0.654337 0.527807 0.158718
O O3 0.816450 0.599231 0.121854
O O4 0.721946 0.432053 0.139022
O O5 0.500000 0.500000 0.351295
O O6 0.396648 0.396648 0.250000
O O7 0.347200 0.369687 0.381923
O O8 0.161853 0.114147 0.500000
O O9 0.193937 0.255392 0.429899
O O10 0.599153 0.709979 0.000000
O O11 0.333334 0.666667 0.750000
#
# Coordination Sequence:
#
# PCOD8329667 Si02
#       5
#    24  24  12  24   8
#     4  11  20  37  59  86 119 158 204 249 297 354
#     4  11  22  36  60  89 121 161 206 249 298 357
#     4  10  21  40  65  88 118 150 198 244 314 382
#     4  10  23  39  59  89 122 155 199 250 306 362
#     4   9  21  33  58  83 118 165 205 251 289 345
#
# _framework density 17.737252999999999
#
# number of rings (size 3 to 8) (size 9 to 14) (size 15 to 20)
#    0.783    0.783    2.609    3.261    7.304    0.522 
#    0.000    3.913    0.000    0.000    0.000    0.000 
#    0.000    0.000    0.000    0.000    0.000    0.000 
#
# Total GULP energy -1140681.329638 kJ/mol
# GULP energy per Si atom -12398.710105 kJ/mol
# Density = 1.769688 g / cm^3
# Si number density = 17.737253 Si / 1000 Ang^3
#
#
#
# Elastic Constant Matrix: (Units=GPa)
#
#
# Indices 1 2 3 4 5 6 
#
# 1 143.9747 70.6405 50.8854 -0.0002 -0.0003 0.0008
# 2 70.6405 143.9748 50.8856 0.0005 0.0000 -0.0005
# 3 50.8854 50.8856 80.5659 0.0000 0.0001 -0.0001
# 4 -0.0002 0.0005 0.0000 19.6571 0.0000 -0.0001
# 5 -0.0003 0.0000 0.0001 0.0000 19.6564 0.0003
# 6 0.0008 -0.0005 -0.0001 -0.0001 0.0003 36.6665
#
#
#
# Elastic Compliance Matrix: (Units=1/GPa)
#
#
# Indices 1 2 3 4 5 6 
#
# 1 0.010144 -0.003492 -0.004201 0.000000 0.000000 0.000000
# 2 -0.003492 0.010144 -0.004201 0.000000 0.000000 0.000000
# 3 -0.004201 -0.004201 0.017719 0.000000 0.000000 0.000000
# 4 0.000000 0.000000 0.000000 0.050872 0.000000 0.000000
# 5 0.000000 0.000000 0.000000 0.000000 0.050874 0.000000
# 6 0.000000 0.000000 0.000000 0.000000 0.000000 0.027273
#
#
# Mechanical properties :
#
#
# Convention : Reuss Voigt Hill
#
# Bulk Modulus (GPa) = 70.33476 79.25983 74.79729
# Shear Modulus (GPa) = 25.56828 28.26961 26.91894
#
# Velocity S-wave (km/s) = 3.80083 3.99657 3.89993
# Velocity P-wave (km/s) = 7.68125 8.12892 7.90825
#
# Compressibility (1/GPa) = 0.01421772
#
# Stress axis : x y z
#
# Youngs Moduli (GPa) = 98.58087 98.58063 56.43586
#
# Poissons Ratio (x) = 0.34427 0.23710
# Poissons Ratio (y) = 0.34427 0.23710
# Poissons Ratio (z) = 0.41416 0.41416
#
# Static dielectric constant tensor:
#      x y z
#    x 3.309380 0.000000 0.000000 
#    y 0.000000 3.309380 0.000000 
#    z 0.000000 0.000000 3.180620 
# 
# 
# High freq. dielectric constant tensor:
#      x y z
#    x 1.695550 0.000000 0.000000 
#    y 0.000000 1.695550 0.000000 
#    z 0.000000 0.000000 1.668620 
# 
# From -- ./inp_files/4024.got.cif
#   From: 2010.03.12/outbox.cif.g09.slc.cpg/sg192_3_cif.got.tgz:4024.got - 2010.04.01 12:16:15.
