data_PCOD8329565
_publ_section_title
;
Structure prediction by ZEFSAII (Michael W. Deem and Ramdas Pophale) SiO2 
 PCOD8329565
Probable space group: P 6/M C C
;
_chemical_formula_sum "Si O2"
_cell_formula_units_Z 144
_cell_length_a 31.050010
_cell_length_b 31.050010
_cell_length_c 8.643781
_cell_angle_alpha 90.000000
_cell_angle_beta 90.000000
_cell_angle_gamma 120.000000
_cell_volume 7217.019446
_symmetry_space_group_name_H-M "P 6/M C C"
_symmetry_group_IT_number 192
_symmetry_cell_setting 'hexagonal'
loop_
_space_group_symop_operation_xyz
x,y,z
x-y,x,z
-y,x-y,z
-x,-y,z
-x+y,-x,z
y,-x+y,z
x-y,-y,1/2-z
-x,-x+y,1/2-z
y,x,1/2-z
-y,-x,1/2-z
-x+y,y,1/2-z
x,x-y,1/2-z
-x,-y,-z
-x+y,-x,-z
y,-x+y,-z
x,y,-z
x-y,x,-z
-y,x-y,-z
-x+y,y,1/2+z
x,x-y,1/2+z
-y,-x,1/2+z
y,x,1/2+z
x-y,-y,1/2+z
-x,-x+y,1/2+z
loop_
_atom_site_type_symbol
_atom_site_label
_atom_site_fract_x
_atom_site_fract_y
_atom_site_fract_z
Si Si1 0.760487 0.147748 0.816810
Si Si2 0.755532 0.702735 0.182789
Si Si3 0.145702 0.947621 0.318672
Si Si4 0.053002 0.480427 0.817170
Si Si5 0.476354 0.333482 0.681231
Si Si6 0.758146 0.332673 0.819818
O O1 0.814676 0.185325 0.750000
O O2 0.745808 0.092535 0.767928
O O3 0.721400 0.161390 0.744432
O O4 0.760934 0.152505 0.000000
O O5 0.714557 0.714557 0.250000
O O6 0.810412 0.747014 0.226284
O O7 0.748490 0.693930 0.000000
O O8 0.094640 0.905361 0.250000
O O9 0.140353 0.949535 0.500000
O O10 0.156676 0.000000 0.250000
O O11 0.069400 0.534700 0.750000
O O12 0.093185 0.465031 0.770525
O O13 0.000000 0.439365 0.750000
O O14 0.049036 0.482142 0.000000
O O15 0.467449 0.335945 0.500000
O O16 0.532305 0.346606 0.717679
O O17 0.720982 0.279019 0.750000
O O18 0.747471 0.373736 0.750000
O O19 0.748127 0.330032 0.000000
#
# Coordination Sequence:
#
# PCOD8329565 Si02
#       6
#    24  24  24  24  24  24
#     4  12  25  41  61  86 118 158 199 242 292 350
#     4  10  21  38  60  87 118 153 194 242 292 346
#     4  10  20  34  55  82 113 148 189 236 287 340
#     4  11  22  39  63  91 122 157 197 244 295 350
#     4  11  24  42  63  89 119 155 198 245 294 349
#     4  11  24  41  64  90 120 153 190 236 287 344
#
# _framework density 19.952836999999999
#
# number of rings (size 3 to 8) (size 9 to 14) (size 15 to 20)
#    0.000    1.167    0.000    7.167    0.000    9.333 
#    0.000    3.333    0.000    0.167    0.000    1.167 
#    0.000    0.000    0.000    0.000    0.000    0.000 
#
# Total GULP energy -1786732.811824 kJ/mol
# GULP energy per Si atom -12407.866749 kJ/mol
# Density = 1.990742 g / cm^3
# Si number density = 19.952837 Si / 1000 Ang^3
#
#
#
# Elastic Constant Matrix: (Units=GPa)
#
#
# Indices 1 2 3 4 5 6 
#
# 1 -69.9216 199.1637 47.9693 0.0000 0.0000 0.0000
# 2 199.1637 -69.9216 47.9693 0.0000 0.0000 0.0000
# 3 47.9693 47.9693 131.4139 0.0000 0.0000 0.0000
# 4 0.0000 0.0000 0.0000 34.6220 0.0000 0.0000
# 5 0.0000 0.0000 0.0000 0.0000 34.6220 0.0000
# 6 0.0000 0.0000 0.0000 0.0000 0.0000 -134.5426
#
#
#
# Elastic Compliance Matrix: (Units=1/GPa)
#
#
# Indices 1 2 3 4 5 6 
#
# 1 0.003448 0.007165 -0.003874 0.000000 0.000000 0.000000
# 2 0.007165 0.003448 -0.003874 0.000000 0.000000 0.000000
# 3 -0.003874 -0.003874 0.010438 0.000000 0.000000 0.000000
# 4 0.000000 0.000000 0.000000 0.028883 0.000000 0.000000
# 5 0.000000 0.000000 0.000000 0.000000 0.028883 0.000000
# 6 0.000000 0.000000 0.000000 0.000000 0.000000 -0.007433
#
#
# Mechanical properties :
#
#
# Convention : Reuss Voigt Hill
#
# Bulk Modulus (GPa) = 61.85089 64.64168 63.24629
# Shear Modulus (GPa) = 67.36268 -33.29518 17.03375
#
# Velocity S-wave (km/s) = 5.81672 -4.08940 2.92499
# Velocity P-wave (km/s) = 8.72801 3.18905 6.57070
#
# Compressibility (1/GPa) = 0.01616792
#
# Stress axis : x y z
#
# Youngs Moduli (GPa) = 289.98463 289.98463 95.80556
#
# Poissons Ratio (x) = -2.07767 0.37116
# Poissons Ratio (y) = -2.07767 0.37116
# Poissons Ratio (z) = 1.12342 1.12342
#
# Static dielectric constant tensor:
#      x y z
#    x 3.841150 0.000000 0.000000 
#    y 0.000000 3.841150 0.000000 
#    z 0.000000 0.000000 3.781440 
# 
# 
# High freq. dielectric constant tensor:
#      x y z
#    x 1.782670 0.000000 0.000000 
#    y 0.000000 1.782670 0.000000 
#    z 0.000000 0.000000 1.798020 
# 
# From -- ./inp_files/1132.got.cif
#   From: 2010.03.12/outbox.cif.g09.slc.cpg/sg192_1_cif.got.tgz:1132.got - 2010.04.01 12:16:15.
