data_PCOD8329341
_publ_section_title
;
Structure prediction by ZEFSAII (Michael W. Deem and Ramdas Pophale) SiO2 
 PCOD8329341
Probable space group: P 6/M M M
;
_chemical_formula_sum "Si O2"
_cell_formula_units_Z 120
_cell_length_a 18.323491
_cell_length_b 18.323491
_cell_length_c 28.316162
_cell_angle_alpha 90.000000
_cell_angle_beta 90.000000
_cell_angle_gamma 120.000000
_cell_volume 8233.442529
_symmetry_space_group_name_H-M "P 6/M M M"
_symmetry_group_IT_number 191
_symmetry_cell_setting 'hexagonal'
loop_
_space_group_symop_operation_xyz
x,y,z
x-y,x,z
-y,x-y,z
-x,-y,z
-x+y,-x,z
y,-x+y,z
x-y,-y,-z
-x,-x+y,-z
y,x,-z
-y,-x,-z
-x+y,y,-z
x,x-y,-z
-x,-y,-z
-x+y,-x,-z
y,-x+y,-z
x,y,-z
x-y,x,-z
-y,x-y,-z
-x+y,y,z
x,x-y,z
-y,-x,z
y,x,z
x-y,-y,z
-x,-x+y,z
loop_
_atom_site_type_symbol
_atom_site_label
_atom_site_fract_x
_atom_site_fract_y
_atom_site_fract_z
Si Si1 0.666477 0.500094 0.620475
Si Si2 0.348899 0.255853 0.446256
Si Si3 0.000000 0.413321 0.784515
Si Si4 0.497115 0.333008 0.729487
Si Si5 0.586751 0.586751 0.891431
Si Si6 0.333048 0.498402 0.944730
O O1 0.737360 0.474719 0.611365
O O2 0.577861 0.422140 0.605725
O O3 0.680488 0.576873 0.587750
O O4 0.667239 0.525507 0.674741
O O5 0.382356 0.275988 0.500000
O O6 0.318565 0.159283 0.433003
O O7 0.269308 0.269308 0.439027
O O8 0.915598 0.342572 0.758816
O O9 0.000000 0.500000 0.782575
O O10 0.000000 0.383967 0.837969
O O11 0.492348 0.246174 0.744660
O O12 0.591398 0.408603 0.740134
O O13 0.500000 0.500000 0.893623
O O14 0.657603 0.573693 0.917457
O O15 0.246306 0.492612 0.928556
O O16 0.408614 0.591387 0.931749
O O17 0.333145 0.480949 0.000000
#
# Coordination Sequence:
#
# PCOD8329341 Si02
#       6
#    24  24  12  24  12  24
#     4   9  17  28  43  61  82 108 138 170 203 240
#     4   9  18  31  45  62  84 109 136 166 204 250
#     4   9  18  29  40  57  79 104 136 173 211 246
#     4   9  17  29  44  60  79 106 140 176 211 247
#     4   9  17  28  39  54  80 109 135 167 211 253
#     4   9  16  26  41  60  81 107 140 174 204 238
#
# _framework density 14.574706000000001
#
# number of rings (size 3 to 8) (size 9 to 14) (size 15 to 20)
#    0.000    3.000    0.000    0.900    1.400    5.200 
#    0.000    1.000    0.000    3.800    0.000    1.400 
#    0.000    0.000    0.000    0.600    0.000    7.100 
#
# Total GULP energy -1487830.895309 kJ/mol
# GULP energy per Si atom -12398.590794 kJ/mol
# Density = 1.454153 g / cm^3
# Si number density = 14.574706 Si / 1000 Ang^3
#
#
#
# Elastic Constant Matrix: (Units=GPa)
#
#
# Indices 1 2 3 4 5 6 
#
# 1 89.8544 56.3872 47.5005 0.0000 0.0000 0.0000
# 2 56.3872 89.8544 47.5005 0.0000 0.0000 0.0000
# 3 47.5005 47.5005 67.8435 0.0000 0.0000 0.0000
# 4 0.0000 0.0000 0.0000 18.8755 0.0000 0.0000
# 5 0.0000 0.0000 0.0000 0.0000 18.8755 0.0000
# 6 0.0000 0.0000 0.0000 0.0000 0.0000 16.7336
#
#
#
# Elastic Compliance Matrix: (Units=1/GPa)
#
#
# Indices 1 2 3 4 5 6 
#
# 1 0.021211 -0.008669 -0.008782 0.000000 0.000000 0.000000
# 2 -0.008669 0.021211 -0.008782 0.000000 0.000000 0.000000
# 3 -0.008782 -0.008782 0.027037 0.000000 0.000000 0.000000
# 4 0.000000 0.000000 0.000000 0.052979 0.000000 0.000000
# 5 0.000000 0.000000 0.000000 0.000000 0.052979 0.000000
# 6 0.000000 0.000000 0.000000 0.000000 0.000000 0.059760
#
#
# Mechanical properties :
#
#
# Convention : Reuss Voigt Hill
#
# Bulk Modulus (GPa) = 58.83982 61.14761 59.99371
# Shear Modulus (GPa) = 17.04699 17.30787 17.17743
#
# Velocity S-wave (km/s) = 3.42369 3.44979 3.43677
# Velocity P-wave (km/s) = 7.48917 7.61011 7.54988
#
# Compressibility (1/GPa) = 0.01699529
#
# Stress axis : x y z
#
# Youngs Moduli (GPa) = 47.14439 47.14439 36.98636
#
# Poissons Ratio (x) = 0.40868 0.32481
# Poissons Ratio (y) = 0.40868 0.32481
# Poissons Ratio (z) = 0.41401 0.41401
#
# Static dielectric constant tensor:
#      x y z
#    x 2.749660 0.000000 0.000000 
#    y 0.000000 2.749660 0.000000 
#    z 0.000000 0.000000 2.903440 
# 
# 
# High freq. dielectric constant tensor:
#      x y z
#    x 1.537220 0.000000 0.000000 
#    y 0.000000 1.537220 0.000000 
#    z 0.000000 0.000000 1.560430 
# 
# From -- ./inp_files/10315.got.cif
#   From: 2010.03.12/outbox.cif.g09.slc.cpg/sg191_6_cif.got.tgz:10315.got - 2010.04.01 12:09:02.
