data_PCOD8329369
_publ_section_title
;
Structure prediction by ZEFSAII (Michael W. Deem and Ramdas Pophale) SiO2 
 PCOD8329369
Probable space group: P 6/M C C
;
_chemical_formula_sum "Si O2"
_cell_formula_units_Z 132
_cell_length_a 26.614616
_cell_length_b 26.614616
_cell_length_c 14.219761
_cell_angle_alpha 90.000000
_cell_angle_beta 90.000000
_cell_angle_gamma 120.000000
_cell_volume 8722.949087
_symmetry_space_group_name_H-M "P 6/M C C"
_symmetry_group_IT_number 192
_symmetry_cell_setting 'hexagonal'
loop_
_space_group_symop_operation_xyz
x,y,z
x-y,x,z
-y,x-y,z
-x,-y,z
-x+y,-x,z
y,-x+y,z
x-y,-y,1/2-z
-x,-x+y,1/2-z
y,x,1/2-z
-y,-x,1/2-z
-x+y,y,1/2-z
x,x-y,1/2-z
-x,-y,-z
-x+y,-x,-z
y,-x+y,-z
x,y,-z
x-y,x,-z
-y,x-y,-z
-x+y,y,1/2+z
x,x-y,1/2+z
-y,-x,1/2+z
y,x,1/2+z
x-y,-y,1/2+z
-x,-x+y,1/2+z
loop_
_atom_site_type_symbol
_atom_site_label
_atom_site_fract_x
_atom_site_fract_y
_atom_site_fract_z
Si Si1 0.179936 0.244258 0.250149
Si Si2 0.268082 0.665937 0.000000
Si Si3 0.111852 0.768513 0.603786
Si Si4 0.275629 0.431680 0.753583
Si Si5 0.339677 0.111412 0.102767
Si Si6 0.334307 0.773883 0.294971
O O1 0.188024 0.188024 0.250000
O O2 0.111501 0.223001 0.250000
O O3 0.213718 0.284611 0.339194
O O4 0.209660 0.279983 0.155965
O O5 0.276563 0.609317 0.000000
O O6 0.232942 0.666031 0.092054
O O7 0.085505 0.744947 0.500000
O O8 0.119873 0.719096 0.658354
O O9 0.173978 0.824849 0.594293
O O10 0.214293 0.428585 0.750000
O O11 0.278300 0.394531 0.841168
O O12 0.325609 0.497896 0.766615
O O13 0.336897 0.084753 0.000000
O O14 0.286146 0.713855 0.250000
O O15 0.395288 0.790575 0.250000
#
# Coordination Sequence:
#
# PCOD8329369 Si02
#       6
#    24  12  24  24  24  24
#     4   9  17  28  44  66  93 121 149 175 203 237
#     4  10  18  28  38  46  68 112 150 189 235 255
#     4   8  14  28  43  60  83 109 137 173 218 264
#     4   8  16  25  38  56  75 104 138 178 221 266
#     4   8  14  26  41  59  82 106 135 171 215 258
#     4  11  18  29  37  51  77 106 149 191 225 271
#
# _framework density 15.132497000000001
#
# number of rings (size 3 to 8) (size 9 to 14) (size 15 to 20)
#    0.182    2.909    1.818    2.364    1.273    0.727 
#    6.545    0.000    0.000    0.182    0.000    0.000 
#    0.000   11.636    0.000   22.182    0.000    1.455 
#
# Total GULP energy -1635436.410885 kJ/mol
# GULP energy per Si atom -12389.669779 kJ/mol
# Density = 1.509805 g / cm^3
# Si number density = 15.132497 Si / 1000 Ang^3
#
#
#
# Elastic Constant Matrix: (Units=GPa)
#
#
# Indices 1 2 3 4 5 6 
#
# 1 69.4930 41.9111 36.2667 0.0000 0.0000 0.0000
# 2 41.9111 69.4930 36.2667 0.0000 0.0000 0.0000
# 3 36.2667 36.2667 142.6077 0.0000 0.0000 0.0000
# 4 0.0000 0.0000 0.0000 7.7346 0.0000 0.0000
# 5 0.0000 0.0000 0.0000 0.0000 7.7346 0.0000
# 6 0.0000 0.0000 0.0000 0.0000 0.0000 13.7910
#
#
#
# Elastic Compliance Matrix: (Units=1/GPa)
#
#
# Indices 1 2 3 4 5 6 
#
# 1 0.023507 -0.012749 -0.002736 0.000000 0.000000 0.000000
# 2 -0.012749 0.023507 -0.002736 0.000000 0.000000 0.000000
# 3 -0.002736 -0.002736 0.008404 0.000000 0.000000 0.000000
# 4 0.000000 0.000000 0.000000 0.129290 0.000000 0.000000
# 5 0.000000 0.000000 0.000000 0.000000 0.129290 0.000000
# 6 0.000000 0.000000 0.000000 0.000000 0.000000 0.072511
#
#
# Mechanical properties :
#
#
# Convention : Reuss Voigt Hill
#
# Bulk Modulus (GPa) = 52.69884 56.72029 54.70957
# Shear Modulus (GPa) = 11.64758 16.99531 14.32145
#
# Velocity S-wave (km/s) = 2.77737 3.35490 3.07970
# Velocity P-wave (km/s) = 6.72202 7.25059 6.99130
#
# Compressibility (1/GPa) = 0.01897575
#
# Stress axis : x y z
#
# Youngs Moduli (GPa) = 42.54130 42.54130 118.99503
#
# Poissons Ratio (x) = 0.54236 0.32554
# Poissons Ratio (y) = 0.54236 0.32554
# Poissons Ratio (z) = 0.11638 0.11638
#
# Static dielectric constant tensor:
#      x y z
#    x 2.620840 0.000000 0.000000 
#    y 0.000000 2.620840 0.000000 
#    z 0.000000 0.000000 3.626310 
# 
# 
# High freq. dielectric constant tensor:
#      x y z
#    x 1.537940 0.000000 0.000000 
#    y 0.000000 1.537940 0.000000 
#    z 0.000000 0.000000 1.598990 
# 
# From -- ./inp_files/3337.got.cif
#   From: 2010.03.12/outbox.cif.g09.slc.cpg/sg192_2_cif.got.tgz:3337.got - 2010.04.01 12:16:15.
