data_PCOD8329892
_publ_section_title
;
Structure prediction by ZEFSAII (Michael W. Deem and Ramdas Pophale) SiO2 
 PCOD8329892
Probable space group: P 63/M C M
;
_chemical_formula_sum "Si O2"
_cell_formula_units_Z 104
_cell_length_a 18.727340
_cell_length_b 18.727340
_cell_length_c 19.183442
_cell_angle_alpha 90.000000
_cell_angle_beta 90.000000
_cell_angle_gamma 120.000000
_cell_volume 5826.521531
_symmetry_space_group_name_H-M "P 63/M C M"
_symmetry_group_IT_number 193
_symmetry_cell_setting 'hexagonal'
loop_
_space_group_symop_operation_xyz
x,y,z
x-y,x,1/2+z
-y,x-y,z
-x,-y,1/2+z
-x+y,-x,z
y,-x+y,1/2+z
x-y,-y,1/2-z
-x,-x+y,1/2-z
y,x,1/2-z
-y,-x,-z
-x+y,y,-z
x,x-y,-z
-x,-y,-z
-x+y,-x,1/2-z
y,-x+y,-z
x,y,1/2-z
x-y,x,-z
-y,x-y,1/2-z
-x+y,y,1/2+z
x,x-y,1/2+z
-y,-x,1/2+z
y,x,z
x-y,-y,z
-x,-x+y,z
loop_
_atom_site_type_symbol
_atom_site_label
_atom_site_fract_x
_atom_site_fract_y
_atom_site_fract_z
Si Si1 0.527388 0.902722 0.672626
Si Si2 0.906819 0.654038 0.082212
Si Si3 0.341300 0.828184 0.832184
Si Si4 0.092843 0.751175 0.578116
Si Si5 0.333334 0.666668 0.667783
O O1 0.522978 0.865890 0.750000
O O2 0.436656 0.874613 0.645326
O O3 0.574723 0.871202 0.622933
O O4 0.576806 0.000000 0.674207
O O5 0.870114 0.571422 0.126522
O O6 0.848847 0.695122 0.091595
O O7 0.000000 0.718960 0.106844
O O8 0.906161 0.631346 0.001453
O O9 0.330679 0.837411 0.750000
O O10 0.305853 0.732658 0.855781
O O11 0.000000 0.727464 0.600376
O O12 0.333334 0.666668 0.750000
#
# Coordination Sequence:
#
# PCOD8329892 Si02
#       5
#    24  24  24  24   8
#     4   9  17  30  49  71  95 125 159 195 233 272
#     4  10  20  33  50  71  95 123 153 192 241 283
#     4  10  19  31  47  70  99 129 163 198 230 268
#     4   9  19  35  52  70  93 122 157 193 232 285
#     4   9  18  30  45  64  92 133 169 197 229 261
#
# _framework density 17.849415
#
# number of rings (size 3 to 8) (size 9 to 14) (size 15 to 20)
#    0.000    2.538    0.000    2.077    0.000    5.077 
#    0.000    3.462    0.000    3.231    0.000    3.231 
#    0.000    0.000    0.000    5.308    0.000    6.462 
#
# Total GULP energy -1289021.680406 kJ/mol
# GULP energy per Si atom -12394.439235 kJ/mol
# Density = 1.780879 g / cm^3
# Si number density = 17.849415 Si / 1000 Ang^3
#
#
#
# Elastic Constant Matrix: (Units=GPa)
#
#
# Indices 1 2 3 4 5 6 
#
# 1 111.4239 64.7138 42.2580 0.0000 -0.0001 -0.0001
# 2 64.7138 111.4234 42.2580 0.0000 0.0000 -0.0001
# 3 42.2580 42.2580 49.7809 0.0000 0.0000 0.0000
# 4 0.0000 0.0000 0.0000 21.9552 -0.0001 -0.0001
# 5 -0.0001 0.0000 0.0000 -0.0001 21.9555 0.0000
# 6 -0.0001 -0.0001 0.0000 -0.0001 0.0000 23.3546
#
#
#
# Elastic Compliance Matrix: (Units=1/GPa)
#
#
# Indices 1 2 3 4 5 6 
#
# 1 0.015494 -0.005915 -0.008132 0.000000 0.000000 0.000000
# 2 -0.005915 0.015494 -0.008132 0.000000 0.000000 0.000000
# 3 -0.008132 -0.008132 0.033893 0.000000 0.000000 0.000000
# 4 0.000000 0.000000 0.000000 0.045547 0.000000 0.000000
# 5 0.000000 0.000000 0.000000 0.000000 0.045547 0.000000
# 6 0.000000 0.000000 0.000000 0.000000 0.000000 0.042818
#
#
# Mechanical properties :
#
#
# Convention : Reuss Voigt Hill
#
# Bulk Modulus (GPa) = 48.71975 63.45421 56.08698
# Shear Modulus (GPa) = 20.00072 21.67962 20.84017
#
# Velocity S-wave (km/s) = 3.35106 3.48887 3.42066
# Velocity P-wave (km/s) = 6.50591 7.20115 6.86234
#
# Compressibility (1/GPa) = 0.02052556
#
# Stress axis : x y z
#
# Youngs Moduli (GPa) = 64.54148 64.54115 29.50424
#
# Poissons Ratio (x) = 0.38175 0.23991
# Poissons Ratio (y) = 0.38175 0.23992
# Poissons Ratio (z) = 0.52482 0.52482
#
# Static dielectric constant tensor:
#      x y z
#    x 3.523250 0.000000 0.000000 
#    y 0.000000 3.523260 0.000000 
#    z 0.000000 0.000000 3.400720 
# 
# 
# High freq. dielectric constant tensor:
#      x y z
#    x 1.688400 0.000000 0.000000 
#    y 0.000000 1.688400 0.000000 
#    z 0.000000 0.000000 1.676590 
# 
# From -- ./inp_files/3692.got.cif
#   From: 2010.03.12/outbox.cif.g09.slc.cpg/sg193_2_cif.got.tgz:3692.got - 2010.04.01 12:20:39.
