data_PCOD8329593
_publ_section_title
;
Structure prediction by ZEFSAII (Michael W. Deem and Ramdas Pophale) SiO2 
 PCOD8329593
Probable space group: P 6/M C C
;
_chemical_formula_sum "Si O2"
_cell_formula_units_Z 138
_cell_length_a 29.712936
_cell_length_b 29.712936
_cell_length_c 8.942840
_cell_angle_alpha 90.000000
_cell_angle_beta 90.000000
_cell_angle_gamma 120.000000
_cell_volume 6837.498238
_symmetry_space_group_name_H-M "P 6/M C C"
_symmetry_group_IT_number 192
_symmetry_cell_setting 'hexagonal'
loop_
_space_group_symop_operation_xyz
x,y,z
x-y,x,z
-y,x-y,z
-x,-y,z
-x+y,-x,z
y,-x+y,z
x-y,-y,1/2-z
-x,-x+y,1/2-z
y,x,1/2-z
-y,-x,1/2-z
-x+y,y,1/2-z
x,x-y,1/2-z
-x,-y,-z
-x+y,-x,-z
y,-x+y,-z
x,y,-z
x-y,x,-z
-y,x-y,-z
-x+y,y,1/2+z
x,x-y,1/2+z
-y,-x,1/2+z
y,x,1/2+z
x-y,-y,1/2+z
-x,-x+y,1/2+z
loop_
_atom_site_type_symbol
_atom_site_label
_atom_site_fract_x
_atom_site_fract_y
_atom_site_fract_z
Si Si1 0.789854 0.944083 0.182412
Si Si2 0.521460 0.303438 0.664400
Si Si3 0.168550 0.584275 0.750000
Si Si4 0.417535 0.298639 0.674600
Si Si5 0.476945 0.083063 0.344430
Si Si6 0.500000 0.000000 0.250000
Si Si7 0.791957 0.112395 0.180098
O O1 0.803486 0.901743 0.250000
O O2 0.733295 0.930746 0.243919
O O3 0.831772 0.000000 0.250000
O O4 0.790827 0.943873 0.000000
O O5 0.543616 0.271808 0.750000
O O6 0.508709 0.280563 0.500000
O O7 0.567090 0.363423 0.656089
O O8 0.465546 0.291538 0.730447
O O9 0.133245 0.598841 0.649534
O O10 0.404324 0.287259 0.500000
O O11 0.439473 0.359892 0.708119
O O12 0.366279 0.264669 0.772996
O O13 0.449760 0.084188 0.500000
O O14 0.485072 0.034197 0.352433
O O15 0.831975 0.168026 0.250000
O O16 0.797566 0.111950 0.000000
#
# Coordination Sequence:
#
# PCOD8329593 Si02
#       7
#    24  24  12  24  24   6  24
#     4  11  22  40  65  96 132 174 220 265 312 361
#     4  10  21  35  54  78 103 134 173 221 278 341
#     4   9  20  37  56  76 102 134 174 222 274 334
#     4  10  21  37  55  81 113 146 187 237 290 347
#     4  10  20  36  59  80 103 139 182 228 280 345
#     4  10  22  36  56  82 110 136 180 230 294 352
#     4  11  21  36  59  88 122 161 202 245 297 356
#
# _framework density 20.182821000000001
#
# number of rings (size 3 to 8) (size 9 to 14) (size 15 to 20)
#    0.000    1.739    0.000    6.000    0.000   10.435 
#    2.087    0.000    0.000    0.174    0.000    1.217 
#    0.000    0.000    0.000    0.000    0.000    0.000 
#
# Total GULP energy -1709573.747381 kJ/mol
# GULP energy per Si atom -12388.215561 kJ/mol
# Density = 2.013688 g / cm^3
# Si number density = 20.182821 Si / 1000 Ang^3
#
#
#
# Elastic Constant Matrix: (Units=GPa)
#
#
# Indices 1 2 3 4 5 6 
#
# 1 114.8366 56.2860 45.8995 0.0000 0.0000 0.0000
# 2 56.2860 114.8366 45.8995 0.0000 0.0000 0.0000
# 3 45.8995 45.8995 145.5714 0.0000 0.0000 0.0000
# 4 0.0000 0.0000 0.0000 15.0603 0.0000 0.0000
# 5 0.0000 0.0000 0.0000 0.0000 15.0603 0.0000
# 6 0.0000 0.0000 0.0000 0.0000 0.0000 29.2753
#
#
#
# Elastic Compliance Matrix: (Units=1/GPa)
#
#
# Indices 1 2 3 4 5 6 
#
# 1 0.012056 -0.005023 -0.002218 0.000000 0.000000 0.000000
# 2 -0.005023 0.012056 -0.002218 0.000000 0.000000 0.000000
# 3 -0.002218 -0.002218 0.008268 0.000000 0.000000 0.000000
# 4 0.000000 0.000000 0.000000 0.066400 0.000000 0.000000
# 5 0.000000 0.000000 0.000000 0.000000 0.066400 0.000000
# 6 0.000000 0.000000 0.000000 0.000000 0.000000 0.034158
#
#
# Mechanical properties :
#
#
# Convention : Reuss Voigt Hill
#
# Bulk Modulus (GPa) = 74.27145 74.60164 74.43654
# Shear Modulus (GPa) = 22.44735 27.02314 24.73525
#
# Velocity S-wave (km/s) = 3.33859 3.66309 3.50460
# Velocity P-wave (km/s) = 7.19311 7.41176 7.30325
#
# Compressibility (1/GPa) = 0.01346412
#
# Stress axis : x y z
#
# Youngs Moduli (GPa) = 82.94392 82.94392 120.94850
#
# Poissons Ratio (x) = 0.41662 0.26823
# Poissons Ratio (y) = 0.41662 0.26823
# Poissons Ratio (z) = 0.18394 0.18394
#
# Static dielectric constant tensor:
#      x y z
#    x 3.639460 0.000000 0.000000 
#    y 0.000000 3.639460 0.000000 
#    z 0.000000 0.000000 3.697030 
# 
# 
# High freq. dielectric constant tensor:
#      x y z
#    x 1.775830 0.000000 0.000000 
#    y 0.000000 1.775830 0.000000 
#    z 0.000000 0.000000 1.798150 
# 
# From -- ./inp_files/1221.got.cif
#   From: 2010.03.12/outbox.cif.g09.slc.cpg/sg192_1_cif.got.tgz:1221.got - 2010.04.01 12:16:15.
