data_PCOD8329654
_publ_section_title
;
Structure prediction by ZEFSAII (Michael W. Deem and Ramdas Pophale) SiO2 
 PCOD8329654
Probable space group: P 6/M C C
;
_chemical_formula_sum "Si O2"
_cell_formula_units_Z 132
_cell_length_a 22.720502
_cell_length_b 22.720502
_cell_length_c 14.875326
_cell_angle_alpha 90.000000
_cell_angle_beta 90.000000
_cell_angle_gamma 120.000000
_cell_volume 6650.173399
_symmetry_space_group_name_H-M "P 6/M C C"
_symmetry_group_IT_number 192
_symmetry_cell_setting 'hexagonal'
loop_
_space_group_symop_operation_xyz
x,y,z
x-y,x,z
-y,x-y,z
-x,-y,z
-x+y,-x,z
y,-x+y,z
x-y,-y,1/2-z
-x,-x+y,1/2-z
y,x,1/2-z
-y,-x,1/2-z
-x+y,y,1/2-z
x,x-y,1/2-z
-x,-y,-z
-x+y,-x,-z
y,-x+y,-z
x,y,-z
x-y,x,-z
-y,x-y,-z
-x+y,y,1/2+z
x,x-y,1/2+z
-y,-x,1/2+z
y,x,1/2+z
x-y,-y,1/2+z
-x,-x+y,1/2+z
loop_
_atom_site_type_symbol
_atom_site_label
_atom_site_fract_x
_atom_site_fract_y
_atom_site_fract_z
Si Si1 0.703619 0.705651 0.897507
Si Si2 0.155978 0.059657 0.500000
Si Si3 0.583436 0.855916 0.103812
Si Si4 0.425670 0.281594 0.100269
Si Si5 0.332156 0.802217 0.747087
Si Si6 0.211430 0.155234 0.811429
O O1 0.711356 0.642061 0.865711
O O2 0.627251 0.691523 0.891420
O O3 0.745440 0.764838 0.827513
O O4 0.731567 0.726497 0.000000
O O5 0.117815 0.100708 0.500000
O O6 0.199051 0.078777 0.591323
O O7 0.606814 0.799556 0.122202
O O8 0.515408 0.836412 0.158882
O O9 0.565876 0.857633 0.000000
O O10 0.486929 0.326588 0.165440
O O11 0.455753 0.294611 0.000000
O O12 0.277651 0.722350 0.750000
O O13 0.406681 0.813361 0.750000
O O14 0.146871 0.146871 0.750000
O O15 0.248442 0.124221 0.750000
#
# Coordination Sequence:
#
# PCOD8329654 Si02
#       6
#    24  12  24  24  24  24
#     4  10  22  39  61  88 120 162 201 247 304 367
#     4  12  25  46  60  80 110 150 197 258 316 378
#     4   9  20  38  59  86 121 158 199 249 305 356
#     4   9  20  37  57  85 121 156 198 245 304 355
#     4  10  21  38  62  89 119 156 198 244 293 354
#     4  12  26  39  61  89 119 150 202 259 314 374
#
# _framework density 19.849105999999999
#
# number of rings (size 3 to 8) (size 9 to 14) (size 15 to 20)
#    0.000    1.818    2.727    0.273    5.091    1.455 
#    0.000    1.818    0.000    5.455    0.000    0.000 
#    0.000    0.000    0.000    0.000    0.000    0.000 
#
# Total GULP energy -1636009.174340 kJ/mol
# GULP energy per Si atom -12394.008897 kJ/mol
# Density = 1.980393 g / cm^3
# Si number density = 19.849106 Si / 1000 Ang^3
#
#
#
# Elastic Constant Matrix: (Units=GPa)
#
#
# Indices 1 2 3 4 5 6 
#
# 1 127.8391 66.0287 58.2825 0.0000 0.0000 0.0000
# 2 66.0287 127.8391 58.2825 0.0000 0.0000 0.0000
# 3 58.2825 58.2825 132.7932 0.0000 0.0000 0.0000
# 4 0.0000 0.0000 0.0000 24.6190 0.0000 0.0000
# 5 0.0000 0.0000 0.0000 0.0000 24.6190 0.0000
# 6 0.0000 0.0000 0.0000 0.0000 0.0000 30.9052
#
#
#
# Elastic Compliance Matrix: (Units=1/GPa)
#
#
# Indices 1 2 3 4 5 6 
#
# 1 0.011593 -0.004586 -0.003075 0.000000 0.000000 0.000000
# 2 -0.004586 0.011593 -0.003075 0.000000 0.000000 0.000000
# 3 -0.003075 -0.003075 0.010230 0.000000 0.000000 0.000000
# 4 0.000000 0.000000 0.000000 0.040619 0.000000 0.000000
# 5 0.000000 0.000000 0.000000 0.000000 0.040619 0.000000
# 6 0.000000 0.000000 0.000000 0.000000 0.000000 0.032357
#
#
# Mechanical properties :
#
#
# Convention : Reuss Voigt Hill
#
# Bulk Modulus (GPa) = 83.73221 83.73987 83.73604
# Shear Modulus (GPa) = 28.99135 29.75382 29.37258
#
# Velocity S-wave (km/s) = 3.82591 3.87589 3.85098
# Velocity P-wave (km/s) = 7.86084 7.89366 7.87727
#
# Compressibility (1/GPa) = 0.01194283
#
# Stress axis : x y z
#
# Youngs Moduli (GPa) = 86.25961 86.25961 97.75031
#
# Poissons Ratio (x) = 0.39555 0.30063
# Poissons Ratio (y) = 0.39555 0.30063
# Poissons Ratio (z) = 0.26529 0.26529
#
# Static dielectric constant tensor:
#      x y z
#    x 3.423270 0.000000 0.000000 
#    y 0.000000 3.423270 0.000000 
#    z 0.000000 0.000000 3.785800 
# 
# 
# High freq. dielectric constant tensor:
#      x y z
#    x 1.754360 0.000000 0.000000 
#    y 0.000000 1.754360 0.000000 
#    z 0.000000 0.000000 1.804530 
# 
# From -- ./inp_files/3215.got.cif
#   From: 2010.03.12/outbox.cif.g09.slc.cpg/sg192_2_cif.got.tgz:3215.got - 2010.04.01 12:16:15.
