data_PCOD8329580
_publ_section_title
;
Structure prediction by ZEFSAII (Michael W. Deem and Ramdas Pophale) SiO2 
 PCOD8329580
Probable space group: P 6/M C C
;
_chemical_formula_sum "Si O2"
_cell_formula_units_Z 144
_cell_length_a 32.298423
_cell_length_b 32.298423
_cell_length_c 8.624016
_cell_angle_alpha 90.000000
_cell_angle_beta 90.000000
_cell_angle_gamma 120.000000
_cell_volume 7791.172525
_symmetry_space_group_name_H-M "P 6/M C C"
_symmetry_group_IT_number 192
_symmetry_cell_setting 'hexagonal'
loop_
_space_group_symop_operation_xyz
x,y,z
x-y,x,z
-y,x-y,z
-x,-y,z
-x+y,-x,z
y,-x+y,z
x-y,-y,1/2-z
-x,-x+y,1/2-z
y,x,1/2-z
-y,-x,1/2-z
-x+y,y,1/2-z
x,x-y,1/2-z
-x,-y,-z
-x+y,-x,-z
y,-x+y,-z
x,y,-z
x-y,x,-z
-y,x-y,-z
-x+y,y,1/2+z
x,x-y,1/2+z
-y,-x,1/2+z
y,x,1/2+z
x-y,-y,1/2+z
-x,-x+y,1/2+z
loop_
_atom_site_type_symbol
_atom_site_label
_atom_site_fract_x
_atom_site_fract_y
_atom_site_fract_z
Si Si1 0.277666 0.380427 0.821001
Si Si2 0.190912 0.897047 0.818086
Si Si3 0.283371 0.477865 0.182048
Si Si4 0.192262 0.141102 0.684046
Si Si5 0.473731 0.614442 0.182819
Si Si6 0.613355 0.562060 0.181889
O O1 0.244949 0.334874 0.714899
O O2 0.267366 0.423041 0.780090
O O3 0.332407 0.397308 0.780166
O O4 0.266087 0.365465 0.000000
O O5 0.155341 0.844660 0.750000
O O6 0.181325 0.936350 0.738367
O O7 0.182082 0.897250 0.000000
O O8 0.244968 0.489935 0.250000
O O9 0.333258 0.513460 0.261768
O O10 0.289385 0.487195 0.000000
O O11 0.153493 0.153493 0.750000
O O12 0.179355 0.089678 0.750000
O O13 0.190180 0.139265 0.500000
O O14 0.422113 0.577888 0.250000
O O15 0.512147 0.600440 0.241752
O O16 0.472149 0.612246 0.000000
O O17 0.577389 0.577389 0.250000
O O18 0.605853 0.553483 0.000000
#
# Coordination Sequence:
#
# PCOD8329580 Si02
#       6
#    24  24  24  24  24  24
#     4   9  19  34  51  74 108 146 184 226 268 314
#     4  11  21  33  51  76 107 143 182 222 264 312
#     4  10  20  35  56  83 112 143 180 221 269 323
#     4  11  22  39  60  83 110 141 178 219 265 315
#     4  11  22  38  59  82 109 141 179 224 273 325
#     4  10  21  37  55  77 106 141 183 229 276 324
#
# _framework density 18.482455000000002
#
# number of rings (size 3 to 8) (size 9 to 14) (size 15 to 20)
#    0.000    1.667    0.000    8.000    0.000    6.333 
#    0.000    3.333    0.000    0.500    0.000    3.500 
#    0.000    0.000    0.000    0.000    0.000    0.000 
#
# Total GULP energy -1786326.194440 kJ/mol
# GULP energy per Si atom -12405.043017 kJ/mol
# Density = 1.844039 g / cm^3
# Si number density = 18.482455 Si / 1000 Ang^3
#
#
#
# Elastic Constant Matrix: (Units=GPa)
#
#
# Indices 1 2 3 4 5 6 
#
# 1 95.4908 66.7009 52.8211 0.0000 0.0000 0.0000
# 2 66.7009 95.4908 52.8211 0.0000 0.0000 0.0000
# 3 52.8211 52.8211 155.9341 0.0000 0.0000 0.0000
# 4 0.0000 0.0000 0.0000 32.6463 0.0000 0.0000
# 5 0.0000 0.0000 0.0000 0.0000 32.6463 0.0000
# 6 0.0000 0.0000 0.0000 0.0000 0.0000 14.3949
#
#
#
# Elastic Compliance Matrix: (Units=1/GPa)
#
#
# Indices 1 2 3 4 5 6 
#
# 1 0.021323 -0.013412 -0.002680 0.000000 0.000000 0.000000
# 2 -0.013412 0.021323 -0.002680 0.000000 0.000000 0.000000
# 3 -0.002680 -0.002680 0.008228 0.000000 0.000000 0.000000
# 4 0.000000 0.000000 0.000000 0.030631 0.000000 0.000000
# 5 0.000000 0.000000 0.000000 0.000000 0.030631 0.000000
# 6 0.000000 0.000000 0.000000 0.000000 0.000000 0.069469
#
#
# Mechanical properties :
#
#
# Convention : Reuss Voigt Hill
#
# Bulk Modulus (GPa) = 75.01111 76.84467 75.92789
# Shear Modulus (GPa) = 22.36218 27.57566 24.96892
#
# Velocity S-wave (km/s) = 3.48216 3.86682 3.67952
# Velocity P-wave (km/s) = 7.53925 7.84881 7.69559
#
# Compressibility (1/GPa) = 0.01333136
#
# Stress axis : x y z
#
# Youngs Moduli (GPa) = 46.89834 46.89834 121.52952
#
# Poissons Ratio (x) = 0.62899 0.32567
# Poissons Ratio (y) = 0.62899 0.32567
# Poissons Ratio (z) = 0.12568 0.12568
#
# Static dielectric constant tensor:
#      x y z
#    x 3.336380 0.000000 0.000000 
#    y 0.000000 3.336380 0.000000 
#    z 0.000000 0.000000 3.495520 
# 
# 
# High freq. dielectric constant tensor:
#      x y z
#    x 1.709720 0.000000 0.000000 
#    y 0.000000 1.709720 0.000000 
#    z 0.000000 0.000000 1.735590 
# 
# From -- ./inp_files/1145.got.cif
#   From: 2010.03.12/outbox.cif.g09.slc.cpg/sg192_1_cif.got.tgz:1145.got - 2010.04.01 12:16:15.
