data_PCOD8329419
_publ_section_title
;
Structure prediction by ZEFSAII (Michael W. Deem and Ramdas Pophale) SiO2 
 PCOD8329419
Probable space group: P 6/M C C
;
_chemical_formula_sum "Si O2"
_cell_formula_units_Z 120
_cell_length_a 18.252215
_cell_length_b 18.252215
_cell_length_c 25.513403
_cell_angle_alpha 90.000000
_cell_angle_beta 90.000000
_cell_angle_gamma 120.000000
_cell_volume 7360.887368
_symmetry_space_group_name_H-M "P 6/M C C"
_symmetry_group_IT_number 192
_symmetry_cell_setting 'hexagonal'
loop_
_space_group_symop_operation_xyz
x,y,z
x-y,x,z
-y,x-y,z
-x,-y,z
-x+y,-x,z
y,-x+y,z
x-y,-y,1/2-z
-x,-x+y,1/2-z
y,x,1/2-z
-y,-x,1/2-z
-x+y,y,1/2-z
x,x-y,1/2-z
-x,-y,-z
-x+y,-x,-z
y,-x+y,-z
x,y,-z
x-y,x,-z
-y,x-y,-z
-x+y,y,1/2+z
x,x-y,1/2+z
-y,-x,1/2+z
y,x,1/2+z
x-y,-y,1/2+z
-x,-x+y,1/2+z
loop_
_atom_site_type_symbol
_atom_site_label
_atom_site_fract_x
_atom_site_fract_y
_atom_site_fract_z
Si Si1 0.091728 0.894146 0.810353
Si Si2 0.325412 0.259530 0.058982
Si Si3 0.163237 0.511400 0.061081
Si Si4 0.174656 0.494688 0.561997
Si Si5 0.788487 0.682508 0.103186
O O1 0.112082 0.887919 0.750000
O O2 0.126614 0.840452 0.842150
O O3 0.993139 0.855011 0.824601
O O4 0.418611 0.322207 0.084484
O O5 0.309838 0.164469 0.058708
O O6 0.250640 0.257873 0.092166
O O7 0.321083 0.287135 0.000000
O O8 0.259144 0.533627 0.071320
O O9 0.150023 0.586681 0.083013
O O10 0.145479 0.504664 0.000000
O O11 0.152224 0.472561 0.500000
O O12 0.123889 0.413684 0.600006
#
# Coordination Sequence:
#
# PCOD8329419 Si02
#       5
#    24  24  24  24  24
#     4  10  20  36  56  74  90 113 153 205 252 290
#     4  10  19  30  43  64  96 133 164 189 226 282
#     4   8  15  26  41  62  93 132 168 198 223 257
#     4   9  16  27  44  68  98 132 167 197 228 268
#     4  11  19  30  46  67  95 124 155 193 241 288
#
# _framework density 16.302382999999999
#
# number of rings (size 3 to 8) (size 9 to 14) (size 15 to 20)
#    0.000    2.400    2.000    3.600    0.000    3.200 
#    0.000    3.000    0.000    0.000    0.000    8.400 
#    0.000    0.000    0.000    0.000    0.000    0.000 
#
# Total GULP energy -1486608.116023 kJ/mol
# GULP energy per Si atom -12388.400967 kJ/mol
# Density = 1.626528 g / cm^3
# Si number density = 16.302383 Si / 1000 Ang^3
#
#
#
# Elastic Constant Matrix: (Units=GPa)
#
#
# Indices 1 2 3 4 5 6 
#
# 1 99.4900 47.8898 30.9299 0.0000 0.0000 0.0000
# 2 47.8898 99.4900 30.9299 0.0000 0.0000 0.0000
# 3 30.9299 30.9299 51.0735 0.0000 0.0000 0.0000
# 4 0.0000 0.0000 0.0000 18.6826 0.0000 0.0000
# 5 0.0000 0.0000 0.0000 0.0000 18.6826 0.0000
# 6 0.0000 0.0000 0.0000 0.0000 0.0000 25.8001
#
#
#
# Elastic Compliance Matrix: (Units=1/GPa)
#
#
# Indices 1 2 3 4 5 6 
#
# 1 0.014239 -0.005141 -0.005510 0.000000 0.000000 0.000000
# 2 -0.005141 0.014239 -0.005510 0.000000 0.000000 0.000000
# 3 -0.005510 -0.005510 0.026253 0.000000 0.000000 0.000000
# 4 0.000000 0.000000 0.000000 0.053526 0.000000 0.000000
# 5 0.000000 0.000000 0.000000 0.000000 0.053526 0.000000
# 6 0.000000 0.000000 0.000000 0.000000 0.000000 0.038759
#
#
# Mechanical properties :
#
#
# Convention : Reuss Voigt Hill
#
# Bulk Modulus (GPa) = 44.62290 52.17251 48.39770
# Shear Modulus (GPa) = 20.80462 21.98668 21.39565
#
# Velocity S-wave (km/s) = 3.57623 3.67642 3.62667
# Velocity P-wave (km/s) = 6.66963 7.07770 6.87670
#
# Compressibility (1/GPa) = 0.02241002
#
# Stress axis : x y z
#
# Youngs Moduli (GPa) = 70.23102 70.23102 38.09126
#
# Poissons Ratio (x) = 0.36106 0.20987
# Poissons Ratio (y) = 0.36106 0.20987
# Poissons Ratio (z) = 0.38694 0.38694
#
# Static dielectric constant tensor:
#      x y z
#    x 3.264240 0.000000 0.000000 
#    y 0.000000 3.264240 0.000000 
#    z 0.000000 0.000000 2.661900 
# 
# 
# High freq. dielectric constant tensor:
#      x y z
#    x 1.636060 0.000000 0.000000 
#    y 0.000000 1.636060 0.000000 
#    z 0.000000 0.000000 1.562680 
# 
# From -- ./inp_files/7036.got.cif
#   From: 2010.03.12/outbox.cif.g09.slc.cpg/sg192_4_cif.got.tgz:7036.got - 2010.04.01 12:16:15.
