data_PCOD8329717
_publ_section_title
;
Structure prediction by ZEFSAII (Michael W. Deem and Ramdas Pophale) SiO2 
 PCOD8329717
Probable space group: P 6/M C C
;
_chemical_formula_sum "Si O2"
_cell_formula_units_Z 96
_cell_length_a 24.765652
_cell_length_b 24.765652
_cell_length_c 10.306190
_cell_angle_alpha 90.000000
_cell_angle_beta 90.000000
_cell_angle_gamma 120.000000
_cell_volume 5474.296404
_symmetry_space_group_name_H-M "P 6/M C C"
_symmetry_group_IT_number 192
_symmetry_cell_setting 'hexagonal'
loop_
_space_group_symop_operation_xyz
x,y,z
x-y,x,z
-y,x-y,z
-x,-y,z
-x+y,-x,z
y,-x+y,z
x-y,-y,1/2-z
-x,-x+y,1/2-z
y,x,1/2-z
-y,-x,1/2-z
-x+y,y,1/2-z
x,x-y,1/2-z
-x,-y,-z
-x+y,-x,-z
y,-x+y,-z
x,y,-z
x-y,x,-z
-y,x-y,-z
-x+y,y,1/2+z
x,x-y,1/2+z
-y,-x,1/2+z
y,x,1/2+z
x-y,-y,1/2+z
-x,-x+y,1/2+z
loop_
_atom_site_type_symbol
_atom_site_label
_atom_site_fract_x
_atom_site_fract_y
_atom_site_fract_z
Si Si1 0.314310 0.433123 0.000000
Si Si2 0.072864 0.472748 0.252582
Si Si3 0.861669 0.138332 0.750000
Si Si4 0.306383 0.298934 0.500000
Si Si5 0.767246 0.000000 0.250000
Si Si6 0.903654 0.331164 0.500000
Si Si7 0.635446 0.814967 0.000000
O O1 0.356906 0.464754 0.124607
O O2 0.278024 0.357469 0.000000
O O3 0.247552 0.430247 0.000000
O O4 0.080831 0.540416 0.250000
O O5 0.000000 0.420127 0.250000
O O6 0.109179 0.469384 0.126980
O O7 0.833972 0.063379 0.743398
O O8 0.843178 0.164554 0.873912
O O9 0.264463 0.275368 0.373756
O O10 0.349561 0.373737 0.500000
O O11 0.866675 0.257832 0.500000
#
# Coordination Sequence:
#
# PCOD8329717 Si02
#       7
#    12  24  12  12  12  12  12
#     4  12  21  35  53  79 113 143 175 219 261 316
#     4  11  22  35  54  78 108 146 178 206 253 314
#     4  12  22  36  52  79 108 146 190 228 280 338
#     4  12  20  34  55  78 110 155 170 220 272 322
#     4  12  22  36  52  75 111 146 190 228 276 336
#     4  12  21  35  53  79 113 143 175 219 261 316
#     4  12  24  34  56  82 112 145 182 220 280 332
#
# _framework density 17.536501000000001
#
# number of rings (size 3 to 8) (size 9 to 14) (size 15 to 20)
#    0.000    0.250    7.500    3.750    0.000    2.000 
#    0.000    0.000    0.000    0.250    0.000    0.000 
#   25.000    4.000    0.000    0.000    0.000    0.500 
#
# Total GULP energy -1189891.784571 kJ/mol
# GULP energy per Si atom -12394.706089 kJ/mol
# Density = 1.749659 g / cm^3
# Si number density = 17.536501 Si / 1000 Ang^3
#
#
#
# Elastic Constant Matrix: (Units=GPa)
#
#
# Indices 1 2 3 4 5 6 
#
# 1 86.3054 23.1686 41.2091 0.0000 0.0000 0.0000
# 2 23.1686 86.3054 41.2091 0.0000 0.0000 0.0000
# 3 41.2091 41.2091 164.8048 0.0000 0.0000 0.0000
# 4 0.0000 0.0000 0.0000 89.7845 0.0000 0.0000
# 5 0.0000 0.0000 0.0000 0.0000 89.7845 0.0000
# 6 0.0000 0.0000 0.0000 0.0000 0.0000 31.5684
#
#
#
# Elastic Compliance Matrix: (Units=1/GPa)
#
#
# Indices 1 2 3 4 5 6 
#
# 1 0.013546 -0.002293 -0.002814 0.000000 0.000000 0.000000
# 2 -0.002293 0.013546 -0.002814 0.000000 0.000000 0.000000
# 3 -0.002814 -0.002814 0.007475 0.000000 0.000000 0.000000
# 4 0.000000 0.000000 0.000000 0.011138 0.000000 0.000000
# 5 0.000000 0.000000 0.000000 0.000000 0.011138 0.000000
# 6 0.000000 0.000000 0.000000 0.000000 0.000000 0.031677
#
#
# Mechanical properties :
#
#
# Convention : Reuss Voigt Hill
#
# Bulk Modulus (GPa) = 53.40241 60.95435 57.17838
# Shear Modulus (GPa) = 45.20716 57.68276 51.44496
#
# Velocity S-wave (km/s) = 5.08280 5.74146 5.42214
# Velocity P-wave (km/s) = 8.06007 8.87618 8.47795
#
# Compressibility (1/GPa) = 0.01872575
#
# Stress axis : x y z
#
# Youngs Moduli (GPa) = 73.82372 73.82372 133.78034
#
# Poissons Ratio (x) = 0.16927 0.37643
# Poissons Ratio (y) = 0.16927 0.37643
# Poissons Ratio (z) = 0.20772 0.20772
#
# Static dielectric constant tensor:
#      x y z
#    x 3.249370 0.000000 0.000000 
#    y 0.000000 3.249370 0.000000 
#    z 0.000000 0.000000 3.521770 
# 
# 
# High freq. dielectric constant tensor:
#      x y z
#    x 1.660500 0.000000 0.000000 
#    y 0.000000 1.660500 0.000000 
#    z 0.000000 0.000000 1.705780 
# 
# From -- ./inp_files/1753.got.cif
#   From: 2010.03.12/outbox.cif.g09.slc.cpg/sg192_1_cif.got.tgz:1753.got - 2010.04.01 12:16:15.
