data_PCOD8329111
_publ_section_title
;
Structure prediction by ZEFSAII (Michael W. Deem and Ramdas Pophale) SiO2 
 PCOD8329111
Probable space group: P 6/M M M
;
_chemical_formula_sum "Si O2"
_cell_formula_units_Z 108
_cell_length_a 28.030798
_cell_length_b 28.030798
_cell_length_c 8.995181
_cell_angle_alpha 90.000000
_cell_angle_beta 90.000000
_cell_angle_gamma 120.000000
_cell_volume 6120.846126
_symmetry_space_group_name_H-M "P 6/M M M"
_symmetry_group_IT_number 191
_symmetry_cell_setting 'hexagonal'
loop_
_space_group_symop_operation_xyz
x,y,z
x-y,x,z
-y,x-y,z
-x,-y,z
-x+y,-x,z
y,-x+y,z
x-y,-y,-z
-x,-x+y,-z
y,x,-z
-y,-x,-z
-x+y,y,-z
x,x-y,-z
-x,-y,-z
-x+y,-x,-z
y,-x+y,-z
x,y,-z
x-y,x,-z
-y,x-y,-z
-x+y,y,z
x,x-y,z
-y,-x,z
y,x,z
x-y,-y,z
-x,-x+y,z
loop_
_atom_site_type_symbol
_atom_site_label
_atom_site_fract_x
_atom_site_fract_y
_atom_site_fract_z
Si Si1 0.551435 0.830881 0.174802
Si Si2 0.112570 0.774399 0.333775
Si Si3 0.610840 0.499852 0.674444
Si Si4 0.443455 0.443455 0.832648
Si Si5 0.168060 0.938949 0.172375
O O1 0.540453 0.770227 0.215586
O O2 0.610081 0.878492 0.236528
O O3 0.504064 0.838616 0.253190
O O4 0.550089 0.838642 0.000000
O O5 0.093890 0.750658 0.500000
O O6 0.168525 0.831476 0.337759
O O7 0.066583 0.784974 0.259988
O O8 0.618948 0.510693 0.500000
O O9 0.560778 0.439223 0.710613
O O10 0.601253 0.547133 0.746157
O O11 0.500000 0.500000 0.836211
O O12 0.422538 0.422538 0.000000
O O13 0.106225 0.893776 0.224572
O O14 0.177627 0.000000 0.203308
O O15 0.175858 0.930416 0.000000
#
# Coordination Sequence:
#
# PCOD8329111 Si02
#       5
#    24  24  24  12  24
#     4  10  20  34  53  76 102 133 169 208 250 298
#     4   9  17  30  48  69  94 123 156 198 246 294
#     4  10  20  34  53  77 105 136 170 209 252 298
#     4   9  17  31  51  73  99 131 165 203 247 295
#     4   9  17  30  48  69  95 128 165 204 247 297
#
# _framework density 17.64462
#
# number of rings (size 3 to 8) (size 9 to 14) (size 15 to 20)
#    0.000    2.556    0.000    2.333    0.000    7.111 
#    2.000    0.000    0.000    0.667    0.000    1.556 
#    0.000    0.000    0.000    5.556    0.000    5.778 
#
# Total GULP energy -1339063.305517 kJ/mol
# GULP energy per Si atom -12398.734310 kJ/mol
# Density = 1.760446 g / cm^3
# Si number density = 17.644620 Si / 1000 Ang^3
#
#
#
# Elastic Constant Matrix: (Units=GPa)
#
#
# Indices 1 2 3 4 5 6 
#
# 1 95.4869 51.9402 52.6603 0.0000 0.0000 0.0000
# 2 51.9402 95.4869 52.6603 0.0000 0.0000 0.0000
# 3 52.6603 52.6603 111.2346 0.0000 0.0000 0.0000
# 4 0.0000 0.0000 0.0000 26.5687 0.0000 0.0000
# 5 0.0000 0.0000 0.0000 0.0000 26.5687 0.0000
# 6 0.0000 0.0000 0.0000 0.0000 0.0000 21.7733
#
#
#
# Elastic Compliance Matrix: (Units=1/GPa)
#
#
# Indices 1 2 3 4 5 6 
#
# 1 0.016607 -0.006357 -0.004852 0.000000 0.000000 0.000000
# 2 -0.006357 0.016607 -0.004852 0.000000 0.000000 0.000000
# 3 -0.004852 -0.004852 0.013584 0.000000 0.000000 0.000000
# 4 0.000000 0.000000 0.000000 0.037638 0.000000 0.000000
# 5 0.000000 0.000000 0.000000 0.000000 0.037638 0.000000
# 6 0.000000 0.000000 0.000000 0.000000 0.000000 0.045928
#
#
# Mechanical properties :
#
#
# Convention : Reuss Voigt Hill
#
# Bulk Modulus (GPa) = 68.14717 68.52558 68.33638
# Shear Modulus (GPa) = 24.38824 24.64529 24.51676
#
# Velocity S-wave (km/s) = 3.72182 3.74138 3.73161
# Velocity P-wave (km/s) = 7.56142 7.58846 7.57495
#
# Compressibility (1/GPa) = 0.01467412
#
# Stress axis : x y z
#
# Youngs Moduli (GPa) = 60.21682 60.21682 73.61453
#
# Poissons Ratio (x) = 0.38281 0.35720
# Poissons Ratio (y) = 0.38281 0.35720
# Poissons Ratio (z) = 0.29219 0.29219
#
# Static dielectric constant tensor:
#      x y z
#    x 3.186520 0.000000 0.000000 
#    y 0.000000 3.186520 0.000000 
#    z 0.000000 0.000000 3.459620 
# 
# 
# High freq. dielectric constant tensor:
#      x y z
#    x 1.663280 0.000000 0.000000 
#    y 0.000000 1.663280 0.000000 
#    z 0.000000 0.000000 1.696430 
# 
# From -- ./inp_files/1666.got.cif
#   From: 2010.03.12/outbox.cif.g09.slc.cpg/sg191_1_cif.got.tgz:1666.got - 2010.04.01 12:09:02.
