data_PCOD8329025
_publ_section_title
;
Structure prediction by ZEFSAII (Michael W. Deem and Ramdas Pophale) SiO2 
 PCOD8329025
Probable space group: P 6/M M M
;
_chemical_formula_sum "Si O2"
_cell_formula_units_Z 144
_cell_length_a 31.696139
_cell_length_b 31.696139
_cell_length_c 8.972977
_cell_angle_alpha 90.000000
_cell_angle_beta 90.000000
_cell_angle_gamma 120.000000
_cell_volume 7806.923284
_symmetry_space_group_name_H-M "P 6/M M M"
_symmetry_group_IT_number 191
_symmetry_cell_setting 'hexagonal'
loop_
_space_group_symop_operation_xyz
x,y,z
x-y,x,z
-y,x-y,z
-x,-y,z
-x+y,-x,z
y,-x+y,z
x-y,-y,-z
-x,-x+y,-z
y,x,-z
-y,-x,-z
-x+y,y,-z
x,x-y,-z
-x,-y,-z
-x+y,-x,-z
y,-x+y,-z
x,y,-z
x-y,x,-z
-y,x-y,-z
-x+y,y,z
x,x-y,z
-y,-x,z
y,x,z
x-y,-y,z
-x,-x+y,z
loop_
_atom_site_type_symbol
_atom_site_label
_atom_site_fract_x
_atom_site_fract_y
_atom_site_fract_z
Si Si1 0.143002 0.476624 0.176342
Si Si2 0.854188 0.800941 0.322522
Si Si3 0.520500 0.944424 0.325534
Si Si4 0.428088 0.761459 0.177340
Si Si5 0.755771 0.609707 0.673595
Si Si6 0.053781 0.293797 0.323234
O O1 0.091528 0.466770 0.238277
O O2 0.186718 0.528383 0.233324
O O3 0.156147 0.437001 0.233356
O O4 0.139761 0.474477 0.000000
O O5 0.854912 0.798771 0.500000
O O6 0.905656 0.811312 0.255152
O O7 0.843890 0.843890 0.271052
O O8 0.811313 0.749326 0.261260
O O9 0.522505 0.935785 0.500000
O O10 0.466995 0.933990 0.279340
O O11 0.560303 0.000000 0.283962
O O12 0.377672 0.755343 0.239344
O O13 0.434655 0.717328 0.240749
O O14 0.427382 0.759795 0.000000
O O15 0.741587 0.600431 0.500000
O O16 0.810470 0.620940 0.700067
O O17 0.750932 0.654808 0.738139
O O18 0.057377 0.294196 0.500000
O O19 0.000000 0.283492 0.274243
#
# Coordination Sequence:
#
# PCOD8329025 Si02
#       6
#    24  24  24  24  24  24
#     4  11  22  34  50  75 107 137 165 200 245 300
#     4   8  12  18  30  49  73 101 135 178 228 278
#     4   9  19  37  59  80 102 131 169 211 252 293
#     4   9  17  30  49  72  97 125 158 196 237 281
#     4  10  20  33  49  69  95 130 171 210 250 301
#     4   8  14  25  42  63  84 108 144 195 251 297
#
# _framework density 18.445167000000001
#
# number of rings (size 3 to 8) (size 9 to 14) (size 15 to 20)
#    0.000    2.833    0.000    3.667    0.000    5.667 
#    0.000    2.500    0.000    0.167    0.000    1.167 
#    0.000    8.000    0.000    0.000    0.000    0.000 
#
# Total GULP energy -1785070.846689 kJ/mol
# GULP energy per Si atom -12396.325324 kJ/mol
# Density = 1.840318 g / cm^3
# Si number density = 18.445167 Si / 1000 Ang^3
#
#
#
# Elastic Constant Matrix: (Units=GPa)
#
#
# Indices 1 2 3 4 5 6 
#
# 1 129.9599 59.9994 24.9587 0.0000 0.0000 0.0000
# 2 59.9994 129.9599 24.9587 0.0000 0.0000 0.0000
# 3 24.9587 24.9587 26.5452 0.0000 0.0000 0.0000
# 4 0.0000 0.0000 0.0000 16.5244 0.0000 0.0000
# 5 0.0000 0.0000 0.0000 0.0000 16.5244 0.0000
# 6 0.0000 0.0000 0.0000 0.0000 0.0000 34.9802
#
#
#
# Elastic Compliance Matrix: (Units=1/GPa)
#
#
# Indices 1 2 3 4 5 6 
#
# 1 0.010643 -0.003651 -0.006574 0.000000 0.000000 0.000000
# 2 -0.003651 0.010643 -0.006574 0.000000 0.000000 0.000000
# 3 -0.006574 -0.006574 0.050033 0.000000 0.000000 0.000000
# 4 0.000000 0.000000 0.000000 0.060517 0.000000 0.000000
# 5 0.000000 0.000000 0.000000 0.000000 0.060517 0.000000
# 6 0.000000 0.000000 0.000000 0.000000 0.000000 0.028588
#
#
# Mechanical properties :
#
#
# Convention : Reuss Voigt Hill
#
# Bulk Modulus (GPa) = 26.51009 56.25540 41.38275
# Shear Modulus (GPa) = 18.71881 25.37569 22.04725
#
# Velocity S-wave (km/s) = 3.18910 3.71312 3.46104
# Velocity P-wave (km/s) = 5.28811 6.99628 6.20129
#
# Compressibility (1/GPa) = 0.03772148
#
# Stress axis : x y z
#
# Youngs Moduli (GPa) = 93.96047 93.96047 19.98663
#
# Poissons Ratio (x) = 0.34305 0.13139
# Poissons Ratio (y) = 0.34305 0.13139
# Poissons Ratio (z) = 0.61768 0.61768
#
# Static dielectric constant tensor:
#      x y z
#    x 3.619380 0.000000 0.000000 
#    y 0.000000 3.619380 0.000000 
#    z 0.000000 0.000000 2.831270 
# 
# 
# High freq. dielectric constant tensor:
#      x y z
#    x 1.724540 0.000000 0.000000 
#    y 0.000000 1.724540 0.000000 
#    z 0.000000 0.000000 1.655520 
# 
# From -- ./inp_files/1949.got.cif
#   From: 2010.03.12/outbox.cif.g09.slc.cpg/sg191_1_cif.got.tgz:1949.got - 2010.04.01 12:09:02.
