data_PCOD8329620
_publ_section_title
;
Structure prediction by ZEFSAII (Michael W. Deem and Ramdas Pophale) SiO2 
 PCOD8329620
Probable space group: P 6/M C C
;
_chemical_formula_sum "Si O2"
_cell_formula_units_Z 80
_cell_length_a 18.688072
_cell_length_b 18.688072
_cell_length_c 15.030168
_cell_angle_alpha 90.000000
_cell_angle_beta 90.000000
_cell_angle_gamma 120.000000
_cell_volume 4545.937536
_symmetry_space_group_name_H-M "P 6/M C C"
_symmetry_group_IT_number 192
_symmetry_cell_setting 'hexagonal'
loop_
_space_group_symop_operation_xyz
x,y,z
x-y,x,z
-y,x-y,z
-x,-y,z
-x+y,-x,z
y,-x+y,z
x-y,-y,1/2-z
-x,-x+y,1/2-z
y,x,1/2-z
-y,-x,1/2-z
-x+y,y,1/2-z
x,x-y,1/2-z
-x,-y,-z
-x+y,-x,-z
y,-x+y,-z
x,y,-z
x-y,x,-z
-y,x-y,-z
-x+y,y,1/2+z
x,x-y,1/2+z
-y,-x,1/2+z
y,x,1/2+z
x-y,-y,1/2+z
-x,-x+y,1/2+z
loop_
_atom_site_type_symbol
_atom_site_label
_atom_site_fract_x
_atom_site_fract_y
_atom_site_fract_z
Si Si1 0.333334 0.666667 0.144522
Si Si2 0.030646 0.437091 0.847508
Si Si3 0.641038 0.819849 0.000000
Si Si4 0.686106 0.997951 0.000000
Si Si5 0.728951 0.514962 0.348568
O O1 0.333334 0.666667 0.250000
O O2 0.283457 0.572492 0.111202
O O3 0.994528 0.360287 0.913787
O O4 0.129540 0.487681 0.848936
O O5 0.000000 0.500000 0.876708
O O6 0.000000 0.400915 0.750000
O O7 0.585601 0.794580 0.088098
O O8 0.697365 0.776748 0.000000
O O9 0.699052 0.918887 0.000000
O O10 0.766137 0.532273 0.250000
#
# Coordination Sequence:
#
# PCOD8329620 Si02
#       5
#     8  24  12  12  24
#     4   9  21  31  50  67 103 137 175 211 251 283
#     4  10  21  32  54  73 101 139 172 213 256 292
#     4  10  22  36  58  73 104 128 169 210 260 310
#     4  10  21  38  52  79  98 132 166 214 256 315
#     4  10  21  35  49  76 100 139 175 213 253 293
#
# _framework density 17.598129
#
# number of rings (size 3 to 8) (size 9 to 14) (size 15 to 20)
#    0.000    2.100    0.000    2.250   16.800    1.200 
#    0.000    0.000    0.000    0.300    0.000    0.000 
#    0.000    0.000    0.000    9.600    0.000    0.000 
#
# Total GULP energy -992133.782278 kJ/mol
# GULP energy per Si atom -12401.672278 kJ/mol
# Density = 1.755808 g / cm^3
# Si number density = 17.598129 Si / 1000 Ang^3
#
#
#
# Elastic Constant Matrix: (Units=GPa)
#
#
# Indices 1 2 3 4 5 6 
#
# 1 119.9435 64.0248 37.3147 0.0004 0.0000 0.0002
# 2 64.0248 119.9436 37.3147 0.0002 0.0003 0.0001
# 3 37.3147 37.3147 84.6290 0.0000 -0.0001 -0.0001
# 4 0.0004 0.0002 0.0000 -10.7625 -0.0005 -0.0001
# 5 0.0000 0.0003 -0.0001 -0.0005 -10.7634 -0.0001
# 6 0.0002 0.0001 -0.0001 -0.0001 -0.0001 27.9594
#
#
#
# Elastic Compliance Matrix: (Units=1/GPa)
#
#
# Indices 1 2 3 4 5 6 
#
# 1 0.012251 -0.005632 -0.002919 0.000000 0.000000 0.000000
# 2 -0.005632 0.012251 -0.002919 0.000000 0.000000 0.000000
# 3 -0.002919 -0.002919 0.014390 0.000000 0.000000 0.000000
# 4 0.000000 0.000000 0.000000 -0.092915 0.000004 0.000000
# 5 0.000000 0.000000 0.000000 0.000004 -0.092908 0.000000
# 6 0.000000 0.000000 0.000000 0.000000 0.000000 0.035766
#
#
# Mechanical properties :
#
#
# Convention : Reuss Voigt Hill
#
# Bulk Modulus (GPa) = 62.67803 66.86939 64.77371
# Shear Modulus (GPa) = -60.30829 13.67750 -23.31540
#
# Velocity S-wave (km/s) = -5.86038 2.79088 -3.64384
# Velocity P-wave (km/s) = 3.17782 6.96174 4.37992
#
# Compressibility (1/GPa) = 0.01595455
#
# Stress axis : x y z
#
# Youngs Moduli (GPa) = 81.62307 81.62317 69.49171
#
# Poissons Ratio (x) = 0.45967 0.20283
# Poissons Ratio (y) = 0.45967 0.20283
# Poissons Ratio (z) = 0.23824 0.23824
#
# Static dielectric constant tensor:
#      x y z
#    x 3.225220 0.000000 0.000000 
#    y 0.000000 3.225230 0.000000 
#    z 0.000000 0.000000 3.488610 
# 
# 
# High freq. dielectric constant tensor:
#      x y z
#    x 1.666570 0.000000 0.000000 
#    y 0.000000 1.666570 0.000000 
#    z 0.000000 0.000000 1.694180 
# 
# From -- ./inp_files/2683.got.cif
#   From: 2010.03.12/outbox.cif.g09.slc.cpg/sg192_2_cif.got.tgz:2683.got - 2010.04.01 12:16:15.
