data_PCOD8329739
_publ_section_title
;
Structure prediction by ZEFSAII (Michael W. Deem and Ramdas Pophale) SiO2 
 PCOD8329739
Probable space group: P 6/M C C
;
_chemical_formula_sum "Si O2"
_cell_formula_units_Z 104
_cell_length_a 19.677776
_cell_length_b 19.677776
_cell_length_c 17.742921
_cell_angle_alpha 90.000000
_cell_angle_beta 90.000000
_cell_angle_gamma 120.000000
_cell_volume 5949.874093
_symmetry_space_group_name_H-M "P 6/M C C"
_symmetry_group_IT_number 192
_symmetry_cell_setting 'hexagonal'
loop_
_space_group_symop_operation_xyz
x,y,z
x-y,x,z
-y,x-y,z
-x,-y,z
-x+y,-x,z
y,-x+y,z
x-y,-y,1/2-z
-x,-x+y,1/2-z
y,x,1/2-z
-y,-x,1/2-z
-x+y,y,1/2-z
x,x-y,1/2-z
-x,-y,-z
-x+y,-x,-z
y,-x+y,-z
x,y,-z
x-y,x,-z
-y,x-y,-z
-x+y,y,1/2+z
x,x-y,1/2+z
-y,-x,1/2+z
y,x,1/2+z
x-y,-y,1/2+z
-x,-x+y,1/2+z
loop_
_atom_site_type_symbol
_atom_site_label
_atom_site_fract_x
_atom_site_fract_y
_atom_site_fract_z
Si Si1 0.666667 0.333334 0.161270
Si Si2 0.288887 0.289812 0.910011
Si Si3 0.290764 0.782393 0.411531
Si Si4 0.586757 0.541320 0.089044
Si Si5 0.831830 0.167154 0.089581
O O1 0.666668 0.333334 0.250000
O O2 0.577552 0.289749 0.132248
O O3 0.362899 0.370115 0.879561
O O4 0.295107 0.216353 0.877370
O O5 0.208915 0.286715 0.881658
O O6 0.290129 0.289420 0.000000
O O7 0.285889 0.764358 0.500000
O O8 0.370801 0.862470 0.391112
O O9 0.216700 0.790659 0.384860
O O10 0.500000 0.500000 0.125791
O O11 0.580634 0.546132 0.000000
O O12 0.831755 0.165411 0.000000
#
# Coordination Sequence:
#
# PCOD8329739 Si02
#       5
#     8  24  24  24  24
#     4  12  25  35  43  60  91 125 151 186 229 269
#     4   8  13  21  34  57  89 114 136 176 226 264
#     4   9  18  31  47  67  85 112 155 190 225 266
#     4   8  14  23  39  65  88 104 133 186 236 263
#     4   8  14  24  40  64  88 111 142 183 225 261
#
# _framework density 17.479361000000001
#
# number of rings (size 3 to 8) (size 9 to 14) (size 15 to 20)
#    0.000    3.462    0.000    3.462    3.231    0.000 
#    0.000    0.000    0.000    1.154    0.000    3.231 
#    0.000    0.000    0.000    0.000    0.000    0.000 
#
# Total GULP energy -1288703.330592 kJ/mol
# GULP energy per Si atom -12391.378179 kJ/mol
# Density = 1.743958 g / cm^3
# Si number density = 17.479361 Si / 1000 Ang^3
#
#
#
# Elastic Constant Matrix: (Units=GPa)
#
#
# Indices 1 2 3 4 5 6 
#
# 1 135.5994 77.3031 16.6752 0.0001 0.0001 0.0002
# 2 77.3031 135.6008 16.6753 0.0000 0.0000 0.0001
# 3 16.6752 16.6753 23.2464 -0.0002 0.0000 0.0000
# 4 0.0001 0.0000 -0.0002 1.4233 0.0000 0.0000
# 5 0.0001 0.0000 0.0000 0.0000 1.4234 0.0000
# 6 0.0002 0.0001 0.0000 0.0000 0.0000 29.1482
#
#
#
# Elastic Compliance Matrix: (Units=1/GPa)
#
#
# Indices 1 2 3 4 5 6 
#
# 1 0.011223 -0.005931 -0.003796 -0.000001 -0.000001 0.000000
# 2 -0.005931 0.011222 -0.003796 0.000000 0.000000 0.000000
# 3 -0.003796 -0.003796 0.048463 0.000006 -0.000001 0.000000
# 4 -0.000001 0.000000 0.000006 0.702595 0.000010 -0.000001
# 5 -0.000001 0.000000 -0.000001 0.000010 0.702549 0.000001
# 6 0.000000 0.000000 0.000000 -0.000001 0.000001 0.034307
#
#
# Mechanical properties :
#
#
# Convention : Reuss Voigt Hill
#
# Bulk Modulus (GPa) = 22.79824 57.30598 40.05211
# Shear Modulus (GPa) = 3.22160 18.65186 10.93673
#
# Velocity S-wave (km/s) = 1.35908 3.27016 2.50410
# Velocity P-wave (km/s) = 3.94133 6.86402 5.59682
#
# Compressibility (1/GPa) = 0.04386304
#
# Stress axis : x y z
#
# Youngs Moduli (GPa) = 89.10584 89.10673 20.63430
#
# Poissons Ratio (x) = 0.52849 0.07832
# Poissons Ratio (y) = 0.52849 0.07832
# Poissons Ratio (z) = 0.33823 0.33823
#
# Static dielectric constant tensor:
#      x y z
#    x 3.578830 0.000000 0.000000 
#    y 0.000000 3.578820 0.000000 
#    z 0.000000 0.000000 2.476760 
# 
# 
# High freq. dielectric constant tensor:
#      x y z
#    x 1.676740 0.000000 0.000000 
#    y 0.000000 1.676740 0.000000 
#    z 0.000000 0.000000 1.593770 
# 
# From -- ./inp_files/2863.got.cif
#   From: 2010.03.12/outbox.cif.g09.slc.cpg/sg192_2_cif.got.tgz:2863.got - 2010.04.01 12:16:15.
