data_PCOD8329944
_publ_section_title
;
Structure prediction by ZEFSAII (Michael W. Deem and Ramdas Pophale) SiO2 
 PCOD8329944
Probable space group: P 63/M C M
;
_chemical_formula_sum "Si O2"
_cell_formula_units_Z 152
_cell_length_a 25.026015
_cell_length_b 25.026015
_cell_length_c 15.346223
_cell_angle_alpha 90.000000
_cell_angle_beta 90.000000
_cell_angle_gamma 120.000000
_cell_volume 8323.683103
_symmetry_space_group_name_H-M "P 63/M C M"
_symmetry_group_IT_number 193
_symmetry_cell_setting 'hexagonal'
loop_
_space_group_symop_operation_xyz
x,y,z
x-y,x,1/2+z
-y,x-y,z
-x,-y,1/2+z
-x+y,-x,z
y,-x+y,1/2+z
x-y,-y,1/2-z
-x,-x+y,1/2-z
y,x,1/2-z
-y,-x,-z
-x+y,y,-z
x,x-y,-z
-x,-y,-z
-x+y,-x,1/2-z
y,-x+y,-z
x,y,1/2-z
x-y,x,-z
-y,x-y,1/2-z
-x+y,y,1/2+z
x,x-y,1/2+z
-y,-x,1/2+z
y,x,z
x-y,-y,z
-x,-x+y,z
loop_
_atom_site_type_symbol
_atom_site_label
_atom_site_fract_x
_atom_site_fract_y
_atom_site_fract_z
Si Si1 0.703025 0.530048 0.603508
Si Si2 0.666668 0.333334 0.353776
Si Si3 0.268452 0.338102 0.347839
Si Si4 0.740939 0.811532 0.498397
Si Si5 0.595874 0.400787 0.400650
Si Si6 0.824374 0.296393 0.104223
Si Si7 0.728850 0.658918 0.151846
O O1 0.703452 0.589802 0.639008
O O2 0.638969 0.472699 0.640932
O O3 0.703305 0.528948 0.499536
O O4 0.763074 0.527839 0.638211
O O5 0.666667 0.333334 0.250000
O O6 0.622606 0.355350 0.393395
O O7 0.241922 0.319112 0.250000
O O8 0.323363 0.323363 0.364961
O O9 0.213480 0.299678 0.414690
O O10 0.770909 0.885455 0.500000
O O11 0.795911 0.795911 0.495448
O O12 0.696619 0.784681 0.414706
O O13 0.587090 0.412911 0.500000
O O14 0.642684 0.467199 0.357406
O O15 0.885305 0.299005 0.141006
O O16 0.754390 0.678666 0.250000
O O17 0.674501 0.674501 0.132506
#
# Coordination Sequence:
#
# PCOD8329944 Si02
#       7
#    24   8  24  24  24  24  24
#     4  10  19  32  54  77  98 131 174 218 268 320
#     4  12  22  32  46  69 103 134 172 225 277 323
#     4  10  21  36  55  79 109 143 176 218 268 314
#     4  10  20  36  58  84 115 145 181 217 255 307
#     4  10  20  36  53  69  98 135 171 215 272 331
#     4  10  19  32  54  77  98 131 174 218 268 320
#     4  10  21  36  55  79 109 143 176 218 268 314
#
# _framework density 18.261147000000001
#
# number of rings (size 3 to 8) (size 9 to 14) (size 15 to 20)
#    0.000    1.895    3.158    1.421    0.000    3.789 
#    0.000    0.789    0.000    4.895    0.000    0.000 
#    0.000    0.000    0.000    7.895    0.000    0.000 
#
# Total GULP energy -1884201.722271 kJ/mol
# GULP energy per Si atom -12396.063962 kJ/mol
# Density = 1.821958 g / cm^3
# Si number density = 18.261147 Si / 1000 Ang^3
#
#
#
# Elastic Constant Matrix: (Units=GPa)
#
#
# Indices 1 2 3 4 5 6 
#
# 1 126.7132 62.9764 32.0259 0.0001 0.0001 0.0006
# 2 62.9764 126.7156 32.0259 0.0001 0.0001 0.0001
# 3 32.0259 32.0259 68.0214 0.0000 0.0000 -0.0001
# 4 0.0001 0.0001 0.0000 5.5826 0.0000 0.0000
# 5 0.0001 0.0001 0.0000 0.0000 5.5826 0.0000
# 6 0.0006 0.0001 -0.0001 0.0000 0.0000 31.8684
#
#
#
# Elastic Compliance Matrix: (Units=1/GPa)
#
#
# Indices 1 2 3 4 5 6 
#
# 1 0.010979 -0.004710 -0.002951 0.000000 0.000000 0.000000
# 2 -0.004710 0.010979 -0.002951 0.000000 0.000000 0.000000
# 3 -0.002951 -0.002951 0.017480 0.000000 0.000000 0.000000
# 4 0.000000 0.000000 0.000000 0.179128 0.000000 0.000000
# 5 0.000000 0.000000 0.000000 0.000000 0.179128 0.000000
# 6 0.000000 0.000000 0.000000 0.000000 0.000000 0.031379
#
#
# Mechanical properties :
#
#
# Convention : Reuss Voigt Hill
#
# Bulk Modulus (GPa) = 54.90926 63.94518 59.42722
# Shear Modulus (GPa) = 10.95606 21.56820 16.26213
#
# Velocity S-wave (km/s) = 2.45208 3.44044 2.98741
# Velocity P-wave (km/s) = 6.17666 7.13269 6.67182
#
# Compressibility (1/GPa) = 0.01821186
#
# Stress axis : x y z
#
# Youngs Moduli (GPa) = 91.08415 91.08617 57.20736
#
# Poissons Ratio (x) = 0.42906 0.16884
# Poissons Ratio (y) = 0.42905 0.16883
# Poissons Ratio (z) = 0.26882 0.26881
#
# Static dielectric constant tensor:
#      x y z
#    x 3.393150 -0.000010 -0.000010 
#    y -0.000010 3.393180 0.000000 
#    z -0.000010 0.000000 3.473050 
# 
# 
# High freq. dielectric constant tensor:
#      x y z
#    x 1.694230 0.000000 0.000000 
#    y 0.000000 1.694230 0.000000 
#    z 0.000000 0.000000 1.711880 
# 
# From -- ./inp_files/4307.got.cif
#   From: 2010.03.12/outbox.cif.g09.slc.cpg/sg193_3_cif.got.tgz:4307.got - 2010.04.01 12:20:39.
