data_PCOD8329213
_publ_section_title
;
Structure prediction by ZEFSAII (Michael W. Deem and Ramdas Pophale) SiO2 
 PCOD8329213
Probable space group: P 6/M M M
;
_chemical_formula_sum "Si O2"
_cell_formula_units_Z 168
_cell_length_a 22.138476
_cell_length_b 22.138476
_cell_length_c 23.301579
_cell_angle_alpha 90.000000
_cell_angle_beta 90.000000
_cell_angle_gamma 120.000000
_cell_volume 9890.344634
_symmetry_space_group_name_H-M "P 6/M M M"
_symmetry_group_IT_number 191
_symmetry_cell_setting 'hexagonal'
loop_
_space_group_symop_operation_xyz
x,y,z
x-y,x,z
-y,x-y,z
-x,-y,z
-x+y,-x,z
y,-x+y,z
x-y,-y,-z
-x,-x+y,-z
y,x,-z
-y,-x,-z
-x+y,y,-z
x,x-y,-z
-x,-y,-z
-x+y,-x,-z
y,-x+y,-z
x,y,-z
x-y,x,-z
-y,x-y,-z
-x+y,y,z
x,x-y,z
-y,-x,z
y,x,z
x-y,-y,z
-x,-x+y,z
loop_
_atom_site_type_symbol
_atom_site_label
_atom_site_fract_x
_atom_site_fract_y
_atom_site_fract_z
Si Si1 0.078231 0.294911 0.153960
Si Si2 0.808278 0.332724 0.150330
Si Si3 0.289150 0.077582 0.565666
Si Si4 0.723904 0.133032 0.936115
Si Si5 0.586736 0.725096 0.753803
Si Si6 0.333331 0.528913 0.565751
Si Si7 0.590333 0.920218 0.366289
O O1 0.133946 0.267892 0.148922
O O2 0.080653 0.339271 0.098162
O O3 0.094801 0.343141 0.209642
O O4 0.000000 0.228821 0.158839
O O5 0.810971 0.405486 0.152985
O O6 0.728706 0.271295 0.143308
O O7 0.855370 0.333632 0.096800
O O8 0.841367 0.322536 0.208207
O O9 0.314359 0.083338 0.500000
O O10 0.260282 0.130141 0.577995
O O11 0.354850 0.098481 0.605898
O O12 0.226507 0.000000 0.579616
O O13 0.793214 0.206787 0.938518
O O14 0.696832 0.103487 0.000000
O O15 0.582946 0.791473 0.730156
O O16 0.587308 0.678890 0.701605
O O17 0.329444 0.504974 0.500000
O O18 0.259310 0.518619 0.585996
O O19 0.390240 0.609761 0.573128
O O20 0.355761 0.484443 0.605478
O O21 0.612184 0.000000 0.378661
#
# Coordination Sequence:
#
# PCOD8329213 Si02
#       7
#    24  24  24  24  24  24  24
#     4   9  17  30  49  71  94 121 153 190 230 272
#     4   9  17  29  46  68  94 124 157 194 235 275
#     4   9  17  29  46  69  96 124 153 186 227 275
#     4   8  15  28  45  66  92 122 155 189 225 264
#     4   9  18  32  48  67  93 125 161 197 230 268
#     4  10  21  37  55  72  92 121 157 194 231 276
#     4  11  21  32  50  74  97 121 150 190 242 291
#
# _framework density 16.986263000000001
#
# number of rings (size 3 to 8) (size 9 to 14) (size 15 to 20)
#    0.000    2.714    0.000    4.143    0.000    4.000 
#    0.000    0.714    0.000   13.143    0.000    5.000 
#    0.000    0.000    0.000    8.143    0.000    3.143 
#
# Total GULP energy -2082912.077796 kJ/mol
# GULP energy per Si atom -12398.286177 kJ/mol
# Density = 1.694760 g / cm^3
# Si number density = 16.986263 Si / 1000 Ang^3
#
#
#
# Elastic Constant Matrix: (Units=GPa)
#
#
# Indices 1 2 3 4 5 6 
#
# 1 89.9215 47.6400 33.9912 0.0000 0.0000 0.0000
# 2 47.6400 89.9215 33.9912 0.0000 0.0000 0.0000
# 3 33.9912 33.9912 91.7414 0.0000 0.0000 0.0000
# 4 0.0000 0.0000 0.0000 16.8943 0.0000 0.0000
# 5 0.0000 0.0000 0.0000 0.0000 16.8943 0.0000
# 6 0.0000 0.0000 0.0000 0.0000 0.0000 21.1407
#
#
#
# Elastic Compliance Matrix: (Units=1/GPa)
#
#
# Indices 1 2 3 4 5 6 
#
# 1 0.016275 -0.007376 -0.003297 0.000000 0.000000 0.000000
# 2 -0.007376 0.016275 -0.003297 0.000000 0.000000 0.000000
# 3 -0.003297 -0.003297 0.013343 0.000000 0.000000 0.000000
# 4 0.000000 0.000000 0.000000 0.059192 0.000000 0.000000
# 5 0.000000 0.000000 0.000000 0.000000 0.059192 0.000000
# 6 0.000000 0.000000 0.000000 0.000000 0.000000 0.047302
#
#
# Mechanical properties :
#
#
# Convention : Reuss Voigt Hill
#
# Bulk Modulus (GPa) = 55.70190 55.86991 55.78591
# Shear Modulus (GPa) = 20.36629 21.38332 20.87481
#
# Velocity S-wave (km/s) = 3.46639 3.55189 3.50940
# Velocity P-wave (km/s) = 6.99176 7.05577 7.02384
#
# Compressibility (1/GPa) = 0.01795271
#
# Stress axis : x y z
#
# Youngs Moduli (GPa) = 61.44401 61.44401 74.94303
#
# Poissons Ratio (x) = 0.45321 0.24710
# Poissons Ratio (y) = 0.45321 0.24710
# Poissons Ratio (z) = 0.20259 0.20259
#
# Static dielectric constant tensor:
#      x y z
#    x 3.009930 0.000000 0.000000 
#    y 0.000000 3.009930 0.000000 
#    z 0.000000 0.000000 3.359780 
# 
# 
# High freq. dielectric constant tensor:
#      x y z
#    x 1.638860 0.000000 0.000000 
#    y 0.000000 1.638860 0.000000 
#    z 0.000000 0.000000 1.659640 
# 
# From -- ./inp_files/7932.got.cif
#   From: 2010.03.12/outbox.cif.g09.slc.cpg/sg191_4_cif.got.tgz:7932.got - 2010.04.01 12:09:02.
