data_PCOD8329830
_publ_section_title
;
Structure prediction by ZEFSAII (Michael W. Deem and Ramdas Pophale) SiO2 
 PCOD8329830
Probable space group: P 63/M C M
;
_chemical_formula_sum "Si O2"
_cell_formula_units_Z 152
_cell_length_a 26.292763
_cell_length_b 26.292763
_cell_length_c 14.166985
_cell_angle_alpha 90.000000
_cell_angle_beta 90.000000
_cell_angle_gamma 120.000000
_cell_volume 8481.653363
_symmetry_space_group_name_H-M "P 63/M C M"
_symmetry_group_IT_number 193
_symmetry_cell_setting 'hexagonal'
loop_
_space_group_symop_operation_xyz
x,y,z
x-y,x,1/2+z
-y,x-y,z
-x,-y,1/2+z
-x+y,-x,z
y,-x+y,1/2+z
x-y,-y,1/2-z
-x,-x+y,1/2-z
y,x,1/2-z
-y,-x,-z
-x+y,y,-z
x,x-y,-z
-x,-y,-z
-x+y,-x,1/2-z
y,-x+y,-z
x,y,1/2-z
x-y,x,-z
-y,x-y,1/2-z
-x+y,y,1/2+z
x,x-y,1/2+z
-y,-x,1/2+z
y,x,z
x-y,-y,z
-x,-x+y,z
loop_
_atom_site_type_symbol
_atom_site_label
_atom_site_fract_x
_atom_site_fract_y
_atom_site_fract_z
Si Si1 0.306116 0.932191 0.140132
Si Si2 0.835116 0.518218 0.536226
Si Si3 0.219489 0.154359 0.141826
Si Si4 0.934401 0.868801 0.000000
Si Si5 0.333333 0.666667 0.633793
Si Si6 0.839205 0.178868 0.103183
Si Si7 0.203885 0.456796 0.647311
Si Si8 0.613751 0.227502 0.500000
O O1 0.318105 0.928344 0.250000
O O2 0.333247 0.897833 0.082645
O O3 0.235588 0.903366 0.122693
O O4 0.337801 0.000000 0.106469
O O5 0.838329 0.535473 0.425679
O O6 0.783786 0.516874 0.598821
O O7 0.818347 0.451052 0.536329
O O8 0.211829 0.136914 0.250000
O O9 0.211109 0.211109 0.123514
O O10 0.281354 0.164900 0.106835
O O11 0.169675 0.098553 0.089646
O O12 0.908991 0.908991 0.035287
O O13 0.333334 0.666668 0.750000
O O14 0.349344 0.730605 0.589618
O O15 0.791359 0.179484 0.171939
O O16 0.816266 0.183735 0.000000
O O17 0.207717 0.486620 0.750000
#
# Coordination Sequence:
#
# PCOD8329830 Si02
#       8
#    24  24  24  12   8  24  24  12
#     4  10  21  37  58  82 107 139 186 242 286 324
#     4  10  19  35  51  78 108 145 184 228 274 330
#     4  10  21  35  50  73 105 134 160 197 251 316
#     4  10  21  36  52  68  89 122 166 209 246 289
#     4  10  20  34  52  86 124 151 185 232 280 335
#     4  11  18  33  55  80 105 136 170 208 268 326
#     4  10  18  32  54  77 106 141 177 216 264 321
#     4  10  22  34  53  80 117 150 186 225 278 333
#
# _framework density 17.921033999999999
#
# number of rings (size 3 to 8) (size 9 to 14) (size 15 to 20)
#    0.000    1.895    3.947    4.816    0.000    4.737 
#    0.000    0.395    0.000    1.421    0.000    0.000 
#    0.000    0.000    0.000    0.000    0.000    0.000 
#
# Total GULP energy -1883054.971954 kJ/mol
# GULP energy per Si atom -12388.519552 kJ/mol
# Density = 1.788024 g / cm^3
# Si number density = 17.921034 Si / 1000 Ang^3
#
#
#
# Elastic Constant Matrix: (Units=GPa)
#
#
# Indices 1 2 3 4 5 6 
#
# 1 88.8694 44.7230 20.2126 0.0000 0.0000 0.0000
# 2 44.7230 88.8692 20.2126 0.0000 0.0000 0.0000
# 3 20.2126 20.2126 120.5566 0.0000 0.0000 0.0000
# 4 0.0000 0.0000 0.0000 12.3849 0.0000 0.0000
# 5 0.0000 0.0000 0.0000 0.0000 12.3849 0.0000
# 6 0.0000 0.0000 0.0000 0.0000 0.0000 22.0731
#
#
#
# Elastic Compliance Matrix: (Units=1/GPa)
#
#
# Indices 1 2 3 4 5 6 
#
# 1 0.015269 -0.007383 -0.001322 0.000000 0.000000 0.000000
# 2 -0.007383 0.015269 -0.001322 0.000000 0.000000 0.000000
# 3 -0.001322 -0.001322 0.008738 0.000000 0.000000 0.000000
# 4 0.000000 0.000000 0.000000 0.080743 0.000000 0.000000
# 5 0.000000 0.000000 0.000000 0.000000 0.080744 0.000000
# 6 0.000000 0.000000 0.000000 0.000000 0.000000 0.045304
#
#
# Mechanical properties :
#
#
# Convention : Reuss Voigt Hill
#
# Bulk Modulus (GPa) = 52.02678 52.06573 52.04626
# Shear Modulus (GPa) = 18.34672 23.57839 20.96255
#
# Velocity S-wave (km/s) = 3.20309 3.63117 3.42382
# Velocity P-wave (km/s) = 6.54017 6.83348 6.68843
#
# Compressibility (1/GPa) = 0.01922087
#
# Stress axis : x y z
#
# Youngs Moduli (GPa) = 65.49328 65.49320 114.44026
#
# Poissons Ratio (x) = 0.48355 0.15130
# Poissons Ratio (y) = 0.48355 0.15130
# Poissons Ratio (z) = 0.08659 0.08659
#
# Static dielectric constant tensor:
#      x y z
#    x 3.286480 0.000000 0.000000 
#    y 0.000000 3.286480 0.000000 
#    z 0.000000 0.000000 3.605040 
# 
# 
# High freq. dielectric constant tensor:
#      x y z
#    x 1.675570 0.000000 0.000000 
#    y 0.000000 1.675570 0.000000 
#    z 0.000000 0.000000 1.710230 
# 
# From -- ./inp_files/4375.got.cif
#   From: 2010.03.12/outbox.cif.g09.slc.cpg/sg193_3_cif.got.tgz:4375.got - 2010.04.01 12:20:39.
