data_PCOD8329402
_publ_section_title
;
Structure prediction by ZEFSAII (Michael W. Deem and Ramdas Pophale) SiO2 
 PCOD8329402
Probable space group: P 6/M C C
;
_chemical_formula_sum "Si O2"
_cell_formula_units_Z 108
_cell_length_a 19.783612
_cell_length_b 19.783612
_cell_length_c 15.611054
_cell_angle_alpha 90.000000
_cell_angle_beta 90.000000
_cell_angle_gamma 120.000000
_cell_volume 5291.441872
_symmetry_space_group_name_H-M "P 6/M C C"
_symmetry_group_IT_number 192
_symmetry_cell_setting 'hexagonal'
loop_
_space_group_symop_operation_xyz
x,y,z
x-y,x,z
-y,x-y,z
-x,-y,z
-x+y,-x,z
y,-x+y,z
x-y,-y,1/2-z
-x,-x+y,1/2-z
y,x,1/2-z
-y,-x,1/2-z
-x+y,y,1/2-z
x,x-y,1/2-z
-x,-y,-z
-x+y,-x,-z
y,-x+y,-z
x,y,-z
x-y,x,-z
-y,x-y,-z
-x+y,y,1/2+z
x,x-y,1/2+z
-y,-x,1/2+z
y,x,1/2+z
x-y,-y,1/2+z
-x,-x+y,1/2+z
loop_
_atom_site_type_symbol
_atom_site_label
_atom_site_fract_x
_atom_site_fract_y
_atom_site_fract_z
Si Si1 0.369317 0.831859 0.101421
Si Si2 0.325358 0.943921 0.826436
Si Si3 0.163066 0.836934 0.250000
Si Si4 0.797335 0.298196 0.100567
Si Si5 0.321534 0.080892 0.902790
O O1 0.378759 0.914850 0.127882
O O2 0.441426 0.825151 0.140588
O O3 0.287644 0.762276 0.138331
O O4 0.370168 0.828494 0.000000
O O5 0.246943 0.868642 0.793946
O O6 0.375248 0.000000 0.750000
O O7 0.302242 0.992027 0.893340
O O8 0.102482 0.826247 0.171445
O O9 0.861008 0.273081 0.121333
O O10 0.789257 0.302667 0.000000
O O11 0.300973 0.093943 0.000000
#
# Coordination Sequence:
#
# PCOD8329402 Si02
#       5
#    24  24  12  24  24
#     4  10  18  33  56  78 105 144 191 246 296 336
#     4  10  21  35  55  75 108 148 189 236 289 341
#     4  10  20  38  56  78 112 148 183 234 285 344
#     4   9  18  31  53  80 106 142 192 241 291 343
#     4  10  20  35  57  84 110 147 195 238 289 348
#
# _framework density 20.410315000000001
#
# number of rings (size 3 to 8) (size 9 to 14) (size 15 to 20)
#    0.000    2.222    2.222    1.111    0.000    3.556 
#    0.000   11.111    0.000    0.000    0.000    0.000 
#    0.000    0.000    0.000  243.000    0.000  234.000 
#
# Total GULP energy -1338113.748550 kJ/mol
# GULP energy per Si atom -12389.942116 kJ/mol
# Density = 2.036386 g / cm^3
# Si number density = 20.410315 Si / 1000 Ang^3
#
#
#
# Elastic Constant Matrix: (Units=GPa)
#
#
# Indices 1 2 3 4 5 6 
#
# 1 71.1020 36.2190 24.2100 0.0000 0.0000 0.0000
# 2 36.2190 71.1020 24.2100 0.0000 0.0000 0.0000
# 3 24.2100 24.2100 88.7550 0.0000 0.0000 0.0000
# 4 0.0000 0.0000 0.0000 25.0185 0.0000 0.0000
# 5 0.0000 0.0000 0.0000 0.0000 25.0185 0.0000
# 6 0.0000 0.0000 0.0000 0.0000 0.0000 17.4415
#
#
#
# Elastic Compliance Matrix: (Units=1/GPa)
#
#
# Indices 1 2 3 4 5 6 
#
# 1 0.019646 -0.009021 -0.002898 0.000000 0.000000 0.000000
# 2 -0.009021 0.019646 -0.002898 0.000000 0.000000 0.000000
# 3 -0.002898 -0.002898 0.012848 0.000000 0.000000 0.000000
# 4 0.000000 0.000000 0.000000 0.039970 0.000000 0.000000
# 5 0.000000 0.000000 0.000000 0.000000 0.039970 0.000000
# 6 0.000000 0.000000 0.000000 0.000000 0.000000 0.057334
#
#
# Mechanical properties :
#
#
# Convention : Reuss Voigt Hill
#
# Bulk Modulus (GPa) = 44.43313 44.47078 44.45196
# Shear Modulus (GPa) = 22.06988 23.25039 22.66014
#
# Velocity S-wave (km/s) = 3.29190 3.37879 3.33563
# Velocity P-wave (km/s) = 6.02212 6.08747 6.05489
#
# Compressibility (1/GPa) = 0.02250573
#
# Stress axis : x y z
#
# Youngs Moduli (GPa) = 50.90002 50.90002 77.83215
#
# Poissons Ratio (x) = 0.45916 0.22558
# Poissons Ratio (y) = 0.45916 0.22558
# Poissons Ratio (z) = 0.14753 0.14753
#
# Static dielectric constant tensor:
#      x y z
#    x 3.659580 0.000000 0.000000 
#    y 0.000000 3.659580 0.000000 
#    z 0.000000 0.000000 3.865120 
# 
# 
# High freq. dielectric constant tensor:
#      x y z
#    x 1.769140 0.000000 0.000000 
#    y 0.000000 1.769140 0.000000 
#    z 0.000000 0.000000 1.808620 
# 
# From -- ./inp_files/4140.got.cif
#   From: 2010.03.12/outbox.cif.g09.slc.cpg/sg192_3_cif.got.tgz:4140.got - 2010.04.01 12:16:15.
