data_PCOD8329779
_publ_section_title
;
Structure prediction by ZEFSAII (Michael W. Deem and Ramdas Pophale) SiO2 
 PCOD8329779
Probable space group: P 63/M C M
;
_chemical_formula_sum "Si O2"
_cell_formula_units_Z 84
_cell_length_a 15.405136
_cell_length_b 15.405136
_cell_length_c 20.388859
_cell_angle_alpha 90.000000
_cell_angle_beta 90.000000
_cell_angle_gamma 120.000000
_cell_volume 4190.391765
_symmetry_space_group_name_H-M "P 63/M C M"
_symmetry_group_IT_number 193
_symmetry_cell_setting 'hexagonal'
loop_
_space_group_symop_operation_xyz
x,y,z
x-y,x,1/2+z
-y,x-y,z
-x,-y,1/2+z
-x+y,-x,z
y,-x+y,1/2+z
x-y,-y,1/2-z
-x,-x+y,1/2-z
y,x,1/2-z
-y,-x,-z
-x+y,y,-z
x,x-y,-z
-x,-y,-z
-x+y,-x,1/2-z
y,-x+y,-z
x,y,1/2-z
x-y,x,-z
-y,x-y,1/2-z
-x+y,y,1/2+z
x,x-y,1/2+z
-y,-x,1/2+z
y,x,z
x-y,-y,z
-x,-x+y,z
loop_
_atom_site_type_symbol
_atom_site_label
_atom_site_fract_x
_atom_site_fract_y
_atom_site_fract_z
Si Si1 0.839427 0.160574 0.000000
Si Si2 0.116189 0.887106 0.361710
Si Si3 0.113092 0.629924 0.455074
Si Si4 0.582132 0.880753 0.321488
O O1 0.866642 0.114145 0.939064
O O2 0.887995 0.279907 0.993395
O O3 0.155288 0.819206 0.326280
O O4 0.000000 0.846743 0.346311
O O5 0.180259 0.000000 0.334586
O O6 0.168772 0.584386 0.500000
O O7 0.164233 0.667496 0.382447
O O8 0.000000 0.541151 0.443646
O O9 0.528196 0.847695 0.250000
O O10 0.641847 0.000000 0.329115
#
# Coordination Sequence:
#
# PCOD8329779 Si02
#       4
#    12  24  24  24
#     4  10  18  30  45  66  94 126 159 214 268 314
#     4  10  18  27  42  66 100 141 180 214 246 289
#     4   9  17  30  49  70  90 117 156 205 257 310
#     4   8  15  28  45  65  91 125 164 205 251 299
#
# _framework density 20.045857999999999
#
# number of rings (size 3 to 8) (size 9 to 14) (size 15 to 20)
#    0.000    2.857    0.000    4.571    0.000    0.571 
#    0.857    1.429    0.000    8.571    0.000    8.000 
#    0.000    0.000    0.000    0.000    0.000    0.000 
#
# Total GULP energy -1040696.140071 kJ/mol
# GULP energy per Si atom -12389.239763 kJ/mol
# Density = 2.000023 g / cm^3
# Si number density = 20.045858 Si / 1000 Ang^3
#
#
#
# Elastic Constant Matrix: (Units=GPa)
#
#
# Indices 1 2 3 4 5 6 
#
# 1 63.7509 17.0190 36.4923 0.0000 0.0000 0.0000
# 2 17.0190 63.7509 36.4923 0.0000 0.0000 0.0000
# 3 36.4923 36.4923 138.3906 0.0000 0.0000 0.0000
# 4 0.0000 0.0000 0.0000 14.0087 0.0000 0.0000
# 5 0.0000 0.0000 0.0000 0.0000 14.0087 0.0000
# 6 0.0000 0.0000 0.0000 0.0000 0.0000 23.3660
#
#
#
# Elastic Compliance Matrix: (Units=1/GPa)
#
#
# Indices 1 2 3 4 5 6 
#
# 1 0.018826 -0.002572 -0.004286 0.000000 0.000000 0.000000
# 2 -0.002572 0.018826 -0.004286 0.000000 0.000000 0.000000
# 3 -0.004286 -0.004286 0.009486 0.000000 0.000000 0.000000
# 4 0.000000 0.000000 0.000000 0.071384 0.000000 0.000000
# 5 0.000000 0.000000 0.000000 0.000000 0.071384 0.000000
# 6 0.000000 0.000000 0.000000 0.000000 0.000000 0.042797
#
#
# Mechanical properties :
#
#
# Convention : Reuss Voigt Hill
#
# Bulk Modulus (GPa) = 40.24174 49.54442 44.89308
# Shear Modulus (GPa) = 18.99148 22.00261 20.49704
#
# Velocity S-wave (km/s) = 3.08133 3.31662 3.20114
# Velocity P-wave (km/s) = 5.72520 6.27979 6.00890
#
# Compressibility (1/GPa) = 0.02484982
#
# Stress axis : x y z
#
# Youngs Moduli (GPa) = 53.11758 53.11758 105.41573
#
# Poissons Ratio (x) = 0.13664 0.45181
# Poissons Ratio (y) = 0.13664 0.45181
# Poissons Ratio (z) = 0.22766 0.22766
#
# Static dielectric constant tensor:
#      x y z
#    x 3.391980 0.000000 0.000000 
#    y 0.000000 3.391980 0.000000 
#    z 0.000000 0.000000 3.959400 
# 
# 
# High freq. dielectric constant tensor:
#      x y z
#    x 1.745810 0.000000 0.000000 
#    y 0.000000 1.745810 0.000000 
#    z 0.000000 0.000000 1.791380 
# 
# From -- ./inp_files/7113.got.cif
#   From: 2010.03.12/outbox.cif.g09.slc.cpg/sg193_4_cif.got.tgz:7113.got - 2010.04.01 12:20:39.
