data_PCOD8329246
_publ_section_title
;
Structure prediction by ZEFSAII (Michael W. Deem and Ramdas Pophale) SiO2 
 PCOD8329246
Probable space group: P 6/M M M
;
_chemical_formula_sum "Si O2"
_cell_formula_units_Z 138
_cell_length_a 30.798933
_cell_length_b 30.798933
_cell_length_c 8.688588
_cell_angle_alpha 90.000000
_cell_angle_beta 90.000000
_cell_angle_gamma 120.000000
_cell_volume 7137.583105
_symmetry_space_group_name_H-M "P 6/M M M"
_symmetry_group_IT_number 191
_symmetry_cell_setting 'hexagonal'
loop_
_space_group_symop_operation_xyz
x,y,z
x-y,x,z
-y,x-y,z
-x,-y,z
-x+y,-x,z
y,-x+y,z
x-y,-y,-z
-x,-x+y,-z
y,x,-z
-y,-x,-z
-x+y,y,-z
x,x-y,-z
-x,-y,-z
-x+y,-x,-z
y,-x+y,-z
x,y,-z
x-y,x,-z
-y,x-y,-z
-x+y,y,z
x,x-y,z
-y,-x,z
y,x,z
x-y,-y,z
-x,-x+y,z
loop_
_atom_site_type_symbol
_atom_site_label
_atom_site_fract_x
_atom_site_fract_y
_atom_site_fract_z
Si Si1 0.514563 0.854428 0.174058
Si Si2 0.801077 0.801077 0.183604
Si Si3 0.000000 0.900500 0.816738
Si Si4 0.364975 0.729949 0.500000
Si Si5 0.793133 0.396567 0.816562
Si Si6 0.852284 0.602277 0.670357
Si Si7 0.056278 0.577646 0.326497
Si Si8 0.098971 0.802485 0.181781
O O1 0.455762 0.824690 0.212402
O O2 0.547376 0.836500 0.266591
O O3 0.535441 0.912449 0.211711
O O4 0.524611 0.847726 0.000000
O O5 0.850791 0.850791 0.245011
O O6 0.799436 0.750940 0.246931
O O7 0.801915 0.801915 0.000000
O O8 0.950259 0.900518 0.755770
O O9 0.000000 0.900420 0.000000
O O10 0.304499 0.695502 0.500000
O O11 0.378230 0.756460 0.668655
O O12 0.772723 0.386362 0.000000
O O13 0.873626 0.606415 0.500000
O O14 0.802580 0.605159 0.672994
O O15 0.894915 0.650395 0.762842
O O16 0.077574 0.591937 0.500000
O O17 0.058754 0.529377 0.269950
O O18 0.000000 0.567074 0.320388
O O19 0.145258 0.854743 0.241705
O O20 0.097413 0.800772 0.000000
#
# Coordination Sequence:
#
# PCOD8329246 Si02
#       8
#    24  12  12   6  12  24  24  24
#     4  11  22  37  59  88 118 153 192 235 289 344
#     4   9  16  27  47  74 101 140 191 238 288 349
#     4   9  15  22  35  63 107 155 201 245 294 351
#     4  10  26  46  66  96 121 166 208 240 312 364
#     4  10  24  42  65  97 129 160 200 250 296 354
#     4  10  22  39  58  81 106 140 184 234 286 343
#     4   9  18  33  55  83 114 151 189 229 278 331
#     4   9  17  32  53  75 104 139 180 232 286 341
#
# _framework density 19.334277
#
# number of rings (size 3 to 8) (size 9 to 14) (size 15 to 20)
#    0.087    2.261    0.870    2.174    2.435    4.870 
#    1.565    3.043    0.000    0.000    0.000    0.000 
#    0.000    0.000    0.000    0.522    0.000   16.087 
#
# Total GULP energy -1709849.469703 kJ/mol
# GULP energy per Si atom -12390.213549 kJ/mol
# Density = 1.929027 g / cm^3
# Si number density = 19.334277 Si / 1000 Ang^3
#
#
#
# Elastic Constant Matrix: (Units=GPa)
#
#
# Indices 1 2 3 4 5 6 
#
# 1 107.3098 50.4891 45.7455 0.0000 0.0000 0.0000
# 2 50.4891 107.3098 45.7455 0.0000 0.0000 0.0000
# 3 45.7455 45.7455 62.6324 0.0000 0.0000 0.0000
# 4 0.0000 0.0000 0.0000 20.7107 0.0000 0.0000
# 5 0.0000 0.0000 0.0000 0.0000 20.7107 0.0000
# 6 0.0000 0.0000 0.0000 0.0000 0.0000 28.4103
#
#
#
# Elastic Compliance Matrix: (Units=1/GPa)
#
#
# Indices 1 2 3 4 5 6 
#
# 1 0.014296 -0.003304 -0.008028 0.000000 0.000000 0.000000
# 2 -0.003304 0.014296 -0.008028 0.000000 0.000000 0.000000
# 3 -0.008028 -0.008028 0.027694 0.000000 0.000000 0.000000
# 4 0.000000 0.000000 0.000000 0.048284 0.000000 0.000000
# 5 0.000000 0.000000 0.000000 0.000000 0.048284 0.000000
# 6 0.000000 0.000000 0.000000 0.000000 0.000000 0.035198
#
#
# Mechanical properties :
#
#
# Convention : Reuss Voigt Hill
#
# Bulk Modulus (GPa) = 56.93370 62.35691 59.64531
# Shear Modulus (GPa) = 21.49366 22.98449 22.23908
#
# Velocity S-wave (km/s) = 3.33781 3.45163 3.39520
# Velocity P-wave (km/s) = 6.66075 6.94313 6.80341
#
# Compressibility (1/GPa) = 0.01756429
#
# Stress axis : x y z
#
# Youngs Moduli (GPa) = 69.95166 69.95166 36.10942
#
# Poissons Ratio (x) = 0.23110 0.28990
# Poissons Ratio (y) = 0.23110 0.28990
# Poissons Ratio (z) = 0.56159 0.56159
#
# Static dielectric constant tensor:
#      x y z
#    x 3.628890 0.000000 0.000000 
#    y 0.000000 3.628890 0.000000 
#    z 0.000000 0.000000 3.483550 
# 
# 
# High freq. dielectric constant tensor:
#      x y z
#    x 1.750160 0.000000 0.000000 
#    y 0.000000 1.750160 0.000000 
#    z 0.000000 0.000000 1.735270 
# 
# From -- ./inp_files/2075.got.cif
#   From: 2010.03.12/outbox.cif.g09.slc.cpg/sg191_2_cif.got.tgz:2075.got - 2010.04.01 12:09:02.
