data_PCOD8329045
_publ_section_title
;
Structure prediction by ZEFSAII (Michael W. Deem and Ramdas Pophale) SiO2 
 PCOD8329045
Probable space group: P 6/M M M
;
_chemical_formula_sum "Si O2"
_cell_formula_units_Z 120
_cell_length_a 17.699552
_cell_length_b 17.699552
_cell_length_c 27.294211
_cell_angle_alpha 90.000000
_cell_angle_beta 90.000000
_cell_angle_gamma 120.000000
_cell_volume 7405.011274
_symmetry_space_group_name_H-M "P 6/M M M"
_symmetry_group_IT_number 191
_symmetry_cell_setting 'hexagonal'
loop_
_space_group_symop_operation_xyz
x,y,z
x-y,x,z
-y,x-y,z
-x,-y,z
-x+y,-x,z
y,-x+y,z
x-y,-y,-z
-x,-x+y,-z
y,x,-z
-y,-x,-z
-x+y,y,-z
x,x-y,-z
-x,-y,-z
-x+y,-x,-z
y,-x+y,-z
x,y,-z
x-y,x,-z
-y,x-y,-z
-x+y,y,z
x,x-y,z
-y,-x,z
y,x,z
x-y,-y,z
-x,-x+y,z
loop_
_atom_site_type_symbol
_atom_site_label
_atom_site_fract_x
_atom_site_fract_y
_atom_site_fract_z
Si Si1 0.508052 0.667031 0.619311
Si Si2 0.589930 0.000000 0.555122
Si Si3 0.902028 0.631540 0.000000
Si Si4 0.333270 0.494262 0.269142
Si Si5 0.331603 0.840702 0.908333
Si Si6 0.632113 0.901987 0.182328
O O1 0.510743 0.755372 0.605727
O O2 0.410664 0.589337 0.609646
O O3 0.577408 0.661939 0.583772
O O4 0.535221 0.664391 0.675405
O O5 0.500000 0.000000 0.555247
O O6 0.622288 0.000000 0.500000
O O7 0.890157 0.573818 0.047345
O O8 0.833354 0.666707 0.000000
O O9 0.000000 0.714418 0.000000
O O10 0.263720 0.527439 0.264288
O O11 0.426855 0.573146 0.252884
O O12 0.306404 0.411303 0.234967
O O13 0.427625 0.855250 0.912388
O O14 0.262204 0.737796 0.910422
O O15 0.322995 0.881866 0.858018
O O16 0.667669 0.833835 0.177561
O O17 0.713205 0.000000 0.175927
#
# Coordination Sequence:
#
# PCOD8329045 Si02
#       6
#    24  12  12  24  24  24
#     4   9  17  29  45  64  87 118 154 189 224 265
#     4   9  18  30  42  60  86 114 147 188 230 264
#     4  10  21  35  51  70  93 123 160 202 247 287
#     4   9  17  28  44  66  92 121 151 183 218 261
#     4  10  20  33  49  71  99 131 162 192 226 269
#     4  10  21  34  48  68  93 121 153 190 234 278
#
# _framework density 16.205241999999998
#
# number of rings (size 3 to 8) (size 9 to 14) (size 15 to 20)
#    0.000    2.500    0.000    2.100    1.400    5.200 
#    0.000    3.000    0.000    1.500    0.000    0.000 
#    0.000    4.800    0.000    0.300    0.000    1.700 
#
# Total GULP energy -1488047.723612 kJ/mol
# GULP energy per Si atom -12400.397697 kJ/mol
# Density = 1.616836 g / cm^3
# Si number density = 16.205242 Si / 1000 Ang^3
#
#
#
# Elastic Constant Matrix: (Units=GPa)
#
#
# Indices 1 2 3 4 5 6 
#
# 1 92.3965 62.4140 40.5909 0.0000 0.0000 0.0000
# 2 62.4140 92.3965 40.5909 0.0000 0.0000 0.0000
# 3 40.5909 40.5909 97.6826 0.0000 0.0000 0.0000
# 4 0.0000 0.0000 0.0000 16.5067 0.0000 0.0000
# 5 0.0000 0.0000 0.0000 0.0000 16.5067 0.0000
# 6 0.0000 0.0000 0.0000 0.0000 0.0000 14.9913
#
#
#
# Elastic Compliance Matrix: (Units=1/GPa)
#
#
# Indices 1 2 3 4 5 6 
#
# 1 0.020806 -0.012547 -0.003432 0.000000 0.000000 0.000000
# 2 -0.012547 0.020806 -0.003432 0.000000 0.000000 0.000000
# 3 -0.003432 -0.003432 0.013090 0.000000 0.000000 0.000000
# 4 0.000000 0.000000 0.000000 0.060581 0.000000 0.000000
# 5 0.000000 0.000000 0.000000 0.000000 0.060581 0.000000
# 6 0.000000 0.000000 0.000000 0.000000 0.000000 0.066706
#
#
# Mechanical properties :
#
#
# Convention : Reuss Voigt Hill
#
# Bulk Modulus (GPa) = 62.97278 63.29635 63.13457
# Shear Modulus (GPa) = 17.44075 18.85959 18.15017
#
# Velocity S-wave (km/s) = 3.28417 3.41515 3.35030
# Velocity P-wave (km/s) = 7.30239 7.39560 7.34914
#
# Compressibility (1/GPa) = 0.01587988
#
# Stress axis : x y z
#
# Youngs Moduli (GPa) = 48.06304 48.06304 76.39696
#
# Poissons Ratio (x) = 0.60304 0.26220
# Poissons Ratio (y) = 0.60304 0.26220
# Poissons Ratio (z) = 0.16495 0.16495
#
# Static dielectric constant tensor:
#      x y z
#    x 2.910340 0.000000 0.000000 
#    y 0.000000 2.910340 0.000000 
#    z 0.000000 0.000000 3.291520 
# 
# 
# High freq. dielectric constant tensor:
#      x y z
#    x 1.600290 0.000000 0.000000 
#    y 0.000000 1.600290 0.000000 
#    z 0.000000 0.000000 1.638820 
# 
# From -- ./inp_files/8601.got.cif
#   From: 2010.03.12/outbox.cif.g09.slc.cpg/sg191_5_cif.got.tgz:8601.got - 2010.04.01 12:09:02.
