data_PCOD8329804
_publ_section_title
;
Structure prediction by ZEFSAII (Michael W. Deem and Ramdas Pophale) SiO2 
 PCOD8329804
Probable space group: P 63/M C M
;
_chemical_formula_sum "Si O2"
_cell_formula_units_Z 96
_cell_length_a 15.427609
_cell_length_b 15.427609
_cell_length_c 24.764688
_cell_angle_alpha 90.000000
_cell_angle_beta 90.000000
_cell_angle_gamma 120.000000
_cell_volume 5104.588521
_symmetry_space_group_name_H-M "P 63/M C M"
_symmetry_group_IT_number 193
_symmetry_cell_setting 'hexagonal'
loop_
_space_group_symop_operation_xyz
x,y,z
x-y,x,1/2+z
-y,x-y,z
-x,-y,1/2+z
-x+y,-x,z
y,-x+y,1/2+z
x-y,-y,1/2-z
-x,-x+y,1/2-z
y,x,1/2-z
-y,-x,-z
-x+y,y,-z
x,x-y,-z
-x,-y,-z
-x+y,-x,1/2-z
y,-x+y,-z
x,y,1/2-z
x-y,x,-z
-y,x-y,1/2-z
-x+y,y,1/2+z
x,x-y,1/2+z
-y,-x,1/2+z
y,x,z
x-y,-y,z
-x,-x+y,z
loop_
_atom_site_type_symbol
_atom_site_label
_atom_site_fract_x
_atom_site_fract_y
_atom_site_fract_z
Si Si1 0.885488 0.771981 0.615014
Si Si2 0.839955 0.160046 0.000000
Si Si3 0.112588 0.479681 0.465835
Si Si4 0.771710 0.322476 0.250000
Si Si5 0.699276 0.118800 0.647723
O O1 0.814848 0.814848 0.635023
O O2 0.874169 0.751927 0.551221
O O3 0.854321 0.669135 0.646724
O O4 0.000000 0.853791 0.627628
O O5 0.720248 0.111544 0.000596
O O6 0.168360 0.584180 0.500000
O O7 0.161576 0.486028 0.407062
O O8 0.000000 0.454670 0.455142
O O9 0.769935 0.426992 0.250000
O O10 0.828460 0.318531 0.302410
O O11 0.627982 0.000000 0.651976
#
# Coordination Sequence:
#
# PCOD8329804 Si02
#       5
#    24  12  24  12  24
#     4  10  19  32  53  81 115 150 185 224 270 336
#     4  10  18  30  47  76 112 148 183 226 270 326
#     4   9  18  32  50  75 108 145 182 219 265 328
#     4  10  23  40  60  80 107 136 180 248 284 332
#     4   9  19  37  58  80 111 150 183 225 287 339
#
# _framework density 18.806609000000002
#
# number of rings (size 3 to 8) (size 9 to 14) (size 15 to 20)
#    0.250    2.250    0.000    4.375    0.000    4.000 
#    0.750    6.875    0.000    0.000    0.000    1.750 
#    0.000    0.000    0.000    0.000    0.000    0.000 
#
# Total GULP energy -1189869.742920 kJ/mol
# GULP energy per Si atom -12394.476489 kJ/mol
# Density = 1.876380 g / cm^3
# Si number density = 18.806609 Si / 1000 Ang^3
#
#
#
# Elastic Constant Matrix: (Units=GPa)
#
#
# Indices 1 2 3 4 5 6 
#
# 1 96.4804 40.2301 49.8619 0.0000 0.0000 0.0000
# 2 40.2301 96.4804 49.8619 0.0000 0.0000 0.0000
# 3 49.8619 49.8619 94.0860 0.0000 0.0000 0.0000
# 4 0.0000 0.0000 0.0000 25.1432 0.0000 0.0000
# 5 0.0000 0.0000 0.0000 0.0000 25.1432 0.0000
# 6 0.0000 0.0000 0.0000 0.0000 0.0000 28.1252
#
#
#
# Elastic Compliance Matrix: (Units=1/GPa)
#
#
# Indices 1 2 3 4 5 6 
#
# 1 0.014851 -0.002927 -0.006320 0.000000 0.000000 0.000000
# 2 -0.002927 0.014851 -0.006320 0.000000 0.000000 0.000000
# 3 -0.006320 -0.006320 0.017327 0.000000 0.000000 0.000000
# 4 0.000000 0.000000 0.000000 0.039772 0.000000 0.000000
# 5 0.000000 0.000000 0.000000 0.000000 0.039772 0.000000
# 6 0.000000 0.000000 0.000000 0.000000 0.000000 0.035555
#
#
# Mechanical properties :
#
#
# Convention : Reuss Voigt Hill
#
# Bulk Modulus (GPa) = 62.90217 62.99497 62.94857
# Shear Modulus (GPa) = 25.18139 25.48849 25.33494
#
# Velocity S-wave (km/s) = 3.66316 3.68543 3.67431
# Velocity P-wave (km/s) = 7.17015 7.18879 7.17948
#
# Compressibility (1/GPa) = 0.01589770
#
# Stress axis : x y z
#
# Youngs Moduli (GPa) = 67.33503 67.33503 57.71407
#
# Poissons Ratio (x) = 0.19706 0.36473
# Poissons Ratio (y) = 0.19706 0.36473
# Poissons Ratio (z) = 0.42553 0.42553
#
# Static dielectric constant tensor:
#      x y z
#    x 3.462310 0.000000 0.000000 
#    y 0.000000 3.462310 0.000000 
#    z 0.000000 0.000000 3.311150 
# 
# 
# High freq. dielectric constant tensor:
#      x y z
#    x 1.724680 0.000000 0.000000 
#    y 0.000000 1.724680 0.000000 
#    z 0.000000 0.000000 1.712930 
# 
# From -- ./inp_files/8152.got.cif
#   From: 2010.03.12/outbox.cif.g09.slc.cpg/sg193_5_cif.got.tgz:8152.got - 2010.04.01 12:20:39.
