data_PCOD8329300
_publ_section_title
;
Structure prediction by ZEFSAII (Michael W. Deem and Ramdas Pophale) SiO2 
 PCOD8329300
Probable space group: P 6/M M M
;
_chemical_formula_sum "Si O2"
_cell_formula_units_Z 96
_cell_length_a 31.094539
_cell_length_b 31.094539
_cell_length_c 7.666392
_cell_angle_alpha 90.000000
_cell_angle_beta 90.000000
_cell_angle_gamma 120.000000
_cell_volume 6419.332903
_symmetry_space_group_name_H-M "P 6/M M M"
_symmetry_group_IT_number 191
_symmetry_cell_setting 'hexagonal'
loop_
_space_group_symop_operation_xyz
x,y,z
x-y,x,z
-y,x-y,z
-x,-y,z
-x+y,-x,z
y,-x+y,z
x-y,-y,-z
-x,-x+y,-z
y,x,-z
-y,-x,-z
-x+y,y,-z
x,x-y,-z
-x,-y,-z
-x+y,-x,-z
y,-x+y,-z
x,y,-z
x-y,x,-z
-y,x-y,-z
-x+y,y,z
x,x-y,z
-y,-x,z
y,x,z
x-y,-y,z
-x,-x+y,z
loop_
_atom_site_type_symbol
_atom_site_label
_atom_site_fract_x
_atom_site_fract_y
_atom_site_fract_z
Si Si1 0.701762 0.196450 0.500000
Si Si2 0.766672 0.333285 0.198334
Si Si3 0.850359 0.795608 0.207475
Si Si4 0.756733 0.616496 0.500000
Si Si5 0.208486 0.315333 0.807301
O O1 0.754774 0.245227 0.500000
O O2 0.671819 0.195125 0.673598
O O3 0.709961 0.149245 0.500000
O O4 0.767716 0.383858 0.242892
O O5 0.710801 0.289200 0.230690
O O6 0.783549 0.332566 0.000000
O O7 0.904461 0.808922 0.283443
O O8 0.834441 0.834441 0.281481
O O9 0.808524 0.740022 0.262172
O O10 0.853333 0.797865 0.000000
O O11 0.808589 0.617177 0.500000
O O12 0.752755 0.644501 0.671638
O O13 0.160413 0.320825 0.821369
O O14 0.233414 0.324745 0.000000
#
# Coordination Sequence:
#
# PCOD8329300 Si02
#       5
#    12  24  24  12  24
#     4   9  17  25  33  48  67  88 117 154 195 233
#     4   9  16  25  36  49  66  90 122 159 195 227
#     4   8  13  22  37  56  77 102 133 167 199 228
#     4   9  16  25  36  50  69  92 119 153 191 228
#     4   8  14  24  37  52  70  94 123 153 185 222
#
# _framework density 14.954824
#
# number of rings (size 3 to 8) (size 9 to 14) (size 15 to 20)
#    0.000    3.500    0.000    2.125    0.000    2.000 
#    0.000    6.875    0.000    0.250    0.000    1.750 
#    0.000    0.000    0.000    0.000    0.000   24.750 
#
# Total GULP energy -1189606.721201 kJ/mol
# GULP energy per Si atom -12391.736679 kJ/mol
# Density = 1.492079 g / cm^3
# Si number density = 14.954824 Si / 1000 Ang^3
#
#
#
# Elastic Constant Matrix: (Units=GPa)
#
#
# Indices 1 2 3 4 5 6 
#
# 1 74.5744 51.7543 42.7915 0.0000 0.0000 0.0000
# 2 51.7543 74.5744 42.7915 0.0000 0.0000 0.0000
# 3 42.7915 42.7915 84.3946 0.0000 0.0000 0.0000
# 4 0.0000 0.0000 0.0000 8.5379 0.0000 0.0000
# 5 0.0000 0.0000 0.0000 0.0000 8.5379 0.0000
# 6 0.0000 0.0000 0.0000 0.0000 0.0000 11.4100
#
#
#
# Elastic Compliance Matrix: (Units=1/GPa)
#
#
# Indices 1 2 3 4 5 6 
#
# 1 0.027939 -0.015882 -0.006114 0.000000 0.000000 0.000000
# 2 -0.015882 0.027939 -0.006114 0.000000 0.000000 0.000000
# 3 -0.006114 -0.006114 0.018049 0.000000 0.000000 0.000000
# 4 0.000000 0.000000 0.000000 0.117124 0.000000 0.000000
# 5 0.000000 0.000000 0.000000 0.000000 0.117124 0.000000
# 6 0.000000 0.000000 0.000000 0.000000 0.000000 0.087642
#
#
# Mechanical properties :
#
#
# Convention : Reuss Voigt Hill
#
# Bulk Modulus (GPa) = 56.46735 56.46867 56.46801
# Shear Modulus (GPa) = 10.91847 12.11092 11.51470
#
# Velocity S-wave (km/s) = 2.70496 2.84885 2.77784
# Velocity P-wave (km/s) = 6.89901 6.97587 6.93754
#
# Compressibility (1/GPa) = 0.01770935
#
# Stress axis : x y z
#
# Youngs Moduli (GPa) = 35.79178 35.79178 55.40495
#
# Poissons Ratio (x) = 0.56843 0.33873
# Poissons Ratio (y) = 0.56843 0.33873
# Poissons Ratio (z) = 0.21882 0.21882
#
# Static dielectric constant tensor:
#      x y z
#    x 2.801210 0.000000 0.000000 
#    y 0.000000 2.801210 0.000000 
#    z 0.000000 0.000000 3.124940 
# 
# 
# High freq. dielectric constant tensor:
#      x y z
#    x 1.531920 0.000000 0.000000 
#    y 0.000000 1.531920 0.000000 
#    z 0.000000 0.000000 1.580510 
# 
# From -- ./inp_files/1586.got.cif
#   From: 2010.03.12/outbox.cif.g09.slc.cpg/sg191_1_cif.got.tgz:1586.got - 2010.04.01 12:09:02.
