data_PCOD8329701
_publ_section_title
;
Structure prediction by ZEFSAII (Michael W. Deem and Ramdas Pophale) SiO2 
 PCOD8329701
Probable space group: P 6/M C C
;
_chemical_formula_sum "Si O2"
_cell_formula_units_Z 72
_cell_length_a 16.952360
_cell_length_b 16.952360
_cell_length_c 14.439051
_cell_angle_alpha 90.000000
_cell_angle_beta 90.000000
_cell_angle_gamma 120.000000
_cell_volume 3593.599011
_symmetry_space_group_name_H-M "P 6/M C C"
_symmetry_group_IT_number 192
_symmetry_cell_setting 'hexagonal'
loop_
_space_group_symop_operation_xyz
x,y,z
x-y,x,z
-y,x-y,z
-x,-y,z
-x+y,-x,z
y,-x+y,z
x-y,-y,1/2-z
-x,-x+y,1/2-z
y,x,1/2-z
-y,-x,1/2-z
-x+y,y,1/2-z
x,x-y,1/2-z
-x,-y,-z
-x+y,-x,-z
y,-x+y,-z
x,y,-z
x-y,x,-z
-y,x-y,-z
-x+y,y,1/2+z
x,x-y,1/2+z
-y,-x,1/2+z
y,x,1/2+z
x-y,-y,1/2+z
-x,-x+y,1/2+z
loop_
_atom_site_type_symbol
_atom_site_label
_atom_site_fract_x
_atom_site_fract_y
_atom_site_fract_z
Si Si1 0.855406 0.067392 0.000000
Si Si2 0.642137 0.223903 0.000000
Si Si3 0.410449 0.914649 0.841768
Si Si4 0.230438 0.312403 0.309940
O O1 0.814457 0.089585 0.909729
O O2 0.963683 0.131554 0.000000
O O3 0.744053 0.311021 0.000000
O O4 0.633244 0.170000 0.908371
O O5 0.443004 0.886008 0.750000
O O6 0.333818 0.940960 0.821976
O O7 0.500000 0.000000 0.887197
O O8 0.232794 0.232794 0.250000
O O9 0.173828 0.347656 0.250000
#
# Coordination Sequence:
#
# PCOD8329701 Si02
#       4
#    12  12  24  24
#     4  12  26  45  69 101 138 178 228 283 346 409
#     4  10  26  41  62  99 128 172 227 276 333 396
#     4  11  24  45  68  95 136 177 225 278 341 404
#     4  12  25  45  72 103 135 178 231 284 338 411
#
# _framework density 20.035625
#
# number of rings (size 3 to 8) (size 9 to 14) (size 15 to 20)
#    0.333    0.333    6.667    1.667    4.667    0.000 
#    6.000    0.000    0.000    0.000    0.000    0.000 
#    0.000    0.000    0.000    0.000    0.000    0.000 
#
# Total GULP energy -892693.630935 kJ/mol
# GULP energy per Si atom -12398.522652 kJ/mol
# Density = 1.999002 g / cm^3
# Si number density = 20.035625 Si / 1000 Ang^3
#
#
#
# Elastic Constant Matrix: (Units=GPa)
#
#
# Indices 1 2 3 4 5 6 
#
# 1 107.8526 33.5189 40.6039 0.0000 0.0000 0.0000
# 2 33.5189 107.8526 40.6039 0.0000 0.0000 0.0000
# 3 40.6039 40.6039 131.7137 0.0000 0.0000 0.0000
# 4 0.0000 0.0000 0.0000 42.6953 0.0000 0.0000
# 5 0.0000 0.0000 0.0000 0.0000 42.6953 0.0000
# 6 0.0000 0.0000 0.0000 0.0000 0.0000 37.1668
#
#
#
# Elastic Compliance Matrix: (Units=1/GPa)
#
#
# Indices 1 2 3 4 5 6 
#
# 1 0.011024 -0.002429 -0.002650 0.000000 0.000000 0.000000
# 2 -0.002429 0.011024 -0.002650 0.000000 0.000000 0.000000
# 3 -0.002650 -0.002650 0.009226 0.000000 0.000000 0.000000
# 4 0.000000 0.000000 0.000000 0.023422 0.000000 0.000000
# 5 0.000000 0.000000 0.000000 0.000000 0.023422 0.000000
# 6 0.000000 0.000000 0.000000 0.000000 0.000000 0.026906
#
#
# Mechanical properties :
#
#
# Convention : Reuss Voigt Hill
#
# Bulk Modulus (GPa) = 63.21891 64.09692 63.65792
# Shear Modulus (GPa) = 39.76049 40.02429 39.89239
#
# Velocity S-wave (km/s) = 4.45959 4.47436 4.46699
# Velocity P-wave (km/s) = 7.62490 7.66513 7.64504
#
# Compressibility (1/GPa) = 0.01581805
#
# Stress axis : x y z
#
# Youngs Moduli (GPa) = 90.70889 90.70889 108.38963
#
# Poissons Ratio (x) = 0.22029 0.28721
# Poissons Ratio (y) = 0.22029 0.28721
# Poissons Ratio (z) = 0.24036 0.24036
#
# Static dielectric constant tensor:
#      x y z
#    x 3.673860 0.000000 0.000000 
#    y 0.000000 3.673860 0.000000 
#    z 0.000000 0.000000 3.832150 
# 
# 
# High freq. dielectric constant tensor:
#      x y z
#    x 1.787180 0.000000 0.000000 
#    y 0.000000 1.787180 0.000000 
#    z 0.000000 0.000000 1.798400 
# 
# From -- ./inp_files/3823.got.cif
#   From: 2010.03.12/outbox.cif.g09.slc.cpg/sg192_2_cif.got.tgz:3823.got - 2010.04.01 12:16:15.
