data_PCOD8329209
_publ_section_title
;
Structure prediction by ZEFSAII (Michael W. Deem and Ramdas Pophale) SiO2 
 PCOD8329209
Probable space group: P 6/M M M
;
_chemical_formula_sum "Si O2"
_cell_formula_units_Z 144
_cell_length_a 30.972140
_cell_length_b 30.972140
_cell_length_c 8.951039
_cell_angle_alpha 90.000000
_cell_angle_beta 90.000000
_cell_angle_gamma 120.000000
_cell_volume 7436.122036
_symmetry_space_group_name_H-M "P 6/M M M"
_symmetry_group_IT_number 191
_symmetry_cell_setting 'hexagonal'
loop_
_space_group_symop_operation_xyz
x,y,z
x-y,x,z
-y,x-y,z
-x,-y,z
-x+y,-x,z
y,-x+y,z
x-y,-y,-z
-x,-x+y,-z
y,x,-z
-y,-x,-z
-x+y,y,-z
x,x-y,-z
-x,-y,-z
-x+y,-x,-z
y,-x+y,-z
x,y,-z
x-y,x,-z
-y,x-y,-z
-x+y,y,z
x,x-y,z
-y,-x,z
y,x,z
x-y,-y,z
-x,-x+y,z
loop_
_atom_site_type_symbol
_atom_site_label
_atom_site_fract_x
_atom_site_fract_y
_atom_site_fract_z
Si Si1 0.151615 0.207158 0.828659
Si Si2 0.234509 0.567722 0.172197
Si Si3 0.760723 0.703420 0.673851
Si Si4 0.478421 0.146313 0.323910
Si Si5 0.578286 0.521104 0.173110
Si Si6 0.611784 0.855377 0.174177
O O1 0.093665 0.187329 0.794208
O O2 0.162019 0.162019 0.794185
O O3 0.184805 0.254126 0.724767
O O4 0.164944 0.225074 0.000000
O O5 0.280876 0.561751 0.224024
O O6 0.249615 0.624808 0.196120
O O7 0.186649 0.533670 0.272504
O O8 0.220896 0.551777 0.000000
O O9 0.762891 0.693435 0.500000
O O10 0.720376 0.720376 0.709377
O O11 0.744678 0.653098 0.762492
O O12 0.474158 0.146736 0.500000
O O13 0.465348 0.091400 0.272878
O O14 0.440458 0.161470 0.253015
O O15 0.533523 0.466478 0.215950
O O16 0.562018 0.562018 0.206229
O O17 0.592315 0.522335 0.000000
O O18 0.627218 0.813609 0.205833
O O19 0.605541 0.861259 0.000000
#
# Coordination Sequence:
#
# PCOD8329209 Si02
#       6
#    24  24  24  24  24  24
#     4   9  17  30  49  73 102 138 180 223 267 318
#     4  10  21  39  63  88 114 146 186 230 274 322
#     4  10  21  36  55  81 111 140 172 216 271 326
#     4  12  25  38  56  84 117 151 184 222 273 328
#     4   9  19  38  63  87 111 144 187 231 274 321
#     4  11  24  41  60  80 105 143 188 228 268 317
#
# _framework density 19.364930999999999
#
# number of rings (size 3 to 8) (size 9 to 14) (size 15 to 20)
#    0.000    1.833    0.000    4.667    0.000   11.333 
#    0.000    0.833    0.000    1.167    0.000    1.167 
#    0.000    0.000    0.000    4.167    0.000    4.333 
#
# Total GULP energy -1786300.768761 kJ/mol
# GULP energy per Si atom -12404.866450 kJ/mol
# Density = 1.932086 g / cm^3
# Si number density = 19.364931 Si / 1000 Ang^3
#
#
#
# Elastic Constant Matrix: (Units=GPa)
#
#
# Indices 1 2 3 4 5 6 
#
# 1 97.4202 35.2616 49.0443 0.0000 0.0000 0.0000
# 2 35.2616 97.4202 49.0443 0.0000 0.0000 0.0000
# 3 49.0443 49.0443 111.7935 0.0000 0.0000 0.0000
# 4 0.0000 0.0000 0.0000 16.9357 0.0000 0.0000
# 5 0.0000 0.0000 0.0000 0.0000 16.9357 0.0000
# 6 0.0000 0.0000 0.0000 0.0000 0.0000 31.0793
#
#
#
# Elastic Compliance Matrix: (Units=1/GPa)
#
#
# Indices 1 2 3 4 5 6 
#
# 1 0.013621 -0.002467 -0.004894 0.000000 0.000000 0.000000
# 2 -0.002467 0.013621 -0.004894 0.000000 0.000000 0.000000
# 3 -0.004894 -0.004894 0.013239 0.000000 0.000000 0.000000
# 4 0.000000 0.000000 0.000000 0.059047 0.000000 0.000000
# 5 0.000000 0.000000 0.000000 0.000000 0.059047 0.000000
# 6 0.000000 0.000000 0.000000 0.000000 0.000000 0.032176
#
#
# Mechanical properties :
#
#
# Convention : Reuss Voigt Hill
#
# Bulk Modulus (GPa) = 62.60336 63.70378 63.15357
# Shear Modulus (GPa) = 22.66728 24.54241 23.60484
#
# Velocity S-wave (km/s) = 3.42502 3.56387 3.49513
# Velocity P-wave (km/s) = 6.93104 7.06419 6.99793
#
# Compressibility (1/GPa) = 0.01597358
#
# Stress axis : x y z
#
# Youngs Moduli (GPa) = 73.41506 73.41506 75.53622
#
# Poissons Ratio (x) = 0.18109 0.36964
# Poissons Ratio (y) = 0.18109 0.36964
# Poissons Ratio (z) = 0.35926 0.35926
#
# Static dielectric constant tensor:
#      x y z
#    x 3.537310 0.000000 0.000000 
#    y 0.000000 3.537310 0.000000 
#    z 0.000000 0.000000 3.504080 
# 
# 
# High freq. dielectric constant tensor:
#      x y z
#    x 1.755950 0.000000 0.000000 
#    y 0.000000 1.755950 0.000000 
#    z 0.000000 0.000000 1.750790 
# 
# From -- ./inp_files/1947.got.cif
#   From: 2010.03.12/outbox.cif.g09.slc.cpg/sg191_1_cif.got.tgz:1947.got - 2010.04.01 12:09:02.
