data_PCOD8329697
_publ_section_title
;
Structure prediction by ZEFSAII (Michael W. Deem and Ramdas Pophale) SiO2 
 PCOD8329697
Probable space group: P 6/M C C
;
_chemical_formula_sum "Si O2"
_cell_formula_units_Z 72
_cell_length_a 14.172929
_cell_length_b 14.172929
_cell_length_c 18.008592
_cell_angle_alpha 90.000000
_cell_angle_beta 90.000000
_cell_angle_gamma 120.000000
_cell_volume 3132.777952
_symmetry_space_group_name_H-M "P 6/M C C"
_symmetry_group_IT_number 192
_symmetry_cell_setting 'hexagonal'
loop_
_space_group_symop_operation_xyz
x,y,z
x-y,x,z
-y,x-y,z
-x,-y,z
-x+y,-x,z
y,-x+y,z
x-y,-y,1/2-z
-x,-x+y,1/2-z
y,x,1/2-z
-y,-x,1/2-z
-x+y,y,1/2-z
x,x-y,1/2-z
-x,-y,-z
-x+y,-x,-z
y,-x+y,-z
x,y,-z
x-y,x,-z
-y,x-y,-z
-x+y,y,1/2+z
x,x-y,1/2+z
-y,-x,1/2+z
y,x,1/2+z
x-y,-y,1/2+z
-x,-x+y,1/2+z
loop_
_atom_site_type_symbol
_atom_site_label
_atom_site_fract_x
_atom_site_fract_y
_atom_site_fract_z
Si Si1 0.806523 0.038403 0.912263
Si Si2 0.686993 0.462242 0.915741
Si Si3 0.981520 0.384537 0.836890
O O1 0.791284 0.923644 0.884316
O O2 0.712260 0.057332 0.877160
O O3 0.798268 0.042253 0.000000
O O4 0.569463 0.350558 0.902957
O O5 0.700384 0.555465 0.858748
O O6 0.693654 0.505107 0.000000
O O7 0.000000 0.500000 0.866557
O O8 0.000000 0.385780 0.750000
#
# Coordination Sequence:
#
# PCOD8329697 Si02
#       3
#    24  24  24
#     4  10  23  44  72 101 133 175 228 286 340 401
#     4   8  18  38  67  94 120 163 223 279 330 391
#     4  11  25  42  59  97 139 178 220 270 343 413
#
# _framework density 22.982797000000001
#
# number of rings (size 3 to 8) (size 9 to 14) (size 15 to 20)
#    0.667    1.667    0.000    1.333    4.667    5.333 
#    6.000    0.000    0.000    2.000    0.000    0.000 
#    0.000    0.000    0.000    0.000    0.000    0.000 
#
# Total GULP energy -892358.843904 kJ/mol
# GULP energy per Si atom -12393.872832 kJ/mol
# Density = 2.293049 g / cm^3
# Si number density = 22.982797 Si / 1000 Ang^3
#
#
#
# Elastic Constant Matrix: (Units=GPa)
#
#
# Indices 1 2 3 4 5 6 
#
# 1 82.7133 27.0933 26.9512 0.0000 0.0000 0.0000
# 2 27.0933 82.7133 26.9512 0.0000 0.0000 0.0000
# 3 26.9512 26.9512 77.3013 0.0000 0.0000 0.0000
# 4 0.0000 0.0000 0.0000 11.0554 0.0000 0.0000
# 5 0.0000 0.0000 0.0000 0.0000 11.0554 0.0000
# 6 0.0000 0.0000 0.0000 0.0000 0.0000 27.8100
#
#
#
# Elastic Compliance Matrix: (Units=1/GPa)
#
#
# Indices 1 2 3 4 5 6 
#
# 1 0.014483 -0.003496 -0.003831 0.000000 0.000000 0.000000
# 2 -0.003496 0.014483 -0.003831 0.000000 0.000000 0.000000
# 3 -0.003831 -0.003831 0.015608 0.000000 0.000000 0.000000
# 4 0.000000 0.000000 0.000000 0.090454 0.000000 0.000000
# 5 0.000000 0.000000 0.000000 0.000000 0.090454 0.000000
# 6 0.000000 0.000000 0.000000 0.000000 0.000000 0.035958
#
#
# Mechanical properties :
#
#
# Convention : Reuss Voigt Hill
#
# Bulk Modulus (GPa) = 44.92503 44.96880 44.94692
# Shear Modulus (GPa) = 17.17186 20.76631 18.96909
#
# Velocity S-wave (km/s) = 2.73639 3.00919 2.87603
# Velocity P-wave (km/s) = 5.43815 5.62871 5.53425
#
# Compressibility (1/GPa) = 0.02225931
#
# Stress axis : x y z
#
# Youngs Moduli (GPa) = 69.04522 69.04522 64.07133
#
# Poissons Ratio (x) = 0.24137 0.24544
# Poissons Ratio (y) = 0.24137 0.24544
# Poissons Ratio (z) = 0.26450 0.26450
#
# Static dielectric constant tensor:
#      x y z
#    x 4.226180 0.000000 0.000000 
#    y 0.000000 4.226180 0.000000 
#    z 0.000000 0.000000 3.593810 
# 
# 
# High freq. dielectric constant tensor:
#      x y z
#    x 1.915820 0.000000 0.000000 
#    y 0.000000 1.915820 0.000000 
#    z 0.000000 0.000000 1.871320 
# 
# From -- ./inp_files/3776.got.cif
#   From: 2010.03.12/outbox.cif.g09.slc.cpg/sg192_2_cif.got.tgz:3776.got - 2010.04.01 12:16:15.
