data_PCOD8329342
_publ_section_title
;
Structure prediction by ZEFSAII (Michael W. Deem and Ramdas Pophale) SiO2 
 PCOD8329342
Probable space group: P 6/M M M
;
_chemical_formula_sum "Si O2"
_cell_formula_units_Z 132
_cell_length_a 18.492720
_cell_length_b 18.492720
_cell_length_c 28.665496
_cell_angle_alpha 90.000000
_cell_angle_beta 90.000000
_cell_angle_gamma 120.000000
_cell_volume 8489.687033
_symmetry_space_group_name_H-M "P 6/M M M"
_symmetry_group_IT_number 191
_symmetry_cell_setting 'hexagonal'
loop_
_space_group_symop_operation_xyz
x,y,z
x-y,x,z
-y,x-y,z
-x,-y,z
-x+y,-x,z
y,-x+y,z
x-y,-y,-z
-x,-x+y,-z
y,x,-z
-y,-x,-z
-x+y,y,-z
x,x-y,-z
-x,-y,-z
-x+y,-x,-z
y,-x+y,-z
x,y,-z
x-y,x,-z
-y,x-y,-z
-x+y,y,z
x,x-y,z
-y,-x,z
y,x,z
x-y,-y,z
-x,-x+y,z
loop_
_atom_site_type_symbol
_atom_site_label
_atom_site_fract_x
_atom_site_fract_y
_atom_site_fract_z
Si Si1 0.347347 0.092689 0.117178
Si Si2 0.168157 0.666474 0.286720
Si Si3 0.500707 0.333606 0.946399
Si Si4 0.333199 0.834414 0.604968
Si Si5 0.254421 0.347063 0.775907
Si Si6 0.000000 0.414157 0.552862
O O1 0.318066 0.159033 0.103568
O O2 0.423760 0.104788 0.085477
O O3 0.377508 0.104636 0.170658
O O4 0.269476 0.000000 0.108621
O O5 0.156697 0.578349 0.271405
O O6 0.263321 0.736680 0.276809
O O7 0.145864 0.666743 0.340658
O O8 0.104955 0.681728 0.256080
O O9 0.524475 0.262238 0.937899
O O10 0.579274 0.420727 0.931457
O O11 0.475936 0.334893 0.000000
O O12 0.408023 0.816046 0.593244
O O13 0.246408 0.753593 0.589624
O O14 0.343735 0.915648 0.577790
O O15 0.158704 0.317408 0.762484
O O16 0.269274 0.269274 0.767371
O O17 0.000000 0.500000 0.555286
O O18 0.000000 0.385461 0.500000
#
# Coordination Sequence:
#
# PCOD8329342 Si02
#       6
#    24  24  24  24  24  12
#     4   9  18  32  47  63  85 112 142 176 216 261
#     4   9  17  28  43  63  87 115 147 180 211 245
#     4   9  17  29  45  64  87 116 149 182 214 249
#     4   9  17  29  45  63  85 115 150 184 216 255
#     4   9  18  31  46  64  86 113 143 175 214 260
#     4   9  18  30  42  60  86 112 141 181 224 258
#
# _framework density 15.548277000000001
#
# number of rings (size 3 to 8) (size 9 to 14) (size 15 to 20)
#    0.000    3.000    0.000    0.545    1.273    4.364 
#    0.000    2.727    0.000    3.636    0.000    2.545 
#    0.000    0.000    0.000    4.818    0.000    5.909 
#
# Total GULP energy -1636586.810801 kJ/mol
# GULP energy per Si atom -12398.384930 kJ/mol
# Density = 1.551289 g / cm^3
# Si number density = 15.548277 Si / 1000 Ang^3
#
#
#
# Elastic Constant Matrix: (Units=GPa)
#
#
# Indices 1 2 3 4 5 6 
#
# 1 96.7734 64.3932 45.5875 0.0000 0.0000 0.0000
# 2 64.3932 96.7734 45.5875 0.0000 0.0000 0.0000
# 3 45.5875 45.5875 58.2658 0.0000 0.0000 0.0000
# 4 0.0000 0.0000 0.0000 21.6791 0.0000 0.0000
# 5 0.0000 0.0000 0.0000 0.0000 21.6791 0.0000
# 6 0.0000 0.0000 0.0000 0.0000 0.0000 16.1901
#
#
#
# Elastic Compliance Matrix: (Units=1/GPa)
#
#
# Indices 1 2 3 4 5 6 
#
# 1 0.021008 -0.009876 -0.008710 0.000000 0.000000 0.000000
# 2 -0.009876 0.021008 -0.008710 0.000000 0.000000 0.000000
# 3 -0.008710 -0.008710 0.030792 0.000000 0.000000 0.000000
# 4 0.000000 0.000000 0.000000 0.046127 0.000000 0.000000
# 5 0.000000 0.000000 0.000000 0.000000 0.046127 0.000000
# 6 0.000000 0.000000 0.000000 0.000000 0.000000 0.061766
#
#
# Mechanical properties :
#
#
# Convention : Reuss Voigt Hill
#
# Bulk Modulus (GPa) = 54.89419 62.54988 58.72204
# Shear Modulus (GPa) = 17.39189 18.32596 17.85893
#
# Velocity S-wave (km/s) = 3.34814 3.43687 3.39279
# Velocity P-wave (km/s) = 7.09429 7.48774 7.29367
#
# Compressibility (1/GPa) = 0.01821686
#
# Stress axis : x y z
#
# Youngs Moduli (GPa) = 47.60187 47.60187 32.47610
#
# Poissons Ratio (x) = 0.47009 0.28286
# Poissons Ratio (y) = 0.47009 0.28286
# Poissons Ratio (z) = 0.41460 0.41460
#
# Static dielectric constant tensor:
#      x y z
#    x 2.929400 0.000000 0.000000 
#    y 0.000000 2.929400 0.000000 
#    z 0.000000 0.000000 3.025830 
# 
# 
# High freq. dielectric constant tensor:
#      x y z
#    x 1.581910 0.000000 0.000000 
#    y 0.000000 1.581910 0.000000 
#    z 0.000000 0.000000 1.597330 
# 
# From -- ./inp_files/10404.got.cif
#   From: 2010.03.12/outbox.cif.g09.slc.cpg/sg191_6_cif.got.tgz:10404.got - 2010.04.01 12:09:02.
