data_PCOD8329175
_publ_section_title
;
Structure prediction by ZEFSAII (Michael W. Deem and Ramdas Pophale) SiO2 
 PCOD8329175
Probable space group: P 6/M M M
;
_chemical_formula_sum "Si O2"
_cell_formula_units_Z 192
_cell_length_a 22.713454
_cell_length_b 22.713454
_cell_length_c 25.433325
_cell_angle_alpha 90.000000
_cell_angle_beta 90.000000
_cell_angle_gamma 120.000000
_cell_volume 11363.186538
_symmetry_space_group_name_H-M "P 6/M M M"
_symmetry_group_IT_number 191
_symmetry_cell_setting 'hexagonal'
loop_
_space_group_symop_operation_xyz
x,y,z
x-y,x,z
-y,x-y,z
-x,-y,z
-x+y,-x,z
y,-x+y,z
x-y,-y,-z
-x,-x+y,-z
y,x,-z
-y,-x,-z
-x+y,y,-z
x,x-y,-z
-x,-y,-z
-x+y,-x,-z
y,-x+y,-z
x,y,-z
x-y,x,-z
-y,x-y,-z
-x+y,y,z
x,x-y,z
-y,-x,z
y,x,z
x-y,-y,z
-x,-x+y,z
loop_
_atom_site_type_symbol
_atom_site_label
_atom_site_fract_x
_atom_site_fract_y
_atom_site_fract_z
Si Si1 0.922461 0.209694 0.821604
Si Si2 0.200807 0.274052 0.293141
Si Si3 0.531585 0.923987 0.644572
Si Si4 0.608534 0.078297 0.236436
Si Si5 0.711799 0.789237 0.407711
Si Si6 0.285641 0.434453 0.853290
Si Si7 0.850285 0.565430 0.441653
Si Si8 0.530133 0.922734 0.060271
O O1 0.871849 0.128152 0.828937
O O2 0.916655 0.232133 0.761131
O O3 0.897429 0.250304 0.857752
O O4 0.000000 0.230096 0.835675
O O5 0.120703 0.241405 0.293431
O O6 0.207776 0.207776 0.293345
O O7 0.232442 0.316248 0.347076
O O8 0.461132 0.922263 0.641113
O O9 0.541463 0.904744 0.703831
O O10 0.528954 0.870763 0.602282
O O11 0.592510 0.000000 0.631015
O O12 0.544672 0.089344 0.229209
O O13 0.667596 0.130122 0.198179
O O14 0.585665 0.000000 0.222755
O O15 0.740450 0.870225 0.416631
O O16 0.770604 0.770604 0.420739
O O17 0.646544 0.745149 0.443382
O O18 0.228600 0.457199 0.851330
O O19 0.330624 0.463192 0.905387
O O20 0.853026 0.538178 0.500000
O O21 0.774541 0.549081 0.428086
O O22 0.454492 0.908984 0.067621
O O23 0.583457 0.000000 0.078307
O O24 0.543714 0.912313 0.000000
#
# Coordination Sequence:
#
# PCOD8329175 Si02
#       8
#    24  24  24  24  24  24  24  24
#     4   9  17  27  40  62  92 123 155 192 237 283
#     4   8  14  24  37  54  77 108 143 178 218 265
#     4   9  19  34  52  75  98 121 151 191 243 293
#     4   9  18  33  52  72  96 126 160 199 239 281
#     4   9  17  28  43  62  86 117 151 187 227 272
#     4  11  21  29  45  74 104 133 161 193 239 289
#     4  10  21  34  48  68  94 123 153 187 230 284
#     4   9  18  34  56  77  96 125 167 210 246 280
#
# _framework density 16.896667999999998
#
# number of rings (size 3 to 8) (size 9 to 14) (size 15 to 20)
#    0.000    2.750    0.000    3.000    1.750    3.000 
#    0.000    0.625    0.000    2.625    0.000    3.500 
#    0.000    0.000    0.000    3.125    0.000    3.250 
#
# Total GULP energy -2378926.497655 kJ/mol
# GULP energy per Si atom -12390.242175 kJ/mol
# Density = 1.685821 g / cm^3
# Si number density = 16.896668 Si / 1000 Ang^3
#
#
#
# Elastic Constant Matrix: (Units=GPa)
#
#
# Indices 1 2 3 4 5 6 
#
# 1 70.8000 26.3103 46.6458 0.0000 0.0000 0.0000
# 2 26.3103 70.8000 46.6458 0.0000 0.0000 0.0000
# 3 46.6458 46.6458 97.7971 0.0000 0.0000 0.0000
# 4 0.0000 0.0000 0.0000 24.9049 0.0000 0.0000
# 5 0.0000 0.0000 0.0000 0.0000 24.9049 0.0000
# 6 0.0000 0.0000 0.0000 0.0000 0.0000 22.2449
#
#
#
# Elastic Compliance Matrix: (Units=1/GPa)
#
#
# Indices 1 2 3 4 5 6 
#
# 1 0.020742 -0.001735 -0.009065 0.000000 0.000000 0.000000
# 2 -0.001735 0.020742 -0.009065 0.000000 0.000000 0.000000
# 3 -0.009065 -0.009065 0.018873 0.000000 0.000000 0.000000
# 4 0.000000 0.000000 0.000000 0.040153 0.000000 0.000000
# 5 0.000000 0.000000 0.000000 0.000000 0.040153 0.000000
# 6 0.000000 0.000000 0.000000 0.000000 0.000000 0.044954
#
#
# Mechanical properties :
#
#
# Convention : Reuss Voigt Hill
#
# Bulk Modulus (GPa) = 48.48644 53.17787 50.83215
# Shear Modulus (GPa) = 21.53098 22.39728 21.96413
#
# Velocity S-wave (km/s) = 3.57357 3.64475 3.60934
# Velocity P-wave (km/s) = 6.76649 7.01805 6.89342
#
# Compressibility (1/GPa) = 0.02062432
#
# Stress axis : x y z
#
# Youngs Moduli (GPa) = 48.21179 48.21179 52.98556
#
# Poissons Ratio (x) = 0.08366 0.48034
# Poissons Ratio (y) = 0.08366 0.48034
# Poissons Ratio (z) = 0.43706 0.43706
#
# Static dielectric constant tensor:
#      x y z
#    x 3.040320 0.000000 0.000000 
#    y 0.000000 3.040320 0.000000 
#    z 0.000000 0.000000 3.238790 
# 
# 
# High freq. dielectric constant tensor:
#      x y z
#    x 1.633470 0.000000 0.000000 
#    y 0.000000 1.633470 0.000000 
#    z 0.000000 0.000000 1.652070 
# 
# From -- ./inp_files/9309.got.cif
#   From: 2010.03.12/outbox.cif.g09.slc.cpg/sg191_5_cif.got.tgz:9309.got - 2010.04.01 12:09:02.
