data_PCOD8329478
_publ_section_title
;
Structure prediction by ZEFSAII (Michael W. Deem and Ramdas Pophale) SiO2 
 PCOD8329478
Probable space group: P 6/M C C
;
_chemical_formula_sum "Si O2"
_cell_formula_units_Z 168
_cell_length_a 28.475328
_cell_length_b 28.475328
_cell_length_c 14.682822
_cell_angle_alpha 90.000000
_cell_angle_beta 90.000000
_cell_angle_gamma 120.000000
_cell_volume 10310.450372
_symmetry_space_group_name_H-M "P 6/M C C"
_symmetry_group_IT_number 192
_symmetry_cell_setting 'hexagonal'
loop_
_space_group_symop_operation_xyz
x,y,z
x-y,x,z
-y,x-y,z
-x,-y,z
-x+y,-x,z
y,-x+y,z
x-y,-y,1/2-z
-x,-x+y,1/2-z
y,x,1/2-z
-y,-x,1/2-z
-x+y,y,1/2-z
x,x-y,1/2-z
-x,-y,-z
-x+y,-x,-z
y,-x+y,-z
x,y,-z
x-y,x,-z
-y,x-y,-z
-x+y,y,1/2+z
x,x-y,1/2+z
-y,-x,1/2+z
y,x,1/2+z
x-y,-y,1/2+z
-x,-x+y,1/2+z
loop_
_atom_site_type_symbol
_atom_site_label
_atom_site_fract_x
_atom_site_fract_y
_atom_site_fract_z
Si Si1 0.999999 0.247304 0.104806
Si Si2 0.893676 0.545864 0.896336
Si Si3 0.347817 0.454140 0.103664
Si Si4 0.580785 0.845413 0.750002
Si Si5 0.709371 0.799340 0.250001
Si Si6 0.357504 0.357503 0.397982
Si Si7 0.468882 0.937762 0.356888
O O1 0.945678 0.205909 0.159984
O O2 0.999990 0.302556 0.102313
O O3 0.054325 0.260239 0.159978
O O4 0.000001 0.227280 0.000000
O O5 0.846761 0.546474 0.837054
O O6 0.901192 0.493901 0.890431
O O7 0.947117 0.595490 0.849981
O O8 0.883318 0.556287 0.000000
O O9 0.300289 0.453527 0.162943
O O10 0.351639 0.404519 0.150019
O O11 0.407294 0.506106 0.109568
O O12 0.327036 0.443715 0.000000
O O13 0.574403 0.787202 0.750000
O O14 0.645246 0.890625 0.750006
O O15 0.718918 0.859459 0.250000
O O16 0.378259 0.378261 0.500000
O O17 0.471071 0.942141 0.250000
O O18 0.500000 0.000000 0.397075
#
# Coordination Sequence:
#
# PCOD8329478 Si02
#       7
#    24  24  24  24  24  24  24
#     4  10  19  33  51  70  97 138 177 214 255 296
#     4  11  21  34  51  72 103 137 167 204 251 305
#     4  11  21  34  51  72 103 137 167 204 251 305
#     4  11  23  36  49  68  97 133 173 216 255 293
#     4  10  21  33  49  73  99 131 176 221 255 290
#     4   9  17  28  46  70  98 136 172 197 237 298
#     4  11  21  31  51  80 109 139 164 195 249 316
#
# _framework density 16.294148
#
# number of rings (size 3 to 8) (size 9 to 14) (size 15 to 20)
#    0.000    1.571    5.714    0.429    0.000    2.286 
#    0.000    2.857    0.000    0.000    0.000    0.000 
#    5.714    0.000    1.714   13.714    0.000   29.714 
#
# Total GULP energy -2081490.472615 kJ/mol
# GULP energy per Si atom -12389.824242 kJ/mol
# Density = 1.625706 g / cm^3
# Si number density = 16.294148 Si / 1000 Ang^3
#
#
#
# Elastic Constant Matrix: (Units=GPa)
#
#
# Indices 1 2 3 4 5 6 
#
# 1 79.7251 41.8828 40.7905 0.0000 0.0000 0.0000
# 2 41.8828 79.7251 40.7905 0.0000 0.0000 0.0000
# 3 40.7905 40.7905 119.7383 0.0000 0.0000 0.0000
# 4 0.0000 0.0000 0.0000 6.5830 0.0000 0.0000
# 5 0.0000 0.0000 0.0000 0.0000 6.5830 0.0000
# 6 0.0000 0.0000 0.0000 0.0000 0.0000 18.9212
#
#
#
# Elastic Compliance Matrix: (Units=1/GPa)
#
#
# Indices 1 2 3 4 5 6 
#
# 1 0.018542 -0.007883 -0.003631 0.000000 0.000000 0.000000
# 2 -0.007883 0.018542 -0.003631 0.000000 0.000000 0.000000
# 3 -0.003631 -0.003631 0.010826 0.000000 0.000000 0.000000
# 4 0.000000 0.000000 0.000000 0.151905 0.000000 0.000000
# 5 0.000000 0.000000 0.000000 0.000000 0.151905 0.000000
# 6 0.000000 0.000000 0.000000 0.000000 0.000000 0.052851
#
#
# Mechanical properties :
#
#
# Convention : Reuss Voigt Hill
#
# Bulk Modulus (GPa) = 56.75652 58.45733 57.60692
# Shear Modulus (GPa) = 11.34467 16.79912 14.07189
#
# Velocity S-wave (km/s) = 2.64150 3.21439 2.94192
# Velocity P-wave (km/s) = 6.64917 7.05199 6.85354
#
# Compressibility (1/GPa) = 0.01761912
#
# Stress axis : x y z
#
# Youngs Moduli (GPa) = 53.93083 53.93083 92.37395
#
# Poissons Ratio (x) = 0.42514 0.33543
# Poissons Ratio (y) = 0.42514 0.33543
# Poissons Ratio (z) = 0.19583 0.19583
#
# Static dielectric constant tensor:
#      x y z
#    x 2.892630 0.000000 0.000000 
#    y 0.000000 2.892630 0.000000 
#    z 0.000000 0.000000 3.444870 
# 
# 
# High freq. dielectric constant tensor:
#      x y z
#    x 1.597620 0.000000 0.000000 
#    y 0.000000 1.597620 0.000000 
#    z 0.000000 0.000000 1.643910 
# 
# From -- ./inp_files/3508.got.cif
#   From: 2010.03.12/outbox.cif.g09.slc.cpg/sg192_2_cif.got.tgz:3508.got - 2010.04.01 12:16:15.
