data_PCOD8329173
_publ_section_title
;
Structure prediction by ZEFSAII (Michael W. Deem and Ramdas Pophale) SiO2 
 PCOD8329173
Probable space group: P 6/M M M
;
_chemical_formula_sum "Si O2"
_cell_formula_units_Z 120
_cell_length_a 18.002398
_cell_length_b 18.002398
_cell_length_c 27.321731
_cell_angle_alpha 90.000000
_cell_angle_beta 90.000000
_cell_angle_gamma 120.000000
_cell_volume 7668.308221
_symmetry_space_group_name_H-M "P 6/M M M"
_symmetry_group_IT_number 191
_symmetry_cell_setting 'hexagonal'
loop_
_space_group_symop_operation_xyz
x,y,z
x-y,x,z
-y,x-y,z
-x,-y,z
-x+y,-x,z
y,-x+y,z
x-y,-y,-z
-x,-x+y,-z
y,x,-z
-y,-x,-z
-x+y,y,-z
x,x-y,-z
-x,-y,-z
-x+y,-x,-z
y,-x+y,-z
x,y,-z
x-y,x,-z
-y,x-y,-z
-x+y,y,z
x,x-y,z
-y,-x,z
y,x,z
x-y,-y,z
-x,-x+y,z
loop_
_atom_site_type_symbol
_atom_site_label
_atom_site_fract_x
_atom_site_fract_y
_atom_site_fract_z
Si Si1 0.265460 0.361083 0.310026
Si Si2 0.494678 0.159809 0.605948
Si Si3 0.411654 0.000000 0.055205
Si Si4 0.497295 0.164045 0.771903
Si Si5 0.499545 0.665591 0.500000
Si Si6 0.332972 0.838307 0.884183
O O1 0.163984 0.327968 0.311301
O O2 0.279003 0.279003 0.310025
O O3 0.313110 0.418250 0.357069
O O4 0.309067 0.415652 0.261472
O O5 0.579270 0.158539 0.623865
O O6 0.517020 0.258510 0.604453
O O7 0.465161 0.115364 0.551608
O O8 0.340304 0.915638 0.082934
O O9 0.500000 0.000000 0.056148
O O10 0.380639 0.000000 0.000000
O O11 0.574654 0.149307 0.755869
O O12 0.528855 0.264427 0.765002
O O13 0.470077 0.135806 0.827730
O O14 0.396507 0.603494 0.500000
O O15 0.526230 0.763115 0.500000
O O16 0.409501 0.819001 0.894686
O O17 0.245348 0.754652 0.899003
#
# Coordination Sequence:
#
# PCOD8329173 Si02
#       6
#    24  24  12  24  12  24
#     4  10  21  34  47  64  86 112 142 178 223 270
#     4   9  16  26  41  63  91 124 157 186 212 244
#     4   9  18  30  42  60  86 114 147 188 230 262
#     4   9  17  28  44  66  92 121 150 178 206 243
#     4   8  13  22  37  57  84 119 158 190 213 238
#     4   9  17  29  45  64  87 118 154 188 220 257
#
# _framework density 15.648823
#
# number of rings (size 3 to 8) (size 9 to 14) (size 15 to 20)
#    0.000    2.900    0.000    1.300    1.400    5.200 
#    0.000    2.500    0.000    3.200    0.000    0.000 
#    0.000    0.000    0.000    0.300    0.000   13.100 
#
# Total GULP energy -1487253.993837 kJ/mol
# GULP energy per Si atom -12393.783282 kJ/mol
# Density = 1.561321 g / cm^3
# Si number density = 15.648823 Si / 1000 Ang^3
#
#
#
# Elastic Constant Matrix: (Units=GPa)
#
#
# Indices 1 2 3 4 5 6 
#
# 1 78.3626 50.2587 44.1236 0.0000 0.0000 0.0000
# 2 50.2587 78.3626 44.1236 0.0000 0.0000 0.0000
# 3 44.1236 44.1236 101.4558 0.0000 0.0000 0.0000
# 4 0.0000 0.0000 0.0000 15.9844 0.0000 0.0000
# 5 0.0000 0.0000 0.0000 0.0000 15.9844 0.0000
# 6 0.0000 0.0000 0.0000 0.0000 0.0000 14.0520
#
#
#
# Elastic Compliance Matrix: (Units=1/GPa)
#
#
# Indices 1 2 3 4 5 6 
#
# 1 0.023332 -0.012250 -0.004819 0.000000 0.000000 0.000000
# 2 -0.012250 0.023332 -0.004819 0.000000 0.000000 0.000000
# 3 -0.004819 -0.004819 0.014048 0.000000 0.000000 0.000000
# 4 0.000000 0.000000 0.000000 0.062561 0.000000 0.000000
# 5 0.000000 0.000000 0.000000 0.000000 0.062561 0.000000
# 6 0.000000 0.000000 0.000000 0.000000 0.000000 0.071164
#
#
# Mechanical properties :
#
#
# Convention : Reuss Voigt Hill
#
# Bulk Modulus (GPa) = 59.05369 59.46589 59.25979
# Shear Modulus (GPa) = 16.31742 17.18250 16.74996
#
# Velocity S-wave (km/s) = 3.23263 3.31721 3.27519
# Velocity P-wave (km/s) = 7.19388 7.26324 7.22864
#
# Compressibility (1/GPa) = 0.01693374
#
# Stress axis : x y z
#
# Youngs Moduli (GPa) = 42.86007 42.86007 71.18254
#
# Poissons Ratio (x) = 0.52505 0.34305
# Poissons Ratio (y) = 0.52505 0.34305
# Poissons Ratio (z) = 0.20656 0.20656
#
# Static dielectric constant tensor:
#      x y z
#    x 2.703370 0.000000 0.000000 
#    y 0.000000 2.703370 0.000000 
#    z 0.000000 0.000000 3.327700 
# 
# 
# High freq. dielectric constant tensor:
#      x y z
#    x 1.566240 0.000000 0.000000 
#    y 0.000000 1.566240 0.000000 
#    z 0.000000 0.000000 1.619330 
# 
# From -- ./inp_files/9567.got.cif
#   From: 2010.03.12/outbox.cif.g09.slc.cpg/sg191_5_cif.got.tgz:9567.got - 2010.04.01 12:09:02.
