data_PCOD8329629
_publ_section_title
;
Structure prediction by ZEFSAII (Michael W. Deem and Ramdas Pophale) SiO2 
 PCOD8329629
Probable space group: P 6/M C C
;
_chemical_formula_sum "Si O2"
_cell_formula_units_Z 168
_cell_length_a 17.887537
_cell_length_b 17.887537
_cell_length_c 33.234277
_cell_angle_alpha 90.000000
_cell_angle_beta 90.000000
_cell_angle_gamma 120.000000
_cell_volume 9209.116291
_symmetry_space_group_name_H-M "P 6/M C C"
_symmetry_group_IT_number 192
_symmetry_cell_setting 'hexagonal'
loop_
_space_group_symop_operation_xyz
x,y,z
x-y,x,z
-y,x-y,z
-x,-y,z
-x+y,-x,z
y,-x+y,z
x-y,-y,1/2-z
-x,-x+y,1/2-z
y,x,1/2-z
-y,-x,1/2-z
-x+y,y,1/2-z
x,x-y,1/2-z
-x,-y,-z
-x+y,-x,-z
y,-x+y,-z
x,y,-z
x-y,x,-z
-y,x-y,-z
-x+y,y,1/2+z
x,x-y,1/2+z
-y,-x,1/2+z
y,x,1/2+z
x-y,-y,1/2+z
-x,-x+y,1/2+z
loop_
_atom_site_type_symbol
_atom_site_label
_atom_site_fract_x
_atom_site_fract_y
_atom_site_fract_z
Si Si1 0.666708 0.503806 0.182110
Si Si2 0.666703 0.507113 0.589964
Si Si3 0.639654 0.904621 0.750000
Si Si4 1.000000 0.339082 0.952329
Si Si5 0.840410 0.333297 0.089964
Si Si6 0.830735 0.830735 0.952089
Si Si7 0.837098 0.333292 0.682110
O O1 0.689571 0.584263 0.210424
O O2 0.665740 0.532359 0.136396
O O3 0.574456 0.425544 0.195133
O O4 0.736167 0.472334 0.187367
O O5 0.660761 0.576390 0.562471
O O6 0.586867 0.413133 0.580588
O O7 0.752934 0.505869 0.578749
O O8 0.665740 0.532359 0.636396
O O9 0.673711 0.836856 0.750000
O O10 0.584263 0.894692 0.710424
O O11 0.722617 0.000000 0.750000
O O12 0.915629 0.339239 0.937529
O O13 0.000000 0.254084 0.935943
O O14 0.000000 0.339861 0.000000
O O15 0.830421 0.915210 0.935339
O O16 0.832075 0.832075 0.000000
#
# Coordination Sequence:
#
# PCOD8329629 Si02
#       7
#    24  24  24  24  24  24  24
#     4   9  18  32  52  79 111 145 177 210 251 304
#     4  10  21  37  56  77 105 142 184 225 268 321
#     4  10  21  35  53  80 111 143 178 216 261 309
#     4  11  23  37  53  76 105 137 175 227 285 332
#     4  10  21  37  56  77 105 142 184 225 268 321
#     4   9  17  31  53  79 104 129 159 200 256 324
#     4   9  18  32  52  79 111 145 177 210 251 304
#
# _framework density 18.242792999999999
#
# number of rings (size 3 to 8) (size 9 to 14) (size 15 to 20)
#    0.000    2.286    0.000    2.429    2.000    6.857 
#    0.000    1.429    0.000    1.857    0.000    0.000 
#    0.000    0.000    0.000    0.000    0.000    0.000 
#
# Total GULP energy -2083591.065465 kJ/mol
# GULP energy per Si atom -12402.327771 kJ/mol
# Density = 1.820127 g / cm^3
# Si number density = 18.242793 Si / 1000 Ang^3
#
#
#
# Elastic Constant Matrix: (Units=GPa)
#
#
# Indices 1 2 3 4 5 6 
#
# 1 134.1799 73.8095 48.2664 0.0000 0.0000 0.0000
# 2 73.8095 134.1799 48.2664 0.0000 0.0000 0.0000
# 3 48.2664 48.2664 66.1045 0.0000 0.0000 0.0000
# 4 0.0000 0.0000 0.0000 22.6863 0.0000 0.0000
# 5 0.0000 0.0000 0.0000 0.0000 22.6863 0.0000
# 6 0.0000 0.0000 0.0000 0.0000 0.0000 30.1852
#
#
#
# Elastic Compliance Matrix: (Units=1/GPa)
#
#
# Indices 1 2 3 4 5 6 
#
# 1 0.011918 -0.004646 -0.005310 0.000000 0.000000 0.000000
# 2 -0.004646 0.011918 -0.005310 0.000000 0.000000 0.000000
# 3 -0.005310 -0.005310 0.022882 0.000000 0.000000 0.000000
# 4 0.000000 0.000000 0.000000 0.044079 0.000000 0.000000
# 5 0.000000 0.000000 0.000000 0.000000 0.044079 0.000000
# 6 0.000000 0.000000 0.000000 0.000000 0.000000 0.033129
#
#
# Mechanical properties :
#
#
# Convention : Reuss Voigt Hill
#
# Bulk Modulus (GPa) = 61.77917 75.01653 68.39785
# Shear Modulus (GPa) = 24.51776 26.05303 25.28539
#
# Velocity S-wave (km/s) = 3.67000 3.78316 3.72701
# Velocity P-wave (km/s) = 7.20396 7.76489 7.48968
#
# Compressibility (1/GPa) = 0.01618669
#
# Stress axis : x y z
#
# Youngs Moduli (GPa) = 83.90377 83.90377 43.70293
#
# Poissons Ratio (x) = 0.38982 0.23206
# Poissons Ratio (y) = 0.38982 0.23206
# Poissons Ratio (z) = 0.44553 0.44553
#
# Static dielectric constant tensor:
#      x y z
#    x 3.373250 0.000000 0.000000 
#    y 0.000000 3.373250 0.000000 
#    z 0.000000 0.000000 3.327460 
# 
# 
# High freq. dielectric constant tensor:
#      x y z
#    x 1.707600 0.000000 0.000000 
#    y 0.000000 1.707600 0.000000 
#    z 0.000000 0.000000 1.693680 
# 
# From -- ./inp_files/7195.got.cif
#   From: 2010.03.12/outbox.cif.g09.slc.cpg/sg192_4_cif.got.tgz:7195.got - 2010.04.01 12:16:15.
