data_PCOD8329919
_publ_section_title
;
Structure prediction by ZEFSAII (Michael W. Deem and Ramdas Pophale) SiO2 
 PCOD8329919
Probable space group: P 63/M C M
;
_chemical_formula_sum "Si O2"
_cell_formula_units_Z 192
_cell_length_a 22.720239
_cell_length_b 22.720239
_cell_length_c 25.379585
_cell_angle_alpha 90.000000
_cell_angle_beta 90.000000
_cell_angle_gamma 120.000000
_cell_volume 11345.951926
_symmetry_space_group_name_H-M "P 63/M C M"
_symmetry_group_IT_number 193
_symmetry_cell_setting 'hexagonal'
loop_
_space_group_symop_operation_xyz
x,y,z
x-y,x,1/2+z
-y,x-y,z
-x,-y,1/2+z
-x+y,-x,z
y,-x+y,1/2+z
x-y,-y,1/2-z
-x,-x+y,1/2-z
y,x,1/2-z
-y,-x,-z
-x+y,y,-z
x,x-y,-z
-x,-y,-z
-x+y,-x,1/2-z
y,-x+y,-z
x,y,1/2-z
x-y,x,-z
-y,x-y,1/2-z
-x+y,y,1/2+z
x,x-y,1/2+z
-y,-x,1/2+z
y,x,z
x-y,-y,z
-x,-x+y,z
loop_
_atom_site_type_symbol
_atom_site_label
_atom_site_fract_x
_atom_site_fract_y
_atom_site_fract_z
Si Si1 0.078986 0.472237 0.393144
Si Si2 0.146093 0.719490 0.810746
Si Si3 0.804981 0.728351 0.311924
Si Si4 0.854781 0.279079 0.689522
Si Si5 0.279792 0.077158 0.520929
Si Si6 0.921000 0.389464 0.895278
Si Si7 0.923051 0.722815 0.356173
Si Si8 0.588723 0.920337 0.501969
O O1 0.124241 0.471818 0.344773
O O2 0.089033 0.546316 0.398661
O O3 0.108642 0.457753 0.446373
O O4 0.000000 0.416510 0.383737
O O5 0.132911 0.696916 0.750000
O O6 0.099692 0.751298 0.828479
O O7 0.224840 0.775402 0.820406
O O8 0.818128 0.732203 0.250000
O O9 0.776372 0.776372 0.330756
O O10 0.876437 0.755179 0.341368
O O11 0.866850 0.302893 0.750000
O O12 0.877177 0.344715 0.653796
O O13 0.900565 0.245246 0.677261
O O14 0.253530 0.126765 0.500000
O O15 0.295521 0.085109 0.582604
O O16 0.351031 0.097135 0.492977
O O17 0.222285 0.000000 0.507080
O O18 0.890464 0.345186 0.948525
O O19 0.000000 0.411669 0.886872
O O20 0.000000 0.777756 0.341697
O O21 0.617318 0.000000 0.499360
#
# Coordination Sequence:
#
# PCOD8329919 Si02
#       8
#    24  24  24  24  24  24  24  24
#     4  10  20  31  51  77 102 136 167 198 252 307
#     4   9  19  34  49  71 102 133 172 215 249 292
#     4   9  18  31  48  71  99 132 169 212 260 306
#     4  10  20  33  50  71  99 136 172 209 254 299
#     4  10  21  34  51  77 107 136 171 216 260 301
#     4  10  19  33  50  74 106 132 161 205 250 302
#     4  10  19  32  49  72 101 131 166 211 259 309
#     4   9  18  32  48  72 104 134 164 200 245 299
#
# _framework density 16.922335
#
# number of rings (size 3 to 8) (size 9 to 14) (size 15 to 20)
#    0.000    2.375    1.250    2.250    3.500    5.000 
#    0.000    1.250    0.000    0.875    0.000    0.000 
#    0.000    0.000    0.000    0.000    0.000    0.000 
#
# Total GULP energy -2381050.680995 kJ/mol
# GULP energy per Si atom -12401.305630 kJ/mol
# Density = 1.688382 g / cm^3
# Si number density = 16.922335 Si / 1000 Ang^3
#
#
#
# Elastic Constant Matrix: (Units=GPa)
#
#
# Indices 1 2 3 4 5 6 
#
# 1 75.5113 37.0709 39.5042 0.0000 0.0000 0.0000
# 2 37.0709 75.5113 39.5042 0.0000 0.0000 0.0000
# 3 39.5042 39.5042 91.7667 0.0000 0.0000 0.0000
# 4 0.0000 0.0000 0.0000 28.3242 0.0000 0.0000
# 5 0.0000 0.0000 0.0000 0.0000 28.3242 0.0000
# 6 0.0000 0.0000 0.0000 0.0000 0.0000 19.2202
#
#
#
# Elastic Compliance Matrix: (Units=1/GPa)
#
#
# Indices 1 2 3 4 5 6 
#
# 1 0.019371 -0.006643 -0.005479 0.000000 0.000000 0.000000
# 2 -0.006643 0.019371 -0.005479 0.000000 0.000000 0.000000
# 3 -0.005479 -0.005479 0.015614 0.000000 0.000000 0.000000
# 4 0.000000 0.000000 0.000000 0.035305 0.000000 0.000000
# 5 0.000000 0.000000 0.000000 0.000000 0.035305 0.000000
# 6 0.000000 0.000000 0.000000 0.000000 0.000000 0.052029
#
#
# Mechanical properties :
#
#
# Convention : Reuss Voigt Hill
#
# Bulk Modulus (GPa) = 52.20995 52.77197 52.49096
# Shear Modulus (GPa) = 22.87461 23.62107 23.24784
#
# Velocity S-wave (km/s) = 3.68059 3.74016 3.71050
# Velocity P-wave (km/s) = 6.99871 7.06430 7.03158
#
# Compressibility (1/GPa) = 0.01915344
#
# Stress axis : x y z
#
# Youngs Moduli (GPa) = 51.62387 51.62387 64.04329
#
# Poissons Ratio (x) = 0.34296 0.35089
# Poissons Ratio (y) = 0.34296 0.35089
# Poissons Ratio (z) = 0.28285 0.28285
#
# Static dielectric constant tensor:
#      x y z
#    x 3.034190 0.000000 0.000000 
#    y 0.000000 3.034190 0.000000 
#    z 0.000000 0.000000 3.276730 
# 
# 
# High freq. dielectric constant tensor:
#      x y z
#    x 1.631910 0.000000 0.000000 
#    y 0.000000 1.631910 0.000000 
#    z 0.000000 0.000000 1.664980 
# 
# From -- ./inp_files/7879.got.cif
#   From: 2010.03.12/outbox.cif.g09.slc.cpg/sg193_4_cif.got.tgz:7879.got - 2010.04.01 12:20:39.
