data_PCOD8329572
_publ_section_title
;
Structure prediction by ZEFSAII (Michael W. Deem and Ramdas Pophale) SiO2 
 PCOD8329572
Probable space group: P 6/M C C
;
_chemical_formula_sum "Si O2"
_cell_formula_units_Z 104
_cell_length_a 19.613442
_cell_length_b 19.613442
_cell_length_c 15.258266
_cell_angle_alpha 90.000000
_cell_angle_beta 90.000000
_cell_angle_gamma 120.000000
_cell_volume 5083.273119
_symmetry_space_group_name_H-M "P 6/M C C"
_symmetry_group_IT_number 192
_symmetry_cell_setting 'hexagonal'
loop_
_space_group_symop_operation_xyz
x,y,z
x-y,x,z
-y,x-y,z
-x,-y,z
-x+y,-x,z
y,-x+y,z
x-y,-y,1/2-z
-x,-x+y,1/2-z
y,x,1/2-z
-y,-x,1/2-z
-x+y,y,1/2-z
x,x-y,1/2-z
-x,-y,-z
-x+y,-x,-z
y,-x+y,-z
x,y,-z
x-y,x,-z
-y,x-y,-z
-x+y,y,1/2+z
x,x-y,1/2+z
-y,-x,1/2+z
y,x,1/2+z
x-y,-y,1/2+z
-x,-x+y,1/2+z
loop_
_atom_site_type_symbol
_atom_site_label
_atom_site_fract_x
_atom_site_fract_y
_atom_site_fract_z
Si Si1 0.214891 0.718453 0.344695
Si Si2 0.709099 0.711769 0.396016
Si Si3 0.051424 0.589788 0.603488
Si Si4 0.838249 0.166320 0.599333
Si Si5 0.666668 0.333334 0.355054
O O1 0.243145 0.756856 0.250000
O O2 0.133466 0.634440 0.342870
O O3 0.203164 0.780526 0.401573
O O4 0.280874 0.703456 0.389491
O O5 0.717803 0.720411 0.500000
O O6 0.630437 0.630643 0.373202
O O7 0.701194 0.783288 0.353327
O O8 0.785504 0.710447 0.356205
O O9 0.070696 0.595256 0.500000
O O10 0.000000 0.500000 0.635427
O O11 0.848672 0.148209 0.500000
O O12 0.666668 0.333334 0.250000
#
# Coordination Sequence:
#
# PCOD8329572 Si02
#       5
#    24  24  24  24   8
#     4  10  20  35  52  71 102 141 177 218 262 328
#     4   8  15  28  49  73  98 128 162 209 262 313
#     4   9  18  33  53  78 104 131 174 229 275 316
#     4   9  17  32  52  74 100 130 169 215 265 316
#     4   9  21  36  49  62 103 141 169 206 268 315
#
# _framework density 20.459258999999999
#
# number of rings (size 3 to 8) (size 9 to 14) (size 15 to 20)
#    0.000    3.000    0.000    2.077    3.231    0.000 
#    0.000    8.077    0.000    0.462    0.000    3.231 
#    0.000    0.000    0.000    8.308    0.000    9.231 
#
# Total GULP energy -1288656.353046 kJ/mol
# GULP energy per Si atom -12390.926472 kJ/mol
# Density = 2.041269 g / cm^3
# Si number density = 20.459259 Si / 1000 Ang^3
#
#
#
# Elastic Constant Matrix: (Units=GPa)
#
#
# Indices 1 2 3 4 5 6 
#
# 1 176.1292 101.4082 8.4846 0.0000 0.0000 0.0001
# 2 101.4082 176.1304 8.4845 0.0000 0.0000 0.0000
# 3 8.4846 8.4845 26.1994 0.0001 0.0000 0.0000
# 4 0.0000 0.0000 0.0001 14.8804 0.0000 0.0000
# 5 0.0000 0.0000 0.0000 0.0000 14.8804 0.0000
# 6 0.0001 0.0000 0.0000 0.0000 0.0000 37.3605
#
#
#
# Elastic Compliance Matrix: (Units=1/GPa)
#
#
# Indices 1 2 3 4 5 6 
#
# 1 0.008529 -0.004854 -0.001190 0.000000 0.000000 0.000000
# 2 -0.004854 0.008529 -0.001190 0.000000 0.000000 0.000000
# 3 -0.001190 -0.001190 0.038940 0.000000 0.000000 0.000000
# 4 0.000000 0.000000 0.000000 0.067203 0.000000 0.000000
# 5 0.000000 0.000000 0.000000 0.000000 0.067203 0.000000
# 6 0.000000 0.000000 0.000000 0.000000 0.000000 0.026766
#
#
# Mechanical properties :
#
#
# Convention : Reuss Voigt Hill
#
# Bulk Modulus (GPa) = 24.07898 68.35708 46.21803
# Shear Modulus (GPa) = 20.36806 30.76302 25.56554
#
# Velocity S-wave (km/s) = 3.15864 3.88187 3.53878
# Velocity P-wave (km/s) = 5.00974 7.31954 6.27189
#
# Compressibility (1/GPa) = 0.04152999
#
# Stress axis : x y z
#
# Youngs Moduli (GPa) = 117.24038 117.24120 25.68059
#
# Poissons Ratio (x) = 0.56904 0.03057
# Poissons Ratio (y) = 0.56903 0.03057
# Poissons Ratio (z) = 0.13957 0.13956
#
# Static dielectric constant tensor:
#      x y z
#    x 4.079030 0.000000 0.000000 
#    y 0.000000 4.079030 0.000000 
#    z 0.000000 0.000000 3.221510 
# 
# 
# High freq. dielectric constant tensor:
#      x y z
#    x 1.797690 0.000000 0.000000 
#    y 0.000000 1.797690 0.000000 
#    z 0.000000 0.000000 1.761630 
# 
# From -- ./inp_files/2868.got.cif
#   From: 2010.03.12/outbox.cif.g09.slc.cpg/sg192_2_cif.got.tgz:2868.got - 2010.04.01 12:16:15.
