data_PCOD8329087
_publ_section_title
;
Structure prediction by ZEFSAII (Michael W. Deem and Ramdas Pophale) SiO2 
 PCOD8329087
Probable space group: P 6/M M M
;
_chemical_formula_sum "Si O2"
_cell_formula_units_Z 96
_cell_length_a 17.857616
_cell_length_b 17.857616
_cell_length_c 22.213113
_cell_angle_alpha 90.000000
_cell_angle_beta 90.000000
_cell_angle_gamma 120.000000
_cell_volume 6134.610836
_symmetry_space_group_name_H-M "P 6/M M M"
_symmetry_group_IT_number 191
_symmetry_cell_setting 'hexagonal'
loop_
_space_group_symop_operation_xyz
x,y,z
x-y,x,z
-y,x-y,z
-x,-y,z
-x+y,-x,z
y,-x+y,z
x-y,-y,-z
-x,-x+y,-z
y,x,-z
-y,-x,-z
-x+y,y,-z
x,x-y,-z
-x,-y,-z
-x+y,-x,-z
y,-x+y,-z
x,y,-z
x-y,x,-z
-y,x-y,-z
-x+y,y,z
x,x-y,z
-y,-x,z
y,x,z
x-y,-y,z
-x,-x+y,z
loop_
_atom_site_type_symbol
_atom_site_label
_atom_site_fract_x
_atom_site_fract_y
_atom_site_fract_z
Si Si1 0.499316 0.165891 0.428848
Si Si2 0.588206 0.588206 0.252619
Si Si3 0.448827 0.897654 0.932744
Si Si4 0.663939 0.663939 0.379625
Si Si5 0.175059 0.175059 0.569576
Si Si6 0.836658 0.500670 0.174186
O O1 0.507036 0.172822 0.500000
O O2 0.579038 0.158076 0.401534
O O3 0.503263 0.251632 0.401835
O O4 0.410028 0.083817 0.411842
O O5 0.500000 0.500000 0.269337
O O6 0.640832 0.640832 0.310403
O O7 0.568460 0.652100 0.214053
O O8 0.506771 0.865940 0.895999
O O9 0.500000 0.000000 0.935238
O O10 0.428980 0.857959 0.000000
O O11 0.753295 0.753295 0.386739
O O12 0.083529 0.167057 0.583943
O O13 0.201699 0.201699 0.500000
O O14 0.761769 0.523537 0.180686
O O15 0.805710 0.402855 0.197244
#
# Coordination Sequence:
#
# PCOD8329087 Si02
#       6
#    24  12  12  12  12  24
#     4  10  20  34  50  70  96 124 154 197 255 307
#     4  10  20  36  47  62  94 134 170 196 240 289
#     4   9  16  30  50  72 102 132 156 194 244 288
#     4  12  22  32  52  74  95 122 166 211 236 282
#     4  10  21  38  58  79 102 123 147 188 251 317
#     4   9  17  31  47  68  95 126 162 202 238 277
#
# _framework density 15.648915000000001
#
# number of rings (size 3 to 8) (size 9 to 14) (size 15 to 20)
#    0.750    1.375    1.250    3.625    0.000    7.000 
#    0.000    0.000    0.000    3.000    0.000    0.000 
#    0.000    0.000    0.000    0.000    0.000    0.000 
#
# Total GULP energy -1189913.374837 kJ/mol
# GULP energy per Si atom -12394.930988 kJ/mol
# Density = 1.561330 g / cm^3
# Si number density = 15.648915 Si / 1000 Ang^3
#
#
#
# Elastic Constant Matrix: (Units=GPa)
#
#
# Indices 1 2 3 4 5 6 
#
# 1 120.4581 58.3860 38.5826 0.0000 0.0000 0.0000
# 2 58.3860 120.4581 38.5826 0.0000 0.0000 0.0000
# 3 38.5826 38.5826 71.4151 0.0000 0.0000 0.0000
# 4 0.0000 0.0000 0.0000 13.6287 0.0000 0.0000
# 5 0.0000 0.0000 0.0000 0.0000 13.6287 0.0000
# 6 0.0000 0.0000 0.0000 0.0000 0.0000 31.0361
#
#
#
# Elastic Compliance Matrix: (Units=1/GPa)
#
#
# Indices 1 2 3 4 5 6 
#
# 1 0.011701 -0.004410 -0.003939 0.000000 0.000000 0.000000
# 2 -0.004410 0.011701 -0.003939 0.000000 0.000000 0.000000
# 3 -0.003939 -0.003939 0.018259 0.000000 0.000000 0.000000
# 4 0.000000 0.000000 0.000000 0.073375 0.000000 0.000000
# 5 0.000000 0.000000 0.000000 0.000000 0.073375 0.000000
# 6 0.000000 0.000000 0.000000 0.000000 0.000000 0.032221
#
#
# Mechanical properties :
#
#
# Convention : Reuss Voigt Hill
#
# Bulk Modulus (GPa) = 58.53180 64.82598 61.67889
# Shear Modulus (GPa) = 19.92822 23.44403 21.68612
#
# Velocity S-wave (km/s) = 3.57242 3.87476 3.72666
# Velocity P-wave (km/s) = 7.38245 7.84433 7.61689
#
# Compressibility (1/GPa) = 0.01708473
#
# Stress axis : x y z
#
# Youngs Moduli (GPa) = 85.46529 85.46529 54.76797
#
# Poissons Ratio (x) = 0.37687 0.21573
# Poissons Ratio (y) = 0.37687 0.21573
# Poissons Ratio (z) = 0.33665 0.33665
#
# Static dielectric constant tensor:
#      x y z
#    x 2.963660 0.000000 0.000000 
#    y 0.000000 2.963660 0.000000 
#    z 0.000000 0.000000 2.971060 
# 
# 
# High freq. dielectric constant tensor:
#      x y z
#    x 1.597800 0.000000 0.000000 
#    y 0.000000 1.597800 0.000000 
#    z 0.000000 0.000000 1.582360 
# 
# From -- ./inp_files/8293.got.cif
#   From: 2010.03.12/outbox.cif.g09.slc.cpg/sg191_5_cif.got.tgz:8293.got - 2010.04.01 12:09:02.
