data_PCOD8329010
_publ_section_title
;
Structure prediction by ZEFSAII (Michael W. Deem and Ramdas Pophale) SiO2 
 PCOD8329010
Probable space group: P 6/M M M
;
_chemical_formula_sum "Si O2"
_cell_formula_units_Z 108
_cell_length_a 17.643245
_cell_length_b 17.643245
_cell_length_c 23.497485
_cell_angle_alpha 90.000000
_cell_angle_beta 90.000000
_cell_angle_gamma 120.000000
_cell_volume 6334.450439
_symmetry_space_group_name_H-M "P 6/M M M"
_symmetry_group_IT_number 191
_symmetry_cell_setting 'hexagonal'
loop_
_space_group_symop_operation_xyz
x,y,z
x-y,x,z
-y,x-y,z
-x,-y,z
-x+y,-x,z
y,-x+y,z
x-y,-y,-z
-x,-x+y,-z
y,x,-z
-y,-x,-z
-x+y,y,-z
x,x-y,-z
-x,-y,-z
-x+y,-x,-z
y,-x+y,-z
x,y,-z
x-y,x,-z
-y,x-y,-z
-x+y,y,z
x,x-y,z
-y,-x,z
y,x,z
x-y,-y,z
-x,-x+y,z
loop_
_atom_site_type_symbol
_atom_site_label
_atom_site_fract_x
_atom_site_fract_y
_atom_site_fract_z
Si Si1 0.160864 0.492073 0.438904
Si Si2 0.899648 0.630632 0.784733
Si Si3 0.371584 0.272424 0.000000
Si Si4 0.489046 0.157320 0.109495
Si Si5 0.533591 0.634293 0.320186
O O1 0.125400 0.440963 0.500000
O O2 0.263820 0.527640 0.433719
O O3 0.143286 0.571643 0.439513
O O4 0.113695 0.434831 0.382842
O O5 0.835178 0.670356 0.795733
O O6 0.893753 0.568191 0.835971
O O7 0.862772 0.570815 0.728122
O O8 0.000000 0.709672 0.778642
O O9 0.430964 0.318167 0.054424
O O10 0.289275 0.289275 0.000000
O O11 0.335473 0.167737 0.000000
O O12 0.573197 0.146393 0.107346
O O13 0.519560 0.259780 0.112263
O O14 0.427025 0.572976 0.317127
O O15 0.573205 0.573205 0.307362
#
# Coordination Sequence:
#
# PCOD8329010 Si02
#       5
#    24  24  12  24  24
#     4   9  16  25  37  53  75 105 141 178 212 246
#     4  10  20  33  49  68  90 117 149 186 228 272
#     4  10  21  35  51  72  97 127 162 200 241 281
#     4  10  20  33  50  73 101 131 160 189 222 262
#     4   9  17  28  42  61  84 110 141 176 215 262
#
# _framework density 17.049624000000001
#
# number of rings (size 3 to 8) (size 9 to 14) (size 15 to 20)
#    0.000    2.444    0.000    2.778    0.000    4.444 
#    0.000    3.333    0.000    7.444    0.000    0.000 
#    0.000    5.333    0.000    0.000    0.000    0.444 
#
# Total GULP energy -1338189.473393 kJ/mol
# GULP energy per Si atom -12390.643272 kJ/mol
# Density = 1.701082 g / cm^3
# Si number density = 17.049624 Si / 1000 Ang^3
#
#
#
# Elastic Constant Matrix: (Units=GPa)
#
#
# Indices 1 2 3 4 5 6 
#
# 1 72.8397 44.4677 31.6700 0.0000 0.0000 0.0000
# 2 44.4677 72.8397 31.6700 0.0000 0.0000 0.0000
# 3 31.6700 31.6700 144.5874 0.0000 0.0000 0.0000
# 4 0.0000 0.0000 0.0000 17.9346 0.0000 0.0000
# 5 0.0000 0.0000 0.0000 0.0000 17.9346 0.0000
# 6 0.0000 0.0000 0.0000 0.0000 0.0000 14.1860
#
#
#
# Elastic Compliance Matrix: (Units=1/GPa)
#
#
# Indices 1 2 3 4 5 6 
#
# 1 0.022457 -0.012789 -0.002118 0.000000 0.000000 0.000000
# 2 -0.012789 0.022457 -0.002118 0.000000 0.000000 0.000000
# 3 -0.002118 -0.002118 0.007844 0.000000 0.000000 0.000000
# 4 0.000000 0.000000 0.000000 0.055758 0.000000 0.000000
# 5 0.000000 0.000000 0.000000 0.000000 0.055758 0.000000
# 6 0.000000 0.000000 0.000000 0.000000 0.000000 0.070492
#
#
# Mechanical properties :
#
#
# Convention : Reuss Voigt Hill
#
# Bulk Modulus (GPa) = 53.44916 56.20912 54.82914
# Shear Modulus (GPa) = 18.17843 22.17499 20.17671
#
# Velocity S-wave (km/s) = 3.26882 3.61032 3.44381
# Velocity P-wave (km/s) = 6.75753 7.10061 6.93119
#
# Compressibility (1/GPa) = 0.01870937
#
# Stress axis : x y z
#
# Youngs Moduli (GPa) = 44.52948 44.52948 127.48720
#
# Poissons Ratio (x) = 0.56949 0.26997
# Poissons Ratio (y) = 0.56949 0.26997
# Poissons Ratio (z) = 0.09430 0.09430
#
# Static dielectric constant tensor:
#      x y z
#    x 2.979200 0.000000 0.000000 
#    y 0.000000 2.979200 0.000000 
#    z 0.000000 0.000000 3.753040 
# 
# 
# High freq. dielectric constant tensor:
#      x y z
#    x 1.626310 0.000000 0.000000 
#    y 0.000000 1.626310 0.000000 
#    z 0.000000 0.000000 1.690180 
# 
# From -- ./inp_files/7303.got.cif
#   From: 2010.03.12/outbox.cif.g09.slc.cpg/sg191_4_cif.got.tgz:7303.got - 2010.04.01 12:09:02.
