data_PCOD8329029
_publ_section_title
;
Structure prediction by ZEFSAII (Michael W. Deem and Ramdas Pophale) SiO2 
 PCOD8329029
Probable space group: P 6/M M M
;
_chemical_formula_sum "Si O2"
_cell_formula_units_Z 132
_cell_length_a 17.537664
_cell_length_b 17.537664
_cell_length_c 28.073326
_cell_angle_alpha 90.000000
_cell_angle_beta 90.000000
_cell_angle_gamma 120.000000
_cell_volume 7477.699201
_symmetry_space_group_name_H-M "P 6/M M M"
_symmetry_group_IT_number 191
_symmetry_cell_setting 'hexagonal'
loop_
_space_group_symop_operation_xyz
x,y,z
x-y,x,z
-y,x-y,z
-x,-y,z
-x+y,-x,z
y,-x+y,z
x-y,-y,-z
-x,-x+y,-z
y,x,-z
-y,-x,-z
-x+y,y,-z
x,x-y,-z
-x,-y,-z
-x+y,-x,-z
y,-x+y,-z
x,y,-z
x-y,x,-z
-y,x-y,-z
-x+y,y,z
x,x-y,z
-y,-x,z
y,x,z
x-y,-y,z
-x,-x+y,z
loop_
_atom_site_type_symbol
_atom_site_label
_atom_site_fract_x
_atom_site_fract_y
_atom_site_fract_z
Si Si1 0.841985 0.332438 0.639503
Si Si2 0.900455 0.269290 0.727437
Si Si3 0.100501 0.728921 0.090730
Si Si4 0.155568 0.487635 0.000000
Si Si5 0.268904 0.901509 0.554159
Si Si6 0.467391 0.103794 0.182339
O O1 0.856409 0.428205 0.648042
O O2 0.738988 0.261013 0.643764
O O3 0.897854 0.315139 0.678689
O O4 0.879020 0.329107 0.587618
O O5 0.836212 0.163789 0.724523
O O6 0.865910 0.305903 0.769872
O O7 0.000000 0.289880 0.736315
O O8 0.165799 0.834202 0.084140
O O9 0.106006 0.675771 0.045921
O O10 0.134033 0.699128 0.136547
O O11 0.000000 0.708398 0.096436
O O12 0.257936 0.515872 0.000000
O O13 0.146631 0.573316 0.000000
O O14 0.293010 0.891369 0.500000
O O15 0.165627 0.834373 0.564894
O O16 0.287488 0.000000 0.563866
O O17 0.573573 0.147146 0.181056
O O18 0.424178 0.000000 0.181958
#
# Coordination Sequence:
#
# PCOD8329029 Si02
#       6
#    24  24  24  12  24  24
#     4  10  20  33  49  70  96 125 156 191 232 277
#     4  10  20  33  50  72  97 126 160 198 239 281
#     4  10  20  33  50  72  97 127 163 202 242 283
#     4  10  20  33  50  73 100 128 157 192 236 285
#     4   9  18  32  49  69  93 122 156 193 233 276
#     4   9  17  30  49  72  96 122 154 191 230 276
#
# _framework density 17.652488999999999
#
# number of rings (size 3 to 8) (size 9 to 14) (size 15 to 20)
#    0.000    2.364    0.000    2.727    0.000    4.000 
#    0.000    0.909    0.000    6.727    0.000    1.273 
#    0.000   10.909    0.000    0.182    0.000    1.455 
#
# Total GULP energy -1636689.464058 kJ/mol
# GULP energy per Si atom -12399.162607 kJ/mol
# Density = 1.761231 g / cm^3
# Si number density = 17.652489 Si / 1000 Ang^3
#
#
#
# Elastic Constant Matrix: (Units=GPa)
#
#
# Indices 1 2 3 4 5 6 
#
# 1 91.1425 60.9828 29.2660 0.0000 0.0000 0.0000
# 2 60.9828 91.1425 29.2660 0.0000 0.0000 0.0000
# 3 29.2660 29.2660 107.0015 0.0000 0.0000 0.0000
# 4 0.0000 0.0000 0.0000 20.8756 0.0000 0.0000
# 5 0.0000 0.0000 0.0000 0.0000 20.8756 0.0000
# 6 0.0000 0.0000 0.0000 0.0000 0.0000 15.0799
#
#
#
# Elastic Compliance Matrix: (Units=1/GPa)
#
#
# Indices 1 2 3 4 5 6 
#
# 1 0.020252 -0.012905 -0.002009 0.000000 0.000000 0.000000
# 2 -0.012905 0.020252 -0.002009 0.000000 0.000000 0.000000
# 3 -0.002009 -0.002009 0.010445 0.000000 0.000000 0.000000
# 4 0.000000 0.000000 0.000000 0.047903 0.000000 0.000000
# 5 0.000000 0.000000 0.000000 0.000000 0.047903 0.000000
# 6 0.000000 0.000000 0.000000 0.000000 0.000000 0.066314
#
#
# Mechanical properties :
#
#
# Convention : Reuss Voigt Hill
#
# Bulk Modulus (GPa) = 58.47740 58.70177 58.58958
# Shear Modulus (GPa) = 19.79293 22.68434 21.23864
#
# Velocity S-wave (km/s) = 3.35215 3.58865 3.47241
# Velocity P-wave (km/s) = 6.94128 7.10616 7.02421
#
# Compressibility (1/GPa) = 0.01710062
#
# Stress axis : x y z
#
# Youngs Moduli (GPa) = 49.37847 49.37847 95.74113
#
# Poissons Ratio (x) = 0.63723 0.19238
# Poissons Ratio (y) = 0.63723 0.19238
# Poissons Ratio (z) = 0.09922 0.09922
#
# Static dielectric constant tensor:
#      x y z
#    x 3.153080 0.000000 0.000000 
#    y 0.000000 3.153080 0.000000 
#    z 0.000000 0.000000 3.521890 
# 
# 
# High freq. dielectric constant tensor:
#      x y z
#    x 1.664610 0.000000 0.000000 
#    y 0.000000 1.664610 0.000000 
#    z 0.000000 0.000000 1.705200 
# 
# From -- ./inp_files/9805.got.cif
#   From: 2010.03.12/outbox.cif.g09.slc.cpg/sg191_5_cif.got.tgz:9805.got - 2010.04.01 12:09:02.
