data_PCOD8329893
_publ_section_title
;
Structure prediction by ZEFSAII (Michael W. Deem and Ramdas Pophale) SiO2 
 PCOD8329893
Probable space group: P 63/M C M
;
_chemical_formula_sum "Si O2"
_cell_formula_units_Z 144
_cell_length_a 32.245259
_cell_length_b 32.245259
_cell_length_c 8.934641
_cell_angle_alpha 90.000000
_cell_angle_beta 90.000000
_cell_angle_gamma 120.000000
_cell_volume 8045.248775
_symmetry_space_group_name_H-M "P 63/M C M"
_symmetry_group_IT_number 193
_symmetry_cell_setting 'hexagonal'
loop_
_space_group_symop_operation_xyz
x,y,z
x-y,x,1/2+z
-y,x-y,z
-x,-y,1/2+z
-x+y,-x,z
y,-x+y,1/2+z
x-y,-y,1/2-z
-x,-x+y,1/2-z
y,x,1/2-z
-y,-x,-z
-x+y,y,-z
x,x-y,-z
-x,-y,-z
-x+y,-x,1/2-z
y,-x+y,-z
x,y,1/2-z
x-y,x,-z
-y,x-y,1/2-z
-x+y,y,1/2+z
x,x-y,1/2+z
-y,-x,1/2+z
y,x,z
x-y,-y,z
-x,-x+y,z
loop_
_atom_site_type_symbol
_atom_site_label
_atom_site_fract_x
_atom_site_fract_y
_atom_site_fract_z
Si Si1 0.194419 0.477287 0.925800
Si Si2 0.945992 0.807350 0.573864
Si Si3 0.717041 0.618502 0.576534
Si Si4 0.697768 0.891353 0.574069
Si Si5 0.566355 0.946448 0.921376
Si Si6 0.854243 0.470959 0.573992
O O1 0.201931 0.487859 0.750000
O O2 0.152269 0.423490 0.958391
O O3 0.242328 0.484655 0.000000
O O4 0.182403 0.514938 0.001946
O O5 0.913081 0.826162 0.500000
O O6 0.943476 0.812154 0.750000
O O7 0.927687 0.752545 0.528093
O O8 0.000000 0.839630 0.514031
O O9 0.722108 0.631494 0.750000
O O10 0.752891 0.665879 0.485908
O O11 0.663605 0.602571 0.524882
O O12 0.679561 0.839781 0.500000
O O13 0.691252 0.883960 0.750000
O O14 0.576465 0.938703 0.750000
O O15 0.511560 0.908910 0.963170
O O16 0.575783 0.000000 0.948318
O O17 0.844032 0.422016 0.500000
O O18 0.844775 0.463603 0.750000
#
# Coordination Sequence:
#
# PCOD8329893 Si02
#       6
#    24  24  24  24  24  24
#     4  10  20  34  53  77 104 134 169 209 255 304
#     4   9  19  35  53  74  99 127 161 200 243 292
#     4  10  20  32  48  73 104 137 174 215 255 296
#     4  10  19  31  48  70  99 134 169 205 245 292
#     4   9  19  35  52  71  99 137 178 217 259 304
#     4  10  20  35  55  78 104 134 170 212 258 308
#
# _framework density 17.898762999999999
#
# number of rings (size 3 to 8) (size 9 to 14) (size 15 to 20)
#    0.000    2.333    0.000    2.500    0.000    6.333 
#    0.000    1.667    0.000    0.500    0.000    2.333 
#    0.000    0.000    0.000    0.000    0.000    0.000 
#
# Total GULP energy -1786052.680031 kJ/mol
# GULP energy per Si atom -12403.143611 kJ/mol
# Density = 1.785802 g / cm^3
# Si number density = 17.898763 Si / 1000 Ang^3
#
#
#
# Elastic Constant Matrix: (Units=GPa)
#
#
# Indices 1 2 3 4 5 6 
#
# 1 97.5333 56.3629 44.7725 0.0000 0.0000 0.0000
# 2 56.3629 97.5333 44.7725 0.0000 0.0000 0.0000
# 3 44.7725 44.7725 80.2198 0.0000 0.0000 0.0000
# 4 0.0000 0.0000 0.0000 29.8805 0.0000 0.0000
# 5 0.0000 0.0000 0.0000 0.0000 29.8805 0.0000
# 6 0.0000 0.0000 0.0000 0.0000 0.0000 20.5852
#
#
#
# Elastic Compliance Matrix: (Units=1/GPa)
#
#
# Indices 1 2 3 4 5 6 
#
# 1 0.016956 -0.007333 -0.005371 0.000000 0.000000 0.000000
# 2 -0.007333 0.016956 -0.005371 0.000000 0.000000 0.000000
# 3 -0.005371 -0.005371 0.018461 0.000000 0.000000 0.000000
# 4 0.000000 0.000000 0.000000 0.033467 0.000000 0.000000
# 5 0.000000 0.000000 0.000000 0.000000 0.033467 0.000000
# 6 0.000000 0.000000 0.000000 0.000000 0.000000 0.048579
#
#
# Mechanical properties :
#
#
# Convention : Reuss Voigt Hill
#
# Bulk Modulus (GPa) = 61.63865 63.01135 62.32500
# Shear Modulus (GPa) = 23.87297 24.69450 24.28373
#
# Velocity S-wave (km/s) = 3.65605 3.71843 3.68737
# Velocity P-wave (km/s) = 7.23426 7.32914 7.28185
#
# Compressibility (1/GPa) = 0.01622359
#
# Stress axis : x y z
#
# Youngs Moduli (GPa) = 58.97596 58.97596 54.16881
#
# Poissons Ratio (x) = 0.43248 0.29093
# Poissons Ratio (y) = 0.43248 0.29093
# Poissons Ratio (z) = 0.31674 0.31674
#
# Static dielectric constant tensor:
#      x y z
#    x 3.240000 0.000000 0.000000 
#    y 0.000000 3.240000 0.000000 
#    z 0.000000 0.000000 3.378840 
# 
# 
# High freq. dielectric constant tensor:
#      x y z
#    x 1.682540 0.000000 0.000000 
#    y 0.000000 1.682540 0.000000 
#    z 0.000000 0.000000 1.703630 
# 
# From -- ./inp_files/1505.got.cif
#   From: 2010.03.12/outbox.cif.g09.slc.cpg/sg193_1_cif.got.tgz:1505.got - 2010.04.01 12:20:39.
