data_PCOD8329875
_publ_section_title
;
Structure prediction by ZEFSAII (Michael W. Deem and Ramdas Pophale) SiO2 
 PCOD8329875
Probable space group: P 63/M C M
;
_chemical_formula_sum "Si O2"
_cell_formula_units_Z 128
_cell_length_a 21.684408
_cell_length_b 21.684408
_cell_length_c 17.789972
_cell_angle_alpha 90.000000
_cell_angle_beta 90.000000
_cell_angle_gamma 120.000000
_cell_volume 7244.376889
_symmetry_space_group_name_H-M "P 63/M C M"
_symmetry_group_IT_number 193
_symmetry_cell_setting 'hexagonal'
loop_
_space_group_symop_operation_xyz
x,y,z
x-y,x,1/2+z
-y,x-y,z
-x,-y,1/2+z
-x+y,-x,z
y,-x+y,1/2+z
x-y,-y,1/2-z
-x,-x+y,1/2-z
y,x,1/2-z
-y,-x,-z
-x+y,y,-z
x,x-y,-z
-x,-y,-z
-x+y,-x,1/2-z
y,-x+y,-z
x,y,1/2-z
x-y,x,-z
-y,x-y,1/2-z
-x+y,y,1/2+z
x,x-y,1/2+z
-y,-x,1/2+z
y,x,z
x-y,-y,z
-x,-x+y,z
loop_
_atom_site_type_symbol
_atom_site_label
_atom_site_fract_x
_atom_site_fract_y
_atom_site_fract_z
Si Si1 0.333334 0.666668 0.339808
Si Si2 0.509248 0.081108 0.663036
Si Si3 0.194361 0.529834 0.160823
Si Si4 0.163109 0.377445 0.335251
Si Si5 0.211889 0.919615 0.028820
Si Si6 0.375795 0.080632 0.890542
O O1 0.333334 0.666668 0.250000
O O2 0.324879 0.731608 0.371354
O O3 0.501746 0.098251 0.750000
O O4 0.589055 0.129866 0.632531
O O5 0.456826 0.097231 0.613432
O O6 0.490690 0.000000 0.653584
O O7 0.196412 0.530939 0.250000
O O8 0.184490 0.455247 0.132340
O O9 0.134889 0.366946 0.250000
O O10 0.099242 0.320040 0.386145
O O11 0.231106 0.366317 0.337700
O O12 0.226834 0.000000 0.026480
O O13 0.131544 0.868457 0.000000
O O14 0.267382 0.910054 0.976154
O O15 0.322860 0.000000 0.861404
#
# Coordination Sequence:
#
# PCOD8329875 Si02
#       6
#     8  24  24  24  24  24
#     4   9  15  24  39  57  82 119 160 198 235 281
#     4   9  16  26  42  64  89 118 155 200 244 283
#     4   9  17  27  40  62  92 124 159 200 245 289
#     4  10  19  30  47  71  97 124 154 191 236 285
#     4   9  19  35  53  73  98 127 155 187 231 279
#     4   9  17  31  50  70  93 121 157 200 240 277
#
# _framework density 17.668875
#
# number of rings (size 3 to 8) (size 9 to 14) (size 15 to 20)
#    0.000    2.812    0.000    1.688    0.000    5.250 
#    0.000    2.812    0.000    3.562    0.000    2.625 
#    0.000    0.000    0.000    0.562    0.000    0.000 
#
# Total GULP energy -1587000.915421 kJ/mol
# GULP energy per Si atom -12398.444652 kJ/mol
# Density = 1.762866 g / cm^3
# Si number density = 17.668875 Si / 1000 Ang^3
#
#
#
# Elastic Constant Matrix: (Units=GPa)
#
#
# Indices 1 2 3 4 5 6 
#
# 1 112.6186 60.8853 35.5441 0.0000 0.0000 -0.0001
# 2 60.8853 112.6176 35.5441 0.0000 0.0000 -0.0002
# 3 35.5441 35.5441 58.5911 0.0000 0.0000 0.0000
# 4 0.0000 0.0000 0.0000 16.1270 0.0000 0.0000
# 5 0.0000 0.0000 0.0000 0.0000 16.1270 0.0000
# 6 -0.0001 -0.0002 0.0000 0.0000 0.0000 25.8663
#
#
#
# Elastic Compliance Matrix: (Units=1/GPa)
#
#
# Indices 1 2 3 4 5 6 
#
# 1 0.013500 -0.005830 -0.004653 0.000000 0.000000 0.000000
# 2 -0.005830 0.013500 -0.004653 0.000000 0.000000 0.000000
# 3 -0.004653 -0.004653 0.022713 0.000000 0.000000 0.000000
# 4 0.000000 0.000000 0.000000 0.062008 0.000000 0.000000
# 5 0.000000 0.000000 0.000000 0.000000 0.062008 0.000000
# 6 0.000000 0.000000 0.000000 0.000000 0.000000 0.038660
#
#
# Mechanical properties :
#
#
# Convention : Reuss Voigt Hill
#
# Bulk Modulus (GPa) = 51.43780 60.86380 56.15080
# Shear Modulus (GPa) = 20.06895 21.74766 20.90831
#
# Velocity S-wave (km/s) = 3.37387 3.51215 3.44370
# Velocity P-wave (km/s) = 6.65978 7.13923 6.90367
#
# Compressibility (1/GPa) = 0.01944096
#
# Stress axis : x y z
#
# Youngs Moduli (GPa) = 74.07425 74.07346 44.02793
#
# Poissons Ratio (x) = 0.43185 0.20486
# Poissons Ratio (y) = 0.43186 0.20486
# Poissons Ratio (z) = 0.34466 0.34467
#
# Static dielectric constant tensor:
#      x y z
#    x 3.317040 0.000000 0.000000 
#    y 0.000000 3.317050 0.000000 
#    z 0.000000 0.000000 2.979740 
# 
# 
# High freq. dielectric constant tensor:
#      x y z
#    x 1.678230 0.000000 0.000000 
#    y 0.000000 1.678230 0.000000 
#    z 0.000000 0.000000 1.653420 
# 
# From -- ./inp_files/6504.got.cif
#   From: 2010.03.12/outbox.cif.g09.slc.cpg/sg193_4_cif.got.tgz:6504.got - 2010.04.01 12:20:39.
