data_PCOD8329482
_publ_section_title
;
Structure prediction by ZEFSAII (Michael W. Deem and Ramdas Pophale) SiO2 
 PCOD8329482
Probable space group: P 6/M C C
;
_chemical_formula_sum "Si O2"
_cell_formula_units_Z 126
_cell_length_a 31.211865
_cell_length_b 31.211865
_cell_length_c 9.231853
_cell_angle_alpha 90.000000
_cell_angle_beta 90.000000
_cell_angle_gamma 120.000000
_cell_volume 7788.591957
_symmetry_space_group_name_H-M "P 6/M C C"
_symmetry_group_IT_number 192
_symmetry_cell_setting 'hexagonal'
loop_
_space_group_symop_operation_xyz
x,y,z
x-y,x,z
-y,x-y,z
-x,-y,z
-x+y,-x,z
y,-x+y,z
x-y,-y,1/2-z
-x,-x+y,1/2-z
y,x,1/2-z
-y,-x,1/2-z
-x+y,y,1/2-z
x,x-y,1/2-z
-x,-y,-z
-x+y,-x,-z
y,-x+y,-z
x,y,-z
x-y,x,-z
-y,x-y,-z
-x+y,y,1/2+z
x,x-y,1/2+z
-y,-x,1/2+z
y,x,1/2+z
x-y,-y,1/2+z
-x,-x+y,1/2+z
loop_
_atom_site_type_symbol
_atom_site_label
_atom_site_fract_x
_atom_site_fract_y
_atom_site_fract_z
Si Si1 0.926662 0.535716 0.339576
Si Si2 0.484054 0.323733 0.837683
Si Si3 0.764975 0.145767 0.174434
Si Si4 0.000000 0.500000 0.250000
Si Si5 0.664479 0.413397 0.665352
Si Si6 0.306499 0.355405 0.172478
O O1 0.906194 0.530012 0.500000
O O2 0.877989 0.503639 0.243708
O O3 0.964994 0.515017 0.338874
O O4 0.949525 0.592821 0.291656
O O5 0.437124 0.273919 0.780352
O O6 0.528366 0.312736 0.824376
O O7 0.474224 0.333972 0.000000
O O8 0.817238 0.182763 0.250000
O O9 0.742434 0.092269 0.249803
O O10 0.771124 0.143741 0.000000
O O11 0.612399 0.387602 0.750000
O O12 0.698676 0.397352 0.750000
O O13 0.657790 0.395257 0.500000
O O14 0.313048 0.313048 0.250000
O O15 0.298012 0.346611 0.000000
#
# Coordination Sequence:
#
# PCOD8329482 Si02
#       6
#    24  24  24   6  24  24
#     4  10  22  35  51  71  94 124 155 186 222 267
#     4   9  21  38  55  73  96 119 147 184 227 272
#     4  10  19  33  53  77 100 126 157 197 237 283
#     4  12  22  36  48  74  98 128 156 190 222 264
#     4  11  23  39  56  74  92 114 139 174 217 267
#     4  10  19  34  51  71  97 129 162 196 237 285
#
# _framework density 16.177506999999999
#
# number of rings (size 3 to 8) (size 9 to 14) (size 15 to 20)
#    0.000    1.905    0.952    2.762    1.333    4.571 
#    0.000    0.000    0.000    0.000    0.000    0.000 
#    0.000    0.000    0.000    0.000    0.000    0.000 
#
# Total GULP energy -1561541.464137 kJ/mol
# GULP energy per Si atom -12393.186223 kJ/mol
# Density = 1.614069 g / cm^3
# Si number density = 16.177507 Si / 1000 Ang^3
#
#
#
# Elastic Constant Matrix: (Units=GPa)
#
#
# Indices 1 2 3 4 5 6 
#
# 1 77.2795 32.2466 42.1823 0.0000 0.0000 0.0000
# 2 32.2466 77.2795 42.1823 0.0000 0.0000 0.0000
# 3 42.1823 42.1823 106.8088 0.0000 0.0000 0.0000
# 4 0.0000 0.0000 0.0000 21.4486 0.0000 0.0000
# 5 0.0000 0.0000 0.0000 0.0000 21.4486 0.0000
# 6 0.0000 0.0000 0.0000 0.0000 0.0000 22.5165
#
#
#
# Elastic Compliance Matrix: (Units=1/GPa)
#
#
# Indices 1 2 3 4 5 6 
#
# 1 0.017664 -0.004542 -0.005182 0.000000 0.000000 0.000000
# 2 -0.004542 0.017664 -0.005182 0.000000 0.000000 0.000000
# 3 -0.005182 -0.005182 0.013456 0.000000 0.000000 0.000000
# 4 0.000000 0.000000 0.000000 0.046623 0.000000 0.000000
# 5 0.000000 0.000000 0.000000 0.000000 0.046623 0.000000
# 6 0.000000 0.000000 0.000000 0.000000 0.000000 0.044412
#
#
# Mechanical properties :
#
#
# Convention : Reuss Voigt Hill
#
# Bulk Modulus (GPa) = 52.71304 54.95447 53.83376
# Shear Modulus (GPa) = 22.46396 22.73318 22.59857
#
# Velocity S-wave (km/s) = 3.73042 3.75271 3.74158
# Velocity P-wave (km/s) = 7.15609 7.26777 7.21215
#
# Compressibility (1/GPa) = 0.01897064
#
# Stress axis : x y z
#
# Youngs Moduli (GPa) = 56.61230 56.61230 74.31708
#
# Poissons Ratio (x) = 0.25713 0.38513
# Poissons Ratio (y) = 0.25713 0.38513
# Poissons Ratio (z) = 0.29338 0.29338
#
# Static dielectric constant tensor:
#      x y z
#    x 2.855570 0.000000 0.000000 
#    y 0.000000 2.855570 0.000000 
#    z 0.000000 0.000000 3.171540 
# 
# 
# High freq. dielectric constant tensor:
#      x y z
#    x 1.592330 0.000000 0.000000 
#    y 0.000000 1.592330 0.000000 
#    z 0.000000 0.000000 1.639050 
# 
# From -- ./inp_files/1102.got.cif
#   From: 2010.03.12/outbox.cif.g09.slc.cpg/sg192_1_cif.got.tgz:1102.got - 2010.04.01 12:16:15.
