data_PCOD8329916
_publ_section_title
;
Structure prediction by ZEFSAII (Michael W. Deem and Ramdas Pophale) SiO2 
 PCOD8329916
Probable space group: P 63/M C M
;
_chemical_formula_sum "Si O2"
_cell_formula_units_Z 92
_cell_length_a 20.520441
_cell_length_b 20.520441
_cell_length_c 15.683943
_cell_angle_alpha 90.000000
_cell_angle_beta 90.000000
_cell_angle_gamma 120.000000
_cell_volume 5719.515835
_symmetry_space_group_name_H-M "P 63/M C M"
_symmetry_group_IT_number 193
_symmetry_cell_setting 'hexagonal'
loop_
_space_group_symop_operation_xyz
x,y,z
x-y,x,1/2+z
-y,x-y,z
-x,-y,1/2+z
-x+y,-x,z
y,-x+y,1/2+z
x-y,-y,1/2-z
-x,-x+y,1/2-z
y,x,1/2-z
-y,-x,-z
-x+y,y,-z
x,x-y,-z
-x,-y,-z
-x+y,-x,1/2-z
y,-x+y,-z
x,y,1/2-z
x-y,x,-z
-y,x-y,1/2-z
-x+y,y,1/2+z
x,x-y,1/2+z
-y,-x,1/2+z
y,x,z
x-y,-y,z
-x,-x+y,z
loop_
_atom_site_type_symbol
_atom_site_label
_atom_site_fract_x
_atom_site_fract_y
_atom_site_fract_z
Si Si1 0.792793 0.460975 0.447610
Si Si2 0.912872 0.312126 0.848593
Si Si3 0.087130 0.176340 0.250000
Si Si4 0.333334 0.666668 0.152916
Si Si5 0.832727 0.745126 0.913086
O O1 0.746542 0.493085 0.500000
O O2 0.816092 0.408046 0.500000
O O3 0.867485 0.527059 0.405790
O O4 0.736384 0.411293 0.374778
O O5 0.886921 0.301174 0.750000
O O6 0.897680 0.233683 0.886429
O O7 0.000000 0.374806 0.856078
O O8 0.134880 0.134880 0.250000
O O9 0.107248 0.226569 0.335562
O O10 0.000000 0.115527 0.250000
O O11 0.333334 0.666668 0.250000
O O12 0.803212 0.803212 0.928608
O O13 0.869293 0.738585 0.000000
#
# Coordination Sequence:
#
# PCOD8329916 Si02
#       5
#    24  24  12   8  24
#     4   9  18  31  48  72  98 122 155 196 239 286
#     4  10  19  32  49  70  96 127 164 200 236 291
#     4  10  19  32  48  70  98 128 168 214 262 308
#     4   9  16  29  49  72  97 122 151 192 235 278
#     4  10  19  32  49  70  96 128 168 210 254 303
#
# _framework density 16.085277999999999
#
# number of rings (size 3 to 8) (size 9 to 14) (size 15 to 20)
#    0.000    2.348    1.304    3.522    0.000    0.522 
#    0.000    0.000    0.000    4.174    0.000    0.000 
#    0.000    0.000    0.000    0.000    0.000    0.000 
#
# Total GULP energy -1140407.381051 kJ/mol
# GULP energy per Si atom -12395.732403 kJ/mol
# Density = 1.604867 g / cm^3
# Si number density = 16.085278 Si / 1000 Ang^3
#
#
#
# Elastic Constant Matrix: (Units=GPa)
#
#
# Indices 1 2 3 4 5 6 
#
# 1 76.0704 29.2368 52.4844 0.0001 0.0002 0.0000
# 2 29.2368 76.0701 52.4838 0.0000 0.0001 0.0002
# 3 52.4844 52.4838 146.6053 -0.0001 0.0003 0.0000
# 4 0.0001 0.0000 -0.0001 18.1661 0.0000 0.0000
# 5 0.0002 0.0001 0.0003 0.0000 18.1659 0.0000
# 6 0.0000 0.0002 0.0000 0.0000 0.0000 23.4169
#
#
#
# Elastic Compliance Matrix: (Units=1/GPa)
#
#
# Indices 1 2 3 4 5 6 
#
# 1 0.018059 -0.003294 -0.005286 0.000000 0.000000 0.000000
# 2 -0.003294 0.018058 -0.005286 0.000000 0.000000 0.000000
# 3 -0.005286 -0.005286 0.010606 0.000000 0.000000 0.000000
# 4 0.000000 0.000000 0.000000 0.055048 0.000000 0.000000
# 5 0.000000 0.000000 0.000000 0.000000 0.055048 0.000000
# 6 0.000000 0.000000 0.000000 0.000000 0.000000 0.042704
#
#
# Mechanical properties :
#
#
# Convention : Reuss Voigt Hill
#
# Bulk Modulus (GPa) = 52.65323 63.01730 57.83527
# Shear Modulus (GPa) = 21.40560 22.91917 22.16238
#
# Velocity S-wave (km/s) = 3.65191 3.77882 3.71591
# Velocity P-wave (km/s) = 7.11244 7.63553 7.37862
#
# Compressibility (1/GPa) = 0.01899219
#
# Stress axis : x y z
#
# Youngs Moduli (GPa) = 55.37552 55.37569 94.29015
#
# Poissons Ratio (x) = 0.18239 0.49840
# Poissons Ratio (y) = 0.18239 0.49839
# Poissons Ratio (z) = 0.29270 0.29270
#
# Static dielectric constant tensor:
#      x y z
#    x 2.929740 0.000000 0.000000 
#    y 0.000000 2.929740 0.000000 
#    z 0.000000 0.000000 3.141290 
# 
# 
# High freq. dielectric constant tensor:
#      x y z
#    x 1.612510 0.000000 0.000000 
#    y 0.000000 1.612510 0.000000 
#    z 0.000000 0.000000 1.632840 
# 
# From -- ./inp_files/3584.got.cif
#   From: 2010.03.12/outbox.cif.g09.slc.cpg/sg193_2_cif.got.tgz:3584.got - 2010.04.01 12:20:39.
