data_PCOD8329421
_publ_section_title
;
Structure prediction by ZEFSAII (Michael W. Deem and Ramdas Pophale) SiO2 
 PCOD8329421
Probable space group: P 6/M C C
;
_chemical_formula_sum "Si O2"
_cell_formula_units_Z 192
_cell_length_a 27.649330
_cell_length_b 27.649330
_cell_length_c 17.421626
_cell_angle_alpha 90.000000
_cell_angle_beta 90.000000
_cell_angle_gamma 120.000000
_cell_volume 11534.228261
_symmetry_space_group_name_H-M "P 6/M C C"
_symmetry_group_IT_number 192
_symmetry_cell_setting 'hexagonal'
loop_
_space_group_symop_operation_xyz
x,y,z
x-y,x,z
-y,x-y,z
-x,-y,z
-x+y,-x,z
y,-x+y,z
x-y,-y,1/2-z
-x,-x+y,1/2-z
y,x,1/2-z
-y,-x,1/2-z
-x+y,y,1/2-z
x,x-y,1/2-z
-x,-y,-z
-x+y,-x,-z
y,-x+y,-z
x,y,-z
x-y,x,-z
-y,x-y,-z
-x+y,y,1/2+z
x,x-y,1/2+z
-y,-x,1/2+z
y,x,1/2+z
x-y,-y,1/2+z
-x,-x+y,1/2+z
loop_
_atom_site_type_symbol
_atom_site_label
_atom_site_fract_x
_atom_site_fract_y
_atom_site_fract_z
Si Si1 0.519441 0.282218 0.914177
Si Si2 0.879894 0.267789 0.833300
Si Si3 0.327532 0.813962 0.665458
Si Si4 0.481711 0.905336 0.086799
Si Si5 0.080571 0.386537 0.824800
Si Si6 0.607676 0.973660 0.912343
Si Si7 0.173376 0.787228 0.585414
Si Si8 0.518233 0.373696 0.821259
O O1 0.543387 0.251179 0.859365
O O2 0.452914 0.243684 0.915792
O O3 0.539032 0.343674 0.881568
O O4 0.543848 0.289705 0.000000
O O5 0.833961 0.284582 0.809132
O O6 0.918133 0.277781 0.757747
O O7 0.918688 0.305561 0.902840
O O8 0.843626 0.203735 0.862340
O O9 0.363835 0.848581 0.591989
O O10 0.370390 0.827599 0.737269
O O11 0.543470 0.957589 0.107286
O O12 0.435763 0.900094 0.148480
O O13 0.464969 0.911936 0.000000
O O14 0.111665 0.366527 0.883716
O O15 0.110244 0.452346 0.816465
O O16 0.018685 0.367066 0.853856
O O17 0.621708 0.994927 0.000000
O O18 0.167184 0.805155 0.500000
#
# Coordination Sequence:
#
# PCOD8329421 Si02
#       8
#    24  24  24  24  24  24  24  24
#     4   9  16  27  45  66  84 101 125 163 209 253
#     4   9  17  30  46  63  84 112 144 176 214 261
#     4   9  17  30  46  62  80 104 135 170 208 252
#     4  10  20  32  45  61  83 113 146 176 211 265
#     4  10  19  30  45  66  90 114 144 184 226 265
#     4  10  20  32  45  62  87 119 151 182 220 267
#     4   9  16  27  45  67  88 109 137 174 214 256
#     4  10  19  30  45  65  86 108 138 175 217 267
#
# _framework density 16.646107000000001
#
# number of rings (size 3 to 8) (size 9 to 14) (size 15 to 20)
#    0.000    2.500    0.000    3.000    0.000    8.000 
#    0.000    1.250    0.000    5.000    0.000    3.500 
#    0.000    0.000    0.000    0.000    0.000    0.000 
#
# Total GULP energy -2378773.619825 kJ/mol
# GULP energy per Si atom -12389.445937 kJ/mol
# Density = 1.660822 g / cm^3
# Si number density = 16.646107 Si / 1000 Ang^3
#
#
#
# Elastic Constant Matrix: (Units=GPa)
#
#
# Indices 1 2 3 4 5 6 
#
# 1 51.1932 20.6485 30.4053 0.0000 0.0000 0.0000
# 2 20.6485 51.1932 30.4053 0.0000 0.0000 0.0000
# 3 30.4053 30.4053 112.2597 0.0000 0.0000 0.0000
# 4 0.0000 0.0000 0.0000 22.9389 0.0000 0.0000
# 5 0.0000 0.0000 0.0000 0.0000 22.9389 0.0000
# 6 0.0000 0.0000 0.0000 0.0000 0.0000 15.2724
#
#
#
# Elastic Compliance Matrix: (Units=1/GPa)
#
#
# Indices 1 2 3 4 5 6 
#
# 1 0.025399 -0.007340 -0.004891 0.000000 0.000000 0.000000
# 2 -0.007340 0.025399 -0.004891 0.000000 0.000000 0.000000
# 3 -0.004891 -0.004891 0.011558 0.000000 0.000000 0.000000
# 4 0.000000 0.000000 0.000000 0.043594 0.000000 0.000000
# 5 0.000000 0.000000 0.000000 0.000000 0.043594 0.000000
# 6 0.000000 0.000000 0.000000 0.000000 0.000000 0.065478
#
#
# Mechanical properties :
#
#
# Convention : Reuss Voigt Hill
#
# Bulk Modulus (GPa) = 35.57270 41.95163 38.76216
# Shear Modulus (GPa) = 19.33206 21.10917 20.22061
#
# Velocity S-wave (km/s) = 3.41156 3.56492 3.48909
# Velocity P-wave (km/s) = 6.07740 6.49628 6.29033
#
# Compressibility (1/GPa) = 0.02811144
#
# Stress axis : x y z
#
# Youngs Moduli (GPa) = 39.37102 39.37102 86.52299
#
# Poissons Ratio (x) = 0.28896 0.42323
# Poissons Ratio (y) = 0.28896 0.42323
# Poissons Ratio (z) = 0.19258 0.19258
#
# Static dielectric constant tensor:
#      x y z
#    x 2.869320 0.000000 0.000000 
#    y 0.000000 2.869320 0.000000 
#    z 0.000000 0.000000 3.391380 
# 
# 
# High freq. dielectric constant tensor:
#      x y z
#    x 1.595230 0.000000 0.000000 
#    y 0.000000 1.595230 0.000000 
#    z 0.000000 0.000000 1.663250 
# 
# From -- ./inp_files/3553.got.cif
#   From: 2010.03.12/outbox.cif.g09.slc.cpg/sg192_2_cif.got.tgz:3553.got - 2010.04.01 12:16:15.
