data_PCOD8329293
_publ_section_title
;
Structure prediction by ZEFSAII (Michael W. Deem and Ramdas Pophale) SiO2 
 PCOD8329293
Probable space group: P 6/M M M
;
_chemical_formula_sum "Si O2"
_cell_formula_units_Z 192
_cell_length_a 23.313597
_cell_length_b 23.313597
_cell_length_c 29.063540
_cell_angle_alpha 90.000000
_cell_angle_beta 90.000000
_cell_angle_gamma 120.000000
_cell_volume 13680.365883
_symmetry_space_group_name_H-M "P 6/M M M"
_symmetry_group_IT_number 191
_symmetry_cell_setting 'hexagonal'
loop_
_space_group_symop_operation_xyz
x,y,z
x-y,x,z
-y,x-y,z
-x,-y,z
-x+y,-x,z
y,-x+y,z
x-y,-y,-z
-x,-x+y,-z
y,x,-z
-y,-x,-z
-x+y,y,-z
x,x-y,-z
-x,-y,-z
-x+y,-x,-z
y,-x+y,-z
x,y,-z
x-y,x,-z
-y,x-y,-z
-x+y,y,z
x,x-y,z
-y,-x,z
y,x,z
x-y,-y,z
-x,-x+y,z
loop_
_atom_site_type_symbol
_atom_site_label
_atom_site_fract_x
_atom_site_fract_y
_atom_site_fract_z
Si Si1 0.072682 0.270087 0.114435
Si Si2 0.144445 0.420336 0.883603
Si Si3 0.073312 0.604766 0.390722
Si Si4 0.529403 0.924792 0.947672
Si Si5 0.075422 0.471090 0.286485
Si Si6 0.466047 0.666900 0.554046
Si Si7 0.730030 0.927358 0.776056
Si Si8 0.724138 0.144345 0.777654
O O1 0.123236 0.246472 0.096113
O O2 0.098498 0.345124 0.099129
O O3 0.070876 0.267358 0.169190
O O4 0.000000 0.222308 0.093319
O O5 0.221341 0.442681 0.889987
O O6 0.127593 0.466278 0.914601
O O7 0.129481 0.427823 0.830633
O O8 0.072015 0.536008 0.392694
O O9 0.085689 0.631570 0.338552
O O10 0.133868 0.657926 0.422100
O O11 0.000000 0.590322 0.407326
O O12 0.455810 0.911620 0.942957
O O13 0.581750 0.000000 0.932783
O O14 0.543391 0.912724 0.000000
O O15 0.092331 0.546166 0.283159
O O16 0.127265 0.465955 0.253335
O O17 0.000000 0.421522 0.270549
O O18 0.477939 0.668105 0.500000
O O19 0.471145 0.735573 0.570546
O O20 0.393215 0.606786 0.567290
O O21 0.753687 0.876844 0.757764
O O22 0.655085 0.901696 0.760615
O O23 0.777924 0.000000 0.754956
O O24 0.778751 0.221250 0.771204
#
# Coordination Sequence:
#
# PCOD8329293 Si02
#       8
#    24  24  24  24  24  24  24  24
#     4   8  13  21  34  52  73  96 120 146 175 205
#     4   9  17  28  42  60  79  99 125 154 183 219
#     4   8  15  27  39  52  73 100 128 156 187 228
#     4   9  18  31  45  62  83 103 122 148 185 227
#     4   9  17  28  41  57  77 100 126 157 192 229
#     4   9  16  25  38  56  76  97 124 161 202 238
#     4   8  13  21  33  49  69  92 117 145 176 208
#     4   9  17  27  39  57  78  98 123 155 187 221
#
# _framework density 14.034713
#
# number of rings (size 3 to 8) (size 9 to 14) (size 15 to 20)
#    0.000    3.375    0.000    3.500    0.000    3.500 
#    0.000    2.500    0.000    0.750    0.000    1.750 
#    0.000    0.000    0.000    0.000    0.000    0.000 
#
# Total GULP energy -2379496.604477 kJ/mol
# GULP energy per Si atom -12393.211482 kJ/mol
# Density = 1.400277 g / cm^3
# Si number density = 14.034713 Si / 1000 Ang^3
#
#
#
# Elastic Constant Matrix: (Units=GPa)
#
#
# Indices 1 2 3 4 5 6 
#
# 1 76.5173 39.5426 36.8301 0.0000 0.0000 0.0000
# 2 39.5426 76.5173 36.8301 0.0000 0.0000 0.0000
# 3 36.8301 36.8301 48.2650 0.0000 0.0000 0.0000
# 4 0.0000 0.0000 0.0000 18.2823 0.0000 0.0000
# 5 0.0000 0.0000 0.0000 0.0000 18.2823 0.0000
# 6 0.0000 0.0000 0.0000 0.0000 0.0000 18.4874
#
#
#
# Elastic Compliance Matrix: (Units=1/GPa)
#
#
# Indices 1 2 3 4 5 6 
#
# 1 0.021877 -0.005169 -0.012750 0.000000 0.000000 0.000000
# 2 -0.005169 0.021877 -0.012750 0.000000 0.000000 0.000000
# 3 -0.012750 -0.012750 0.040177 0.000000 0.000000 0.000000
# 4 0.000000 0.000000 0.000000 0.054698 0.000000 0.000000
# 5 0.000000 0.000000 0.000000 0.000000 0.054698 0.000000
# 6 0.000000 0.000000 0.000000 0.000000 0.000000 0.054091
#
#
# Mechanical properties :
#
#
# Convention : Reuss Voigt Hill
#
# Bulk Modulus (GPa) = 44.25834 47.52279 45.89057
# Shear Modulus (GPa) = 15.80856 16.88352 16.34604
#
# Velocity S-wave (km/s) = 3.35981 3.47217 3.41645
# Velocity P-wave (km/s) = 6.83041 7.07170 6.95210
#
# Compressibility (1/GPa) = 0.02259461
#
# Stress axis : x y z
#
# Youngs Moduli (GPa) = 45.71051 45.71051 24.88993
#
# Poissons Ratio (x) = 0.23626 0.31734
# Poissons Ratio (y) = 0.23626 0.31734
# Poissons Ratio (z) = 0.58279 0.58279
#
# Static dielectric constant tensor:
#      x y z
#    x 2.801650 0.000000 0.000000 
#    y 0.000000 2.801650 0.000000 
#    z 0.000000 0.000000 2.529520 
# 
# 
# High freq. dielectric constant tensor:
#      x y z
#    x 1.524210 0.000000 0.000000 
#    y 0.000000 1.524210 0.000000 
#    z 0.000000 0.000000 1.507410 
# 
# From -- ./inp_files/10152.got.cif
#   From: 2010.03.12/outbox.cif.g09.slc.cpg/sg191_6_cif.got.tgz:10152.got - 2010.04.01 12:09:02.
