data_PCOD8329193
_publ_section_title
;
Structure prediction by ZEFSAII (Michael W. Deem and Ramdas Pophale) SiO2 
 PCOD8329193
Probable space group: P 6/M M M
;
_chemical_formula_sum "Si O2"
_cell_formula_units_Z 144
_cell_length_a 31.353604
_cell_length_b 31.353604
_cell_length_c 9.227777
_cell_angle_alpha 90.000000
_cell_angle_beta 90.000000
_cell_angle_gamma 120.000000
_cell_volume 7856.021442
_symmetry_space_group_name_H-M "P 6/M M M"
_symmetry_group_IT_number 191
_symmetry_cell_setting 'hexagonal'
loop_
_space_group_symop_operation_xyz
x,y,z
x-y,x,z
-y,x-y,z
-x,-y,z
-x+y,-x,z
y,-x+y,z
x-y,-y,-z
-x,-x+y,-z
y,x,-z
-y,-x,-z
-x+y,y,-z
x,x-y,-z
-x,-y,-z
-x+y,-x,-z
y,-x+y,-z
x,y,-z
x-y,x,-z
-y,x-y,-z
-x+y,y,z
x,x-y,z
-y,-x,z
y,x,z
x-y,-y,z
-x,-x+y,z
loop_
_atom_site_type_symbol
_atom_site_label
_atom_site_fract_x
_atom_site_fract_y
_atom_site_fract_z
Si Si1 0.567921 0.333248 0.666593
Si Si2 0.149306 0.945328 0.169016
Si Si3 0.709642 0.944365 0.331227
Si Si4 0.850194 0.329425 0.172352
Si Si5 0.479373 0.054259 0.172001
Si Si6 0.244619 0.853485 0.333492
O O1 0.551667 0.331497 0.500000
O O2 0.565612 0.282806 0.711016
O O3 0.623140 0.376861 0.692145
O O4 0.532126 0.341817 0.769799
O O5 0.092844 0.907157 0.211452
O O6 0.184664 0.930076 0.249126
O O7 0.161393 0.000000 0.215614
O O8 0.158574 0.943162 0.000000
O O9 0.716784 0.938644 0.500000
O O10 0.653930 0.906288 0.283875
O O11 0.722570 0.000000 0.292434
O O12 0.903667 0.372159 0.228887
O O13 0.840005 0.277650 0.233948
O O14 0.847098 0.326511 0.000000
O O15 0.532202 0.064403 0.231622
O O16 0.436633 0.000000 0.224919
O O17 0.481309 0.055549 0.000000
O O18 0.260625 0.855107 0.500000
O O19 0.187795 0.812206 0.311281
#
# Coordination Sequence:
#
# PCOD8329193 Si02
#       6
#    24  24  24  24  24  24
#     4  10  21  38  59  80 103 133 168 204 246 300
#     4   9  17  29  46  69  97 128 162 203 252 303
#     4   9  18  33  53  75  97 124 163 211 258 301
#     4  11  22  34  52  79 106 132 167 209 248 287
#     4   8  15  30  51  73  98 128 160 195 239 289
#     4  10  21  36  51  68  97 137 171 197 236 294
#
# _framework density 18.329888
#
# number of rings (size 3 to 8) (size 9 to 14) (size 15 to 20)
#    0.000    2.500    0.000    2.667    0.000    6.667 
#    0.000    0.000    0.000    2.667    0.000    7.000 
#    0.000    0.000    0.000    4.167    0.000    4.333 
#
# Total GULP energy -1785538.233439 kJ/mol
# GULP energy per Si atom -12399.571066 kJ/mol
# Density = 1.828817 g / cm^3
# Si number density = 18.329888 Si / 1000 Ang^3
#
#
#
# Elastic Constant Matrix: (Units=GPa)
#
#
# Indices 1 2 3 4 5 6 
#
# 1 106.5589 45.0718 34.1959 0.0000 0.0000 0.0000
# 2 45.0718 106.5589 34.1959 0.0000 0.0000 0.0000
# 3 34.1959 34.1959 46.1888 0.0000 0.0000 0.0000
# 4 0.0000 0.0000 0.0000 25.7420 0.0000 0.0000
# 5 0.0000 0.0000 0.0000 0.0000 25.7420 0.0000
# 6 0.0000 0.0000 0.0000 0.0000 0.0000 30.7436
#
#
#
# Elastic Compliance Matrix: (Units=1/GPa)
#
#
# Indices 1 2 3 4 5 6 
#
# 1 0.013082 -0.003181 -0.007330 0.000000 0.000000 0.000000
# 2 -0.003181 0.013082 -0.007330 0.000000 0.000000 0.000000
# 3 -0.007330 -0.007330 0.032504 0.000000 0.000000 0.000000
# 4 0.000000 0.000000 0.000000 0.038847 0.000000 0.000000
# 5 0.000000 0.000000 0.000000 0.000000 0.038847 0.000000
# 6 0.000000 0.000000 0.000000 0.000000 0.000000 0.032527
#
#
# Mechanical properties :
#
#
# Convention : Reuss Voigt Hill
#
# Bulk Modulus (GPa) = 43.50600 54.02597 48.76599
# Shear Modulus (GPa) = 23.55866 26.16839 24.86353
#
# Velocity S-wave (km/s) = 3.58894 3.78251 3.68699
# Velocity P-wave (km/s) = 6.40004 6.97242 6.69235
#
# Compressibility (1/GPa) = 0.02298533
#
# Stress axis : x y z
#
# Youngs Moduli (GPa) = 76.43839 76.43839 30.76503
#
# Poissons Ratio (x) = 0.24316 0.22552
# Poissons Ratio (y) = 0.24316 0.22552
# Poissons Ratio (z) = 0.56033 0.56033
#
# Static dielectric constant tensor:
#      x y z
#    x 3.535570 0.000000 0.000000 
#    y 0.000000 3.535570 0.000000 
#    z 0.000000 0.000000 3.192530 
# 
# 
# High freq. dielectric constant tensor:
#      x y z
#    x 1.714550 0.000000 0.000000 
#    y 0.000000 1.714550 0.000000 
#    z 0.000000 0.000000 1.690790 
# 
# From -- ./inp_files/1986.got.cif
#   From: 2010.03.12/outbox.cif.g09.slc.cpg/sg191_1_cif.got.tgz:1986.got - 2010.04.01 12:09:02.
