data_PCOD8329523
_publ_section_title
;
Structure prediction by ZEFSAII (Michael W. Deem and Ramdas Pophale) SiO2 
 PCOD8329523
Probable space group: P 6/M C C
;
_chemical_formula_sum "Si O2"
_cell_formula_units_Z 144
_cell_length_a 33.801120
_cell_length_b 33.801120
_cell_length_c 8.875210
_cell_angle_alpha 90.000000
_cell_angle_beta 90.000000
_cell_angle_gamma 120.000000
_cell_volume 8781.555517
_symmetry_space_group_name_H-M "P 6/M C C"
_symmetry_group_IT_number 192
_symmetry_cell_setting 'hexagonal'
loop_
_space_group_symop_operation_xyz
x,y,z
x-y,x,z
-y,x-y,z
-x,-y,z
-x+y,-x,z
y,-x+y,z
x-y,-y,1/2-z
-x,-x+y,1/2-z
y,x,1/2-z
-y,-x,1/2-z
-x+y,y,1/2-z
x,x-y,1/2-z
-x,-y,-z
-x+y,-x,-z
y,-x+y,-z
x,y,-z
x-y,x,-z
-y,x-y,-z
-x+y,y,1/2+z
x,x-y,1/2+z
-y,-x,1/2+z
y,x,1/2+z
x-y,-y,1/2+z
-x,-x+y,1/2+z
loop_
_atom_site_type_symbol
_atom_site_label
_atom_site_fract_x
_atom_site_fract_y
_atom_site_fract_z
Si Si1 0.710679 0.048594 0.321323
Si Si2 0.613880 0.468964 0.325735
Si Si3 0.127387 0.330817 0.166285
Si Si4 0.581887 0.249238 0.677277
Si Si5 0.896690 0.337245 0.175114
Si Si6 0.744324 0.181509 0.832393
O O1 0.713241 0.046542 0.500000
O O2 0.761115 0.083475 0.261476
O O3 0.673613 0.063733 0.273238
O O4 0.695411 0.000000 0.250000
O O5 0.568061 0.431940 0.250000
O O6 0.604138 0.466948 0.500000
O O7 0.655049 0.458282 0.290867
O O8 0.622348 0.517968 0.266414
O O9 0.154211 0.308421 0.250000
O O10 0.162638 0.383956 0.144547
O O11 0.111514 0.308518 0.000000
O O12 0.629136 0.258272 0.750000
O O13 0.566991 0.283496 0.750000
O O14 0.589901 0.258653 0.500000
O O15 0.848644 0.293763 0.213247
O O16 0.900428 0.348541 0.000000
O O17 0.769599 0.230402 0.750000
O O18 0.725225 0.184155 0.000000
#
# Coordination Sequence:
#
# PCOD8329523 Si02
#       6
#    24  24  24  24  24  24
#     4  10  20  33  50  73  99 127 158 193 234 278
#     4  10  21  36  52  68  86 110 140 173 213 261
#     4   9  16  27  44  66  94 127 160 192 226 267
#     4  10  20  33  49  68  90 116 145 177 213 257
#     4  10  20  33  49  68  90 115 143 177 220 269
#     4   9  16  26  41  62  88 116 144 173 207 250
#
# _framework density 16.398005999999999
#
# number of rings (size 3 to 8) (size 9 to 14) (size 15 to 20)
#    0.000    2.333    0.000    3.167    0.000    8.667 
#    0.000    1.667    0.000    0.500    0.000    3.500 
#    0.000    0.000    0.000    0.000    0.000    0.000 
#
# Total GULP energy -1784667.688059 kJ/mol
# GULP energy per Si atom -12393.525612 kJ/mol
# Density = 1.636068 g / cm^3
# Si number density = 16.398006 Si / 1000 Ang^3
#
#
#
# Elastic Constant Matrix: (Units=GPa)
#
#
# Indices 1 2 3 4 5 6 
#
# 1 67.5212 39.9593 39.6209 0.0000 0.0000 0.0000
# 2 39.9593 67.5212 39.6209 0.0000 0.0000 0.0000
# 3 39.6209 39.6209 95.8695 0.0000 0.0000 0.0000
# 4 0.0000 0.0000 0.0000 20.5905 0.0000 0.0000
# 5 0.0000 0.0000 0.0000 0.0000 20.5905 0.0000
# 6 0.0000 0.0000 0.0000 0.0000 0.0000 13.7809
#
#
#
# Elastic Compliance Matrix: (Units=1/GPa)
#
#
# Indices 1 2 3 4 5 6 
#
# 1 0.024832 -0.011450 -0.005530 0.000000 0.000000 0.000000
# 2 -0.011450 0.024832 -0.005530 0.000000 0.000000 0.000000
# 3 -0.005530 -0.005530 0.015002 0.000000 0.000000 0.000000
# 4 0.000000 0.000000 0.000000 0.048566 0.000000 0.000000
# 5 0.000000 0.000000 0.000000 0.000000 0.048566 0.000000
# 6 0.000000 0.000000 0.000000 0.000000 0.000000 0.072564
#
#
# Mechanical properties :
#
#
# Convention : Reuss Voigt Hill
#
# Bulk Modulus (GPa) = 50.90719 52.14601 51.52660
# Shear Modulus (GPa) = 17.48675 18.43977 17.96326
#
# Velocity S-wave (km/s) = 3.26911 3.35701 3.31335
# Velocity P-wave (km/s) = 6.73510 6.84801 6.79179
#
# Compressibility (1/GPa) = 0.01964359
#
# Stress axis : x y z
#
# Youngs Moduli (GPa) = 40.27124 40.27124 66.65827
#
# Poissons Ratio (x) = 0.46112 0.36863
# Poissons Ratio (y) = 0.46112 0.36863
# Poissons Ratio (z) = 0.22271 0.22271
#
# Static dielectric constant tensor:
#      x y z
#    x 2.836600 0.000000 0.000000 
#    y 0.000000 2.836600 0.000000 
#    z 0.000000 0.000000 3.386680 
# 
# 
# High freq. dielectric constant tensor:
#      x y z
#    x 1.594630 0.000000 0.000000 
#    y 0.000000 1.594630 0.000000 
#    z 0.000000 0.000000 1.654430 
# 
# From -- ./inp_files/1151.got.cif
#   From: 2010.03.12/outbox.cif.g09.slc.cpg/sg192_1_cif.got.tgz:1151.got - 2010.04.01 12:16:15.
