data_PCOD8329642
_publ_section_title
;
Structure prediction by ZEFSAII (Michael W. Deem and Ramdas Pophale) SiO2 
 PCOD8329642
Probable space group: P 6/M C C
;
_chemical_formula_sum "Si O2"
_cell_formula_units_Z 104
_cell_length_a 21.256216
_cell_length_b 21.256216
_cell_length_c 14.317526
_cell_angle_alpha 90.000000
_cell_angle_beta 90.000000
_cell_angle_gamma 120.000000
_cell_volume 5602.353664
_symmetry_space_group_name_H-M "P 6/M C C"
_symmetry_group_IT_number 192
_symmetry_cell_setting 'hexagonal'
loop_
_space_group_symop_operation_xyz
x,y,z
x-y,x,z
-y,x-y,z
-x,-y,z
-x+y,-x,z
y,-x+y,z
x-y,-y,1/2-z
-x,-x+y,1/2-z
y,x,1/2-z
-y,-x,1/2-z
-x+y,y,1/2-z
x,x-y,1/2-z
-x,-y,-z
-x+y,-x,-z
y,-x+y,-z
x,y,-z
x-y,x,-z
-y,x-y,-z
-x+y,y,1/2+z
x,x-y,1/2+z
-y,-x,1/2+z
y,x,1/2+z
x-y,-y,1/2+z
-x,-x+y,1/2+z
loop_
_atom_site_type_symbol
_atom_site_label
_atom_site_fract_x
_atom_site_fract_y
_atom_site_fract_z
Si Si1 0.426071 0.426071 0.852967
Si Si2 0.145279 0.145280 0.140696
Si Si3 0.899782 0.578393 0.500000
Si Si4 0.744057 0.744059 0.500000
Si Si5 0.333334 0.666668 0.864574
Si Si6 0.321389 0.899785 0.000000
Si Si7 0.732560 0.465123 0.500000
O O1 0.500000 0.500000 0.847051
O O2 0.395961 0.395961 0.750000
O O3 0.368021 0.439268 0.906383
O O4 0.439267 0.368021 0.906383
O O5 0.140880 0.070441 0.109928
O O6 0.158590 0.158590 0.250000
O O7 0.212859 0.212861 0.091632
O O8 0.926549 0.664652 0.500000
O O9 0.816693 0.520872 0.500000
O O10 0.738103 0.664654 0.500000
O O11 0.333334 0.666667 0.750000
O O12 0.292298 0.584601 0.906310
O O13 0.295820 0.816695 0.000000
#
# Coordination Sequence:
#
# PCOD8329642 Si02
#       7
#    24  24  12  12   8  12  12
#     4   9  19  35  61  87 111 145 192 241 287 351
#     4  10  21  37  58  83 114 154 200 248 294 344
#     4  10  22  38  58  84 120 154 191 237 302 357
#     4  10  22  36  60  84 120 150 194 242 292 354
#     4  10  26  46  64  92 121 157 206 250 295 359
#     4  10  22  38  58  84 120 154 191 237 302 357
#     4  10  24  42  66  88 124 162 196 248 304 360
#
# _framework density 18.563627
#
# number of rings (size 3 to 8) (size 9 to 14) (size 15 to 20)
#    0.000    2.538    0.000    2.308    9.692    6.462 
#    0.000    1.154    0.000    0.000    0.000    0.000 
#    0.000    0.000    0.000    0.000    0.000    0.000 
#
# Total GULP energy -1288816.662937 kJ/mol
# GULP energy per Si atom -12392.467913 kJ/mol
# Density = 1.852138 g / cm^3
# Si number density = 18.563627 Si / 1000 Ang^3
#
#
#
# Elastic Constant Matrix: (Units=GPa)
#
#
# Indices 1 2 3 4 5 6 
#
# 1 141.9017 90.2379 64.7225 0.0001 0.0000 0.0001
# 2 90.2379 141.9013 64.7223 -0.0001 0.0000 -0.0001
# 3 64.7225 64.7223 165.4223 0.0000 0.0000 0.0000
# 4 0.0001 -0.0001 0.0000 14.7287 0.0000 0.0000
# 5 0.0000 0.0000 0.0000 0.0000 14.7288 -0.0001
# 6 0.0001 -0.0001 0.0000 0.0000 -0.0001 25.8317
#
#
#
# Elastic Compliance Matrix: (Units=1/GPa)
#
#
# Indices 1 2 3 4 5 6 
#
# 1 0.012433 -0.006923 -0.002156 0.000000 0.000000 0.000000
# 2 -0.006923 0.012433 -0.002156 0.000000 0.000000 0.000000
# 3 -0.002156 -0.002156 0.007732 0.000000 0.000000 0.000000
# 4 0.000000 0.000000 0.000000 0.067895 0.000000 0.000000
# 5 0.000000 0.000000 0.000000 0.000000 0.067894 0.000000
# 6 0.000000 0.000000 0.000000 0.000000 0.000000 0.038712
#
#
# Mechanical properties :
#
#
# Convention : Reuss Voigt Hill
#
# Bulk Modulus (GPa) = 98.72938 98.73229 98.73083
# Shear Modulus (GPa) = 21.46439 26.36069 23.91254
#
# Velocity S-wave (km/s) = 3.40407 3.77240 3.59296
# Velocity P-wave (km/s) = 8.29156 8.50153 8.39720
#
# Compressibility (1/GPa) = 0.01012870
#
# Stress axis : x y z
#
# Youngs Moduli (GPa) = 80.43175 80.43154 129.33197
#
# Poissons Ratio (x) = 0.55683 0.27881
# Poissons Ratio (y) = 0.55684 0.27881
# Poissons Ratio (z) = 0.17339 0.17339
#
# Static dielectric constant tensor:
#      x y z
#    x 3.531280 0.000000 0.000000 
#    y 0.000000 3.531280 0.000000 
#    z 0.000000 0.000000 3.796360 
# 
# 
# High freq. dielectric constant tensor:
#      x y z
#    x 1.724490 0.000000 0.000000 
#    y 0.000000 1.724490 0.000000 
#    z 0.000000 0.000000 1.728760 
# 
# From -- ./inp_files/2979.got.cif
#   From: 2010.03.12/outbox.cif.g09.slc.cpg/sg192_2_cif.got.tgz:2979.got - 2010.04.01 12:16:15.
