data_PCOD8329781
_publ_section_title
;
Structure prediction by ZEFSAII (Michael W. Deem and Ramdas Pophale) SiO2 
 PCOD8329781
Probable space group: P 63/M C M
;
_chemical_formula_sum "Si O2"
_cell_formula_units_Z 104
_cell_length_a 26.897521
_cell_length_b 26.897521
_cell_length_c 15.139086
_cell_angle_alpha 90.000000
_cell_angle_beta 90.000000
_cell_angle_gamma 120.000000
_cell_volume 9485.381401
_symmetry_space_group_name_H-M "P 63/M C M"
_symmetry_group_IT_number 193
_symmetry_cell_setting 'hexagonal'
loop_
_space_group_symop_operation_xyz
x,y,z
x-y,x,1/2+z
-y,x-y,z
-x,-y,1/2+z
-x+y,-x,z
y,-x+y,1/2+z
x-y,-y,1/2-z
-x,-x+y,1/2-z
y,x,1/2-z
-y,-x,-z
-x+y,y,-z
x,x-y,-z
-x,-y,-z
-x+y,-x,1/2-z
y,-x+y,-z
x,y,1/2-z
x-y,x,-z
-y,x-y,1/2-z
-x+y,y,1/2+z
x,x-y,1/2+z
-y,-x,1/2+z
y,x,z
x-y,-y,z
-x,-x+y,z
loop_
_atom_site_type_symbol
_atom_site_label
_atom_site_fract_x
_atom_site_fract_y
_atom_site_fract_z
Si Si1 0.063670 0.473041 0.503430
Si Si2 0.333334 0.666668 0.895958
Si Si3 0.153198 0.631358 0.147109
Si Si4 0.538533 0.270757 0.649528
Si Si5 0.511832 0.147452 0.352523
O O1 0.058373 0.529187 0.500000
O O2 0.099239 0.475156 0.590595
O O3 0.094287 0.469107 0.413861
O O4 0.000000 0.417340 0.508691
O O5 0.288760 0.683711 0.859067
O O6 0.333334 0.666667 0.000000
O O7 0.141838 0.637819 0.250000
O O8 0.209438 0.687608 0.105747
O O9 0.162734 0.577415 0.133182
O O10 0.522064 0.255340 0.750000
O O11 0.505776 0.303761 0.615220
O O12 0.494052 0.131845 0.250000
#
# Coordination Sequence:
#
# PCOD8329781 Si02
#       5
#    24   8  24  24  24
#     4   9  18  29  38  46  60  77 101 133 150 164
#     4  12  22  20  34  54  64  89 103 114 139 182
#     4   9  17  26  38  51  64  82 100 118 146 179
#     4  10  18  28  36  48  70  86  97 118 145 184
#     4   9  17  26  38  51  64  82 100 118 146 179
#
# _framework density 10.96424
#
# number of rings (size 3 to 8) (size 9 to 14) (size 15 to 20)
#    0.000    2.538    2.308    0.692    3.231    0.923 
#    0.000    4.615    0.000    0.000    0.000    0.000 
#    0.000    0.000    0.000    0.000    0.000    0.000 
#
# Total GULP energy -1288543.199005 kJ/mol
# GULP energy per Si atom -12389.838452 kJ/mol
# Density = 1.093929 g / cm^3
# Si number density = 10.964240 Si / 1000 Ang^3
#
#
#
# Elastic Constant Matrix: (Units=GPa)
#
#
# Indices 1 2 3 4 5 6 
#
# 1 46.8942 28.3615 28.1952 -0.0001 -0.0001 0.0001
# 2 28.3615 46.8945 28.1952 -0.0001 -0.0001 0.0001
# 3 28.1952 28.1952 52.3738 -0.0001 0.0000 0.0000
# 4 -0.0001 -0.0001 -0.0001 12.3290 0.0000 0.0000
# 5 -0.0001 -0.0001 0.0000 0.0000 12.3289 0.0000
# 6 0.0001 0.0001 0.0000 0.0000 0.0000 9.2665
#
#
#
# Elastic Compliance Matrix: (Units=1/GPa)
#
#
# Indices 1 2 3 4 5 6 
#
# 1 0.038116 -0.015843 -0.011990 0.000000 0.000000 0.000000
# 2 -0.015843 0.038115 -0.011990 0.000000 0.000000 0.000000
# 3 -0.011990 -0.011990 0.032003 0.000000 0.000000 0.000000
# 4 0.000000 0.000000 0.000000 0.081110 0.000000 0.000000
# 5 0.000000 0.000000 0.000000 0.000000 0.081110 0.000000
# 6 0.000000 0.000000 0.000000 0.000000 0.000000 0.107916
#
#
# Mechanical properties :
#
#
# Convention : Reuss Voigt Hill
#
# Bulk Modulus (GPa) = 34.98072 35.07404 35.02738
# Shear Modulus (GPa) = 10.69414 10.87892 10.78653
#
# Velocity S-wave (km/s) = 3.12647 3.15337 3.13995
# Velocity P-wave (km/s) = 6.70871 6.73181 6.72027
#
# Compressibility (1/GPa) = 0.02858718
#
# Stress axis : x y z
#
# Youngs Moduli (GPa) = 26.23602 26.23627 31.24680
#
# Poissons Ratio (x) = 0.41566 0.37466
# Poissons Ratio (y) = 0.41565 0.37465
# Poissons Ratio (z) = 0.31458 0.31458
#
# Static dielectric constant tensor:
#      x y z
#    x 2.265250 0.000000 0.000000 
#    y 0.000000 2.265250 0.000000 
#    z 0.000000 0.000000 2.464750 
# 
# 
# High freq. dielectric constant tensor:
#      x y z
#    x 1.375090 0.000000 0.000000 
#    y 0.000000 1.375090 0.000000 
#    z 0.000000 0.000000 1.428310 
# 
# From -- ./inp_files/3928.got.cif
#   From: 2010.03.12/outbox.cif.g09.slc.cpg/sg193_2_cif.got.tgz:3928.got - 2010.04.01 12:20:39.
