data_PCOD8329510
_publ_section_title
;
Structure prediction by ZEFSAII (Michael W. Deem and Ramdas Pophale) SiO2 
 PCOD8329510
Probable space group: P 6/M C C
;
_chemical_formula_sum "Si O2"
_cell_formula_units_Z 132
_cell_length_a 17.255725
_cell_length_b 17.255725
_cell_length_c 23.208005
_cell_angle_alpha 90.000000
_cell_angle_beta 90.000000
_cell_angle_gamma 120.000000
_cell_volume 5984.596343
_symmetry_space_group_name_H-M "P 6/M C C"
_symmetry_group_IT_number 192
_symmetry_cell_setting 'hexagonal'
loop_
_space_group_symop_operation_xyz
x,y,z
x-y,x,z
-y,x-y,z
-x,-y,z
-x+y,-x,z
y,-x+y,z
x-y,-y,1/2-z
-x,-x+y,1/2-z
y,x,1/2-z
-y,-x,1/2-z
-x+y,y,1/2-z
x,x-y,1/2-z
-x,-y,-z
-x+y,-x,-z
y,-x+y,-z
x,y,-z
x-y,x,-z
-y,x-y,-z
-x+y,y,1/2+z
x,x-y,1/2+z
-y,-x,1/2+z
y,x,1/2+z
x-y,-y,1/2+z
-x,-x+y,1/2+z
loop_
_atom_site_type_symbol
_atom_site_label
_atom_site_fract_x
_atom_site_fract_y
_atom_site_fract_z
Si Si1 0.368971 0.850679 0.676866
Si Si2 0.896801 0.279116 0.434188
Si Si3 0.612079 0.000000 0.250000
Si Si4 0.925363 0.804537 0.067855
Si Si5 0.541388 0.936282 0.063024
Si Si6 0.466856 0.172450 0.317401
O O1 0.359420 0.855309 0.608065
O O2 0.436386 0.816813 0.696457
O O3 0.268078 0.790137 0.702249
O O4 0.413873 0.951976 0.700601
O O5 0.864684 0.282239 0.500000
O O6 0.883097 0.182631 0.418463
O O7 0.838603 0.294783 0.386633
O O8 0.002209 0.351759 0.428463
O O9 0.613510 0.915937 0.283766
O O10 0.861794 0.837839 0.095712
O O11 0.935136 0.820195 0.000000
O O12 0.500000 0.000000 0.069893
O O13 0.520559 0.891000 0.000000
#
# Coordination Sequence:
#
# PCOD8329510 Si02
#       6
#    24  24  12  24  24  24
#     4  12  24  42  64  94 124 165 210 268 326 390
#     4  10  21  36  58  91 124 164 211 256 310 387
#     4  12  25  46  66  86 116 162 211 262 321 384
#     4   9  18  32  51  78 115 157 204 258 315 372
#     4  10  19  37  63  88 121 168 213 252 310 387
#     4  12  25  41  66  92 128 162 211 267 327 388
#
# _framework density 22.056625
#
# number of rings (size 3 to 8) (size 9 to 14) (size 15 to 20)
#    0.000    1.273    3.636    2.727    2.545    1.455 
#    0.000    1.818    0.000    2.182    0.000    0.000 
#    0.000    0.000    0.000    2.909    0.000    0.000 
#
# Total GULP energy -1635369.395111 kJ/mol
# GULP energy per Si atom -12389.162084 kJ/mol
# Density = 2.200642 g / cm^3
# Si number density = 22.056625 Si / 1000 Ang^3
#
#
#
# Elastic Constant Matrix: (Units=GPa)
#
#
# Indices 1 2 3 4 5 6 
#
# 1 90.6256 29.9099 23.3580 0.0000 0.0000 0.0000
# 2 29.9099 90.6256 23.3580 0.0000 0.0000 0.0000
# 3 23.3580 23.3580 76.8535 0.0000 0.0000 0.0000
# 4 0.0000 0.0000 0.0000 21.1857 0.0000 0.0000
# 5 0.0000 0.0000 0.0000 0.0000 21.1857 0.0000
# 6 0.0000 0.0000 0.0000 0.0000 0.0000 30.3579
#
#
#
# Elastic Compliance Matrix: (Units=1/GPa)
#
#
# Indices 1 2 3 4 5 6 
#
# 1 0.012937 -0.003533 -0.002858 0.000000 0.000000 0.000000
# 2 -0.003533 0.012937 -0.002858 0.000000 0.000000 0.000000
# 3 -0.002858 -0.002858 0.014749 0.000000 0.000000 0.000000
# 4 0.000000 0.000000 0.000000 0.047202 0.000000 0.000000
# 5 0.000000 0.000000 0.000000 0.000000 0.047202 0.000000
# 6 0.000000 0.000000 0.000000 0.000000 0.000000 0.032940
#
#
# Mechanical properties :
#
#
# Convention : Reuss Voigt Hill
#
# Bulk Modulus (GPa) = 45.19862 45.70629 45.45246
# Shear Modulus (GPa) = 25.79439 26.64445 26.21942
#
# Velocity S-wave (km/s) = 3.42345 3.47940 3.45154
# Velocity P-wave (km/s) = 6.01359 6.07527 6.04451
#
# Compressibility (1/GPa) = 0.02212457
#
# Stress axis : x y z
#
# Youngs Moduli (GPa) = 77.29691 77.29691 67.80061
#
# Poissons Ratio (x) = 0.27310 0.19379
# Poissons Ratio (y) = 0.27310 0.19379
# Poissons Ratio (z) = 0.22093 0.22093
#
# Static dielectric constant tensor:
#      x y z
#    x 3.951840 0.000000 0.000000 
#    y 0.000000 3.951840 0.000000 
#    z 0.000000 0.000000 4.216700 
# 
# 
# High freq. dielectric constant tensor:
#      x y z
#    x 1.850320 0.000000 0.000000 
#    y 0.000000 1.850320 0.000000 
#    z 0.000000 0.000000 1.873530 
# 
# From -- ./inp_files/5805.got.cif
#   From: 2010.03.12/outbox.cif.g09.slc.cpg/sg192_3_cif.got.tgz:5805.got - 2010.04.01 12:16:15.
