data_PCOD8329775
_publ_section_title
;
Structure prediction by ZEFSAII (Michael W. Deem and Ramdas Pophale) SiO2 
 PCOD8329775
Probable space group: P 63/M C M
;
_chemical_formula_sum "Si O2"
_cell_formula_units_Z 128
_cell_length_a 25.663985
_cell_length_b 25.663985
_cell_length_c 20.503251
_cell_angle_alpha 90.000000
_cell_angle_beta 90.000000
_cell_angle_gamma 120.000000
_cell_volume 11695.035531
_symmetry_space_group_name_H-M "P 63/M C M"
_symmetry_group_IT_number 193
_symmetry_cell_setting 'hexagonal'
loop_
_space_group_symop_operation_xyz
x,y,z
x-y,x,1/2+z
-y,x-y,z
-x,-y,1/2+z
-x+y,-x,z
y,-x+y,1/2+z
x-y,-y,1/2-z
-x,-x+y,1/2-z
y,x,1/2-z
-y,-x,-z
-x+y,y,-z
x,x-y,-z
-x,-y,-z
-x+y,-x,1/2-z
y,-x+y,-z
x,y,1/2-z
x-y,x,-z
-y,x-y,1/2-z
-x+y,y,1/2+z
x,x-y,1/2+z
-y,-x,1/2+z
y,x,z
x-y,-y,z
-x,-x+y,z
loop_
_atom_site_type_symbol
_atom_site_label
_atom_site_fract_x
_atom_site_fract_y
_atom_site_fract_z
Si Si1 0.526083 0.931611 0.250000
Si Si2 0.633798 0.492816 0.122696
Si Si3 0.065506 0.594151 0.000613
Si Si4 0.333334 0.666667 0.423478
Si Si5 0.735188 0.266226 0.078988
Si Si6 0.631908 0.489491 0.876943
Si Si7 0.068204 0.596913 0.750000
O O1 0.524864 0.893298 0.312512
O O2 0.467830 0.938152 0.250000
O O3 0.583850 0.000000 0.250000
O O4 0.698899 0.499338 0.112320
O O5 0.579701 0.423086 0.121734
O O6 0.634138 0.527730 0.187646
O O7 0.628822 0.530907 0.064286
O O8 0.101589 0.629740 0.063564
O O9 0.000000 0.587897 0.003034
O O10 0.058689 0.529345 0.000000
O O11 0.333334 0.666667 0.500000
O O12 0.400475 0.695340 0.398262
O O13 0.696088 0.202335 0.114225
O O14 0.738434 0.261567 0.000000
O O15 0.000000 0.586451 0.750000
#
# Coordination Sequence:
#
# PCOD8329775 Si02
#       7
#    12  24  24   8  24  24  12
#     4   9  18  31  42  52  68  87 109 141 176 202
#     4  10  18  27  40  54  69  91 113 136 168 203
#     4   9  16  25  38  54  66  81 113 147 168 192
#     4   9  18  24  39  49  68 100 114 136 158 196
#     4  11  18  27  39  57  73  90 116 138 164 202
#     4  10  18  27  40  54  69  91 113 136 168 203
#     4   9  18  31  42  52  68  87 109 141 176 202
#
# _framework density 10.944815
#
# number of rings (size 3 to 8) (size 9 to 14) (size 15 to 20)
#    0.000    2.250    3.750    1.125    0.000    5.250 
#    0.000    0.000    0.000    0.000    0.000    0.000 
#    0.000    0.000    0.000    0.000    0.000    0.000 
#
# Total GULP energy -1586235.746965 kJ/mol
# GULP energy per Si atom -12392.466773 kJ/mol
# Density = 1.091990 g / cm^3
# Si number density = 10.944815 Si / 1000 Ang^3
#
#
#
# Elastic Constant Matrix: (Units=GPa)
#
#
# Indices 1 2 3 4 5 6 
#
# 1 51.3297 26.1315 29.3383 0.0013 0.0002 -0.0006
# 2 26.1315 51.3266 29.3373 0.0014 0.0003 -0.0006
# 3 29.3383 29.3373 93.5978 0.0011 0.0002 -0.0005
# 4 0.0013 0.0014 0.0011 7.4403 -0.0003 0.0000
# 5 0.0002 0.0003 0.0002 -0.0003 7.4411 0.0000
# 6 -0.0006 -0.0006 -0.0005 0.0000 0.0000 12.5984
#
#
#
# Elastic Compliance Matrix: (Units=1/GPa)
#
#
# Indices 1 2 3 4 5 6 
#
# 1 0.028308 -0.011379 -0.005306 -0.000002 0.000000 0.000000
# 2 -0.011379 0.028310 -0.005307 -0.000003 -0.000001 0.000001
# 3 -0.005306 -0.005307 0.014011 0.000000 0.000000 0.000000
# 4 -0.000002 -0.000003 0.000000 0.134404 0.000005 0.000000
# 5 0.000000 -0.000001 0.000000 0.000005 0.134389 0.000000
# 6 0.000000 0.000001 0.000000 0.000000 0.000000 0.079375
#
#
# Mechanical properties :
#
#
# Convention : Reuss Voigt Hill
#
# Bulk Modulus (GPa) = 37.53216 40.65202 39.09209
# Shear Modulus (GPa) = 10.60081 12.92574 11.76328
#
# Velocity S-wave (km/s) = 3.11556 3.44029 3.28194
# Velocity P-wave (km/s) = 6.87815 7.28039 7.08213
#
# Compressibility (1/GPa) = 0.02664382
#
# Stress axis : x y z
#
# Youngs Moduli (GPa) = 35.32590 35.32380 71.37443
#
# Poissons Ratio (x) = 0.40195 0.37875
# Poissons Ratio (y) = 0.40198 0.37875
# Poissons Ratio (z) = 0.18746 0.18745
#
# Static dielectric constant tensor:
#      x y z
#    x 2.454000 -0.000060 0.000010 
#    y -0.000060 2.453690 -0.000010 
#    z 0.000010 -0.000010 2.460220 
# 
# 
# High freq. dielectric constant tensor:
#      x y z
#    x 1.381590 0.000000 0.000000 
#    y 0.000000 1.381590 0.000000 
#    z 0.000000 0.000000 1.424990 
# 
# From -- ./inp_files/6776.got.cif
#   From: 2010.03.12/outbox.cif.g09.slc.cpg/sg193_4_cif.got.tgz:6776.got - 2010.04.01 12:20:39.
