data_PCOD8329894
_publ_section_title
;
Structure prediction by ZEFSAII (Michael W. Deem and Ramdas Pophale) SiO2 
 PCOD8329894
Probable space group: P 63/M C M
;
_chemical_formula_sum "Si O2"
_cell_formula_units_Z 120
_cell_length_a 16.617284
_cell_length_b 16.617284
_cell_length_c 28.051103
_cell_angle_alpha 90.000000
_cell_angle_beta 90.000000
_cell_angle_gamma 120.000000
_cell_volume 6708.117469
_symmetry_space_group_name_H-M "P 63/M C M"
_symmetry_group_IT_number 193
_symmetry_cell_setting 'hexagonal'
loop_
_space_group_symop_operation_xyz
x,y,z
x-y,x,1/2+z
-y,x-y,z
-x,-y,1/2+z
-x+y,-x,z
y,-x+y,1/2+z
x-y,-y,1/2-z
-x,-x+y,1/2-z
y,x,1/2-z
-y,-x,-z
-x+y,y,-z
x,x-y,-z
-x,-y,-z
-x+y,-x,1/2-z
y,-x+y,-z
x,y,1/2-z
x-y,x,-z
-y,x-y,1/2-z
-x+y,y,1/2+z
x,x-y,1/2+z
-y,-x,1/2+z
y,x,z
x-y,-y,z
-x,-x+y,z
loop_
_atom_site_type_symbol
_atom_site_label
_atom_site_fract_x
_atom_site_fract_y
_atom_site_fract_z
Si Si1 0.648922 0.540892 0.888546
Si Si2 0.172988 0.360390 0.053361
Si Si3 0.251044 0.890512 0.697382
Si Si4 0.400361 0.510768 0.547847
Si Si5 0.105469 0.214400 0.131629
O O1 0.586382 0.586382 0.879670
O O2 0.721643 0.600008 0.929913
O O3 0.702970 0.550090 0.838583
O O4 0.582068 0.436029 0.906935
O O5 0.153038 0.445078 0.055226
O O6 0.104968 0.274094 0.086412
O O7 0.160739 0.321478 0.000000
O O8 0.236508 0.844962 0.750000
O O9 0.151974 0.869386 0.676606
O O10 0.318242 0.000000 0.701251
O O11 0.426742 0.573259 0.500000
O O12 0.448815 0.448815 0.546336
O O13 0.160813 0.160813 0.118721
O O14 0.000000 0.140498 0.145318
#
# Coordination Sequence:
#
# PCOD8329894 Si02
#       5
#    24  24  24  24  24
#     4   9  18  33  50  71 100 133 167 207 262 321
#     4  11  20  32  50  73 100 138 177 221 265 322
#     4   8  15  30  53  76  96 125 171 220 262 311
#     4  10  19  31  48  71 100 130 161 207 264 317
#     4  10  21  34  50  74 107 146 187 229 274 324
#
# _framework density 17.888774000000002
#
# number of rings (size 3 to 8) (size 9 to 14) (size 15 to 20)
#    0.000    2.400    2.000    2.600    0.000    2.800 
#    1.200    1.000    0.000    7.200    0.000    5.600 
#    0.000    0.000    0.000    0.000    0.000    0.000 
#
# Total GULP energy -1487110.235620 kJ/mol
# GULP energy per Si atom -12392.585297 kJ/mol
# Density = 1.784806 g / cm^3
# Si number density = 17.888774 Si / 1000 Ang^3
#
#
#
# Elastic Constant Matrix: (Units=GPa)
#
#
# Indices 1 2 3 4 5 6 
#
# 1 53.4817 30.7143 36.8990 0.0000 0.0000 0.0000
# 2 30.7143 53.4817 36.8990 0.0000 0.0000 0.0000
# 3 36.8990 36.8990 151.0387 0.0000 0.0000 0.0000
# 4 0.0000 0.0000 0.0000 14.9423 0.0000 0.0000
# 5 0.0000 0.0000 0.0000 0.0000 14.9423 0.0000
# 6 0.0000 0.0000 0.0000 0.0000 0.0000 11.3837
#
#
#
# Elastic Compliance Matrix: (Units=1/GPa)
#
#
# Indices 1 2 3 4 5 6 
#
# 1 0.029518 -0.014405 -0.003692 0.000000 0.000000 0.000000
# 2 -0.014405 0.029518 -0.003692 0.000000 0.000000 0.000000
# 3 -0.003692 -0.003692 0.008425 0.000000 0.000000 0.000000
# 4 0.000000 0.000000 0.000000 0.066924 0.000000 0.000000
# 5 0.000000 0.000000 0.000000 0.000000 0.066924 0.000000
# 6 0.000000 0.000000 0.000000 0.000000 0.000000 0.087845
#
#
# Mechanical properties :
#
#
# Convention : Reuss Voigt Hill
#
# Bulk Modulus (GPa) = 41.87150 51.89186 46.88168
# Shear Modulus (GPa) = 14.67598 18.48631 16.58114
#
# Velocity S-wave (km/s) = 2.86737 3.21815 3.04781
# Velocity P-wave (km/s) = 5.86684 6.54826 6.21689
#
# Compressibility (1/GPa) = 0.02388259
#
# Stress axis : x y z
#
# Youngs Moduli (GPa) = 33.87775 33.87775 118.69668
#
# Poissons Ratio (x) = 0.48800 0.43825
# Poissons Ratio (y) = 0.48800 0.43825
# Poissons Ratio (z) = 0.12508 0.12508
#
# Static dielectric constant tensor:
#      x y z
#    x 3.208750 0.000000 0.000000 
#    y 0.000000 3.208750 0.000000 
#    z 0.000000 0.000000 3.780660 
# 
# 
# High freq. dielectric constant tensor:
#      x y z
#    x 1.674850 0.000000 0.000000 
#    y 0.000000 1.674850 0.000000 
#    z 0.000000 0.000000 1.690550 
# 
# From -- ./inp_files/8956.got.cif
#   From: 2010.03.12/outbox.cif.g09.slc.cpg/sg193_5_cif.got.tgz:8956.got - 2010.04.01 12:20:39.
