data_PCOD8329768
_publ_section_title
;
Structure prediction by ZEFSAII (Michael W. Deem and Ramdas Pophale) SiO2 
 PCOD8329768
Probable space group: P 63/M C M
;
_chemical_formula_sum "Si O2"
_cell_formula_units_Z 168
_cell_length_a 30.378510
_cell_length_b 30.378510
_cell_length_c 15.208523
_cell_angle_alpha 90.000000
_cell_angle_beta 90.000000
_cell_angle_gamma 120.000000
_cell_volume 12154.878116
_symmetry_space_group_name_H-M "P 63/M C M"
_symmetry_group_IT_number 193
_symmetry_cell_setting 'hexagonal'
loop_
_space_group_symop_operation_xyz
x,y,z
x-y,x,1/2+z
-y,x-y,z
-x,-y,1/2+z
-x+y,-x,z
y,-x+y,1/2+z
x-y,-y,1/2-z
-x,-x+y,1/2-z
y,x,1/2-z
-y,-x,-z
-x+y,y,-z
x,x-y,-z
-x,-y,-z
-x+y,-x,1/2-z
y,-x+y,-z
x,y,1/2-z
x-y,x,-z
-y,x-y,1/2-z
-x+y,y,1/2+z
x,x-y,1/2+z
-y,-x,1/2+z
y,x,z
x-y,-y,z
-x,-x+y,z
loop_
_atom_site_type_symbol
_atom_site_label
_atom_site_fract_x
_atom_site_fract_y
_atom_site_fract_z
Si Si1 0.060669 0.624690 0.651808
Si Si2 0.060669 0.624690 0.348192
Si Si3 0.155620 0.943141 0.149802
Si Si4 0.056859 0.212479 0.649801
Si Si5 0.905019 0.196253 0.500000
Si Si6 0.371273 0.310960 0.500000
Si Si7 0.527668 0.472332 0.146060
O O1 0.079875 0.646484 0.750000
O O2 0.078586 0.671467 0.585706
O O3 0.083164 0.587849 0.620726
O O4 0.000000 0.590297 0.651134
O O5 0.079875 0.646485 0.250000
O O6 0.078586 0.671467 0.414294
O O7 0.083164 0.587849 0.379273
O O8 0.000000 0.590297 0.348865
O O9 0.169240 0.936998 0.250000
O O10 0.096304 0.903696 0.129057
O O11 0.191437 0.932449 0.086938
O O12 0.165850 0.000000 0.133048
O O13 0.063001 0.232241 0.750000
O O14 0.067551 0.258988 0.586938
O O15 0.000000 0.165850 0.633047
O O16 0.845778 0.154223 0.500000
O O17 0.909383 0.250534 0.500000
O O18 0.332541 0.332541 0.500000
O O19 0.524148 0.475853 0.250000
O O20 0.500000 0.500000 0.100232
#
# Coordination Sequence:
#
# PCOD8329768 Si02
#       7
#    24  24  24  24  24  24  24
#     4   8  14  23  34  50  72  95 117 143 174 206
#     4   8  14  23  34  50  72  95 117 143 174 206
#     4   9  17  29  45  62  77  94 116 143 180 228
#     4   9  17  29  45  62  77  94 116 143 180 228
#     4  10  20  32  42  53  72  97 126 159 191 222
#     4  10  18  25  36  54  70  87 117 155 192 219
#     4   7  10  19  33  47  68  97 121 138 163 201
#
# _framework density 13.821611000000001
#
# number of rings (size 3 to 8) (size 9 to 14) (size 15 to 20)
#    0.000    3.286    0.000    3.000    0.000    1.714 
#    0.000    5.714    0.000    0.286    0.000    2.000 
#    0.000    3.429    0.000    0.286    0.000    0.000 
#
# Total GULP energy -2081197.856998 kJ/mol
# GULP energy per Si atom -12388.082482 kJ/mol
# Density = 1.379015 g / cm^3
# Si number density = 13.821611 Si / 1000 Ang^3
#
#
#
# Elastic Constant Matrix: (Units=GPa)
#
#
# Indices 1 2 3 4 5 6 
#
# 1 83.4292 41.4875 42.4932 0.0000 0.0000 0.0000
# 2 41.4875 83.4292 42.4932 0.0000 0.0000 0.0000
# 3 42.4932 42.4932 85.9795 0.0000 0.0000 0.0000
# 4 0.0000 0.0000 0.0000 16.2937 0.0000 0.0000
# 5 0.0000 0.0000 0.0000 0.0000 16.2937 0.0000
# 6 0.0000 0.0000 0.0000 0.0000 0.0000 20.9709
#
#
#
# Elastic Compliance Matrix: (Units=1/GPa)
#
#
# Indices 1 2 3 4 5 6 
#
# 1 0.017952 -0.005891 -0.005961 0.000000 0.000000 0.000000
# 2 -0.005891 0.017952 -0.005961 0.000000 0.000000 0.000000
# 3 -0.005961 -0.005961 0.017522 0.000000 0.000000 0.000000
# 4 0.000000 0.000000 0.000000 0.061373 0.000000 0.000000
# 5 0.000000 0.000000 0.000000 0.000000 0.061373 0.000000
# 6 0.000000 0.000000 0.000000 0.000000 0.000000 0.047685
#
#
# Mechanical properties :
#
#
# Convention : Reuss Voigt Hill
#
# Bulk Modulus (GPa) = 56.17625 56.19840 56.18733
# Shear Modulus (GPa) = 18.83835 19.13593 18.98714
#
# Velocity S-wave (km/s) = 3.69584 3.72491 3.71041
# Velocity P-wave (km/s) = 7.67752 7.69728 7.68740
#
# Compressibility (1/GPa) = 0.01780112
#
# Stress axis : x y z
#
# Youngs Moduli (GPa) = 55.70527 55.70527 57.06953
#
# Poissons Ratio (x) = 0.32816 0.34017
# Poissons Ratio (y) = 0.32816 0.34017
# Poissons Ratio (z) = 0.33204 0.33204
#
# Static dielectric constant tensor:
#      x y z
#    x 2.557930 0.000000 0.000000 
#    y 0.000000 2.557930 0.000000 
#    z 0.000000 0.000000 2.958960 
# 
# 
# High freq. dielectric constant tensor:
#      x y z
#    x 1.489690 0.000000 0.000000 
#    y 0.000000 1.489690 0.000000 
#    z 0.000000 0.000000 1.543300 
# 
# From -- ./inp_files/4431.got.cif
#   From: 2010.03.12/outbox.cif.g09.slc.cpg/sg193_3_cif.got.tgz:4431.got - 2010.04.01 12:20:39.
