data_PCOD8329725
_publ_section_title
;
Structure prediction by ZEFSAII (Michael W. Deem and Ramdas Pophale) SiO2 
 PCOD8329725
Probable space group: P 6/M C C
;
_chemical_formula_sum "Si O2"
_cell_formula_units_Z 132
_cell_length_a 17.271053
_cell_length_b 17.271053
_cell_length_c 24.188773
_cell_angle_alpha 90.000000
_cell_angle_beta 90.000000
_cell_angle_gamma 120.000000
_cell_volume 6248.591078
_symmetry_space_group_name_H-M "P 6/M C C"
_symmetry_group_IT_number 192
_symmetry_cell_setting 'hexagonal'
loop_
_space_group_symop_operation_xyz
x,y,z
x-y,x,z
-y,x-y,z
-x,-y,z
-x+y,-x,z
y,-x+y,z
x-y,-y,1/2-z
-x,-x+y,1/2-z
y,x,1/2-z
-y,-x,1/2-z
-x+y,y,1/2-z
x,x-y,1/2-z
-x,-y,-z
-x+y,-x,-z
y,-x+y,-z
x,y,-z
x-y,x,-z
-y,x-y,-z
-x+y,y,1/2+z
x,x-y,1/2+z
-y,-x,1/2+z
y,x,1/2+z
x-y,-y,1/2+z
-x,-x+y,1/2+z
loop_
_atom_site_type_symbol
_atom_site_label
_atom_site_fract_x
_atom_site_fract_y
_atom_site_fract_z
Si Si1 0.158092 0.480602 0.890581
Si Si2 0.015849 0.189564 0.500000
Si Si3 0.166018 0.656719 0.935932
Si Si4 0.504113 0.837319 0.736768
Si Si5 0.681833 0.920441 0.215802
Si Si6 0.315386 0.297265 0.593508
O O1 0.145528 0.562450 0.910189
O O2 0.258011 0.505928 0.907140
O O3 0.145069 0.466206 0.825971
O O4 0.082808 0.382021 0.910680
O O5 0.096254 0.170151 0.500000
O O6 0.022268 0.244570 0.554171
O O7 0.077894 0.662924 0.928553
O O8 0.189992 0.657930 0.000000
O O9 0.431607 0.863213 0.750000
O O10 0.467773 0.733887 0.750000
O O11 0.583841 0.907132 0.776008
O O12 0.674209 0.837105 0.250000
O O13 0.701186 0.941866 0.150788
O O14 0.759222 0.000000 0.250000
#
# Coordination Sequence:
#
# PCOD8329725 Si02
#       6
#    24  12  24  24  24  24
#     4  12  25  44  67  99 144 189 246 302 365 435
#     4  12  29  50  79 106 142 184 232 294 359 436
#     4  12  26  43  66  98 140 195 248 304 364 429
#     4  11  22  39  64  97 137 184 230 285 348 412
#     4  11  24  44  69 102 136 174 223 282 354 426
#     4  12  26  46  74 106 141 186 240 298 365 436
#
# _framework density 21.124762
#
# number of rings (size 3 to 8) (size 9 to 14) (size 15 to 20)
#    0.000    0.364    2.727    7.182    5.091    1.091 
#    0.000    0.000    0.000    0.182    0.000    0.000 
#    0.000    0.000    0.000    0.000    0.000    0.000 
#
# Total GULP energy -1635625.347902 kJ/mol
# GULP energy per Si atom -12391.101120 kJ/mol
# Density = 2.107668 g / cm^3
# Si number density = 21.124762 Si / 1000 Ang^3
#
#
#
# Elastic Constant Matrix: (Units=GPa)
#
#
# Indices 1 2 3 4 5 6 
#
# 1 92.1090 38.4680 53.2025 0.0000 0.0000 0.0000
# 2 38.4680 92.1090 53.2025 0.0000 0.0000 0.0000
# 3 53.2025 53.2025 152.9547 0.0000 0.0000 0.0000
# 4 0.0000 0.0000 0.0000 29.8798 0.0000 0.0000
# 5 0.0000 0.0000 0.0000 0.0000 29.8798 0.0000
# 6 0.0000 0.0000 0.0000 0.0000 0.0000 26.8205
#
#
#
# Elastic Compliance Matrix: (Units=1/GPa)
#
#
# Indices 1 2 3 4 5 6 
#
# 1 0.014665 -0.003977 -0.003718 0.000000 0.000000 0.000000
# 2 -0.003977 0.014665 -0.003718 0.000000 0.000000 0.000000
# 3 -0.003718 -0.003718 0.009124 0.000000 0.000000 0.000000
# 4 0.000000 0.000000 0.000000 0.033467 0.000000 0.000000
# 5 0.000000 0.000000 0.000000 0.000000 0.033467 0.000000
# 6 0.000000 0.000000 0.000000 0.000000 0.000000 0.037285
#
#
# Mechanical properties :
#
#
# Convention : Reuss Voigt Hill
#
# Bulk Modulus (GPa) = 63.98239 69.65762 66.82001
# Shear Modulus (GPa) = 29.28967 30.13597 29.71282
#
# Velocity S-wave (km/s) = 3.72762 3.78109 3.75446
# Velocity P-wave (km/s) = 6.99146 7.21860 7.10594
#
# Compressibility (1/GPa) = 0.01562930
#
# Stress axis : x y z
#
# Youngs Moduli (GPa) = 68.18928 68.18928 109.60088
#
# Poissons Ratio (x) = 0.27122 0.40744
# Poissons Ratio (y) = 0.27122 0.40744
# Poissons Ratio (z) = 0.25349 0.25349
#
# Static dielectric constant tensor:
#      x y z
#    x 4.194860 0.000000 0.000000 
#    y 0.000000 4.194860 0.000000 
#    z 0.000000 0.000000 4.172930 
# 
# 
# High freq. dielectric constant tensor:
#      x y z
#    x 1.835260 0.000000 0.000000 
#    y 0.000000 1.835260 0.000000 
#    z 0.000000 0.000000 1.848260 
# 
# From -- ./inp_files/5820.got.cif
#   From: 2010.03.12/outbox.cif.g09.slc.cpg/sg192_3_cif.got.tgz:5820.got - 2010.04.01 12:16:15.
