data_PCOD8329097
_publ_section_title
;
Structure prediction by ZEFSAII (Michael W. Deem and Ramdas Pophale) SiO2 
 PCOD8329097
Probable space group: P 6/M M M
;
_chemical_formula_sum "Si O2"
_cell_formula_units_Z 156
_cell_length_a 21.025279
_cell_length_b 21.025279
_cell_length_c 23.050033
_cell_angle_alpha 90.000000
_cell_angle_beta 90.000000
_cell_angle_gamma 120.000000
_cell_volume 8824.410814
_symmetry_space_group_name_H-M "P 6/M M M"
_symmetry_group_IT_number 191
_symmetry_cell_setting 'hexagonal'
loop_
_space_group_symop_operation_xyz
x,y,z
x-y,x,z
-y,x-y,z
-x,-y,z
-x+y,-x,z
y,-x+y,z
x-y,-y,-z
-x,-x+y,-z
y,x,-z
-y,-x,-z
-x+y,y,-z
x,x-y,-z
-x,-y,-z
-x+y,-x,-z
y,-x+y,-z
x,y,-z
x-y,x,-z
-y,x-y,-z
-x+y,y,z
x,x-y,z
-y,-x,z
y,x,z
x-y,-y,z
-x,-x+y,z
loop_
_atom_site_type_symbol
_atom_site_label
_atom_site_fract_x
_atom_site_fract_y
_atom_site_fract_z
Si Si1 0.460669 0.158130 0.378877
Si Si2 0.193222 0.526943 0.064789
Si Si3 0.515703 0.331814 0.250012
Si Si4 0.692969 0.775589 0.566473
Si Si5 0.424451 0.084920 0.147425
Si Si6 0.082081 0.541041 0.432678
Si Si7 0.222723 0.303956 0.065453
O O1 0.482660 0.241330 0.396733
O O2 0.480689 0.155044 0.312582
O O3 0.374359 0.104182 0.389914
O O4 0.504381 0.130353 0.417307
O O5 0.253912 0.507823 0.089432
O O6 0.229170 0.614585 0.065310
O O7 0.120592 0.493207 0.103902
O O8 0.170728 0.495693 0.000000
O O9 0.535342 0.267671 0.239576
O O10 0.589781 0.410220 0.241840
O O11 0.450774 0.321634 0.207329
O O12 0.665239 0.753742 0.500000
O O13 0.725406 0.862703 0.576009
O O14 0.757009 0.757009 0.580736
O O15 0.363006 0.096006 0.115149
O O16 0.398306 0.000000 0.158646
O O17 0.068864 0.534432 0.500000
O O18 0.000000 0.500000 0.403098
O O19 0.137018 0.274036 0.075313
O O20 0.234869 0.234869 0.072892
O O21 0.246909 0.337616 0.000000
#
# Coordination Sequence:
#
# PCOD8329097 Si02
#       7
#    24  24  24  24  24  12  24
#     4  10  21  37  54  77 105 136 175 221 264 313
#     4  10  20  34  52  72  95 124 161 207 254 303
#     4  11  23  40  58  74  96 134 173 216 257 307
#     4   9  17  31  53  79 107 138 173 213 255 302
#     4  11  23  35  49  73 100 128 166 208 254 308
#     4  11  22  36  56  82 110 142 179 217 265 323
#     4   9  17  31  52  76 102 132 166 206 251 303
#
# _framework density 17.678234
#
# number of rings (size 3 to 8) (size 9 to 14) (size 15 to 20)
#    0.000    1.923    0.769    3.538    0.000    7.385 
#    0.462    2.308    0.000    0.308    0.000    2.154 
#    0.000    0.000    0.000    0.000    0.000   20.000 
#
# Total GULP energy -1933412.374438 kJ/mol
# GULP energy per Si atom -12393.669067 kJ/mol
# Density = 1.763800 g / cm^3
# Si number density = 17.678234 Si / 1000 Ang^3
#
#
#
# Elastic Constant Matrix: (Units=GPa)
#
#
# Indices 1 2 3 4 5 6 
#
# 1 117.7476 69.9972 47.9746 0.0000 0.0000 0.0000
# 2 69.9972 117.7476 47.9746 0.0000 0.0000 0.0000
# 3 47.9746 47.9746 82.9152 0.0000 0.0000 0.0000
# 4 0.0000 0.0000 0.0000 19.0859 0.0000 0.0000
# 5 0.0000 0.0000 0.0000 0.0000 19.0859 0.0000
# 6 0.0000 0.0000 0.0000 0.0000 0.0000 23.8752
#
#
#
# Elastic Compliance Matrix: (Units=1/GPa)
#
#
# Indices 1 2 3 4 5 6 
#
# 1 0.014252 -0.006690 -0.004376 0.000000 0.000000 0.000000
# 2 -0.006690 0.014252 -0.004376 0.000000 0.000000 0.000000
# 3 -0.004376 -0.004376 0.017124 0.000000 0.000000 0.000000
# 4 0.000000 0.000000 0.000000 0.052395 0.000000 0.000000
# 5 0.000000 0.000000 0.000000 0.000000 0.052395 0.000000
# 6 0.000000 0.000000 0.000000 0.000000 0.000000 0.041884
#
#
# Mechanical properties :
#
#
# Convention : Reuss Voigt Hill
#
# Bulk Modulus (GPa) = 67.81292 72.25592 70.03442
# Shear Modulus (GPa) = 21.92013 22.57366 22.24689
#
# Velocity S-wave (km/s) = 3.52511 3.57728 3.55129
# Velocity P-wave (km/s) = 7.41697 7.61735 7.51783
#
# Compressibility (1/GPa) = 0.01474645
#
# Stress axis : x y z
#
# Youngs Moduli (GPa) = 70.16337 70.16337 58.39721
#
# Poissons Ratio (x) = 0.46938 0.25553
# Poissons Ratio (y) = 0.46938 0.25553
# Poissons Ratio (z) = 0.30702 0.30702
#
# Static dielectric constant tensor:
#      x y z
#    x 4.097310 0.000000 0.000000 
#    y 0.000000 4.097310 0.000000 
#    z 0.000000 0.000000 3.321930 
# 
# 
# High freq. dielectric constant tensor:
#      x y z
#    x 1.678720 0.000000 0.000000 
#    y 0.000000 1.678720 0.000000 
#    z 0.000000 0.000000 1.681410 
# 
# From -- ./inp_files/7717.got.cif
#   From: 2010.03.12/outbox.cif.g09.slc.cpg/sg191_4_cif.got.tgz:7717.got - 2010.04.01 12:09:02.
