data_PCOD8329966
_publ_section_title
;
Structure prediction by ZEFSAII (Michael W. Deem and Ramdas Pophale) SiO2 
 PCOD8329966
Probable space group: P 63/M C M
;
_chemical_formula_sum "Si O2"
_cell_formula_units_Z 56
_cell_length_a 12.803039
_cell_length_b 12.803039
_cell_length_c 20.416678
_cell_angle_alpha 90.000000
_cell_angle_beta 90.000000
_cell_angle_gamma 120.000000
_cell_volume 2898.290064
_symmetry_space_group_name_H-M "P 63/M C M"
_symmetry_group_IT_number 193
_symmetry_cell_setting 'hexagonal'
loop_
_space_group_symop_operation_xyz
x,y,z
x-y,x,1/2+z
-y,x-y,z
-x,-y,1/2+z
-x+y,-x,z
y,-x+y,1/2+z
x-y,-y,1/2-z
-x,-x+y,1/2-z
y,x,1/2-z
-y,-x,-z
-x+y,y,-z
x,x-y,-z
-x,-y,-z
-x+y,-x,1/2-z
y,-x+y,-z
x,y,1/2-z
x-y,x,-z
-y,x-y,1/2-z
-x+y,y,1/2+z
x,x-y,1/2+z
-y,-x,1/2+z
y,x,z
x-y,-y,z
-x,-x+y,z
loop_
_atom_site_type_symbol
_atom_site_label
_atom_site_fract_x
_atom_site_fract_y
_atom_site_fract_z
Si Si1 0.415717 0.274482 0.878494
Si Si2 0.333334 0.666666 0.579452
Si Si3 0.144675 0.858699 0.250000
Si Si4 0.859687 0.140314 0.000000
O O1 0.371543 0.371543 0.881797
O O2 0.558823 0.347901 0.889638
O O3 0.374221 0.198996 0.811741
O O4 0.362899 0.176948 0.936178
O O5 0.333334 0.666667 0.500000
O O6 0.000000 0.781386 0.250000
O O7 0.184360 0.000000 0.250000
O O8 0.000000 0.195289 0.001738
#
# Coordination Sequence:
#
# PCOD8329966 Si02
#       4
#    24   8  12  12
#     4  10  23  39  60  90 121 156 207 253 297 365
#     4  12  24  43  65  88 117 169 206 253 321 361
#     4  10  21  40  64  94 129 164 200 248 308 366
#     4  10  19  34  56  86 119 154 198 250 302 354
#
# _framework density 19.321738
#
# number of rings (size 3 to 8) (size 9 to 14) (size 15 to 20)
#    0.000    1.714    2.143    1.714    0.000    6.000 
#    0.000    6.429    0.000    0.000    0.000    0.000 
#    0.000    0.000    0.000    0.000    0.000    0.000 
#
# Total GULP energy -694452.229713 kJ/mol
# GULP energy per Si atom -12400.932673 kJ/mol
# Density = 1.927776 g / cm^3
# Si number density = 19.321738 Si / 1000 Ang^3
#
#
#
# Elastic Constant Matrix: (Units=GPa)
#
#
# Indices 1 2 3 4 5 6 
#
# 1 55.7153 47.2063 51.3111 -0.0001 -0.0001 0.0005
# 2 47.2063 55.7128 51.3109 0.0003 -0.0001 -0.0002
# 3 51.3111 51.3109 174.0768 0.0001 0.0000 -0.0001
# 4 -0.0001 0.0003 0.0001 33.9824 -0.0001 0.0000
# 5 -0.0001 -0.0001 0.0000 -0.0001 33.9828 0.0002
# 6 0.0005 -0.0002 -0.0001 0.0000 0.0002 4.2539
#
#
#
# Elastic Compliance Matrix: (Units=1/GPa)
#
#
# Indices 1 2 3 4 5 6 
#
# 1 0.065649 -0.051890 -0.004056 0.000001 0.000000 -0.000011
# 2 -0.051890 0.065652 -0.004057 -0.000001 0.000000 0.000009
# 3 -0.004056 -0.004057 0.008136 0.000000 0.000000 0.000000
# 4 0.000001 -0.000001 0.000000 0.029427 0.000000 0.000000
# 5 0.000000 0.000000 0.000000 0.000000 0.029427 -0.000001
# 6 -0.000011 0.000009 0.000000 0.000000 -0.000001 0.235077
#
#
# Mechanical properties :
#
#
# Convention : Reuss Voigt Hill
#
# Bulk Modulus (GPa) = 51.46002 65.01797 58.23900
# Shear Modulus (GPa) = 8.93099 23.48894 16.20996
#
# Velocity S-wave (km/s) = 2.15227 3.49043 2.89960
# Velocity P-wave (km/s) = 5.73301 7.06876 6.43564
#
# Compressibility (1/GPa) = 0.01943256
#
# Stress axis : x y z
#
# Youngs Moduli (GPa) = 15.23263 15.23176 122.91455
#
# Poissons Ratio (x) = 0.79037 0.49849
# Poissons Ratio (y) = 0.79042 0.49861
# Poissons Ratio (z) = 0.06178 0.06179
#
# Static dielectric constant tensor:
#      x y z
#    x 3.439740 0.000000 0.000000 
#    y 0.000000 3.439730 0.000000 
#    z 0.000000 0.000000 3.985130 
# 
# 
# High freq. dielectric constant tensor:
#      x y z
#    x 1.752020 0.000000 0.000000 
#    y 0.000000 1.752020 0.000000 
#    z 0.000000 0.000000 1.769650 
# 
# From -- ./inp_files/7005.got.cif
#   From: 2010.03.12/outbox.cif.g09.slc.cpg/sg193_4_cif.got.tgz:7005.got - 2010.04.01 12:20:39.
