data_PCOD8329790
_publ_section_title
;
Structure prediction by ZEFSAII (Michael W. Deem and Ramdas Pophale) SiO2 
 PCOD8329790
Probable space group: P 63/M C M
;
_chemical_formula_sum "Si O2"
_cell_formula_units_Z 108
_cell_length_a 16.409035
_cell_length_b 16.409035
_cell_length_c 28.833951
_cell_angle_alpha 90.000000
_cell_angle_beta 90.000000
_cell_angle_gamma 120.000000
_cell_volume 6723.584549
_symmetry_space_group_name_H-M "P 63/M C M"
_symmetry_group_IT_number 193
_symmetry_cell_setting 'hexagonal'
loop_
_space_group_symop_operation_xyz
x,y,z
x-y,x,1/2+z
-y,x-y,z
-x,-y,1/2+z
-x+y,-x,z
y,-x+y,1/2+z
x-y,-y,1/2-z
-x,-x+y,1/2-z
y,x,1/2-z
-y,-x,-z
-x+y,y,-z
x,x-y,-z
-x,-y,-z
-x+y,-x,1/2-z
y,-x+y,-z
x,y,1/2-z
x-y,x,-z
-y,x-y,1/2-z
-x+y,y,1/2+z
x,x-y,1/2+z
-y,-x,1/2+z
y,x,z
x-y,-y,z
-x,-x+y,z
loop_
_atom_site_type_symbol
_atom_site_label
_atom_site_fract_x
_atom_site_fract_y
_atom_site_fract_z
Si Si1 0.479646 0.148645 0.500000
Si Si2 0.786629 0.393315 0.250000
Si Si3 0.394396 0.288633 0.098389
Si Si4 0.555350 0.444649 0.346389
Si Si5 0.394396 0.105764 0.098389
O O1 0.562286 0.124572 0.500000
O O2 0.522297 0.261149 0.500000
O O3 0.414429 0.101946 0.544362
O O4 0.414429 0.101946 0.455637
O O5 0.720343 0.440687 0.250000
O O6 0.850631 0.425316 0.294871
O O7 0.316029 0.316029 0.114151
O O8 0.492125 0.347454 0.126354
O O9 0.355758 0.177879 0.107800
O O10 0.500000 0.500000 0.343499
O O11 0.652547 0.507876 0.373645
O O12 0.316028 0.000000 0.114151
#
# Coordination Sequence:
#
# PCOD8329790 Si02
#       5
#    24  12  24  24  24
#     4  10  18  29  44  69  98 128 160 191 232 278
#     4  10  21  32  46  64  94 126 158 190 225 270
#     4  10  20  32  49  69  96 126 160 199 240 284
#     4  10  19  33  50  69  91 124 159 199 236 280
#     4  10  20  32  49  69  96 126 160 199 240 284
#
# _framework density 16.062860000000001
#
# number of rings (size 3 to 8) (size 9 to 14) (size 15 to 20)
#    0.222    1.778    2.222    2.556    0.000    0.889 
#    1.333    0.000    0.000    0.444    0.000    0.000 
#    0.000    5.333    0.000    0.000    0.000   46.222 
#
# Total GULP energy -1338956.795736 kJ/mol
# GULP energy per Si atom -12397.748109 kJ/mol
# Density = 1.602630 g / cm^3
# Si number density = 16.062860 Si / 1000 Ang^3
#
#
#
# Elastic Constant Matrix: (Units=GPa)
#
#
# Indices 1 2 3 4 5 6 
#
# 1 67.0722 53.5185 14.0222 0.0000 0.0000 0.0000
# 2 53.5185 67.0722 14.0222 0.0000 0.0000 0.0000
# 3 14.0222 14.0222 98.9545 0.0000 0.0000 0.0000
# 4 0.0000 0.0000 0.0000 39.0756 0.0000 0.0000
# 5 0.0000 0.0000 0.0000 0.0000 39.0756 0.0000
# 6 0.0000 0.0000 0.0000 0.0000 0.0000 6.7768
#
#
#
# Elastic Compliance Matrix: (Units=1/GPa)
#
#
# Indices 1 2 3 4 5 6 
#
# 1 0.041178 -0.032603 -0.001215 0.000000 0.000000 0.000000
# 2 -0.032603 0.041178 -0.001215 0.000000 0.000000 0.000000
# 3 -0.001215 -0.001215 0.010450 0.000000 0.000000 0.000000
# 4 0.000000 0.000000 0.000000 0.025591 0.000000 0.000000
# 5 0.000000 0.000000 0.000000 0.000000 0.025591 0.000000
# 6 0.000000 0.000000 0.000000 0.000000 0.000000 0.147562
#
#
# Mechanical properties :
#
#
# Convention : Reuss Voigt Hill
#
# Bulk Modulus (GPa) = 43.97588 44.02497 44.00043
# Shear Modulus (GPa) = 13.54291 27.08801 20.31546
#
# Velocity S-wave (km/s) = 2.90680 4.11100 3.56019
# Velocity P-wave (km/s) = 6.22116 7.07116 6.65973
#
# Compressibility (1/GPa) = 0.02273974
#
# Stress axis : x y z
#
# Youngs Moduli (GPa) = 24.28482 24.28482 95.69353
#
# Poissons Ratio (x) = 0.79176 0.11628
# Poissons Ratio (y) = 0.79176 0.11628
# Poissons Ratio (z) = 0.02951 0.02951
#
# Static dielectric constant tensor:
#      x y z
#    x 2.970720 0.000000 0.000000 
#    y 0.000000 2.970720 0.000000 
#    z 0.000000 0.000000 3.835520 
# 
# 
# High freq. dielectric constant tensor:
#      x y z
#    x 1.603010 0.000000 0.000000 
#    y 0.000000 1.603010 0.000000 
#    z 0.000000 0.000000 1.618070 
# 
# From -- ./inp_files/8211.got.cif
#   From: 2010.03.12/outbox.cif.g09.slc.cpg/sg193_5_cif.got.tgz:8211.got - 2010.04.01 12:20:39.
