data_PCOD8329015
_publ_section_title
;
Structure prediction by ZEFSAII (Michael W. Deem and Ramdas Pophale) SiO2 
 PCOD8329015
Probable space group: P 6/M M M
;
_chemical_formula_sum "Si O2"
_cell_formula_units_Z 120
_cell_length_a 27.146466
_cell_length_b 27.146466
_cell_length_c 11.864094
_cell_angle_alpha 90.000000
_cell_angle_beta 90.000000
_cell_angle_gamma 120.000000
_cell_volume 7571.672319
_symmetry_space_group_name_H-M "P 6/M M M"
_symmetry_group_IT_number 191
_symmetry_cell_setting 'hexagonal'
loop_
_space_group_symop_operation_xyz
x,y,z
x-y,x,z
-y,x-y,z
-x,-y,z
-x+y,-x,z
y,-x+y,z
x-y,-y,-z
-x,-x+y,-z
y,x,-z
-y,-x,-z
-x+y,y,-z
x,x-y,-z
-x,-y,-z
-x+y,-x,-z
y,-x+y,-z
x,y,-z
x-y,x,-z
-y,x-y,-z
-x+y,y,z
x,x-y,z
-y,-x,z
y,x,z
x-y,-y,z
-x,-x+y,z
loop_
_atom_site_type_symbol
_atom_site_label
_atom_site_fract_x
_atom_site_fract_y
_atom_site_fract_z
Si Si1 0.667969 0.522176 0.317452
Si Si2 0.062023 0.588325 0.500000
Si Si3 0.361240 0.238558 0.624979
Si Si4 0.553271 0.219390 0.869196
Si Si5 0.555360 0.330770 0.500000
Si Si6 0.936865 0.172924 0.365466
O O1 0.617284 0.523643 0.383565
O O2 0.717478 0.587347 0.296574
O O3 0.652798 0.491244 0.196346
O O4 0.687218 0.485217 0.391741
O O5 0.053787 0.526894 0.500000
O O6 0.000000 0.583241 0.500000
O O7 0.370363 0.266560 0.500000
O O8 0.363077 0.181539 0.614084
O O9 0.299115 0.221611 0.675299
O O10 0.617493 0.234985 0.840136
O O11 0.546471 0.273236 0.834770
O O12 0.539803 0.204989 0.000000
O O13 0.602406 0.397595 0.500000
O O14 0.585928 0.292964 0.500000
O O15 0.934679 0.171880 0.500000
O O16 0.889858 0.110143 0.319471
O O17 0.000000 0.189802 0.321656
#
# Coordination Sequence:
#
# PCOD8329015 Si02
#       6
#    24  12  24  24  12  24
#     4  11  19  30  46  63  84 114 146 183 226 278
#     4  10  21  34  46  63  86 109 136 176 228 283
#     4   9  15  24  37  57  82 107 136 174 219 264
#     4  10  20  33  49  68  91 120 155 194 234 279
#     4  11  20  28  40  60  87 116 144 179 228 284
#     4   8  14  23  36  55  81 112 143 174 209 252
#
# _framework density 15.848546000000001
#
# number of rings (size 3 to 8) (size 9 to 14) (size 15 to 20)
#    0.000    2.300    2.000    5.700    0.000    1.600 
#    0.000    2.000    0.000    0.800    0.000    4.200 
#    0.000    0.000    0.000    0.000    0.000    0.200 
#
# Total GULP energy -1486869.239522 kJ/mol
# GULP energy per Si atom -12390.576996 kJ/mol
# Density = 1.581247 g / cm^3
# Si number density = 15.848546 Si / 1000 Ang^3
#
#
#
# Elastic Constant Matrix: (Units=GPa)
#
#
# Indices 1 2 3 4 5 6 
#
# 1 95.8502 54.4681 29.7798 0.0000 0.0000 0.0000
# 2 54.4681 95.8502 29.7798 0.0000 0.0000 0.0000
# 3 29.7798 29.7798 51.4480 0.0000 0.0000 0.0000
# 4 0.0000 0.0000 0.0000 -16.5687 0.0000 0.0000
# 5 0.0000 0.0000 0.0000 0.0000 -16.5687 0.0000
# 6 0.0000 0.0000 0.0000 0.0000 0.0000 20.6910
#
#
#
# Elastic Compliance Matrix: (Units=1/GPa)
#
#
# Indices 1 2 3 4 5 6 
#
# 1 0.016399 -0.007766 -0.004997 0.000000 0.000000 0.000000
# 2 -0.007766 0.016399 -0.004997 0.000000 0.000000 0.000000
# 3 -0.004997 -0.004997 0.025222 0.000000 0.000000 0.000000
# 4 0.000000 0.000000 0.000000 -0.060355 0.000000 0.000000
# 5 0.000000 0.000000 0.000000 0.000000 -0.060355 0.000000
# 6 0.000000 0.000000 0.000000 0.000000 0.000000 0.048330
#
#
# Mechanical properties :
#
#
# Convention : Reuss Voigt Hill
#
# Bulk Modulus (GPa) = 44.44534 52.35598 48.40066
# Shear Modulus (GPa) = 174.46624 6.11877 90.29250
#
# Velocity S-wave (km/s) = 10.50345 1.96702 7.55618
# Velocity P-wave (km/s) = 13.23636 6.18593 10.33119
#
# Compressibility (1/GPa) = 0.02249955
#
# Stress axis : x y z
#
# Youngs Moduli (GPa) = 60.98039 60.98039 39.64854
#
# Poissons Ratio (x) = 0.47360 0.19811
# Poissons Ratio (y) = 0.47360 0.19811
# Poissons Ratio (z) = 0.30470 0.30470
#
# Static dielectric constant tensor:
#      x y z
#    x 3.183660 0.000000 0.000000 
#    y 0.000000 3.183660 0.000000 
#    z 0.000000 0.000000 2.660980 
# 
# 
# High freq. dielectric constant tensor:
#      x y z
#    x 1.606020 0.000000 0.000000 
#    y 0.000000 1.606020 0.000000 
#    z 0.000000 0.000000 1.549810 
# 
# From -- ./inp_files/3260.got.cif
#   From: 2010.03.12/outbox.cif.g09.slc.cpg/sg191_2_cif.got.tgz:3260.got - 2010.04.01 12:09:02.
