data_PCOD8329500
_publ_section_title
;
Structure prediction by ZEFSAII (Michael W. Deem and Ramdas Pophale) SiO2 
 PCOD8329500
Probable space group: P 6/M C C
;
_chemical_formula_sum "Si O2"
_cell_formula_units_Z 92
_cell_length_a 17.784111
_cell_length_b 17.784111
_cell_length_c 17.462711
_cell_angle_alpha 90.000000
_cell_angle_beta 90.000000
_cell_angle_gamma 120.000000
_cell_volume 4783.068704
_symmetry_space_group_name_H-M "P 6/M C C"
_symmetry_group_IT_number 192
_symmetry_cell_setting 'hexagonal'
loop_
_space_group_symop_operation_xyz
x,y,z
x-y,x,z
-y,x-y,z
-x,-y,z
-x+y,-x,z
y,-x+y,z
x-y,-y,1/2-z
-x,-x+y,1/2-z
y,x,1/2-z
-y,-x,1/2-z
-x+y,y,1/2-z
x,x-y,1/2-z
-x,-y,-z
-x+y,-x,-z
y,-x+y,-z
x,y,-z
x-y,x,-z
-y,x-y,-z
-x+y,y,1/2+z
x,x-y,1/2+z
-y,-x,1/2+z
y,x,1/2+z
x-y,-y,1/2+z
-x,-x+y,1/2+z
loop_
_atom_site_type_symbol
_atom_site_label
_atom_site_fract_x
_atom_site_fract_y
_atom_site_fract_z
Si Si1 0.736824 0.510498 0.162150
Si Si2 0.447302 0.397829 0.410198
Si Si3 0.804446 0.948934 0.500000
Si Si4 0.643935 0.738734 0.084321
Si Si5 0.333334 0.666668 0.589459
O O1 0.747022 0.494044 0.250000
O O2 0.650812 0.515716 0.142314
O O3 0.822032 0.599004 0.138230
O O4 0.733340 0.429879 0.118090
O O5 0.500000 0.500000 0.393764
O O6 0.452279 0.376783 0.500000
O O7 0.348875 0.363052 0.382805
O O8 0.840882 0.884597 0.500000
O O9 0.745440 0.933734 0.424292
O O10 0.598426 0.717625 0.000000
O O11 0.333334 0.666668 0.500000
#
# Coordination Sequence:
#
# PCOD8329500 Si02
#       5
#    24  24  12  24   8
#     4  12  24  39  59  89 128 159 205 259 318 373
#     4  10  20  37  62  88 117 161 213 256 305 368
#     4  10  19  34  59  88 116 146 192 248 298 354
#     4   9  20  36  60  85 114 159 201 249 300 366
#     4  12  25  41  61  81 115 170 217 252 298 353
#
# _framework density 19.234514000000001
#
# number of rings (size 3 to 8) (size 9 to 14) (size 15 to 20)
#    0.783    0.783    0.000    6.391    0.000    3.130 
#    0.000    1.304    0.000    0.000    0.000    0.000 
#    0.000    2.087    0.000    0.000    0.000    0.000 
#
# Total GULP energy -1140667.940504 kJ/mol
# GULP energy per Si atom -12398.564571 kJ/mol
# Density = 1.919074 g / cm^3
# Si number density = 19.234514 Si / 1000 Ang^3
#
#
#
# Elastic Constant Matrix: (Units=GPa)
#
#
# Indices 1 2 3 4 5 6 
#
# 1 141.0538 63.2059 47.9268 0.0001 0.0002 0.0000
# 2 63.2059 141.0527 47.9274 0.0000 -0.0001 0.0000
# 3 47.9268 47.9274 105.3547 -0.0001 0.0001 0.0002
# 4 0.0001 0.0000 -0.0001 17.7080 0.0000 0.0001
# 5 0.0002 -0.0001 0.0001 0.0000 17.7079 0.0000
# 6 0.0000 0.0000 0.0002 0.0001 0.0000 38.9249
#
#
#
# Elastic Compliance Matrix: (Units=1/GPa)
#
#
# Indices 1 2 3 4 5 6 
#
# 1 0.009535 -0.003311 -0.002832 0.000000 0.000000 0.000000
# 2 -0.003311 0.009535 -0.002832 0.000000 0.000000 0.000000
# 3 -0.002832 -0.002832 0.012068 0.000000 0.000000 0.000000
# 4 0.000000 0.000000 0.000000 0.056472 0.000000 0.000000
# 5 0.000000 0.000000 0.000000 0.000000 0.056472 0.000000
# 6 0.000000 0.000000 0.000000 0.000000 0.000000 0.025690
#
#
# Mechanical properties :
#
#
# Convention : Reuss Voigt Hill
#
# Bulk Modulus (GPa) = 75.81134 78.39794 77.10464
# Shear Modulus (GPa) = 26.02584 30.09491 28.06037
#
# Velocity S-wave (km/s) = 3.68241 3.95983 3.82364
# Velocity P-wave (km/s) = 7.58815 7.85840 7.72446
#
# Compressibility (1/GPa) = 0.01319064
#
# Stress axis : x y z
#
# Youngs Moduli (GPa) = 104.87630 104.87480 82.86362
#
# Poissons Ratio (x) = 0.34719 0.23463
# Poissons Ratio (y) = 0.34720 0.23464
# Poissons Ratio (z) = 0.29696 0.29697
#
# Static dielectric constant tensor:
#      x y z
#    x 3.488660 0.000000 0.000000 
#    y 0.000000 3.488660 0.000000 
#    z 0.000000 0.000000 3.223680 
# 
# 
# High freq. dielectric constant tensor:
#      x y z
#    x 1.755850 0.000000 0.000000 
#    y 0.000000 1.755850 0.000000 
#    z 0.000000 0.000000 1.714010 
# 
# From -- ./inp_files/4023.got.cif
#   From: 2010.03.12/outbox.cif.g09.slc.cpg/sg192_3_cif.got.tgz:4023.got - 2010.04.01 12:16:15.
