data_PCOD8329871
_publ_section_title
;
Structure prediction by ZEFSAII (Michael W. Deem and Ramdas Pophale) SiO2 
 PCOD8329871
Probable space group: P 63/M C M
;
_chemical_formula_sum "Si O2"
_cell_formula_units_Z 144
_cell_length_a 32.198610
_cell_length_b 32.198610
_cell_length_c 8.889099
_cell_angle_alpha 90.000000
_cell_angle_beta 90.000000
_cell_angle_gamma 120.000000
_cell_volume 7981.097611
_symmetry_space_group_name_H-M "P 63/M C M"
_symmetry_group_IT_number 193
_symmetry_cell_setting 'hexagonal'
loop_
_space_group_symop_operation_xyz
x,y,z
x-y,x,1/2+z
-y,x-y,z
-x,-y,1/2+z
-x+y,-x,z
y,-x+y,1/2+z
x-y,-y,1/2-z
-x,-x+y,1/2-z
y,x,1/2-z
-y,-x,-z
-x+y,y,-z
x,x-y,-z
-x,-y,-z
-x+y,-x,1/2-z
y,-x+y,-z
x,y,1/2-z
x-y,x,-z
-y,x-y,1/2-z
-x+y,y,1/2+z
x,x-y,1/2+z
-y,-x,1/2+z
y,x,z
x-y,-y,z
-x,-x+y,z
loop_
_atom_site_type_symbol
_atom_site_label
_atom_site_fract_x
_atom_site_fract_y
_atom_site_fract_z
Si Si1 0.611089 0.054893 0.075021
Si Si2 0.860876 0.054024 0.927599
Si Si3 0.302139 0.193456 0.926155
Si Si4 0.142465 0.527776 0.428601
Si Si5 0.716734 0.195212 0.074156
Si Si6 0.280928 0.381774 0.421775
O O1 0.610609 0.068092 0.250000
O O2 0.664014 0.064823 0.033166
O O3 0.572704 0.000000 0.040027
O O4 0.597573 0.087771 0.975518
O O5 0.866966 0.056559 0.750000
O O6 0.824422 0.072199 0.977945
O O7 0.839696 0.000000 0.987278
O O8 0.912982 0.087019 0.000000
O O9 0.305738 0.189679 0.750000
O O10 0.321105 0.160553 0.000000
O O11 0.335770 0.248156 0.976439
O O12 0.157992 0.578996 0.500000
O O13 0.146107 0.531502 0.250000
O O14 0.179061 0.512271 0.492497
O O15 0.711379 0.202662 0.250000
O O16 0.732139 0.155343 0.048797
O O17 0.755633 0.244368 0.000000
O O18 0.271477 0.364723 0.250000
#
# Coordination Sequence:
#
# PCOD8329871 Si02
#       6
#    24  24  24  24  24  24
#     4   9  19  36  54  73 101 137 177 221 266 310
#     4   9  19  35  52  72  98 126 159 200 244 291
#     4  10  19  30  46  68  97 132 167 203 243 289
#     4  11  22  37  57  80 106 137 174 217 264 314
#     4  10  20  35  55  80 108 138 173 213 259 309
#     4   9  18  31  48  72 103 137 173 213 253 295
#
# _framework density 18.042631
#
# number of rings (size 3 to 8) (size 9 to 14) (size 15 to 20)
#    0.000    2.333    0.000    4.000    0.000    7.000 
#    0.000    0.000    0.000    0.500    0.000    2.333 
#    0.000    0.000    0.000    0.000    0.000    0.000 
#
# Total GULP energy -1785968.655977 kJ/mol
# GULP energy per Si atom -12402.560111 kJ/mol
# Density = 1.800157 g / cm^3
# Si number density = 18.042631 Si / 1000 Ang^3
#
#
#
# Elastic Constant Matrix: (Units=GPa)
#
#
# Indices 1 2 3 4 5 6 
#
# 1 89.5760 49.5326 45.2367 0.0000 0.0000 0.0000
# 2 49.5326 89.5760 45.2367 0.0000 0.0000 0.0000
# 3 45.2367 45.2367 95.7998 0.0000 0.0000 0.0000
# 4 0.0000 0.0000 0.0000 30.2656 0.0000 0.0000
# 5 0.0000 0.0000 0.0000 0.0000 30.2656 0.0000
# 6 0.0000 0.0000 0.0000 0.0000 0.0000 20.0217
#
#
#
# Elastic Compliance Matrix: (Units=1/GPa)
#
#
# Indices 1 2 3 4 5 6 
#
# 1 0.017674 -0.007299 -0.004899 0.000000 0.000000 0.000000
# 2 -0.007299 0.017674 -0.004899 0.000000 0.000000 0.000000
# 3 -0.004899 -0.004899 0.015065 0.000000 0.000000 0.000000
# 4 0.000000 0.000000 0.000000 0.033041 0.000000 0.000000
# 5 0.000000 0.000000 0.000000 0.000000 0.033041 0.000000
# 6 0.000000 0.000000 0.000000 0.000000 0.000000 0.049946
#
#
# Mechanical properties :
#
#
# Convention : Reuss Voigt Hill
#
# Bulk Modulus (GPa) = 61.65711 61.66263 61.65987
# Shear Modulus (GPa) = 24.26707 25.10697 24.68702
#
# Velocity S-wave (km/s) = 3.67138 3.73438 3.70301
# Velocity P-wave (km/s) = 7.22629 7.26941 7.24788
#
# Compressibility (1/GPa) = 0.01621873
#
# Stress axis : x y z
#
# Youngs Moduli (GPa) = 56.58074 56.58074 66.37878
#
# Poissons Ratio (x) = 0.41298 0.32519
# Poissons Ratio (y) = 0.41298 0.32519
# Poissons Ratio (z) = 0.27719 0.27719
#
# Static dielectric constant tensor:
#      x y z
#    x 3.283460 0.000000 0.000000 
#    y 0.000000 3.283460 0.000000 
#    z 0.000000 0.000000 3.300360 
# 
# 
# High freq. dielectric constant tensor:
#      x y z
#    x 1.690140 0.000000 0.000000 
#    y 0.000000 1.690140 0.000000 
#    z 0.000000 0.000000 1.702240 
# 
# From -- ./inp_files/1550.got.cif
#   From: 2010.03.12/outbox.cif.g09.slc.cpg/sg193_1_cif.got.tgz:1550.got - 2010.04.01 12:20:39.
