data_PCOD8329576
_publ_section_title
;
Structure prediction by ZEFSAII (Michael W. Deem and Ramdas Pophale) SiO2 
 PCOD8329576
Probable space group: P 6/M C C
;
_chemical_formula_sum "Si O2"
_cell_formula_units_Z 144
_cell_length_a 32.458937
_cell_length_b 32.458937
_cell_length_c 8.556762
_cell_angle_alpha 90.000000
_cell_angle_beta 90.000000
_cell_angle_gamma 120.000000
_cell_volume 7807.440267
_symmetry_space_group_name_H-M "P 6/M C C"
_symmetry_group_IT_number 192
_symmetry_cell_setting 'hexagonal'
loop_
_space_group_symop_operation_xyz
x,y,z
x-y,x,z
-y,x-y,z
-x,-y,z
-x+y,-x,z
y,-x+y,z
x-y,-y,1/2-z
-x,-x+y,1/2-z
y,x,1/2-z
-y,-x,1/2-z
-x+y,y,1/2-z
x,x-y,1/2-z
-x,-y,-z
-x+y,-x,-z
y,-x+y,-z
x,y,-z
x-y,x,-z
-y,x-y,-z
-x+y,y,1/2+z
x,x-y,1/2+z
-y,-x,1/2+z
y,x,1/2+z
x-y,-y,1/2+z
-x,-x+y,1/2+z
loop_
_atom_site_type_symbol
_atom_site_label
_atom_site_fract_x
_atom_site_fract_y
_atom_site_fract_z
Si Si1 0.381900 0.102374 0.184451
Si Si2 0.473311 0.614134 0.182298
Si Si3 0.948867 0.140397 0.185393
Si Si4 0.050349 0.617841 0.314434
Si Si5 0.191176 0.293932 0.684843
Si Si6 0.191938 0.471001 0.815134
O O1 0.395477 0.063327 0.237477
O O2 0.332362 0.088043 0.266955
O O3 0.421282 0.155092 0.236568
O O4 0.375550 0.101015 0.000000
O O5 0.422126 0.577874 0.250000
O O6 0.514096 0.602831 0.239540
O O7 0.488411 0.667762 0.232517
O O8 0.468390 0.608496 0.000000
O O9 0.911302 0.088699 0.250000
O O10 0.935934 0.179650 0.243460
O O11 0.000000 0.153010 0.250000
O O12 0.948542 0.139386 0.000000
O O13 0.050017 0.623024 0.500000
O O14 0.000000 0.577270 0.250000
O O15 0.155159 0.310317 0.750000
O O16 0.185948 0.288925 0.500000
O O17 0.244295 0.488589 0.750000
O O18 0.189093 0.463164 0.000000
#
# Coordination Sequence:
#
# PCOD8329576 Si02
#       6
#    24  24  24  24  24  24
#     4  11  21  34  52  76 106 144 182 222 266 312
#     4   9  20  36  55  78 106 135 172 216 263 316
#     4  11  22  39  60  85 112 143 180 221 265 315
#     4  10  21  37  53  75 104 138 179 224 267 314
#     4  11  21  35  53  77 108 143 180 221 262 310
#     4  10  20  35  54  80 108 138 174 217 264 318
#
# _framework density 18.443944999999999
#
# number of rings (size 3 to 8) (size 9 to 14) (size 15 to 20)
#    0.000    1.667    0.000    8.000    0.000    5.000 
#    0.000    5.000    0.000    0.500    0.000    1.167 
#    0.000    0.000    0.000    0.000    0.000    0.000 
#
# Total GULP energy -1786092.564246 kJ/mol
# GULP energy per Si atom -12403.420585 kJ/mol
# Density = 1.840197 g / cm^3
# Si number density = 18.443945 Si / 1000 Ang^3
#
#
#
# Elastic Constant Matrix: (Units=GPa)
#
#
# Indices 1 2 3 4 5 6 
#
# 1 106.0156 58.2420 37.8035 0.0000 0.0000 0.0000
# 2 58.2420 106.0156 37.8035 0.0000 0.0000 0.0000
# 3 37.8035 37.8035 126.9818 0.0000 0.0000 0.0000
# 4 0.0000 0.0000 0.0000 32.0469 0.0000 0.0000
# 5 0.0000 0.0000 0.0000 0.0000 32.0469 0.0000
# 6 0.0000 0.0000 0.0000 0.0000 0.0000 23.8868
#
#
#
# Elastic Compliance Matrix: (Units=1/GPa)
#
#
# Indices 1 2 3 4 5 6 
#
# 1 0.013993 -0.006939 -0.002100 0.000000 0.000000 0.000000
# 2 -0.006939 0.013993 -0.002100 0.000000 0.000000 0.000000
# 3 -0.002100 -0.002100 0.009126 0.000000 0.000000 0.000000
# 4 0.000000 0.000000 0.000000 0.031204 0.000000 0.000000
# 5 0.000000 0.000000 0.000000 0.000000 0.031204 0.000000
# 6 0.000000 0.000000 0.000000 0.000000 0.000000 0.041864
#
#
# Mechanical properties :
#
#
# Convention : Reuss Voigt Hill
#
# Bulk Modulus (GPa) = 67.41211 67.41234 67.41222
# Shear Modulus (GPa) = 29.65455 31.27371 30.46413
#
# Velocity S-wave (km/s) = 4.01411 4.12224 4.06854
# Velocity P-wave (km/s) = 7.62320 7.69977 7.66158
#
# Compressibility (1/GPa) = 0.01483413
#
# Stress axis : x y z
#
# Youngs Moduli (GPa) = 71.46230 71.46230 109.58100
#
# Poissons Ratio (x) = 0.49585 0.23015
# Poissons Ratio (y) = 0.49585 0.23015
# Poissons Ratio (z) = 0.15009 0.15009
#
# Static dielectric constant tensor:
#      x y z
#    x 3.236700 0.000000 0.000000 
#    y 0.000000 3.236700 0.000000 
#    z 0.000000 0.000000 3.489570 
# 
# 
# High freq. dielectric constant tensor:
#      x y z
#    x 1.707640 0.000000 0.000000 
#    y 0.000000 1.707640 0.000000 
#    z 0.000000 0.000000 1.733800 
# 
# From -- ./inp_files/1174.got.cif
#   From: 2010.03.12/outbox.cif.g09.slc.cpg/sg192_1_cif.got.tgz:1174.got - 2010.04.01 12:16:15.
