data_PCOD8329281
_publ_section_title
;
Structure prediction by ZEFSAII (Michael W. Deem and Ramdas Pophale) SiO2 
 PCOD8329281
Probable space group: P 6/M M M
;
_chemical_formula_sum "Si O2"
_cell_formula_units_Z 84
_cell_length_a 26.280107
_cell_length_b 26.280107
_cell_length_c 9.796851
_cell_angle_alpha 90.000000
_cell_angle_beta 90.000000
_cell_angle_gamma 120.000000
_cell_volume 5859.646178
_symmetry_space_group_name_H-M "P 6/M M M"
_symmetry_group_IT_number 191
_symmetry_cell_setting 'hexagonal'
loop_
_space_group_symop_operation_xyz
x,y,z
x-y,x,z
-y,x-y,z
-x,-y,z
-x+y,-x,z
y,-x+y,z
x-y,-y,-z
-x,-x+y,-z
y,x,-z
-y,-x,-z
-x+y,y,-z
x,x-y,-z
-x,-y,-z
-x+y,-x,-z
y,-x+y,-z
x,y,-z
x-y,x,-z
-y,x-y,-z
-x+y,y,z
x,x-y,z
-y,-x,z
y,x,z
x-y,-y,z
-x,-x+y,z
loop_
_atom_site_type_symbol
_atom_site_label
_atom_site_fract_x
_atom_site_fract_y
_atom_site_fract_z
Si Si1 0.069032 0.734200 0.842685
Si Si2 0.532090 0.467911 0.338314
Si Si3 0.133171 0.066586 0.837145
Si Si4 0.355683 0.425965 0.346564
Si Si5 0.132695 0.265390 0.837982
O O1 0.093635 0.699036 0.755977
O O2 0.100119 0.800391 0.786448
O O3 0.000000 0.707347 0.821965
O O4 0.084847 0.731743 0.000000
O O5 0.500000 0.500000 0.268213
O O6 0.528149 0.471852 0.500000
O O7 0.601565 0.505510 0.298418
O O8 0.099676 0.099676 0.781965
O O9 0.199412 0.099706 0.778089
O O10 0.133906 0.066953 0.000000
O O11 0.331815 0.423404 0.500000
O O12 0.393943 0.393943 0.342984
O O13 0.130668 0.261335 0.000000
#
# Coordination Sequence:
#
# PCOD8329281 Si02
#       5
#    24  12  12  24  12
#     4   9  16  25  36  50  68  92 123 154 182 217
#     4   7  10  18  33  51  69  91 116 135 156 191
#     4   9  15  22  33  49  67  87 116 159 209 256
#     4   8  13  22  36  52  70  92 116 141 168 198
#     4   9  16  25  35  46  65  95 125 151 188 240
#
# _framework density 14.335337000000001
#
# number of rings (size 3 to 8) (size 9 to 14) (size 15 to 20)
#    0.000    3.571    0.000    2.714    0.000    4.000 
#    0.000    1.429    0.000    4.286    0.000    0.000 
#    0.000    0.000    0.000    1.714    0.000   36.857 
#
# Total GULP energy -1040614.999098 kJ/mol
# GULP energy per Si atom -12388.273799 kJ/mol
# Density = 1.430271 g / cm^3
# Si number density = 14.335337 Si / 1000 Ang^3
#
#
#
# Elastic Constant Matrix: (Units=GPa)
#
#
# Indices 1 2 3 4 5 6 
#
# 1 99.5861 55.1267 33.0523 0.0000 0.0000 0.0000
# 2 55.1267 99.5861 33.0523 0.0000 0.0000 0.0000
# 3 33.0523 33.0523 38.3172 0.0000 0.0000 0.0000
# 4 0.0000 0.0000 0.0000 11.3381 0.0000 0.0000
# 5 0.0000 0.0000 0.0000 0.0000 11.3381 0.0000
# 6 0.0000 0.0000 0.0000 0.0000 0.0000 22.2297
#
#
#
# Elastic Compliance Matrix: (Units=1/GPa)
#
#
# Indices 1 2 3 4 5 6 
#
# 1 0.016364 -0.006128 -0.008830 0.000000 0.000000 0.000000
# 2 -0.006128 0.016364 -0.008830 0.000000 0.000000 0.000000
# 3 -0.008830 -0.008830 0.041331 0.000000 0.000000 0.000000
# 4 0.000000 0.000000 0.000000 0.088198 0.000000 0.000000
# 5 0.000000 0.000000 0.000000 0.000000 0.088198 0.000000
# 6 0.000000 0.000000 0.000000 0.000000 0.000000 0.044985
#
#
# Mechanical properties :
#
#
# Convention : Reuss Voigt Hill
#
# Bulk Modulus (GPa) = 37.75796 53.32801 45.54298
# Shear Modulus (GPa) = 14.21083 16.73172 15.47127
#
# Velocity S-wave (km/s) = 3.15193 3.42009 3.28874
# Velocity P-wave (km/s) = 6.29623 7.27167 6.80146
#
# Compressibility (1/GPa) = 0.02648448
#
# Stress axis : x y z
#
# Youngs Moduli (GPa) = 61.10825 61.10825 24.19480
#
# Poissons Ratio (x) = 0.37447 0.21364
# Poissons Ratio (y) = 0.37447 0.21364
# Poissons Ratio (z) = 0.53958 0.53958
#
# Static dielectric constant tensor:
#      x y z
#    x 2.867880 0.000000 0.000000 
#    y 0.000000 2.867880 0.000000 
#    z 0.000000 0.000000 2.524770 
# 
# 
# High freq. dielectric constant tensor:
#      x y z
#    x 1.528910 0.000000 0.000000 
#    y 0.000000 1.528910 0.000000 
#    z 0.000000 0.000000 1.508460 
# 
# From -- ./inp_files/2655.got.cif
#   From: 2010.03.12/outbox.cif.g09.slc.cpg/sg191_2_cif.got.tgz:2655.got - 2010.04.01 12:09:02.
