data_PCOD8329256
_publ_section_title
;
Structure prediction by ZEFSAII (Michael W. Deem and Ramdas Pophale) SiO2 
 PCOD8329256
Probable space group: P 6/M M M
;
_chemical_formula_sum "Si O2"
_cell_formula_units_Z 84
_cell_length_a 21.615151
_cell_length_b 21.615151
_cell_length_c 12.484556
_cell_angle_alpha 90.000000
_cell_angle_beta 90.000000
_cell_angle_gamma 120.000000
_cell_volume 5051.499112
_symmetry_space_group_name_H-M "P 6/M M M"
_symmetry_group_IT_number 191
_symmetry_cell_setting 'hexagonal'
loop_
_space_group_symop_operation_xyz
x,y,z
x-y,x,z
-y,x-y,z
-x,-y,z
-x+y,-x,z
y,-x+y,z
x-y,-y,-z
-x,-x+y,-z
y,x,-z
-y,-x,-z
-x+y,y,-z
x,x-y,-z
-x,-y,-z
-x+y,-x,-z
y,-x+y,-z
x,y,-z
x-y,x,-z
-y,x-y,-z
-x+y,y,z
x,x-y,z
-y,-x,z
y,x,z
x-y,-y,z
-x,-x+y,z
loop_
_atom_site_type_symbol
_atom_site_label
_atom_site_fract_x
_atom_site_fract_y
_atom_site_fract_z
Si Si1 0.276362 0.000000 0.627922
Si Si2 0.470255 0.387864 0.123249
Si Si3 0.716655 0.580803 0.691666
Si Si4 0.614248 0.082610 0.500000
Si Si5 0.136931 0.136931 0.627453
O O1 0.267608 0.928362 0.678588
O O2 0.283571 0.000000 0.500000
O O3 0.206523 0.000000 0.666973
O O4 0.552853 0.447148 0.141297
O O5 0.420960 0.420960 0.158700
O O6 0.450240 0.317941 0.192780
O O7 0.456379 0.363998 0.000000
O O8 0.788730 0.577459 0.677743
O O9 0.658772 0.532857 0.602919
O O10 0.541047 0.082093 0.500000
O O11 0.597841 0.000000 0.500000
O O12 0.137909 0.068955 0.675739
O O13 0.133425 0.133425 0.500000
#
# Coordination Sequence:
#
# PCOD8329256 Si02
#       5
#    12  24  24  12  12
#     4  11  20  33  45  71 106 144 174 211 255 303
#     4   9  18  35  58  79 100 129 171 221 263 304
#     4  12  21  32  52  79 111 139 170 212 257 310
#     4  11  21  36  56  77 103 135 174 221 258 297
#     4   9  17  28  43  61  88 132 181 219 250 291
#
# _framework density 16.628727999999999
#
# number of rings (size 3 to 8) (size 9 to 14) (size 15 to 20)
#    0.000    1.571    4.286    3.143    0.000    4.571 
#    0.000    0.000    0.000    8.000    0.000    0.000 
#    0.000    0.000    0.000    0.000    0.000   10.143 
#
# Total GULP energy -1041577.146758 kJ/mol
# GULP energy per Si atom -12399.727938 kJ/mol
# Density = 1.659088 g / cm^3
# Si number density = 16.628728 Si / 1000 Ang^3
#
#
#
# Elastic Constant Matrix: (Units=GPa)
#
#
# Indices 1 2 3 4 5 6 
#
# 1 110.4094 56.2885 43.4060 0.0000 0.0000 0.0000
# 2 56.2885 110.4094 43.4060 0.0000 0.0000 0.0000
# 3 43.4060 43.4060 83.4077 0.0000 0.0000 0.0000
# 4 0.0000 0.0000 0.0000 12.1208 0.0000 0.0000
# 5 0.0000 0.0000 0.0000 0.0000 12.1208 0.0000
# 6 0.0000 0.0000 0.0000 0.0000 0.0000 27.0605
#
#
#
# Elastic Compliance Matrix: (Units=1/GPa)
#
#
# Indices 1 2 3 4 5 6 
#
# 1 0.013353 -0.005124 -0.004282 0.000000 0.000000 0.000000
# 2 -0.005124 0.013353 -0.004282 0.000000 0.000000 0.000000
# 3 -0.004282 -0.004282 0.016447 0.000000 0.000000 0.000000
# 4 0.000000 0.000000 0.000000 0.082503 0.000000 0.000000
# 5 0.000000 0.000000 0.000000 0.000000 0.082503 0.000000
# 6 0.000000 0.000000 0.000000 0.000000 0.000000 0.036954
#
#
# Mechanical properties :
#
#
# Convention : Reuss Voigt Hill
#
# Bulk Modulus (GPa) = 63.39216 65.60306 64.49761
# Shear Modulus (GPa) = 18.00183 21.00213 19.50198
#
# Velocity S-wave (km/s) = 3.29382 3.55773 3.42832
# Velocity P-wave (km/s) = 7.25744 7.51092 7.38527
#
# Compressibility (1/GPa) = 0.01577482
#
# Stress axis : x y z
#
# Youngs Moduli (GPa) = 74.88891 74.88891 60.80298
#
# Poissons Ratio (x) = 0.38373 0.26039
# Poissons Ratio (y) = 0.38373 0.26039
# Poissons Ratio (z) = 0.32071 0.32071
#
# Static dielectric constant tensor:
#      x y z
#    x 3.120800 0.000000 0.000000 
#    y 0.000000 3.120800 0.000000 
#    z 0.000000 0.000000 3.003690 
# 
# 
# High freq. dielectric constant tensor:
#      x y z
#    x 1.639040 0.000000 0.000000 
#    y 0.000000 1.639040 0.000000 
#    z 0.000000 0.000000 1.621670 
# 
# From -- ./inp_files/2442.got.cif
#   From: 2010.03.12/outbox.cif.g09.slc.cpg/sg191_2_cif.got.tgz:2442.got - 2010.04.01 12:09:02.
