data_PCOD8329160
_publ_section_title
;
Structure prediction by ZEFSAII (Michael W. Deem and Ramdas Pophale) SiO2 
 PCOD8329160
Probable space group: P 6/M M M
;
_chemical_formula_sum "Si O2"
_cell_formula_units_Z 90
_cell_length_a 25.377001
_cell_length_b 25.377001
_cell_length_c 8.000733
_cell_angle_alpha 90.000000
_cell_angle_beta 90.000000
_cell_angle_gamma 120.000000
_cell_volume 4462.117504
_symmetry_space_group_name_H-M "P 6/M M M"
_symmetry_group_IT_number 191
_symmetry_cell_setting 'hexagonal'
loop_
_space_group_symop_operation_xyz
x,y,z
x-y,x,z
-y,x-y,z
-x,-y,z
-x+y,-x,z
y,-x+y,z
x-y,-y,-z
-x,-x+y,-z
y,x,-z
-y,-x,-z
-x+y,y,-z
x,x-y,-z
-x,-y,-z
-x+y,-x,-z
y,-x+y,-z
x,y,-z
x-y,x,-z
-y,x-y,-z
-x+y,y,z
x,x-y,z
-y,-x,z
y,x,z
x-y,-y,z
-x,-x+y,z
loop_
_atom_site_type_symbol
_atom_site_label
_atom_site_fract_x
_atom_site_fract_y
_atom_site_fract_z
Si Si1 0.931011 0.548776 0.192357
Si Si2 0.580659 0.419342 0.689004
Si Si3 0.337617 0.070621 0.311113
Si Si4 0.745641 0.372821 0.000000
Si Si5 0.067094 0.134187 0.307844
Si Si6 0.133244 0.266488 0.812800
O O1 0.881905 0.491692 0.296124
O O2 0.915050 0.601900 0.212294
O O3 0.000000 0.572168 0.257641
O O4 0.925741 0.529444 0.000000
O O5 0.594771 0.405230 0.500000
O O6 0.606908 0.393093 0.830904
O O7 0.355006 0.094834 0.500000
O O8 0.308376 0.104269 0.216585
O O9 0.288686 0.000000 0.309109
O O10 0.701233 0.402465 0.000000
O O11 0.105338 0.105338 0.223268
O O12 0.058208 0.116415 0.500000
O O13 0.103536 0.207072 0.301420
O O14 0.120917 0.241833 0.000000
#
# Coordination Sequence:
#
# PCOD8329160 Si02
#       6
#    24  12  24   6  12  12
#     4  10  20  37  63  97 136 169 200 250 314 373
#     4  12  23  41  71 102 129 167 218 259 317 386
#     4  10  21  38  58  83 117 155 198 247 300 359
#     4  10  26  52  71  90 128 172 214 282 322 368
#     4  10  21  38  60  83 107 140 188 248 307 363
#     4  12  24  37  54  80 112 157 201 241 293 363
#
# _framework density 20.169796000000002
#
# number of rings (size 3 to 8) (size 9 to 14) (size 15 to 20)
#    0.133    1.333    1.333    4.133    0.000    9.600 
#    2.400    0.000    0.000    0.800    0.000    0.000 
#    0.000    0.000    0.000    0.000    0.000    0.000 
#
# Total GULP energy -1115980.739554 kJ/mol
# GULP energy per Si atom -12399.785995 kJ/mol
# Density = 2.012389 g / cm^3
# Si number density = 20.169796 Si / 1000 Ang^3
#
#
#
# Elastic Constant Matrix: (Units=GPa)
#
#
# Indices 1 2 3 4 5 6 
#
# 1 112.5770 67.9203 31.3036 0.0000 0.0000 0.0000
# 2 67.9203 112.5770 31.3036 0.0000 0.0000 0.0000
# 3 31.3036 31.3036 105.2666 0.0000 0.0000 0.0000
# 4 0.0000 0.0000 0.0000 23.3815 0.0000 0.0000
# 5 0.0000 0.0000 0.0000 0.0000 23.3815 0.0000
# 6 0.0000 0.0000 0.0000 0.0000 0.0000 22.3283
#
#
#
# Elastic Compliance Matrix: (Units=1/GPa)
#
#
# Indices 1 2 3 4 5 6 
#
# 1 0.014285 -0.008108 -0.001837 0.000000 0.000000 0.000000
# 2 -0.008108 0.014285 -0.001837 0.000000 0.000000 0.000000
# 3 -0.001837 -0.001837 0.010592 0.000000 0.000000 0.000000
# 4 0.000000 0.000000 0.000000 0.042769 0.000000 0.000000
# 5 0.000000 0.000000 0.000000 0.000000 0.042769 0.000000
# 6 0.000000 0.000000 0.000000 0.000000 0.000000 0.044786
#
#
# Mechanical properties :
#
#
# Convention : Reuss Voigt Hill
#
# Bulk Modulus (GPa) = 64.10637 65.71951 64.91294
# Shear Modulus (GPa) = 25.22069 27.14448 26.18259
#
# Velocity S-wave (km/s) = 3.53996 3.67249 3.60684
# Velocity P-wave (km/s) = 6.96856 7.11595 7.04264
#
# Compressibility (1/GPa) = 0.01559907
#
# Stress axis : x y z
#
# Youngs Moduli (GPa) = 70.00229 70.00229 94.40864
#
# Poissons Ratio (x) = 0.56757 0.17343
# Poissons Ratio (y) = 0.56757 0.17343
# Poissons Ratio (z) = 0.12859 0.12859
#
# Static dielectric constant tensor:
#      x y z
#    x 3.628070 0.000000 0.000000 
#    y 0.000000 3.628070 0.000000 
#    z 0.000000 0.000000 3.669250 
# 
# 
# High freq. dielectric constant tensor:
#      x y z
#    x 1.786100 0.000000 0.000000 
#    y 0.000000 1.786100 0.000000 
#    z 0.000000 0.000000 1.789870 
# 
# From -- ./inp_files/1332.got.cif
#   From: 2010.03.12/outbox.cif.g09.slc.cpg/sg191_1_cif.got.tgz:1332.got - 2010.04.01 12:09:02.
