data_PCOD8329695
_publ_section_title
;
Structure prediction by ZEFSAII (Michael W. Deem and Ramdas Pophale) SiO2 
 PCOD8329695
Probable space group: P 6/M C C
;
_chemical_formula_sum "Si O2"
_cell_formula_units_Z 60
_cell_length_a 17.152742
_cell_length_b 17.152742
_cell_length_c 9.949564
_cell_angle_alpha 90.000000
_cell_angle_beta 90.000000
_cell_angle_gamma 120.000000
_cell_volume 2535.139092
_symmetry_space_group_name_H-M "P 6/M C C"
_symmetry_group_IT_number 192
_symmetry_cell_setting 'hexagonal'
loop_
_space_group_symop_operation_xyz
x,y,z
x-y,x,z
-y,x-y,z
-x,-y,z
-x+y,-x,z
y,-x+y,z
x-y,-y,1/2-z
-x,-x+y,1/2-z
y,x,1/2-z
-y,-x,1/2-z
-x+y,y,1/2-z
x,x-y,1/2-z
-x,-y,-z
-x+y,-x,-z
y,-x+y,-z
x,y,-z
x-y,x,-z
-y,x-y,-z
-x+y,y,1/2+z
x,x-y,1/2+z
-y,-x,1/2+z
y,x,1/2+z
x-y,-y,1/2+z
-x,-x+y,1/2+z
loop_
_atom_site_type_symbol
_atom_site_label
_atom_site_fract_x
_atom_site_fract_y
_atom_site_fract_z
Si Si1 0.671606 0.835803 0.750000
Si Si2 0.365364 0.922637 0.648908
Si Si3 0.870354 0.079633 0.000000
Si Si4 0.593085 0.219262 0.000000
O O1 0.612005 0.735790 0.697581
O O2 0.731217 0.829659 0.867911
O O3 0.372490 0.966027 0.500000
O O4 0.392161 0.843948 0.631794
O O5 0.433426 0.000000 0.750000
O O6 0.976635 0.135410 0.000000
O O7 0.701335 0.266753 0.000000
#
# Coordination Sequence:
#
# PCOD8329695 Si02
#       4
#    12  24  12  12
#     4  12  24  40  65 106 150 196 261 336 414 474
#     4  10  22  41  76 118 153 205 269 333 397 487
#     4  12  24  40  62  93 143 202 264 330 404 492
#     4   8  19  46  82 115 156 208 265 321 409 480
#
# _framework density 23.667342000000001
#
# number of rings (size 3 to 8) (size 9 to 14) (size 15 to 20)
#    1.600    0.000    2.000    3.800    2.800    0.000 
#    0.000    4.000    0.000   19.200    0.000    0.000 
#    0.000    0.000    0.000    0.000    0.000    0.000 
#
# Total GULP energy -743566.636639 kJ/mol
# GULP energy per Si atom -12392.777277 kJ/mol
# Density = 2.361347 g / cm^3
# Si number density = 23.667342 Si / 1000 Ang^3
#
#
#
# Elastic Constant Matrix: (Units=GPa)
#
#
# Indices 1 2 3 4 5 6 
#
# 1 116.8135 39.1189 49.3151 0.0000 0.0000 0.0000
# 2 39.1189 116.8135 49.3151 0.0000 0.0000 0.0000
# 3 49.3151 49.3151 174.1961 0.0000 0.0000 0.0000
# 4 0.0000 0.0000 0.0000 94.2925 0.0000 0.0000
# 5 0.0000 0.0000 0.0000 0.0000 94.2925 0.0000
# 6 0.0000 0.0000 0.0000 0.0000 0.0000 38.8473
#
#
#
# Elastic Compliance Matrix: (Units=1/GPa)
#
#
# Indices 1 2 3 4 5 6 
#
# 1 0.010341 -0.002530 -0.002212 0.000000 0.000000 0.000000
# 2 -0.002530 0.010341 -0.002212 0.000000 0.000000 0.000000
# 3 -0.002212 -0.002212 0.006993 0.000000 0.000000 0.000000
# 4 0.000000 0.000000 0.000000 0.010605 0.000000 0.000000
# 5 0.000000 0.000000 0.000000 0.000000 0.010605 0.000000
# 6 0.000000 0.000000 0.000000 0.000000 0.000000 0.025742
#
#
# Mechanical properties :
#
#
# Convention : Reuss Voigt Hill
#
# Bulk Modulus (GPa) = 72.61950 75.92456 74.27203
# Shear Modulus (GPa) = 53.69221 63.49139 58.59180
#
# Velocity S-wave (km/s) = 4.76817 5.18506 4.98098
# Velocity P-wave (km/s) = 7.81434 8.24597 8.03305
#
# Compressibility (1/GPa) = 0.01377041
#
# Stress axis : x y z
#
# Youngs Moduli (GPa) = 96.69877 96.69877 143.00340
#
# Poissons Ratio (x) = 0.24460 0.31626
# Poissons Ratio (y) = 0.24460 0.31626
# Poissons Ratio (z) = 0.21385 0.21385
#
# Static dielectric constant tensor:
#      x y z
#    x 4.175210 0.000000 0.000000 
#    y 0.000000 4.175210 0.000000 
#    z 0.000000 0.000000 4.245060 
# 
# 
# High freq. dielectric constant tensor:
#      x y z
#    x 1.942410 0.000000 0.000000 
#    y 0.000000 1.942410 0.000000 
#    z 0.000000 0.000000 1.949260 
# 
# From -- ./inp_files/472.got.cif
#   From: 2010.03.12/outbox.cif.g09.slc.cpg/sg192_1_cif.got.tgz:472.got - 2010.04.01 12:16:15.
