data_PCOD8329852
_publ_section_title
;
Structure prediction by ZEFSAII (Michael W. Deem and Ramdas Pophale) SiO2 
 PCOD8329852
Probable space group: P 63/M C M
;
_chemical_formula_sum "Si O2"
_cell_formula_units_Z 144
_cell_length_a 27.358995
_cell_length_b 27.358995
_cell_length_c 15.457877
_cell_angle_alpha 90.000000
_cell_angle_beta 90.000000
_cell_angle_gamma 120.000000
_cell_volume 10020.300805
_symmetry_space_group_name_H-M "P 63/M C M"
_symmetry_group_IT_number 193
_symmetry_cell_setting 'hexagonal'
loop_
_space_group_symop_operation_xyz
x,y,z
x-y,x,1/2+z
-y,x-y,z
-x,-y,1/2+z
-x+y,-x,z
y,-x+y,1/2+z
x-y,-y,1/2-z
-x,-x+y,1/2-z
y,x,1/2-z
-y,-x,-z
-x+y,y,-z
x,x-y,-z
-x,-y,-z
-x+y,-x,1/2-z
y,-x+y,-z
x,y,1/2-z
x-y,x,-z
-y,x-y,1/2-z
-x+y,y,1/2+z
x,x-y,1/2+z
-y,-x,1/2+z
y,x,z
x-y,-y,z
-x,-x+y,z
loop_
_atom_site_type_symbol
_atom_site_label
_atom_site_fract_x
_atom_site_fract_y
_atom_site_fract_z
Si Si1 0.620995 0.756100 0.653686
Si Si2 0.933574 0.619713 0.500000
Si Si3 0.134354 0.620277 0.000000
Si Si4 0.135104 0.379005 0.153686
Si Si5 0.689325 0.202076 0.154170
Si Si6 0.512750 0.202075 0.154170
O O1 0.641343 0.750497 0.750000
O O2 0.641415 0.726774 0.583716
O O3 0.644607 0.822304 0.631488
O O4 0.554221 0.725116 0.650362
O O5 0.909815 0.552437 0.500000
O O6 0.914641 0.641415 0.583716
O O7 0.000000 0.648305 0.500000
O O8 0.174710 0.640473 0.916294
O O9 0.103093 0.551547 0.000000
O O10 0.174710 0.640473 0.083706
O O11 0.109154 0.358656 0.250000
O O12 0.170895 0.445779 0.150362
O O13 0.662692 0.195236 0.250000
O O14 0.731742 0.268258 0.133761
O O15 0.532544 0.195236 0.250000
#
# Coordination Sequence:
#
# PCOD8329852 Si02
#       6
#    24  24  24  24  24  24
#     4   8  14  26  44  62  76  92 120 158 194 225
#     4  10  19  28  39  57  82 108 130 157 194 232
#     4  10  19  28  39  55  75 102 132 153 175 225
#     4   8  14  26  44  62  76  92 120 158 194 225
#     4   8  14  26  44  61  71  81 107 152 197 227
#     4   8  14  26  44  61  71  81 107 152 197 227
#
# _framework density 14.370825999999999
#
# number of rings (size 3 to 8) (size 9 to 14) (size 15 to 20)
#    0.000    3.333    0.000    3.000    0.000    5.667 
#    0.000    0.000    0.000    2.667    0.000    9.333 
#    0.000    0.000    0.000    0.000    0.000    0.000 
#
# Total GULP energy -1783950.923599 kJ/mol
# GULP energy per Si atom -12388.548081 kJ/mol
# Density = 1.433812 g / cm^3
# Si number density = 14.370826 Si / 1000 Ang^3
#
#
#
# Elastic Constant Matrix: (Units=GPa)
#
#
# Indices 1 2 3 4 5 6 
#
# 1 52.6362 35.2072 44.8856 0.0000 0.0000 0.0000
# 2 35.2072 52.6362 44.8856 0.0000 0.0000 0.0000
# 3 44.8856 44.8856 120.0427 0.0000 0.0000 0.0000
# 4 0.0000 0.0000 0.0000 6.6349 0.0000 0.0000
# 5 0.0000 0.0000 0.0000 0.0000 6.6349 0.0000
# 6 0.0000 0.0000 0.0000 0.0000 0.0000 8.7145
#
#
#
# Elastic Compliance Matrix: (Units=1/GPa)
#
#
# Indices 1 2 3 4 5 6 
#
# 1 0.037900 -0.019476 -0.006889 0.000000 0.000000 0.000000
# 2 -0.019476 0.037900 -0.006889 0.000000 0.000000 0.000000
# 3 -0.006889 -0.006889 0.013482 0.000000 0.000000 0.000000
# 4 0.000000 0.000000 0.000000 0.150717 0.000000 0.000000
# 5 0.000000 0.000000 0.000000 0.000000 0.150717 0.000000
# 6 0.000000 0.000000 0.000000 0.000000 0.000000 0.114752
#
#
# Mechanical properties :
#
#
# Convention : Reuss Voigt Hill
#
# Bulk Modulus (GPa) = 43.90920 52.80798 48.35859
# Shear Modulus (GPa) = 8.62712 11.08598 9.85655
#
# Velocity S-wave (km/s) = 2.45280 2.78046 2.62176
# Velocity P-wave (km/s) = 6.21630 6.86545 6.54892
#
# Compressibility (1/GPa) = 0.02277427
#
# Stress axis : x y z
#
# Youngs Moduli (GPa) = 26.38525 26.38525 74.17211
#
# Poissons Ratio (x) = 0.51388 0.51097
# Poissons Ratio (y) = 0.51388 0.51097
# Poissons Ratio (z) = 0.18177 0.18177
#
# Static dielectric constant tensor:
#      x y z
#    x 2.489760 0.000000 0.000000 
#    y 0.000000 2.489760 0.000000 
#    z 0.000000 0.000000 3.329210 
# 
# 
# High freq. dielectric constant tensor:
#      x y z
#    x 1.503590 0.000000 0.000000 
#    y 0.000000 1.503590 0.000000 
#    z 0.000000 0.000000 1.572430 
# 
# From -- ./inp_files/5548.got.cif
#   From: 2010.03.12/outbox.cif.g09.slc.cpg/sg193_3_cif.got.tgz:5548.got - 2010.04.01 12:20:39.
