data_PCOD8329308
_publ_section_title
;
Structure prediction by ZEFSAII (Michael W. Deem and Ramdas Pophale) SiO2 
 PCOD8329308
Probable space group: P 6/M M M
;
_chemical_formula_sum "Si O2"
_cell_formula_units_Z 96
_cell_length_a 28.680869
_cell_length_b 28.680869
_cell_length_c 9.880110
_cell_angle_alpha 90.000000
_cell_angle_beta 90.000000
_cell_angle_gamma 120.000000
_cell_volume 7038.449894
_symmetry_space_group_name_H-M "P 6/M M M"
_symmetry_group_IT_number 191
_symmetry_cell_setting 'hexagonal'
loop_
_space_group_symop_operation_xyz
x,y,z
x-y,x,z
-y,x-y,z
-x,-y,z
-x+y,-x,z
y,-x+y,z
x-y,-y,-z
-x,-x+y,-z
y,x,-z
-y,-x,-z
-x+y,y,-z
x,x-y,-z
-x,-y,-z
-x+y,-x,-z
y,-x+y,-z
x,y,-z
x-y,x,-z
-y,x-y,-z
-x+y,y,z
x,x-y,z
-y,-x,z
y,x,z
x-y,-y,z
-x,-x+y,z
loop_
_atom_site_type_symbol
_atom_site_label
_atom_site_fract_x
_atom_site_fract_y
_atom_site_fract_z
Si Si1 0.059991 0.224217 0.654730
Si Si2 0.663701 0.062426 0.844400
Si Si3 0.416427 0.936079 0.651757
Si Si4 0.214676 0.891556 0.155270
O O1 0.066666 0.244519 0.500000
O O2 0.101720 0.203440 0.688084
O O3 0.070347 0.273300 0.750328
O O4 0.000000 0.174867 0.681293
O O5 0.633217 0.086205 0.755542
O O6 0.726546 0.098348 0.808429
O O7 0.643376 0.000000 0.810671
O O8 0.652457 0.069060 0.000000
O O9 0.394094 0.917016 0.500000
O O10 0.457212 0.914424 0.691589
O O11 0.448920 0.000000 0.658936
O O12 0.171142 0.828859 0.181016
O O13 0.212893 0.907998 0.000000
#
# Coordination Sequence:
#
# PCOD8329308 Si02
#       4
#    24  24  24  24
#     4   9  17  28  41  56  73  93 118 150 188 229
#     4   9  16  24  35  52  72  94 121 151 180 210
#     4   8  14  24  36  50  69  93 120 147 173 201
#     4   9  17  28  40  54  74  99 125 153 184 218
#
# _framework density 13.639366000000001
#
# number of rings (size 3 to 8) (size 9 to 14) (size 15 to 20)
#    0.000    3.250    0.000    1.500    0.000    3.000 
#    0.000    5.000    0.000    0.250    0.000    1.750 
#    0.000    0.000    0.000    7.000    0.000   18.000 
#
# Total GULP energy -1189959.655355 kJ/mol
# GULP energy per Si atom -12395.413077 kJ/mol
# Density = 1.360832 g / cm^3
# Si number density = 13.639366 Si / 1000 Ang^3
#
#
#
# Elastic Constant Matrix: (Units=GPa)
#
#
# Indices 1 2 3 4 5 6 
#
# 1 82.6375 44.3961 49.7197 0.0000 0.0000 0.0000
# 2 44.3961 82.6375 49.7197 0.0000 0.0000 0.0000
# 3 49.7197 49.7197 69.4288 0.0000 0.0000 0.0000
# 4 0.0000 0.0000 0.0000 19.6618 0.0000 0.0000
# 5 0.0000 0.0000 0.0000 0.0000 19.6618 0.0000
# 6 0.0000 0.0000 0.0000 0.0000 0.0000 19.1207
#
#
#
# Elastic Compliance Matrix: (Units=1/GPa)
#
#
# Indices 1 2 3 4 5 6 
#
# 1 0.022032 -0.004118 -0.012829 0.000000 0.000000 0.000000
# 2 -0.004118 0.022032 -0.012829 0.000000 0.000000 0.000000
# 3 -0.012829 -0.012829 0.032777 0.000000 0.000000 0.000000
# 4 0.000000 0.000000 0.000000 0.050860 0.000000 0.000000
# 5 0.000000 0.000000 0.000000 0.000000 0.050860 0.000000
# 6 0.000000 0.000000 0.000000 0.000000 0.000000 0.052299
#
#
# Mechanical properties :
#
#
# Convention : Reuss Voigt Hill
#
# Bulk Modulus (GPa) = 57.83548 58.04166 57.93857
# Shear Modulus (GPa) = 16.88199 17.74674 17.31437
#
# Velocity S-wave (km/s) = 3.52197 3.61105 3.56679
# Velocity P-wave (km/s) = 7.68339 7.74810 7.71581
#
# Compressibility (1/GPa) = 0.01729042
#
# Stress axis : x y z
#
# Youngs Moduli (GPa) = 45.38894 45.38894 30.50922
#
# Poissons Ratio (x) = 0.18691 0.39139
# Poissons Ratio (y) = 0.18691 0.39139
# Poissons Ratio (z) = 0.58228 0.58228
#
# Static dielectric constant tensor:
#      x y z
#    x 2.648070 0.000000 0.000000 
#    y 0.000000 2.648070 0.000000 
#    z 0.000000 0.000000 2.861740 
# 
# 
# High freq. dielectric constant tensor:
#      x y z
#    x 1.494510 0.000000 0.000000 
#    y 0.000000 1.494510 0.000000 
#    z 0.000000 0.000000 1.529900 
# 
# From -- ./inp_files/2722.got.cif
#   From: 2010.03.12/outbox.cif.g09.slc.cpg/sg191_2_cif.got.tgz:2722.got - 2010.04.01 12:09:02.
