data_PCOD8329808
_publ_section_title
;
Structure prediction by ZEFSAII (Michael W. Deem and Ramdas Pophale) SiO2 
 PCOD8329808
Probable space group: P 63/M C M
;
_chemical_formula_sum "Si O2"
_cell_formula_units_Z 168
_cell_length_a 29.272608
_cell_length_b 29.272608
_cell_length_c 15.207783
_cell_angle_alpha 90.000000
_cell_angle_beta 90.000000
_cell_angle_gamma 120.000000
_cell_volume 11285.462776
_symmetry_space_group_name_H-M "P 63/M C M"
_symmetry_group_IT_number 193
_symmetry_cell_setting 'hexagonal'
loop_
_space_group_symop_operation_xyz
x,y,z
x-y,x,1/2+z
-y,x-y,z
-x,-y,1/2+z
-x+y,-x,z
y,-x+y,1/2+z
x-y,-y,1/2-z
-x,-x+y,1/2-z
y,x,1/2-z
-y,-x,-z
-x+y,y,-z
x,x-y,-z
-x,-y,-z
-x+y,-x,1/2-z
y,-x+y,-z
x,y,1/2-z
x-y,x,-z
-y,x-y,1/2-z
-x+y,y,1/2+z
x,x-y,1/2+z
-y,-x,1/2+z
y,x,z
x-y,-y,z
-x,-x+y,z
loop_
_atom_site_type_symbol
_atom_site_label
_atom_site_fract_x
_atom_site_fract_y
_atom_site_fract_z
Si Si1 0.479098 0.853409 0.500022
Si Si2 0.269228 0.880659 0.844574
Si Si3 0.708262 0.515619 0.148484
Si Si4 0.718526 0.659915 0.350951
Si Si5 0.797146 0.165877 0.597147
Si Si6 0.694094 0.204406 0.346918
Si Si7 0.940591 0.595603 0.490231
O O1 0.435205 0.870410 0.500000
O O2 0.485170 0.830715 0.593043
O O3 0.460787 0.808694 0.424102
O O4 0.533323 0.905944 0.476104
O O5 0.287449 0.909815 0.750000
O O6 0.205232 0.847351 0.844049
O O7 0.285661 0.836737 0.855424
O O8 0.295210 0.922265 0.923635
O O9 0.694851 0.519844 0.250000
O O10 0.745328 0.573856 0.109242
O O11 0.737401 0.481426 0.139885
O O12 0.707237 0.640793 0.250000
O O13 0.711174 0.711174 0.364661
O O14 0.777635 0.672986 0.378522
O O15 0.675586 0.611970 0.410414
O O16 0.818965 0.181036 0.500000
O O17 0.668854 0.200245 0.250000
O O18 0.000000 0.611672 0.466174
#
# Coordination Sequence:
#
# PCOD8329808 Si02
#       7
#    24  24  24  24  24  24  24
#     4  11  21  31  46  67  88 113 147 181 212 262
#     4   9  16  27  46  69  86 106 139 183 228 263
#     4  10  18  30  50  70  86 104 129 170 224 273
#     4  10  19  30  45  65  93 127 152 176 221 277
#     4  11  16  27  47  72  95 110 138 184 228 266
#     4   8  16  31  49  67  85 101 124 166 221 268
#     4  10  20  33  45  61  89 123 154 186 226 272
#
# _framework density 14.886407999999999
#
# number of rings (size 3 to 8) (size 9 to 14) (size 15 to 20)
#    0.000    2.143    2.857    4.286    0.000    1.143 
#    0.000    0.000    0.000    2.286    0.000    4.000 
#    0.000    0.000    0.000    0.000    0.000    0.000 
#
# Total GULP energy -2081751.063475 kJ/mol
# GULP energy per Si atom -12391.375378 kJ/mol
# Density = 1.485253 g / cm^3
# Si number density = 14.886408 Si / 1000 Ang^3
#
#
#
# Elastic Constant Matrix: (Units=GPa)
#
#
# Indices 1 2 3 4 5 6 
#
# 1 66.6884 39.6660 35.8517 0.0000 0.0000 0.0000
# 2 39.6660 66.6884 35.8517 0.0000 0.0000 0.0000
# 3 35.8517 35.8517 107.8656 0.0000 0.0000 0.0000
# 4 0.0000 0.0000 0.0000 15.2817 0.0000 0.0000
# 5 0.0000 0.0000 0.0000 0.0000 15.2817 0.0000
# 6 0.0000 0.0000 0.0000 0.0000 0.0000 13.5112
#
#
#
# Elastic Compliance Matrix: (Units=1/GPa)
#
#
# Indices 1 2 3 4 5 6 
#
# 1 0.024562 -0.012444 -0.004028 0.000000 0.000000 0.000000
# 2 -0.012444 0.024562 -0.004028 0.000000 0.000000 0.000000
# 3 -0.004028 -0.004028 0.011948 0.000000 0.000000 0.000000
# 4 0.000000 0.000000 0.000000 0.065438 0.000000 0.000000
# 5 0.000000 0.000000 0.000000 0.000000 0.065438 0.000000
# 6 0.000000 0.000000 0.000000 0.000000 0.000000 0.074013
#
#
# Mechanical properties :
#
#
# Convention : Reuss Voigt Hill
#
# Bulk Modulus (GPa) = 49.81731 51.55350 50.68540
# Shear Modulus (GPa) = 15.94132 17.47314 16.70723
#
# Velocity S-wave (km/s) = 3.27596 3.42974 3.35373
# Velocity P-wave (km/s) = 6.91714 7.09863 7.00847
#
# Compressibility (1/GPa) = 0.02007334
#
# Stress axis : x y z
#
# Youngs Moduli (GPa) = 40.71310 40.71310 83.69462
#
# Poissons Ratio (x) = 0.50664 0.33710
# Poissons Ratio (y) = 0.50664 0.33710
# Poissons Ratio (z) = 0.16398 0.16398
#
# Static dielectric constant tensor:
#      x y z
#    x 2.781520 0.000000 0.000000 
#    y 0.000000 2.781520 0.000000 
#    z 0.000000 0.000000 3.157480 
# 
# 
# High freq. dielectric constant tensor:
#      x y z
#    x 1.532300 0.000000 0.000000 
#    y 0.000000 1.532300 0.000000 
#    z 0.000000 0.000000 1.594610 
# 
# From -- ./inp_files/4465.got.cif
#   From: 2010.03.12/outbox.cif.g09.slc.cpg/sg193_3_cif.got.tgz:4465.got - 2010.04.01 12:20:39.
