data_PCOD8329148
_publ_section_title
;
Structure prediction by ZEFSAII (Michael W. Deem and Ramdas Pophale) SiO2 
 PCOD8329148
Probable space group: P 6/M M M
;
_chemical_formula_sum "Si O2"
_cell_formula_units_Z 138
_cell_length_a 31.092587
_cell_length_b 31.092587
_cell_length_c 7.900967
_cell_angle_alpha 90.000000
_cell_angle_beta 90.000000
_cell_angle_gamma 120.000000
_cell_volume 6614.919996
_symmetry_space_group_name_H-M "P 6/M M M"
_symmetry_group_IT_number 191
_symmetry_cell_setting 'hexagonal'
loop_
_space_group_symop_operation_xyz
x,y,z
x-y,x,z
-y,x-y,z
-x,-y,z
-x+y,-x,z
y,-x+y,z
x-y,-y,-z
-x,-x+y,-z
y,x,-z
-y,-x,-z
-x+y,y,-z
x,x-y,-z
-x,-y,-z
-x+y,-x,-z
y,-x+y,-z
x,y,-z
x-y,x,-z
-y,x-y,-z
-x+y,y,z
x,x-y,z
-y,-x,z
y,x,z
x-y,-y,z
-x,-x+y,z
loop_
_atom_site_type_symbol
_atom_site_label
_atom_site_fract_x
_atom_site_fract_y
_atom_site_fract_z
Si Si1 0.666747 0.428233 0.695892
Si Si2 0.136353 0.762677 0.694303
Si Si3 0.212519 0.944642 0.299537
Si Si4 0.146151 0.672992 0.807053
Si Si5 0.881719 0.940860 0.000000
Si Si6 0.197582 0.098791 0.297384
Si Si7 0.945593 0.424548 0.798851
O O1 0.665997 0.417018 0.500000
O O2 0.712510 0.425019 0.781508
O O3 0.614112 0.385889 0.776557
O O4 0.676661 0.483661 0.712854
O O5 0.126827 0.745350 0.500000
O O6 0.183961 0.816040 0.713831
O O7 0.090544 0.767163 0.772163
O O8 0.144407 0.723395 0.798224
O O9 0.214587 0.943133 0.500000
O O10 0.156323 0.926350 0.246300
O O11 0.247492 0.000000 0.227714
O O12 0.095821 0.628369 0.725051
O O13 0.150739 0.660682 0.000000
O O14 0.916214 0.916214 0.000000
O O15 0.850106 0.925053 0.175079
O O16 0.183167 0.091584 0.500000
O O17 0.932516 0.466258 0.738835
O O18 0.000000 0.438331 0.728373
O O19 0.946822 0.422959 0.000000
#
# Coordination Sequence:
#
# PCOD8329148 Si02
#       7
#    24  24  24  24   6  12  24
#     4  10  21  38  59  81 105 138 181 228 280 343
#     4  10  20  36  54  74 107 150 187 222 274 339
#     4   9  17  33  60  89 114 146 193 248 302 354
#     4  11  22  34  52  80 111 142 181 228 277 333
#     4  12  27  44  64  96 136 176 216 264 322 386
#     4  10  20  41  69  95 124 164 216 268 318 376
#     4   8  15  30  51  72  97 133 174 215 263 320
#
# _framework density 20.861931999999999
#
# number of rings (size 3 to 8) (size 9 to 14) (size 15 to 20)
#    0.000    2.261    0.870    2.826    0.000    6.261 
#    1.565    0.000    0.000    3.130    0.000    6.087 
#    0.000    0.000    0.000    0.000    0.000    0.000 
#
# Total GULP energy -1710652.182822 kJ/mol
# GULP energy per Si atom -12396.030310 kJ/mol
# Density = 2.081445 g / cm^3
# Si number density = 20.861932 Si / 1000 Ang^3
#
#
#
# Elastic Constant Matrix: (Units=GPa)
#
#
# Indices 1 2 3 4 5 6 
#
# 1 156.8357 79.4350 17.5851 0.0000 0.0000 0.0000
# 2 79.4350 156.8357 17.5851 0.0000 0.0000 0.0000
# 3 17.5851 17.5851 35.3433 0.0000 0.0000 0.0000
# 4 0.0000 0.0000 0.0000 6.8773 0.0000 0.0000
# 5 0.0000 0.0000 0.0000 0.0000 6.8773 0.0000
# 6 0.0000 0.0000 0.0000 0.0000 0.0000 38.7003
#
#
#
# Elastic Compliance Matrix: (Units=1/GPa)
#
#
# Indices 1 2 3 4 5 6 
#
# 1 0.008745 -0.004174 -0.002274 0.000000 0.000000 0.000000
# 2 -0.004174 0.008745 -0.002274 0.000000 0.000000 0.000000
# 3 -0.002274 -0.002274 0.030557 0.000000 0.000000 0.000000
# 4 0.000000 0.000000 0.000000 0.145407 0.000000 0.000000
# 5 0.000000 0.000000 0.000000 0.000000 0.145407 0.000000
# 6 0.000000 0.000000 0.000000 0.000000 0.000000 0.025840
#
#
# Mechanical properties :
#
#
# Convention : Reuss Voigt Hill
#
# Bulk Modulus (GPa) = 32.67776 64.24723 48.46250
# Shear Modulus (GPa) = 12.74380 26.11828 19.43104
#
# Velocity S-wave (km/s) = 2.47425 3.54214 3.05521
# Velocity P-wave (km/s) = 4.88471 6.89872 5.97715
#
# Compressibility (1/GPa) = 0.03060185
#
# Stress axis : x y z
#
# Youngs Moduli (GPa) = 114.34614 114.34614 32.72567
#
# Poissons Ratio (x) = 0.47733 0.07443
# Poissons Ratio (y) = 0.47733 0.07443
# Poissons Ratio (z) = 0.26006 0.26006
#
# Static dielectric constant tensor:
#      x y z
#    x 4.002640 0.000000 0.000000 
#    y 0.000000 4.002640 0.000000 
#    z 0.000000 0.000000 3.358770 
# 
# 
# High freq. dielectric constant tensor:
#      x y z
#    x 1.825940 0.000000 0.000000 
#    y 0.000000 1.825940 0.000000 
#    z 0.000000 0.000000 1.780510 
# 
# From -- ./inp_files/2047.got.cif
#   From: 2010.03.12/outbox.cif.g09.slc.cpg/sg191_2_cif.got.tgz:2047.got - 2010.04.01 12:09:02.
