data_PCOD8329805
_publ_section_title
;
Structure prediction by ZEFSAII (Michael W. Deem and Ramdas Pophale) SiO2 
 PCOD8329805
Probable space group: P 63/M C M
;
_chemical_formula_sum "Si O2"
_cell_formula_units_Z 96
_cell_length_a 27.805093
_cell_length_b 27.805093
_cell_length_c 10.271861
_cell_angle_alpha 90.000000
_cell_angle_beta 90.000000
_cell_angle_gamma 120.000000
_cell_volume 6877.466277
_symmetry_space_group_name_H-M "P 63/M C M"
_symmetry_group_IT_number 193
_symmetry_cell_setting 'hexagonal'
loop_
_space_group_symop_operation_xyz
x,y,z
x-y,x,1/2+z
-y,x-y,z
-x,-y,1/2+z
-x+y,-x,z
y,-x+y,1/2+z
x-y,-y,1/2-z
-x,-x+y,1/2-z
y,x,1/2-z
-y,-x,-z
-x+y,y,-z
x,x-y,-z
-x,-y,-z
-x+y,-x,1/2-z
y,-x+y,-z
x,y,1/2-z
x-y,x,-z
-y,x-y,1/2-z
-x+y,y,1/2+z
x,x-y,1/2+z
-y,-x,1/2+z
y,x,z
x-y,-y,z
-x,-x+y,z
loop_
_atom_site_type_symbol
_atom_site_label
_atom_site_fract_x
_atom_site_fract_y
_atom_site_fract_z
Si Si1 0.570773 0.504594 0.104191
Si Si2 0.322507 0.387505 0.600454
Si Si3 0.170712 0.937811 0.250000
Si Si4 0.691801 0.900618 0.501887
Si Si5 0.174068 0.937838 0.750000
O O1 0.568905 0.481252 0.250000
O O2 0.535844 0.535844 0.104367
O O3 0.634114 0.548537 0.063531
O O4 0.545593 0.454408 0.000000
O O5 0.304403 0.384160 0.750000
O O6 0.350213 0.350213 0.575886
O O7 0.268543 0.363955 0.508890
O O8 0.200694 0.931309 0.375607
O O9 0.105097 0.892277 0.250000
O O10 0.179321 0.000000 0.250000
O O11 0.671571 0.835786 0.500000
O O12 0.726065 0.930260 0.373840
O O13 0.183342 0.000000 0.750000
#
# Coordination Sequence:
#
# PCOD8329805 Si02
#       5
#    24  24  12  24  12
#     4   8  14  24  37  54  75  99 129 161 186 209
#     4   9  15  25  43  58  72 104 142 164 184 231
#     4  10  18  30  48  59  71 105 139 161 199 261
#     4  10  19  29  42  60  81 104 132 169 208 246
#     4  10  20  30  40  61  87  99 119 171 221 251
#
# _framework density 13.958629
#
# number of rings (size 3 to 8) (size 9 to 14) (size 15 to 20)
#    0.000    2.750    1.250    3.750    0.000    0.000 
#    2.250    0.000    0.000    0.250    0.000    0.000 
#    0.000    6.000    0.000    0.750    0.000    4.500 
#
# Total GULP energy -1189990.135404 kJ/mol
# GULP energy per Si atom -12395.730577 kJ/mol
# Density = 1.392686 g / cm^3
# Si number density = 13.958629 Si / 1000 Ang^3
#
#
#
# Elastic Constant Matrix: (Units=GPa)
#
#
# Indices 1 2 3 4 5 6 
#
# 1 87.6236 41.8056 42.1668 0.0000 0.0000 0.0000
# 2 41.8056 87.6236 42.1668 0.0000 0.0000 0.0000
# 3 42.1668 42.1668 95.3868 0.0000 0.0000 0.0000
# 4 0.0000 0.0000 0.0000 24.6584 0.0000 0.0000
# 5 0.0000 0.0000 0.0000 0.0000 24.6584 0.0000
# 6 0.0000 0.0000 0.0000 0.0000 0.0000 22.9090
#
#
#
# Elastic Compliance Matrix: (Units=1/GPa)
#
#
# Indices 1 2 3 4 5 6 
#
# 1 0.016339 -0.005487 -0.004797 0.000000 0.000000 0.000000
# 2 -0.005487 0.016339 -0.004797 0.000000 0.000000 0.000000
# 3 -0.004797 -0.004797 0.014725 0.000000 0.000000 0.000000
# 4 0.000000 0.000000 0.000000 0.040554 0.000000 0.000000
# 5 0.000000 0.000000 0.000000 0.000000 0.040554 0.000000
# 6 0.000000 0.000000 0.000000 0.000000 0.000000 0.043651
#
#
# Mechanical properties :
#
#
# Convention : Reuss Voigt Hill
#
# Bulk Modulus (GPa) = 58.00458 58.10138 58.05298
# Shear Modulus (GPa) = 24.03025 24.07813 24.05419
#
# Velocity S-wave (km/s) = 4.15364 4.15777 4.15571
# Velocity P-wave (km/s) = 8.04043 8.04760 8.04401
#
# Compressibility (1/GPa) = 0.01724002
#
# Stress axis : x y z
#
# Youngs Moduli (GPa) = 61.20411 61.20411 67.91163
#
# Poissons Ratio (x) = 0.33581 0.32579
# Poissons Ratio (y) = 0.33581 0.32579
# Poissons Ratio (z) = 0.29361 0.29361
#
# Static dielectric constant tensor:
#      x y z
#    x 2.687980 0.000000 0.000000 
#    y 0.000000 2.687980 0.000000 
#    z 0.000000 0.000000 1.301210 
# 
# 
# High freq. dielectric constant tensor:
#      x y z
#    x 1.505520 0.000000 0.000000 
#    y 0.000000 1.505520 0.000000 
#    z 0.000000 0.000000 1.541310 
# 
# From -- ./inp_files/1252.got.cif
#   From: 2010.03.12/outbox.cif.g09.slc.cpg/sg193_1_cif.got.tgz:1252.got - 2010.04.01 12:20:39.
