data_PCOD8329047
_publ_section_title
;
Structure prediction by ZEFSAII (Michael W. Deem and Ramdas Pophale) SiO2 
 PCOD8329047
Probable space group: P 6/M M M
;
_chemical_formula_sum "Si O2"
_cell_formula_units_Z 168
_cell_length_a 20.773002
_cell_length_b 20.773002
_cell_length_c 28.864180
_cell_angle_alpha 90.000000
_cell_angle_beta 90.000000
_cell_angle_gamma 120.000000
_cell_volume 10786.694571
_symmetry_space_group_name_H-M "P 6/M M M"
_symmetry_group_IT_number 191
_symmetry_cell_setting 'hexagonal'
loop_
_space_group_symop_operation_xyz
x,y,z
x-y,x,z
-y,x-y,z
-x,-y,z
-x+y,-x,z
y,-x+y,z
x-y,-y,-z
-x,-x+y,-z
y,x,-z
-y,-x,-z
-x+y,y,-z
x,x-y,-z
-x,-y,-z
-x+y,-x,-z
y,-x+y,-z
x,y,-z
x-y,x,-z
-y,x-y,-z
-x+y,y,z
x,x-y,z
-y,-x,z
y,x,z
x-y,-y,z
-x,-x+y,z
loop_
_atom_site_type_symbol
_atom_site_label
_atom_site_fract_x
_atom_site_fract_y
_atom_site_fract_z
Si Si1 0.514747 0.180757 0.778685
Si Si2 0.302643 0.915693 0.448047
Si Si3 0.813957 0.335643 0.606338
Si Si4 0.695876 0.777345 0.359342
Si Si5 0.534576 0.917040 0.135531
Si Si6 0.666627 0.482554 0.052663
Si Si7 0.352465 0.914316 0.310829
O O1 0.600016 0.200031 0.781420
O O2 0.513981 0.256991 0.772168
O O3 0.468398 0.138305 0.824451
O O4 0.472647 0.124408 0.737301
O O5 0.269603 0.902496 0.500000
O O6 0.331697 0.858282 0.438417
O O7 0.239155 0.900642 0.410986
O O8 0.370657 0.000000 0.441901
O O9 0.784839 0.392420 0.594839
O O10 0.744530 0.255471 0.618868
O O11 0.870191 0.367909 0.649362
O O12 0.723904 0.861952 0.346443
O O13 0.767469 0.767469 0.357496
O O14 0.635739 0.725059 0.321659
O O15 0.461943 0.923885 0.139422
O O16 0.538015 0.883039 0.085919
O O17 0.606390 0.000000 0.140268
O O18 0.743198 0.486395 0.065566
O O19 0.602080 0.397921 0.060567
O O20 0.666540 0.508100 0.000000
O O21 0.419008 0.000000 0.309363
#
# Coordination Sequence:
#
# PCOD8329047 Si02
#       7
#    24  24  24  24  24  24  24
#     4  11  21  32  46  63  86 113 141 174 213 260
#     4   9  18  32  50  69  85 105 137 178 217 247
#     4  11  22  34  47  63  86 114 142 171 205 250
#     4   9  17  30  48  69  91 113 139 170 205 246
#     4   9  18  30  42  58  80 107 140 177 215 253
#     4   9  16  26  41  60  82 108 139 176 218 264
#     4  10  20  33  50  68  84 107 139 176 215 250
#
# _framework density 15.574743
#
# number of rings (size 3 to 8) (size 9 to 14) (size 15 to 20)
#    0.000    2.286    0.000    5.571    0.000    4.857 
#    0.000    5.000    0.000    1.000    0.000    0.000 
#    0.000    0.000    0.000    3.571    0.000    0.000 
#
# Total GULP energy -2082737.491395 kJ/mol
# GULP energy per Si atom -12397.246973 kJ/mol
# Density = 1.553929 g / cm^3
# Si number density = 15.574743 Si / 1000 Ang^3
#
#
#
# Elastic Constant Matrix: (Units=GPa)
#
#
# Indices 1 2 3 4 5 6 
#
# 1 74.1789 43.7722 16.4760 0.0000 0.0000 0.0000
# 2 43.7722 74.1789 16.4760 0.0000 0.0000 0.0000
# 3 16.4760 16.4760 57.3528 0.0000 0.0000 0.0000
# 4 0.0000 0.0000 0.0000 16.1595 0.0000 0.0000
# 5 0.0000 0.0000 0.0000 0.0000 16.1595 0.0000
# 6 0.0000 0.0000 0.0000 0.0000 0.0000 15.2034
#
#
#
# Elastic Compliance Matrix: (Units=1/GPa)
#
#
# Indices 1 2 3 4 5 6 
#
# 1 0.021053 -0.011835 -0.002648 0.000000 0.000000 0.000000
# 2 -0.011835 0.021053 -0.002648 0.000000 0.000000 0.000000
# 3 -0.002648 -0.002648 0.018957 0.000000 0.000000 0.000000
# 4 0.000000 0.000000 0.000000 0.061883 0.000000 0.000000
# 5 0.000000 0.000000 0.000000 0.000000 0.061883 0.000000
# 6 0.000000 0.000000 0.000000 0.000000 0.000000 0.065775
#
#
# Mechanical properties :
#
#
# Convention : Reuss Voigt Hill
#
# Bulk Modulus (GPa) = 37.31222 39.90658 38.60940
# Shear Modulus (GPa) = 17.01839 18.10354 17.56097
#
# Velocity S-wave (km/s) = 3.30918 3.41305 3.36151
# Velocity P-wave (km/s) = 6.21367 6.41951 6.31743
#
# Compressibility (1/GPa) = 0.02680087
#
# Stress axis : x y z
#
# Youngs Moduli (GPa) = 47.49989 47.49989 52.74992
#
# Poissons Ratio (x) = 0.56215 0.13969
# Poissons Ratio (y) = 0.56215 0.13969
# Poissons Ratio (z) = 0.12578 0.12578
#
# Static dielectric constant tensor:
#      x y z
#    x 2.893760 0.000000 0.000000 
#    y 0.000000 2.893760 0.000000 
#    z 0.000000 0.000000 3.073220 
# 
# 
# High freq. dielectric constant tensor:
#      x y z
#    x 1.579640 0.000000 0.000000 
#    y 0.000000 1.579640 0.000000 
#    z 0.000000 0.000000 1.600400 
# 
# From -- ./inp_files/10027.got.cif
#   From: 2010.03.12/outbox.cif.g09.slc.cpg/sg191_6_cif.got.tgz:10027.got - 2010.04.01 12:09:02.
