data_PCOD8329590
_publ_section_title
;
Structure prediction by ZEFSAII (Michael W. Deem and Ramdas Pophale) SiO2 
 PCOD8329590
Probable space group: P 6/M C C
;
_chemical_formula_sum "Si O2"
_cell_formula_units_Z 108
_cell_length_a 16.212064
_cell_length_b 16.212064
_cell_length_c 23.199430
_cell_angle_alpha 90.000000
_cell_angle_beta 90.000000
_cell_angle_gamma 120.000000
_cell_volume 5280.615733
_symmetry_space_group_name_H-M "P 6/M C C"
_symmetry_group_IT_number 192
_symmetry_cell_setting 'hexagonal'
loop_
_space_group_symop_operation_xyz
x,y,z
x-y,x,z
-y,x-y,z
-x,-y,z
-x+y,-x,z
y,-x+y,z
x-y,-y,1/2-z
-x,-x+y,1/2-z
y,x,1/2-z
-y,-x,1/2-z
-x+y,y,1/2-z
x,x-y,1/2-z
-x,-y,-z
-x+y,-x,-z
y,-x+y,-z
x,y,-z
x-y,x,-z
-y,x-y,-z
-x+y,y,1/2+z
x,x-y,1/2+z
-y,-x,1/2+z
y,x,1/2+z
x-y,-y,1/2+z
-x,-x+y,1/2+z
loop_
_atom_site_type_symbol
_atom_site_label
_atom_site_fract_x
_atom_site_fract_y
_atom_site_fract_z
Si Si1 0.419308 0.336657 0.843227
Si Si2 0.069538 0.863963 0.066994
Si Si3 0.222779 0.777222 0.750000
Si Si4 0.201231 0.784370 0.933439
Si Si5 0.871162 0.504146 0.656556
O O1 0.386688 0.255997 0.792501
O O2 0.406210 0.286649 0.905232
O O3 0.362668 0.393862 0.837520
O O4 0.530159 0.414315 0.839936
O O5 0.104743 0.788454 0.075177
O O6 0.965785 0.822218 0.096105
O O7 0.064500 0.882554 0.000000
O O8 0.311654 0.801848 0.709361
O O9 0.182155 0.687148 0.902451
O O10 0.226870 0.781745 0.000000
#
# Coordination Sequence:
#
# PCOD8329590 Si02
#       5
#    24  24  12  24  24
#     4  10  21  38  58  81 110 148 192 236 287 348
#     4   9  16  27  46  72 102 135 172 215 262 315
#     4  10  20  36  58  84 106 132 178 238 294 344
#     4  10  21  36  53  80 113 151 191 234 280 331
#     4  10  21  38  58  81 110 148 192 236 287 348
#
# _framework density 20.452159999999999
#
# number of rings (size 3 to 8) (size 9 to 14) (size 15 to 20)
#    0.000    2.222    0.000    2.889    0.000    6.222 
#   18.667    2.222    0.000    0.000    0.000    0.000 
#    0.000    0.000    0.000   35.556    0.000    8.000 
#
# Total GULP energy -1338166.398458 kJ/mol
# GULP energy per Si atom -12390.429615 kJ/mol
# Density = 2.040561 g / cm^3
# Si number density = 20.452160 Si / 1000 Ang^3
#
#
#
# Elastic Constant Matrix: (Units=GPa)
#
#
# Indices 1 2 3 4 5 6 
#
# 1 66.2507 18.7185 34.3576 0.0000 0.0000 0.0000
# 2 18.7185 66.2507 34.3576 0.0000 0.0000 0.0000
# 3 34.3576 34.3576 134.6046 0.0000 0.0000 0.0000
# 4 0.0000 0.0000 0.0000 22.6870 0.0000 0.0000
# 5 0.0000 0.0000 0.0000 0.0000 22.6870 0.0000
# 6 0.0000 0.0000 0.0000 0.0000 0.0000 23.7661
#
#
#
# Elastic Compliance Matrix: (Units=1/GPa)
#
#
# Indices 1 2 3 4 5 6 
#
# 1 0.017934 -0.003104 -0.003785 0.000000 0.000000 0.000000
# 2 -0.003104 0.017934 -0.003785 0.000000 0.000000 0.000000
# 3 -0.003785 -0.003785 0.009362 0.000000 0.000000 0.000000
# 4 0.000000 0.000000 0.000000 0.044078 0.000000 0.000000
# 5 0.000000 0.000000 0.000000 0.000000 0.044078 0.000000
# 6 0.000000 0.000000 0.000000 0.000000 0.000000 0.042077
#
#
# Mechanical properties :
#
#
# Convention : Reuss Voigt Hill
#
# Bulk Modulus (GPa) = 41.87517 49.10817 45.49167
# Shear Modulus (GPa) = 24.41728 25.80617 25.11172
#
# Velocity S-wave (km/s) = 3.45899 3.55601 3.50784
# Velocity P-wave (km/s) = 6.03921 6.39716 6.22076
#
# Compressibility (1/GPa) = 0.02388050
#
# Stress axis : x y z
#
# Youngs Moduli (GPa) = 55.75907 55.75907 106.81942
#
# Poissons Ratio (x) = 0.17308 0.40435
# Poissons Ratio (y) = 0.17308 0.40435
# Poissons Ratio (z) = 0.21107 0.21107
#
# Static dielectric constant tensor:
#      x y z
#    x 3.758170 0.000000 0.000000 
#    y 0.000000 3.758170 0.000000 
#    z 0.000000 0.000000 3.653600 
# 
# 
# High freq. dielectric constant tensor:
#      x y z
#    x 1.795310 0.000000 0.000000 
#    y 0.000000 1.795310 0.000000 
#    z 0.000000 0.000000 1.782990 
# 
# From -- ./inp_files/4859.got.cif
#   From: 2010.03.12/outbox.cif.g09.slc.cpg/sg192_3_cif.got.tgz:4859.got - 2010.04.01 12:16:15.
