data_PCOD8329584
_publ_section_title
;
Structure prediction by ZEFSAII (Michael W. Deem and Ramdas Pophale) SiO2 
 PCOD8329584
Probable space group: P 6/M C C
;
_chemical_formula_sum "Si O2"
_cell_formula_units_Z 116
_cell_length_a 20.675056
_cell_length_b 20.675056
_cell_length_c 14.116496
_cell_angle_alpha 90.000000
_cell_angle_beta 90.000000
_cell_angle_gamma 120.000000
_cell_volume 5225.777687
_symmetry_space_group_name_H-M "P 6/M C C"
_symmetry_group_IT_number 192
_symmetry_cell_setting 'hexagonal'
loop_
_space_group_symop_operation_xyz
x,y,z
x-y,x,z
-y,x-y,z
-x,-y,z
-x+y,-x,z
y,-x+y,z
x-y,-y,1/2-z
-x,-x+y,1/2-z
y,x,1/2-z
-y,-x,1/2-z
-x+y,y,1/2-z
x,x-y,1/2-z
-x,-y,-z
-x+y,-x,-z
y,-x+y,-z
x,y,-z
x-y,x,-z
-y,x-y,-z
-x+y,y,1/2+z
x,x-y,1/2+z
-y,-x,1/2+z
y,x,1/2+z
x-y,-y,1/2+z
-x,-x+y,1/2+z
loop_
_atom_site_type_symbol
_atom_site_label
_atom_site_fract_x
_atom_site_fract_y
_atom_site_fract_z
Si Si1 0.666667 0.333334 0.612780
Si Si2 0.195659 0.927923 0.186548
Si Si3 0.949180 0.121376 0.500000
Si Si4 0.916725 0.464045 0.112379
Si Si5 0.284820 0.425771 0.387707
Si Si6 0.794779 0.488097 0.387570
O O1 0.666667 0.333334 0.500000
O O2 0.685716 0.273011 0.653565
O O3 0.140887 0.859114 0.250000
O O4 0.265705 0.918336 0.157878
O O5 0.222971 0.000000 0.250000
O O6 0.155397 0.933163 0.092658
O O7 0.033066 0.137743 0.500000
O O8 0.877037 0.510349 0.147296
O O9 0.871640 0.377950 0.149792
O O10 0.000000 0.500000 0.154478
O O11 0.918883 0.465202 0.000000
O O12 0.284779 0.418248 0.500000
O O13 0.220710 0.445678 0.355445
O O14 0.794849 0.484833 0.500000
#
# Coordination Sequence:
#
# PCOD8329584 Si02
#       6
#     8  24  12  24  24  24
#     4   9  12  21  45  78 118 161 211 298 353 400
#     4  12  26  45  71 104 151 188 224 280 345 422
#     4  12  25  50  82 116 139 177 227 277 341 423
#     4   9  17  29  47  84 128 165 224 295 346 392
#     4  10  20  35  61  94 131 186 241 288 352 426
#     4   9  15  26  49  83 122 166 228 294 352 407
#
# _framework density 22.197652999999999
#
# number of rings (size 3 to 8) (size 9 to 14) (size 15 to 20)
#    0.000    1.862    5.172    0.103    0.000    1.655 
#    0.000    2.069    0.000    4.345    0.000    0.000 
#    0.000    0.000    0.000    0.000    0.000    0.000 
#
# Total GULP energy -1437746.435111 kJ/mol
# GULP energy per Si atom -12394.365820 kJ/mol
# Density = 2.214713 g / cm^3
# Si number density = 22.197653 Si / 1000 Ang^3
#
#
#
# Elastic Constant Matrix: (Units=GPa)
#
#
# Indices 1 2 3 4 5 6 
#
# 1 115.6961 32.2476 25.5527 0.0000 0.0000 0.0000
# 2 32.2476 115.6978 25.5525 0.0000 -0.0001 0.0002
# 3 25.5527 25.5525 85.3409 -0.0001 0.0000 0.0000
# 4 0.0000 0.0000 -0.0001 -19.1677 -0.0004 0.0001
# 5 0.0000 -0.0001 0.0000 -0.0004 -19.1662 0.0000
# 6 0.0000 0.0002 0.0000 0.0001 0.0000 41.7248
#
#
#
# Elastic Compliance Matrix: (Units=1/GPa)
#
#
# Indices 1 2 3 4 5 6 
#
# 1 0.009761 -0.002222 -0.002257 0.000000 0.000000 0.000000
# 2 -0.002222 0.009761 -0.002257 0.000000 0.000000 0.000000
# 3 -0.002257 -0.002257 0.013069 0.000000 0.000000 0.000000
# 4 0.000000 0.000000 0.000000 -0.052171 0.000001 0.000000
# 5 0.000000 0.000000 0.000000 0.000001 -0.052175 0.000000
# 6 0.000000 0.000000 0.000000 0.000000 0.000000 0.023967
#
#
# Mechanical properties :
#
#
# Convention : Reuss Voigt Hill
#
# Bulk Modulus (GPa) = 52.30600 53.71561 53.01080
# Shear Modulus (GPa) = -178.94533 16.23697 -81.35418
#
# Velocity S-wave (km/s) = -8.98830 2.70751 -6.06048
# Velocity P-wave (km/s) = 9.17085 5.83313 5.00395
#
# Compressibility (1/GPa) = 0.01911827
#
# Stress axis : x y z
#
# Youngs Moduli (GPa) = 102.44577 102.44752 76.51412
#
# Poissons Ratio (x) = 0.22765 0.17272
# Poissons Ratio (y) = 0.22765 0.17271
# Poissons Ratio (z) = 0.23126 0.23125
#
# Static dielectric constant tensor:
#      x y z
#    x 4.197990 0.000000 0.000000 
#    y 0.000000 4.197980 0.000000 
#    z 0.000000 0.000000 3.801530 
# 
# 
# High freq. dielectric constant tensor:
#      x y z
#    x 1.874140 0.000000 0.000000 
#    y 0.000000 1.874140 0.000000 
#    z 0.000000 0.000000 1.874480 
# 
# From -- ./inp_files/3009.got.cif
#   From: 2010.03.12/outbox.cif.g09.slc.cpg/sg192_2_cif.got.tgz:3009.got - 2010.04.01 12:16:15.
