data_PCOD8329349
_publ_section_title
;
Structure prediction by ZEFSAII (Michael W. Deem and Ramdas Pophale) SiO2 
 PCOD8329349
Probable space group: P 6/M C C
;
_chemical_formula_sum "Si O2"
_cell_formula_units_Z 180
_cell_length_a 26.228170
_cell_length_b 26.228170
_cell_length_c 16.564866
_cell_angle_alpha 90.000000
_cell_angle_beta 90.000000
_cell_angle_gamma 120.000000
_cell_volume 9868.577102
_symmetry_space_group_name_H-M "P 6/M C C"
_symmetry_group_IT_number 192
_symmetry_cell_setting 'hexagonal'
loop_
_space_group_symop_operation_xyz
x,y,z
x-y,x,z
-y,x-y,z
-x,-y,z
-x+y,-x,z
y,-x+y,z
x-y,-y,1/2-z
-x,-x+y,1/2-z
y,x,1/2-z
-y,-x,1/2-z
-x+y,y,1/2-z
x,x-y,1/2-z
-x,-y,-z
-x+y,-x,-z
y,-x+y,-z
x,y,-z
x-y,x,-z
-y,x-y,-z
-x+y,y,1/2+z
x,x-y,1/2+z
-y,-x,1/2+z
y,x,1/2+z
x-y,-y,1/2+z
-x,-x+y,1/2+z
loop_
_atom_site_type_symbol
_atom_site_label
_atom_site_fract_x
_atom_site_fract_y
_atom_site_fract_z
Si Si1 0.771432 0.991638 0.154942
Si Si2 0.884690 0.995806 0.405492
Si Si3 0.838311 0.303765 0.590325
Si Si4 0.873475 0.377884 0.251073
Si Si5 0.061892 0.351356 0.846020
Si Si6 0.741745 0.198967 0.332969
Si Si7 0.880767 0.214753 0.804498
Si Si8 0.601663 0.000000 0.750000
O O1 0.830825 0.007741 0.109994
O O2 0.721613 0.923749 0.139912
O O3 0.782737 0.000000 0.250000
O O4 0.747907 0.033436 0.118619
O O5 0.894205 0.996078 0.500000
O O6 0.938690 0.054863 0.366887
O O7 0.843135 0.329295 0.500000
O O8 0.858095 0.353713 0.657703
O O9 0.883534 0.278443 0.597341
O O10 0.769339 0.252997 0.603444
O O11 0.856882 0.428441 0.250000
O O12 0.832713 0.328344 0.183815
O O13 0.942440 0.404132 0.231252
O O14 0.083479 0.353636 0.754470
O O15 0.013561 0.371859 0.831425
O O16 0.776057 0.223944 0.250000
O O17 0.764027 0.154441 0.362664
O O18 0.842619 0.157382 0.750000
#
# Coordination Sequence:
#
# PCOD8329349 Si02
#       8
#    24  24  24  24  24  24  24  12
#     4  10  21  30  51  80 105 127 160 213 270 322
#     4  10  23  41  54  62  82 124 174 221 273 333
#     4  10  20  33  54  82 112 143 179 226 279 320
#     4  10  19  32  56  83 107 147 195 228 255 313
#     4  10  16  30  50  77 108 142 170 210 261 320
#     4   9  15  31  53  75 104 139 181 215 249 312
#     4  10  15  28  51  76 104 138 170 210 253 310
#     4  10  15  30  52  80 108 140 187 220 240 298
#
# _framework density 18.239712000000001
#
# number of rings (size 3 to 8) (size 9 to 14) (size 15 to 20)
#    0.000    2.133    7.333    0.333    3.733    1.067 
#    0.000    2.667    0.000   20.800    0.000    0.000 
#    0.000    0.000    0.000    0.000    0.000    0.000 
#
# Total GULP energy -2230198.607784 kJ/mol
# GULP energy per Si atom -12389.992265 kJ/mol
# Density = 1.819820 g / cm^3
# Si number density = 18.239712 Si / 1000 Ang^3
#
#
#
# Elastic Constant Matrix: (Units=GPa)
#
#
# Indices 1 2 3 4 5 6 
#
# 1 111.1499 58.8335 18.3447 0.0000 0.0000 0.0000
# 2 58.8335 111.1499 18.3447 0.0000 0.0000 0.0000
# 3 18.3447 18.3447 49.3184 0.0000 0.0000 0.0000
# 4 0.0000 0.0000 0.0000 13.6633 0.0000 0.0000
# 5 0.0000 0.0000 0.0000 0.0000 13.6633 0.0000
# 6 0.0000 0.0000 0.0000 0.0000 0.0000 26.1582
#
#
#
# Elastic Compliance Matrix: (Units=1/GPa)
#
#
# Indices 1 2 3 4 5 6 
#
# 1 0.012755 -0.006359 -0.002379 0.000000 0.000000 0.000000
# 2 -0.006359 0.012755 -0.002379 0.000000 0.000000 0.000000
# 3 -0.002379 -0.002379 0.022046 0.000000 0.000000 0.000000
# 4 0.000000 0.000000 0.000000 0.073189 0.000000 0.000000
# 5 0.000000 0.000000 0.000000 0.000000 0.073189 0.000000
# 6 0.000000 0.000000 0.000000 0.000000 0.000000 0.038229
#
#
# Mechanical properties :
#
#
# Convention : Reuss Voigt Hill
#
# Bulk Modulus (GPa) = 39.49088 51.40710 45.44899
# Shear Modulus (GPa) = 19.02298 22.43663 20.72980
#
# Velocity S-wave (km/s) = 3.23297 3.51108 3.37489
# Velocity P-wave (km/s) = 5.96943 6.68448 6.33705
#
# Compressibility (1/GPa) = 0.02532230
#
# Stress axis : x y z
#
# Youngs Moduli (GPa) = 78.39774 78.39774 45.35892
#
# Poissons Ratio (x) = 0.49853 0.10792
# Poissons Ratio (y) = 0.49853 0.10792
# Poissons Ratio (z) = 0.18653 0.18653
#
# Static dielectric constant tensor:
#      x y z
#    x 3.516820 0.000000 0.000000 
#    y 0.000000 3.516820 0.000000 
#    z 0.000000 0.000000 2.889260 
# 
# 
# High freq. dielectric constant tensor:
#      x y z
#    x 1.706100 0.000000 0.000000 
#    y 0.000000 1.706100 0.000000 
#    z 0.000000 0.000000 1.649550 
# 
# From -- ./inp_files/4418.got.cif
#   From: 2010.03.12/outbox.cif.g09.slc.cpg/sg192_3_cif.got.tgz:4418.got - 2010.04.01 12:16:15.
