data_PCOD8329936
_publ_section_title
;
Structure prediction by ZEFSAII (Michael W. Deem and Ramdas Pophale) SiO2 
 PCOD8329936
Probable space group: P 63/M C M
;
_chemical_formula_sum "Si O2"
_cell_formula_units_Z 156
_cell_length_a 21.757438
_cell_length_b 21.757438
_cell_length_c 19.514505
_cell_angle_alpha 90.000000
_cell_angle_beta 90.000000
_cell_angle_gamma 120.000000
_cell_volume 8000.252248
_symmetry_space_group_name_H-M "P 63/M C M"
_symmetry_group_IT_number 193
_symmetry_cell_setting 'hexagonal'
loop_
_space_group_symop_operation_xyz
x,y,z
x-y,x,1/2+z
-y,x-y,z
-x,-y,1/2+z
-x+y,-x,z
y,-x+y,1/2+z
x-y,-y,1/2-z
-x,-x+y,1/2-z
y,x,1/2-z
-y,-x,-z
-x+y,y,-z
x,x-y,-z
-x,-y,-z
-x+y,-x,1/2-z
y,-x+y,-z
x,y,1/2-z
x-y,x,-z
-y,x-y,1/2-z
-x+y,y,1/2+z
x,x-y,1/2+z
-y,-x,1/2+z
y,x,z
x-y,-y,z
-x,-x+y,z
loop_
_atom_site_type_symbol
_atom_site_label
_atom_site_fract_x
_atom_site_fract_y
_atom_site_fract_z
Si Si1 0.082735 0.666957 0.918212
Si Si2 0.196645 0.516798 0.671301
Si Si3 0.601326 0.918048 0.425107
Si Si4 0.741352 0.819587 0.618058
Si Si5 0.919809 0.080192 0.500000
Si Si6 0.653698 0.465795 0.328646
Si Si7 0.221439 0.919960 0.325754
O O1 0.122137 0.631685 0.879316
O O2 0.104536 0.741899 0.882329
O O3 0.000000 0.613301 0.909025
O O4 0.104960 0.679396 0.997362
O O5 0.176841 0.492524 0.750000
O O6 0.130899 0.461883 0.625770
O O7 0.268572 0.518647 0.649679
O O8 0.212630 0.596481 0.660561
O O9 0.667697 0.906591 0.414737
O O10 0.623671 0.000000 0.412102
O O11 0.781371 0.781371 0.652674
O O12 0.789731 0.872558 0.560091
O O13 0.728604 0.865878 0.673979
O O14 0.000000 0.110849 0.473561
O O15 0.653458 0.488440 0.250000
O O16 0.249291 0.915894 0.250000
O O17 0.238574 0.000000 0.341430
#
# Coordination Sequence:
#
# PCOD8329936 Si02
#       7
#    24  24  24  24  12  24  24
#     4  10  21  37  57  82 112 143 179 225 275 326
#     4  10  22  40  61  85 114 148 186 228 275 329
#     4  10  22  38  56  82 115 149 182 223 278 332
#     4  10  20  33  51  75 105 142 182 225 277 336
#     4  10  19  32  52  78 108 144 188 238 290 344
#     4  10  21  38  60  84 111 145 184 226 272 323
#     4  10  20  34  53  77 105 138 179 228 278 328
#
# _framework density 19.499385
#
# number of rings (size 3 to 8) (size 9 to 14) (size 15 to 20)
#    0.000    2.000    0.000    3.154    0.000   10.154 
#    0.000    4.615    0.000    2.154    0.000    0.000 
#    0.000    0.000    0.000    0.000    0.000    0.000 
#
# Total GULP energy -1934500.125261 kJ/mol
# GULP energy per Si atom -12400.641829 kJ/mol
# Density = 1.945500 g / cm^3
# Si number density = 19.499385 Si / 1000 Ang^3
#
#
#
# Elastic Constant Matrix: (Units=GPa)
#
#
# Indices 1 2 3 4 5 6 
#
# 1 96.6065 38.8489 51.0294 0.0000 0.0000 0.0000
# 2 38.8489 96.6065 51.0294 0.0000 0.0000 0.0000
# 3 51.0294 51.0294 104.0635 0.0000 0.0000 0.0000
# 4 0.0000 0.0000 0.0000 26.0248 0.0000 0.0000
# 5 0.0000 0.0000 0.0000 0.0000 26.0248 0.0000
# 6 0.0000 0.0000 0.0000 0.0000 0.0000 28.8788
#
#
#
# Elastic Compliance Matrix: (Units=1/GPa)
#
#
# Indices 1 2 3 4 5 6 
#
# 1 0.014511 -0.002803 -0.005741 0.000000 0.000000 0.000000
# 2 -0.002803 0.014511 -0.005741 0.000000 0.000000 0.000000
# 3 -0.005741 -0.005741 0.015240 0.000000 0.000000 0.000000
# 4 0.000000 0.000000 0.000000 0.038425 0.000000 0.000000
# 5 0.000000 0.000000 0.000000 0.000000 0.038425 0.000000
# 6 0.000000 0.000000 0.000000 0.000000 0.000000 0.034627
#
#
# Mechanical properties :
#
#
# Convention : Reuss Voigt Hill
#
# Bulk Modulus (GPa) = 63.72911 64.34357 64.03634
# Shear Modulus (GPa) = 26.37951 26.61029 26.49490
#
# Velocity S-wave (km/s) = 3.68209 3.69816 3.69013
# Velocity P-wave (km/s) = 7.12956 7.16272 7.14616
#
# Compressibility (1/GPa) = 0.01569142
#
# Stress axis : x y z
#
# Youngs Moduli (GPa) = 68.91302 68.91302 65.61540
#
# Poissons Ratio (x) = 0.19314 0.37673
# Poissons Ratio (y) = 0.19314 0.37673
# Poissons Ratio (z) = 0.39566 0.39566
#
# Static dielectric constant tensor:
#      x y z
#    x 3.663060 0.000000 0.000000 
#    y 0.000000 3.663060 0.000000 
#    z 0.000000 0.000000 3.503980 
# 
# 
# High freq. dielectric constant tensor:
#      x y z
#    x 1.763970 0.000000 0.000000 
#    y 0.000000 1.763970 0.000000 
#    z 0.000000 0.000000 1.752170 
# 
# From -- ./inp_files/6731.got.cif
#   From: 2010.03.12/outbox.cif.g09.slc.cpg/sg193_4_cif.got.tgz:6731.got - 2010.04.01 12:20:39.
