data_PCOD8329073
_publ_section_title
;
Structure prediction by ZEFSAII (Michael W. Deem and Ramdas Pophale) SiO2 
 PCOD8329073
Probable space group: P 6/M M M
;
_chemical_formula_sum "Si O2"
_cell_formula_units_Z 72
_cell_length_a 20.530140
_cell_length_b 20.530140
_cell_length_c 12.573979
_cell_angle_alpha 90.000000
_cell_angle_beta 90.000000
_cell_angle_gamma 120.000000
_cell_volume 4589.730488
_symmetry_space_group_name_H-M "P 6/M M M"
_symmetry_group_IT_number 191
_symmetry_cell_setting 'hexagonal'
loop_
_space_group_symop_operation_xyz
x,y,z
x-y,x,z
-y,x-y,z
-x,-y,z
-x+y,-x,z
y,-x+y,z
x-y,-y,-z
-x,-x+y,-z
y,x,-z
-y,-x,-z
-x+y,y,-z
x,x-y,-z
-x,-y,-z
-x+y,-x,-z
y,-x+y,-z
x,y,-z
x-y,x,-z
-y,x-y,-z
-x+y,y,z
x,x-y,z
-y,-x,z
y,x,z
x-y,-y,z
-x,-x+y,z
loop_
_atom_site_type_symbol
_atom_site_label
_atom_site_fract_x
_atom_site_fract_y
_atom_site_fract_z
Si Si1 0.088153 0.618029 0.618150
Si Si2 0.915083 0.233239 0.000000
Si Si3 0.541160 0.082320 0.880530
Si Si4 0.561510 0.706066 0.819220
O O1 0.123135 0.644438 0.500000
O O2 0.107410 0.553705 0.660658
O O3 0.119452 0.690684 0.695308
O O4 0.000000 0.583033 0.610155
O O5 0.904557 0.270097 0.107629
O O6 0.856248 0.143753 0.000000
O O7 0.000000 0.248013 0.000000
O O8 0.628702 0.134288 0.860436
O O9 0.500000 0.000000 0.818059
O O10 0.528640 0.057279 0.000000
O O11 0.536976 0.768488 0.827385
#
# Coordination Sequence:
#
# PCOD8329073 Si02
#       4
#    24  12  12  24
#     4   9  17  30  49  68  85 115 163 208 237 272
#     4  10  20  33  51  74  99 121 147 187 233 281
#     4  11  20  32  53  69  87 125 168 201 233 283
#     4  11  21  31  46  71  97 123 156 196 245 285
#
# _framework density 15.687194999999999
#
# number of rings (size 3 to 8) (size 9 to 14) (size 15 to 20)
#    0.000    1.833    3.333    4.000    0.000    0.667 
#    1.000    0.000    0.000    0.167    0.000    0.000 
#    0.000    0.000    0.000    0.000    0.000    0.000 
#
# Total GULP energy -891958.394978 kJ/mol
# GULP energy per Si atom -12388.311041 kJ/mol
# Density = 1.565149 g / cm^3
# Si number density = 15.687195 Si / 1000 Ang^3
#
#
#
# Elastic Constant Matrix: (Units=GPa)
#
#
# Indices 1 2 3 4 5 6 
#
# 1 96.5521 49.3136 35.6863 0.0000 0.0000 0.0000
# 2 49.3136 96.5521 35.6863 0.0000 0.0000 0.0000
# 3 35.6863 35.6863 99.6238 0.0000 0.0000 0.0000
# 4 0.0000 0.0000 0.0000 18.8313 0.0000 0.0000
# 5 0.0000 0.0000 0.0000 0.0000 18.8313 0.0000
# 6 0.0000 0.0000 0.0000 0.0000 0.0000 23.6193
#
#
#
# Elastic Compliance Matrix: (Units=1/GPa)
#
#
# Indices 1 2 3 4 5 6 
#
# 1 0.014741 -0.006428 -0.002978 0.000000 0.000000 0.000000
# 2 -0.006428 0.014741 -0.002978 0.000000 0.000000 0.000000
# 3 -0.002978 -0.002978 0.012171 0.000000 0.000000 0.000000
# 4 0.000000 0.000000 0.000000 0.053103 0.000000 0.000000
# 5 0.000000 0.000000 0.000000 0.000000 0.053103 0.000000
# 6 0.000000 0.000000 0.000000 0.000000 0.000000 0.042338
#
#
# Mechanical properties :
#
#
# Convention : Reuss Voigt Hill
#
# Bulk Modulus (GPa) = 59.22213 59.34448 59.28331
# Shear Modulus (GPa) = 22.66618 23.72583 23.19601
#
# Velocity S-wave (km/s) = 3.80529 3.89322 3.84950
# Velocity P-wave (km/s) = 7.55915 7.62375 7.59152
#
# Compressibility (1/GPa) = 0.01688558
#
# Stress axis : x y z
#
# Youngs Moduli (GPa) = 67.83860 67.83860 82.16232
#
# Poissons Ratio (x) = 0.43608 0.24465
# Poissons Ratio (y) = 0.43608 0.24465
# Poissons Ratio (z) = 0.20200 0.20200
#
# Static dielectric constant tensor:
#      x y z
#    x 2.706410 0.000000 0.000000 
#    y 0.000000 2.706410 0.000000 
#    z 0.000000 0.000000 3.802950 
# 
# 
# High freq. dielectric constant tensor:
#      x y z
#    x 1.572060 0.000000 0.000000 
#    y 0.000000 1.572060 0.000000 
#    z 0.000000 0.000000 1.632390 
# 
# From -- ./inp_files/3935.got.cif
#   From: 2010.03.12/outbox.cif.g09.slc.cpg/sg191_2_cif.got.tgz:3935.got - 2010.04.01 12:09:02.
