data_PCOD8329232
_publ_section_title
;
Structure prediction by ZEFSAII (Michael W. Deem and Ramdas Pophale) SiO2 
 PCOD8329232
Probable space group: P 6/M M M
;
_chemical_formula_sum "Si O2"
_cell_formula_units_Z 126
_cell_length_a 19.342922
_cell_length_b 19.342922
_cell_length_c 23.606465
_cell_angle_alpha 90.000000
_cell_angle_beta 90.000000
_cell_angle_gamma 120.000000
_cell_volume 7649.019188
_symmetry_space_group_name_H-M "P 6/M M M"
_symmetry_group_IT_number 191
_symmetry_cell_setting 'hexagonal'
loop_
_space_group_symop_operation_xyz
x,y,z
x-y,x,z
-y,x-y,z
-x,-y,z
-x+y,-x,z
y,-x+y,z
x-y,-y,-z
-x,-x+y,-z
y,x,-z
-y,-x,-z
-x+y,y,-z
x,x-y,-z
-x,-y,-z
-x+y,-x,-z
y,-x+y,-z
x,y,-z
x-y,x,-z
-y,x-y,-z
-x+y,y,z
x,x-y,z
-y,-x,z
y,x,z
x-y,-y,z
-x,-x+y,z
loop_
_atom_site_type_symbol
_atom_site_label
_atom_site_fract_x
_atom_site_fract_y
_atom_site_fract_z
Si Si1 0.176960 0.667989 0.240251
Si Si2 0.167911 0.832090 0.936486
Si Si3 0.095082 0.547541 0.063079
Si Si4 0.909342 0.248035 0.433684
Si Si5 0.323996 0.906825 0.866629
Si Si6 0.092228 0.624217 0.356055
Si Si7 0.185037 0.092519 0.000000
O O1 0.159158 0.579579 0.225279
O O2 0.271508 0.728493 0.241183
O O3 0.136462 0.697171 0.193815
O O4 0.142023 0.670390 0.301082
O O5 0.246342 0.889041 0.901279
O O6 0.120100 0.879901 0.943710
O O7 0.187771 0.812230 0.000000
O O8 0.127159 0.630356 0.095813
O O9 0.000000 0.500000 0.060307
O O10 0.131344 0.565672 0.000000
O O11 0.904509 0.260126 0.500000
O O12 0.843491 0.156510 0.416255
O O13 0.887876 0.310412 0.404703
O O14 0.000000 0.268767 0.417136
O O15 0.377787 0.000000 0.855294
O O16 0.114721 0.557361 0.376625
O O17 0.000000 0.581060 0.338887
O O18 0.129293 0.129293 0.000000
#
# Coordination Sequence:
#
# PCOD8329232 Si02
#       7
#    24  12  12  24  24  24   6
#     4  11  21  34  49  68  95 130 167 205 244 286
#     4  10  22  35  52  75 102 125 151 195 245 290
#     4   9  18  30  48  69  89 118 155 190 227 277
#     4   9  17  30  49  74 104 137 173 212 255 303
#     4  11  20  33  51  71  95 124 159 198 239 286
#     4   9  18  31  49  73  99 128 166 210 254 298
#     4  10  21  38  60  82 104 128 154 190 244 312
#
# _framework density 16.472698999999999
#
# number of rings (size 3 to 8) (size 9 to 14) (size 15 to 20)
#    0.286    1.810    1.905    2.524    0.000    1.905 
#    0.000    1.905    0.000    0.571    0.000    4.000 
#    0.000    0.000    0.000    0.000    0.000    0.000 
#
# Total GULP energy -1562044.067977 kJ/mol
# GULP energy per Si atom -12397.175143 kJ/mol
# Density = 1.643521 g / cm^3
# Si number density = 16.472699 Si / 1000 Ang^3
#
#
#
# Elastic Constant Matrix: (Units=GPa)
#
#
# Indices 1 2 3 4 5 6 
#
# 1 95.5435 47.1976 41.5861 0.0000 0.0000 0.0000
# 2 47.1976 95.5435 41.5861 0.0000 0.0000 0.0000
# 3 41.5861 41.5861 72.8291 0.0000 0.0000 0.0000
# 4 0.0000 0.0000 0.0000 24.2770 0.0000 0.0000
# 5 0.0000 0.0000 0.0000 0.0000 24.2770 0.0000
# 6 0.0000 0.0000 0.0000 0.0000 0.0000 24.1729
#
#
#
# Elastic Compliance Matrix: (Units=1/GPa)
#
#
# Indices 1 2 3 4 5 6 
#
# 1 0.015592 -0.005093 -0.005995 0.000000 0.000000 0.000000
# 2 -0.005093 0.015592 -0.005995 0.000000 0.000000 0.000000
# 3 -0.005995 -0.005995 0.020577 0.000000 0.000000 0.000000
# 4 0.000000 0.000000 0.000000 0.041191 0.000000 0.000000
# 5 0.000000 0.000000 0.000000 0.000000 0.041191 0.000000
# 6 0.000000 0.000000 0.000000 0.000000 0.000000 0.041369
#
#
# Mechanical properties :
#
#
# Convention : Reuss Voigt Hill
#
# Bulk Modulus (GPa) = 56.83424 58.29507 57.56465
# Shear Modulus (GPa) = 23.19739 23.44846 23.32293
#
# Velocity S-wave (km/s) = 3.75671 3.77699 3.76686
# Velocity P-wave (km/s) = 7.30713 7.38150 7.34441
#
# Compressibility (1/GPa) = 0.01759503
#
# Stress axis : x y z
#
# Youngs Moduli (GPa) = 64.13730 64.13730 48.59777
#
# Poissons Ratio (x) = 0.32664 0.29134
# Poissons Ratio (y) = 0.32664 0.29134
# Poissons Ratio (z) = 0.38450 0.38450
#
# Static dielectric constant tensor:
#      x y z
#    x 3.075260 0.000000 0.000000 
#    y 0.000000 3.075260 0.000000 
#    z 0.000000 0.000000 3.082680 
# 
# 
# High freq. dielectric constant tensor:
#      x y z
#    x 1.626380 0.000000 0.000000 
#    y 0.000000 1.626380 0.000000 
#    z 0.000000 0.000000 1.633900 
# 
# From -- ./inp_files/7565.got.cif
#   From: 2010.03.12/outbox.cif.g09.slc.cpg/sg191_4_cif.got.tgz:7565.got - 2010.04.01 12:09:02.
