data_PCOD8329970
_publ_section_title
;
Structure prediction by ZEFSAII (Michael W. Deem and Ramdas Pophale) SiO2 
 PCOD8329970
Probable space group: P 63/M C M
;
_chemical_formula_sum "Si O2"
_cell_formula_units_Z 168
_cell_length_a 17.089788
_cell_length_b 17.089788
_cell_length_c 30.924175
_cell_angle_alpha 90.000000
_cell_angle_beta 90.000000
_cell_angle_gamma 120.000000
_cell_volume 7821.717108
_symmetry_space_group_name_H-M "P 63/M C M"
_symmetry_group_IT_number 193
_symmetry_cell_setting 'hexagonal'
loop_
_space_group_symop_operation_xyz
x,y,z
x-y,x,1/2+z
-y,x-y,z
-x,-y,1/2+z
-x+y,-x,z
y,-x+y,1/2+z
x-y,-y,1/2-z
-x,-x+y,1/2-z
y,x,1/2-z
-y,-x,-z
-x+y,y,-z
x,x-y,-z
-x,-y,-z
-x+y,-x,1/2-z
y,-x+y,-z
x,y,1/2-z
x-y,x,-z
-y,x-y,1/2-z
-x+y,y,1/2+z
x,x-y,1/2+z
-y,-x,1/2+z
y,x,z
x-y,-y,z
-x,-x+y,z
loop_
_atom_site_type_symbol
_atom_site_label
_atom_site_fract_x
_atom_site_fract_y
_atom_site_fract_z
Si Si1 0.103468 0.619920 0.382292
Si Si2 0.734717 0.631508 0.329597
Si Si3 0.896776 0.498852 0.540480
Si Si4 0.899075 0.796913 0.301067
Si Si5 0.602321 0.783715 0.081365
Si Si6 0.573747 0.107285 0.798105
Si Si7 0.799345 0.899539 0.550865
O O1 0.110362 0.551487 0.415016
O O2 0.169627 0.719446 0.398858
O O3 0.139930 0.610375 0.335063
O O4 0.000000 0.598437 0.379784
O O5 0.688244 0.688244 0.314704
O O6 0.839948 0.691387 0.315306
O O7 0.728808 0.618986 0.381045
O O8 0.681241 0.533367 0.306542
O O9 0.860067 0.430034 0.500000
O O10 0.834675 0.545267 0.544216
O O11 0.000000 0.576008 0.530829
O O12 0.902938 0.802530 0.250000
O O13 0.856020 0.856020 0.319448
O O14 0.000000 0.837205 0.320212
O O15 0.695356 0.860542 0.061910
O O16 0.560278 0.136970 0.750000
O O17 0.526154 0.000000 0.802196
O O18 0.811487 0.905744 0.500000
O O19 0.856002 0.856002 0.571063
O O20 0.837546 0.000000 0.570506
#
# Coordination Sequence:
#
# PCOD8329970 Si02
#       7
#    24  24  24  24  24  24  24
#     4  10  22  40  61  91 126 161 205 260 320 382
#     4  10  19  34  57  85 115 153 206 259 308 372
#     4  10  22  41  66  92 124 165 206 253 313 383
#     4   9  17  29  47  76 117 163 208 256 311 369
#     4  12  23  38  62  93 126 163 203 265 320 383
#     4   9  17  35  63  87 111 155 211 262 317 380
#     4  10  22  39  61  90 129 177 227 272 315 372
#
# _framework density 21.478660000000001
#
# number of rings (size 3 to 8) (size 9 to 14) (size 15 to 20)
#    0.000    2.000    1.429    2.429    2.000    4.000 
#    0.857    1.429    0.000    3.429    0.000    0.000 
#    0.000    0.000    0.000    0.000    0.000    0.000 
#
# Total GULP energy -2082878.441651 kJ/mol
# GULP energy per Si atom -12398.085962 kJ/mol
# Density = 2.142977 g / cm^3
# Si number density = 21.478660 Si / 1000 Ang^3
#
#
#
# Elastic Constant Matrix: (Units=GPa)
#
#
# Indices 1 2 3 4 5 6 
#
# 1 112.5662 71.0652 36.4863 0.0000 0.0000 0.0000
# 2 71.0652 112.5662 36.4863 0.0000 0.0000 0.0000
# 3 36.4863 36.4863 92.0189 0.0000 0.0000 0.0000
# 4 0.0000 0.0000 0.0000 27.4406 0.0000 0.0000
# 5 0.0000 0.0000 0.0000 0.0000 27.4406 0.0000
# 6 0.0000 0.0000 0.0000 0.0000 0.0000 20.7505
#
#
#
# Elastic Compliance Matrix: (Units=1/GPa)
#
#
# Indices 1 2 3 4 5 6 
#
# 1 0.015280 -0.008816 -0.002563 0.000000 0.000000 0.000000
# 2 -0.008816 0.015280 -0.002563 0.000000 0.000000 0.000000
# 3 -0.002563 -0.002563 0.012900 0.000000 0.000000 0.000000
# 4 0.000000 0.000000 0.000000 0.036442 0.000000 0.000000
# 5 0.000000 0.000000 0.000000 0.000000 0.036442 0.000000
# 6 0.000000 0.000000 0.000000 0.000000 0.000000 0.048192
#
#
# Mechanical properties :
#
#
# Convention : Reuss Voigt Hill
#
# Bulk Modulus (GPa) = 64.20168 67.24741 65.72455
# Shear Modulus (GPa) = 25.30204 26.66722 25.98463
#
# Velocity S-wave (km/s) = 3.43594 3.52741 3.48197
# Velocity P-wave (km/s) = 6.75993 6.92583 6.84338
#
# Compressibility (1/GPa) = 0.01557592
#
# Stress axis : x y z
#
# Youngs Moduli (GPa) = 65.44487 65.44487 77.51979
#
# Poissons Ratio (x) = 0.57695 0.19869
# Poissons Ratio (y) = 0.57695 0.19869
# Poissons Ratio (z) = 0.16774 0.16774
#
# Static dielectric constant tensor:
#      x y z
#    x 3.801950 0.000000 0.000000 
#    y 0.000000 3.801950 0.000000 
#    z 0.000000 0.000000 3.901000 
# 
# 
# High freq. dielectric constant tensor:
#      x y z
#    x 1.827890 0.000000 0.000000 
#    y 0.000000 1.827890 0.000000 
#    z 0.000000 0.000000 1.845400 
# 
# From -- ./inp_files/9328.got.cif
#   From: 2010.03.12/outbox.cif.g09.slc.cpg/sg193_5_cif.got.tgz:9328.got - 2010.04.01 12:20:39.
