data_PCOD8329291
_publ_section_title
;
Structure prediction by ZEFSAII (Michael W. Deem and Ramdas Pophale) SiO2 
 PCOD8329291
Probable space group: P 6/M M M
;
_chemical_formula_sum "Si O2"
_cell_formula_units_Z 144
_cell_length_a 32.158306
_cell_length_b 32.158306
_cell_length_c 9.337704
_cell_angle_alpha 90.000000
_cell_angle_beta 90.000000
_cell_angle_gamma 120.000000
_cell_volume 8362.903037
_symmetry_space_group_name_H-M "P 6/M M M"
_symmetry_group_IT_number 191
_symmetry_cell_setting 'hexagonal'
loop_
_space_group_symop_operation_xyz
x,y,z
x-y,x,z
-y,x-y,z
-x,-y,z
-x+y,-x,z
y,-x+y,z
x-y,-y,-z
-x,-x+y,-z
y,x,-z
-y,-x,-z
-x+y,y,-z
x,x-y,-z
-x,-y,-z
-x+y,-x,-z
y,-x+y,-z
x,y,-z
x-y,x,-z
-y,x-y,-z
-x+y,y,z
x,x-y,z
-y,-x,z
y,x,z
x-y,-y,z
-x,-x+y,z
loop_
_atom_site_type_symbol
_atom_site_label
_atom_site_fract_x
_atom_site_fract_y
_atom_site_fract_z
Si Si1 0.238800 0.666675 0.329293
Si Si2 0.804617 0.708031 0.839062
Si Si3 0.426795 0.479605 0.329764
Si Si4 0.857738 0.240320 0.664227
Si Si5 0.855221 0.332922 0.329345
Si Si6 0.946732 0.800138 0.664830
O O1 0.238683 0.666951 0.500000
O O2 0.239830 0.619915 0.271931
O O3 0.285640 0.714361 0.271270
O O4 0.190984 0.665357 0.269597
O O5 0.852908 0.705815 0.839128
O O6 0.763802 0.661509 0.756931
O O7 0.814235 0.755927 0.757740
O O8 0.787112 0.708826 0.000000
O O9 0.425211 0.480640 0.500000
O O10 0.469848 0.530153 0.273166
O O11 0.436687 0.436687 0.280567
O O12 0.377262 0.472930 0.266707
O O13 0.875100 0.248346 0.500000
O O14 0.806043 0.193958 0.680557
O O15 0.853324 0.284663 0.724436
O O16 0.854428 0.334308 0.500000
O O17 0.938888 0.783475 0.500000
O O18 0.907891 0.815781 0.710676
O O19 0.000000 0.845349 0.690069
#
# Coordination Sequence:
#
# PCOD8329291 Si02
#       6
#    24  24  24  24  24  24
#     4   9  15  21  29  43  66  96 129 164 204 254
#     4   9  17  29  45  64  86 114 148 184 221 260
#     4   8  13  21  32  45  63  89 121 159 203 246
#     4   9  16  26  40  58  82 111 141 173 211 257
#     4   9  15  22  33  49  70  99 132 163 201 257
#     4   9  17  30  49  72  97 125 157 191 225 262
#
# _framework density 17.218902
#
# number of rings (size 3 to 8) (size 9 to 14) (size 15 to 20)
#    0.000    3.167    0.000    2.167    0.000    7.000 
#    0.000    0.833    0.000    3.167    0.000    1.167 
#    0.000    2.667    0.000    6.333    0.000   10.167 
#
# Total GULP energy -1784865.885605 kJ/mol
# GULP energy per Si atom -12394.901983 kJ/mol
# Density = 1.717971 g / cm^3
# Si number density = 17.218902 Si / 1000 Ang^3
#
#
#
# Elastic Constant Matrix: (Units=GPa)
#
#
# Indices 1 2 3 4 5 6 
#
# 1 121.8648 70.5828 29.7762 0.0000 0.0000 0.0000
# 2 70.5828 121.8648 29.7762 0.0000 0.0000 0.0000
# 3 29.7762 29.7762 40.6546 0.0000 0.0000 0.0000
# 4 0.0000 0.0000 0.0000 5.3508 0.0000 0.0000
# 5 0.0000 0.0000 0.0000 0.0000 5.3508 0.0000
# 6 0.0000 0.0000 0.0000 0.0000 0.0000 25.6410
#
#
#
# Elastic Compliance Matrix: (Units=1/GPa)
#
#
# Indices 1 2 3 4 5 6 
#
# 1 0.013110 -0.006390 -0.004921 0.000000 0.000000 0.000000
# 2 -0.006390 0.013110 -0.004921 0.000000 0.000000 0.000000
# 3 -0.004921 -0.004921 0.031806 0.000000 0.000000 0.000000
# 4 0.000000 0.000000 0.000000 0.186889 0.000000 0.000000
# 5 0.000000 0.000000 0.000000 0.000000 0.186889 0.000000
# 6 0.000000 0.000000 0.000000 0.000000 0.000000 0.039000
#
#
# Mechanical properties :
#
#
# Convention : Reuss Voigt Hill
#
# Bulk Modulus (GPa) = 39.12417 60.51718 49.82068
# Shear Modulus (GPa) = 9.76965 17.55177 13.66071
#
# Velocity S-wave (km/s) = 2.38456 3.19616 2.81971
# Velocity P-wave (km/s) = 5.50931 6.98875 6.29266
#
# Compressibility (1/GPa) = 0.02555964
#
# Stress axis : x y z
#
# Youngs Moduli (GPa) = 76.28033 76.28033 31.44037
#
# Poissons Ratio (x) = 0.48747 0.15472
# Poissons Ratio (y) = 0.48747 0.15472
# Poissons Ratio (z) = 0.37539 0.37539
#
# Static dielectric constant tensor:
#      x y z
#    x 3.313910 0.000000 0.000000 
#    y 0.000000 3.313910 0.000000 
#    z 0.000000 0.000000 2.756710 
# 
# 
# High freq. dielectric constant tensor:
#      x y z
#    x 1.662340 0.000000 0.000000 
#    y 0.000000 1.662340 0.000000 
#    z 0.000000 0.000000 1.603050 
# 
# From -- ./inp_files/1981.got.cif
#   From: 2010.03.12/outbox.cif.g09.slc.cpg/sg191_1_cif.got.tgz:1981.got - 2010.04.01 12:09:02.
