data_PCOD8329792
_publ_section_title
;
Structure prediction by ZEFSAII (Michael W. Deem and Ramdas Pophale) SiO2 
 PCOD8329792
Probable space group: P 63/M C M
;
_chemical_formula_sum "Si O2"
_cell_formula_units_Z 168
_cell_length_a 22.085966
_cell_length_b 22.085966
_cell_length_c 24.378867
_cell_angle_alpha 90.000000
_cell_angle_beta 90.000000
_cell_angle_gamma 120.000000
_cell_volume 10298.570546
_symmetry_space_group_name_H-M "P 63/M C M"
_symmetry_group_IT_number 193
_symmetry_cell_setting 'hexagonal'
loop_
_space_group_symop_operation_xyz
x,y,z
x-y,x,1/2+z
-y,x-y,z
-x,-y,1/2+z
-x+y,-x,z
y,-x+y,1/2+z
x-y,-y,1/2-z
-x,-x+y,1/2-z
y,x,1/2-z
-y,-x,-z
-x+y,y,-z
x,x-y,-z
-x,-y,-z
-x+y,-x,1/2-z
y,-x+y,-z
x,y,1/2-z
x-y,x,-z
-y,x-y,1/2-z
-x+y,y,1/2+z
x,x-y,1/2+z
-y,-x,1/2+z
y,x,z
x-y,-y,z
-x,-x+y,z
loop_
_atom_site_type_symbol
_atom_site_label
_atom_site_fract_x
_atom_site_fract_y
_atom_site_fract_z
Si Si1 0.077945 0.589725 0.312940
Si Si2 0.633443 0.800985 0.914141
Si Si3 0.268683 0.348321 0.981284
Si Si4 0.817341 0.389655 0.601429
Si Si5 0.347071 0.080332 0.812327
Si Si6 0.524040 0.275726 0.564525
Si Si7 0.605361 0.076286 0.021643
O O1 0.082584 0.573672 0.250000
O O2 0.140915 0.583572 0.341447
O O3 0.090154 0.666913 0.320986
O O4 0.000000 0.533059 0.335159
O O5 0.671028 0.881410 0.934516
O O6 0.661018 0.793414 0.854587
O O7 0.552804 0.779366 0.912822
O O8 0.651854 0.757974 0.957325
O O9 0.289237 0.289237 0.975753
O O10 0.335239 0.428092 0.975150
O O11 0.742593 0.317870 0.600590
O O12 0.808523 0.451342 0.574755
O O13 0.864738 0.364923 0.567622
O O14 0.339389 0.101032 0.750000
O O15 0.288162 0.000000 0.823550
O O16 0.530633 0.265317 0.500000
O O17 0.584186 0.000000 0.047017
O O18 0.536475 0.072950 0.000000
#
# Coordination Sequence:
#
# PCOD8329792 Si02
#       7
#    24  24  24  24  24  24  24
#     4   9  18  35  57  76  92 115 158 213 255 290
#     4  11  18  32  49  71 100 128 161 201 249 293
#     4  10  19  30  47  70  98 131 161 194 242 299
#     4  12  21  33  47  66  94 128 160 197 255 308
#     4   9  17  31  55  81  98 121 161 206 250 290
#     4  12  22  33  45  66  96 130 159 200 252 315
#     4  10  18  29  46  66  89 117 157 202 241 290
#
# _framework density 16.312944000000002
#
# number of rings (size 3 to 8) (size 9 to 14) (size 15 to 20)
#    0.000    1.571    4.286    4.143    0.000    2.286 
#    0.000    2.143    0.000    0.429    0.000    0.000 
#    0.000    0.000    0.000   42.429    0.000    5.000 
#
# Total GULP energy -2081515.138689 kJ/mol
# GULP energy per Si atom -12389.971064 kJ/mol
# Density = 1.627581 g / cm^3
# Si number density = 16.312944 Si / 1000 Ang^3
#
#
#
# Elastic Constant Matrix: (Units=GPa)
#
#
# Indices 1 2 3 4 5 6 
#
# 1 73.9903 38.7269 42.5506 0.0000 0.0000 0.0000
# 2 38.7269 73.9903 42.5506 0.0000 0.0000 0.0000
# 3 42.5506 42.5506 98.9355 0.0000 0.0000 0.0000
# 4 0.0000 0.0000 0.0000 24.1548 0.0000 0.0000
# 5 0.0000 0.0000 0.0000 0.0000 24.1548 0.0000
# 6 0.0000 0.0000 0.0000 0.0000 0.0000 17.6317
#
#
#
# Elastic Compliance Matrix: (Units=1/GPa)
#
#
# Indices 1 2 3 4 5 6 
#
# 1 0.020748 -0.007610 -0.005650 0.000000 0.000000 0.000000
# 2 -0.007610 0.020748 -0.005650 0.000000 0.000000 0.000000
# 3 -0.005650 -0.005650 0.014968 0.000000 0.000000 0.000000
# 4 0.000000 0.000000 0.000000 0.041400 0.000000 0.000000
# 5 0.000000 0.000000 0.000000 0.000000 0.041400 0.000000
# 6 0.000000 0.000000 0.000000 0.000000 0.000000 0.056716
#
#
# Mechanical properties :
#
#
# Convention : Reuss Voigt Hill
#
# Bulk Modulus (GPa) = 53.64236 54.95248 54.29742
# Shear Modulus (GPa) = 20.83210 21.39415 21.11313
#
# Velocity S-wave (km/s) = 3.57743 3.62537 3.60148
# Velocity P-wave (km/s) = 7.07239 7.16128 7.11698
#
# Compressibility (1/GPa) = 0.01864198
#
# Stress axis : x y z
#
# Youngs Moduli (GPa) = 48.19774 48.19774 66.80985
#
# Poissons Ratio (x) = 0.36679 0.37750
# Poissons Ratio (y) = 0.36679 0.37750
# Poissons Ratio (z) = 0.27233 0.27233
#
# Static dielectric constant tensor:
#      x y z
#    x 3.171240 0.000000 0.000000 
#    y 0.000000 3.171240 0.000000 
#    z 0.000000 0.000000 3.006210 
# 
# 
# High freq. dielectric constant tensor:
#      x y z
#    x 1.612470 0.000000 0.000000 
#    y 0.000000 1.612470 0.000000 
#    z 0.000000 0.000000 1.606430 
# 
# From -- ./inp_files/7838.got.cif
#   From: 2010.03.12/outbox.cif.g09.slc.cpg/sg193_4_cif.got.tgz:7838.got - 2010.04.01 12:20:39.
