data_PCOD8329026
_publ_section_title
;
Structure prediction by ZEFSAII (Michael W. Deem and Ramdas Pophale) SiO2 
 PCOD8329026
Probable space group: P 6/M M M
;
_chemical_formula_sum "Si O2"
_cell_formula_units_Z 168
_cell_length_a 17.920728
_cell_length_b 17.920728
_cell_length_c 35.375734
_cell_angle_alpha 90.000000
_cell_angle_beta 90.000000
_cell_angle_gamma 120.000000
_cell_volume 9838.919057
_symmetry_space_group_name_H-M "P 6/M M M"
_symmetry_group_IT_number 191
_symmetry_cell_setting 'hexagonal'
loop_
_space_group_symop_operation_xyz
x,y,z
x-y,x,z
-y,x-y,z
-x,-y,z
-x+y,-x,z
y,-x+y,z
x-y,-y,-z
-x,-x+y,-z
y,x,-z
-y,-x,-z
-x+y,y,-z
x,x-y,-z
-x,-y,-z
-x+y,-x,-z
y,-x+y,-z
x,y,-z
x-y,x,-z
-y,x-y,-z
-x+y,y,z
x,x-y,z
-y,-x,z
y,x,z
x-y,-y,z
-x,-x+y,z
loop_
_atom_site_type_symbol
_atom_site_label
_atom_site_fract_x
_atom_site_fract_y
_atom_site_fract_z
Si Si1 0.332955 0.838827 0.957346
Si Si2 0.646664 0.906327 0.101939
Si Si3 0.633126 0.531897 0.609403
Si Si4 0.636988 0.902209 0.812316
Si Si5 0.902948 0.639705 0.457063
Si Si6 0.267966 0.900550 0.679371
Si Si7 0.507478 0.839382 0.747751
O O1 0.422520 0.845040 0.948902
O O2 0.259168 0.740833 0.950751
O O3 0.324171 0.901145 0.927749
O O4 0.329156 0.869022 0.000000
O O5 0.677054 0.838527 0.091676
O O6 0.607302 0.891633 0.144062
O O7 0.731010 0.000000 0.098782
O O8 0.572215 0.427786 0.611532
O O9 0.572981 0.572981 0.612300
O O10 0.683941 0.557121 0.569703
O O11 0.700179 0.567783 0.643803
O O12 0.672117 0.836059 0.802743
O O13 0.551919 0.877152 0.788084
O O14 0.712496 0.000000 0.803485
O O15 0.898038 0.607467 0.500000
O O16 0.839051 0.678102 0.451153
O O17 0.000000 0.715284 0.447002
O O18 0.164306 0.835695 0.682899
O O19 0.316961 0.894313 0.715989
O O20 0.290101 0.000000 0.674919
O O21 0.426187 0.852373 0.743071
O O22 0.477021 0.738511 0.744276
#
# Coordination Sequence:
#
# PCOD8329026 Si02
#       7
#    24  24  24  24  24  24  24
#     4   9  17  29  45  65  90 120 152 184 218 258
#     4   9  18  32  48  66  89 117 149 185 226 270
#     4   9  17  29  46  68  91 115 147 187 228 271
#     4   9  18  32  49  68  90 118 151 186 225 269
#     4   9  17  29  46  68  93 122 157 196 236 277
#     4  10  20  33  50  72  97 125 157 193 232 273
#     4  10  20  33  49  70  96 125 156 190 228 268
#
# _framework density 17.075046
#
# number of rings (size 3 to 8) (size 9 to 14) (size 15 to 20)
#    0.000    2.714    0.000    1.571    0.000    3.714 
#    0.000    3.571    0.000    5.429    0.000    3.000 
#    0.000    6.857    0.000    3.857    0.000    4.286 
#
# Total GULP energy -2082472.200727 kJ/mol
# GULP energy per Si atom -12395.667861 kJ/mol
# Density = 1.703618 g / cm^3
# Si number density = 17.075046 Si / 1000 Ang^3
#
#
#
# Elastic Constant Matrix: (Units=GPa)
#
#
# Indices 1 2 3 4 5 6 
#
# 1 86.7615 57.5475 40.9849 0.0000 0.0000 0.0000
# 2 57.5475 86.7615 40.9849 0.0000 0.0000 0.0000
# 3 40.9849 40.9849 92.6132 0.0000 0.0000 0.0000
# 4 0.0000 0.0000 0.0000 22.6253 0.0000 0.0000
# 5 0.0000 0.0000 0.0000 0.0000 22.6253 0.0000
# 6 0.0000 0.0000 0.0000 0.0000 0.0000 14.6070
#
#
#
# Elastic Compliance Matrix: (Units=1/GPa)
#
#
# Indices 1 2 3 4 5 6 
#
# 1 0.021743 -0.012487 -0.004096 0.000000 0.000000 0.000000
# 2 -0.012487 0.021743 -0.004096 0.000000 0.000000 0.000000
# 3 -0.004096 -0.004096 0.014423 0.000000 0.000000 0.000000
# 4 0.000000 0.000000 0.000000 0.044198 0.000000 0.000000
# 5 0.000000 0.000000 0.000000 0.000000 0.044198 0.000000
# 6 0.000000 0.000000 0.000000 0.000000 0.000000 0.068460
#
#
# Mechanical properties :
#
#
# Convention : Reuss Voigt Hill
#
# Bulk Modulus (GPa) = 60.42057 60.57453 60.49755
# Shear Modulus (GPa) = 19.11008 20.41281 19.76144
#
# Velocity S-wave (km/s) = 3.34905 3.46132 3.40564
# Velocity P-wave (km/s) = 7.10049 7.17821 7.13946
#
# Compressibility (1/GPa) = 0.01655065
#
# Stress axis : x y z
#
# Youngs Moduli (GPa) = 45.99134 45.99134 69.33313
#
# Poissons Ratio (x) = 0.57429 0.28401
# Poissons Ratio (y) = 0.57429 0.28401
# Poissons Ratio (z) = 0.18839 0.18839
#
# Static dielectric constant tensor:
#      x y z
#    x 3.142070 0.000000 0.000000 
#    y 0.000000 3.142070 0.000000 
#    z 0.000000 0.000000 3.433070 
# 
# 
# High freq. dielectric constant tensor:
#      x y z
#    x 1.640930 0.000000 0.000000 
#    y 0.000000 1.640930 0.000000 
#    z 0.000000 0.000000 1.676700 
# 
# From -- ./inp_files/10755.got.cif
#   From: 2010.03.12/outbox.cif.g09.slc.cpg/sg191_6_cif.got.tgz:10755.got - 2010.04.01 12:09:02.
