data_PCOD8329652
_publ_section_title
;
Structure prediction by ZEFSAII (Michael W. Deem and Ramdas Pophale) SiO2 
 PCOD8329652
Probable space group: P 6/M C C
;
_chemical_formula_sum "Si O2"
_cell_formula_units_Z 132
_cell_length_a 18.298979
_cell_length_b 18.298979
_cell_length_c 23.403653
_cell_angle_alpha 90.000000
_cell_angle_beta 90.000000
_cell_angle_gamma 120.000000
_cell_volume 6786.846074
_symmetry_space_group_name_H-M "P 6/M C C"
_symmetry_group_IT_number 192
_symmetry_cell_setting 'hexagonal'
loop_
_space_group_symop_operation_xyz
x,y,z
x-y,x,z
-y,x-y,z
-x,-y,z
-x+y,-x,z
y,-x+y,z
x-y,-y,1/2-z
-x,-x+y,1/2-z
y,x,1/2-z
-y,-x,1/2-z
-x+y,y,1/2-z
x,x-y,1/2-z
-x,-y,-z
-x+y,-x,-z
y,-x+y,-z
x,y,-z
x-y,x,-z
-y,x-y,-z
-x+y,y,1/2+z
x,x-y,1/2+z
-y,-x,1/2+z
y,x,1/2+z
x-y,-y,1/2+z
-x,-x+y,1/2+z
loop_
_atom_site_type_symbol
_atom_site_label
_atom_site_fract_x
_atom_site_fract_y
_atom_site_fract_z
Si Si1 0.859891 0.140110 0.500000
Si Si2 0.813110 0.626218 0.182529
Si Si3 0.667342 0.173321 0.618344
Si Si4 0.505980 0.173321 0.381655
Si Si5 0.196424 0.098211 0.379238
Si Si6 0.904916 0.328900 0.500000
Si Si7 0.095084 0.671101 0.000000
O O1 0.890086 0.109916 0.445634
O O2 0.902438 0.240325 0.500000
O O3 0.759675 0.097560 0.500000
O O4 0.813772 0.627543 0.250000
O O5 0.715345 0.576443 0.159713
O O6 0.861099 0.576442 0.159714
O O7 0.860185 0.720366 0.159339
O O8 0.574358 0.148715 0.641644
O O9 0.724972 0.275029 0.615599
O O10 0.660303 0.138988 0.555113
O O11 0.478687 0.138987 0.444887
O O12 0.141836 0.141836 0.363825
O O13 0.000000 0.403869 0.500000
#
# Coordination Sequence:
#
# PCOD8329652 Si02
#       7
#    12  24  24  24  24  12  12
#     4  12  20  38  67  94 132 170 206 258 333 410
#     4  10  24  43  63  93 130 174 218 268 331 384
#     4  10  21  38  60  92 126 167 214 268 327 388
#     4  10  21  38  60  92 126 167 214 268 327 388
#     4  12  25  44  72 102 134 170 218 274 336 407
#     4  12  21  36  60  93 128 165 210 257 328 407
#     4  12  21  36  60  93 128 165 210 257 328 407
#
# _framework density 19.449387999999999
#
# number of rings (size 3 to 8) (size 9 to 14) (size 15 to 20)
#    1.091    0.000    5.455    2.727    0.000    2.909 
#    0.000    2.727    0.000    1.091    0.000    5.091 
#    0.000    0.000    0.000    0.000    0.000    0.000 
#
# Total GULP energy -1635861.978519 kJ/mol
# GULP energy per Si atom -12392.893777 kJ/mol
# Density = 1.940512 g / cm^3
# Si number density = 19.449388 Si / 1000 Ang^3
#
#
#
# Elastic Constant Matrix: (Units=GPa)
#
#
# Indices 1 2 3 4 5 6 
#
# 1 125.2581 68.5749 49.6923 0.0000 0.0000 0.0000
# 2 68.5749 125.2581 49.6923 0.0000 0.0000 0.0000
# 3 49.6923 49.6923 148.4295 0.0000 0.0000 0.0000
# 4 0.0000 0.0000 0.0000 6.4234 0.0000 0.0000
# 5 0.0000 0.0000 0.0000 0.0000 6.4234 0.0000
# 6 0.0000 0.0000 0.0000 0.0000 0.0000 28.3416
#
#
#
# Elastic Compliance Matrix: (Units=1/GPa)
#
#
# Indices 1 2 3 4 5 6 
#
# 1 0.011935 -0.005707 -0.002085 0.000000 0.000000 0.000000
# 2 -0.005707 0.011935 -0.002085 0.000000 0.000000 0.000000
# 3 -0.002085 -0.002085 0.008133 0.000000 0.000000 0.000000
# 4 0.000000 0.000000 0.000000 0.155682 0.000000 0.000000
# 5 0.000000 0.000000 0.000000 0.000000 0.155682 0.000000
# 6 0.000000 0.000000 0.000000 0.000000 0.000000 0.035284
#
#
# Mechanical properties :
#
#
# Convention : Reuss Voigt Hill
#
# Bulk Modulus (GPa) = 81.63761 81.65162 81.64462
# Shear Modulus (GPa) = 12.42274 23.63676 18.02975
#
# Velocity S-wave (km/s) = 2.53004 3.48989 3.04798
# Velocity P-wave (km/s) = 7.11339 7.63622 7.37944
#
# Compressibility (1/GPa) = 0.01224926
#
# Stress axis : x y z
#
# Youngs Moduli (GPa) = 83.78688 83.78688 122.95062
#
# Poissons Ratio (x) = 0.47816 0.25637
# Poissons Ratio (y) = 0.47816 0.25637
# Poissons Ratio (z) = 0.17471 0.17471
#
# Static dielectric constant tensor:
#      x y z
#    x 3.621320 0.000000 0.000000 
#    y 0.000000 3.621320 0.000000 
#    z 0.000000 0.000000 3.307650 
# 
# 
# High freq. dielectric constant tensor:
#      x y z
#    x 1.756950 0.000000 0.000000 
#    y 0.000000 1.756950 0.000000 
#    z 0.000000 0.000000 1.740570 
# 
# From -- ./inp_files/5860.got.cif
#   From: 2010.03.12/outbox.cif.g09.slc.cpg/sg192_3_cif.got.tgz:5860.got - 2010.04.01 12:16:15.
