data_PCOD8329736
_publ_section_title
;
Structure prediction by ZEFSAII (Michael W. Deem and Ramdas Pophale) SiO2 
 PCOD8329736
Probable space group: P 6/M C C
;
_chemical_formula_sum "Si O2"
_cell_formula_units_Z 132
_cell_length_a 17.089863
_cell_length_b 17.089863
_cell_length_c 22.819033
_cell_angle_alpha 90.000000
_cell_angle_beta 90.000000
_cell_angle_gamma 120.000000
_cell_volume 5771.717027
_symmetry_space_group_name_H-M "P 6/M C C"
_symmetry_group_IT_number 192
_symmetry_cell_setting 'hexagonal'
loop_
_space_group_symop_operation_xyz
x,y,z
x-y,x,z
-y,x-y,z
-x,-y,z
-x+y,-x,z
y,-x+y,z
x-y,-y,1/2-z
-x,-x+y,1/2-z
y,x,1/2-z
-y,-x,1/2-z
-x+y,y,1/2-z
x,x-y,1/2-z
-x,-y,-z
-x+y,-x,-z
y,-x+y,-z
x,y,-z
x-y,x,-z
-y,x-y,-z
-x+y,y,1/2+z
x,x-y,1/2+z
-y,-x,1/2+z
y,x,1/2+z
x-y,-y,1/2+z
-x,-x+y,1/2+z
loop_
_atom_site_type_symbol
_atom_site_label
_atom_site_fract_x
_atom_site_fract_y
_atom_site_fract_z
Si Si1 0.838349 0.103350 0.500000
Si Si2 0.001388 0.669360 0.180910
Si Si3 0.630229 0.139181 0.626256
Si Si4 0.472216 0.175756 0.374092
Si Si5 0.195646 0.152769 0.374198
Si Si6 0.885487 0.292911 0.500000
Si Si7 0.084342 0.645687 0.000000
O O1 0.846221 0.050872 0.444396
O O2 0.912203 0.212429 0.500000
O O3 0.749523 0.112137 0.500000
O O4 0.048900 0.613617 0.159291
O O5 0.058780 0.770164 0.154040
O O6 0.000000 0.674650 0.250000
O O7 0.899680 0.620666 0.155818
O O8 0.553296 0.160447 0.646279
O O9 0.725925 0.221276 0.647385
O O10 0.622640 0.124161 0.556536
O O11 0.459776 0.172982 0.443780
O O12 0.117148 0.171441 0.352169
O O13 0.975969 0.389966 0.500000
#
# Coordination Sequence:
#
# PCOD8329736 Si02
#       7
#    12  24  24  24  24  12  12
#     4  12  20  40  67 103 142 181 222 268 332 406
#     4  12  27  48  72  95 127 180 243 293 341 417
#     4  12  25  43  69 102 141 175 222 281 346 417
#     4  12  25  44  69 103 139 179 221 281 351 413
#     4  12  25  43  70 104 142 181 226 286 350 415
#     4  12  21  38  68 103 138 180 225 267 326 406
#     4  12  21  36  66 102 134 171 218 267 318 397
#
# _framework density 22.870145000000001
#
# number of rings (size 3 to 8) (size 9 to 14) (size 15 to 20)
#    0.000    0.000    5.455    5.455    0.000    5.091 
#    0.000    2.727    0.000    3.273    0.000    0.000 
#    0.000    0.000    0.000    0.000    0.000    0.000 
#
# Total GULP energy -1637825.401233 kJ/mol
# GULP energy per Si atom -12407.768191 kJ/mol
# Density = 2.281809 g / cm^3
# Si number density = 22.870145 Si / 1000 Ang^3
#
#
#
# Elastic Constant Matrix: (Units=GPa)
#
#
# Indices 1 2 3 4 5 6 
#
# 1 101.6439 9.7019 11.0839 0.0000 0.0000 0.0000
# 2 9.7019 101.6439 11.0839 0.0000 0.0000 0.0000
# 3 11.0839 11.0839 113.1280 0.0000 0.0000 0.0000
# 4 0.0000 0.0000 0.0000 7.0552 0.0000 0.0000
# 5 0.0000 0.0000 0.0000 0.0000 7.0552 0.0000
# 6 0.0000 0.0000 0.0000 0.0000 0.0000 45.9710
#
#
#
# Elastic Compliance Matrix: (Units=1/GPa)
#
#
# Indices 1 2 3 4 5 6 
#
# 1 0.010018 -0.000858 -0.000897 0.000000 0.000000 0.000000
# 2 -0.000858 0.010018 -0.000897 0.000000 0.000000 0.000000
# 3 -0.000897 -0.000897 0.009015 0.000000 0.000000 0.000000
# 4 0.000000 0.000000 0.000000 0.141740 0.000000 0.000000
# 5 0.000000 0.000000 0.000000 0.000000 0.141740 0.000000
# 6 0.000000 0.000000 0.000000 0.000000 0.000000 0.021753
#
#
# Mechanical properties :
#
#
# Convention : Reuss Voigt Hill
#
# Bulk Modulus (GPa) = 42.11404 42.23947 42.17676
# Shear Modulus (GPa) = 14.38821 30.98598 22.68710
#
# Velocity S-wave (km/s) = 2.51096 3.68484 3.15301
# Velocity P-wave (km/s) = 5.18276 6.05091 5.63358
#
# Compressibility (1/GPa) = 0.02374505
#
# Stress axis : x y z
#
# Youngs Moduli (GPa) = 99.81966 99.81966 110.92130
#
# Poissons Ratio (x) = 0.08568 0.09955
# Poissons Ratio (y) = 0.08568 0.09955
# Poissons Ratio (z) = 0.08958 0.08958
#
# Static dielectric constant tensor:
#      x y z
#    x 4.220370 0.000000 0.000000 
#    y 0.000000 4.220370 0.000000 
#    z 0.000000 0.000000 3.732140 
# 
# 
# High freq. dielectric constant tensor:
#      x y z
#    x 1.914580 0.000000 0.000000 
#    y 0.000000 1.914580 0.000000 
#    z 0.000000 0.000000 1.872190 
# 
# From -- ./inp_files/5861.got.cif
#   From: 2010.03.12/outbox.cif.g09.slc.cpg/sg192_3_cif.got.tgz:5861.got - 2010.04.01 12:16:15.
