data_PCOD8329666
_publ_section_title
;
Structure prediction by ZEFSAII (Michael W. Deem and Ramdas Pophale) SiO2 
 PCOD8329666
Probable space group: P 6/M C C
;
_chemical_formula_sum "Si O2"
_cell_formula_units_Z 104
_cell_length_a 19.247615
_cell_length_b 19.247615
_cell_length_c 17.664783
_cell_angle_alpha 90.000000
_cell_angle_beta 90.000000
_cell_angle_gamma 120.000000
_cell_volume 5667.516390
_symmetry_space_group_name_H-M "P 6/M C C"
_symmetry_group_IT_number 192
_symmetry_cell_setting 'hexagonal'
loop_
_space_group_symop_operation_xyz
x,y,z
x-y,x,z
-y,x-y,z
-x,-y,z
-x+y,-x,z
y,-x+y,z
x-y,-y,1/2-z
-x,-x+y,1/2-z
y,x,1/2-z
-y,-x,1/2-z
-x+y,y,1/2-z
x,x-y,1/2-z
-x,-y,-z
-x+y,-x,-z
y,-x+y,-z
x,y,-z
x-y,x,-z
-y,x-y,-z
-x+y,y,1/2+z
x,x-y,1/2+z
-y,-x,1/2+z
y,x,1/2+z
x-y,-y,1/2+z
-x,-x+y,1/2+z
loop_
_atom_site_type_symbol
_atom_site_label
_atom_site_fract_x
_atom_site_fract_y
_atom_site_fract_z
Si Si1 0.218916 0.713271 0.413257
Si Si2 0.713442 0.712504 0.339694
Si Si3 0.039546 0.591754 0.588217
Si Si4 0.834934 0.162028 0.589309
Si Si5 0.666668 0.333334 0.338216
O O1 0.242357 0.713824 0.500000
O O2 0.134065 0.634496 0.394855
O O3 0.214509 0.792419 0.393208
O O4 0.289135 0.714218 0.364944
O O5 0.719052 0.719052 0.250000
O O6 0.631469 0.633272 0.363522
O O7 0.714768 0.789968 0.373721
O O8 0.790269 0.712195 0.373230
O O9 0.024241 0.600924 0.500000
O O10 0.000000 0.500000 0.613272
O O11 0.845428 0.156718 0.500000
O O12 0.666668 0.333334 0.250000
#
# Coordination Sequence:
#
# PCOD8329666 Si02
#       5
#    24  24  24  24   8
#     4   9  20  37  55  76 103 143 195 234 271 328
#     4  11  22  36  58  89 121 147 180 238 297 339
#     4   9  19  36  56  78 104 146 197 235 275 338
#     4  10  21  40  63  85 111 152 197 232 273 344
#     4  12  25  35  49  75 112 146 181 234 292 338
#
# _framework density 18.350190000000001
#
# number of rings (size 3 to 8) (size 9 to 14) (size 15 to 20)
#    0.000    2.077    0.000    4.846    3.231    4.154 
#    0.000    0.000    0.000    0.462    0.000    3.231 
#    0.000    0.000    0.000    0.000    0.000    0.000 
#
# Total GULP energy -1290013.804398 kJ/mol
# GULP energy per Si atom -12403.978888 kJ/mol
# Density = 1.830842 g / cm^3
# Si number density = 18.350190 Si / 1000 Ang^3
#
#
#
# Elastic Constant Matrix: (Units=GPa)
#
#
# Indices 1 2 3 4 5 6 
#
# 1 113.4034 64.9556 67.1714 0.0000 -0.0001 0.0001
# 2 64.9556 113.4046 67.1717 0.0000 -0.0001 0.0001
# 3 67.1714 67.1717 132.6418 0.0002 0.0000 0.0000
# 4 0.0000 0.0000 0.0002 23.0619 0.0001 0.0000
# 5 -0.0001 -0.0001 0.0000 0.0001 23.0613 0.0000
# 6 0.0001 0.0001 0.0000 0.0000 0.0000 24.2239
#
#
#
# Elastic Compliance Matrix: (Units=1/GPa)
#
#
# Indices 1 2 3 4 5 6 
#
# 1 0.014852 -0.005788 -0.004590 0.000000 0.000000 0.000000
# 2 -0.005788 0.014852 -0.004590 0.000000 0.000000 0.000000
# 3 -0.004590 -0.004590 0.012188 0.000000 0.000000 0.000000
# 4 0.000000 0.000000 0.000000 0.043362 0.000000 0.000000
# 5 0.000000 0.000000 0.000000 0.000000 0.043363 0.000000
# 6 0.000000 0.000000 0.000000 0.000000 0.000000 0.041281
#
#
# Mechanical properties :
#
#
# Convention : Reuss Voigt Hill
#
# Bulk Modulus (GPa) = 83.64286 84.22746 83.93516
# Shear Modulus (GPa) = 24.53137 24.74616 24.63876
#
# Velocity S-wave (km/s) = 3.66026 3.67625 3.66826
# Velocity P-wave (km/s) = 7.97143 8.00121 7.98634
#
# Compressibility (1/GPa) = 0.01195559
#
# Stress axis : x y z
#
# Youngs Moduli (GPa) = 67.32940 67.33014 82.04718
#
# Poissons Ratio (x) = 0.38972 0.37661
# Poissons Ratio (y) = 0.38972 0.37661
# Poissons Ratio (z) = 0.30905 0.30905
#
# Static dielectric constant tensor:
#      x y z
#    x 3.367310 0.000000 0.000000 
#    y 0.000000 3.367310 0.000000 
#    z 0.000000 0.000000 3.340010 
# 
# 
# High freq. dielectric constant tensor:
#      x y z
#    x 1.708750 0.000000 0.000000 
#    y 0.000000 1.708750 0.000000 
#    z 0.000000 0.000000 1.712020 
# 
# From -- ./inp_files/2851.got.cif
#   From: 2010.03.12/outbox.cif.g09.slc.cpg/sg192_2_cif.got.tgz:2851.got - 2010.04.01 12:16:15.
