data_PCOD8329570
_publ_section_title
;
Structure prediction by ZEFSAII (Michael W. Deem and Ramdas Pophale) SiO2 
 PCOD8329570
Probable space group: P 6/M C C
;
_chemical_formula_sum "Si O2"
_cell_formula_units_Z 168
_cell_length_a 29.347188
_cell_length_b 29.347188
_cell_length_c 14.599077
_cell_angle_alpha 90.000000
_cell_angle_beta 90.000000
_cell_angle_gamma 120.000000
_cell_volume 10889.025610
_symmetry_space_group_name_H-M "P 6/M C C"
_symmetry_group_IT_number 192
_symmetry_cell_setting 'hexagonal'
loop_
_space_group_symop_operation_xyz
x,y,z
x-y,x,z
-y,x-y,z
-x,-y,z
-x+y,-x,z
y,-x+y,z
x-y,-y,1/2-z
-x,-x+y,1/2-z
y,x,1/2-z
-y,-x,1/2-z
-x+y,y,1/2-z
x,x-y,1/2-z
-x,-y,-z
-x+y,-x,-z
y,-x+y,-z
x,y,-z
x-y,x,-z
-y,x-y,-z
-x+y,y,1/2+z
x,x-y,1/2+z
-y,-x,1/2+z
y,x,1/2+z
x-y,-y,1/2+z
-x,-x+y,1/2+z
loop_
_atom_site_type_symbol
_atom_site_label
_atom_site_fract_x
_atom_site_fract_y
_atom_site_fract_z
Si Si1 1.000000 0.897595 0.358361
Si Si2 0.899294 0.206166 0.391383
Si Si3 0.693129 0.899294 0.891383
Si Si4 0.539474 0.601771 0.250000
Si Si5 0.531318 0.062635 0.397324
Si Si6 0.706205 0.063516 0.750000
Si Si7 1.000000 0.205341 0.101622
O O1 0.949525 0.899051 0.394837
O O2 0.000000 0.893430 0.250000
O O3 1.000000 0.848492 0.402205
O O4 0.900637 0.214883 0.500000
O O5 0.843925 0.156075 0.361877
O O6 0.909667 0.258936 0.340491
O O7 0.946025 0.196480 0.353430
O O8 0.650731 0.909667 0.840491
O O9 0.749545 0.946025 0.853430
O O10 0.685754 0.900637 0.000000
O O11 0.569352 0.569352 0.250000
O O12 0.503543 0.585869 0.341692
O O13 0.503543 0.585869 0.158308
O O14 0.581158 0.663348 0.250000
O O15 0.543465 0.086931 0.500000
O O16 0.500000 0.000000 0.403465
O O17 0.680048 0.000000 0.750000
O O18 0.000000 0.225308 0.000000
#
# Coordination Sequence:
#
# PCOD8329570 Si02
#       7
#    24  24  24  24  24  24  24
#     4  10  21  34  48  64  80  96 116 150 205 284
#     4  10  21  35  48  63  86 113 145 190 241 295
#     4  10  21  35  48  63  86 113 145 190 241 295
#     4   8  16  26  39  64  90 113 147 179 207 245
#     4   8  13  25  42  61  89 122 147 171 202 233
#     4  11  20  31  48  67  89 115 144 187 233 279
#     4  10  20  35  49  63  78  96 130 174 225 285
#
# _framework density 15.428378
#
# number of rings (size 3 to 8) (size 9 to 14) (size 15 to 20)
#    0.000    2.429    1.429    2.286    2.000    3.429 
#    0.000    2.857    0.000    0.857    0.000    0.000 
#    0.000    0.000    0.000    0.000    0.000    0.000 
#
# Total GULP energy -2082001.336312 kJ/mol
# GULP energy per Si atom -12392.865097 kJ/mol
# Density = 1.539326 g / cm^3
# Si number density = 15.428378 Si / 1000 Ang^3
#
#
#
# Elastic Constant Matrix: (Units=GPa)
#
#
# Indices 1 2 3 4 5 6 
#
# 1 88.1969 58.6454 39.0820 0.0000 0.0000 0.0000
# 2 58.6454 88.1969 39.0820 0.0000 0.0000 0.0000
# 3 39.0820 39.0820 90.7611 0.0000 0.0000 0.0000
# 4 0.0000 0.0000 0.0000 29.6988 0.0000 0.0000
# 5 0.0000 0.0000 0.0000 0.0000 29.6988 0.0000
# 6 0.0000 0.0000 0.0000 0.0000 0.0000 14.7757
#
#
#
# Elastic Compliance Matrix: (Units=1/GPa)
#
#
# Indices 1 2 3 4 5 6 
#
# 1 0.021337 -0.012502 -0.003804 0.000000 0.000000 0.000000
# 2 -0.012502 0.021337 -0.003804 0.000000 0.000000 0.000000
# 3 -0.003804 -0.003804 0.014294 0.000000 0.000000 0.000000
# 4 0.000000 0.000000 0.000000 0.033671 0.000000 0.000000
# 5 0.000000 0.000000 0.000000 0.000000 0.033671 0.000000
# 6 0.000000 0.000000 0.000000 0.000000 0.000000 0.067679
#
#
# Mechanical properties :
#
#
# Convention : Reuss Voigt Hill
#
# Bulk Modulus (GPa) = 59.71268 60.08595 59.89932
# Shear Modulus (GPa) = 21.02658 23.52437 22.27547
#
# Velocity S-wave (km/s) = 3.69569 3.90904 3.80386
# Velocity P-wave (km/s) = 7.54970 7.70738 7.62895
#
# Compressibility (1/GPa) = 0.01674686
#
# Stress axis : x y z
#
# Youngs Moduli (GPa) = 46.86648 46.86648 69.95781
#
# Poissons Ratio (x) = 0.58593 0.26615
# Poissons Ratio (y) = 0.58593 0.26615
# Poissons Ratio (z) = 0.17830 0.17830
#
# Static dielectric constant tensor:
#      x y z
#    x 2.848510 0.000000 0.000000 
#    y 0.000000 2.848510 0.000000 
#    z 0.000000 0.000000 3.131520 
# 
# 
# High freq. dielectric constant tensor:
#      x y z
#    x 1.559430 0.000000 0.000000 
#    y 0.000000 1.559430 0.000000 
#    z 0.000000 0.000000 1.606640 
# 
# From -- ./inp_files/3498.got.cif
#   From: 2010.03.12/outbox.cif.g09.slc.cpg/sg192_2_cif.got.tgz:3498.got - 2010.04.01 12:16:15.
