data_PCOD8329105
_publ_section_title
;
Structure prediction by ZEFSAII (Michael W. Deem and Ramdas Pophale) SiO2 
 PCOD8329105
Probable space group: P 6/M M M
;
_chemical_formula_sum "Si O2"
_cell_formula_units_Z 156
_cell_length_a 21.696643
_cell_length_b 21.696643
_cell_length_c 21.779301
_cell_angle_alpha 90.000000
_cell_angle_beta 90.000000
_cell_angle_gamma 120.000000
_cell_volume 8878.910023
_symmetry_space_group_name_H-M "P 6/M M M"
_symmetry_group_IT_number 191
_symmetry_cell_setting 'hexagonal'
loop_
_space_group_symop_operation_xyz
x,y,z
x-y,x,z
-y,x-y,z
-x,-y,z
-x+y,-x,z
y,-x+y,z
x-y,-y,-z
-x,-x+y,-z
y,x,-z
-y,-x,-z
-x+y,y,-z
x,x-y,-z
-x,-y,-z
-x+y,-x,-z
y,-x+y,-z
x,y,-z
x-y,x,-z
-y,x-y,-z
-x+y,y,z
x,x-y,z
-y,-x,z
y,x,z
x-y,-y,z
-x,-x+y,z
loop_
_atom_site_type_symbol
_atom_site_label
_atom_site_fract_x
_atom_site_fract_y
_atom_site_fract_z
Si Si1 0.333264 0.811953 0.000000
Si Si2 0.079765 0.780428 0.323643
Si Si3 0.716775 0.579568 0.110377
Si Si4 0.138861 0.000000 0.926799
Si Si5 0.522848 0.334816 0.358714
Si Si6 0.722245 0.722245 0.072602
Si Si7 0.688618 0.607514 0.570059
Si Si8 0.567250 0.711117 0.246337
O O1 0.332841 0.854399 0.939593
O O2 0.267567 0.732434 0.000000
O O3 0.404023 0.808046 0.000000
O O4 0.135973 0.864028 0.314235
O O5 0.096240 0.756310 0.388720
O O6 0.086335 0.731932 0.270504
O O7 0.000000 0.768135 0.321336
O O8 0.795371 0.590742 0.108471
O O9 0.723744 0.654231 0.096436
O O10 0.679937 0.554119 0.177311
O O11 0.138917 0.069458 0.901106
O O12 0.208346 0.000000 0.901440
O O13 0.138351 0.000000 0.000000
O O14 0.520267 0.260134 0.364454
O O15 0.603045 0.396956 0.367549
O O16 0.474159 0.340426 0.411536
O O17 0.493493 0.343878 0.292559
O O18 0.722479 0.722479 0.000000
O O19 0.714836 0.619123 0.500000
O O20 0.625210 0.625210 0.579536
O O21 0.561530 0.780765 0.245795
#
# Coordination Sequence:
#
# PCOD8329105 Si02
#       8
#    12  24  24  12  24  12  24  24
#     4  10  21  37  57  77  98 124 158 201 253 313
#     4   9  17  30  50  76 102 131 167 211 254 297
#     4  10  20  35  53  74 102 130 162 210 257 298
#     4   9  17  28  45  70 104 140 176 209 238 280
#     4  10  20  34  52  75 104 136 169 204 247 300
#     4  11  20  31  50  77 100 136 169 200 250 314
#     4   9  18  33  53  75 101 135 173 214 254 289
#     4   8  17  33  51  70  94 126 164 209 251 286
#
# _framework density 17.569724000000001
#
# number of rings (size 3 to 8) (size 9 to 14) (size 15 to 20)
#    0.000    2.615    0.769    2.154    1.077    3.385 
#    0.000    1.538    0.000    2.923    0.000    0.000 
#    0.000    0.000    0.000    3.846    0.000    0.000 
#
# Total GULP energy -1933991.589058 kJ/mol
# GULP energy per Si atom -12397.381981 kJ/mol
# Density = 1.752973 g / cm^3
# Si number density = 17.569724 Si / 1000 Ang^3
#
#
#
# Elastic Constant Matrix: (Units=GPa)
#
#
# Indices 1 2 3 4 5 6 
#
# 1 90.1140 44.3680 28.9951 0.0000 0.0000 0.0000
# 2 44.3680 90.1140 28.9951 0.0000 0.0000 0.0000
# 3 28.9951 28.9951 105.1378 0.0000 0.0000 0.0000
# 4 0.0000 0.0000 0.0000 13.4034 0.0000 0.0000
# 5 0.0000 0.0000 0.0000 0.0000 13.4034 0.0000
# 6 0.0000 0.0000 0.0000 0.0000 0.0000 22.8730
#
#
#
# Elastic Compliance Matrix: (Units=1/GPa)
#
#
# Indices 1 2 3 4 5 6 
#
# 1 0.015150 -0.006710 -0.002327 0.000000 0.000000 0.000000
# 2 -0.006710 0.015150 -0.002327 0.000000 0.000000 0.000000
# 3 -0.002327 -0.002327 0.010795 0.000000 0.000000 0.000000
# 4 0.000000 0.000000 0.000000 0.074608 0.000000 0.000000
# 5 0.000000 0.000000 0.000000 0.000000 0.074608 0.000000
# 6 0.000000 0.000000 0.000000 0.000000 0.000000 0.043720
#
#
# Mechanical properties :
#
#
# Convention : Reuss Voigt Hill
#
# Bulk Modulus (GPa) = 54.45343 54.45355 54.45349
# Shear Modulus (GPa) = 19.01992 22.13644 20.57818
#
# Velocity S-wave (km/s) = 3.29377 3.55339 3.42604
# Velocity P-wave (km/s) = 6.74724 6.92066 6.83450
#
# Compressibility (1/GPa) = 0.01836432
#
# Stress axis : x y z
#
# Youngs Moduli (GPa) = 66.00784 66.00784 92.63478
#
# Poissons Ratio (x) = 0.44292 0.21561
# Poissons Ratio (y) = 0.44292 0.21561
# Poissons Ratio (z) = 0.15363 0.15363
#
# Static dielectric constant tensor:
#      x y z
#    x 3.138970 0.000000 0.000000 
#    y 0.000000 3.138970 0.000000 
#    z 0.000000 0.000000 3.758160 
# 
# 
# High freq. dielectric constant tensor:
#      x y z
#    x 1.666360 0.000000 0.000000 
#    y 0.000000 1.666360 0.000000 
#    z 0.000000 0.000000 1.680770 
# 
# From -- ./inp_files/7767.got.cif
#   From: 2010.03.12/outbox.cif.g09.slc.cpg/sg191_4_cif.got.tgz:7767.got - 2010.04.01 12:09:02.
