data_PCOD8329735
_publ_section_title
;
Structure prediction by ZEFSAII (Michael W. Deem and Ramdas Pophale) SiO2 
 PCOD8329735
Probable space group: P 6/M C C
;
_chemical_formula_sum "Si O2"
_cell_formula_units_Z 132
_cell_length_a 18.051212
_cell_length_b 18.051212
_cell_length_c 22.572556
_cell_angle_alpha 90.000000
_cell_angle_beta 90.000000
_cell_angle_gamma 120.000000
_cell_volume 6369.775181
_symmetry_space_group_name_H-M "P 6/M C C"
_symmetry_group_IT_number 192
_symmetry_cell_setting 'hexagonal'
loop_
_space_group_symop_operation_xyz
x,y,z
x-y,x,z
-y,x-y,z
-x,-y,z
-x+y,-x,z
y,-x+y,z
x-y,-y,1/2-z
-x,-x+y,1/2-z
y,x,1/2-z
-y,-x,1/2-z
-x+y,y,1/2-z
x,x-y,1/2-z
-x,-y,-z
-x+y,-x,-z
y,-x+y,-z
x,y,-z
x-y,x,-z
-y,x-y,-z
-x+y,y,1/2+z
x,x-y,1/2+z
-y,-x,1/2+z
y,x,1/2+z
x-y,-y,1/2+z
-x,-x+y,1/2+z
loop_
_atom_site_type_symbol
_atom_site_label
_atom_site_fract_x
_atom_site_fract_y
_atom_site_fract_z
Si Si1 0.402258 0.953709 0.874744
Si Si2 0.902054 0.265928 0.107499
Si Si3 0.000000 0.235543 0.750000
Si Si4 0.373522 0.511424 0.500000
Si Si5 0.035066 0.183782 0.627690
Si Si6 0.248436 0.405816 0.697587
Si Si7 0.517021 0.702194 0.500000
O O1 0.392966 0.922615 0.942864
O O2 0.340885 0.872525 0.832772
O O3 0.500000 0.000000 0.853670
O O4 0.372692 0.022622 0.861902
O O5 0.947312 0.212415 0.087300
O O6 0.824864 0.203596 0.149259
O O7 0.867816 0.299188 0.055892
O O8 0.039697 0.205172 0.697804
O O9 0.076294 0.323309 0.775323
O O10 0.427654 0.614202 0.500000
O O11 0.276949 0.491081 0.500000
O O12 0.105416 0.159950 0.609855
O O13 0.227272 0.454544 0.750000
#
# Coordination Sequence:
#
# PCOD8329735 Si02
#       7
#    24  24  12  12  24  24  12
#     4  12  24  42  71 105 142 179 235 303 357 427
#     4  12  23  42  69  99 137 182 229 284 353 423
#     4  12  20  38  64  92 132 174 234 280 322 402
#     4  12  25  47  74 107 139 181 235 308 365 437
#     4  12  23  38  60  94 133 181 227 280 328 388
#     4  12  22  42  68  97 139 186 235 279 347 422
#     4  12  26  46  75 106 133 179 229 293 372 422
#
# _framework density 20.722867000000001
#
# number of rings (size 3 to 8) (size 9 to 14) (size 15 to 20)
#    0.000    0.000    9.091    1.727    0.000    0.000 
#    0.000    5.000    0.000    0.000    0.000    3.818 
#    0.000    0.000    0.000    0.000    0.000    0.000 
#
# Total GULP energy -1636379.315140 kJ/mol
# GULP energy per Si atom -12396.812993 kJ/mol
# Density = 2.067570 g / cm^3
# Si number density = 20.722867 Si / 1000 Ang^3
#
#
#
# Elastic Constant Matrix: (Units=GPa)
#
#
# Indices 1 2 3 4 5 6 
#
# 1 116.9897 44.6794 23.2384 0.0000 0.0000 0.0000
# 2 44.6794 116.9897 23.2384 0.0000 0.0000 0.0000
# 3 23.2384 23.2384 64.6280 0.0000 0.0000 0.0000
# 4 0.0000 0.0000 0.0000 27.7369 0.0000 0.0000
# 5 0.0000 0.0000 0.0000 0.0000 27.7369 0.0000
# 6 0.0000 0.0000 0.0000 0.0000 0.0000 36.1552
#
#
#
# Elastic Compliance Matrix: (Units=1/GPa)
#
#
# Indices 1 2 3 4 5 6 
#
# 1 0.010364 -0.003465 -0.002481 0.000000 0.000000 0.000000
# 2 -0.003465 0.010364 -0.002481 0.000000 0.000000 0.000000
# 3 -0.002481 -0.002481 0.017257 0.000000 0.000000 0.000000
# 4 0.000000 0.000000 0.000000 0.036053 0.000000 0.000000
# 5 0.000000 0.000000 0.000000 0.000000 0.036053 0.000000
# 6 0.000000 0.000000 0.000000 0.000000 0.000000 0.027659
#
#
# Mechanical properties :
#
#
# Convention : Reuss Voigt Hill
#
# Bulk Modulus (GPa) = 47.32145 53.43550 50.37848
# Shear Modulus (GPa) = 30.93171 32.15588 31.54380
#
# Velocity S-wave (km/s) = 3.86766 3.94345 3.90574
# Velocity P-wave (km/s) = 6.54446 6.82467 6.68603
#
# Compressibility (1/GPa) = 0.02113207
#
# Stress axis : x y z
#
# Youngs Moduli (GPa) = 96.48849 96.48849 57.94740
#
# Poissons Ratio (x) = 0.33437 0.14374
# Poissons Ratio (y) = 0.33437 0.14374
# Poissons Ratio (z) = 0.23934 0.23934
#
# Static dielectric constant tensor:
#      x y z
#    x 3.947880 0.000000 0.000000 
#    y 0.000000 3.947880 0.000000 
#    z 0.000000 0.000000 3.724530 
# 
# 
# High freq. dielectric constant tensor:
#      x y z
#    x 1.818540 0.000000 0.000000 
#    y 0.000000 1.818540 0.000000 
#    z 0.000000 0.000000 1.797490 
# 
# From -- ./inp_files/5850.got.cif
#   From: 2010.03.12/outbox.cif.g09.slc.cpg/sg192_3_cif.got.tgz:5850.got - 2010.04.01 12:16:15.
