data_PCOD8329856
_publ_section_title
;
Structure prediction by ZEFSAII (Michael W. Deem and Ramdas Pophale) SiO2 
 PCOD8329856
Probable space group: P 63/M C M
;
_chemical_formula_sum "Si O2"
_cell_formula_units_Z 128
_cell_length_a 23.272711
_cell_length_b 23.272711
_cell_length_c 22.411244
_cell_angle_alpha 90.000000
_cell_angle_beta 90.000000
_cell_angle_gamma 120.000000
_cell_volume 10512.125779
_symmetry_space_group_name_H-M "P 63/M C M"
_symmetry_group_IT_number 193
_symmetry_cell_setting 'hexagonal'
loop_
_space_group_symop_operation_xyz
x,y,z
x-y,x,1/2+z
-y,x-y,z
-x,-y,1/2+z
-x+y,-x,z
y,-x+y,1/2+z
x-y,-y,1/2-z
-x,-x+y,1/2-z
y,x,1/2-z
-y,-x,-z
-x+y,y,-z
x,x-y,-z
-x,-y,-z
-x+y,-x,1/2-z
y,-x+y,-z
x,y,1/2-z
x-y,x,-z
-y,x-y,1/2-z
-x+y,y,1/2+z
x,x-y,1/2+z
-y,-x,1/2+z
y,x,z
x-y,-y,z
-x,-x+y,z
loop_
_atom_site_type_symbol
_atom_site_label
_atom_site_fract_x
_atom_site_fract_y
_atom_site_fract_z
Si Si1 0.466141 0.801544 0.497602
Si Si2 0.369072 0.862496 0.628991
Si Si3 0.260886 0.519465 0.818519
Si Si4 0.562299 0.000000 0.317443
Si Si5 0.426608 0.000000 0.182023
Si Si6 0.333334 0.666667 0.178438
Si Si7 0.496428 0.361229 0.878701
O O1 0.387381 0.774761 0.500000
O O2 0.477649 0.738825 0.500000
O O3 0.499316 0.844741 0.438844
O O4 0.503334 0.854946 0.550296
O O5 0.306852 0.816845 0.671479
O O6 0.385514 0.936512 0.644673
O O7 0.431988 0.852892 0.643484
O O8 0.277985 0.522162 0.750000
O O9 0.297547 0.592817 0.847811
O O10 0.290921 0.478799 0.850007
O O11 0.494367 0.000000 0.312619
O O12 0.588043 0.000000 0.250000
O O13 0.438341 0.063682 0.143503
O O14 0.400877 0.000000 0.250000
O O15 0.333334 0.666668 0.250000
#
# Coordination Sequence:
#
# PCOD8329856 Si02
#       7
#    24  24  24  12  12   8  24
#     4  10  19  29  41  57  77 100 121 152 190 231
#     4  10  19  29  41  55  74  97 123 150 186 230
#     4  11  18  25  39  57  74  94 119 154 196 232
#     4   9  18  31  43  55  73  96 121 151 185 226
#     4   9  18  31  43  55  73  96 121 151 185 226
#     4   9  18  24  33  52  77  91 111 156 193 230
#     4  10  19  29  41  55  74  97 123 150 186 230
#
# _framework density 12.176413999999999
#
# number of rings (size 3 to 8) (size 9 to 14) (size 15 to 20)
#    0.000    2.062    3.750    1.312    0.000    2.250 
#    0.000    3.750    0.000    0.000    0.000    0.000 
#    0.000    0.000    0.000    0.000    0.000    0.000 
#
# Total GULP energy -1586715.726352 kJ/mol
# GULP energy per Si atom -12396.216612 kJ/mol
# Density = 1.214870 g / cm^3
# Si number density = 12.176414 Si / 1000 Ang^3
#
#
#
# Elastic Constant Matrix: (Units=GPa)
#
#
# Indices 1 2 3 4 5 6 
#
# 1 54.5395 31.2323 23.2638 0.0000 0.0000 0.0000
# 2 31.2323 54.5395 23.2638 0.0000 0.0000 0.0000
# 3 23.2638 23.2638 66.7606 0.0000 0.0000 0.0000
# 4 0.0000 0.0000 0.0000 17.6667 0.0000 0.0000
# 5 0.0000 0.0000 0.0000 0.0000 17.6668 0.0000
# 6 0.0000 0.0000 0.0000 0.0000 0.0000 11.6536
#
#
#
# Elastic Compliance Matrix: (Units=1/GPa)
#
#
# Indices 1 2 3 4 5 6 
#
# 1 0.028641 -0.014264 -0.005010 0.000000 0.000000 0.000000
# 2 -0.014264 0.028641 -0.005010 0.000000 0.000000 0.000000
# 3 -0.005010 -0.005010 0.018470 0.000000 0.000000 0.000000
# 4 0.000000 0.000000 0.000000 0.056604 0.000000 0.000000
# 5 0.000000 0.000000 0.000000 0.000000 0.056603 0.000000
# 6 0.000000 0.000000 0.000000 0.000000 0.000000 0.085810
#
#
# Mechanical properties :
#
#
# Convention : Reuss Voigt Hill
#
# Bulk Modulus (GPa) = 36.78588 36.81771 36.80179
# Shear Modulus (GPa) = 15.04219 15.93607 15.48913
#
# Velocity S-wave (km/s) = 3.51857 3.62161 3.57046
# Velocity P-wave (km/s) = 6.83985 6.91308 6.87656
#
# Compressibility (1/GPa) = 0.02718435
#
# Stress axis : x y z
#
# Youngs Moduli (GPa) = 34.91524 34.91519 54.14102
#
# Poissons Ratio (x) = 0.49805 0.27123
# Poissons Ratio (y) = 0.49805 0.27123
# Poissons Ratio (z) = 0.17491 0.17491
#
# Static dielectric constant tensor:
#      x y z
#    x 2.356130 0.000000 0.000000 
#    y 0.000000 2.356130 0.000000 
#    z 0.000000 0.000000 2.629050 
# 
# 
# High freq. dielectric constant tensor:
#      x y z
#    x 1.424580 0.000000 0.000000 
#    y 0.000000 1.424580 0.000000 
#    z 0.000000 0.000000 1.479950 
# 
# From -- ./inp_files/6779.got.cif
#   From: 2010.03.12/outbox.cif.g09.slc.cpg/sg193_4_cif.got.tgz:6779.got - 2010.04.01 12:20:39.
