data_PCOD8329557
_publ_section_title
;
Structure prediction by ZEFSAII (Michael W. Deem and Ramdas Pophale) SiO2 
 PCOD8329557
Probable space group: P 6/M C C
;
_chemical_formula_sum "Si O2"
_cell_formula_units_Z 132
_cell_length_a 24.949946
_cell_length_b 24.949946
_cell_length_c 14.991532
_cell_angle_alpha 90.000000
_cell_angle_beta 90.000000
_cell_angle_gamma 120.000000
_cell_volume 8081.944576
_symmetry_space_group_name_H-M "P 6/M C C"
_symmetry_group_IT_number 192
_symmetry_cell_setting 'hexagonal'
loop_
_space_group_symop_operation_xyz
x,y,z
x-y,x,z
-y,x-y,z
-x,-y,z
-x+y,-x,z
y,-x+y,z
x-y,-y,1/2-z
-x,-x+y,1/2-z
y,x,1/2-z
-y,-x,1/2-z
-x+y,y,1/2-z
x,x-y,1/2-z
-x,-y,-z
-x+y,-x,-z
y,-x+y,-z
x,y,-z
x-y,x,-z
-y,x-y,-z
-x+y,y,1/2+z
x,x-y,1/2+z
-y,-x,1/2+z
y,x,1/2+z
x-y,-y,1/2+z
-x,-x+y,1/2+z
loop_
_atom_site_type_symbol
_atom_site_label
_atom_site_fract_x
_atom_site_fract_y
_atom_site_fract_z
Si Si1 0.763858 0.319271 0.815026
Si Si2 0.285199 0.697212 0.000000
Si Si3 0.352317 0.419135 0.898058
Si Si4 0.429168 0.077071 0.602995
Si Si5 0.436498 0.865969 0.896454
Si Si6 0.150167 0.732077 0.755040
O O1 0.703371 0.296630 0.750000
O O2 0.741141 0.286365 0.912205
O O3 0.803850 0.393435 0.834464
O O4 0.806312 0.297161 0.767751
O O5 0.263770 0.623652 0.000000
O O6 0.387143 0.381907 0.875352
O O7 0.400115 0.490764 0.877127
O O8 0.290983 0.392345 0.836685
O O9 0.329884 0.409519 0.000000
O O10 0.425307 0.092078 0.500000
O O11 0.499173 0.097247 0.630821
O O12 0.404921 0.114346 0.661374
O O13 0.426485 0.846823 0.000000
O O14 0.193006 0.806995 0.750000
#
# Coordination Sequence:
#
# PCOD8329557 Si02
#       6
#    24  12  24  24  24  24
#     4  10  21  37  50  66  87 116 156 191 241 300
#     4  10  24  38  48  62  77 114 156 202 240 282
#     4   9  18  33  55  75 100 123 150 192 247 298
#     4  10  20  34  52  78  97 119 152 200 246 298
#     4   9  17  32  53  72  94 118 147 191 250 300
#     4  10  22  35  49  73  93 128 150 184 230 294
#
# _framework density 16.332702999999999
#
# number of rings (size 3 to 8) (size 9 to 14) (size 15 to 20)
#    0.182    2.182    0.909    1.091    1.273   10.909 
#    4.909    3.636    0.000    0.000    0.000    0.000 
#    0.000    0.000    0.000    0.000    0.000    0.000 
#
# Total GULP energy -1635832.064134 kJ/mol
# GULP energy per Si atom -12392.667153 kJ/mol
# Density = 1.629553 g / cm^3
# Si number density = 16.332703 Si / 1000 Ang^3
#
#
#
# Elastic Constant Matrix: (Units=GPa)
#
#
# Indices 1 2 3 4 5 6 
#
# 1 78.0447 37.2571 48.0982 0.0000 0.0000 0.0000
# 2 37.2571 78.0447 48.0982 0.0000 0.0000 0.0000
# 3 48.0982 48.0982 109.3135 0.0000 0.0000 0.0000
# 4 0.0000 0.0000 0.0000 26.4699 0.0000 0.0000
# 5 0.0000 0.0000 0.0000 0.0000 26.4699 0.0000
# 6 0.0000 0.0000 0.0000 0.0000 0.0000 20.3938
#
#
#
# Elastic Compliance Matrix: (Units=1/GPa)
#
#
# Indices 1 2 3 4 5 6 
#
# 1 0.019110 -0.005407 -0.006029 0.000000 0.000000 0.000000
# 2 -0.005407 0.019110 -0.006029 0.000000 0.000000 0.000000
# 3 -0.006029 -0.006029 0.014454 0.000000 0.000000 0.000000
# 4 0.000000 0.000000 0.000000 0.037779 0.000000 0.000000
# 5 0.000000 0.000000 0.000000 0.000000 0.037779 0.000000
# 6 0.000000 0.000000 0.000000 0.000000 0.000000 0.049035
#
#
# Mechanical properties :
#
#
# Convention : Reuss Voigt Hill
#
# Bulk Modulus (GPa) = 56.36144 59.14556 57.75350
# Shear Modulus (GPa) = 22.92391 23.46332 23.19361
#
# Velocity S-wave (km/s) = 3.75047 3.79434 3.77247
# Velocity P-wave (km/s) = 7.30329 7.44900 7.37650
#
# Compressibility (1/GPa) = 0.01774263
#
# Stress axis : x y z
#
# Youngs Moduli (GPa) = 52.32785 52.32785 69.18508
#
# Poissons Ratio (x) = 0.28294 0.41715
# Poissons Ratio (y) = 0.28294 0.41715
# Poissons Ratio (z) = 0.31551 0.31551
#
# Static dielectric constant tensor:
#      x y z
#    x 3.020440 0.000000 0.000000 
#    y 0.000000 3.020440 0.000000 
#    z 0.000000 0.000000 3.442630 
# 
# 
# High freq. dielectric constant tensor:
#      x y z
#    x 1.585210 0.000000 0.000000 
#    y 0.000000 1.585210 0.000000 
#    z 0.000000 0.000000 1.657790 
# 
# From -- ./inp_files/3267.got.cif
#   From: 2010.03.12/outbox.cif.g09.slc.cpg/sg192_2_cif.got.tgz:3267.got - 2010.04.01 12:16:15.
