data_PCOD8329451
_publ_section_title
;
Structure prediction by ZEFSAII (Michael W. Deem and Ramdas Pophale) SiO2 
 PCOD8329451
Probable space group: P 6/M C C
;
_chemical_formula_sum "Si O2"
_cell_formula_units_Z 164
_cell_length_a 22.650873
_cell_length_b 22.650873
_cell_length_c 24.534539
_cell_angle_alpha 90.000000
_cell_angle_beta 90.000000
_cell_angle_gamma 120.000000
_cell_volume 10901.303324
_symmetry_space_group_name_H-M "P 6/M C C"
_symmetry_group_IT_number 192
_symmetry_cell_setting 'hexagonal'
loop_
_space_group_symop_operation_xyz
x,y,z
x-y,x,z
-y,x-y,z
-x,-y,z
-x+y,-x,z
y,-x+y,z
x-y,-y,1/2-z
-x,-x+y,1/2-z
y,x,1/2-z
-y,-x,1/2-z
-x+y,y,1/2-z
x,x-y,1/2-z
-x,-y,-z
-x+y,-x,-z
y,-x+y,-z
x,y,-z
x-y,x,-z
-y,x-y,-z
-x+y,y,1/2+z
x,x-y,1/2+z
-y,-x,1/2+z
y,x,1/2+z
x-y,-y,1/2+z
-x,-x+y,1/2+z
loop_
_atom_site_type_symbol
_atom_site_label
_atom_site_fract_x
_atom_site_fract_y
_atom_site_fract_z
Si Si1 0.078872 0.157743 0.250000
Si Si2 0.675399 0.027644 0.564884
Si Si3 0.838060 0.915878 0.368290
Si Si4 0.706036 0.878672 0.935263
Si Si5 0.811062 0.450372 0.064986
Si Si6 0.666667 0.333334 0.434929
Si Si7 0.727968 0.125455 0.064737
Si Si8 0.498857 0.066098 0.064867
O O1 0.108128 0.108128 0.250000
O O2 0.097205 0.198200 0.307742
O O3 0.676586 0.027189 0.500000
O O4 0.752623 0.066665 0.586967
O O5 0.634569 0.065169 0.585225
O O6 0.637572 0.951127 0.588265
O O7 0.886303 0.883268 0.377248
O O8 0.777633 0.884551 0.411693
O O9 0.645767 0.805472 0.915381
O O10 0.713381 0.881026 0.000000
O O11 0.736990 0.395772 0.087789
O O12 0.830796 0.525307 0.086956
O O13 0.865846 0.430227 0.087071
O O14 0.810623 0.449830 0.000000
O O15 0.666667 0.333334 0.500000
O O16 0.723325 0.122424 0.000000
O O17 0.500000 0.000000 0.087816
O O18 0.500722 0.064791 0.000000
#
# Coordination Sequence:
#
# PCOD8329451 Si02
#       8
#    12  24  24  24  24   8  24  24
#     4   8  15  28  48  68  82  98 128 172 220 258
#     4   9  16  25  36  50  68  96 135 170 197 232
#     4  10  19  32  48  65  83 106 139 178 218 255
#     4  10  20  29  40  57  84 116 143 169 205 252
#     4   9  16  24  33  46  66  91 128 172 209 240
#     4   9  18  24  30  45  66  90 120 166 215 253
#     4   9  16  26  36  48  68  97 132 165 194 231
#     4   9  14  22  35  49  63  89 132 177 208 231
#
# _framework density 15.044072999999999
#
# number of rings (size 3 to 8) (size 9 to 14) (size 15 to 20)
#    0.000    2.780    1.463    1.098    2.049    2.927 
#    0.000    0.000    0.000    0.878    0.000    0.000 
#    0.000    0.000    0.000    1.317    4.390    0.585 
#
# Total GULP energy -2032263.569492 kJ/mol
# GULP energy per Si atom -12391.851033 kJ/mol
# Density = 1.500983 g / cm^3
# Si number density = 15.044073 Si / 1000 Ang^3
#
#
#
# Elastic Constant Matrix: (Units=GPa)
#
#
# Indices 1 2 3 4 5 6 
#
# 1 126.8252 65.4452 17.6219 0.0000 0.0000 0.0000
# 2 65.4452 126.8249 17.6219 0.0000 0.0000 -0.0001
# 3 17.6219 17.6219 17.8887 0.0000 0.0000 0.0000
# 4 0.0000 0.0000 0.0000 3.7381 0.0000 0.0000
# 5 0.0000 0.0000 0.0000 0.0000 3.7381 0.0000
# 6 0.0000 -0.0001 0.0000 0.0000 0.0000 30.6899
#
#
#
# Elastic Compliance Matrix: (Units=1/GPa)
#
#
# Indices 1 2 3 4 5 6 
#
# 1 0.011320 -0.004972 -0.006252 0.000000 0.000000 0.000000
# 2 -0.004972 0.011320 -0.006252 0.000000 0.000000 0.000000
# 3 -0.006252 -0.006252 0.068220 0.000000 0.000000 0.000000
# 4 0.000000 0.000000 0.000000 0.267516 -0.000001 0.000000
# 5 0.000000 0.000000 0.000000 -0.000001 0.267517 0.000000
# 6 0.000000 0.000000 0.000000 0.000000 0.000000 0.032584
#
#
# Mechanical properties :
#
#
# Convention : Reuss Voigt Hill
#
# Bulk Modulus (GPa) = 17.88778 52.54628 35.21703
# Shear Modulus (GPa) = 7.02182 19.02320 13.02251
#
# Velocity S-wave (km/s) = 2.16278 3.55984 2.94534
# Velocity P-wave (km/s) = 4.26062 7.20421 5.91834
#
# Compressibility (1/GPa) = 0.05590409
#
# Stress axis : x y z
#
# Youngs Moduli (GPa) = 88.34283 88.34265 14.65854
#
# Poissons Ratio (x) = 0.43928 0.09165
# Poissons Ratio (y) = 0.43928 0.09165
# Poissons Ratio (z) = 0.55236 0.55236
#
# Static dielectric constant tensor:
#      x y z
#    x 3.093150 0.000000 0.000000 
#    y 0.000000 3.093150 0.000000 
#    z 0.000000 0.000000 2.391750 
# 
# 
# High freq. dielectric constant tensor:
#      x y z
#    x 1.589210 0.000000 0.000000 
#    y 0.000000 1.589210 0.000000 
#    z 0.000000 0.000000 1.482960 
# 
# From -- ./inp_files/6670.got.cif
#   From: 2010.03.12/outbox.cif.g09.slc.cpg/sg192_4_cif.got.tgz:6670.got - 2010.04.01 12:16:15.
