data_PCOD8329056
_publ_section_title
;
Structure prediction by ZEFSAII (Michael W. Deem and Ramdas Pophale) SiO2 
 PCOD8329056
Probable space group: P 6/M M M
;
_chemical_formula_sum "Si O2"
_cell_formula_units_Z 120
_cell_length_a 17.417727
_cell_length_b 17.417727
_cell_length_c 25.737575
_cell_angle_alpha 90.000000
_cell_angle_beta 90.000000
_cell_angle_gamma 120.000000
_cell_volume 6762.094184
_symmetry_space_group_name_H-M "P 6/M M M"
_symmetry_group_IT_number 191
_symmetry_cell_setting 'hexagonal'
loop_
_space_group_symop_operation_xyz
x,y,z
x-y,x,z
-y,x-y,z
-x,-y,z
-x+y,-x,z
y,-x+y,z
x-y,-y,-z
-x,-x+y,-z
y,x,-z
-y,-x,-z
-x+y,y,-z
x,x-y,-z
-x,-y,-z
-x+y,-x,-z
y,-x+y,-z
x,y,-z
x-y,x,-z
-y,x-y,-z
-x+y,y,z
x,x-y,z
-y,-x,z
y,x,z
x-y,-y,z
-x,-x+y,z
loop_
_atom_site_type_symbol
_atom_site_label
_atom_site_fract_x
_atom_site_fract_y
_atom_site_fract_z
Si Si1 0.900209 0.270109 0.900800
Si Si2 0.467412 0.362748 0.000000
Si Si3 0.099738 0.374801 0.500000
Si Si4 0.900730 0.273539 0.702531
Si Si5 0.668023 0.511991 0.196861
Si Si6 0.843254 0.331529 0.398290
O O1 0.835701 0.164300 0.894695
O O2 0.864367 0.302628 0.948715
O O3 0.899026 0.320653 0.849249
O O4 0.000000 0.289702 0.910335
O O5 0.423185 0.423185 0.000000
O O6 0.574109 0.425892 0.000000
O O7 0.169332 0.338663 0.500000
O O8 0.112889 0.435031 0.549578
O O9 0.000000 0.290742 0.500000
O O10 0.831973 0.168028 0.704968
O O11 0.883390 0.323934 0.748831
O O12 0.891651 0.315487 0.649484
O O13 0.000000 0.289092 0.706471
O O14 0.740415 0.480830 0.192465
O O15 0.571662 0.428339 0.192553
O O16 0.858540 0.429270 0.394673
O O17 0.738446 0.261555 0.397352
#
# Coordination Sequence:
#
# PCOD8329056 Si02
#       6
#    24  12  12  24  24  24
#     4  10  20  33  50  72  97 127 163 203 245 286
#     4   9  17  30  49  72  96 122 154 191 231 280
#     4  10  21  35  51  72  97 127 162 202 247 289
#     4  10  21  35  51  72  97 127 162 201 244 286
#     4  10  20  33  50  73 101 131 161 194 234 281
#     4  10  20  33  50  73 102 134 165 196 232 277
#
# _framework density 17.745982000000001
#
# number of rings (size 3 to 8) (size 9 to 14) (size 15 to 20)
#    0.000    2.100    0.000    3.400    0.000    5.200 
#    0.000    3.000    0.000    3.300    0.000    0.000 
#    0.000   12.000    0.000    0.000    0.000    2.000 
#
# Total GULP energy -1488144.966821 kJ/mol
# GULP energy per Si atom -12401.208057 kJ/mol
# Density = 1.770559 g / cm^3
# Si number density = 17.745982 Si / 1000 Ang^3
#
#
#
# Elastic Constant Matrix: (Units=GPa)
#
#
# Indices 1 2 3 4 5 6 
#
# 1 95.1496 67.1427 13.5746 0.0000 0.0000 0.0000
# 2 67.1427 95.1496 13.5746 0.0000 0.0000 0.0000
# 3 13.5746 13.5746 101.7412 0.0000 0.0000 0.0000
# 4 0.0000 0.0000 0.0000 -11.8972 0.0000 0.0000
# 5 0.0000 0.0000 0.0000 0.0000 -11.8972 0.0000
# 6 0.0000 0.0000 0.0000 0.0000 0.0000 14.0035
#
#
#
# Elastic Compliance Matrix: (Units=1/GPa)
#
#
# Indices 1 2 3 4 5 6 
#
# 1 0.021004 -0.014702 -0.000841 0.000000 0.000000 0.000000
# 2 -0.014702 0.021004 -0.000841 0.000000 0.000000 0.000000
# 3 -0.000841 -0.000841 0.010053 0.000000 0.000000 0.000000
# 4 0.000000 0.000000 0.000000 -0.084053 0.000000 0.000000
# 5 0.000000 0.000000 0.000000 0.000000 -0.084053 0.000000
# 6 0.000000 0.000000 0.000000 0.000000 0.000000 0.071411
#
#
# Mechanical properties :
#
#
# Convention : Reuss Voigt Hill
#
# Bulk Modulus (GPa) = 51.82826 53.40269 52.61547
# Shear Modulus (GPa) = -919.65431 11.22506 -454.21463
#
# Velocity S-wave (km/s) = -22.78942 2.51776 -16.01590
# Velocity P-wave (km/s) = 25.75282 6.21372 17.67197
#
# Compressibility (1/GPa) = 0.01929449
#
# Stress axis : x y z
#
# Youngs Moduli (GPa) = 47.61020 47.61020 99.47041
#
# Poissons Ratio (x) = 0.69994 0.08364
# Poissons Ratio (y) = 0.69994 0.08364
# Poissons Ratio (z) = 0.04003 0.04003
#
# Static dielectric constant tensor:
#      x y z
#    x 3.185650 0.000000 0.000000 
#    y 0.000000 3.185650 0.000000 
#    z 0.000000 0.000000 3.550170 
# 
# 
# High freq. dielectric constant tensor:
#      x y z
#    x 1.670630 0.000000 0.000000 
#    y 0.000000 1.670630 0.000000 
#    z 0.000000 0.000000 1.713430 
# 
# From -- ./inp_files/8508.got.cif
#   From: 2010.03.12/outbox.cif.g09.slc.cpg/sg191_5_cif.got.tgz:8508.got - 2010.04.01 12:09:02.
