data_PCOD8329375
_publ_section_title
;
Structure prediction by ZEFSAII (Michael W. Deem and Ramdas Pophale) SiO2 
 PCOD8329375
Probable space group: P 6/M C C
;
_chemical_formula_sum "Si O2"
_cell_formula_units_Z 164
_cell_length_a 21.953138
_cell_length_b 21.953138
_cell_length_c 24.729118
_cell_angle_alpha 90.000000
_cell_angle_beta 90.000000
_cell_angle_gamma 120.000000
_cell_volume 10321.254179
_symmetry_space_group_name_H-M "P 6/M C C"
_symmetry_group_IT_number 192
_symmetry_cell_setting 'hexagonal'
loop_
_space_group_symop_operation_xyz
x,y,z
x-y,x,z
-y,x-y,z
-x,-y,z
-x+y,-x,z
y,-x+y,z
x-y,-y,1/2-z
-x,-x+y,1/2-z
y,x,1/2-z
-y,-x,1/2-z
-x+y,y,1/2-z
x,x-y,1/2-z
-x,-y,-z
-x+y,-x,-z
y,-x+y,-z
x,y,-z
x-y,x,-z
-y,x-y,-z
-x+y,y,1/2+z
x,x-y,1/2+z
-y,-x,1/2+z
y,x,1/2+z
x-y,-y,1/2+z
-x,-x+y,1/2+z
loop_
_atom_site_type_symbol
_atom_site_label
_atom_site_fract_x
_atom_site_fract_y
_atom_site_fract_z
Si Si1 0.960101 0.648377 0.438365
Si Si2 0.841565 0.727315 0.099123
Si Si3 0.837949 0.923649 0.813063
Si Si4 0.647260 0.188862 0.935563
Si Si5 0.500813 0.568960 0.435560
Si Si6 0.666668 0.333334 0.064447
Si Si7 0.261106 0.875732 0.061544
Si Si8 0.166933 0.073227 0.000000
O O1 0.935649 0.648860 0.500000
O O2 0.936268 0.693702 0.402479
O O3 0.927333 0.568844 0.415751
O O4 0.043075 0.681430 0.435416
O O5 0.871212 0.764128 0.156400
O O6 0.858683 0.664731 0.096773
O O7 0.880025 0.784301 0.052440
O O8 0.880819 0.885398 0.830309
O O9 0.820631 0.910316 0.750000
O O10 0.568849 0.136384 0.913865
O O11 0.670337 0.266304 0.913744
O O12 0.703259 0.167376 0.914208
O O13 0.645908 0.184985 0.000000
O O14 0.500000 0.500000 0.412117
O O15 0.503846 0.567520 0.500000
O O16 0.666667 0.333334 0.000000
O O17 0.236001 0.852774 0.000000
O O18 0.123110 0.113481 0.000000
#
# Coordination Sequence:
#
# PCOD8329375 Si02
#       8
#    24  24  24  24  24   8  24  12
#     4  10  18  28  43  62  91 126 162 194 233 285
#     4  12  22  32  48  71 100 128 160 200 251 302
#     4  10  21  38  58  75  93 122 165 216 260 302
#     4   9  17  27  39  55  83 122 167 204 233 270
#     4   9  15  26  40  59  82 123 170 205 227 268
#     4   9  18  27  36  51  81 117 163 206 241 270
#     4  10  18  29  42  61  89 125 157 187 231 283
#     4  12  23  36  48  66  95 133 167 201 239 301
#
# _framework density 15.889542
#
# number of rings (size 3 to 8) (size 9 to 14) (size 15 to 20)
#    0.000    1.902    2.927    2.854    2.049    0.585 
#    0.000    1.463    0.000    0.000    0.000    0.000 
#    0.000    1.171    0.878    0.000    0.000    0.000 
#
# Total GULP energy -2033540.867607 kJ/mol
# GULP energy per Si atom -12399.639437 kJ/mol
# Density = 1.585338 g / cm^3
# Si number density = 15.889542 Si / 1000 Ang^3
#
#
#
# Elastic Constant Matrix: (Units=GPa)
#
#
# Indices 1 2 3 4 5 6 
#
# 1 135.2958 66.0531 28.0679 0.0000 0.0000 0.0000
# 2 66.0531 135.2967 28.0679 0.0000 0.0000 0.0002
# 3 28.0679 28.0679 29.3642 0.0000 0.0000 0.0000
# 4 0.0000 0.0000 0.0000 12.9474 0.0000 0.0000
# 5 0.0000 0.0000 0.0000 0.0000 12.9475 0.0000
# 6 0.0000 0.0002 0.0000 0.0000 0.0000 34.6219
#
#
#
# Elastic Compliance Matrix: (Units=1/GPa)
#
#
# Indices 1 2 3 4 5 6 
#
# 1 0.010606 -0.003836 -0.006472 0.000000 0.000000 0.000000
# 2 -0.003836 0.010606 -0.006472 0.000000 0.000000 0.000000
# 3 -0.006472 -0.006472 0.046428 0.000000 0.000000 0.000000
# 4 0.000000 0.000000 0.000000 0.077236 0.000000 0.000000
# 5 0.000000 0.000000 0.000000 0.000000 0.077235 0.000000
# 6 0.000000 0.000000 0.000000 0.000000 0.000000 0.028883
#
#
# Mechanical properties :
#
#
# Convention : Reuss Voigt Hill
#
# Bulk Modulus (GPa) = 29.34147 60.48161 44.91154
# Shear Modulus (GPa) = 16.89679 23.95452 20.42566
#
# Velocity S-wave (km/s) = 3.26450 3.88695 3.58925
# Velocity P-wave (km/s) = 5.71973 7.63485 6.74560
#
# Compressibility (1/GPa) = 0.03408145
#
# Stress axis : x y z
#
# Youngs Moduli (GPa) = 94.28258 94.28341 21.53894
#
# Poissons Ratio (x) = 0.36162 0.13940
# Poissons Ratio (y) = 0.36162 0.13940
# Poissons Ratio (z) = 0.61020 0.61019
#
# Static dielectric constant tensor:
#      x y z
#    x 3.220520 0.000000 0.000000 
#    y 0.000000 3.220510 0.000000 
#    z 0.000000 0.000000 2.433880 
# 
# 
# High freq. dielectric constant tensor:
#      x y z
#    x 1.628830 0.000000 0.000000 
#    y 0.000000 1.628830 0.000000 
#    z 0.000000 0.000000 1.522910 
# 
# From -- ./inp_files/6668.got.cif
#   From: 2010.03.12/outbox.cif.g09.slc.cpg/sg192_4_cif.got.tgz:6668.got - 2010.04.01 12:16:15.
