data_PCOD8329061
_publ_section_title
;
Structure prediction by ZEFSAII (Michael W. Deem and Ramdas Pophale) SiO2 
 PCOD8329061
Probable space group: P 6/M M M
;
_chemical_formula_sum "Si O2"
_cell_formula_units_Z 120
_cell_length_a 17.955040
_cell_length_b 17.955040
_cell_length_c 23.988544
_cell_angle_alpha 90.000000
_cell_angle_beta 90.000000
_cell_angle_gamma 120.000000
_cell_volume 6697.415989
_symmetry_space_group_name_H-M "P 6/M M M"
_symmetry_group_IT_number 191
_symmetry_cell_setting 'hexagonal'
loop_
_space_group_symop_operation_xyz
x,y,z
x-y,x,z
-y,x-y,z
-x,-y,z
-x+y,-x,z
y,-x+y,z
x-y,-y,-z
-x,-x+y,-z
y,x,-z
-y,-x,-z
-x+y,y,-z
x,x-y,-z
-x,-y,-z
-x+y,-x,-z
y,-x+y,-z
x,y,-z
x-y,x,-z
-y,x-y,-z
-x+y,y,z
x,x-y,z
-y,-x,z
y,x,z
x-y,-y,z
-x,-x+y,z
loop_
_atom_site_type_symbol
_atom_site_label
_atom_site_fract_x
_atom_site_fract_y
_atom_site_fract_z
Si Si1 0.639059 0.736111 0.843801
Si Si2 0.000000 0.831587 0.566374
Si Si3 0.662500 0.000000 0.566063
Si Si4 0.331544 0.837551 0.378905
Si Si5 0.666625 0.504135 0.063813
Si Si6 0.900493 0.534134 0.258286
O O1 0.676997 0.838499 0.849025
O O2 0.718038 0.718038 0.837561
O O3 0.585472 0.686573 0.898441
O O4 0.576104 0.702348 0.790811
O O5 0.915649 0.831298 0.589739
O O6 0.000000 0.833135 0.500000
O O7 0.000000 0.747209 0.588735
O O8 0.579273 0.915718 0.587123
O O9 0.661372 0.000000 0.500000
O O10 0.417100 0.834199 0.391626
O O11 0.250114 0.749887 0.400100
O O12 0.320235 0.846742 0.313195
O O13 0.738226 0.476453 0.072969
O O14 0.575384 0.424617 0.081526
O O15 0.665220 0.530729 0.000000
O O16 0.880656 0.440328 0.237935
O O17 0.000000 0.592655 0.274206
#
# Coordination Sequence:
#
# PCOD8329061 Si02
#       6
#    24  12  12  24  24  24
#     4  10  20  33  50  73 100 132 171 216 261 305
#     4   9  17  31  53  81 109 135 165 204 249 297
#     4  11  23  39  57  77 103 139 176 209 253 313
#     4  11  22  37  56  79 106 137 174 217 261 306
#     4   9  17  29  46  71 105 143 177 207 244 296
#     4   9  17  32  54  79 105 133 164 201 248 301
#
# _framework density 17.917359000000001
#
# number of rings (size 3 to 8) (size 9 to 14) (size 15 to 20)
#    0.000    2.200    1.000    2.600    0.000    4.800 
#    0.000    1.000    0.000    7.800    0.000    0.000 
#    0.000    0.000    0.000    5.000    0.000    0.000 
#
# Total GULP energy -1488167.046181 kJ/mol
# GULP energy per Si atom -12401.392052 kJ/mol
# Density = 1.787658 g / cm^3
# Si number density = 17.917359 Si / 1000 Ang^3
#
#
#
# Elastic Constant Matrix: (Units=GPa)
#
#
# Indices 1 2 3 4 5 6 
#
# 1 122.0916 72.9047 42.8669 0.0000 0.0000 0.0000
# 2 72.9047 122.0916 42.8669 0.0000 0.0000 0.0000
# 3 42.8669 42.8669 59.9180 0.0000 0.0000 0.0000
# 4 0.0000 0.0000 0.0000 22.1337 0.0000 0.0000
# 5 0.0000 0.0000 0.0000 0.0000 22.1337 0.0000
# 6 0.0000 0.0000 0.0000 0.0000 0.0000 24.5934
#
#
#
# Elastic Compliance Matrix: (Units=1/GPa)
#
#
# Indices 1 2 3 4 5 6 
#
# 1 0.013906 -0.006424 -0.005353 0.000000 0.000000 0.000000
# 2 -0.006424 0.013906 -0.005353 0.000000 0.000000 0.000000
# 3 -0.005353 -0.005353 0.024348 0.000000 0.000000 0.000000
# 4 0.000000 0.000000 0.000000 0.045180 0.000000 0.000000
# 5 0.000000 0.000000 0.000000 0.000000 0.045180 0.000000
# 6 0.000000 0.000000 0.000000 0.000000 0.000000 0.040661
#
#
# Mechanical properties :
#
#
# Convention : Reuss Voigt Hill
#
# Bulk Modulus (GPa) = 55.86202 69.04202 62.45202
# Shear Modulus (GPa) = 22.38055 23.46966 22.92510
#
# Velocity S-wave (km/s) = 3.53809 3.62316 3.58088
# Velocity P-wave (km/s) = 6.92359 7.49135 7.21306
#
# Compressibility (1/GPa) = 0.01790125
#
# Stress axis : x y z
#
# Youngs Moduli (GPa) = 71.91065 71.91065 41.07073
#
# Poissons Ratio (x) = 0.46199 0.21983
# Poissons Ratio (y) = 0.46199 0.21983
# Poissons Ratio (z) = 0.38491 0.38491
#
# Static dielectric constant tensor:
#      x y z
#    x 3.252360 0.000000 0.000000 
#    y 0.000000 3.252360 0.000000 
#    z 0.000000 0.000000 3.267570 
# 
# 
# High freq. dielectric constant tensor:
#      x y z
#    x 1.687970 0.000000 0.000000 
#    y 0.000000 1.687970 0.000000 
#    z 0.000000 0.000000 1.686590 
# 
# From -- ./inp_files/8594.got.cif
#   From: 2010.03.12/outbox.cif.g09.slc.cpg/sg191_5_cif.got.tgz:8594.got - 2010.04.01 12:09:02.
