data_PCOD8329415
_publ_section_title
;
Structure prediction by ZEFSAII (Michael W. Deem and Ramdas Pophale) SiO2 
 PCOD8329415
Probable space group: P 6/M C C
;
_chemical_formula_sum "Si O2"
_cell_formula_units_Z 120
_cell_length_a 25.137635
_cell_length_b 25.137635
_cell_length_c 14.605144
_cell_angle_alpha 90.000000
_cell_angle_beta 90.000000
_cell_angle_gamma 120.000000
_cell_volume 7992.548989
_symmetry_space_group_name_H-M "P 6/M C C"
_symmetry_group_IT_number 192
_symmetry_cell_setting 'hexagonal'
loop_
_space_group_symop_operation_xyz
x,y,z
x-y,x,z
-y,x-y,z
-x,-y,z
-x+y,-x,z
y,-x+y,z
x-y,-y,1/2-z
-x,-x+y,1/2-z
y,x,1/2-z
-y,-x,1/2-z
-x+y,y,1/2-z
x,x-y,1/2-z
-x,-y,-z
-x+y,-x,-z
y,-x+y,-z
x,y,-z
x-y,x,-z
-y,x-y,-z
-x+y,y,1/2+z
x,x-y,1/2+z
-y,-x,1/2+z
y,x,1/2+z
x-y,-y,1/2+z
-x,-x+y,1/2+z
loop_
_atom_site_type_symbol
_atom_site_label
_atom_site_fract_x
_atom_site_fract_y
_atom_site_fract_z
Si Si1 0.463717 0.927435 0.897417
Si Si2 0.744053 0.931428 0.105436
Si Si3 0.744053 0.931428 0.605436
Si Si4 0.072661 0.451496 0.750000
Si Si5 0.882195 0.642598 0.750000
O O1 0.401406 0.907479 0.840851
O O2 0.506072 0.907479 0.840851
O O3 0.500000 0.000000 0.905158
O O4 0.449083 0.898165 0.000000
O O5 0.767579 0.883790 0.130926
O O6 0.683011 0.915350 0.160767
O O7 0.798499 1.000000 0.129745
O O8 0.725222 0.926102 0.000000
O O9 0.725222 0.926102 0.500000
O O10 0.683011 0.915350 0.660767
O O11 0.111202 0.416991 0.750000
O O12 0.000000 0.403441 0.750000
O O13 0.810100 0.620200 0.750000
#
# Coordination Sequence:
#
# PCOD8329415 Si02
#       5
#    24  24  24  24  24
#     4   8  15  27  42  61  83 106 131 159 192 231
#     4   9  17  28  41  57  78 107 143 180 219 262
#     4   9  17  28  41  57  78 107 143 180 219 262
#     4   9  16  26  41  61  84 109 137 166 194 234
#     4  10  19  29  41  60  87 114 139 171 205 242
#
# _framework density 15.013983
#
# number of rings (size 3 to 8) (size 9 to 14) (size 15 to 20)
#    0.000    3.000    0.000    3.000    0.000    1.600 
#    0.000    4.000    0.000    0.400    0.000    2.800 
#    8.000    4.800    0.000    0.400    0.000    0.000 
#
# Total GULP energy -1487403.659968 kJ/mol
# GULP energy per Si atom -12395.030500 kJ/mol
# Density = 1.497981 g / cm^3
# Si number density = 15.013983 Si / 1000 Ang^3
#
#
#
# Elastic Constant Matrix: (Units=GPa)
#
#
# Indices 1 2 3 4 5 6 
#
# 1 104.9605 54.7425 46.5184 0.0000 0.0000 0.0000
# 2 54.7425 104.9605 46.5184 0.0000 0.0000 0.0000
# 3 46.5184 46.5184 106.4845 0.0000 0.0000 0.0000
# 4 0.0000 0.0000 0.0000 14.7697 0.0000 0.0000
# 5 0.0000 0.0000 0.0000 0.0000 14.7697 0.0000
# 6 0.0000 0.0000 0.0000 0.0000 0.0000 25.1090
#
#
#
# Elastic Compliance Matrix: (Units=1/GPa)
#
#
# Indices 1 2 3 4 5 6 
#
# 1 0.014156 -0.005757 -0.003669 0.000000 0.000000 0.000000
# 2 -0.005757 0.014156 -0.003669 0.000000 0.000000 0.000000
# 3 -0.003669 -0.003669 0.012597 0.000000 0.000000 0.000000
# 4 0.000000 0.000000 0.000000 0.067706 0.000000 0.000000
# 5 0.000000 0.000000 0.000000 0.000000 0.067706 0.000000
# 6 0.000000 0.000000 0.000000 0.000000 0.000000 0.039826
#
#
# Mechanical properties :
#
#
# Convention : Reuss Voigt Hill
#
# Bulk Modulus (GPa) = 67.94255 67.99602 67.96928
# Shear Modulus (GPa) = 20.22289 22.17144 21.19716
#
# Velocity S-wave (km/s) = 3.67405 3.84698 3.76151
# Velocity P-wave (km/s) = 7.95922 8.06964 8.01462
#
# Compressibility (1/GPa) = 0.01471832
#
# Stress axis : x y z
#
# Youngs Moduli (GPa) = 70.64051 70.64051 79.38468
#
# Poissons Ratio (x) = 0.40668 0.29128
# Poissons Ratio (y) = 0.40668 0.29128
# Poissons Ratio (z) = 0.25920 0.25920
#
# Static dielectric constant tensor:
#      x y z
#    x 2.722120 0.000000 0.000000 
#    y 0.000000 2.722120 0.000000 
#    z 0.000000 0.000000 3.346560 
# 
# 
# High freq. dielectric constant tensor:
#      x y z
#    x 1.548550 0.000000 0.000000 
#    y 0.000000 1.548550 0.000000 
#    z 0.000000 0.000000 1.594950 
# 
# From -- ./inp_files/3125.got.cif
#   From: 2010.03.12/outbox.cif.g09.slc.cpg/sg192_2_cif.got.tgz:3125.got - 2010.04.01 12:16:15.
