data_PCOD8329973
_publ_section_title
;
Structure prediction by ZEFSAII (Michael W. Deem and Ramdas Pophale) SiO2 
 PCOD8329973
Probable space group: P 63/M C M
;
_chemical_formula_sum "Si O2"
_cell_formula_units_Z 144
_cell_length_a 22.963932
_cell_length_b 22.963932
_cell_length_c 18.047323
_cell_angle_alpha 90.000000
_cell_angle_beta 90.000000
_cell_angle_gamma 120.000000
_cell_volume 8242.062950
_symmetry_space_group_name_H-M "P 63/M C M"
_symmetry_group_IT_number 193
_symmetry_cell_setting 'hexagonal'
loop_
_space_group_symop_operation_xyz
x,y,z
x-y,x,1/2+z
-y,x-y,z
-x,-y,1/2+z
-x+y,-x,z
y,-x+y,1/2+z
x-y,-y,1/2-z
-x,-x+y,1/2-z
y,x,1/2-z
-y,-x,-z
-x+y,y,-z
x,x-y,-z
-x,-y,-z
-x+y,-x,1/2-z
y,-x+y,-z
x,y,1/2-z
x-y,x,-z
-y,x-y,1/2-z
-x+y,y,1/2+z
x,x-y,1/2+z
-y,-x,1/2+z
y,x,z
x-y,-y,z
-x,-x+y,z
loop_
_atom_site_type_symbol
_atom_site_label
_atom_site_fract_x
_atom_site_fract_y
_atom_site_fract_z
Si Si1 0.728549 0.921340 0.538618
Si Si2 0.452642 0.000000 0.395509
Si Si3 0.458496 0.790599 0.524171
Si Si4 0.415407 0.000000 0.562454
Si Si5 0.356210 0.158283 0.166464
Si Si6 0.123085 0.720724 0.441020
Si Si7 0.480060 0.138632 0.167991
O O1 0.761023 0.880512 0.500000
O O2 0.710712 0.895962 0.623299
O O3 0.659541 0.904066 0.497687
O O4 0.782176 0.000000 0.535512
O O5 0.403193 0.933802 0.351112
O O6 0.418954 0.000000 0.473385
O O7 0.521597 0.000000 0.402703
O O8 0.409235 0.818470 0.500000
O O9 0.424964 0.712482 0.500000
O O10 0.530302 0.828434 0.484902
O O11 0.469186 0.803132 0.612165
O O12 0.411176 0.063478 0.591894
O O13 0.335594 0.165647 0.250000
O O14 0.391674 0.231002 0.127552
O O15 0.406937 0.130169 0.166562
O O16 0.512052 0.159935 0.250000
#
# Coordination Sequence:
#
# PCOD8329973 Si02
#       7
#    24  12  24  12  24  24  24
#     4  10  19  34  59  87 118 150 188 230 273 328
#     4  11  21  34  52  88 112 140 184 238 292 338
#     4  12  22  38  57  79 103 143 197 243 286 346
#     4  11  20  32  60  82 106 146 191 232 277 350
#     4  10  21  35  56  83 112 149 183 229 287 337
#     4  11  19  37  56  81 111 142 188 229 285 346
#     4  11  22  37  55  79 111 140 178 232 291 340
#
# _framework density 17.471354000000002
#
# number of rings (size 3 to 8) (size 9 to 14) (size 15 to 20)
#    0.000    1.167    5.833    1.917    1.167    0.333 
#    0.000    5.417    0.000    0.167    0.000    0.000 
#    0.000    0.000    0.000    0.500    0.000    0.000 
#
# Total GULP energy -1785600.761210 kJ/mol
# GULP energy per Si atom -12400.005286 kJ/mol
# Density = 1.743159 g / cm^3
# Si number density = 17.471354 Si / 1000 Ang^3
#
#
#
# Elastic Constant Matrix: (Units=GPa)
#
#
# Indices 1 2 3 4 5 6 
#
# 1 99.3650 47.8915 52.4974 0.0000 0.0000 0.0000
# 2 47.8915 99.3650 52.4974 0.0000 0.0000 0.0000
# 3 52.4974 52.4974 147.8925 0.0000 0.0000 0.0000
# 4 0.0000 0.0000 0.0000 17.7053 0.0000 0.0000
# 5 0.0000 0.0000 0.0000 0.0000 17.7053 0.0000
# 6 0.0000 0.0000 0.0000 0.0000 0.0000 25.7367
#
#
#
# Elastic Compliance Matrix: (Units=1/GPa)
#
#
# Indices 1 2 3 4 5 6 
#
# 1 0.014260 -0.005168 -0.003227 0.000000 0.000000 0.000000
# 2 -0.005168 0.014260 -0.003227 0.000000 0.000000 0.000000
# 3 -0.003227 -0.003227 0.009053 0.000000 0.000000 0.000000
# 4 0.000000 0.000000 0.000000 0.056480 0.000000 0.000000
# 5 0.000000 0.000000 0.000000 0.000000 0.056480 0.000000
# 6 0.000000 0.000000 0.000000 0.000000 0.000000 0.038855
#
#
# Mechanical properties :
#
#
# Convention : Reuss Voigt Hill
#
# Bulk Modulus (GPa) = 69.79639 72.48835 71.14237
# Shear Modulus (GPa) = 22.99818 25.14523 24.07171
#
# Velocity S-wave (km/s) = 3.63207 3.79783 3.71587
# Velocity P-wave (km/s) = 7.59111 7.79816 7.69533
#
# Compressibility (1/GPa) = 0.01432739
#
# Stress axis : x y z
#
# Youngs Moduli (GPa) = 70.12747 70.12747 110.46155
#
# Poissons Ratio (x) = 0.36240 0.35650
# Poissons Ratio (y) = 0.36240 0.35650
# Poissons Ratio (z) = 0.22633 0.22633
#
# Static dielectric constant tensor:
#      x y z
#    x 3.363510 0.000000 0.000000 
#    y 0.000000 3.363510 0.000000 
#    z 0.000000 0.000000 3.421190 
# 
# 
# High freq. dielectric constant tensor:
#      x y z
#    x 1.666190 0.000000 0.000000 
#    y 0.000000 1.666190 0.000000 
#    z 0.000000 0.000000 1.669960 
# 
# From -- ./inp_files/5616.got.cif
#   From: 2010.03.12/outbox.cif.g09.slc.cpg/sg193_3_cif.got.tgz:5616.got - 2010.04.01 12:20:39.
