data_PCOD8329826
_publ_section_title
;
Structure prediction by ZEFSAII (Michael W. Deem and Ramdas Pophale) SiO2 
 PCOD8329826
Probable space group: P 63/M C M
;
_chemical_formula_sum "Si O2"
_cell_formula_units_Z 168
_cell_length_a 25.619654
_cell_length_b 25.619654
_cell_length_c 18.529758
_cell_angle_alpha 90.000000
_cell_angle_beta 90.000000
_cell_angle_gamma 120.000000
_cell_volume 10532.874256
_symmetry_space_group_name_H-M "P 63/M C M"
_symmetry_group_IT_number 193
_symmetry_cell_setting 'hexagonal'
loop_
_space_group_symop_operation_xyz
x,y,z
x-y,x,1/2+z
-y,x-y,z
-x,-y,1/2+z
-x+y,-x,z
y,-x+y,1/2+z
x-y,-y,1/2-z
-x,-x+y,1/2-z
y,x,1/2-z
-y,-x,-z
-x+y,y,-z
x,x-y,-z
-x,-y,-z
-x+y,-x,1/2-z
y,-x+y,-z
x,y,1/2-z
x-y,x,-z
-y,x-y,1/2-z
-x+y,y,1/2+z
x,x-y,1/2+z
-y,-x,1/2+z
y,x,z
x-y,-y,z
-x,-x+y,z
loop_
_atom_site_type_symbol
_atom_site_label
_atom_site_fract_x
_atom_site_fract_y
_atom_site_fract_z
Si Si1 0.841383 0.197544 0.664895
Si Si2 0.689907 0.619404 0.577336
Si Si3 0.162863 0.637454 0.916236
Si Si4 0.641464 0.484035 0.916875
Si Si5 0.492946 0.244907 0.165514
Si Si6 0.670837 0.604878 0.417607
Si Si7 0.707441 0.934980 0.834708
O O1 0.855395 0.207079 0.750000
O O2 0.899106 0.247911 0.622321
O O3 0.783341 0.204858 0.646342
O O4 0.828031 0.130245 0.639450
O O5 0.654746 0.654746 0.596086
O O6 0.646525 0.548831 0.597189
O O7 0.708126 0.622936 0.493134
O O8 0.145965 0.570016 0.895265
O O9 0.218227 0.686410 0.869605
O O10 0.105304 0.642006 0.893807
O O11 0.178449 0.653669 0.000125
O O12 0.688768 0.478847 0.866444
O O13 0.503862 0.249976 0.250000
O O14 0.614039 0.614039 0.429929
O O15 0.712570 0.645910 0.353558
O O16 0.714215 0.936730 0.750000
O O17 0.763756 0.000000 0.865265
#
# Coordination Sequence:
#
# PCOD8329826 Si02
#       7
#    24  24  24  24  24  24  24
#     4   9  17  29  46  67  87 115 150 179 216 265
#     4   9  18  31  46  66  93 121 150 183 217 262
#     4  10  18  32  50  65  85 114 144 180 230 279
#     4   9  20  33  47  66  87 113 146 182 226 280
#     4  10  19  32  48  65  84 107 142 185 227 273
#     4   9  17  28  45  70  92 111 143 181 219 267
#     4   9  16  27  43  65  92 115 139 178 222 260
#
# _framework density 15.950063
#
# number of rings (size 3 to 8) (size 9 to 14) (size 15 to 20)
#    0.000    2.714    1.429    0.429    0.000    2.000 
#    0.857    2.857    0.000    0.000    0.000    4.000 
#    0.000    0.000    0.000    0.429    0.000    5.571 
#
# Total GULP energy -2081408.993771 kJ/mol
# GULP energy per Si atom -12389.339249 kJ/mol
# Density = 1.591376 g / cm^3
# Si number density = 15.950063 Si / 1000 Ang^3
#
#
#
# Elastic Constant Matrix: (Units=GPa)
#
#
# Indices 1 2 3 4 5 6 
#
# 1 88.6531 47.3848 22.9019 0.0000 0.0000 0.0000
# 2 47.3848 88.6531 22.9019 0.0000 0.0000 0.0000
# 3 22.9019 22.9019 18.1204 0.0000 0.0000 0.0000
# 4 0.0000 0.0000 0.0000 18.2329 0.0000 0.0000
# 5 0.0000 0.0000 0.0000 0.0000 18.2329 0.0000
# 6 0.0000 0.0000 0.0000 0.0000 0.0000 20.6341
#
#
#
# Elastic Compliance Matrix: (Units=1/GPa)
#
#
# Indices 1 2 3 4 5 6 
#
# 1 0.018514 -0.005718 -0.016173 0.000000 0.000000 0.000000
# 2 -0.005718 0.018514 -0.016173 0.000000 0.000000 0.000000
# 3 -0.016173 -0.016173 0.096068 0.000000 0.000000 0.000000
# 4 0.000000 0.000000 0.000000 0.054846 0.000000 0.000000
# 5 0.000000 0.000000 0.000000 0.000000 0.054846 0.000000
# 6 0.000000 0.000000 0.000000 0.000000 0.000000 0.048463
#
#
# Mechanical properties :
#
#
# Convention : Reuss Voigt Hill
#
# Bulk Modulus (GPa) = 17.55360 42.42266 29.98813
# Shear Modulus (GPa) = 12.94106 18.23586 15.58846
#
# Velocity S-wave (km/s) = 2.85151 3.38495 3.12962
# Velocity P-wave (km/s) = 4.67661 6.47550 5.64813
#
# Compressibility (1/GPa) = 0.05696837
#
# Stress axis : x y z
#
# Youngs Moduli (GPa) = 54.01316 54.01316 10.40935
#
# Poissons Ratio (x) = 0.30883 0.16835
# Poissons Ratio (y) = 0.30883 0.16835
# Poissons Ratio (z) = 0.87355 0.87355
#
# Static dielectric constant tensor:
#      x y z
#    x 3.075540 0.000000 0.000000 
#    y 0.000000 3.075540 0.000000 
#    z 0.000000 0.000000 3.026230 
# 
# 
# High freq. dielectric constant tensor:
#      x y z
#    x 1.594450 0.000000 0.000000 
#    y 0.000000 1.594450 0.000000 
#    z 0.000000 0.000000 1.611310 
# 
# From -- ./inp_files/6851.got.cif
#   From: 2010.03.12/outbox.cif.g09.slc.cpg/sg193_4_cif.got.tgz:6851.got - 2010.04.01 12:20:39.
