data_PCOD8329732
_publ_section_title
;
Structure prediction by ZEFSAII (Michael W. Deem and Ramdas Pophale) SiO2 
 PCOD8329732
Probable space group: P 6/M C C
;
_chemical_formula_sum "Si O2"
_cell_formula_units_Z 74
_cell_length_a 17.313388
_cell_length_b 17.313388
_cell_length_c 13.491744
_cell_angle_alpha 90.000000
_cell_angle_beta 90.000000
_cell_angle_gamma 120.000000
_cell_volume 3502.376639
_symmetry_space_group_name_H-M "P 6/M C C"
_symmetry_group_IT_number 192
_symmetry_cell_setting 'hexagonal'
loop_
_space_group_symop_operation_xyz
x,y,z
x-y,x,z
-y,x-y,z
-x,-y,z
-x+y,-x,z
y,-x+y,z
x-y,-y,1/2-z
-x,-x+y,1/2-z
y,x,1/2-z
-y,-x,1/2-z
-x+y,y,1/2-z
x,x-y,1/2-z
-x,-y,-z
-x+y,-x,-z
y,-x+y,-z
x,y,-z
x-y,x,-z
-y,x-y,-z
-x+y,y,1/2+z
x,x-y,1/2+z
-y,-x,1/2+z
y,x,1/2+z
x-y,-y,1/2+z
-x,-x+y,1/2+z
loop_
_atom_site_type_symbol
_atom_site_label
_atom_site_fract_x
_atom_site_fract_y
_atom_site_fract_z
Si Si1 0.349660 0.498323 0.382524
Si Si2 0.500000 0.000000 0.250000
Si Si3 0.082792 0.770894 0.312835
Si Si4 0.031270 0.193487 0.000000
Si Si5 0.333334 0.666667 0.616311
O O1 0.368557 0.504206 0.500000
O O2 0.421639 0.484206 0.324123
O O3 0.257299 0.410343 0.354076
O O4 0.345343 0.584989 0.345205
O O5 0.138948 0.861053 0.250000
O O6 0.035639 0.787247 0.404277
O O7 0.000000 0.694056 0.250000
O O8 0.104879 0.166038 0.000000
O O9 0.333334 0.666668 0.500000
#
# Coordination Sequence:
#
# PCOD8329732 Si02
#       5
#    24   6  24  12   8
#     4  11  25  46  69 102 140 187 237 290 349 419
#     4  12  26  40  68 102 140 180 236 292 348 410
#     4  12  25  43  68 101 139 180 236 293 354 422
#     4  12  25  46  72 101 139 183 233 294 357 438
#     4   9  24  46  68 100 145 185 229 283 353 421
#
# _framework density 21.128509999999999
#
# number of rings (size 3 to 8) (size 9 to 14) (size 15 to 20)
#    0.000    0.649    6.486    0.649    4.541    0.000 
#    0.000    0.000    0.000    0.000    0.000    0.000 
#    0.000    0.000    0.000    0.000    0.000    0.000 
#
# Total GULP energy -917457.410927 kJ/mol
# GULP energy per Si atom -12398.073121 kJ/mol
# Density = 2.108042 g / cm^3
# Si number density = 21.128510 Si / 1000 Ang^3
#
#
#
# Elastic Constant Matrix: (Units=GPa)
#
#
# Indices 1 2 3 4 5 6 
#
# 1 147.0554 46.3667 49.8672 0.0000 0.0000 0.0000
# 2 46.3667 147.0559 49.8673 0.0000 0.0000 0.0001
# 3 49.8672 49.8673 137.2699 0.0000 0.0000 0.0000
# 4 0.0000 0.0000 0.0000 39.7192 0.0000 0.0000
# 5 0.0000 0.0000 0.0000 0.0000 39.7193 0.0000
# 6 0.0000 0.0001 0.0000 0.0000 0.0000 50.3446
#
#
#
# Elastic Compliance Matrix: (Units=1/GPa)
#
#
# Indices 1 2 3 4 5 6 
#
# 1 0.008147 -0.001785 -0.002311 0.000000 0.000000 0.000000
# 2 -0.001785 0.008147 -0.002311 0.000000 0.000000 0.000000
# 3 -0.002311 -0.002311 0.008964 0.000000 0.000000 0.000000
# 4 0.000000 0.000000 0.000000 0.025177 0.000000 0.000000
# 5 0.000000 0.000000 0.000000 0.000000 0.025177 0.000000
# 6 0.000000 0.000000 0.000000 0.000000 0.000000 0.019863
#
#
# Mechanical properties :
#
#
# Convention : Reuss Voigt Hill
#
# Bulk Modulus (GPa) = 80.36551 80.39821 80.38186
# Shear Modulus (GPa) = 44.46986 44.97529 44.72258
#
# Velocity S-wave (km/s) = 4.59271 4.61874 4.60574
# Velocity P-wave (km/s) = 8.13899 8.15955 8.14928
#
# Compressibility (1/GPa) = 0.01244315
#
# Stress axis : x y z
#
# Youngs Moduli (GPa) = 122.74988 122.75032 111.55682
#
# Poissons Ratio (x) = 0.21910 0.25782
# Poissons Ratio (y) = 0.21910 0.25782
# Poissons Ratio (z) = 0.28368 0.28368
#
# Static dielectric constant tensor:
#      x y z
#    x 3.844300 0.000000 0.000000 
#    y 0.000000 3.844300 0.000000 
#    z 0.000000 0.000000 3.991540 
# 
# 
# High freq. dielectric constant tensor:
#      x y z
#    x 1.832140 0.000000 0.000000 
#    y 0.000000 1.832140 0.000000 
#    z 0.000000 0.000000 1.850870 
# 
# From -- ./inp_files/2515.got.cif
#   From: 2010.03.12/outbox.cif.g09.slc.cpg/sg192_2_cif.got.tgz:2515.got - 2010.04.01 12:16:15.
