data_PCOD8329234
_publ_section_title
;
Structure prediction by ZEFSAII (Michael W. Deem and Ramdas Pophale) SiO2 
 PCOD8329234
Probable space group: P 6/M M M
;
_chemical_formula_sum "Si O2"
_cell_formula_units_Z 144
_cell_length_a 31.028890
_cell_length_b 31.028890
_cell_length_c 9.353822
_cell_angle_alpha 90.000000
_cell_angle_beta 90.000000
_cell_angle_gamma 120.000000
_cell_volume 7799.238702
_symmetry_space_group_name_H-M "P 6/M M M"
_symmetry_group_IT_number 191
_symmetry_cell_setting 'hexagonal'
loop_
_space_group_symop_operation_xyz
x,y,z
x-y,x,z
-y,x-y,z
-x,-y,z
-x+y,-x,z
y,-x+y,z
x-y,-y,-z
-x,-x+y,-z
y,x,-z
-y,-x,-z
-x+y,y,-z
x,x-y,-z
-x,-y,-z
-x+y,-x,-z
y,-x+y,-z
x,y,-z
x-y,x,-z
-y,x-y,-z
-x+y,y,z
x,x-y,z
-y,-x,z
y,x,z
x-y,-y,z
-x,-x+y,z
loop_
_atom_site_type_symbol
_atom_site_label
_atom_site_fract_x
_atom_site_fract_y
_atom_site_fract_z
Si Si1 0.432077 0.765214 0.664307
Si Si2 0.855979 0.614426 0.835069
Si Si3 0.942938 0.421415 0.335514
Si Si4 0.943319 0.697822 0.333534
Si Si5 0.145268 0.660079 0.165674
Si Si6 0.796405 0.945646 0.329734
O O1 0.448800 0.778917 0.500000
O O2 0.374744 0.749488 0.683622
O O3 0.438212 0.719106 0.715526
O O4 0.465164 0.813057 0.759965
O O5 0.810700 0.621400 0.777785
O O6 0.906349 0.648341 0.749732
O O7 0.840428 0.557356 0.812204
O O8 0.866630 0.629596 0.000000
O O9 0.932100 0.404158 0.500000
O O10 0.931466 0.465733 0.308529
O O11 0.908429 0.375565 0.234470
O O12 0.000000 0.439343 0.297104
O O13 0.930898 0.688049 0.500000
O O14 0.935131 0.742552 0.278754
O O15 0.000000 0.711601 0.303359
O O16 0.142825 0.646202 0.000000
O O17 0.796954 0.945028 0.500000
O O18 0.806922 0.903461 0.265715
O O19 0.838927 0.000000 0.274413
#
# Coordination Sequence:
#
# PCOD8329234 Si02
#       6
#    24  24  24  24  24  24
#     4  10  21  38  60  84 109 137 171 212 258 307
#     4  10  22  38  52  69 100 140 174 204 245 299
#     4   9  19  37  59  81 106 137 174 217 263 308
#     4   9  18  32  51  75  98 122 161 212 258 301
#     4  11  23  37  54  78 109 142 175 212 254 305
#     4   8  13  22  38  61  88 117 151 194 242 287
#
# _framework density 18.463339999999999
#
# number of rings (size 3 to 8) (size 9 to 14) (size 15 to 20)
#    0.000    2.500    0.000    3.667    0.000    8.000 
#    0.000    4.167    0.000    1.167    0.000    1.167 
#    0.000    0.000    0.000    0.000    0.000    0.000 
#
# Total GULP energy -1785698.913391 kJ/mol
# GULP energy per Si atom -12400.686899 kJ/mol
# Density = 1.842132 g / cm^3
# Si number density = 18.463340 Si / 1000 Ang^3
#
#
#
# Elastic Constant Matrix: (Units=GPa)
#
#
# Indices 1 2 3 4 5 6 
#
# 1 92.5033 31.0196 44.5184 0.0000 0.0000 0.0000
# 2 31.0196 92.5033 44.5184 0.0000 0.0000 0.0000
# 3 44.5184 44.5184 70.8705 0.0000 0.0000 0.0000
# 4 0.0000 0.0000 0.0000 20.9005 0.0000 0.0000
# 5 0.0000 0.0000 0.0000 0.0000 20.9005 0.0000
# 6 0.0000 0.0000 0.0000 0.0000 0.0000 30.7418
#
#
#
# Elastic Compliance Matrix: (Units=1/GPa)
#
#
# Indices 1 2 3 4 5 6 
#
# 1 0.015529 -0.000735 -0.009293 0.000000 0.000000 0.000000
# 2 -0.000735 0.015529 -0.009293 0.000000 0.000000 0.000000
# 3 -0.009293 -0.009293 0.025786 0.000000 0.000000 0.000000
# 4 0.000000 0.000000 0.000000 0.047846 0.000000 0.000000
# 5 0.000000 0.000000 0.000000 0.000000 0.047846 0.000000
# 6 0.000000 0.000000 0.000000 0.000000 0.000000 0.032529
#
#
# Mechanical properties :
#
#
# Convention : Reuss Voigt Hill
#
# Bulk Modulus (GPa) = 54.94136 55.10999 55.02568
# Shear Modulus (GPa) = 21.76034 23.56326 22.66180
#
# Velocity S-wave (km/s) = 3.43676 3.57630 3.50722
# Velocity P-wave (km/s) = 6.75055 6.85320 6.80207
#
# Compressibility (1/GPa) = 0.01820122
#
# Stress axis : x y z
#
# Youngs Moduli (GPa) = 64.39376 64.39376 38.78105
#
# Poissons Ratio (x) = 0.04733 0.36041
# Poissons Ratio (y) = 0.04733 0.36041
# Poissons Ratio (z) = 0.59843 0.59843
#
# Static dielectric constant tensor:
#      x y z
#    x 3.446330 0.000000 0.000000 
#    y 0.000000 3.446330 0.000000 
#    z 0.000000 0.000000 3.158230 
# 
# 
# High freq. dielectric constant tensor:
#      x y z
#    x 1.719700 0.000000 0.000000 
#    y 0.000000 1.719700 0.000000 
#    z 0.000000 0.000000 1.691780 
# 
# From -- ./inp_files/1961.got.cif
#   From: 2010.03.12/outbox.cif.g09.slc.cpg/sg191_1_cif.got.tgz:1961.got - 2010.04.01 12:09:02.
