data_PCOD8329765
_publ_section_title
;
Structure prediction by ZEFSAII (Michael W. Deem and Ramdas Pophale) SiO2 
 PCOD8329765
Probable space group: P 63/M C M
;
_chemical_formula_sum "Si O2"
_cell_formula_units_Z 132
_cell_length_a 17.956100
_cell_length_b 17.956100
_cell_length_c 23.270041
_cell_angle_alpha 90.000000
_cell_angle_beta 90.000000
_cell_angle_gamma 120.000000
_cell_volume 6497.582627
_symmetry_space_group_name_H-M "P 63/M C M"
_symmetry_group_IT_number 193
_symmetry_cell_setting 'hexagonal'
loop_
_space_group_symop_operation_xyz
x,y,z
x-y,x,1/2+z
-y,x-y,z
-x,-y,1/2+z
-x+y,-x,z
y,-x+y,1/2+z
x-y,-y,1/2-z
-x,-x+y,1/2-z
y,x,1/2-z
-y,-x,-z
-x+y,y,-z
x,x-y,-z
-x,-y,-z
-x+y,-x,1/2-z
y,-x+y,-z
x,y,1/2-z
x-y,x,-z
-y,x-y,1/2-z
-x+y,y,1/2+z
x,x-y,1/2+z
-y,-x,1/2+z
y,x,z
x-y,-y,z
-x,-x+y,z
loop_
_atom_site_type_symbol
_atom_site_label
_atom_site_fract_x
_atom_site_fract_y
_atom_site_fract_z
Si Si1 0.098495 0.901505 0.123136
Si Si2 0.416532 0.095222 1.000000
Si Si3 0.465382 0.100818 0.378310
Si Si4 0.190215 0.380430 0.316658
Si Si5 0.534618 0.635436 0.878310
Si Si6 0.266109 0.133055 0.000000
O O1 0.146202 0.853798 0.148285
O O2 0.101808 0.898193 0.054432
O O3 0.000000 0.854208 0.144468
O O4 0.145792 0.000000 0.144469
O O5 0.468578 0.140939 0.941813
O O6 0.325064 0.089749 1.000000
O O7 0.403479 0.000000 1.000000
O O8 0.468578 0.140939 0.058187
O O9 0.436680 0.146001 0.331292
O O10 0.559382 0.118765 0.361159
O O11 0.395775 0.000000 0.378336
O O12 0.178892 0.357784 0.250000
O O13 0.290679 0.436680 0.331292
O O14 0.604225 0.604225 0.878336
#
# Coordination Sequence:
#
# PCOD8329765 Si02
#       6
#    24  24  24  24  24  12
#     4  12  25  42  64  94 132 174 222 275 332 389
#     4  10  17  32  60  95 124 150 189 242 311 382
#     4  10  21  39  65  95 124 156 198 250 312 381
#     4  12  26  43  63  89 124 170 221 270 317 372
#     4  10  21  39  65  95 124 156 198 250 312 381
#     4  12  20  34  65  96 128 168 206 254 327 402
#
# _framework density 20.315248
#
# number of rings (size 3 to 8) (size 9 to 14) (size 15 to 20)
#    0.000    1.091    3.636    3.455    0.000    5.818 
#    1.091    2.727    0.000    1.091    0.000    0.000 
#    0.000    0.000    0.000    0.000    0.000    0.000 
#
# Total GULP energy -1637084.804013 kJ/mol
# GULP energy per Si atom -12402.157606 kJ/mol
# Density = 2.026901 g / cm^3
# Si number density = 20.315248 Si / 1000 Ang^3
#
#
#
# Elastic Constant Matrix: (Units=GPa)
#
#
# Indices 1 2 3 4 5 6 
#
# 1 109.1118 46.5423 23.5723 0.0000 0.0000 0.0000
# 2 46.5423 109.1118 23.5723 0.0000 0.0000 0.0000
# 3 23.5723 23.5723 98.2046 0.0000 0.0000 0.0000
# 4 0.0000 0.0000 0.0000 8.7819 0.0000 0.0000
# 5 0.0000 0.0000 0.0000 0.0000 8.7819 0.0000
# 6 0.0000 0.0000 0.0000 0.0000 0.0000 31.2847
#
#
#
# Elastic Compliance Matrix: (Units=1/GPa)
#
#
# Indices 1 2 3 4 5 6 
#
# 1 0.011455 -0.004527 -0.001663 0.000000 0.000000 0.000000
# 2 -0.004527 0.011455 -0.001663 0.000000 0.000000 0.000000
# 3 -0.001663 -0.001663 0.010981 0.000000 0.000000 0.000000
# 4 0.000000 0.000000 0.000000 0.113871 0.000000 0.000000
# 5 0.000000 0.000000 0.000000 0.000000 0.113871 0.000000
# 6 0.000000 0.000000 0.000000 0.000000 0.000000 0.031964
#
#
# Mechanical properties :
#
#
# Convention : Reuss Voigt Hill
#
# Bulk Modulus (GPa) = 54.98864 55.97802 55.48333
# Shear Modulus (GPa) = 15.85464 24.61912 20.23688
#
# Velocity S-wave (km/s) = 2.79665 3.48495 3.15960
# Velocity P-wave (km/s) = 6.12819 6.61873 6.37818
#
# Compressibility (1/GPa) = 0.01818558
#
# Stress axis : x y z
#
# Youngs Moduli (GPa) = 87.29649 87.29649 91.06503
#
# Poissons Ratio (x) = 0.39519 0.15144
# Poissons Ratio (y) = 0.39519 0.15144
# Poissons Ratio (z) = 0.14517 0.14517
#
# Static dielectric constant tensor:
#      x y z
#    x 3.668270 0.000000 0.000000 
#    y 0.000000 3.668270 0.000000 
#    z 0.000000 0.000000 3.610650 
# 
# 
# High freq. dielectric constant tensor:
#      x y z
#    x 1.789120 0.000000 0.000000 
#    y 0.000000 1.789120 0.000000 
#    z 0.000000 0.000000 1.782730 
# 
# From -- ./inp_files/7455.got.cif
#   From: 2010.03.12/outbox.cif.g09.slc.cpg/sg193_4_cif.got.tgz:7455.got - 2010.04.01 12:20:39.
