data_PCOD8329977
_publ_section_title
;
Structure prediction by ZEFSAII (Michael W. Deem and Ramdas Pophale) SiO2 
 PCOD8329977
Probable space group: P 63/M C M
;
_chemical_formula_sum "Si O2"
_cell_formula_units_Z 72
_cell_length_a 22.793758
_cell_length_b 22.793758
_cell_length_c 8.509007
_cell_angle_alpha 90.000000
_cell_angle_beta 90.000000
_cell_angle_gamma 120.000000
_cell_volume 3828.612199
_symmetry_space_group_name_H-M "P 63/M C M"
_symmetry_group_IT_number 193
_symmetry_cell_setting 'hexagonal'
loop_
_space_group_symop_operation_xyz
x,y,z
x-y,x,1/2+z
-y,x-y,z
-x,-y,1/2+z
-x+y,-x,z
y,-x+y,1/2+z
x-y,-y,1/2-z
-x,-x+y,1/2-z
y,x,1/2-z
-y,-x,-z
-x+y,y,-z
x,x-y,-z
-x,-y,-z
-x+y,-x,1/2-z
y,-x+y,-z
x,y,1/2-z
x-y,x,-z
-y,x-y,1/2-z
-x+y,y,1/2+z
x,x-y,1/2+z
-y,-x,1/2+z
y,x,z
x-y,-y,z
-x,-x+y,z
loop_
_atom_site_type_symbol
_atom_site_label
_atom_site_fract_x
_atom_site_fract_y
_atom_site_fract_z
Si Si1 0.538505 0.204429 0.435622
Si Si2 0.000000 0.131433 0.936915
Si Si3 0.265056 0.000000 0.563734
Si Si4 0.866091 0.603980 0.436659
O O1 0.593574 0.187147 0.500000
O O2 0.552782 0.276391 0.500000
O O3 0.541604 0.208479 0.250000
O O4 0.465695 0.143858 0.491593
O O5 0.000000 0.198436 0.000882
O O6 0.000000 0.129005 0.750000
O O7 0.933811 0.066190 0.000000
O O8 0.269101 0.935717 0.501846
O O9 0.262335 0.000000 0.750000
O O10 0.809144 0.618287 0.500000
O O11 0.862351 0.597726 0.250000
#
# Coordination Sequence:
#
# PCOD8329977 Si02
#       4
#    24  12  12  24
#     4  11  21  35  54  80 109 141 176 218 265 316
#     4  11  22  38  57  82 111 144 179 221 270 321
#     4   9  20  36  57  80 107 140 180 221 264 313
#     4  10  19  35  55  79 107 139 175 219 265 314
#
# _framework density 18.805771
#
# number of rings (size 3 to 8) (size 9 to 14) (size 15 to 20)
#    0.000    1.667    0.000    8.000    0.000    0.000 
#    0.000    9.167    0.000    0.000    0.000    0.000 
#    0.000    0.000    0.000    0.000    0.000    0.000 
#
# Total GULP energy -892926.818367 kJ/mol
# GULP energy per Si atom -12401.761366 kJ/mol
# Density = 1.876297 g / cm^3
# Si number density = 18.805771 Si / 1000 Ang^3
#
#
#
# Elastic Constant Matrix: (Units=GPa)
#
#
# Indices 1 2 3 4 5 6 
#
# 1 193.4543 89.3620 50.6002 0.0000 0.0000 0.0000
# 2 89.3620 193.4543 50.6002 0.0000 0.0000 0.0000
# 3 50.6002 50.6002 123.4913 0.0000 0.0000 0.0000
# 4 0.0000 0.0000 0.0000 23.8229 0.0000 0.0000
# 5 0.0000 0.0000 0.0000 0.0000 23.8229 0.0000
# 6 0.0000 0.0000 0.0000 0.0000 0.0000 52.0461
#
#
#
# Elastic Compliance Matrix: (Units=1/GPa)
#
#
# Indices 1 2 3 4 5 6 
#
# 1 0.006875 -0.002732 -0.001698 0.000000 0.000000 0.000000
# 2 -0.002732 0.006875 -0.001698 0.000000 0.000000 0.000000
# 3 -0.001698 -0.001698 0.009489 0.000000 0.000000 0.000000
# 4 0.000000 0.000000 0.000000 0.041976 0.000000 0.000000
# 5 0.000000 0.000000 0.000000 0.000000 0.041976 0.000000
# 6 0.000000 0.000000 0.000000 0.000000 0.000000 0.019214
#
#
# Mechanical properties :
#
#
# Convention : Reuss Voigt Hill
#
# Bulk Modulus (GPa) = 91.03472 99.05831 95.04651
# Shear Modulus (GPa) = 35.13166 41.26089 38.19628
#
# Velocity S-wave (km/s) = 4.32688 4.68916 4.51165
# Velocity P-wave (km/s) = 8.57178 9.06126 8.81992
#
# Compressibility (1/GPa) = 0.01098482
#
# Stress axis : x y z
#
# Youngs Moduli (GPa) = 145.45215 145.45215 105.38502
#
# Poissons Ratio (x) = 0.39734 0.17892
# Poissons Ratio (y) = 0.39734 0.17892
# Poissons Ratio (z) = 0.24694 0.24694
#
# Static dielectric constant tensor:
#      x y z
#    x 3.504020 0.000000 0.000000 
#    y 0.000000 3.504020 0.000000 
#    z 0.000000 0.000000 3.480340 
# 
# 
# High freq. dielectric constant tensor:
#      x y z
#    x 1.735130 0.000000 0.000000 
#    y 0.000000 1.735130 0.000000 
#    z 0.000000 0.000000 1.736550 
# 
# From -- ./inp_files/799.got.cif
#   From: 2010.03.12/outbox.cif.g09.slc.cpg/sg193_1_cif.got.tgz:799.got - 2010.04.01 12:20:39.
