data_PCOD8329951
_publ_section_title
;
Structure prediction by ZEFSAII (Michael W. Deem and Ramdas Pophale) SiO2 
 PCOD8329951
Probable space group: P 63/M C M
;
_chemical_formula_sum "Si O2"
_cell_formula_units_Z 108
_cell_length_a 27.742394
_cell_length_b 27.742394
_cell_length_c 9.900741
_cell_angle_alpha 90.000000
_cell_angle_beta 90.000000
_cell_angle_gamma 120.000000
_cell_volume 6599.122678
_symmetry_space_group_name_H-M "P 63/M C M"
_symmetry_group_IT_number 193
_symmetry_cell_setting 'hexagonal'
loop_
_space_group_symop_operation_xyz
x,y,z
x-y,x,1/2+z
-y,x-y,z
-x,-y,1/2+z
-x+y,-x,z
y,-x+y,1/2+z
x-y,-y,1/2-z
-x,-x+y,1/2-z
y,x,1/2-z
-y,-x,-z
-x+y,y,-z
x,x-y,-z
-x,-y,-z
-x+y,-x,1/2-z
y,-x+y,-z
x,y,1/2-z
x-y,x,-z
-y,x-y,1/2-z
-x+y,y,1/2+z
x,x-y,1/2+z
-y,-x,1/2+z
y,x,z
x-y,-y,z
-x,-x+y,z
loop_
_atom_site_type_symbol
_atom_site_label
_atom_site_fract_x
_atom_site_fract_y
_atom_site_fract_z
Si Si1 0.616562 0.263514 0.750000
Si Si2 0.158379 0.408528 0.903546
Si Si3 0.511806 0.107700 0.399151
Si Si4 0.676544 0.613094 0.095958
Si Si5 0.320328 0.532063 0.464022
O O1 0.683110 0.288475 0.750000
O O2 0.586004 0.223413 0.876533
O O3 0.152938 0.384291 0.750000
O O4 0.179854 0.473854 0.883666
O O5 0.199738 0.399476 0.000000
O O6 0.099700 0.377432 0.983044
O O7 0.545075 0.090149 0.500000
O O8 0.528629 0.099560 0.250000
O O9 0.446518 0.067862 0.425626
O O10 0.527472 0.172313 0.412260
O O11 0.698936 0.615804 0.250000
O O12 0.660917 0.660917 0.074175
O O13 0.272186 0.544371 0.500000
#
# Coordination Sequence:
#
# PCOD8329951 Si02
#       5
#    12  24  24  24  24
#     4  10  24  34  46  60  81 106 144 180 230 270
#     4  10  19  33  53  76  98 123 155 184 223 269
#     4  10  23  35  51  68  84 110 141 177 224 281
#     4   9  19  37  55  73  96 120 147 185 233 276
#     4  10  22  33  49  62  84 112 142 182 224 277
#
# _framework density 16.365811999999998
#
# number of rings (size 3 to 8) (size 9 to 14) (size 15 to 20)
#    0.222    2.000    1.111    0.667    6.222    4.444 
#    0.000    0.000    0.000    0.000    0.000    0.000 
#    0.000    0.000    0.000    0.000    0.000    0.000 
#
# Total GULP energy -1338143.284530 kJ/mol
# GULP energy per Si atom -12390.215597 kJ/mol
# Density = 1.632856 g / cm^3
# Si number density = 16.365812 Si / 1000 Ang^3
#
#
#
# Elastic Constant Matrix: (Units=GPa)
#
#
# Indices 1 2 3 4 5 6 
#
# 1 47.3077 18.0218 36.9287 0.0000 0.0000 0.0000
# 2 18.0218 47.3077 36.9287 0.0000 0.0000 0.0000
# 3 36.9287 36.9287 130.1287 0.0000 0.0000 0.0000
# 4 0.0000 0.0000 0.0000 13.5533 0.0000 0.0000
# 5 0.0000 0.0000 0.0000 0.0000 13.5533 0.0000
# 6 0.0000 0.0000 0.0000 0.0000 0.0000 14.6430
#
#
#
# Elastic Compliance Matrix: (Units=1/GPa)
#
#
# Indices 1 2 3 4 5 6 
#
# 1 0.028342 -0.005804 -0.006396 0.000000 0.000000 0.000000
# 2 -0.005804 0.028342 -0.006396 0.000000 0.000000 0.000000
# 3 -0.006396 -0.006396 0.011315 0.000000 0.000000 0.000000
# 4 0.000000 0.000000 0.000000 0.073783 0.000000 0.000000
# 5 0.000000 0.000000 0.000000 0.000000 0.073783 0.000000
# 6 0.000000 0.000000 0.000000 0.000000 0.000000 0.068292
#
#
# Mechanical properties :
#
#
# Convention : Reuss Voigt Hill
#
# Bulk Modulus (GPa) = 32.46035 45.38915 38.92475
# Shear Modulus (GPa) = 15.09130 17.20760 16.14945
#
# Velocity S-wave (km/s) = 3.03994 3.24610 3.14471
# Velocity P-wave (km/s) = 5.67441 6.46869 6.08452
#
# Compressibility (1/GPa) = 0.03080682
#
# Stress axis : x y z
#
# Youngs Moduli (GPa) = 35.28340 35.28340 88.37954
#
# Poissons Ratio (x) = 0.20479 0.56527
# Poissons Ratio (y) = 0.20479 0.56527
# Poissons Ratio (z) = 0.22567 0.22567
#
# Static dielectric constant tensor:
#      x y z
#    x 2.785260 0.000000 0.000000 
#    y 0.000000 2.785260 0.000000 
#    z 0.000000 0.000000 3.294120 
# 
# 
# High freq. dielectric constant tensor:
#      x y z
#    x 1.588040 0.000000 0.000000 
#    y 0.000000 1.588040 0.000000 
#    z 0.000000 0.000000 1.644830 
# 
# From -- ./inp_files/1325.got.cif
#   From: 2010.03.12/outbox.cif.g09.slc.cpg/sg193_1_cif.got.tgz:1325.got - 2010.04.01 12:20:39.
