data_PCOD8329210
_publ_section_title
;
Structure prediction by ZEFSAII (Michael W. Deem and Ramdas Pophale) SiO2 
 PCOD8329210
Probable space group: P 6/M M M
;
_chemical_formula_sum "Si O2"
_cell_formula_units_Z 138
_cell_length_a 30.596372
_cell_length_b 30.596372
_cell_length_c 9.121260
_cell_angle_alpha 90.000000
_cell_angle_beta 90.000000
_cell_angle_gamma 120.000000
_cell_volume 7394.781265
_symmetry_space_group_name_H-M "P 6/M M M"
_symmetry_group_IT_number 191
_symmetry_cell_setting 'hexagonal'
loop_
_space_group_symop_operation_xyz
x,y,z
x-y,x,z
-y,x-y,z
-x,-y,z
-x+y,-x,z
y,-x+y,z
x-y,-y,-z
-x,-x+y,-z
y,x,-z
-y,-x,-z
-x+y,y,-z
x,x-y,-z
-x,-y,-z
-x+y,-x,-z
y,-x+y,-z
x,y,-z
x-y,x,-z
-y,x-y,-z
-x+y,y,z
x,x-y,z
-y,-x,z
y,x,z
x-y,-y,z
-x,-x+y,z
loop_
_atom_site_type_symbol
_atom_site_label
_atom_site_fract_x
_atom_site_fract_y
_atom_site_fract_z
Si Si1 0.528475 0.671701 0.672420
Si Si2 0.521157 0.941706 0.168071
Si Si3 0.333482 0.767185 0.828230
Si Si4 0.211041 0.941252 0.831132
Si Si5 0.880728 0.940364 0.500000
Si Si6 0.108310 0.216619 0.662612
Si Si7 0.765565 0.132215 0.330988
O O1 0.520135 0.668057 0.500000
O O2 0.535146 0.625551 0.724885
O O3 0.481088 0.670725 0.745580
O O4 0.577898 0.723322 0.719317
O O5 0.463631 0.927262 0.195832
O O6 0.558587 0.000000 0.204981
O O7 0.527718 0.930074 0.000000
O O8 0.383905 0.767810 0.777075
O O9 0.286706 0.713295 0.785161
O O10 0.334716 0.777682 0.000000
O O11 0.159718 0.926578 0.747085
O O12 0.239307 0.913384 0.766335
O O13 0.249100 0.000000 0.810549
O O14 0.197748 0.926122 0.000000
O O15 0.915964 0.915964 0.500000
O O16 0.844398 0.922199 0.644112
O O17 0.121195 0.242390 0.500000
O O18 0.757783 0.115548 0.500000
O O19 0.819948 0.180053 0.302138
#
# Coordination Sequence:
#
# PCOD8329210 Si02
#       7
#    24  24  24  24   6  12  24
#     4  11  23  37  56  84 118 150 189 234 289 352
#     4   9  19  37  59  81 108 146 191 237 284 336
#     4  10  21  38  60  85 113 149 193 242 294 352
#     4  11  23  38  59  89 120 149 191 247 297 343
#     4  10  21  36  60  92 126 162 204 248 288 340
#     4  10  21  36  60  86 118 157 199 236 287 350
#     4  10  22  40  58  78 108 153 193 230 280 343
#
# _framework density 18.661809999999999
#
# number of rings (size 3 to 8) (size 9 to 14) (size 15 to 20)
#    0.261    1.565    0.870    3.609    0.000    8.000 
#    0.000    4.348    0.000    1.043    0.000    0.000 
#    0.000    4.174    0.000    0.000    0.000    0.000 
#
# Total GULP energy -1711655.514049 kJ/mol
# GULP energy per Si atom -12403.300826 kJ/mol
# Density = 1.861934 g / cm^3
# Si number density = 18.661810 Si / 1000 Ang^3
#
#
#
# Elastic Constant Matrix: (Units=GPa)
#
#
# Indices 1 2 3 4 5 6 
#
# 1 153.1490 40.3055 61.4694 0.0000 0.0000 0.0000
# 2 40.3055 153.1490 61.4694 0.0000 0.0000 0.0000
# 3 61.4694 61.4694 64.1564 0.0000 0.0000 0.0000
# 4 0.0000 0.0000 0.0000 29.1869 0.0000 0.0000
# 5 0.0000 0.0000 0.0000 0.0000 29.1869 0.0000
# 6 0.0000 0.0000 0.0000 0.0000 0.0000 56.4217
#
#
#
# Elastic Compliance Matrix: (Units=1/GPa)
#
#
# Indices 1 2 3 4 5 6 
#
# 1 0.011039 0.002177 -0.012663 0.000000 0.000000 0.000000
# 2 0.002177 0.011039 -0.012663 0.000000 0.000000 0.000000
# 3 -0.012663 -0.012663 0.039851 0.000000 0.000000 0.000000
# 4 0.000000 0.000000 0.000000 0.034262 0.000000 0.000000
# 5 0.000000 0.000000 0.000000 0.000000 0.034262 0.000000
# 6 0.000000 0.000000 0.000000 0.000000 0.000000 0.017724
#
#
# Mechanical properties :
#
#
# Convention : Reuss Voigt Hill
#
# Bulk Modulus (GPa) = 63.96615 77.43809 70.70212
# Shear Modulus (GPa) = 25.03951 36.77312 30.90632
#
# Velocity S-wave (km/s) = 3.66697 4.44385 4.07397
# Velocity P-wave (km/s) = 7.23048 8.24111 7.75228
#
# Compressibility (1/GPa) = 0.01563327
#
# Stress axis : x y z
#
# Youngs Moduli (GPa) = 90.58785 90.58785 25.09317
#
# Poissons Ratio (x) = -0.19723 0.31775
# Poissons Ratio (y) = -0.19723 0.31775
# Poissons Ratio (z) = 1.14708 1.14708
#
# Static dielectric constant tensor:
#      x y z
#    x 3.471550 0.000000 0.000000 
#    y 0.000000 3.471550 0.000000 
#    z 0.000000 0.000000 3.445440 
# 
# 
# High freq. dielectric constant tensor:
#      x y z
#    x 1.733830 0.000000 0.000000 
#    y 0.000000 1.733830 0.000000 
#    z 0.000000 0.000000 1.721530 
# 
# From -- ./inp_files/2030.got.cif
#   From: 2010.03.12/outbox.cif.g09.slc.cpg/sg191_2_cif.got.tgz:2030.got - 2010.04.01 12:09:02.
