data_PCOD8329821
_publ_section_title
;
Structure prediction by ZEFSAII (Michael W. Deem and Ramdas Pophale) SiO2 
 PCOD8329821
Probable space group: P 63/M C M
;
_chemical_formula_sum "Si O2"
_cell_formula_units_Z 126
_cell_length_a 19.711093
_cell_length_b 19.711093
_cell_length_c 20.686573
_cell_angle_alpha 90.000000
_cell_angle_beta 90.000000
_cell_angle_gamma 120.000000
_cell_volume 6960.502532
_symmetry_space_group_name_H-M "P 63/M C M"
_symmetry_group_IT_number 193
_symmetry_cell_setting 'hexagonal'
loop_
_space_group_symop_operation_xyz
x,y,z
x-y,x,1/2+z
-y,x-y,z
-x,-y,1/2+z
-x+y,-x,z
y,-x+y,1/2+z
x-y,-y,1/2-z
-x,-x+y,1/2-z
y,x,1/2-z
-y,-x,-z
-x+y,y,-z
x,x-y,-z
-x,-y,-z
-x+y,-x,1/2-z
y,-x+y,-z
x,y,1/2-z
x-y,x,-z
-y,x-y,1/2-z
-x+y,y,1/2+z
x,x-y,1/2+z
-y,-x,1/2+z
y,x,z
x-y,-y,z
-x,-x+y,z
loop_
_atom_site_type_symbol
_atom_site_label
_atom_site_fract_x
_atom_site_fract_y
_atom_site_fract_z
Si Si1 0.165613 0.840758 0.177710
Si Si2 0.086013 0.086013 0.250000
Si Si3 0.837567 0.837567 0.992956
Si Si4 0.000000 0.407121 0.327721
Si Si5 0.158823 0.598761 0.826368
Si Si6 0.000000 0.259287 0.111866
Si Si7 0.267805 0.495681 0.327092
Si Si8 0.202795 0.000000 0.847500
O O1 0.199965 0.861891 0.250000
O O2 0.189682 0.921447 0.142076
O O3 0.197094 0.788051 0.143774
O O4 0.072533 0.789818 0.177665
O O5 0.128860 0.128860 0.315245
O O6 0.077803 0.000000 0.250000
O O7 0.770732 0.770732 0.039231
O O8 0.845850 0.922925 0.000000
O O9 0.803719 0.803719 0.923547
O O10 0.924818 0.413725 0.348551
O O11 0.000000 0.340334 0.373480
O O12 0.000000 0.389520 0.250000
O O13 0.159068 0.594212 0.750000
O O14 0.176664 0.532776 0.855291
O O15 0.229809 0.682295 0.849397
O O16 0.270067 0.490442 0.250000
#
# Coordination Sequence:
#
# PCOD8329821 Si02
#       8
#    24   6  12  12  24  12  24  12
#     4  11  21  34  55  81 113 149 188 233 288 338
#     4  10  26  38  60  86 114 146 184 228 292 338
#     4  12  27  43  59  79 107 148 191 242 284 334
#     4  10  18  31  51  82 109 146 196 241 282 341
#     4   9  16  27  44  72 111 150 188 227 281 347
#     4  12  22  36  58  76 113 146 197 242 275 330
#     4   9  17  28  46  75 113 154 184 223 284 349
#     4  12  24  40  55  86 114 141 188 232 283 337
#
# _framework density 18.102141
#
# number of rings (size 3 to 8) (size 9 to 14) (size 15 to 20)
#    0.095    1.524    4.762    1.333    2.667    2.286 
#    0.000    2.857    0.000    0.000    0.000    2.667 
#    0.000    0.000    0.000    0.000    0.000    0.000 
#
# Total GULP energy -1561422.598669 kJ/mol
# GULP energy per Si atom -12392.242847 kJ/mol
# Density = 1.806094 g / cm^3
# Si number density = 18.102141 Si / 1000 Ang^3
#
#
#
# Elastic Constant Matrix: (Units=GPa)
#
#
# Indices 1 2 3 4 5 6 
#
# 1 127.0960 55.2064 25.0367 0.0000 0.0000 0.0000
# 2 55.2064 127.0960 25.0367 0.0000 0.0000 0.0000
# 3 25.0367 25.0367 63.2798 0.0000 0.0000 0.0000
# 4 0.0000 0.0000 0.0000 -4.0078 0.0000 0.0000
# 5 0.0000 0.0000 0.0000 0.0000 -4.0078 0.0000
# 6 0.0000 0.0000 0.0000 0.0000 0.0000 35.9448
#
#
#
# Elastic Compliance Matrix: (Units=1/GPa)
#
#
# Indices 1 2 3 4 5 6 
#
# 1 0.010032 -0.003878 -0.002435 0.000000 0.000000 0.000000
# 2 -0.003878 0.010032 -0.002435 0.000000 0.000000 0.000000
# 3 -0.002435 -0.002435 0.017730 0.000000 0.000000 0.000000
# 4 0.000000 0.000000 0.000000 -0.249514 0.000000 0.000000
# 5 0.000000 0.000000 0.000000 0.000000 -0.249514 0.000000
# 6 0.000000 0.000000 0.000000 0.000000 0.000000 0.027820
#
#
# Mechanical properties :
#
#
# Convention : Reuss Voigt Hill
#
# Bulk Modulus (GPa) = 49.26517 58.67018 53.96768
# Shear Modulus (GPa) = -12.22040 19.73198 3.75579
#
# Velocity S-wave (km/s) = -2.60105 3.30515 1.44197
# Velocity P-wave (km/s) = 4.27242 6.85903 5.71401
#
# Compressibility (1/GPa) = 0.02029832
#
# Stress axis : x y z
#
# Youngs Moduli (GPa) = 99.67899 99.67899 56.40292
#
# Poissons Ratio (x) = 0.38656 0.13734
# Poissons Ratio (y) = 0.38656 0.13734
# Poissons Ratio (z) = 0.24271 0.24271
#
# Static dielectric constant tensor:
#      x y z
#    x 3.609230 0.000000 0.000000 
#    y 0.000000 3.609230 0.000000 
#    z 0.000000 0.000000 2.833070 
# 
# 
# High freq. dielectric constant tensor:
#      x y z
#    x 1.715640 0.000000 0.000000 
#    y 0.000000 1.715640 0.000000 
#    z 0.000000 0.000000 1.631170 
# 
# From -- ./inp_files/6539.got.cif
#   From: 2010.03.12/outbox.cif.g09.slc.cpg/sg193_4_cif.got.tgz:6539.got - 2010.04.01 12:20:39.
