data_PCOD8329617
_publ_section_title
;
Structure prediction by ZEFSAII (Michael W. Deem and Ramdas Pophale) SiO2 
 PCOD8329617
Probable space group: P 6/M C C
;
_chemical_formula_sum "Si O2"
_cell_formula_units_Z 120
_cell_length_a 23.285594
_cell_length_b 23.285594
_cell_length_c 14.283636
_cell_angle_alpha 90.000000
_cell_angle_beta 90.000000
_cell_angle_gamma 120.000000
_cell_volume 6707.243108
_symmetry_space_group_name_H-M "P 6/M C C"
_symmetry_group_IT_number 192
_symmetry_cell_setting 'hexagonal'
loop_
_space_group_symop_operation_xyz
x,y,z
x-y,x,z
-y,x-y,z
-x,-y,z
-x+y,-x,z
y,-x+y,z
x-y,-y,1/2-z
-x,-x+y,1/2-z
y,x,1/2-z
-y,-x,1/2-z
-x+y,y,1/2-z
x,x-y,1/2-z
-x,-y,-z
-x+y,-x,-z
y,-x+y,-z
x,y,-z
x-y,x,-z
-y,x-y,-z
-x+y,y,1/2+z
x,x-y,1/2+z
-y,-x,1/2+z
y,x,1/2+z
x-y,-y,1/2+z
-x,-x+y,1/2+z
loop_
_atom_site_type_symbol
_atom_site_label
_atom_site_fract_x
_atom_site_fract_y
_atom_site_fract_z
Si Si1 0.297764 0.520058 0.000000
Si Si2 0.681394 0.995751 0.143855
Si Si3 0.246475 0.898101 0.000000
Si Si4 0.244029 0.364593 0.000000
Si Si5 0.400620 0.832923 0.649362
Si Si6 0.575461 0.541379 0.111064
Si Si7 0.841520 0.497352 0.000000
O O1 0.282065 0.444266 0.000000
O O2 0.338588 0.560212 0.908824
O O3 0.235656 0.529578 0.000000
O O4 0.617705 0.006283 0.142875
O O5 0.706563 0.000000 0.250000
O O6 0.661482 0.925714 0.092802
O O7 0.742797 0.056880 0.091213
O O8 0.172564 0.834921 0.000000
O O9 0.305119 0.881032 0.000000
O O10 0.401266 0.802531 0.750000
O O11 0.388783 0.894993 0.662614
O O12 0.469793 0.859473 0.592498
O O13 0.500000 0.500000 0.144218
O O14 0.582790 0.538000 0.000000
#
# Coordination Sequence:
#
# PCOD8329617 Si02
#       7
#    12  24  12  12  24  24  12
#     4  10  20  40  53  67  96 137 168 224 282 332
#     4  11  22  35  55  85 111 138 183 223 264 322
#     4  10  22  37  57  78 106 149 181 208 270 319
#     4  10  20  40  56  75 112 146 174 220 261 323
#     4  11  22  35  53  76  97 128 173 226 292 343
#     4  11  20  32  52  74 110 138 168 219 285 334
#     4  10  22  37  54  68  98 130 179 222 271 350
#
# _framework density 17.891106000000001
#
# number of rings (size 3 to 8) (size 9 to 14) (size 15 to 20)
#    0.000    1.400    6.000    1.200    5.600    1.600 
#    4.800    4.000    0.000    0.000    0.000    0.000 
#    0.000    0.000    0.000   19.200    0.000   41.600 
#
# Total GULP energy -1487531.103551 kJ/mol
# GULP energy per Si atom -12396.092530 kJ/mol
# Density = 1.785039 g / cm^3
# Si number density = 17.891106 Si / 1000 Ang^3
#
#
#
# Elastic Constant Matrix: (Units=GPa)
#
#
# Indices 1 2 3 4 5 6 
#
# 1 73.9816 17.7136 33.3744 0.0000 0.0000 0.0000
# 2 17.7136 73.9816 33.3744 0.0000 0.0000 0.0000
# 3 33.3744 33.3744 150.2519 0.0000 0.0000 0.0000
# 4 0.0000 0.0000 0.0000 11.3104 0.0000 0.0000
# 5 0.0000 0.0000 0.0000 0.0000 11.3104 0.0000
# 6 0.0000 0.0000 0.0000 0.0000 0.0000 28.1340
#
#
#
# Elastic Compliance Matrix: (Units=1/GPa)
#
#
# Indices 1 2 3 4 5 6 
#
# 1 0.015391 -0.002381 -0.002890 0.000000 0.000000 0.000000
# 2 -0.002381 0.015391 -0.002890 0.000000 0.000000 0.000000
# 3 -0.002890 -0.002890 0.007939 0.000000 0.000000 0.000000
# 4 0.000000 0.000000 0.000000 0.088414 0.000000 0.000000
# 5 0.000000 0.000000 0.000000 0.000000 0.088414 0.000000
# 6 0.000000 0.000000 0.000000 0.000000 0.000000 0.035544
#
#
# Mechanical properties :
#
#
# Convention : Reuss Voigt Hill
#
# Bulk Modulus (GPa) = 44.64481 51.90442 48.27462
# Shear Modulus (GPa) = 18.18974 24.40117 21.29546
#
# Velocity S-wave (km/s) = 3.19202 3.69707 3.45379
# Velocity P-wave (km/s) = 6.21234 6.87741 6.55331
#
# Compressibility (1/GPa) = 0.02239902
#
# Stress axis : x y z
#
# Youngs Moduli (GPa) = 64.97461 64.97461 125.95730
#
# Poissons Ratio (x) = 0.15473 0.36397
# Poissons Ratio (y) = 0.15473 0.36397
# Poissons Ratio (z) = 0.18775 0.18775
#
# Static dielectric constant tensor:
#      x y z
#    x 3.189510 0.000000 0.000000 
#    y 0.000000 3.189510 0.000000 
#    z 0.000000 0.000000 3.361230 
# 
# 
# High freq. dielectric constant tensor:
#      x y z
#    x 1.666210 0.000000 0.000000 
#    y 0.000000 1.666210 0.000000 
#    z 0.000000 0.000000 1.695670 
# 
# From -- ./inp_files/3187.got.cif
#   From: 2010.03.12/outbox.cif.g09.slc.cpg/sg192_2_cif.got.tgz:3187.got - 2010.04.01 12:16:15.
