data_PCOD8329314
_publ_section_title
;
Structure prediction by ZEFSAII (Michael W. Deem and Ramdas Pophale) SiO2 
 PCOD8329314
Probable space group: P 6/M M M
;
_chemical_formula_sum "Si O2"
_cell_formula_units_Z 132
_cell_length_a 18.505967
_cell_length_b 18.505967
_cell_length_c 28.963696
_cell_angle_alpha 90.000000
_cell_angle_beta 90.000000
_cell_angle_gamma 120.000000
_cell_volume 8590.296993
_symmetry_space_group_name_H-M "P 6/M M M"
_symmetry_group_IT_number 191
_symmetry_cell_setting 'hexagonal'
loop_
_space_group_symop_operation_xyz
x,y,z
x-y,x,z
-y,x-y,z
-x,-y,z
-x+y,-x,z
y,-x+y,z
x-y,-y,-z
-x,-x+y,-z
y,x,-z
-y,-x,-z
-x+y,y,-z
x,x-y,-z
-x,-y,-z
-x+y,-x,-z
y,-x+y,-z
x,y,-z
x-y,x,-z
-y,x-y,-z
-x+y,y,z
x,x-y,z
-y,-x,z
y,x,z
x-y,-y,z
-x,-x+y,z
loop_
_atom_site_type_symbol
_atom_site_label
_atom_site_fract_x
_atom_site_fract_y
_atom_site_fract_z
Si Si1 0.347098 0.094333 0.121328
Si Si2 0.168361 0.666493 0.289044
Si Si3 0.469521 0.370568 0.948632
Si Si4 0.333200 0.834327 0.603758
Si Si5 0.255106 0.347346 0.773214
Si Si6 0.000000 0.414225 0.552323
O O1 0.306196 0.153098 0.114479
O O2 0.429098 0.131103 0.089281
O O3 0.377385 0.099926 0.173924
O O4 0.277740 0.000000 0.107738
O O5 0.156498 0.578249 0.273905
O O6 0.263551 0.736450 0.279323
O O7 0.146073 0.666815 0.342419
O O8 0.105383 0.682066 0.258779
O O9 0.567330 0.432671 0.937264
O O10 0.422895 0.422895 0.946755
O O11 0.460390 0.332091 0.000000
O O12 0.407994 0.815988 0.592147
O O13 0.246435 0.753566 0.588542
O O14 0.343829 0.915639 0.576950
O O15 0.159105 0.318210 0.761424
O O16 0.269268 0.269268 0.763824
O O17 0.000000 0.500000 0.554758
O O18 0.000000 0.385583 0.500000
#
# Coordination Sequence:
#
# PCOD8329314 Si02
#       6
#    24  24  24  24  24  12
#     4   9  17  29  44  62  85 112 143 178 215 256
#     4   9  17  28  43  63  87 114 143 173 205 245
#     4   8  14  25  41  60  81 105 134 169 208 248
#     4   9  17  29  45  63  85 115 149 181 212 252
#     4   9  18  30  43  61  85 113 143 176 216 259
#     4   9  18  30  42  60  86 112 141 181 222 250
#
# _framework density 15.366174000000001
#
# number of rings (size 3 to 8) (size 9 to 14) (size 15 to 20)
#    0.000    3.182    0.000    0.909    1.273    3.273 
#    0.000    1.818    0.000    1.818    0.000    2.545 
#    0.000    0.000    0.000    4.818    0.000    5.909 
#
# Total GULP energy -1636134.580588 kJ/mol
# GULP energy per Si atom -12394.958944 kJ/mol
# Density = 1.533120 g / cm^3
# Si number density = 15.366174 Si / 1000 Ang^3
#
#
#
# Elastic Constant Matrix: (Units=GPa)
#
#
# Indices 1 2 3 4 5 6 
#
# 1 89.1407 55.0303 47.2846 0.0000 0.0000 0.0000
# 2 55.0303 89.1407 47.2846 0.0000 0.0000 0.0000
# 3 47.2846 47.2846 68.2967 0.0000 0.0000 0.0000
# 4 0.0000 0.0000 0.0000 20.2548 0.0000 0.0000
# 5 0.0000 0.0000 0.0000 0.0000 20.2548 0.0000
# 6 0.0000 0.0000 0.0000 0.0000 0.0000 17.0552
#
#
#
# Elastic Compliance Matrix: (Units=1/GPa)
#
#
# Indices 1 2 3 4 5 6 
#
# 1 0.021012 -0.008305 -0.008798 0.000000 0.000000 0.000000
# 2 -0.008305 0.021012 -0.008798 0.000000 0.000000 0.000000
# 3 -0.008798 -0.008798 0.026824 0.000000 0.000000 0.000000
# 4 0.000000 0.000000 0.000000 0.049371 0.000000 0.000000
# 5 0.000000 0.000000 0.000000 0.000000 0.049371 0.000000
# 6 0.000000 0.000000 0.000000 0.000000 0.000000 0.058633
#
#
# Mechanical properties :
#
#
# Convention : Reuss Voigt Hill
#
# Bulk Modulus (GPa) = 58.65952 60.64190 59.65071
# Shear Modulus (GPa) = 17.62393 17.97818 17.80106
#
# Velocity S-wave (km/s) = 3.39031 3.42421 3.40730
# Velocity P-wave (km/s) = 7.32004 7.42858 7.37451
#
# Compressibility (1/GPa) = 0.01704753
#
# Stress axis : x y z
#
# Youngs Moduli (GPa) = 47.59235 47.59235 37.28032
#
# Poissons Ratio (x) = 0.39525 0.32798
# Poissons Ratio (y) = 0.39525 0.32798
# Poissons Ratio (z) = 0.41870 0.41870
#
# Static dielectric constant tensor:
#      x y z
#    x 2.890310 0.000000 0.000000 
#    y 0.000000 2.890310 0.000000 
#    z 0.000000 0.000000 3.059080 
# 
# 
# High freq. dielectric constant tensor:
#      x y z
#    x 1.569390 0.000000 0.000000 
#    y 0.000000 1.569390 0.000000 
#    z 0.000000 0.000000 1.592430 
# 
# From -- ./inp_files/10487.got.cif
#   From: 2010.03.12/outbox.cif.g09.slc.cpg/sg191_6_cif.got.tgz:10487.got - 2010.04.01 12:09:02.
