data_PCOD8329886
_publ_section_title
;
Structure prediction by ZEFSAII (Michael W. Deem and Ramdas Pophale) SiO2 
 PCOD8329886
Probable space group: P 63/M C M
;
_chemical_formula_sum "Si O2"
_cell_formula_units_Z 144
_cell_length_a 32.225515
_cell_length_b 32.225515
_cell_length_c 8.954666
_cell_angle_alpha 90.000000
_cell_angle_beta 90.000000
_cell_angle_gamma 120.000000
_cell_volume 8053.409017
_symmetry_space_group_name_H-M "P 63/M C M"
_symmetry_group_IT_number 193
_symmetry_cell_setting 'hexagonal'
loop_
_space_group_symop_operation_xyz
x,y,z
x-y,x,1/2+z
-y,x-y,z
-x,-y,1/2+z
-x+y,-x,z
y,-x+y,1/2+z
x-y,-y,1/2-z
-x,-x+y,1/2-z
y,x,1/2-z
-y,-x,-z
-x+y,y,-z
x,x-y,-z
-x,-y,-z
-x+y,-x,1/2-z
y,-x+y,-z
x,y,1/2-z
x-y,x,-z
-y,x-y,1/2-z
-x+y,y,1/2+z
x,x-y,1/2+z
-y,-x,1/2+z
y,x,z
x-y,-y,z
-x,-x+y,z
loop_
_atom_site_type_symbol
_atom_site_label
_atom_site_fract_x
_atom_site_fract_y
_atom_site_fract_z
Si Si1 0.722633 0.108503 0.575320
Si Si2 0.611545 0.139298 0.075845
Si Si3 0.108228 0.805854 0.073721
Si Si4 0.861354 0.807417 0.574688
Si Si5 0.054569 0.441970 0.423327
Si Si6 0.278418 0.805387 0.925895
O O1 0.734252 0.116922 0.750000
O O2 0.753478 0.087591 0.498247
O O3 0.667490 0.069909 0.544295
O O4 0.736830 0.158949 0.499538
O O5 0.601728 0.134877 0.250000
O O6 0.666441 0.177250 0.036856
O O7 0.579142 0.158284 0.000000
O O8 0.596812 0.086715 0.015983
O O9 0.114356 0.803812 0.250000
O O10 0.071425 0.824026 0.031780
O O11 0.159568 0.840433 0.000000
O O12 0.912758 0.825515 0.500000
O O13 0.869527 0.812903 0.750000
O O14 0.839988 0.839988 0.514601
O O15 0.061212 0.455951 0.250000
O O16 0.000000 0.420260 0.475583
O O17 0.269154 0.803166 0.750000
O O18 0.246734 0.753267 0.000000
#
# Coordination Sequence:
#
# PCOD8329886 Si02
#       6
#    24  24  24  24  24  24
#     4  10  19  31  48  71 101 135 170 209 248 287
#     4  10  21  36  55  78 102 130 165 205 250 300
#     4  10  19  31  47  68  97 131 165 201 240 285
#     4   9  19  35  53  74  99 127 161 200 243 291
#     4   9  19  35  52  71  98 133 172 212 252 292
#     4  10  20  34  53  77 102 130 165 203 247 298
#
# _framework density 17.880625999999999
#
# number of rings (size 3 to 8) (size 9 to 14) (size 15 to 20)
#    0.000    2.333    0.000    2.500    0.000    5.000 
#    0.000    0.000    0.000    0.500    0.000    0.000 
#    0.000    0.000    0.000    0.000    0.000    0.000 
#
# Total GULP energy -1786101.046423 kJ/mol
# GULP energy per Si atom -12403.479489 kJ/mol
# Density = 1.783993 g / cm^3
# Si number density = 17.880626 Si / 1000 Ang^3
#
#
#
# Elastic Constant Matrix: (Units=GPa)
#
#
# Indices 1 2 3 4 5 6 
#
# 1 104.1550 60.6493 50.2505 0.0000 0.0000 0.0000
# 2 60.6493 104.1550 50.2505 0.0000 0.0000 0.0000
# 3 50.2505 50.2505 84.5420 0.0000 0.0000 0.0000
# 4 0.0000 0.0000 0.0000 30.1477 0.0000 0.0000
# 5 0.0000 0.0000 0.0000 0.0000 30.1477 0.0000
# 6 0.0000 0.0000 0.0000 0.0000 0.0000 21.7529
#
#
#
# Elastic Compliance Matrix: (Units=1/GPa)
#
#
# Indices 1 2 3 4 5 6 
#
# 1 0.016252 -0.006734 -0.005657 0.000000 0.000000 0.000000
# 2 -0.006734 0.016252 -0.005657 0.000000 0.000000 0.000000
# 3 -0.005657 -0.005657 0.018553 0.000000 0.000000 0.000000
# 4 0.000000 0.000000 0.000000 0.033170 0.000000 0.000000
# 5 0.000000 0.000000 0.000000 0.000000 0.033170 0.000000
# 6 0.000000 0.000000 0.000000 0.000000 0.000000 0.045971
#
#
# Mechanical properties :
#
#
# Convention : Reuss Voigt Hill
#
# Bulk Modulus (GPa) = 66.84405 68.35028 67.59717
# Shear Modulus (GPa) = 24.45577 25.18976 24.82277
#
# Velocity S-wave (km/s) = 3.70229 3.75744 3.72996
# Velocity P-wave (km/s) = 7.46596 7.55866 7.51245
#
# Compressibility (1/GPa) = 0.01496019
#
# Stress axis : x y z
#
# Youngs Moduli (GPa) = 61.53256 61.53256 53.89829
#
# Poissons Ratio (x) = 0.41436 0.30491
# Poissons Ratio (y) = 0.41436 0.30491
# Poissons Ratio (z) = 0.34810 0.34810
#
# Static dielectric constant tensor:
#      x y z
#    x 3.279120 0.000000 0.000000 
#    y 0.000000 3.279120 0.000000 
#    z 0.000000 0.000000 3.345560 
# 
# 
# High freq. dielectric constant tensor:
#      x y z
#    x 1.682780 0.000000 0.000000 
#    y 0.000000 1.682780 0.000000 
#    z 0.000000 0.000000 1.702240 
# 
# From -- ./inp_files/1512.got.cif
#   From: 2010.03.12/outbox.cif.g09.slc.cpg/sg193_1_cif.got.tgz:1512.got - 2010.04.01 12:20:39.
