data_PCOD8329301
_publ_section_title
;
Structure prediction by ZEFSAII (Michael W. Deem and Ramdas Pophale) SiO2 
 PCOD8329301
Probable space group: P 6/M M M
;
_chemical_formula_sum "Si O2"
_cell_formula_units_Z 96
_cell_length_a 32.748235
_cell_length_b 32.748235
_cell_length_c 7.556010
_cell_angle_alpha 90.000000
_cell_angle_beta 90.000000
_cell_angle_gamma 120.000000
_cell_volume 7017.767117
_symmetry_space_group_name_H-M "P 6/M M M"
_symmetry_group_IT_number 191
_symmetry_cell_setting 'hexagonal'
loop_
_space_group_symop_operation_xyz
x,y,z
x-y,x,z
-y,x-y,z
-x,-y,z
-x+y,-x,z
y,-x+y,z
x-y,-y,-z
-x,-x+y,-z
y,x,-z
-y,-x,-z
-x+y,y,-z
x,x-y,-z
-x,-y,-z
-x+y,-x,-z
y,-x+y,-z
x,y,-z
x-y,x,-z
-y,x-y,-z
-x+y,y,z
x,x-y,z
-y,-x,z
y,x,z
x-y,-y,z
-x,-x+y,z
loop_
_atom_site_type_symbol
_atom_site_label
_atom_site_fract_x
_atom_site_fract_y
_atom_site_fract_z
Si Si1 0.793428 0.115434 0.000000
Si Si2 0.518832 0.947550 0.709578
Si Si3 0.566506 0.828226 0.000000
Si Si4 0.676751 0.110595 0.704370
Si Si5 0.323780 0.054728 0.298177
O O1 0.776909 0.082663 0.825247
O O2 0.850375 0.149626 0.000000
O O3 0.769946 0.147621 0.000000
O O4 0.523573 0.950298 0.500000
O O5 0.464518 0.929036 0.766589
O O6 0.536415 0.912791 0.779583
O O7 0.551937 0.000000 0.787589
O O8 0.550084 0.843007 0.822024
O O9 0.543394 0.771697 0.000000
O O10 0.681113 0.126301 0.500000
O O11 0.694102 0.072962 0.731620
O O12 0.313969 0.062906 0.500000
O O13 0.295764 0.000000 0.246515
#
# Coordination Sequence:
#
# PCOD8329301 Si02
#       5
#    12  24  12  24  24
#     4   9  17  27  37  50  69  91 115 147 186 222
#     4   8  13  22  37  56  78 103 127 149 173 204
#     4   9  18  29  38  51  69  89 118 152 182 215
#     4   9  16  26  40  55  72  96 122 148 180 215
#     4   9  16  25  38  54  70  91 121 154 184 214
#
# _framework density 13.679565
#
# number of rings (size 3 to 8) (size 9 to 14) (size 15 to 20)
#    0.000    3.250    0.000    1.875    0.000    4.000 
#    0.000    7.500    0.000    1.500    0.000    0.000 
#    0.000    0.000    0.000    3.000    0.000   19.500 
#
# Total GULP energy -1189822.187126 kJ/mol
# GULP energy per Si atom -12393.981116 kJ/mol
# Density = 1.364843 g / cm^3
# Si number density = 13.679565 Si / 1000 Ang^3
#
#
#
# Elastic Constant Matrix: (Units=GPa)
#
#
# Indices 1 2 3 4 5 6 
#
# 1 81.6203 45.3941 41.3053 0.0000 0.0000 0.0000
# 2 45.3941 81.6203 41.3053 0.0000 0.0000 0.0000
# 3 41.3053 41.3053 75.6336 0.0000 0.0000 0.0000
# 4 0.0000 0.0000 0.0000 12.0341 0.0000 0.0000
# 5 0.0000 0.0000 0.0000 0.0000 12.0341 0.0000
# 6 0.0000 0.0000 0.0000 0.0000 0.0000 18.1131
#
#
#
# Elastic Compliance Matrix: (Units=1/GPa)
#
#
# Indices 1 2 3 4 5 6 
#
# 1 0.019907 -0.007697 -0.006668 0.000000 0.000000 0.000000
# 2 -0.007697 0.019907 -0.006668 0.000000 0.000000 0.000000
# 3 -0.006668 -0.006668 0.020505 0.000000 0.000000 0.000000
# 4 0.000000 0.000000 0.000000 0.083097 0.000000 0.000000
# 5 0.000000 0.000000 0.000000 0.000000 0.083097 0.000000
# 6 0.000000 0.000000 0.000000 0.000000 0.000000 0.055209
#
#
# Mechanical properties :
#
#
# Convention : Reuss Voigt Hill
#
# Bulk Modulus (GPa) = 54.78755 54.98708 54.88731
# Shear Modulus (GPa) = 15.15733 15.82758 15.49245
#
# Velocity S-wave (km/s) = 3.33232 3.40519 3.36895
# Velocity P-wave (km/s) = 7.41238 7.46621 7.43934
#
# Compressibility (1/GPa) = 0.01825232
#
# Stress axis : x y z
#
# Youngs Moduli (GPa) = 50.23292 50.23292 48.76851
#
# Poissons Ratio (x) = 0.38665 0.32520
# Poissons Ratio (y) = 0.38665 0.32520
# Poissons Ratio (z) = 0.33497 0.33497
#
# Static dielectric constant tensor:
#      x y z
#    x 2.671040 0.000000 0.000000 
#    y 0.000000 2.671040 0.000000 
#    z 0.000000 0.000000 2.765810 
# 
# 
# High freq. dielectric constant tensor:
#      x y z
#    x 1.487540 0.000000 0.000000 
#    y 0.000000 1.487540 0.000000 
#    z 0.000000 0.000000 1.530950 
# 
# From -- ./inp_files/1573.got.cif
#   From: 2010.03.12/outbox.cif.g09.slc.cpg/sg191_1_cif.got.tgz:1573.got - 2010.04.01 12:09:02.
