data_PCOD8329391
_publ_section_title
;
Structure prediction by ZEFSAII (Michael W. Deem and Ramdas Pophale) SiO2 
 PCOD8329391
Probable space group: P 6/M C C
;
_chemical_formula_sum "Si O2"
_cell_formula_units_Z 132
_cell_length_a 17.580305
_cell_length_b 17.580305
_cell_length_c 23.974738
_cell_angle_alpha 90.000000
_cell_angle_beta 90.000000
_cell_angle_gamma 120.000000
_cell_volume 6417.077912
_symmetry_space_group_name_H-M "P 6/M C C"
_symmetry_group_IT_number 192
_symmetry_cell_setting 'hexagonal'
loop_
_space_group_symop_operation_xyz
x,y,z
x-y,x,z
-y,x-y,z
-x,-y,z
-x+y,-x,z
y,-x+y,z
x-y,-y,1/2-z
-x,-x+y,1/2-z
y,x,1/2-z
-y,-x,1/2-z
-x+y,y,1/2-z
x,x-y,1/2-z
-x,-y,-z
-x+y,-x,-z
y,-x+y,-z
x,y,-z
x-y,x,-z
-y,x-y,-z
-x+y,y,1/2+z
x,x-y,1/2+z
-y,-x,1/2+z
y,x,1/2+z
x-y,-y,1/2+z
-x,-x+y,1/2+z
loop_
_atom_site_type_symbol
_atom_site_label
_atom_site_fract_x
_atom_site_fract_y
_atom_site_fract_z
Si Si1 0.367541 0.466424 0.870987
Si Si2 0.211392 0.105696 0.500000
Si Si3 0.367541 0.901117 0.129013
Si Si4 0.824511 0.649023 0.401184
Si Si5 0.664968 0.506681 0.750000
Si Si6 0.101340 0.202680 0.815733
O O1 0.427691 0.572309 0.882806
O O2 0.423245 0.423245 0.890582
O O3 0.279148 0.418013 0.906856
O O4 0.347621 0.448902 0.805070
O O5 0.149826 0.149826 0.500000
O O6 0.275258 0.137629 0.447121
O O7 0.279148 0.861136 0.093145
O O8 0.347622 0.898720 0.194930
O O9 0.850296 0.700590 0.342510
O O10 0.596996 0.403005 0.750000
O O11 0.761401 0.522802 0.750000
O O12 0.148157 0.148156 0.835193
O O13 0.108529 0.217058 0.750000
#
# Coordination Sequence:
#
# PCOD8329391 Si02
#       6
#    24  12  24  24  24  24
#     4  10  21  37  57  85 122 163 207 259 318 377
#     4  12  27  48  74 102 134 170 214 268 325 392
#     4  10  21  37  57  85 122 163 207 259 318 377
#     4  12  24  42  63  94 124 168 216 266 319 388
#     4  10  18  31  51  84 121 165 204 251 308 375
#     4  10  21  36  58  88 126 168 212 266 329 399
#
# _framework density 20.570111000000001
#
# number of rings (size 3 to 8) (size 9 to 14) (size 15 to 20)
#    0.000    1.455    1.818    4.273    2.545    2.909 
#    1.091    2.727    0.000    3.273    0.000    0.000 
#    0.000    0.000    0.000    0.000    0.000    0.000 
#
# Total GULP energy -1636004.418059 kJ/mol
# GULP energy per Si atom -12393.972864 kJ/mol
# Density = 2.052329 g / cm^3
# Si number density = 20.570111 Si / 1000 Ang^3
#
#
#
# Elastic Constant Matrix: (Units=GPa)
#
#
# Indices 1 2 3 4 5 6 
#
# 1 148.1406 68.8613 36.1008 0.0000 0.0000 0.0000
# 2 68.8613 148.1406 36.1008 0.0000 0.0000 0.0000
# 3 36.1008 36.1008 52.5150 0.0000 0.0000 0.0000
# 4 0.0000 0.0000 0.0000 23.0867 0.0000 0.0000
# 5 0.0000 0.0000 0.0000 0.0000 23.0867 0.0000
# 6 0.0000 0.0000 0.0000 0.0000 0.0000 39.6396
#
#
#
# Elastic Compliance Matrix: (Units=1/GPa)
#
#
# Indices 1 2 3 4 5 6 
#
# 1 0.009294 -0.003319 -0.004107 0.000000 0.000000 0.000000
# 2 -0.003319 0.009294 -0.004107 0.000000 0.000000 0.000000
# 3 -0.004107 -0.004107 0.024689 0.000000 0.000000 0.000000
# 4 0.000000 0.000000 0.000000 0.043315 0.000000 0.000000
# 5 0.000000 0.000000 0.000000 0.000000 0.043315 0.000000
# 6 0.000000 0.000000 0.000000 0.000000 0.000000 0.025227
#
#
# Mechanical properties :
#
#
# Convention : Reuss Voigt Hill
#
# Bulk Modulus (GPa) = 49.48140 70.10244 59.79192
# Shear Modulus (GPa) = 27.03581 31.01146 29.02363
#
# Velocity S-wave (km/s) = 3.62929 3.88699 3.76035
# Velocity P-wave (km/s) = 6.45520 7.36876 6.92706
#
# Compressibility (1/GPa) = 0.02020962
#
# Stress axis : x y z
#
# Youngs Moduli (GPa) = 107.59332 107.59332 40.50339
#
# Poissons Ratio (x) = 0.35714 0.16636
# Poissons Ratio (y) = 0.35714 0.16636
# Poissons Ratio (z) = 0.44192 0.44192
#
# Static dielectric constant tensor:
#      x y z
#    x 3.915270 0.000000 0.000000 
#    y 0.000000 3.915270 0.000000 
#    z 0.000000 0.000000 3.575130 
# 
# 
# High freq. dielectric constant tensor:
#      x y z
#    x 1.814680 0.000000 0.000000 
#    y 0.000000 1.814680 0.000000 
#    z 0.000000 0.000000 1.765910 
# 
# From -- ./inp_files/5838.got.cif
#   From: 2010.03.12/outbox.cif.g09.slc.cpg/sg192_3_cif.got.tgz:5838.got - 2010.04.01 12:16:15.
