data_PCOD8329228
_publ_section_title
;
Structure prediction by ZEFSAII (Michael W. Deem and Ramdas Pophale) SiO2 
 PCOD8329228
Probable space group: P 6/M M M
;
_chemical_formula_sum "Si O2"
_cell_formula_units_Z 138
_cell_length_a 30.990053
_cell_length_b 30.990053
_cell_length_c 8.102105
_cell_angle_alpha 90.000000
_cell_angle_beta 90.000000
_cell_angle_gamma 120.000000
_cell_volume 6738.653674
_symmetry_space_group_name_H-M "P 6/M M M"
_symmetry_group_IT_number 191
_symmetry_cell_setting 'hexagonal'
loop_
_space_group_symop_operation_xyz
x,y,z
x-y,x,z
-y,x-y,z
-x,-y,z
-x+y,-x,z
y,-x+y,z
x-y,-y,-z
-x,-x+y,-z
y,x,-z
-y,-x,-z
-x+y,y,-z
x,x-y,-z
-x,-y,-z
-x+y,-x,-z
y,-x+y,-z
x,y,-z
x-y,x,-z
-y,x-y,-z
-x+y,y,z
x,x-y,z
-y,-x,z
y,x,z
x-y,-y,z
-x,-x+y,z
loop_
_atom_site_type_symbol
_atom_site_label
_atom_site_fract_x
_atom_site_fract_y
_atom_site_fract_z
Si Si1 0.528553 0.673994 0.688477
Si Si2 0.521275 0.943559 0.190872
Si Si3 0.333314 0.762688 0.807751
Si Si4 0.212730 0.944114 0.807111
Si Si5 0.880791 0.940396 0.500000
Si Si6 0.098089 0.196178 0.196634
Si Si7 0.766384 0.138531 0.307277
O O1 0.522802 0.685362 0.500000
O O2 0.532199 0.624365 0.698207
O O3 0.481021 0.667783 0.784498
O O4 0.579266 0.718615 0.768527
O O5 0.468493 0.936985 0.243557
O O6 0.564660 0.000000 0.223355
O O7 0.520094 0.929319 0.000000
O O8 0.383523 0.767046 0.728275
O O9 0.284334 0.715667 0.727827
O O10 0.333661 0.753376 0.000000
O O11 0.156044 0.926290 0.761286
O O12 0.234606 0.912751 0.722817
O O13 0.245839 0.000000 0.741160
O O14 0.218092 0.940212 0.000000
O O15 0.915377 0.915377 0.500000
O O16 0.849168 0.924584 0.327913
O O17 0.089513 0.179025 0.000000
O O18 0.766056 0.146621 0.500000
O O19 0.816327 0.183674 0.226563
#
# Coordination Sequence:
#
# PCOD8329228 Si02
#       7
#    24  24  24  24   6  12  24
#     4  11  23  37  55  82 117 153 190 235 292 359
#     4   9  19  37  59  81 107 143 189 239 287 339
#     4  10  21  38  60  85 112 146 191 243 297 356
#     4  10  21  37  60  90 120 151 193 247 302 356
#     4  12  27  44  68 100 136 180 224 268 322 386
#     4  10  22  43  67  97 132 166 214 272 322 376
#     4  10  22  39  56  77 111 153 192 232 281 341
#
# _framework density 20.478869
#
# number of rings (size 3 to 8) (size 9 to 14) (size 15 to 20)
#    0.000    1.913    0.870    2.826    1.217    8.348 
#    0.000    4.348    0.000    1.565    0.000    0.000 
#    0.000    0.000    0.000    0.000    0.000    0.000 
#
# Total GULP energy -1711033.156032 kJ/mol
# GULP energy per Si atom -12398.790986 kJ/mol
# Density = 2.043226 g / cm^3
# Si number density = 20.478869 Si / 1000 Ang^3
#
#
#
# Elastic Constant Matrix: (Units=GPa)
#
#
# Indices 1 2 3 4 5 6 
#
# 1 239.5107 8.9957 25.8429 0.0000 0.0000 0.0000
# 2 8.9957 239.5106 25.8429 0.0000 0.0000 0.0000
# 3 25.8429 25.8429 39.9673 0.0000 0.0000 0.0000
# 4 0.0000 0.0000 0.0000 21.7819 0.0000 0.0000
# 5 0.0000 0.0000 0.0000 0.0000 21.7819 0.0000
# 6 0.0000 0.0000 0.0000 0.0000 0.0000 115.2575
#
#
#
# Elastic Compliance Matrix: (Units=1/GPa)
#
#
# Indices 1 2 3 4 5 6 
#
# 1 0.004494 0.000156 -0.003006 0.000000 0.000000 0.000000
# 2 0.000156 0.004494 -0.003006 0.000000 0.000000 0.000000
# 3 -0.003006 -0.003006 0.028908 0.000000 0.000000 0.000000
# 4 0.000000 0.000000 0.000000 0.045910 0.000000 0.000000
# 5 0.000000 0.000000 0.000000 0.000000 0.045910 0.000000
# 6 0.000000 0.000000 0.000000 0.000000 0.000000 0.008676
#
#
# Mechanical properties :
#
#
# Convention : Reuss Voigt Hill
#
# Bulk Modulus (GPa) = 38.19449 71.15016 54.67233
# Shear Modulus (GPa) = 31.47976 62.31805 46.89891
#
# Velocity S-wave (km/s) = 3.92495 5.52236 4.79070
# Velocity P-wave (km/s) = 6.26350 8.68796 7.57338
#
# Compressibility (1/GPa) = 0.02618178
#
# Stress axis : x y z
#
# Youngs Moduli (GPa) = 222.53354 222.53354 34.59233
#
# Poissons Ratio (x) = -0.03462 0.10399
# Poissons Ratio (y) = -0.03462 0.10399
# Poissons Ratio (z) = 0.66899 0.66899
#
# Static dielectric constant tensor:
#      x y z
#    x 3.866700 0.000000 0.000000 
#    y 0.000000 3.866700 0.000000 
#    z 0.000000 0.000000 3.469590 
# 
# 
# High freq. dielectric constant tensor:
#      x y z
#    x 1.810530 0.000000 0.000000 
#    y 0.000000 1.810530 0.000000 
#    z 0.000000 0.000000 1.782220 
# 
# From -- ./inp_files/2033.got.cif
#   From: 2010.03.12/outbox.cif.g09.slc.cpg/sg191_2_cif.got.tgz:2033.got - 2010.04.01 12:09:02.
