data_PCOD8329730
_publ_section_title
;
Structure prediction by ZEFSAII (Michael W. Deem and Ramdas Pophale) SiO2 
 PCOD8329730
Probable space group: P 6/M C C
;
_chemical_formula_sum "Si O2"
_cell_formula_units_Z 132
_cell_length_a 17.495594
_cell_length_b 17.495594
_cell_length_c 22.918597
_cell_angle_alpha 90.000000
_cell_angle_beta 90.000000
_cell_angle_gamma 120.000000
_cell_volume 6075.416323
_symmetry_space_group_name_H-M "P 6/M C C"
_symmetry_group_IT_number 192
_symmetry_cell_setting 'hexagonal'
loop_
_space_group_symop_operation_xyz
x,y,z
x-y,x,z
-y,x-y,z
-x,-y,z
-x+y,-x,z
y,-x+y,z
x-y,-y,1/2-z
-x,-x+y,1/2-z
y,x,1/2-z
-y,-x,1/2-z
-x+y,y,1/2-z
x,x-y,1/2-z
-x,-y,-z
-x+y,-x,-z
y,-x+y,-z
x,y,-z
x-y,x,-z
-y,x-y,-z
-x+y,y,1/2+z
x,x-y,1/2+z
-y,-x,1/2+z
y,x,1/2+z
x-y,-y,1/2+z
-x,-x+y,1/2+z
loop_
_atom_site_type_symbol
_atom_site_label
_atom_site_fract_x
_atom_site_fract_y
_atom_site_fract_z
Si Si1 0.559057 0.921054 0.624024
Si Si2 0.762215 0.791890 0.500000
Si Si3 0.507434 0.881449 0.874410
Si Si4 0.818716 0.621235 0.318319
Si Si5 0.299261 0.855905 0.500000
Si Si6 0.394092 0.288063 0.000000
Si Si7 0.864429 0.802299 0.125885
O O1 0.454247 0.862887 0.638753
O O2 0.614679 0.883336 0.655180
O O3 0.576930 0.928362 0.555364
O O4 0.595867 0.019809 0.645929
O O5 0.657789 0.727081 0.500000
O O6 0.786678 0.712337 0.500000
O O7 0.797879 0.855277 0.444150
O O8 0.532266 0.819947 0.835655
O O9 0.508946 0.863968 0.942954
O O10 0.816367 0.632733 0.250000
O O11 0.904141 0.705972 0.346267
O O12 0.211361 0.761553 0.500000
O O13 0.835724 0.871803 0.147460
#
# Coordination Sequence:
#
# PCOD8329730 Si02
#       7
#    24  12  24  24  12  12  24
#     4  11  23  42  68  99 129 166 215 271 334 400
#     4  12  20  36  66  99 136 176 217 267 333 410
#     4  11  23  41  68  98 131 166 212 273 335 401
#     4  12  26  46  68  92 126 177 233 282 336 401
#     4  12  19  34  64  98 132 162 204 256 321 399
#     4  12  19  36  66  99 134 170 211 258 328 411
#     4  12  25  42  66 100 139 182 227 282 342 408
#
# _framework density 21.726904999999999
#
# number of rings (size 3 to 8) (size 9 to 14) (size 15 to 20)
#    0.000    0.364    5.455    4.545    0.000    5.091 
#    1.091    2.727    0.000    1.091    0.000    0.000 
#    0.000    0.000    0.000    0.000    0.000    0.000 
#
# Total GULP energy -1637063.961944 kJ/mol
# GULP energy per Si atom -12401.999712 kJ/mol
# Density = 2.167745 g / cm^3
# Si number density = 21.726905 Si / 1000 Ang^3
#
#
#
# Elastic Constant Matrix: (Units=GPa)
#
#
# Indices 1 2 3 4 5 6 
#
# 1 92.4999 12.9956 18.6386 0.0000 0.0000 0.0000
# 2 12.9956 92.4999 18.6386 0.0000 0.0000 0.0000
# 3 18.6386 18.6386 110.9914 0.0000 0.0000 0.0000
# 4 0.0000 0.0000 0.0000 4.2282 0.0000 0.0000
# 5 0.0000 0.0000 0.0000 0.0000 4.2282 0.0000
# 6 0.0000 0.0000 0.0000 0.0000 0.0000 39.7522
#
#
#
# Elastic Compliance Matrix: (Units=1/GPa)
#
#
# Indices 1 2 3 4 5 6 
#
# 1 0.011327 -0.001250 -0.001692 0.000000 0.000000 0.000000
# 2 -0.001250 0.011327 -0.001692 0.000000 0.000000 0.000000
# 3 -0.001692 -0.001692 0.009578 0.000000 0.000000 0.000000
# 4 0.000000 0.000000 0.000000 0.236505 0.000000 0.000000
# 5 0.000000 0.000000 0.000000 0.000000 0.236505 0.000000
# 6 0.000000 0.000000 0.000000 0.000000 0.000000 0.025156
#
#
# Mechanical properties :
#
#
# Convention : Reuss Voigt Hill
#
# Bulk Modulus (GPa) = 43.54788 44.05965 43.80377
# Shear Modulus (GPa) = 9.13538 26.02296 17.57917
#
# Velocity S-wave (km/s) = 2.05275 3.46458 2.84755
# Velocity P-wave (km/s) = 5.07003 6.02721 5.56922
#
# Compressibility (1/GPa) = 0.02296323
#
# Stress axis : x y z
#
# Youngs Moduli (GPa) = 88.28089 88.28089 104.40536
#
# Poissons Ratio (x) = 0.11039 0.17668
# Poissons Ratio (y) = 0.11039 0.17668
# Poissons Ratio (z) = 0.14939 0.14939
#
# Static dielectric constant tensor:
#      x y z
#    x 4.021800 0.000000 0.000000 
#    y 0.000000 4.021800 0.000000 
#    z 0.000000 0.000000 3.551100 
# 
# 
# High freq. dielectric constant tensor:
#      x y z
#    x 1.857460 0.000000 0.000000 
#    y 0.000000 1.857460 0.000000 
#    z 0.000000 0.000000 1.828970 
# 
# From -- ./inp_files/5877.got.cif
#   From: 2010.03.12/outbox.cif.g09.slc.cpg/sg192_3_cif.got.tgz:5877.got - 2010.04.01 12:16:15.
