data_PCOD8329688
_publ_section_title
;
Structure prediction by ZEFSAII (Michael W. Deem and Ramdas Pophale) SiO2 
 PCOD8329688
Probable space group: P 6/M C C
;
_chemical_formula_sum "Si O2"
_cell_formula_units_Z 104
_cell_length_a 21.165787
_cell_length_b 21.165787
_cell_length_c 14.157904
_cell_angle_alpha 90.000000
_cell_angle_beta 90.000000
_cell_angle_gamma 120.000000
_cell_volume 5492.858830
_symmetry_space_group_name_H-M "P 6/M C C"
_symmetry_group_IT_number 192
_symmetry_cell_setting 'hexagonal'
loop_
_space_group_symop_operation_xyz
x,y,z
x-y,x,z
-y,x-y,z
-x,-y,z
-x+y,-x,z
y,-x+y,z
x-y,-y,1/2-z
-x,-x+y,1/2-z
y,x,1/2-z
-y,-x,1/2-z
-x+y,y,1/2-z
x,x-y,1/2-z
-x,-y,-z
-x+y,-x,-z
y,-x+y,-z
x,y,-z
x-y,x,-z
-y,x-y,-z
-x+y,y,1/2+z
x,x-y,1/2+z
-y,-x,1/2+z
y,x,1/2+z
x-y,-y,1/2+z
-x,-x+y,1/2+z
loop_
_atom_site_type_symbol
_atom_site_label
_atom_site_fract_x
_atom_site_fract_y
_atom_site_fract_z
Si Si1 0.082706 0.914415 0.360682
Si Si2 0.573964 0.999075 0.360418
Si Si3 0.426881 0.112322 0.500000
Si Si4 0.666667 0.333334 0.637261
Si Si5 0.895376 0.311710 0.000000
Si Si6 0.539941 0.267583 0.000000
Si Si7 0.701831 0.850266 0.500000
O O1 0.090973 0.909028 0.250000
O O2 0.120240 0.872582 0.407807
O O3 0.998589 0.876460 0.392811
O O4 0.642537 0.068879 0.405633
O O5 0.500000 0.000000 0.383368
O O6 0.587969 0.000000 0.250000
O O7 0.571770 0.928586 0.405354
O O8 0.503392 0.186020 0.500000
O O9 0.356105 0.121678 0.500000
O O10 0.666668 0.333334 0.750000
O O11 0.717711 0.414015 0.595983
O O12 0.814418 0.294015 0.000000
O O13 0.899216 0.237630 0.000000
#
# Coordination Sequence:
#
# PCOD8329688 Si02
#       7
#    24  24  12   8  12  12  12
#     4  10  22  39  61  87 119 158 209 262 305 354
#     4  10  23  39  64  91 115 156 201 242 285 347
#     4  10  22  41  60  85 124 155 192 239 298 353
#     4  10  23  37  61  92 115 151 194 238 292 344
#     4  10  22  41  60  85 124 155 192 239 298 353
#     4   9  22  40  60  84 119 155 187 243 290 348
#     4  11  24  38  59  90 119 162 194 237 310 369
#
# _framework density 18.933674
#
# number of rings (size 3 to 8) (size 9 to 14) (size 15 to 20)
#    0.000    2.077    0.000    2.308   12.923    4.615 
#    0.000    5.769    0.000    0.000    0.000    0.000 
#    0.000    0.000    0.000    0.000    0.000    0.000 
#
# Total GULP energy -1289545.523414 kJ/mol
# GULP energy per Si atom -12399.476187 kJ/mol
# Density = 1.889058 g / cm^3
# Si number density = 18.933674 Si / 1000 Ang^3
#
#
#
# Elastic Constant Matrix: (Units=GPa)
#
#
# Indices 1 2 3 4 5 6 
#
# 1 90.1045 35.9091 39.9853 0.0000 0.0003 0.0006
# 2 35.9091 90.1066 39.9859 -0.0001 0.0003 0.0006
# 3 39.9853 39.9859 142.9455 -0.0003 0.0000 0.0003
# 4 0.0000 -0.0001 -0.0003 22.6768 0.0001 0.0000
# 5 0.0003 0.0003 0.0000 0.0001 22.6765 -0.0001
# 6 0.0006 0.0006 0.0003 0.0000 -0.0001 27.0981
#
#
#
# Elastic Compliance Matrix: (Units=1/GPa)
#
#
# Indices 1 2 3 4 5 6 
#
# 1 0.014050 -0.004402 -0.002699 0.000000 0.000000 0.000000
# 2 -0.004402 0.014050 -0.002699 0.000000 0.000000 0.000000
# 3 -0.002699 -0.002699 0.008506 0.000000 0.000000 0.000000
# 4 0.000000 0.000000 0.000000 0.044098 0.000000 0.000000
# 5 0.000000 0.000000 0.000000 0.000000 0.044098 0.000000
# 6 0.000000 0.000000 0.000000 0.000000 0.000000 0.036903
#
#
# Mechanical properties :
#
#
# Convention : Reuss Voigt Hill
#
# Bulk Modulus (GPa) = 58.80037 61.65748 60.22892
# Shear Modulus (GPa) = 26.74195 28.30871 27.52533
#
# Velocity S-wave (km/s) = 3.76227 3.87091 3.81698
# Velocity P-wave (km/s) = 7.07081 7.25357 7.16277
#
# Compressibility (1/GPa) = 0.01700669
#
# Stress axis : x y z
#
# Youngs Moduli (GPa) = 71.17416 71.17584 117.56983
#
# Poissons Ratio (x) = 0.31328 0.31731
# Poissons Ratio (y) = 0.31327 0.31731
# Poissons Ratio (z) = 0.19209 0.19210
#
# Static dielectric constant tensor:
#      x y z
#    x 3.734870 0.000000 -0.000020 
#    y 0.000000 3.734860 0.000010 
#    z -0.000020 0.000010 3.953350 
# 
# 
# High freq. dielectric constant tensor:
#      x y z
#    x 1.749440 0.000000 0.000000 
#    y 0.000000 1.749440 0.000000 
#    z 0.000000 0.000000 1.737190 
# 
# From -- ./inp_files/2976.got.cif
#   From: 2010.03.12/outbox.cif.g09.slc.cpg/sg192_2_cif.got.tgz:2976.got - 2010.04.01 12:16:15.
