data_PCOD8329603
_publ_section_title
;
Structure prediction by ZEFSAII (Michael W. Deem and Ramdas Pophale) SiO2 
 PCOD8329603
Probable space group: P 6/M C C
;
_chemical_formula_sum "Si O2"
_cell_formula_units_Z 102
_cell_length_a 24.499722
_cell_length_b 24.499722
_cell_length_c 9.964446
_cell_angle_alpha 90.000000
_cell_angle_beta 90.000000
_cell_angle_gamma 120.000000
_cell_volume 5179.717838
_symmetry_space_group_name_H-M "P 6/M C C"
_symmetry_group_IT_number 192
_symmetry_cell_setting 'hexagonal'
loop_
_space_group_symop_operation_xyz
x,y,z
x-y,x,z
-y,x-y,z
-x,-y,z
-x+y,-x,z
y,-x+y,z
x-y,-y,1/2-z
-x,-x+y,1/2-z
y,x,1/2-z
-y,-x,1/2-z
-x+y,y,1/2-z
x,x-y,1/2-z
-x,-y,-z
-x+y,-x,-z
y,-x+y,-z
x,y,-z
x-y,x,-z
-y,x-y,-z
-x+y,y,1/2+z
x,x-y,1/2+z
-y,-x,1/2+z
y,x,1/2+z
x-y,-y,1/2+z
-x,-x+y,1/2+z
loop_
_atom_site_type_symbol
_atom_site_label
_atom_site_fract_x
_atom_site_fract_y
_atom_site_fract_z
Si Si1 0.267840 0.926924 0.249698
Si Si2 0.431145 0.760909 0.341579
Si Si3 0.194650 0.267976 0.500000
Si Si4 0.195035 0.269438 0.000000
Si Si5 0.500000 0.000000 0.750000
Si Si6 0.533508 0.900344 0.647790
O O1 0.223445 0.906017 0.377601
O O2 0.313917 0.897471 0.249092
O O3 0.315930 0.000000 0.250000
O O4 0.221123 0.907318 0.125539
O O5 0.368796 0.737591 0.250000
O O6 0.468178 0.734089 0.250000
O O7 0.418774 0.737688 0.500000
O O8 0.468633 0.835896 0.339453
O O9 0.214148 0.213415 0.500000
O O10 0.118157 0.236697 0.500000
O O11 0.481957 0.043679 0.663330
O O12 0.563311 0.908448 0.500000
#
# Coordination Sequence:
#
# PCOD8329603 Si02
#       6
#    24  24  12  12   6  24
#     4  10  20  37  59  84 120 158 197 247 302 361
#     4  11  24  44  65  89 117 155 201 252 306 362
#     4  10  20  38  60  85 126 160 210 248 314 368
#     4  10  22  36  60  91 118 168 204 258 306 374
#     4  12  22  40  68  94 124 162 200 256 324 378
#     4  11  23  41  62  90 123 159 203 252 307 371
#
# _framework density 19.692191999999999
#
# number of rings (size 3 to 8) (size 9 to 14) (size 15 to 20)
#    0.000    1.412    3.529    2.000    0.000    1.882 
#    6.353    0.000    0.000    0.235    0.000    0.000 
#    0.000    5.647    0.000    0.000    0.000    0.941 
#
# Total GULP energy -1263648.390184 kJ/mol
# GULP energy per Si atom -12388.709708 kJ/mol
# Density = 1.964737 g / cm^3
# Si number density = 19.692192 Si / 1000 Ang^3
#
#
#
# Elastic Constant Matrix: (Units=GPa)
#
#
# Indices 1 2 3 4 5 6 
#
# 1 105.0049 47.3497 45.5690 0.0000 0.0000 0.0000
# 2 47.3497 105.0049 45.5690 0.0000 0.0000 0.0000
# 3 45.5690 45.5690 157.1539 0.0000 0.0000 0.0000
# 4 0.0000 0.0000 0.0000 92.6917 0.0000 0.0000
# 5 0.0000 0.0000 0.0000 0.0000 92.6918 0.0000
# 6 0.0000 0.0000 0.0000 0.0000 0.0000 28.8276
#
#
#
# Elastic Compliance Matrix: (Units=1/GPa)
#
#
# Indices 1 2 3 4 5 6 
#
# 1 0.012643 -0.004702 -0.002303 0.000000 0.000000 0.000000
# 2 -0.004702 0.012643 -0.002303 0.000000 0.000000 0.000000
# 3 -0.002303 -0.002303 0.007699 0.000000 0.000000 0.000000
# 4 0.000000 0.000000 0.000000 0.010788 0.000000 0.000000
# 5 0.000000 0.000000 0.000000 0.000000 0.010788 0.000000
# 6 0.000000 0.000000 0.000000 0.000000 0.000000 0.034689
#
#
# Mechanical properties :
#
#
# Convention : Reuss Voigt Hill
#
# Bulk Modulus (GPa) = 69.58859 71.57100 70.57980
# Shear Modulus (GPa) = 44.38371 58.08729 51.23550
#
# Velocity S-wave (km/s) = 4.75265 5.43706 5.10634
# Velocity P-wave (km/s) = 8.09517 8.70858 8.40747
#
# Compressibility (1/GPa) = 0.01437017
#
# Stress axis : x y z
#
# Youngs Moduli (GPa) = 79.09658 79.09658 129.89468
#
# Poissons Ratio (x) = 0.37189 0.29910
# Poissons Ratio (y) = 0.37189 0.29910
# Poissons Ratio (z) = 0.18213 0.18213
#
# Static dielectric constant tensor:
#      x y z
#    x 3.506410 0.000000 0.000000 
#    y 0.000000 3.506410 0.000000 
#    z 0.000000 0.000000 9.650980 
# 
# 
# High freq. dielectric constant tensor:
#      x y z
#    x 1.760810 0.000000 0.000000 
#    y 0.000000 1.760810 0.000000 
#    z 0.000000 0.000000 1.779180 
# 
# From -- ./inp_files/910.got.cif
#   From: 2010.03.12/outbox.cif.g09.slc.cpg/sg192_1_cif.got.tgz:910.got - 2010.04.01 12:16:15.
