data_PCOD8329264
_publ_section_title
;
Structure prediction by ZEFSAII (Michael W. Deem and Ramdas Pophale) SiO2 
 PCOD8329264
Probable space group: P 6/M M M
;
_chemical_formula_sum "Si O2"
_cell_formula_units_Z 72
_cell_length_a 21.703203
_cell_length_b 21.703203
_cell_length_c 10.217996
_cell_angle_alpha 90.000000
_cell_angle_beta 90.000000
_cell_angle_gamma 120.000000
_cell_volume 4168.156580
_symmetry_space_group_name_H-M "P 6/M M M"
_symmetry_group_IT_number 191
_symmetry_cell_setting 'hexagonal'
loop_
_space_group_symop_operation_xyz
x,y,z
x-y,x,z
-y,x-y,z
-x,-y,z
-x+y,-x,z
y,-x+y,z
x-y,-y,-z
-x,-x+y,-z
y,x,-z
-y,-x,-z
-x+y,y,-z
x,x-y,-z
-x,-y,-z
-x+y,-x,-z
y,-x+y,-z
x,y,-z
x-y,x,-z
-y,x-y,-z
-x+y,y,z
x,x-y,z
-y,-x,z
y,x,z
x-y,-y,z
-x,-x+y,z
loop_
_atom_site_type_symbol
_atom_site_label
_atom_site_fract_x
_atom_site_fract_y
_atom_site_fract_z
Si Si1 0.709540 0.921629 0.351351
Si Si2 0.918375 0.386539 0.500000
Si Si3 0.292145 0.441638 0.251609
Si Si4 0.917496 0.385666 0.000000
O O1 0.681158 0.918013 0.500000
O O2 0.745561 0.872781 0.338459
O O3 0.643727 0.894419 0.253852
O O4 0.769762 0.000000 0.311481
O O5 0.924327 0.462164 0.500000
O O6 0.872895 0.344019 0.374836
O O7 0.000000 0.400192 0.500000
O O8 0.234378 0.468755 0.252483
O O9 0.339950 0.466206 0.123585
O O10 0.915800 0.457900 0.000000
O O11 0.000000 0.404206 0.000000
#
# Coordination Sequence:
#
# PCOD8329264 Si02
#       4
#    24  12  24  12
#     4   9  16  27  46  72 100 130 164 203 246 292
#     4  11  21  34  56  82 106 133 171 221 268 310
#     4  11  21  35  54  77 105 137 170 213 265 317
#     4  11  23  38  56  78 104 135 173 219 270 320
#
# _framework density 17.273823
#
# number of rings (size 3 to 8) (size 9 to 14) (size 15 to 20)
#    0.000    1.667    1.667    5.000    0.000    2.667 
#    0.000    0.000    0.000   13.667    0.000    2.333 
#    0.000    0.000    0.000    0.000    0.000   34.667 
#
# Total GULP energy -892537.240661 kJ/mol
# GULP energy per Si atom -12396.350565 kJ/mol
# Density = 1.723451 g / cm^3
# Si number density = 17.273823 Si / 1000 Ang^3
#
#
#
# Elastic Constant Matrix: (Units=GPa)
#
#
# Indices 1 2 3 4 5 6 
#
# 1 105.2068 46.2177 46.2994 0.0000 0.0000 0.0000
# 2 46.2177 105.2068 46.2994 0.0000 0.0000 0.0000
# 3 46.2994 46.2994 123.0619 0.0000 0.0000 0.0000
# 4 0.0000 0.0000 0.0000 37.6868 0.0000 0.0000
# 5 0.0000 0.0000 0.0000 0.0000 37.6868 0.0000
# 6 0.0000 0.0000 0.0000 0.0000 0.0000 29.4946
#
#
#
# Elastic Compliance Matrix: (Units=1/GPa)
#
#
# Indices 1 2 3 4 5 6 
#
# 1 0.012765 -0.004187 -0.003227 0.000000 0.000000 0.000000
# 2 -0.004187 0.012765 -0.003227 0.000000 0.000000 0.000000
# 3 -0.003227 -0.003227 0.010554 0.000000 0.000000 0.000000
# 4 0.000000 0.000000 0.000000 0.026535 0.000000 0.000000
# 5 0.000000 0.000000 0.000000 0.000000 0.026535 0.000000
# 6 0.000000 0.000000 0.000000 0.000000 0.000000 0.033905
#
#
# Mechanical properties :
#
#
# Convention : Reuss Voigt Hill
#
# Bulk Modulus (GPa) = 67.56427 67.90095 67.73261
# Shear Modulus (GPa) = 33.49544 33.95089 33.72316
#
# Velocity S-wave (km/s) = 4.40828 4.43815 4.42324
# Velocity P-wave (km/s) = 8.06903 8.10289 8.08598
#
# Compressibility (1/GPa) = 0.01480072
#
# Stress axis : x y z
#
# Youngs Moduli (GPa) = 78.34038 78.34038 94.74895
#
# Poissons Ratio (x) = 0.32805 0.30576
# Poissons Ratio (y) = 0.32805 0.30576
# Poissons Ratio (z) = 0.25281 0.25281
#
# Static dielectric constant tensor:
#      x y z
#    x 3.315620 0.000000 0.000000 
#    y 0.000000 3.315620 0.000000 
#    z 0.000000 0.000000 3.167720 
# 
# 
# High freq. dielectric constant tensor:
#      x y z
#    x 1.664470 0.000000 0.000000 
#    y 0.000000 1.664470 0.000000 
#    z 0.000000 0.000000 1.659600 
# 
# From -- ./inp_files/893.got.cif
#   From: 2010.03.12/outbox.cif.g09.slc.cpg/sg191_1_cif.got.tgz:893.got - 2010.04.01 12:09:02.
