data_PCOD8329670
_publ_section_title
;
Structure prediction by ZEFSAII (Michael W. Deem and Ramdas Pophale) SiO2 
 PCOD8329670
Probable space group: P 6/M C C
;
_chemical_formula_sum "Si O2"
_cell_formula_units_Z 66
_cell_length_a 15.388901
_cell_length_b 15.388901
_cell_length_c 15.176556
_cell_angle_alpha 90.000000
_cell_angle_beta 90.000000
_cell_angle_gamma 120.000000
_cell_volume 3112.569604
_symmetry_space_group_name_H-M "P 6/M C C"
_symmetry_group_IT_number 192
_symmetry_cell_setting 'hexagonal'
loop_
_space_group_symop_operation_xyz
x,y,z
x-y,x,z
-y,x-y,z
-x,-y,z
-x+y,-x,z
y,-x+y,z
x-y,-y,1/2-z
-x,-x+y,1/2-z
y,x,1/2-z
-y,-x,1/2-z
-x+y,y,1/2-z
x,x-y,1/2-z
-x,-y,-z
-x+y,-x,-z
y,-x+y,-z
x,y,-z
x-y,x,-z
-y,x-y,-z
-x+y,y,1/2+z
x,x-y,1/2+z
-y,-x,1/2+z
y,x,1/2+z
x-y,-y,1/2+z
-x,-x+y,1/2+z
loop_
_atom_site_type_symbol
_atom_site_label
_atom_site_fract_x
_atom_site_fract_y
_atom_site_fract_z
Si Si1 0.000000 0.500000 0.750000
Si Si2 0.946206 0.777944 0.398013
Si Si3 0.145713 0.713534 0.175170
Si Si4 0.751964 0.458629 0.500000
O O1 0.926571 0.404401 0.808812
O O2 0.867940 0.813307 0.374309
O O3 0.938990 0.746495 0.500000
O O4 0.926353 0.686374 0.335213
O O5 0.229692 0.770309 0.250000
O O6 0.206226 0.732152 0.085612
O O7 0.630732 0.409620 0.500000
#
# Coordination Sequence:
#
# PCOD8329670 Si02
#       4
#     6  24  24  12
#     4  12  28  42  72 104 138 194 224 298 356 422
#     4  10  21  40  68 101 138 180 225 285 344 417
#     4  12  24  46  69 102 143 179 238 287 358 420
#     4  10  24  43  68  98 129 190 232 296 344 417
#
# _framework density 21.204345
#
# number of rings (size 3 to 8) (size 9 to 14) (size 15 to 20)
#    0.364    0.727    1.818    4.727    0.000    2.182 
#    1.091    0.000    0.000    2.182    0.000    0.000 
#    0.000    0.000    0.000    0.000    0.000    0.000 
#
# Total GULP energy -818577.210613 kJ/mol
# GULP energy per Si atom -12402.685009 kJ/mol
# Density = 2.115608 g / cm^3
# Si number density = 21.204345 Si / 1000 Ang^3
#
#
#
# Elastic Constant Matrix: (Units=GPa)
#
#
# Indices 1 2 3 4 5 6 
#
# 1 142.1976 53.2108 53.3745 0.0000 0.0000 0.0000
# 2 53.2108 142.1976 53.3745 0.0000 0.0000 0.0000
# 3 53.3745 53.3745 120.0962 0.0000 0.0000 0.0000
# 4 0.0000 0.0000 0.0000 27.9576 0.0000 0.0000
# 5 0.0000 0.0000 0.0000 0.0000 27.9576 0.0000
# 6 0.0000 0.0000 0.0000 0.0000 0.0000 44.4934
#
#
#
# Elastic Compliance Matrix: (Units=1/GPa)
#
#
# Indices 1 2 3 4 5 6 
#
# 1 0.008998 -0.002240 -0.003004 0.000000 0.000000 0.000000
# 2 -0.002240 0.008998 -0.003004 0.000000 0.000000 0.000000
# 3 -0.003004 -0.003004 0.010996 0.000000 0.000000 0.000000
# 4 0.000000 0.000000 0.000000 0.035768 0.000000 0.000000
# 5 0.000000 0.000000 0.000000 0.000000 0.035768 0.000000
# 6 0.000000 0.000000 0.000000 0.000000 0.000000 0.022475
#
#
# Mechanical properties :
#
#
# Convention : Reuss Voigt Hill
#
# Bulk Modulus (GPa) = 80.00856 80.49008 80.24932
# Shear Modulus (GPa) = 34.80331 36.38383 35.59357
#
# Velocity S-wave (km/s) = 4.05573 4.14680 4.10151
# Velocity P-wave (km/s) = 7.72955 7.80830 7.76902
#
# Compressibility (1/GPa) = 0.01249866
#
# Stress axis : x y z
#
# Youngs Moduli (GPa) = 111.13620 111.13620 90.93846
#
# Poissons Ratio (x) = 0.24891 0.27314
# Poissons Ratio (y) = 0.24891 0.27314
# Poissons Ratio (z) = 0.33381 0.33381
#
# Static dielectric constant tensor:
#      x y z
#    x 3.925650 0.000000 0.000000 
#    y 0.000000 3.925650 0.000000 
#    z 0.000000 0.000000 3.780700 
# 
# 
# High freq. dielectric constant tensor:
#      x y z
#    x 1.840640 0.000000 0.000000 
#    y 0.000000 1.840640 0.000000 
#    z 0.000000 0.000000 1.836800 
# 
# From -- ./inp_files/3751.got.cif
#   From: 2010.03.12/outbox.cif.g09.slc.cpg/sg192_2_cif.got.tgz:3751.got - 2010.04.01 12:16:15.
