data_PCOD8329336
_publ_section_title
;
Structure prediction by ZEFSAII (Michael W. Deem and Ramdas Pophale) SiO2 
 PCOD8329336
Probable space group: P 6/M M M
;
_chemical_formula_sum "Si O2"
_cell_formula_units_Z 168
_cell_length_a 18.773497
_cell_length_b 18.773497
_cell_length_c 34.295838
_cell_angle_alpha 90.000000
_cell_angle_beta 90.000000
_cell_angle_gamma 120.000000
_cell_volume 10467.968472
_symmetry_space_group_name_H-M "P 6/M M M"
_symmetry_group_IT_number 191
_symmetry_cell_setting 'hexagonal'
loop_
_space_group_symop_operation_xyz
x,y,z
x-y,x,z
-y,x-y,z
-x,-y,z
-x+y,-x,z
y,-x+y,z
x-y,-y,-z
-x,-x+y,-z
y,x,-z
-y,-x,-z
-x+y,y,-z
x,x-y,-z
-x,-y,-z
-x+y,-x,-z
y,-x+y,-z
x,y,-z
x-y,x,-z
-y,x-y,-z
-x+y,y,z
x,x-y,z
-y,-x,z
y,x,z
x-y,-y,z
-x,-x+y,z
loop_
_atom_site_type_symbol
_atom_site_label
_atom_site_fract_x
_atom_site_fract_y
_atom_site_fract_z
Si Si1 0.747542 0.092090 0.545194
Si Si2 0.374514 0.469353 0.877306
Si Si3 0.908166 0.253331 0.733116
Si Si4 0.497863 0.831820 0.957234
Si Si5 0.503558 0.169878 0.593680
Si Si6 0.906547 0.250506 0.822986
Si Si7 0.503628 0.333675 0.684024
O O1 0.732521 0.101530 0.500000
O O2 0.841781 0.158220 0.557085
O O3 0.683202 0.107363 0.569176
O O4 0.729955 0.000000 0.554343
O O5 0.431963 0.568038 0.869624
O O6 0.427970 0.427970 0.867705
O O7 0.347164 0.452057 0.922668
O O8 0.296744 0.427554 0.848514
O O9 0.841429 0.158572 0.722528
O O10 0.902074 0.272404 0.778214
O O11 0.892408 0.316565 0.708504
O O12 0.000000 0.270228 0.723561
O O13 0.402787 0.805574 0.955856
O O14 0.503716 0.751858 0.949421
O O15 0.535131 0.870545 0.000000
O O16 0.579958 0.159915 0.580113
O O17 0.526982 0.263491 0.585728
O O18 0.483066 0.146961 0.638857
O O19 0.847510 0.152491 0.829934
O O20 0.000000 0.276461 0.835117
O O21 0.527287 0.263644 0.691873
O O22 0.579848 0.420153 0.697587
#
# Coordination Sequence:
#
# PCOD8329336 Si02
#       7
#    24  24  24  24  24  24  24
#     4   9  18  32  48  65  86 113 144 178 218 262
#     4   9  17  27  39  57  80 106 135 165 198 239
#     4   9  18  31  46  64  85 110 139 172 211 253
#     4   9  16  25  37  52  71  97 130 167 203 236
#     4   9  17  29  45  65  90 120 151 180 209 243
#     4   9  17  30  47  64  83 108 138 171 208 252
#     4   9  17  29  45  65  90 119 149 179 210 244
#
# _framework density 16.048960000000001
#
# number of rings (size 3 to 8) (size 9 to 14) (size 15 to 20)
#    0.000    3.000    0.000    0.857    0.000    4.000 
#    0.000    5.000    0.000    1.571    0.000    3.000 
#    0.000    0.000    0.000    7.143    0.000    7.429 
#
# Total GULP energy -2082179.501488 kJ/mol
# GULP energy per Si atom -12393.925604 kJ/mol
# Density = 1.601243 g / cm^3
# Si number density = 16.048960 Si / 1000 Ang^3
#
#
#
# Elastic Constant Matrix: (Units=GPa)
#
#
# Indices 1 2 3 4 5 6 
#
# 1 88.3789 56.3643 40.8091 0.0000 0.0000 0.0000
# 2 56.3643 88.3789 40.8091 0.0000 0.0000 0.0000
# 3 40.8091 40.8091 55.7327 0.0000 0.0000 0.0000
# 4 0.0000 0.0000 0.0000 22.6624 0.0000 0.0000
# 5 0.0000 0.0000 0.0000 0.0000 22.6624 0.0000
# 6 0.0000 0.0000 0.0000 0.0000 0.0000 16.0073
#
#
#
# Elastic Compliance Matrix: (Units=1/GPa)
#
#
# Indices 1 2 3 4 5 6 
#
# 1 0.021502 -0.009734 -0.008616 0.000000 0.000000 0.000000
# 2 -0.009734 0.021502 -0.008616 0.000000 0.000000 0.000000
# 3 -0.008616 -0.008616 0.030561 0.000000 0.000000 0.000000
# 4 0.000000 0.000000 0.000000 0.044126 0.000000 0.000000
# 5 0.000000 0.000000 0.000000 0.000000 0.044126 0.000000
# 6 0.000000 0.000000 0.000000 0.000000 0.000000 0.062471
#
#
# Mechanical properties :
#
#
# Convention : Reuss Voigt Hill
#
# Bulk Modulus (GPa) = 50.94169 56.49503 53.71836
# Shear Modulus (GPa) = 17.55833 18.56697 18.06265
#
# Velocity S-wave (km/s) = 3.31123 3.40501 3.35844
# Velocity P-wave (km/s) = 6.81390 7.12298 6.97016
#
# Compressibility (1/GPa) = 0.01963029
#
# Stress axis : x y z
#
# Youngs Moduli (GPa) = 46.50823 46.50823 32.72114
#
# Poissons Ratio (x) = 0.45272 0.28194
# Poissons Ratio (y) = 0.45272 0.28194
# Poissons Ratio (z) = 0.40074 0.40074
#
# Static dielectric constant tensor:
#      x y z
#    x 3.067510 0.000000 0.000000 
#    y 0.000000 3.067510 0.000000 
#    z 0.000000 0.000000 3.159700 
# 
# 
# High freq. dielectric constant tensor:
#      x y z
#    x 1.601320 0.000000 0.000000 
#    y 0.000000 1.601320 0.000000 
#    z 0.000000 0.000000 1.620960 
# 
# From -- ./inp_files/10031.got.cif
#   From: 2010.03.12/outbox.cif.g09.slc.cpg/sg191_6_cif.got.tgz:10031.got - 2010.04.01 12:09:02.
