data_PCOD8329870
_publ_section_title
;
Structure prediction by ZEFSAII (Michael W. Deem and Ramdas Pophale) SiO2 
 PCOD8329870
Probable space group: P 63/M C M
;
_chemical_formula_sum "Si O2"
_cell_formula_units_Z 92
_cell_length_a 20.501679
_cell_length_b 20.501679
_cell_length_c 16.034522
_cell_angle_alpha 90.000000
_cell_angle_beta 90.000000
_cell_angle_gamma 120.000000
_cell_volume 5836.674958
_symmetry_space_group_name_H-M "P 63/M C M"
_symmetry_group_IT_number 193
_symmetry_cell_setting 'hexagonal'
loop_
_space_group_symop_operation_xyz
x,y,z
x-y,x,1/2+z
-y,x-y,z
-x,-y,1/2+z
-x+y,-x,z
y,-x+y,1/2+z
x-y,-y,1/2-z
-x,-x+y,1/2-z
y,x,1/2-z
-y,-x,-z
-x+y,y,-z
x,x-y,-z
-x,-y,-z
-x+y,-x,1/2-z
y,-x+y,-z
x,y,1/2-z
x-y,x,-z
-y,x-y,1/2-z
-x+y,y,1/2+z
x,x-y,1/2+z
-y,-x,1/2+z
y,x,z
x-y,-y,z
-x,-x+y,z
loop_
_atom_site_type_symbol
_atom_site_label
_atom_site_fract_x
_atom_site_fract_y
_atom_site_fract_z
Si Si1 0.168900 0.258316 0.658062
Si Si2 0.911184 0.088817 0.000000
Si Si3 0.666667 0.333334 0.654236
Si Si4 0.208155 0.540240 0.447579
Si Si5 0.912641 0.317960 0.154586
O O1 0.130235 0.247708 0.750000
O O2 0.212148 0.212148 0.656960
O O3 0.108382 0.229341 0.583059
O O4 0.229382 0.345781 0.644038
O O5 0.000000 0.124924 0.004860
O O6 0.666667 0.333334 0.750000
O O7 0.737441 0.410651 0.625905
O O8 0.254749 0.509498 0.500000
O O9 0.184997 0.592499 0.500000
O O10 0.132761 0.472475 0.409699
O O11 0.899988 0.334512 0.250000
O O12 0.000000 0.367695 0.130197
#
# Coordination Sequence:
#
# PCOD8329870 Si02
#       5
#    24  12   8  24  24
#     4   8  16  30  45  64  89 116 151 191 228 274
#     4  10  19  30  46  68  94 124 156 194 242 288
#     4   9  16  29  46  63  91 125 151 180 220 263
#     4   9  18  29  43  68  95 117 147 185 224 270
#     4   9  17  30  48  67  87 116 153 187 223 271
#
# _framework density 15.762399
#
# number of rings (size 3 to 8) (size 9 to 14) (size 15 to 20)
#    0.000    3.130    0.000    3.522    1.826    1.043 
#    0.000    0.000    0.000    1.565    0.000    0.000 
#    0.000    0.000    0.000    0.000    0.000    0.000 
#
# Total GULP energy -1140151.661122 kJ/mol
# GULP energy per Si atom -12392.952838 kJ/mol
# Density = 1.572652 g / cm^3
# Si number density = 15.762399 Si / 1000 Ang^3
#
#
#
# Elastic Constant Matrix: (Units=GPa)
#
#
# Indices 1 2 3 4 5 6 
#
# 1 77.3397 25.6602 50.0326 0.0000 -0.0001 0.0003
# 2 25.6602 77.3414 50.0330 0.0000 -0.0001 0.0002
# 3 50.0326 50.0330 132.6907 -0.0001 -0.0002 -0.0001
# 4 0.0000 0.0000 -0.0001 23.3907 0.0001 0.0000
# 5 -0.0001 -0.0001 -0.0002 0.0001 23.3905 0.0000
# 6 0.0003 0.0002 -0.0001 0.0000 0.0000 25.8403
#
#
#
# Elastic Compliance Matrix: (Units=1/GPa)
#
#
# Indices 1 2 3 4 5 6 
#
# 1 0.017336 -0.002014 -0.005777 0.000000 0.000000 0.000000
# 2 -0.002014 0.017335 -0.005777 0.000000 0.000000 0.000000
# 3 -0.005777 -0.005777 0.011893 0.000000 0.000000 0.000000
# 4 0.000000 0.000000 0.000000 0.042752 0.000000 0.000000
# 5 0.000000 0.000000 0.000000 0.000000 0.042752 0.000000
# 6 0.000000 0.000000 0.000000 0.000000 0.000000 0.038699
#
#
# Mechanical properties :
#
#
# Convention : Reuss Voigt Hill
#
# Bulk Modulus (GPa) = 51.47479 59.86925 55.67202
# Shear Modulus (GPa) = 24.46428 25.30071 24.88250
#
# Velocity S-wave (km/s) = 3.94390 4.01075 3.97747
# Velocity P-wave (km/s) = 7.31209 7.71447 7.51597
#
# Compressibility (1/GPa) = 0.01942699
#
# Stress axis : x y z
#
# Youngs Moduli (GPa) = 57.68480 57.68621 84.08369
#
# Poissons Ratio (x) = 0.11620 0.48576
# Poissons Ratio (y) = 0.11620 0.48575
# Poissons Ratio (z) = 0.33325 0.33325
#
# Static dielectric constant tensor:
#      x y z
#    x 2.823200 0.000000 0.000000 
#    y 0.000000 2.823200 0.000000 
#    z 0.000000 0.000000 3.260010 
# 
# 
# High freq. dielectric constant tensor:
#      x y z
#    x 1.588620 0.000000 0.000000 
#    y 0.000000 1.588620 0.000000 
#    z 0.000000 0.000000 1.616290 
# 
# From -- ./inp_files/3599.got.cif
#   From: 2010.03.12/outbox.cif.g09.slc.cpg/sg193_2_cif.got.tgz:3599.got - 2010.04.01 12:20:39.
