data_PCOD8329171
_publ_section_title
;
Structure prediction by ZEFSAII (Michael W. Deem and Ramdas Pophale) SiO2 
 PCOD8329171
Probable space group: P 6/M M M
;
_chemical_formula_sum "Si O2"
_cell_formula_units_Z 168
_cell_length_a 29.758079
_cell_length_b 29.758079
_cell_length_c 13.135299
_cell_angle_alpha 90.000000
_cell_angle_beta 90.000000
_cell_angle_gamma 120.000000
_cell_volume 10073.499740
_symmetry_space_group_name_H-M "P 6/M M M"
_symmetry_group_IT_number 191
_symmetry_cell_setting 'hexagonal'
loop_
_space_group_symop_operation_xyz
x,y,z
x-y,x,z
-y,x-y,z
-x,-y,z
-x+y,-x,z
y,-x+y,z
x-y,-y,-z
-x,-x+y,-z
y,x,-z
-y,-x,-z
-x+y,y,-z
x,x-y,-z
-x,-y,-z
-x+y,-x,-z
y,-x+y,-z
x,y,-z
x-y,x,-z
-y,x-y,-z
-x+y,y,z
x,x-y,z
-y,-x,z
y,x,z
x-y,-y,z
-x,-x+y,z
loop_
_atom_site_type_symbol
_atom_site_label
_atom_site_fract_x
_atom_site_fract_y
_atom_site_fract_z
Si Si1 0.666632 0.229370 0.879899
Si Si2 0.057530 0.842677 0.385004
Si Si3 0.418626 0.475996 0.612357
Si Si4 0.790078 0.105233 0.257849
Si Si5 0.662687 0.132738 0.768679
Si Si6 0.059521 0.363994 0.880031
Si Si7 0.257200 0.409960 0.389724
O O1 0.619456 0.238911 0.849425
O O2 0.720807 0.279194 0.843239
O O3 0.656576 0.175810 0.830110
O O4 0.668157 0.222504 0.000000
O O5 0.064419 0.826926 0.500000
O O6 0.096476 0.903525 0.366761
O O7 0.068076 0.809368 0.303133
O O8 0.000000 0.832857 0.367609
O O9 0.392171 0.468332 0.500000
O O10 0.473446 0.526555 0.609492
O O11 0.426963 0.426963 0.634910
O O12 0.387574 0.483507 0.703167
O O13 0.838377 0.161624 0.227704
O O14 0.753737 0.078823 0.160431
O O15 0.754173 0.109358 0.344588
O O16 0.674264 0.096979 0.843308
O O17 0.708325 0.163729 0.688174
O O18 0.000000 0.343124 0.845328
O O19 0.063639 0.363709 0.000000
O O20 0.284555 0.417706 0.500000
O O21 0.205006 0.410011 0.405808
#
# Coordination Sequence:
#
# PCOD8329171 Si02
#       7
#    24  24  24  24  24  24  24
#     4  10  21  37  56  76  97 121 153 198 251 301
#     4   9  16  26  42  64  89 117 151 192 236 281
#     4   9  18  32  49  70  96 124 154 189 228 270
#     4   9  17  29  46  65  86 118 160 201 236 271
#     4  11  19  31  50  73  94 121 157 192 226 274
#     4  10  21  34  46  64  95 131 161 192 234 282
#     4   9  17  28  42  64  94 121 145 178 221 267
#
# _framework density 16.677422
#
# number of rings (size 3 to 8) (size 9 to 14) (size 15 to 20)
#    0.000    2.429    0.000    3.571    0.000    3.143 
#    0.000    0.000    0.000    7.000    0.000    7.000 
#    0.000    6.857    0.000    0.000    0.000    0.000 
#
# Total GULP energy -2082031.129673 kJ/mol
# GULP energy per Si atom -12393.042439 kJ/mol
# Density = 1.663946 g / cm^3
# Si number density = 16.677422 Si / 1000 Ang^3
#
#
#
# Elastic Constant Matrix: (Units=GPa)
#
#
# Indices 1 2 3 4 5 6 
#
# 1 95.4988 48.8326 44.1224 0.0000 0.0000 0.0000
# 2 48.8326 95.4988 44.1224 0.0000 0.0000 0.0000
# 3 44.1224 44.1224 82.4308 0.0000 0.0000 0.0000
# 4 0.0000 0.0000 0.0000 23.1828 0.0000 0.0000
# 5 0.0000 0.0000 0.0000 0.0000 23.1828 0.0000
# 6 0.0000 0.0000 0.0000 0.0000 0.0000 23.3331
#
#
#
# Elastic Compliance Matrix: (Units=1/GPa)
#
#
# Indices 1 2 3 4 5 6 
#
# 1 0.015864 -0.005565 -0.005513 0.000000 0.000000 0.000000
# 2 -0.005565 0.015864 -0.005513 0.000000 0.000000 0.000000
# 3 -0.005513 -0.005513 0.018033 0.000000 0.000000 0.000000
# 4 0.000000 0.000000 0.000000 0.043135 0.000000 0.000000
# 5 0.000000 0.000000 0.000000 0.000000 0.043135 0.000000
# 6 0.000000 0.000000 0.000000 0.000000 0.000000 0.042858
#
#
# Mechanical properties :
#
#
# Convention : Reuss Voigt Hill
#
# Bulk Modulus (GPa) = 60.31329 60.84256 60.57793
# Shear Modulus (GPa) = 22.97835 23.02983 23.00409
#
# Velocity S-wave (km/s) = 3.71592 3.72008 3.71800
# Velocity P-wave (km/s) = 7.39282 7.41708 7.40496
#
# Compressibility (1/GPa) = 0.01658009
#
# Stress axis : x y z
#
# Youngs Moduli (GPa) = 63.03628 63.03628 55.45426
#
# Poissons Ratio (x) = 0.35079 0.30570
# Poissons Ratio (y) = 0.35079 0.30570
# Poissons Ratio (z) = 0.34750 0.34750
#
# Static dielectric constant tensor:
#      x y z
#    x 3.151870 0.000000 0.000000 
#    y 0.000000 3.151870 0.000000 
#    z 0.000000 0.000000 2.937890 
# 
# 
# High freq. dielectric constant tensor:
#      x y z
#    x 1.639460 0.000000 0.000000 
#    y 0.000000 1.639460 0.000000 
#    z 0.000000 0.000000 1.639830 
# 
# From -- ./inp_files/3617.got.cif
#   From: 2010.03.12/outbox.cif.g09.slc.cpg/sg191_2_cif.got.tgz:3617.got - 2010.04.01 12:09:02.
