data_PCOD8329674
_publ_section_title
;
Structure prediction by ZEFSAII (Michael W. Deem and Ramdas Pophale) SiO2 
 PCOD8329674
Probable space group: P 6/M C C
;
_chemical_formula_sum "Si O2"
_cell_formula_units_Z 96
_cell_length_a 18.376042
_cell_length_b 18.376042
_cell_length_c 14.961551
_cell_angle_alpha 90.000000
_cell_angle_beta 90.000000
_cell_angle_gamma 120.000000
_cell_volume 4375.333871
_symmetry_space_group_name_H-M "P 6/M C C"
_symmetry_group_IT_number 192
_symmetry_cell_setting 'hexagonal'
loop_
_space_group_symop_operation_xyz
x,y,z
x-y,x,z
-y,x-y,z
-x,-y,z
-x+y,-x,z
y,-x+y,z
x-y,-y,1/2-z
-x,-x+y,1/2-z
y,x,1/2-z
-y,-x,1/2-z
-x+y,y,1/2-z
x,x-y,1/2-z
-x,-y,-z
-x+y,-x,-z
y,-x+y,-z
x,y,-z
x-y,x,-z
-y,x-y,-z
-x+y,y,1/2+z
x,x-y,1/2+z
-y,-x,1/2+z
y,x,1/2+z
x-y,-y,1/2+z
-x,-x+y,1/2+z
loop_
_atom_site_type_symbol
_atom_site_label
_atom_site_fract_x
_atom_site_fract_y
_atom_site_fract_z
Si Si1 0.669491 0.173272 0.752444
Si Si2 0.368175 0.096514 0.900509
Si Si3 0.814483 0.869356 0.606419
Si Si4 0.453559 0.403537 0.098315
O O1 0.726205 0.273796 0.750000
O O2 0.572986 0.145972 0.750000
O O3 0.707342 0.149427 0.668543
O O4 0.667979 0.125816 0.843053
O O5 0.280448 0.084125 0.862686
O O6 0.362044 0.007437 0.909086
O O7 0.388174 0.138844 0.000000
O O8 0.879117 0.840842 0.644438
O O9 0.819029 0.870037 0.500000
O O10 0.500000 0.500000 0.137491
O O11 0.493064 0.408295 0.000000
#
# Coordination Sequence:
#
# PCOD8329674 Si02
#       4
#    24  24  24  24
#     4  12  26  42  64  94 135 176 219 276 344 414
#     4  10  22  39  64  97 131 171 225 280 329 396
#     4   9  18  34  59  94 136 177 218 265 325 395
#     4  10  21  42  70  94 120 165 223 283 339 396
#
# _framework density 21.941182000000001
#
# number of rings (size 3 to 8) (size 9 to 14) (size 15 to 20)
#    0.000    1.750    2.500    1.250    3.500    2.000 
#    0.000    0.000    0.000    3.000    0.000    0.000 
#    0.000    0.000    0.000    0.000    0.000    0.000 
#
# Total GULP energy -1189264.441573 kJ/mol
# GULP energy per Si atom -12388.171266 kJ/mol
# Density = 2.189124 g / cm^3
# Si number density = 21.941182 Si / 1000 Ang^3
#
#
#
# Elastic Constant Matrix: (Units=GPa)
#
#
# Indices 1 2 3 4 5 6 
#
# 1 130.2708 50.7113 42.6870 0.0000 0.0000 0.0000
# 2 50.7113 130.2708 42.6870 0.0000 0.0000 0.0000
# 3 42.6870 42.6870 84.3307 0.0000 0.0000 0.0000
# 4 0.0000 0.0000 0.0000 16.5912 0.0000 0.0000
# 5 0.0000 0.0000 0.0000 0.0000 16.5912 0.0000
# 6 0.0000 0.0000 0.0000 0.0000 0.0000 39.7798
#
#
#
# Elastic Compliance Matrix: (Units=1/GPa)
#
#
# Indices 1 2 3 4 5 6 
#
# 1 0.009914 -0.002655 -0.003674 0.000000 0.000000 0.000000
# 2 -0.002655 0.009914 -0.003674 0.000000 0.000000 0.000000
# 3 -0.003674 -0.003674 0.015578 0.000000 0.000000 0.000000
# 4 0.000000 0.000000 0.000000 0.060273 0.000000 0.000000
# 5 0.000000 0.000000 0.000000 0.000000 0.060273 0.000000
# 6 0.000000 0.000000 0.000000 0.000000 0.000000 0.025138
#
#
# Mechanical properties :
#
#
# Convention : Reuss Voigt Hill
#
# Bulk Modulus (GPa) = 64.94284 68.56030 66.75157
# Shear Modulus (GPa) = 24.24480 28.51158 26.37819
#
# Velocity S-wave (km/s) = 3.32775 3.60871 3.47107
# Velocity P-wave (km/s) = 6.66544 6.97702 6.82301
#
# Compressibility (1/GPa) = 0.01539816
#
# Stress axis : x y z
#
# Youngs Moduli (GPa) = 100.86827 100.86827 64.19411
#
# Poissons Ratio (x) = 0.26783 0.23586
# Poissons Ratio (y) = 0.26783 0.23586
# Poissons Ratio (z) = 0.37061 0.37061
#
# Static dielectric constant tensor:
#      x y z
#    x 3.984520 0.000000 0.000000 
#    y 0.000000 3.984520 0.000000 
#    z 0.000000 0.000000 4.203730 
# 
# 
# High freq. dielectric constant tensor:
#      x y z
#    x 1.860090 0.000000 0.000000 
#    y 0.000000 1.860090 0.000000 
#    z 0.000000 0.000000 1.853680 
# 
# From -- ./inp_files/2732.got.cif
#   From: 2010.03.12/outbox.cif.g09.slc.cpg/sg192_2_cif.got.tgz:2732.got - 2010.04.01 12:16:15.
