data_PCOD8329145
_publ_section_title
;
Structure prediction by ZEFSAII (Michael W. Deem and Ramdas Pophale) SiO2 
 PCOD8329145
Probable space group: P 6/M M M
;
_chemical_formula_sum "Si O2"
_cell_formula_units_Z 84
_cell_length_a 17.320603
_cell_length_b 17.320603
_cell_length_c 17.069592
_cell_angle_alpha 90.000000
_cell_angle_beta 90.000000
_cell_angle_gamma 120.000000
_cell_volume 4434.858701
_symmetry_space_group_name_H-M "P 6/M M M"
_symmetry_group_IT_number 191
_symmetry_cell_setting 'hexagonal'
loop_
_space_group_symop_operation_xyz
x,y,z
x-y,x,z
-y,x-y,z
-x,-y,z
-x+y,-x,z
y,-x+y,z
x-y,-y,-z
-x,-x+y,-z
y,x,-z
-y,-x,-z
-x+y,y,-z
x,x-y,-z
-x,-y,-z
-x+y,-x,-z
y,-x+y,-z
x,y,-z
x-y,x,-z
-y,x-y,-z
-x+y,y,z
x,x-y,z
-y,-x,z
y,x,z
x-y,-y,z
-x,-x+y,z
loop_
_atom_site_type_symbol
_atom_site_label
_atom_site_fract_x
_atom_site_fract_y
_atom_site_fract_z
Si Si1 0.272482 0.373627 0.652770
Si Si2 0.666521 0.152889 0.195154
Si Si3 0.532835 0.894913 0.500000
Si Si4 0.825325 0.000000 0.093283
Si Si5 0.000000 0.649552 0.907199
O O1 0.166343 0.332686 0.664837
O O2 0.292592 0.292592 0.642990
O O3 0.327485 0.433782 0.725841
O O4 0.301264 0.436924 0.576983
O O5 0.585575 0.171150 0.203239
O O6 0.754700 0.245301 0.178274
O O7 0.650471 0.087941 0.122568
O O8 0.425394 0.850787 0.500000
O O9 0.576446 0.000000 0.500000
O O10 0.824848 0.912424 0.125965
O O11 0.737758 0.000000 0.124451
O O12 0.826653 0.000000 0.000000
O O13 0.000000 0.646747 0.000000
#
# Coordination Sequence:
#
# PCOD8329145 Si02
#       5
#    24  24  12  12  12
#     4  10  20  35  57  85 116 152 191 232 278 333
#     4  11  23  39  59  83 112 146 186 233 284 337
#     4   9  17  30  53  84 116 148 186 229 275 328
#     4   9  17  31  53  81 110 137 169 214 270 330
#     4  11  23  39  59  80 107 145 189 233 281 342
#
# _framework density 18.940852
#
# number of rings (size 3 to 8) (size 9 to 14) (size 15 to 20)
#    0.000    1.857    1.429    3.000    0.000    4.571 
#    0.000    0.000    0.000    6.000    0.000    0.000 
#    0.000    3.429    0.000    0.000    0.000    0.000 
#
# Total GULP energy -1041796.556845 kJ/mol
# GULP energy per Si atom -12402.339962 kJ/mol
# Density = 1.889774 g / cm^3
# Si number density = 18.940852 Si / 1000 Ang^3
#
#
#
# Elastic Constant Matrix: (Units=GPa)
#
#
# Indices 1 2 3 4 5 6 
#
# 1 112.6673 56.9211 31.5112 0.0000 0.0000 0.0000
# 2 56.9211 112.6673 31.5112 0.0000 0.0000 0.0000
# 3 31.5112 31.5112 96.0417 0.0000 0.0000 0.0000
# 4 0.0000 0.0000 0.0000 21.0352 0.0000 0.0000
# 5 0.0000 0.0000 0.0000 0.0000 21.0352 0.0000
# 6 0.0000 0.0000 0.0000 0.0000 0.0000 27.8731
#
#
#
# Elastic Compliance Matrix: (Units=1/GPa)
#
#
# Indices 1 2 3 4 5 6 
#
# 1 0.012327 -0.005612 -0.002203 0.000000 0.000000 0.000000
# 2 -0.005612 0.012327 -0.002203 0.000000 0.000000 0.000000
# 3 -0.002203 -0.002203 0.011858 0.000000 0.000000 0.000000
# 4 0.000000 0.000000 0.000000 0.047539 0.000000 0.000000
# 5 0.000000 0.000000 0.000000 0.000000 0.047539 0.000000
# 6 0.000000 0.000000 0.000000 0.000000 0.000000 0.035877
#
#
# Mechanical properties :
#
#
# Convention : Reuss Voigt Hill
#
# Bulk Modulus (GPa) = 60.69617 62.36262 61.52939
# Shear Modulus (GPa) = 25.90731 27.41754 26.66242
#
# Velocity S-wave (km/s) = 3.70239 3.80878 3.75596
# Velocity P-wave (km/s) = 7.09870 7.23455 7.16695
#
# Compressibility (1/GPa) = 0.01647551
#
# Stress axis : x y z
#
# Youngs Moduli (GPa) = 81.12312 81.12312 84.33153
#
# Poissons Ratio (x) = 0.45522 0.18581
# Poissons Ratio (y) = 0.45522 0.18581
# Poissons Ratio (z) = 0.17874 0.17874
#
# Static dielectric constant tensor:
#      x y z
#    x 3.488260 0.000000 0.000000 
#    y 0.000000 3.488260 0.000000 
#    z 0.000000 0.000000 3.424200 
# 
# 
# High freq. dielectric constant tensor:
#      x y z
#    x 1.735150 0.000000 0.000000 
#    y 0.000000 1.735150 0.000000 
#    z 0.000000 0.000000 1.732020 
# 
# From -- ./inp_files/3997.got.cif
#   From: 2010.03.12/outbox.cif.g09.slc.cpg/sg191_2_cif.got.tgz:3997.got - 2010.04.01 12:09:02.
