data_PCOD8329902
_publ_section_title
;
Structure prediction by ZEFSAII (Michael W. Deem and Ramdas Pophale) SiO2 
 PCOD8329902
Probable space group: P 63/M C M
;
_chemical_formula_sum "Si O2"
_cell_formula_units_Z 168
_cell_length_a 21.028655
_cell_length_b 21.028655
_cell_length_c 25.028618
_cell_angle_alpha 90.000000
_cell_angle_beta 90.000000
_cell_angle_gamma 120.000000
_cell_volume 9584.964165
_symmetry_space_group_name_H-M "P 63/M C M"
_symmetry_group_IT_number 193
_symmetry_cell_setting 'hexagonal'
loop_
_space_group_symop_operation_xyz
x,y,z
x-y,x,1/2+z
-y,x-y,z
-x,-y,1/2+z
-x+y,-x,z
y,-x+y,1/2+z
x-y,-y,1/2-z
-x,-x+y,1/2-z
y,x,1/2-z
-y,-x,-z
-x+y,y,-z
x,x-y,-z
-x,-y,-z
-x+y,-x,1/2-z
y,-x+y,-z
x,y,1/2-z
x-y,x,-z
-y,x-y,1/2-z
-x+y,y,1/2+z
x,x-y,1/2+z
-y,-x,1/2+z
y,x,z
x-y,-y,z
-x,-x+y,z
loop_
_atom_site_type_symbol
_atom_site_label
_atom_site_fract_x
_atom_site_fract_y
_atom_site_fract_z
Si Si1 0.913175 0.466167 0.339680
Si Si2 0.851836 0.299288 0.188600
Si Si3 0.233088 0.919701 0.388731
Si Si4 0.915107 0.407335 0.540324
Si Si5 0.851020 0.284839 0.809362
Si Si6 0.114101 0.371712 0.505007
Si Si7 0.781351 0.080705 0.112999
O O1 0.867530 0.380278 0.325608
O O2 0.900830 0.474961 0.401162
O O3 0.875740 0.505242 0.307892
O O4 0.000000 0.502432 0.325350
O O5 0.873192 0.298320 0.250000
O O6 0.902947 0.280651 0.152526
O O7 0.766553 0.236418 0.177777
O O8 0.266207 0.923290 0.447670
O O9 0.145828 0.865209 0.381071
O O10 0.245694 0.000000 0.375903
O O11 0.880640 0.440320 0.500000
O O12 0.875479 0.322879 0.526483
O O13 0.000000 0.437737 0.528523
O O14 0.866035 0.264282 0.750000
O O15 0.899903 0.271418 0.852395
O O16 0.196767 0.393534 0.500000
O O17 0.071639 0.311224 0.550545
O O18 0.766855 0.000000 0.131396
#
# Coordination Sequence:
#
# PCOD8329902 Si02
#       7
#    24  24  24  24  24  24  24
#     4  11  21  34  56  80 102 136 181 224 265 312
#     4  10  22  38  53  75 107 140 176 218 267 317
#     4  10  20  33  53  79 105 136 173 213 261 315
#     4  10  19  31  49  74 103 132 165 209 260 307
#     4  10  21  36  53  76 105 137 175 218 265 313
#     4  10  19  32  52  75 103 135 169 210 257 308
#     4  10  19  33  53  76 105 137 168 212 262 308
#
# _framework density 17.527450999999999
#
# number of rings (size 3 to 8) (size 9 to 14) (size 15 to 20)
#    0.000    1.857    1.429    3.429    0.000    4.000 
#    0.857    0.000    0.000    0.571    0.000    0.000 
#    0.000    3.429    0.000    7.143    0.000    0.000 
#
# Total GULP energy -2082074.205948 kJ/mol
# GULP energy per Si atom -12393.298845 kJ/mol
# Density = 1.748756 g / cm^3
# Si number density = 17.527451 Si / 1000 Ang^3
#
#
#
# Elastic Constant Matrix: (Units=GPa)
#
#
# Indices 1 2 3 4 5 6 
#
# 1 103.5027 65.9500 43.2827 0.0000 0.0000 0.0000
# 2 65.9500 103.5027 43.2827 0.0000 0.0000 0.0000
# 3 43.2827 43.2827 89.4700 0.0000 0.0000 0.0000
# 4 0.0000 0.0000 0.0000 13.4244 0.0000 0.0000
# 5 0.0000 0.0000 0.0000 0.0000 13.4244 0.0000
# 6 0.0000 0.0000 0.0000 0.0000 0.0000 18.7764
#
#
#
# Elastic Compliance Matrix: (Units=1/GPa)
#
#
# Indices 1 2 3 4 5 6 
#
# 1 0.017234 -0.009395 -0.003792 0.000000 0.000000 0.000000
# 2 -0.009395 0.017234 -0.003792 0.000000 0.000000 0.000000
# 3 -0.003792 -0.003792 0.014846 0.000000 0.000000 0.000000
# 4 0.000000 0.000000 0.000000 0.074491 0.000000 0.000000
# 5 0.000000 0.000000 0.000000 0.000000 0.074491 0.000000
# 6 0.000000 0.000000 0.000000 0.000000 0.000000 0.053258
#
#
# Mechanical properties :
#
#
# Convention : Reuss Voigt Hill
#
# Bulk Modulus (GPa) = 65.12622 66.83400 65.98011
# Shear Modulus (GPa) = 17.20391 18.72237 17.96314
#
# Velocity S-wave (km/s) = 3.13635 3.27184 3.20481
# Velocity P-wave (km/s) = 7.09598 7.24480 7.17078
#
# Compressibility (1/GPa) = 0.01535480
#
# Stress axis : x y z
#
# Youngs Moduli (GPa) = 58.02531 58.02531 67.35894
#
# Poissons Ratio (x) = 0.54517 0.25543
# Poissons Ratio (y) = 0.54517 0.25543
# Poissons Ratio (z) = 0.22003 0.22003
#
# Static dielectric constant tensor:
#      x y z
#    x 3.196430 0.000000 0.000000 
#    y 0.000000 3.196430 0.000000 
#    z 0.000000 0.000000 3.579430 
# 
# 
# High freq. dielectric constant tensor:
#      x y z
#    x 1.663890 0.000000 0.000000 
#    y 0.000000 1.663890 0.000000 
#    z 0.000000 0.000000 1.698730 
# 
# From -- ./inp_files/7734.got.cif
#   From: 2010.03.12/outbox.cif.g09.slc.cpg/sg193_4_cif.got.tgz:7734.got - 2010.04.01 12:20:39.
