data_PCOD8329417
_publ_section_title
;
Structure prediction by ZEFSAII (Michael W. Deem and Ramdas Pophale) SiO2 
 PCOD8329417
Probable space group: P 6/M C C
;
_chemical_formula_sum "Si O2"
_cell_formula_units_Z 168
_cell_length_a 21.849809
_cell_length_b 21.849809
_cell_length_c 27.086884
_cell_angle_alpha 90.000000
_cell_angle_beta 90.000000
_cell_angle_gamma 120.000000
_cell_volume 11199.147624
_symmetry_space_group_name_H-M "P 6/M C C"
_symmetry_group_IT_number 192
_symmetry_cell_setting 'hexagonal'
loop_
_space_group_symop_operation_xyz
x,y,z
x-y,x,z
-y,x-y,z
-x,-y,z
-x+y,-x,z
y,-x+y,z
x-y,-y,1/2-z
-x,-x+y,1/2-z
y,x,1/2-z
-y,-x,1/2-z
-x+y,y,1/2-z
x,x-y,1/2-z
-x,-y,-z
-x+y,-x,-z
y,-x+y,-z
x,y,-z
x-y,x,-z
-y,x-y,-z
-x+y,y,1/2+z
x,x-y,1/2+z
-y,-x,1/2+z
y,x,1/2+z
x-y,-y,1/2+z
-x,-x+y,1/2+z
loop_
_atom_site_type_symbol
_atom_site_label
_atom_site_fract_x
_atom_site_fract_y
_atom_site_fract_z
Si Si1 0.469542 0.784936 0.597304
Si Si2 0.718759 0.423689 0.803232
Si Si3 0.849241 0.164850 0.058498
Si Si4 0.158054 0.071867 0.058942
Si Si5 0.312548 0.914047 0.941444
Si Si6 0.074805 0.397779 0.558467
Si Si7 0.195719 0.545904 0.443734
O O1 0.477746 0.758948 0.652029
O O2 0.527850 0.865594 0.586464
O O3 0.393887 0.780176 0.590886
O O4 0.477647 0.732680 0.559221
O O5 0.633093 0.379366 0.806653
O O6 0.731771 0.463541 0.750000
O O7 0.892642 0.129609 0.080105
O O8 0.768214 0.115164 0.074266
O O9 0.884161 0.243715 0.080971
O O10 0.854771 0.169201 0.000000
O O11 0.121961 0.114867 0.079679
O O12 0.158347 0.072669 0.000000
O O13 0.361016 0.994320 0.921776
O O14 0.321213 0.909646 0.000000
O O15 0.072455 0.389249 0.500000
O O16 0.119458 0.480629 0.573017
O O17 0.191024 0.566593 0.500000
#
# Coordination Sequence:
#
# PCOD8329417 Si02
#       7
#    24  24  24  24  24  24  24
#     4  12  19  30  45  67  87 115 146 180 225 262
#     4   8  15  30  48  67  88 104 136 186 224 260
#     4   9  15  26  40  52  71 107 151 184 212 248
#     4   9  15  21  31  48  69  95 132 180 225 254
#     4  10  19  29  42  60  87 119 153 184 213 262
#     4   9  18  30  40  55  84 122 154 183 214 251
#     4  11  20  29  42  63  93 121 149 180 215 258
#
# _framework density 15.001141000000001
#
# number of rings (size 3 to 8) (size 9 to 14) (size 15 to 20)
#    0.286    2.000    2.857    2.571    0.000    4.571 
#    0.000    2.143    0.000    0.000    0.000    1.000 
#    0.000    0.000    0.000    0.000    0.000    0.000 
#
# Total GULP energy -2081819.097406 kJ/mol
# GULP energy per Si atom -12391.780342 kJ/mol
# Density = 1.496700 g / cm^3
# Si number density = 15.001141 Si / 1000 Ang^3
#
#
#
# Elastic Constant Matrix: (Units=GPa)
#
#
# Indices 1 2 3 4 5 6 
#
# 1 87.3706 31.6182 19.7696 0.0000 0.0000 0.0000
# 2 31.6182 87.3706 19.7696 0.0000 0.0000 0.0000
# 3 19.7696 19.7696 48.0525 0.0000 0.0000 0.0000
# 4 0.0000 0.0000 0.0000 5.5845 0.0000 0.0000
# 5 0.0000 0.0000 0.0000 0.0000 5.5845 0.0000
# 6 0.0000 0.0000 0.0000 0.0000 0.0000 27.8762
#
#
#
# Elastic Compliance Matrix: (Units=1/GPa)
#
#
# Indices 1 2 3 4 5 6 
#
# 1 0.013836 -0.004101 -0.004005 0.000000 0.000000 0.000000
# 2 -0.004101 0.013836 -0.004005 0.000000 0.000000 0.000000
# 3 -0.004005 -0.004005 0.024106 0.000000 0.000000 0.000000
# 4 0.000000 0.000000 0.000000 0.179068 0.000000 0.000000
# 5 0.000000 0.000000 0.000000 0.000000 0.179068 0.000000
# 6 0.000000 0.000000 0.000000 0.000000 0.000000 0.035873
#
#
# Mechanical properties :
#
#
# Convention : Reuss Voigt Hill
#
# Bulk Modulus (GPa) = 36.29029 40.56763 38.42896
# Shear Modulus (GPa) = 10.43418 17.91810 14.17614
#
# Velocity S-wave (km/s) = 2.64021 3.45983 3.07743
# Velocity P-wave (km/s) = 5.79124 6.56219 6.18873
#
# Compressibility (1/GPa) = 0.02755558
#
# Stress axis : x y z
#
# Youngs Moduli (GPa) = 72.27653 72.27653 41.48318
#
# Poissons Ratio (x) = 0.29638 0.16615
# Poissons Ratio (y) = 0.29638 0.16615
# Poissons Ratio (z) = 0.28948 0.28948
#
# Static dielectric constant tensor:
#      x y z
#    x 2.955080 0.000000 0.000000 
#    y 0.000000 2.955080 0.000000 
#    z 0.000000 0.000000 2.368230 
# 
# 
# High freq. dielectric constant tensor:
#      x y z
#    x 1.575590 0.000000 0.000000 
#    y 0.000000 1.575590 0.000000 
#    z 0.000000 0.000000 1.498210 
# 
# From -- ./inp_files/6648.got.cif
#   From: 2010.03.12/outbox.cif.g09.slc.cpg/sg192_4_cif.got.tgz:6648.got - 2010.04.01 12:16:15.
