data_PCOD8329847
_publ_section_title
;
Structure prediction by ZEFSAII (Michael W. Deem and Ramdas Pophale) SiO2 
 PCOD8329847
Probable space group: P 63/M C M
;
_chemical_formula_sum "Si O2"
_cell_formula_units_Z 160
_cell_length_a 21.641720
_cell_length_b 21.641720
_cell_length_c 20.863164
_cell_angle_alpha 90.000000
_cell_angle_beta 90.000000
_cell_angle_gamma 120.000000
_cell_volume 8462.415621
_symmetry_space_group_name_H-M "P 63/M C M"
_symmetry_group_IT_number 193
_symmetry_cell_setting 'hexagonal'
loop_
_space_group_symop_operation_xyz
x,y,z
x-y,x,1/2+z
-y,x-y,z
-x,-y,1/2+z
-x+y,-x,z
y,-x+y,1/2+z
x-y,-y,1/2-z
-x,-x+y,1/2-z
y,x,1/2-z
-y,-x,-z
-x+y,y,-z
x,x-y,-z
-x,-y,-z
-x+y,-x,1/2-z
y,-x+y,-z
x,y,1/2-z
x-y,x,-z
-y,x-y,1/2-z
-x+y,y,1/2+z
x,x-y,1/2+z
-y,-x,1/2+z
y,x,z
x-y,-y,z
-x,-x+y,z
loop_
_atom_site_type_symbol
_atom_site_label
_atom_site_fract_x
_atom_site_fract_y
_atom_site_fract_z
Si Si1 0.627843 0.834961 0.822248
Si Si2 0.000000 0.000000 0.419102
Si Si3 0.514342 0.219274 0.852888
Si Si4 0.890768 0.890768 0.177121
Si Si5 0.185615 0.556008 0.321010
Si Si6 0.521151 0.332980 0.490378
Si Si7 0.767363 0.845875 0.676571
Si Si8 0.914918 0.566168 0.599946
O O1 0.648080 0.866185 0.750000
O O2 0.559863 0.755873 0.818315
O O3 0.691430 0.826305 0.854123
O O4 0.616385 0.889721 0.865602
O O5 0.933105 0.933105 0.386210
O O6 0.000000 0.000000 0.500000
O O7 0.565586 0.201574 0.810999
O O8 0.553214 0.305754 0.863382
O O9 0.498846 0.172198 0.916501
O O10 0.922033 0.922033 0.250000
O O11 0.884110 0.814724 0.170205
O O12 0.184194 0.525004 0.250000
O O13 0.110142 0.504434 0.355928
O O14 0.595535 0.404466 0.500000
O O15 0.530557 0.265279 0.500000
O O16 0.458458 0.333309 0.531662
O O17 0.755310 0.822132 0.750000
O O18 0.804623 0.804623 0.642674
O O19 0.000000 0.607335 0.590367
#
# Coordination Sequence:
#
# PCOD8329847 Si02
#       8
#    24   4  24  12  24  24  24  24
#     4  10  21  37  60  88 121 157 194 244 302 354
#     4  12  22  32  58  90 136 158 175 246 325 368
#     4  11  20  37  58  86 116 151 191 242 294 351
#     4  10  18  34  62  90 118 154 202 248 300 362
#     4  11  21  35  58  89 120 149 184 239 306 362
#     4  12  21  40  64  87 110 146 198 250 291 337
#     4   9  18  33  58  90 116 146 194 248 288 344
#     4  11  24  39  57  82 118 159 199 242 286 345
#
# _framework density 18.907131
#
# number of rings (size 3 to 8) (size 9 to 14) (size 15 to 20)
#    0.000    1.350    5.250    3.375    1.050    1.500 
#    0.000    1.500    3.300    1.800    0.000    0.000 
#    0.000    0.000    0.000    0.000    0.000    0.000 
#
# Total GULP energy -1982136.249603 kJ/mol
# GULP energy per Si atom -12388.351560 kJ/mol
# Density = 1.886410 g / cm^3
# Si number density = 18.907131 Si / 1000 Ang^3
#
#
#
# Elastic Constant Matrix: (Units=GPa)
#
#
# Indices 1 2 3 4 5 6 
#
# 1 124.4893 73.3987 29.9991 0.0000 0.0000 0.0000
# 2 73.3987 124.4893 29.9991 0.0000 0.0000 0.0000
# 3 29.9991 29.9991 108.4766 0.0000 0.0000 0.0000
# 4 0.0000 0.0000 0.0000 18.1009 0.0000 0.0000
# 5 0.0000 0.0000 0.0000 0.0000 18.1009 0.0000
# 6 0.0000 0.0000 0.0000 0.0000 0.0000 25.5453
#
#
#
# Elastic Compliance Matrix: (Units=1/GPa)
#
#
# Indices 1 2 3 4 5 6 
#
# 1 0.012544 -0.007029 -0.001525 0.000000 0.000000 0.000000
# 2 -0.007029 0.012544 -0.001525 0.000000 0.000000 0.000000
# 3 -0.001525 -0.001525 0.010062 0.000000 0.000000 0.000000
# 4 0.000000 0.000000 0.000000 0.055246 0.000000 0.000000
# 5 0.000000 0.000000 0.000000 0.000000 0.055246 0.000000
# 6 0.000000 0.000000 0.000000 0.000000 0.000000 0.039146
#
#
# Mechanical properties :
#
#
# Convention : Reuss Voigt Hill
#
# Bulk Modulus (GPa) = 66.70059 69.36099 68.03079
# Shear Modulus (GPa) = 23.81575 27.28666 25.55120
#
# Velocity S-wave (km/s) = 3.55296 3.80306 3.68013
# Velocity P-wave (km/s) = 7.22398 7.48659 7.35646
#
# Compressibility (1/GPa) = 0.01499237
#
# Stress axis : x y z
#
# Youngs Moduli (GPa) = 79.71645 79.71645 99.38107
#
# Poissons Ratio (x) = 0.56030 0.15160
# Poissons Ratio (y) = 0.56030 0.15160
# Poissons Ratio (z) = 0.12160 0.12160
#
# Static dielectric constant tensor:
#      x y z
#    x 3.489310 0.000000 0.000000 
#    y 0.000000 3.489310 0.000000 
#    z 0.000000 0.000000 3.561880 
# 
# 
# High freq. dielectric constant tensor:
#      x y z
#    x 1.725570 0.000000 0.000000 
#    y 0.000000 1.725570 0.000000 
#    z 0.000000 0.000000 1.723350 
# 
# From -- ./inp_files/6747.got.cif
#   From: 2010.03.12/outbox.cif.g09.slc.cpg/sg193_4_cif.got.tgz:6747.got - 2010.04.01 12:20:39.
