data_PCOD8329679
_publ_section_title
;
Structure prediction by ZEFSAII (Michael W. Deem and Ramdas Pophale) SiO2 
 PCOD8329679
Probable space group: P 6/M C C
;
_chemical_formula_sum "Si O2"
_cell_formula_units_Z 132
_cell_length_a 23.621929
_cell_length_b 23.621929
_cell_length_c 14.950793
_cell_angle_alpha 90.000000
_cell_angle_beta 90.000000
_cell_angle_gamma 120.000000
_cell_volume 7224.795851
_symmetry_space_group_name_H-M "P 6/M C C"
_symmetry_group_IT_number 192
_symmetry_cell_setting 'hexagonal'
loop_
_space_group_symop_operation_xyz
x,y,z
x-y,x,z
-y,x-y,z
-x,-y,z
-x+y,-x,z
y,-x+y,z
x-y,-y,1/2-z
-x,-x+y,1/2-z
y,x,1/2-z
-y,-x,1/2-z
-x+y,y,1/2-z
x,x-y,1/2-z
-x,-y,-z
-x+y,-x,-z
y,-x+y,-z
x,y,-z
x-y,x,-z
-y,x-y,-z
-x+y,y,1/2+z
x,x-y,1/2+z
-y,-x,1/2+z
y,x,1/2+z
x-y,-y,1/2+z
-x,-x+y,1/2+z
loop_
_atom_site_type_symbol
_atom_site_label
_atom_site_fract_x
_atom_site_fract_y
_atom_site_fract_z
Si Si1 0.928136 0.616651 0.603270
Si Si2 0.860024 0.880231 0.000000
Si Si3 0.076740 0.600718 0.247385
Si Si4 0.606199 0.684022 0.099660
Si Si5 0.161190 0.325219 0.898722
Si Si6 0.202236 0.054578 0.311444
O O1 0.918239 0.596426 0.500000
O O2 0.904723 0.550081 0.658766
O O3 0.880232 0.643900 0.631014
O O4 0.004494 0.670878 0.624084
O O5 0.925254 0.878767 0.000000
O O6 0.823223 0.845966 0.908632
O O7 0.110113 0.555057 0.250000
O O8 0.100530 0.645834 0.334947
O O9 0.000000 0.554322 0.250000
O O10 0.624763 0.758997 0.105524
O O11 0.582201 0.657185 0.000000
O O12 0.119709 0.270381 0.826969
O O13 0.152361 0.296505 0.000000
O O14 0.161394 0.080697 0.250000
O O15 0.206054 0.000000 0.250000
#
# Coordination Sequence:
#
# PCOD8329679 Si02
#       6
#    24  12  24  24  24  24
#     4   9  19  34  52  77 110 146 184 225 277 331
#     4  12  25  46  60  76  98 128 182 256 318 380
#     4   9  18  32  51  75 104 139 174 207 250 311
#     4   9  19  33  50  76 110 144 183 223 272 325
#     4  10  22  37  55  81 114 152 185 233 288 346
#     4  12  26  39  59  82 106 140 189 242 306 374
#
# _framework density 18.270413000000001
#
# number of rings (size 3 to 8) (size 9 to 14) (size 15 to 20)
#    0.000    2.000    2.727    0.091    5.091    1.455 
#    0.000    3.636    0.000    0.000    0.000    0.000 
#    7.273    0.000    2.182    0.000    0.000    0.000 
#
# Total GULP energy -1635580.312786 kJ/mol
# GULP energy per Si atom -12390.759945 kJ/mol
# Density = 1.822883 g / cm^3
# Si number density = 18.270413 Si / 1000 Ang^3
#
#
#
# Elastic Constant Matrix: (Units=GPa)
#
#
# Indices 1 2 3 4 5 6 
#
# 1 97.2013 47.7187 53.4130 0.0000 0.0000 0.0000
# 2 47.7187 97.2013 53.4130 0.0000 0.0000 0.0000
# 3 53.4130 53.4130 131.7823 0.0000 0.0000 0.0000
# 4 0.0000 0.0000 0.0000 26.3546 0.0000 0.0000
# 5 0.0000 0.0000 0.0000 0.0000 26.3546 0.0000
# 6 0.0000 0.0000 0.0000 0.0000 0.0000 24.7413
#
#
#
# Elastic Compliance Matrix: (Units=1/GPa)
#
#
# Indices 1 2 3 4 5 6 
#
# 1 0.015025 -0.005184 -0.003988 0.000000 0.000000 0.000000
# 2 -0.005184 0.015025 -0.003988 0.000000 0.000000 0.000000
# 3 -0.003988 -0.003988 0.010821 0.000000 0.000000 0.000000
# 4 0.000000 0.000000 0.000000 0.037944 0.000000 0.000000
# 5 0.000000 0.000000 0.000000 0.000000 0.037944 0.000000
# 6 0.000000 0.000000 0.000000 0.000000 0.000000 0.040418
#
#
# Mechanical properties :
#
#
# Convention : Reuss Voigt Hill
#
# Bulk Modulus (GPa) = 68.73587 70.58600 69.66093
# Shear Modulus (GPa) = 26.54647 26.93281 26.73964
#
# Velocity S-wave (km/s) = 3.81593 3.84359 3.82979
# Velocity P-wave (km/s) = 7.55766 7.64301 7.60045
#
# Compressibility (1/GPa) = 0.01454844
#
# Stress axis : x y z
#
# Youngs Moduli (GPa) = 66.55688 66.55688 92.40959
#
# Poissons Ratio (x) = 0.34506 0.36857
# Poissons Ratio (y) = 0.34506 0.36857
# Poissons Ratio (z) = 0.26546 0.26546
#
# Static dielectric constant tensor:
#      x y z
#    x 3.277820 0.000000 0.000000 
#    y 0.000000 3.277820 0.000000 
#    z 0.000000 0.000000 3.242280 
# 
# 
# High freq. dielectric constant tensor:
#      x y z
#    x 1.675620 0.000000 0.000000 
#    y 0.000000 1.675620 0.000000 
#    z 0.000000 0.000000 1.739810 
# 
# From -- ./inp_files/3246.got.cif
#   From: 2010.03.12/outbox.cif.g09.slc.cpg/sg192_2_cif.got.tgz:3246.got - 2010.04.01 12:16:15.
