data_PCOD8329623
_publ_section_title
;
Structure prediction by ZEFSAII (Michael W. Deem and Ramdas Pophale) SiO2 
 PCOD8329623
Probable space group: P 6/M C C
;
_chemical_formula_sum "Si O2"
_cell_formula_units_Z 104
_cell_length_a 19.718260
_cell_length_b 19.718260
_cell_length_c 15.911246
_cell_angle_alpha 90.000000
_cell_angle_beta 90.000000
_cell_angle_gamma 120.000000
_cell_volume 5357.621141
_symmetry_space_group_name_H-M "P 6/M C C"
_symmetry_group_IT_number 192
_symmetry_cell_setting 'hexagonal'
loop_
_space_group_symop_operation_xyz
x,y,z
x-y,x,z
-y,x-y,z
-x,-y,z
-x+y,-x,z
y,-x+y,z
x-y,-y,1/2-z
-x,-x+y,1/2-z
y,x,1/2-z
-y,-x,1/2-z
-x+y,y,1/2-z
x,x-y,1/2-z
-x,-y,-z
-x+y,-x,-z
y,-x+y,-z
x,y,-z
x-y,x,-z
-y,x-y,-z
-x+y,y,1/2+z
x,x-y,1/2+z
-y,-x,1/2+z
y,x,1/2+z
x-y,-y,1/2+z
-x,-x+y,1/2+z
loop_
_atom_site_type_symbol
_atom_site_label
_atom_site_fract_x
_atom_site_fract_y
_atom_site_fract_z
Si Si1 0.197116 0.696044 0.400709
Si Si2 0.711872 0.717075 0.403308
Si Si3 0.029846 0.585382 0.655550
Si Si4 0.837066 0.171362 0.599523
Si Si5 0.666668 0.333334 0.400622
O O1 0.181983 0.677611 0.500000
O O2 0.123702 0.630889 0.348829
O O3 0.207806 0.780989 0.379543
O O4 0.273511 0.694238 0.368136
O O5 0.730947 0.738186 0.500000
O O6 0.630849 0.635455 0.396981
O O7 0.702904 0.787070 0.360484
O O8 0.782846 0.708550 0.362202
O O9 0.000000 0.500000 0.615471
O O10 0.000000 0.577940 0.750000
O O11 0.842983 0.166280 0.500000
O O12 0.666667 0.333334 0.500000
#
# Coordination Sequence:
#
# PCOD8329623 Si02
#       5
#    24  24  24  24   8
#     4   9  18  32  50  76 100 127 168 210 254 304
#     4   9  17  31  52  74  96 126 165 209 250 296
#     4  10  21  34  48  67  99 130 169 205 252 300
#     4   8  15  28  48  75  99 123 161 204 250 295
#     4   9  18  30  51  79 104 127 166 218 262 309
#
# _framework density 19.4116
#
# number of rings (size 3 to 8) (size 9 to 14) (size 15 to 20)
#    0.000    3.000    0.000    2.077    3.231    1.846 
#    0.000    4.615    0.000    0.462    0.000    3.231 
#    0.000    0.000    0.000    8.308    0.000    9.231 
#
# Total GULP energy -1288774.037378 kJ/mol
# GULP energy per Si atom -12392.058052 kJ/mol
# Density = 1.936742 g / cm^3
# Si number density = 19.411600 Si / 1000 Ang^3
#
#
#
# Elastic Constant Matrix: (Units=GPa)
#
#
# Indices 1 2 3 4 5 6 
#
# 1 162.3718 111.9831 7.4383 0.0000 0.0000 0.0001
# 2 111.9831 162.3723 7.4386 -0.0001 0.0000 -0.0002
# 3 7.4383 7.4386 17.0196 0.0000 0.0000 0.0000
# 4 0.0000 -0.0001 0.0000 10.4056 0.0001 0.0000
# 5 0.0000 0.0000 0.0000 0.0001 10.4053 0.0000
# 6 0.0001 -0.0002 0.0000 0.0000 0.0000 25.1941
#
#
#
# Elastic Compliance Matrix: (Units=1/GPa)
#
#
# Indices 1 2 3 4 5 6 
#
# 1 0.011790 -0.008056 -0.001632 0.000000 0.000000 0.000000
# 2 -0.008056 0.011789 -0.001632 0.000000 0.000000 0.000000
# 3 -0.001632 -0.001632 0.060182 0.000000 0.000000 0.000000
# 4 0.000000 0.000000 0.000000 0.096102 -0.000001 0.000000
# 5 0.000000 0.000000 0.000000 -0.000001 0.096105 0.000000
# 6 0.000000 0.000000 0.000000 0.000000 0.000000 0.039692
#
#
# Mechanical properties :
#
#
# Convention : Reuss Voigt Hill
#
# Bulk Modulus (GPa) = 16.36072 66.16486 41.26279
# Shear Modulus (GPa) = 13.94031 23.52793 18.73412
#
# Velocity S-wave (km/s) = 2.68273 3.48524 3.10997
# Velocity P-wave (km/s) = 4.24766 7.09613 5.84798
#
# Compressibility (1/GPa) = 0.06112200
#
# Stress axis : x y z
#
# Youngs Moduli (GPa) = 84.82114 84.82128 16.61627
#
# Poissons Ratio (x) = 0.68333 0.02711
# Poissons Ratio (y) = 0.68333 0.02712
# Poissons Ratio (z) = 0.13839 0.13841
#
# Static dielectric constant tensor:
#      x y z
#    x 3.911570 0.000000 0.000000 
#    y 0.000000 3.911570 0.000000 
#    z 0.000000 0.000000 3.036640 
# 
# 
# High freq. dielectric constant tensor:
#      x y z
#    x 1.754090 0.000000 0.000000 
#    y 0.000000 1.754090 0.000000 
#    z 0.000000 0.000000 1.714110 
# 
# From -- ./inp_files/2858.got.cif
#   From: 2010.03.12/outbox.cif.g09.slc.cpg/sg192_2_cif.got.tgz:2858.got - 2010.04.01 12:16:15.
