data_PCOD8329049
_publ_section_title
;
Structure prediction by ZEFSAII (Michael W. Deem and Ramdas Pophale) SiO2 
 PCOD8329049
Probable space group: P 6/M M M
;
_chemical_formula_sum "Si O2"
_cell_formula_units_Z 144
_cell_length_a 32.398313
_cell_length_b 32.398313
_cell_length_c 9.124720
_cell_angle_alpha 90.000000
_cell_angle_beta 90.000000
_cell_angle_gamma 120.000000
_cell_volume 8294.590920
_symmetry_space_group_name_H-M "P 6/M M M"
_symmetry_group_IT_number 191
_symmetry_cell_setting 'hexagonal'
loop_
_space_group_symop_operation_xyz
x,y,z
x-y,x,z
-y,x-y,z
-x,-y,z
-x+y,-x,z
y,-x+y,z
x-y,-y,-z
-x,-x+y,-z
y,x,-z
-y,-x,-z
-x+y,y,-z
x,x-y,-z
-x,-y,-z
-x+y,-x,-z
y,-x+y,-z
x,y,-z
x-y,x,-z
-y,x-y,-z
-x+y,y,z
x,x-y,z
-y,-x,z
y,x,z
x-y,-y,z
-x,-x+y,z
loop_
_atom_site_type_symbol
_atom_site_label
_atom_site_fract_x
_atom_site_fract_y
_atom_site_fract_z
Si Si1 0.333286 0.759462 0.674490
Si Si2 0.616448 0.481135 0.336589
Si Si3 0.896450 0.198076 0.831594
Si Si4 0.620709 0.054017 0.828027
Si Si5 0.947860 0.141564 0.825533
Si Si6 0.348205 0.294053 0.670460
O O1 0.333811 0.757808 0.500000
O O2 0.375318 0.750635 0.735316
O O3 0.282150 0.717851 0.735748
O O4 0.342894 0.812165 0.721747
O O5 0.629574 0.503896 0.500000
O O6 0.568222 0.431779 0.344268
O O7 0.607738 0.514956 0.228778
O O8 0.840879 0.159122 0.814297
O O9 0.928800 0.176424 0.775465
O O10 0.908303 0.242288 0.729336
O O11 0.908415 0.214776 0.000000
O O12 0.669397 0.065215 0.752498
O O13 0.578771 0.000000 0.790036
O O14 0.629358 0.060294 0.000000
O O15 0.911945 0.088056 0.767970
O O16 0.000000 0.159561 0.757574
O O17 0.949316 0.141424 0.000000
O O18 0.359776 0.296570 0.500000
O O19 0.306430 0.306430 0.701829
#
# Coordination Sequence:
#
# PCOD8329049 Si02
#       6
#    24  24  24  24  24  24
#     4   8  13  23  43  72 103 132 161 192 226 268
#     4   9  18  32  50  74 103 131 159 196 243 288
#     4   9  17  29  46  68  92 119 153 191 231 278
#     4  10  21  36  53  71  91 121 163 205 242 284
#     4   8  13  21  35  56  81 110 145 185 227 270
#     4  10  20  33  50  71  94 121 153 190 235 286
#
# _framework density 17.360710999999998
#
# number of rings (size 3 to 8) (size 9 to 14) (size 15 to 20)
#    0.000    3.000    0.000    3.667    0.000    4.333 
#    0.000    2.500    0.000    3.667    0.000    1.167 
#    0.000    1.333    0.000    0.000    0.000    0.000 
#
# Total GULP energy -1784774.203499 kJ/mol
# GULP energy per Si atom -12394.265302 kJ/mol
# Density = 1.732120 g / cm^3
# Si number density = 17.360711 Si / 1000 Ang^3
#
#
#
# Elastic Constant Matrix: (Units=GPa)
#
#
# Indices 1 2 3 4 5 6 
#
# 1 92.3639 47.4246 32.6516 0.0000 0.0000 0.0000
# 2 47.4246 92.3639 32.6516 0.0000 0.0000 0.0000
# 3 32.6516 32.6516 53.4604 0.0000 0.0000 0.0000
# 4 0.0000 0.0000 0.0000 20.1905 0.0000 0.0000
# 5 0.0000 0.0000 0.0000 0.0000 20.1905 0.0000
# 6 0.0000 0.0000 0.0000 0.0000 0.0000 22.4697
#
#
#
# Elastic Compliance Matrix: (Units=1/GPa)
#
#
# Indices 1 2 3 4 5 6 
#
# 1 0.016131 -0.006121 -0.006114 0.000000 0.000000 0.000000
# 2 -0.006121 0.016131 -0.006114 0.000000 0.000000 0.000000
# 3 -0.006114 -0.006114 0.026173 0.000000 0.000000 0.000000
# 4 0.000000 0.000000 0.000000 0.049528 0.000000 0.000000
# 5 0.000000 0.000000 0.000000 0.000000 0.049528 0.000000
# 6 0.000000 0.000000 0.000000 0.000000 0.000000 0.044504
#
#
# Mechanical properties :
#
#
# Convention : Reuss Voigt Hill
#
# Bulk Modulus (GPa) = 46.00140 51.51598 48.75869
# Shear Modulus (GPa) = 20.33029 20.93419 20.63224
#
# Velocity S-wave (km/s) = 3.42578 3.47628 3.45112
# Velocity P-wave (km/s) = 6.49637 6.77134 6.63528
#
# Compressibility (1/GPa) = 0.02173847
#
# Stress axis : x y z
#
# Youngs Moduli (GPa) = 61.99276 61.99276 38.20697
#
# Poissons Ratio (x) = 0.37948 0.23358
# Poissons Ratio (y) = 0.37948 0.23358
# Poissons Ratio (z) = 0.37899 0.37899
#
# Static dielectric constant tensor:
#      x y z
#    x 3.376600 0.000000 0.000000 
#    y 0.000000 3.376600 0.000000 
#    z 0.000000 0.000000 2.955160 
# 
# 
# High freq. dielectric constant tensor:
#      x y z
#    x 1.666820 0.000000 0.000000 
#    y 0.000000 1.666820 0.000000 
#    z 0.000000 0.000000 1.636910 
# 
# From -- ./inp_files/1972.got.cif
#   From: 2010.03.12/outbox.cif.g09.slc.cpg/sg191_1_cif.got.tgz:1972.got - 2010.04.01 12:09:02.
