data_PCOD8329038
_publ_section_title
;
Structure prediction by ZEFSAII (Michael W. Deem and Ramdas Pophale) SiO2 
 PCOD8329038
Probable space group: P 6/M M M
;
_chemical_formula_sum "Si O2"
_cell_formula_units_Z 168
_cell_length_a 17.616272
_cell_length_b 17.616272
_cell_length_c 35.518103
_cell_angle_alpha 90.000000
_cell_angle_beta 90.000000
_cell_angle_gamma 120.000000
_cell_volume 9545.713788
_symmetry_space_group_name_H-M "P 6/M M M"
_symmetry_group_IT_number 191
_symmetry_cell_setting 'hexagonal'
loop_
_space_group_symop_operation_xyz
x,y,z
x-y,x,z
-y,x-y,z
-x,-y,z
-x+y,-x,z
y,-x+y,z
x-y,-y,-z
-x,-x+y,-z
y,x,-z
-y,-x,-z
-x+y,y,-z
x,x-y,-z
-x,-y,-z
-x+y,-x,-z
y,-x+y,-z
x,y,-z
x-y,x,-z
-y,x-y,-z
-x+y,y,z
x,x-y,z
-y,-x,z
y,x,z
x-y,-y,z
-x,-x+y,z
loop_
_atom_site_type_symbol
_atom_site_label
_atom_site_fract_x
_atom_site_fract_y
_atom_site_fract_z
Si Si1 0.098010 0.729645 0.679363
Si Si2 0.098010 0.368366 0.179363
Si Si3 0.159543 0.491684 0.609385
Si Si4 0.159543 0.491684 0.890615
Si Si5 0.366322 0.268118 0.457070
Si Si6 0.331712 0.841687 0.750000
Si Si7 0.731882 0.633679 0.957070
O O1 0.166345 0.833656 0.681810
O O2 0.108104 0.689371 0.640678
O O3 0.112435 0.678799 0.713275
O O4 0.000000 0.714664 0.681456
O O5 0.166346 0.332691 0.181811
O O6 0.108104 0.418733 0.140677
O O7 0.112436 0.433639 0.213274
O O8 0.000000 0.285338 0.181457
O O9 0.263032 0.526064 0.611590
O O10 0.143405 0.571703 0.616397
O O11 0.120959 0.449687 0.568794
O O12 0.263032 0.526064 0.888410
O O13 0.143405 0.571703 0.883603
O O14 0.120959 0.449687 0.931206
O O15 0.399232 0.291283 0.500000
O O16 0.330804 0.165402 0.448283
O O17 0.287156 0.287156 0.449070
O O18 0.427633 0.855265 0.749999
O O19 0.261469 0.738532 0.750000
O O20 0.834598 0.669196 0.948282
O O21 0.712844 0.712844 0.949070
O O22 0.708718 0.600769 0.000000
#
# Coordination Sequence:
#
# PCOD8329038 Si02
#       7
#    24  24  24  24  24  24  24
#     4  10  21  35  51  72  97 126 159 197 241 284
#     4  10  21  35  51  72  97 126 159 197 241 284
#     4  10  20  33  49  70  97 128 160 193 230 273
#     4  10  20  33  49  70  97 128 160 193 230 273
#     4   9  18  32  49  69  93 122 156 194 237 282
#     4  10  20  33  50  73 102 134 165 196 232 275
#     4   9  18  32  49  69  93 122 156 194 237 282
#
# _framework density 17.599523000000001
#
# number of rings (size 3 to 8) (size 9 to 14) (size 15 to 20)
#    0.000    2.286    0.000    2.571    0.000    5.143 
#    0.000    4.286    0.000    2.286    0.000    2.000 
#    0.000   10.286    0.000    0.286    0.000    1.143 
#
# Total GULP energy -2083265.451899 kJ/mol
# GULP energy per Si atom -12400.389595 kJ/mol
# Density = 1.755947 g / cm^3
# Si number density = 17.599523 Si / 1000 Ang^3
#
#
#
# Elastic Constant Matrix: (Units=GPa)
#
#
# Indices 1 2 3 4 5 6 
#
# 1 105.3488 77.5592 35.2603 0.0000 0.0000 0.0000
# 2 77.5592 105.3488 35.2603 0.0000 0.0000 0.0000
# 3 35.2603 35.2603 92.9334 0.0000 0.0000 0.0000
# 4 0.0000 0.0000 0.0000 12.0154 0.0000 0.0000
# 5 0.0000 0.0000 0.0000 0.0000 12.0154 0.0000
# 6 0.0000 0.0000 0.0000 0.0000 0.0000 13.8948
#
#
#
# Elastic Compliance Matrix: (Units=1/GPa)
#
#
# Indices 1 2 3 4 5 6 
#
# 1 0.021194 -0.014790 -0.002430 0.000000 0.000000 0.000000
# 2 -0.014790 0.021194 -0.002430 0.000000 0.000000 0.000000
# 3 -0.002430 -0.002430 0.012604 0.000000 0.000000 0.000000
# 4 0.000000 0.000000 0.000000 0.083226 0.000000 0.000000
# 5 0.000000 0.000000 0.000000 0.000000 0.083226 0.000000
# 6 0.000000 0.000000 0.000000 0.000000 0.000000 0.071969
#
#
# Mechanical properties :
#
#
# Convention : Reuss Voigt Hill
#
# Bulk Modulus (GPa) = 63.72222 66.64342 65.18282
# Shear Modulus (GPa) = 14.79525 17.95520 16.37522
#
# Velocity S-wave (km/s) = 2.90256 3.19754 3.05361
# Velocity P-wave (km/s) = 6.89337 7.18200 7.03916
#
# Compressibility (1/GPa) = 0.01569311
#
# Stress axis : x y z
#
# Youngs Moduli (GPa) = 47.18230 47.18230 79.33872
#
# Poissons Ratio (x) = 0.69784 0.19278
# Poissons Ratio (y) = 0.69784 0.19278
# Poissons Ratio (z) = 0.11464 0.11464
#
# Static dielectric constant tensor:
#      x y z
#    x 3.204030 0.000000 0.000000 
#    y 0.000000 3.204030 0.000000 
#    z 0.000000 0.000000 3.550470 
# 
# 
# High freq. dielectric constant tensor:
#      x y z
#    x 1.665610 0.000000 0.000000 
#    y 0.000000 1.665610 0.000000 
#    z 0.000000 0.000000 1.704090 
# 
# From -- ./inp_files/10762.got.cif
#   From: 2010.03.12/outbox.cif.g09.slc.cpg/sg191_6_cif.got.tgz:10762.got - 2010.04.01 12:09:02.
