data_PCOD8329646
_publ_section_title
;
Structure prediction by ZEFSAII (Michael W. Deem and Ramdas Pophale) SiO2 
 PCOD8329646
Probable space group: P 6/M C C
;
_chemical_formula_sum "Si O2"
_cell_formula_units_Z 92
_cell_length_a 19.350918
_cell_length_b 19.350918
_cell_length_c 14.225879
_cell_angle_alpha 90.000000
_cell_angle_beta 90.000000
_cell_angle_gamma 120.000000
_cell_volume 4613.312640
_symmetry_space_group_name_H-M "P 6/M C C"
_symmetry_group_IT_number 192
_symmetry_cell_setting 'hexagonal'
loop_
_space_group_symop_operation_xyz
x,y,z
x-y,x,z
-y,x-y,z
-x,-y,z
-x+y,-x,z
y,-x+y,z
x-y,-y,1/2-z
-x,-x+y,1/2-z
y,x,1/2-z
-y,-x,1/2-z
-x+y,y,1/2-z
x,x-y,1/2-z
-x,-y,-z
-x+y,-x,-z
y,-x+y,-z
x,y,-z
x-y,x,-z
-y,x-y,-z
-x+y,y,1/2+z
x,x-y,1/2+z
-y,-x,1/2+z
y,x,1/2+z
x-y,-y,1/2+z
-x,-x+y,1/2+z
loop_
_atom_site_type_symbol
_atom_site_label
_atom_site_fract_x
_atom_site_fract_y
_atom_site_fract_z
Si Si1 0.141096 0.453566 0.500000
Si Si2 0.691577 0.545450 0.500000
Si Si3 0.577466 0.154289 0.361837
Si Si4 0.157628 0.999539 0.860093
Si Si5 0.998324 0.720945 0.000000
Si Si6 0.333334 0.666668 0.639842
O O1 0.231169 0.466855 0.500000
O O2 0.119080 0.489646 0.408312
O O3 0.078819 0.361082 0.500000
O O4 0.634674 0.508906 0.407622
O O5 0.720666 0.637795 0.500000
O O6 0.569339 0.138678 0.250000
O O7 0.627686 0.244715 0.396926
O O8 0.153536 0.076427 0.893268
O O9 0.170478 0.000000 0.750000
O O10 0.231970 0.998952 0.906709
O O11 0.333334 0.666667 0.750000
#
# Coordination Sequence:
#
# PCOD8329646 Si02
#       6
#    12  12  24  24  12   8
#     4  11  23  38  60  85 119 158 199 246 296 360
#     4  11  23  38  60  85 119 158 199 246 296 360
#     4  10  21  37  63  91 113 147 202 263 307 342
#     4  10  21  40  67  94 119 152 202 258 302 343
#     4  12  26  41  55  88 132 174 196 222 292 380
#     4   9  15  31  59  91 109 131 193 262 311 334
#
# _framework density 19.942287
#
# number of rings (size 3 to 8) (size 9 to 14) (size 15 to 20)
#    0.000    1.565    2.609    2.609    0.000    5.217 
#    0.000    2.609    0.000    0.000    0.000    0.000 
#    0.000    0.000    0.000    0.000    0.000    0.000 
#
# Total GULP energy -1140305.822512 kJ/mol
# GULP energy per Si atom -12394.628506 kJ/mol
# Density = 1.989690 g / cm^3
# Si number density = 19.942287 Si / 1000 Ang^3
#
#
#
# Elastic Constant Matrix: (Units=GPa)
#
#
# Indices 1 2 3 4 5 6 
#
# 1 139.0626 61.3562 54.7064 0.0001 -0.0001 0.0003
# 2 61.3562 139.0636 54.7062 -0.0001 -0.0001 0.0001
# 3 54.7064 54.7062 138.1047 0.0000 0.0001 -0.0002
# 4 0.0001 -0.0001 0.0000 28.6587 0.0000 0.0000
# 5 -0.0001 -0.0001 0.0001 0.0000 28.6586 -0.0001
# 6 0.0003 0.0001 -0.0002 0.0000 -0.0001 38.8537
#
#
#
# Elastic Compliance Matrix: (Units=1/GPa)
#
#
# Indices 1 2 3 4 5 6 
#
# 1 0.009618 -0.003251 -0.002522 0.000000 0.000000 0.000000
# 2 -0.003251 0.009618 -0.002522 0.000000 0.000000 0.000000
# 3 -0.002522 -0.002522 0.009239 0.000000 0.000000 0.000000
# 4 0.000000 0.000000 0.000000 0.034893 0.000000 0.000000
# 5 0.000000 0.000000 0.000000 0.000000 0.034894 0.000000
# 6 0.000000 0.000000 0.000000 0.000000 0.000000 0.025738
#
#
# Mechanical properties :
#
#
# Convention : Reuss Voigt Hill
#
# Bulk Modulus (GPa) = 84.14661 84.19651 84.17156
# Shear Modulus (GPa) = 34.59019 35.59834 35.09427
#
# Velocity S-wave (km/s) = 4.16927 4.22959 4.19954
# Velocity P-wave (km/s) = 8.09097 8.13415 8.11258
#
# Compressibility (1/GPa) = 0.01188402
#
# Stress axis : x y z
#
# Youngs Moduli (GPa) = 103.97601 103.97708 108.23956
#
# Poissons Ratio (x) = 0.33806 0.27296
# Poissons Ratio (y) = 0.33806 0.27296
# Poissons Ratio (z) = 0.26221 0.26221
#
# Static dielectric constant tensor:
#      x y z
#    x 3.301470 -0.000010 -0.000010 
#    y -0.000010 3.301460 0.000010 
#    z -0.000010 0.000010 3.532180 
# 
# 
# High freq. dielectric constant tensor:
#      x y z
#    x 1.781010 0.000000 0.000000 
#    y 0.000000 1.781010 0.000000 
#    z 0.000000 0.000000 1.786740 
# 
# From -- ./inp_files/2824.got.cif
#   From: 2010.03.12/outbox.cif.g09.slc.cpg/sg192_2_cif.got.tgz:2824.got - 2010.04.01 12:16:15.
