data_PCOD8329428
_publ_section_title
;
Structure prediction by ZEFSAII (Michael W. Deem and Ramdas Pophale) SiO2 
 PCOD8329428
Probable space group: P 6/M C C
;
_chemical_formula_sum "Si O2"
_cell_formula_units_Z 92
_cell_length_a 20.194507
_cell_length_b 20.194507
_cell_length_c 14.237765
_cell_angle_alpha 90.000000
_cell_angle_beta 90.000000
_cell_angle_gamma 120.000000
_cell_volume 5028.505887
_symmetry_space_group_name_H-M "P 6/M C C"
_symmetry_group_IT_number 192
_symmetry_cell_setting 'hexagonal'
loop_
_space_group_symop_operation_xyz
x,y,z
x-y,x,z
-y,x-y,z
-x,-y,z
-x+y,-x,z
y,-x+y,z
x-y,-y,1/2-z
-x,-x+y,1/2-z
y,x,1/2-z
-y,-x,1/2-z
-x+y,y,1/2-z
x,x-y,1/2-z
-x,-y,-z
-x+y,-x,-z
y,-x+y,-z
x,y,-z
x-y,x,-z
-y,x-y,-z
-x+y,y,1/2+z
x,x-y,1/2+z
-y,-x,1/2+z
y,x,1/2+z
x-y,-y,1/2+z
-x,-x+y,1/2+z
loop_
_atom_site_type_symbol
_atom_site_label
_atom_site_fract_x
_atom_site_fract_y
_atom_site_fract_z
Si Si1 0.705214 0.008849 0.853653
Si Si2 0.376307 0.256373 0.500000
Si Si3 0.723681 0.599517 0.500000
Si Si4 0.666668 0.333334 0.636770
Si Si5 0.533645 0.280540 0.500000
Si Si6 0.138479 0.161015 0.611485
O O1 0.693303 0.072351 0.907079
O O2 0.670883 0.000000 0.750000
O O3 0.794242 0.034009 0.846743
O O4 0.657330 0.928634 0.906352
O O5 0.350099 0.166573 0.500000
O O6 0.469507 0.306552 0.500000
O O7 0.696529 0.509312 0.500000
O O8 0.666668 0.333334 0.750000
O O9 0.583862 0.311907 0.594804
O O10 0.057507 0.148164 0.647863
O O11 0.144602 0.165447 0.500000
#
# Coordination Sequence:
#
# PCOD8329428 Si02
#       6
#    24  12  12   8  12  24
#     4  11  21  31  50  78 107 147 201 250 283 332
#     4   9  19  36  53  75 115 153 187 227 282 336
#     4   9  19  36  53  75 115 153 187 227 282 336
#     4  10  20  40  70 104 121 133 170 214 259 332
#     4   8  20  38  62  90 122 156 174 216 280 334
#     4  10  19  31  45  62  94 142 199 253 308 345
#
# _framework density 18.295694000000001
#
# number of rings (size 3 to 8) (size 9 to 14) (size 15 to 20)
#    0.783    1.565    2.609    1.826    0.000    7.304 
#    0.000    0.000    0.000   14.087    0.000   14.609 
#    0.000    0.000    0.000    0.000    0.000    0.000 
#
# Total GULP energy -1140354.736949 kJ/mol
# GULP energy per Si atom -12395.160184 kJ/mol
# Density = 1.825405 g / cm^3
# Si number density = 18.295694 Si / 1000 Ang^3
#
#
#
# Elastic Constant Matrix: (Units=GPa)
#
#
# Indices 1 2 3 4 5 6 
#
# 1 46.0545 3.9497 10.3240 0.0001 0.0002 0.0004
# 2 3.9497 46.0554 10.3242 0.0001 0.0001 0.0004
# 3 10.3240 10.3242 128.4433 -0.0001 0.0002 0.0002
# 4 0.0001 0.0001 -0.0001 4.7377 0.0001 0.0000
# 5 0.0002 0.0001 0.0002 0.0001 4.7376 0.0000
# 6 0.0004 0.0004 0.0002 0.0000 0.0000 21.0524
#
#
#
# Elastic Compliance Matrix: (Units=1/GPa)
#
#
# Indices 1 2 3 4 5 6 
#
# 1 0.022218 -0.001533 -0.001663 -0.000001 -0.000001 0.000000
# 2 -0.001533 0.022217 -0.001663 0.000000 0.000000 0.000000
# 3 -0.001663 -0.001663 0.008053 0.000000 0.000000 0.000000
# 4 -0.000001 0.000000 0.000000 0.211071 -0.000003 0.000000
# 5 -0.000001 0.000000 0.000000 -0.000003 0.211078 0.000000
# 6 0.000000 0.000000 0.000000 0.000000 0.000000 0.047500
#
#
# Mechanical properties :
#
#
# Convention : Reuss Voigt Hill
#
# Bulk Modulus (GPa) = 23.37993 29.97211 26.67602
# Shear Modulus (GPa) = 9.15567 19.16924 14.16245
#
# Velocity S-wave (km/s) = 2.23945 3.24040 2.78526
# Velocity P-wave (km/s) = 4.41515 5.51524 4.99557
#
# Compressibility (1/GPa) = 0.04277172
#
# Stress axis : x y z
#
# Youngs Moduli (GPa) = 45.00945 45.01035 124.18018
#
# Poissons Ratio (x) = 0.06899 0.20646
# Poissons Ratio (y) = 0.06898 0.20646
# Poissons Ratio (z) = 0.07483 0.07483
#
# Static dielectric constant tensor:
#      x y z
#    x 3.226230 0.000000 0.000000 
#    y 0.000000 3.226210 0.000000 
#    z 0.000000 0.000000 3.264720 
# 
# 
# High freq. dielectric constant tensor:
#      x y z
#    x 1.690880 0.000000 0.000000 
#    y 0.000000 1.690880 0.000000 
#    z 0.000000 0.000000 1.706800 
# 
# From -- ./inp_files/2812.got.cif
#   From: 2010.03.12/outbox.cif.g09.slc.cpg/sg192_2_cif.got.tgz:2812.got - 2010.04.01 12:16:15.
