data_PCOD8329459
_publ_section_title
;
Structure prediction by ZEFSAII (Michael W. Deem and Ramdas Pophale) SiO2 
 PCOD8329459
Probable space group: P 6/M C C
;
_chemical_formula_sum "Si O2"
_cell_formula_units_Z 144
_cell_length_a 32.618844
_cell_length_b 32.618844
_cell_length_c 8.939322
_cell_angle_alpha 90.000000
_cell_angle_beta 90.000000
_cell_angle_gamma 120.000000
_cell_volume 8237.062178
_symmetry_space_group_name_H-M "P 6/M C C"
_symmetry_group_IT_number 192
_symmetry_cell_setting 'hexagonal'
loop_
_space_group_symop_operation_xyz
x,y,z
x-y,x,z
-y,x-y,z
-x,-y,z
-x+y,-x,z
y,-x+y,z
x-y,-y,1/2-z
-x,-x+y,1/2-z
y,x,1/2-z
-y,-x,1/2-z
-x+y,y,1/2-z
x,x-y,1/2-z
-x,-y,-z
-x+y,-x,-z
y,-x+y,-z
x,y,-z
x-y,x,-z
-y,x-y,-z
-x+y,y,1/2+z
x,x-y,1/2+z
-y,-x,1/2+z
y,x,1/2+z
x-y,-y,1/2+z
-x,-x+y,1/2+z
loop_
_atom_site_type_symbol
_atom_site_label
_atom_site_fract_x
_atom_site_fract_y
_atom_site_fract_z
Si Si1 0.364347 0.139123 0.177131
Si Si2 0.382881 0.530395 0.172883
Si Si3 0.861917 0.049967 0.175937
Si Si4 0.957015 0.434866 0.828186
Si Si5 0.233238 0.282792 0.675585
Si Si6 0.278282 0.472380 0.176173
O O1 0.349953 0.174977 0.250000
O O2 0.331250 0.087980 0.247634
O O3 0.418565 0.155161 0.218919
O O4 0.356268 0.137687 0.000000
O O5 0.421278 0.578723 0.250000
O O6 0.390193 0.485043 0.196005
O O7 0.330289 0.510396 0.237282
O O8 0.386229 0.543516 0.000000
O O9 0.909700 0.090301 0.250000
O O10 0.820412 0.061984 0.207356
O O11 0.848852 0.000000 0.250000
O O12 0.869751 0.047311 0.000000
O O13 0.955104 0.477552 0.750000
O O14 0.000000 0.430513 0.750000
O O15 0.969890 0.446249 0.000000
O O16 0.269790 0.269790 0.750000
O O17 0.243638 0.290836 0.500000
O O18 0.243974 0.487947 0.250000
O O19 0.275967 0.476571 0.000000
#
# Coordination Sequence:
#
# PCOD8329459 Si02
#       6
#    24  24  24  24  24  24
#     4  10  19  32  51  72  97 130 167 206 247 293
#     4   9  18  32  50  73 100 128 160 199 243 288
#     4  10  20  33  50  72  98 128 163 205 253 303
#     4   9  15  24  40  62  90 121 151 184 221 263
#     4  10  20  33  50  73 102 134 168 207 251 299
#     4   9  19  35  53  74 100 129 163 205 248 291
#
# _framework density 17.481960000000001
#
# number of rings (size 3 to 8) (size 9 to 14) (size 15 to 20)
#    0.000    2.500    0.000    3.000    0.000    5.333 
#    0.000    0.833    0.000    2.500    0.000    1.167 
#    0.000    0.000    0.000    0.000    0.000    0.000 
#
# Total GULP energy -1784839.655003 kJ/mol
# GULP energy per Si atom -12394.719826 kJ/mol
# Density = 1.744217 g / cm^3
# Si number density = 17.481960 Si / 1000 Ang^3
#
#
#
# Elastic Constant Matrix: (Units=GPa)
#
#
# Indices 1 2 3 4 5 6 
#
# 1 118.7142 73.0210 53.4680 0.0000 0.0000 0.0000
# 2 73.0210 118.7142 53.4680 0.0000 0.0000 0.0000
# 3 53.4680 53.4680 92.8630 0.0000 0.0000 0.0000
# 4 0.0000 0.0000 0.0000 25.8120 0.0000 0.0000
# 5 0.0000 0.0000 0.0000 0.0000 25.8120 0.0000
# 6 0.0000 0.0000 0.0000 0.0000 0.0000 22.8466
#
#
#
# Elastic Compliance Matrix: (Units=1/GPa)
#
#
# Indices 1 2 3 4 5 6 
#
# 1 0.014784 -0.007101 -0.004423 0.000000 0.000000 0.000000
# 2 -0.007101 0.014784 -0.004423 0.000000 0.000000 0.000000
# 3 -0.004423 -0.004423 0.015862 0.000000 0.000000 0.000000
# 4 0.000000 0.000000 0.000000 0.038742 0.000000 0.000000
# 5 0.000000 0.000000 0.000000 0.000000 0.038742 0.000000
# 6 0.000000 0.000000 0.000000 0.000000 0.000000 0.043770
#
#
# Mechanical properties :
#
#
# Convention : Reuss Voigt Hill
#
# Bulk Modulus (GPa) = 73.88908 76.68950 75.28929
# Shear Modulus (GPa) = 24.61952 24.91643 24.76798
#
# Velocity S-wave (km/s) = 3.75678 3.77936 3.76809
# Velocity P-wave (km/s) = 7.82148 7.93775 7.87983
#
# Compressibility (1/GPa) = 0.01353380
#
# Stress axis : x y z
#
# Youngs Moduli (GPa) = 67.64147 67.64147 63.04245
#
# Poissons Ratio (x) = 0.48034 0.27886
# Poissons Ratio (y) = 0.48034 0.27886
# Poissons Ratio (z) = 0.29921 0.29921
#
# Static dielectric constant tensor:
#      x y z
#    x -2.949010 0.000000 0.000000 
#    y 0.000000 -2.949010 0.000000 
#    z 0.000000 0.000000 3.342300 
# 
# 
# High freq. dielectric constant tensor:
#      x y z
#    x 1.662780 0.000000 0.000000 
#    y 0.000000 1.662780 0.000000 
#    z 0.000000 0.000000 1.687240 
# 
# From -- ./inp_files/1172.got.cif
#   From: 2010.03.12/outbox.cif.g09.slc.cpg/sg192_1_cif.got.tgz:1172.got - 2010.04.01 12:16:15.
