data_PCOD8329663
_publ_section_title
;
Structure prediction by ZEFSAII (Michael W. Deem and Ramdas Pophale) SiO2 
 PCOD8329663
Probable space group: P 6/M C C
;
_chemical_formula_sum "Si O2"
_cell_formula_units_Z 54
_cell_length_a 11.228102
_cell_length_b 11.228102
_cell_length_c 23.917469
_cell_angle_alpha 90.000000
_cell_angle_beta 90.000000
_cell_angle_gamma 120.000000
_cell_volume 2611.310710
_symmetry_space_group_name_H-M "P 6/M C C"
_symmetry_group_IT_number 192
_symmetry_cell_setting 'hexagonal'
loop_
_space_group_symop_operation_xyz
x,y,z
x-y,x,z
-y,x-y,z
-x,-y,z
-x+y,-x,z
y,-x+y,z
x-y,-y,1/2-z
-x,-x+y,1/2-z
y,x,1/2-z
-y,-x,1/2-z
-x+y,y,1/2-z
x,x-y,1/2-z
-x,-y,-z
-x+y,-x,-z
y,-x+y,-z
x,y,-z
x-y,x,-z
-y,x-y,-z
-x+y,y,1/2+z
x,x-y,1/2+z
-y,-x,1/2+z
y,x,1/2+z
x-y,-y,1/2+z
-x,-x+y,1/2+z
loop_
_atom_site_type_symbol
_atom_site_label
_atom_site_fract_x
_atom_site_fract_y
_atom_site_fract_z
Si Si1 0.519977 0.344135 0.653563
Si Si2 0.301481 0.057071 0.935967
Si Si3 0.500000 0.000000 0.250000
O O1 0.525696 0.202917 0.650879
O O2 0.430680 0.348089 0.601967
O O3 0.460076 0.365800 0.711609
O O4 0.259031 0.170449 0.922116
O O5 0.348516 0.066072 0.000000
#
# Coordination Sequence:
#
# PCOD8329663 Si02
#       3
#    24  24   6
#     4  10  23  38  60  92 123 159 203 255 309 376
#     4  10  21  39  63  91 124 165 210 258 312 374
#     4  12  20  40  62  84 126 164 206 250 312 370
#
# _framework density 20.679272000000001
#
# number of rings (size 3 to 8) (size 9 to 14) (size 15 to 20)
#    0.889    0.889    0.000    4.444    0.000    3.556 
#    0.000    5.556    0.000    0.000    0.000    3.111 
#    0.000    0.000    0.000    0.000    0.000    0.000 
#
# Total GULP energy -669202.198626 kJ/mol
# GULP energy per Si atom -12392.633308 kJ/mol
# Density = 2.063221 g / cm^3
# Si number density = 20.679272 Si / 1000 Ang^3
#
#
#
# Elastic Constant Matrix: (Units=GPa)
#
#
# Indices 1 2 3 4 5 6 
#
# 1 93.8281 39.1780 64.0655 0.0000 0.0000 0.0000
# 2 39.1780 93.8281 64.0655 0.0000 0.0000 0.0000
# 3 64.0655 64.0655 152.1122 0.0000 0.0000 0.0000
# 4 0.0000 0.0000 0.0000 43.9171 0.0000 0.0000
# 5 0.0000 0.0000 0.0000 0.0000 43.9171 0.0000
# 6 0.0000 0.0000 0.0000 0.0000 0.0000 27.3251
#
#
#
# Elastic Compliance Matrix: (Units=1/GPa)
#
#
# Indices 1 2 3 4 5 6 
#
# 1 0.015475 -0.002823 -0.005329 0.000000 0.000000 0.000000
# 2 -0.002823 0.015475 -0.005329 0.000000 0.000000 0.000000
# 3 -0.005329 -0.005329 0.011063 0.000000 0.000000 0.000000
# 4 0.000000 0.000000 0.000000 0.022770 0.000000 0.000000
# 5 0.000000 0.000000 0.000000 0.000000 0.022770 0.000000
# 6 0.000000 0.000000 0.000000 0.000000 0.000000 0.036596
#
#
# Mechanical properties :
#
#
# Convention : Reuss Voigt Hill
#
# Bulk Modulus (GPa) = 66.43738 74.93184 70.68461
# Shear Modulus (GPa) = 32.02517 34.52917 33.27717
#
# Velocity S-wave (km/s) = 3.93957 4.09069 4.01584
# Velocity P-wave (km/s) = 7.27261 7.65673 7.46714
#
# Compressibility (1/GPa) = 0.01505177
#
# Stress axis : x y z
#
# Youngs Moduli (GPa) = 64.62054 64.62054 90.39487
#
# Poissons Ratio (x) = 0.18244 0.48167
# Poissons Ratio (y) = 0.18244 0.48167
# Poissons Ratio (z) = 0.34433 0.34433
#
# Static dielectric constant tensor:
#      x y z
#    x 3.650290 0.000000 0.000000 
#    y 0.000000 3.650290 0.000000 
#    z 0.000000 0.000000 3.723480 
# 
# 
# High freq. dielectric constant tensor:
#      x y z
#    x 1.804780 0.000000 0.000000 
#    y 0.000000 1.804780 0.000000 
#    z 0.000000 0.000000 1.809530 
# 
# From -- ./inp_files/4497.got.cif
#   From: 2010.03.12/outbox.cif.g09.slc.cpg/sg192_3_cif.got.tgz:4497.got - 2010.04.01 12:16:15.
