data_PCOD8329070
_publ_section_title
;
Structure prediction by ZEFSAII (Michael W. Deem and Ramdas Pophale) SiO2 
 PCOD8329070
Probable space group: P 6/M M M
;
_chemical_formula_sum "Si O2"
_cell_formula_units_Z 132
_cell_length_a 26.460874
_cell_length_b 26.460874
_cell_length_c 12.137141
_cell_angle_alpha 90.000000
_cell_angle_beta 90.000000
_cell_angle_gamma 120.000000
_cell_volume 7359.620129
_symmetry_space_group_name_H-M "P 6/M M M"
_symmetry_group_IT_number 191
_symmetry_cell_setting 'hexagonal'
loop_
_space_group_symop_operation_xyz
x,y,z
x-y,x,z
-y,x-y,z
-x,-y,z
-x+y,-x,z
y,-x+y,z
x-y,-y,-z
-x,-x+y,-z
y,x,-z
-y,-x,-z
-x+y,y,-z
x,x-y,-z
-x,-y,-z
-x+y,-x,-z
y,-x+y,-z
x,y,-z
x-y,x,-z
-y,x-y,-z
-x+y,y,z
x,x-y,z
-y,-x,z
y,x,z
x-y,-y,z
-x,-x+y,z
loop_
_atom_site_type_symbol
_atom_site_label
_atom_site_fract_x
_atom_site_fract_y
_atom_site_fract_z
Si Si1 0.285417 0.000000 0.620069
Si Si2 0.650112 0.110023 0.233981
Si Si3 0.657431 0.886072 0.250425
Si Si4 0.333682 0.549902 0.374980
Si Si5 0.594662 0.594662 0.375503
Si Si6 0.593218 0.066832 0.000000
Si Si7 0.063467 0.235019 0.126928
O O1 0.298005 0.061066 0.671356
O O2 0.345651 0.000000 0.619890
O O3 0.261902 0.000000 0.500000
O O4 0.713931 0.117860 0.236198
O O5 0.653486 0.167196 0.284858
O O6 0.603820 0.056416 0.308641
O O7 0.629503 0.100849 0.107785
O O8 0.647191 0.823596 0.294064
O O9 0.694339 0.905373 0.137069
O O10 0.332647 0.526868 0.500000
O O11 0.272167 0.544334 0.346143
O O12 0.382759 0.617241 0.365291
O O13 0.572029 0.572029 0.500000
O O14 0.533553 0.067106 0.000000
O O15 0.580341 0.000000 0.000000
O O16 0.107348 0.214696 0.178597
O O17 0.000000 0.200886 0.185923
O O18 0.054790 0.219669 0.000000
#
# Coordination Sequence:
#
# PCOD8329070 Si02
#       7
#    12  24  24  24  12  12  24
#     4   9  18  32  48  70 105 146 180 214 268 331
#     4  11  21  37  57  83 113 150 188 226 279 341
#     4  10  20  33  50  77 107 139 181 227 272 320
#     4  10  21  39  63  88 112 140 180 233 289 339
#     4   9  18  33  53  80 111 141 179 227 277 334
#     4  11  24  40  57  80 116 159 193 226 272 334
#     4   9  17  29  47  71 101 135 173 218 267 317
#
# _framework density 17.935708000000002
#
# number of rings (size 3 to 8) (size 9 to 14) (size 15 to 20)
#    0.000    2.091    1.818    1.818    1.273    1.818 
#    0.000    1.364    0.000    2.364    0.000    2.545 
#    0.000    0.000    0.000    0.000    0.000    8.273 
#
# Total GULP energy -1635580.767571 kJ/mol
# GULP energy per Si atom -12390.763391 kJ/mol
# Density = 1.789489 g / cm^3
# Si number density = 17.935708 Si / 1000 Ang^3
#
#
#
# Elastic Constant Matrix: (Units=GPa)
#
#
# Indices 1 2 3 4 5 6 
#
# 1 95.9686 46.5439 45.8282 0.0000 0.0000 0.0000
# 2 46.5439 95.9686 45.8282 0.0000 0.0000 0.0000
# 3 45.8282 45.8282 115.7987 0.0000 0.0000 0.0000
# 4 0.0000 0.0000 0.0000 21.3203 0.0000 0.0000
# 5 0.0000 0.0000 0.0000 0.0000 21.3203 0.0000
# 6 0.0000 0.0000 0.0000 0.0000 0.0000 24.7124
#
#
#
# Elastic Compliance Matrix: (Units=1/GPa)
#
#
# Indices 1 2 3 4 5 6 
#
# 1 0.014823 -0.005410 -0.003725 0.000000 0.000000 0.000000
# 2 -0.005410 0.014823 -0.003725 0.000000 0.000000 0.000000
# 3 -0.003725 -0.003725 0.011584 0.000000 0.000000 0.000000
# 4 0.000000 0.000000 0.000000 0.046904 0.000000 0.000000
# 5 0.000000 0.000000 0.000000 0.000000 0.046904 0.000000
# 6 0.000000 0.000000 0.000000 0.000000 0.000000 0.040466
#
#
# Mechanical properties :
#
#
# Convention : Reuss Voigt Hill
#
# Bulk Modulus (GPa) = 64.47852 64.90405 64.69128
# Shear Modulus (GPa) = 24.22564 24.77298 24.49931
#
# Velocity S-wave (km/s) = 3.67916 3.72050 3.69989
# Velocity P-wave (km/s) = 7.35365 7.39741 7.37556
#
# Compressibility (1/GPa) = 0.01550904
#
# Stress axis : x y z
#
# Youngs Moduli (GPa) = 67.46379 67.46379 86.32449
#
# Poissons Ratio (x) = 0.36498 0.32157
# Poissons Ratio (y) = 0.36498 0.32157
# Poissons Ratio (z) = 0.25131 0.25131
#
# Static dielectric constant tensor:
#      x y z
#    x 3.473590 0.000000 0.000000 
#    y 0.000000 3.473590 0.000000 
#    z 0.000000 0.000000 3.360920 
# 
# 
# High freq. dielectric constant tensor:
#      x y z
#    x 1.695090 0.000000 0.000000 
#    y 0.000000 1.695090 0.000000 
#    z 0.000000 0.000000 1.681870 
# 
# From -- ./inp_files/3410.got.cif
#   From: 2010.03.12/outbox.cif.g09.slc.cpg/sg191_2_cif.got.tgz:3410.got - 2010.04.01 12:09:02.
