data_PCOD8329632
_publ_section_title
;
Structure prediction by ZEFSAII (Michael W. Deem and Ramdas Pophale) SiO2 
 PCOD8329632
Probable space group: P 6/M C C
;
_chemical_formula_sum "Si O2"
_cell_formula_units_Z 104
_cell_length_a 20.841955
_cell_length_b 20.841955
_cell_length_c 14.927649
_cell_angle_alpha 90.000000
_cell_angle_beta 90.000000
_cell_angle_gamma 120.000000
_cell_volume 5615.636061
_symmetry_space_group_name_H-M "P 6/M C C"
_symmetry_group_IT_number 192
_symmetry_cell_setting 'hexagonal'
loop_
_space_group_symop_operation_xyz
x,y,z
x-y,x,z
-y,x-y,z
-x,-y,z
-x+y,-x,z
y,-x+y,z
x-y,-y,1/2-z
-x,-x+y,1/2-z
y,x,1/2-z
-y,-x,1/2-z
-x+y,y,1/2-z
x,x-y,1/2-z
-x,-y,-z
-x+y,-x,-z
y,-x+y,-z
x,y,-z
x-y,x,-z
-y,x-y,-z
-x+y,y,1/2+z
x,x-y,1/2+z
-y,-x,1/2+z
y,x,1/2+z
x-y,-y,1/2+z
-x,-x+y,1/2+z
loop_
_atom_site_type_symbol
_atom_site_label
_atom_site_fract_x
_atom_site_fract_y
_atom_site_fract_z
Si Si1 0.686304 0.771218 0.500000
Si Si2 0.313699 0.228777 0.000000
Si Si3 0.333334 0.666668 0.894490
Si Si4 0.582205 0.667702 0.647540
Si Si5 0.667709 0.085507 0.852458
Si Si6 0.163803 0.581899 0.648253
O O1 0.719731 0.859863 0.500000
O O2 0.753681 0.753677 0.500000
O O3 0.636313 0.738230 0.588382
O O4 0.363690 0.261764 0.911618
O O5 0.374351 0.748667 0.857164
O O6 0.333334 0.666668 0.000000
O O7 0.585839 0.694999 0.749998
O O8 0.605506 0.605501 0.641408
O O9 0.499533 0.630929 0.605301
O O10 0.630941 0.131413 0.894695
O O11 0.135895 0.567948 0.750000
#
# Coordination Sequence:
#
# PCOD8329632 Si02
#       6
#    12  12   8  24  24  24
#     4  10  22  37  57  82 109 135 167 209 257 313
#     4  10  22  37  57  82 109 135 167 209 257 313
#     4  12  28  35  43  69 103 143 190 231 265 314
#     4   9  19  35  56  80 103 134 175 220 268 313
#     4   9  19  35  56  80 103 134 175 220 268 313
#     4  10  21  36  51  67 100 141 181 225 268 315
#
# _framework density 18.519718000000001
#
# number of rings (size 3 to 8) (size 9 to 14) (size 15 to 20)
#    0.000    2.308    0.000    1.385    6.462    3.692 
#    0.000    3.462    0.000    0.231    0.000    0.000 
#    0.000    0.000    0.000   11.538    0.000    0.000 
#
# Total GULP energy -1289513.039655 kJ/mol
# GULP energy per Si atom -12399.163843 kJ/mol
# Density = 1.847757 g / cm^3
# Si number density = 18.519718 Si / 1000 Ang^3
#
#
#
# Elastic Constant Matrix: (Units=GPa)
#
#
# Indices 1 2 3 4 5 6 
#
# 1 125.0416 63.1366 25.5014 0.0000 0.0000 -0.0001
# 2 63.1366 125.0424 25.5014 0.0000 0.0000 0.0000
# 3 25.5014 25.5014 78.9727 -0.0001 0.0000 0.0000
# 4 0.0000 0.0000 -0.0001 14.4174 0.0000 0.0000
# 5 0.0000 0.0000 0.0000 0.0000 14.4174 0.0000
# 6 -0.0001 0.0000 0.0000 0.0000 0.0000 30.9525
#
#
#
# Elastic Compliance Matrix: (Units=1/GPa)
#
#
# Indices 1 2 3 4 5 6 
#
# 1 0.010989 -0.005165 -0.001881 0.000000 0.000000 0.000000
# 2 -0.005165 0.010989 -0.001881 0.000000 0.000000 0.000000
# 3 -0.001881 -0.001881 0.013877 0.000000 0.000000 0.000000
# 4 0.000000 0.000000 0.000000 0.069361 0.000000 0.000000
# 5 0.000000 0.000000 0.000000 0.000000 0.069361 0.000000
# 6 0.000000 0.000000 0.000000 0.000000 0.000000 0.032308
#
#
# Mechanical properties :
#
#
# Convention : Reuss Voigt Hill
#
# Bulk Modulus (GPa) = 55.54816 61.92615 58.73716
# Shear Modulus (GPa) = 21.66974 26.28528 23.97751
#
# Velocity S-wave (km/s) = 3.42437 3.77146 3.60210
# Velocity P-wave (km/s) = 6.75975 7.24402 7.00607
#
# Compressibility (1/GPa) = 0.01800240
#
# Stress axis : x y z
#
# Youngs Moduli (GPa) = 91.00192 91.00259 72.06097
#
# Poissons Ratio (x) = 0.47002 0.13552
# Poissons Ratio (y) = 0.47002 0.13552
# Poissons Ratio (z) = 0.17114 0.17114
#
# Static dielectric constant tensor:
#      x y z
#    x 3.226840 0.000000 0.000000 
#    y 0.000000 3.226840 0.000000 
#    z 0.000000 0.000000 3.616560 
# 
# 
# High freq. dielectric constant tensor:
#      x y z
#    x 1.701130 0.000000 0.000000 
#    y 0.000000 1.701130 0.000000 
#    z 0.000000 0.000000 1.726810 
# 
# From -- ./inp_files/2930.got.cif
#   From: 2010.03.12/outbox.cif.g09.slc.cpg/sg192_2_cif.got.tgz:2930.got - 2010.04.01 12:16:15.
