data_PCOD8329179
_publ_section_title
;
Structure prediction by ZEFSAII (Michael W. Deem and Ramdas Pophale) SiO2 
 PCOD8329179
Probable space group: P 6/M M M
;
_chemical_formula_sum "Si O2"
_cell_formula_units_Z 132
_cell_length_a 17.979946
_cell_length_b 17.979946
_cell_length_c 28.327012
_cell_angle_alpha 90.000000
_cell_angle_beta 90.000000
_cell_angle_gamma 120.000000
_cell_volume 7930.638689
_symmetry_space_group_name_H-M "P 6/M M M"
_symmetry_group_IT_number 191
_symmetry_cell_setting 'hexagonal'
loop_
_space_group_symop_operation_xyz
x,y,z
x-y,x,z
-y,x-y,z
-x,-y,z
-x+y,-x,z
y,-x+y,z
x-y,-y,-z
-x,-x+y,-z
y,x,-z
-y,-x,-z
-x+y,y,-z
x,x-y,-z
-x,-y,-z
-x+y,-x,-z
y,-x+y,-z
x,y,-z
x-y,x,-z
-y,x-y,-z
-x+y,y,z
x,x-y,z
-y,-x,z
y,x,z
x-y,-y,z
-x,-x+y,z
loop_
_atom_site_type_symbol
_atom_site_label
_atom_site_fract_x
_atom_site_fract_y
_atom_site_fract_z
Si Si1 0.163415 0.666787 0.313299
Si Si2 0.095563 0.361346 0.765910
Si Si3 0.502795 0.665176 0.049861
Si Si4 0.333255 0.496663 0.578809
Si Si5 0.360327 0.265043 0.500000
Si Si6 0.493426 0.334098 0.151978
O O1 0.150271 0.575136 0.297968
O O2 0.263428 0.736573 0.306163
O O3 0.105145 0.690115 0.281155
O O4 0.134692 0.665113 0.367245
O O5 0.164276 0.328551 0.767005
O O6 0.105481 0.419329 0.810943
O O7 0.000000 0.278844 0.766424
O O8 0.519275 0.759638 0.046101
O O9 0.401222 0.598779 0.052756
O O10 0.542038 0.656861 0.099955
O O11 0.539632 0.647816 0.000000
O O12 0.263259 0.526518 0.571720
O O13 0.424727 0.575274 0.563507
O O14 0.310837 0.415729 0.546328
O O15 0.277748 0.277748 0.500000
O O16 0.327188 0.163594 0.500000
O O17 0.517101 0.258551 0.151281
O O18 0.577997 0.422004 0.166887
#
# Coordination Sequence:
#
# PCOD8329179 Si02
#       6
#    24  24  24  24  12  24
#     4   9  17  29  46  69  98 131 162 186 206 234
#     4  10  21  35  49  65  85 110 141 179 225 272
#     4   8  12  18  30  50  78 113 152 188 214 234
#     4   9  17  29  46  69  98 131 162 187 210 241
#     4  10  21  35  49  66  89 117 150 190 237 283
#     4   9  16  25  39  61  90 123 155 183 209 240
#
# _framework density 16.644310000000001
#
# number of rings (size 3 to 8) (size 9 to 14) (size 15 to 20)
#    0.000    2.909    0.000    1.545    0.000    6.545 
#    0.000    4.545    0.000    0.818    0.000    2.545 
#    0.000    0.000    0.000    9.091    0.000    0.000 
#
# Total GULP energy -1635365.433197 kJ/mol
# GULP energy per Si atom -12389.132070 kJ/mol
# Density = 1.660643 g / cm^3
# Si number density = 16.644310 Si / 1000 Ang^3
#
#
#
# Elastic Constant Matrix: (Units=GPa)
#
#
# Indices 1 2 3 4 5 6 
#
# 1 73.3466 51.2077 37.3790 0.0000 0.0000 0.0000
# 2 51.2077 73.3466 37.3790 0.0000 0.0000 0.0000
# 3 37.3790 37.3790 107.2606 0.0000 0.0000 0.0000
# 4 0.0000 0.0000 0.0000 7.5995 0.0000 0.0000
# 5 0.0000 0.0000 0.0000 0.0000 7.5995 0.0000
# 6 0.0000 0.0000 0.0000 0.0000 0.0000 11.0694
#
#
#
# Elastic Compliance Matrix: (Units=1/GPa)
#
#
# Indices 1 2 3 4 5 6 
#
# 1 0.027661 -0.017509 -0.003538 0.000000 0.000000 0.000000
# 2 -0.017509 0.027661 -0.003538 0.000000 0.000000 0.000000
# 3 -0.003538 -0.003538 0.011789 0.000000 0.000000 0.000000
# 4 0.000000 0.000000 0.000000 0.131588 0.000000 0.000000
# 5 0.000000 0.000000 0.000000 0.000000 0.131588 0.000000
# 6 0.000000 0.000000 0.000000 0.000000 0.000000 0.090339
#
#
# Mechanical properties :
#
#
# Convention : Reuss Voigt Hill
#
# Bulk Modulus (GPa) = 55.73654 56.20947 55.97300
# Shear Modulus (GPa) = 10.50919 13.78622 12.14770
#
# Velocity S-wave (km/s) = 2.51549 2.88111 2.70449
# Velocity P-wave (km/s) = 6.48047 6.70165 6.59198
#
# Compressibility (1/GPa) = 0.01794155
#
# Stress axis : x y z
#
# Youngs Moduli (GPa) = 36.15226 36.15226 84.82555
#
# Poissons Ratio (x) = 0.63298 0.30010
# Poissons Ratio (y) = 0.63298 0.30010
# Poissons Ratio (z) = 0.12790 0.12790
#
# Static dielectric constant tensor:
#      x y z
#    x 2.770190 0.000000 0.000000 
#    y 0.000000 2.770190 0.000000 
#    z 0.000000 0.000000 3.766490 
# 
# 
# High freq. dielectric constant tensor:
#      x y z
#    x 1.598890 0.000000 0.000000 
#    y 0.000000 1.598890 0.000000 
#    z 0.000000 0.000000 1.673300 
# 
# From -- ./inp_files/10554.got.cif
#   From: 2010.03.12/outbox.cif.g09.slc.cpg/sg191_6_cif.got.tgz:10554.got - 2010.04.01 12:09:02.
