data_PCOD8329778
_publ_section_title
;
Structure prediction by ZEFSAII (Michael W. Deem and Ramdas Pophale) SiO2 
 PCOD8329778
Probable space group: P 63/M C M
;
_chemical_formula_sum "Si O2"
_cell_formula_units_Z 144
_cell_length_a 25.114577
_cell_length_b 25.114577
_cell_length_c 16.699213
_cell_angle_alpha 90.000000
_cell_angle_beta 90.000000
_cell_angle_gamma 120.000000
_cell_volume 9121.754331
_symmetry_space_group_name_H-M "P 63/M C M"
_symmetry_group_IT_number 193
_symmetry_cell_setting 'hexagonal'
loop_
_space_group_symop_operation_xyz
x,y,z
x-y,x,1/2+z
-y,x-y,z
-x,-y,1/2+z
-x+y,-x,z
y,-x+y,1/2+z
x-y,-y,1/2-z
-x,-x+y,1/2-z
y,x,1/2-z
-y,-x,-z
-x+y,y,-z
x,x-y,-z
-x,-y,-z
-x+y,-x,1/2-z
y,-x+y,-z
x,y,1/2-z
x-y,x,-z
-y,x-y,1/2-z
-x+y,y,1/2+z
x,x-y,1/2+z
-y,-x,1/2+z
y,x,z
x-y,-y,z
-x,-x+y,z
loop_
_atom_site_type_symbol
_atom_site_label
_atom_site_fract_x
_atom_site_fract_y
_atom_site_fract_z
Si Si1 0.929084 0.780101 0.428967
Si Si2 0.930504 0.257426 0.016724
Si Si3 0.649579 0.419700 0.924077
Si Si4 0.744930 0.929592 0.839766
Si Si5 0.456142 0.777921 0.843331
Si Si6 0.169756 0.460644 0.483700
O O1 0.901026 0.802052 0.500000
O O2 0.922385 0.713946 0.448600
O O3 0.888725 0.773629 0.350585
O O4 0.000000 0.831121 0.414172
O O5 0.908497 0.221218 0.101113
O O6 0.893574 0.292680 0.998454
O O7 0.000000 0.311579 0.022121
O O8 0.710731 0.427203 0.883509
O O9 0.596102 0.393284 0.856515
O O10 0.627222 0.372779 0.000000
O O11 0.662276 0.485898 0.956114
O O12 0.720488 0.923560 0.750000
O O13 0.796744 0.000000 0.860312
O O14 0.471568 0.778053 0.750000
O O15 0.517672 0.825655 0.891022
O O16 0.221981 0.443961 0.500000
#
# Coordination Sequence:
#
# PCOD8329778 Si02
#       6
#    24  24  24  24  24  24
#     4   9  16  27  45  65  84 110 143 177 211 249
#     4   9  17  30  47  65  84 109 144 182 216 250
#     4   9  17  28  42  60  87 118 141 168 209 251
#     4   9  17  28  43  64  89 114 137 167 212 260
#     4  10  18  27  42  64  88 113 143 172 202 252
#     4   9  17  28  43  63  88 112 136 171 217 255
#
# _framework density 15.786436999999999
#
# number of rings (size 3 to 8) (size 9 to 14) (size 15 to 20)
#    0.000    2.833    0.000    5.333    0.000    3.000 
#    0.000    0.000    0.000    8.500    0.000    0.000 
#    0.000    0.000    0.000    0.000    0.000    0.000 
#
# Total GULP energy -1784402.824558 kJ/mol
# GULP energy per Si atom -12391.686282 kJ/mol
# Density = 1.575051 g / cm^3
# Si number density = 15.786437 Si / 1000 Ang^3
#
#
#
# Elastic Constant Matrix: (Units=GPa)
#
#
# Indices 1 2 3 4 5 6 
#
# 1 82.5200 38.7062 20.9350 0.0000 0.0000 0.0000
# 2 38.7062 82.5200 20.9350 0.0000 0.0000 0.0000
# 3 20.9350 20.9350 66.5181 0.0000 0.0000 0.0000
# 4 0.0000 0.0000 0.0000 13.4122 0.0000 0.0000
# 5 0.0000 0.0000 0.0000 0.0000 13.4122 0.0000
# 6 0.0000 0.0000 0.0000 0.0000 0.0000 21.9069
#
#
#
# Elastic Compliance Matrix: (Units=1/GPa)
#
#
# Indices 1 2 3 4 5 6 
#
# 1 0.016039 -0.006784 -0.002913 0.000000 0.000000 0.000000
# 2 -0.006784 0.016039 -0.002913 0.000000 0.000000 0.000000
# 3 -0.002913 -0.002913 0.016867 0.000000 0.000000 0.000000
# 4 0.000000 0.000000 0.000000 0.074559 0.000000 0.000000
# 5 0.000000 0.000000 0.000000 0.000000 0.074559 0.000000
# 6 0.000000 0.000000 0.000000 0.000000 0.000000 0.045648
#
#
# Mechanical properties :
#
#
# Convention : Reuss Voigt Hill
#
# Bulk Modulus (GPa) = 42.14804 43.63448 42.89126
# Shear Modulus (GPa) = 18.06099 19.81175 18.93637
#
# Velocity S-wave (km/s) = 3.38610 3.54642 3.46719
# Velocity P-wave (km/s) = 6.48417 6.66858 6.57702
#
# Compressibility (1/GPa) = 0.02372590
#
# Stress axis : x y z
#
# Youngs Moduli (GPa) = 62.34620 62.34620 59.28746
#
# Poissons Ratio (x) = 0.42298 0.17269
# Poissons Ratio (y) = 0.42298 0.17269
# Poissons Ratio (z) = 0.18160 0.18160
#
# Static dielectric constant tensor:
#      x y z
#    x 2.907990 0.000000 0.000000 
#    y 0.000000 2.907990 0.000000 
#    z 0.000000 0.000000 2.999290 
# 
# 
# High freq. dielectric constant tensor:
#      x y z
#    x 1.588580 0.000000 0.000000 
#    y 0.000000 1.588580 0.000000 
#    z 0.000000 0.000000 1.596860 
# 
# From -- ./inp_files/5599.got.cif
#   From: 2010.03.12/outbox.cif.g09.slc.cpg/sg193_3_cif.got.tgz:5599.got - 2010.04.01 12:20:39.
