data_PCOD8329535
_publ_section_title
;
Structure prediction by ZEFSAII (Michael W. Deem and Ramdas Pophale) SiO2 
 PCOD8329535
Probable space group: P 6/M C C
;
_chemical_formula_sum "Si O2"
_cell_formula_units_Z 144
_cell_length_a 32.272208
_cell_length_b 32.272208
_cell_length_c 8.746542
_cell_angle_alpha 90.000000
_cell_angle_beta 90.000000
_cell_angle_gamma 120.000000
_cell_volume 7889.043987
_symmetry_space_group_name_H-M "P 6/M C C"
_symmetry_group_IT_number 192
_symmetry_cell_setting 'hexagonal'
loop_
_space_group_symop_operation_xyz
x,y,z
x-y,x,z
-y,x-y,z
-x,-y,z
-x+y,-x,z
y,-x+y,z
x-y,-y,1/2-z
-x,-x+y,1/2-z
y,x,1/2-z
-y,-x,1/2-z
-x+y,y,1/2-z
x,x-y,1/2-z
-x,-y,-z
-x+y,-x,-z
y,-x+y,-z
x,y,-z
x-y,x,-z
-y,x-y,-z
-x+y,y,1/2+z
x,x-y,1/2+z
-y,-x,1/2+z
y,x,1/2+z
x-y,-y,1/2+z
-x,-x+y,1/2+z
loop_
_atom_site_type_symbol
_atom_site_label
_atom_site_fract_x
_atom_site_fract_y
_atom_site_fract_z
Si Si1 0.436047 0.050007 0.681676
Si Si2 0.474022 0.861845 0.820053
Si Si3 0.190062 0.138526 0.820833
Si Si4 0.382128 0.284724 0.681757
Si Si5 0.893525 0.193764 0.320342
Si Si6 0.279578 0.472756 0.823072
O O1 0.434796 0.048380 0.500000
O O2 0.488193 0.089429 0.738397
O O3 0.394893 0.059942 0.743804
O O4 0.426581 0.000000 0.750000
O O5 0.421934 0.843867 0.750000
O O6 0.486581 0.820299 0.785056
O O7 0.475329 0.871569 0.000000
O O8 0.157345 0.157345 0.750000
O O9 0.173891 0.086946 0.750000
O O10 0.245202 0.175455 0.780516
O O11 0.181575 0.132408 0.000000
O O12 0.381968 0.290010 0.500000
O O13 0.330411 0.245237 0.741922
O O14 0.421495 0.270673 0.736247
O O15 0.841734 0.158267 0.250000
O O16 0.887557 0.197587 0.500000
O O17 0.243752 0.487503 0.750000
O O18 0.269102 0.468608 0.000000
#
# Coordination Sequence:
#
# PCOD8329535 Si02
#       6
#    24  24  24  24  24  24
#     4  11  22  37  55  76 104 140 180 224 270 317
#     4  10  21  38  57  81 108 137 175 220 267 319
#     4  10  21  37  57  80 107 138 175 216 261 311
#     4  10  20  34  51  75 108 144 182 225 265 311
#     4  10  20  33  50  75 106 142 181 221 263 310
#     4   9  19  33  52  78 107 136 171 213 260 313
#
# _framework density 18.253162
#
# number of rings (size 3 to 8) (size 9 to 14) (size 15 to 20)
#    0.000    2.000    0.000    5.000    0.000    8.333 
#    0.000    3.333    0.000    0.500    0.000    1.167 
#    0.000    0.000    0.000    0.000    0.000    0.000 
#
# Total GULP energy -1786105.391596 kJ/mol
# GULP energy per Si atom -12403.509664 kJ/mol
# Density = 1.821162 g / cm^3
# Si number density = 18.253162 Si / 1000 Ang^3
#
#
#
# Elastic Constant Matrix: (Units=GPa)
#
#
# Indices 1 2 3 4 5 6 
#
# 1 14.4410 127.9201 45.8041 0.0000 0.0000 0.0000
# 2 127.9201 14.4410 45.8041 0.0000 0.0000 0.0000
# 3 45.8041 45.8041 107.8759 0.0000 0.0000 0.0000
# 4 0.0000 0.0000 0.0000 34.1350 0.0000 0.0000
# 5 0.0000 0.0000 0.0000 0.0000 34.1350 0.0000
# 6 0.0000 0.0000 0.0000 0.0000 0.0000 -56.7395
#
#
#
# Elastic Compliance Matrix: (Units=1/GPa)
#
#
# Indices 1 2 3 4 5 6 
#
# 1 0.000426 0.009239 -0.004104 0.000000 0.000000 0.000000
# 2 0.009239 0.000426 -0.004104 0.000000 0.000000 0.000000
# 3 -0.004104 -0.004104 0.012755 0.000000 0.000000 0.000000
# 4 0.000000 0.000000 0.000000 0.029295 0.000000 0.000000
# 5 0.000000 0.000000 0.000000 0.000000 0.029295 0.000000
# 6 0.000000 0.000000 0.000000 0.000000 0.000000 -0.017624
#
#
# Mechanical properties :
#
#
# Convention : Reuss Voigt Hill
#
# Bulk Modulus (GPa) = 63.81663 63.97941 63.89802
# Shear Modulus (GPa) = 86.60176 -3.21191 41.69492
#
# Velocity S-wave (km/s) = 6.89549 -1.32796 4.78458
# Velocity P-wave (km/s) = 9.92144 5.72503 8.09972
#
# Compressibility (1/GPa) = 0.01566990
#
# Stress axis : x y z
#
# Youngs Moduli (GPa) = 2344.72681 2344.72679 78.40131
#
# Poissons Ratio (x) = -21.66220 0.32175
# Poissons Ratio (y) = -21.66220 0.32175
# Poissons Ratio (z) = 9.62237 9.62237
#
# Static dielectric constant tensor:
#      x y z
#    x 3.332030 0.000000 0.000000 
#    y 0.000000 3.332030 0.000000 
#    z 0.000000 0.000000 3.439010 
# 
# 
# High freq. dielectric constant tensor:
#      x y z
#    x 1.699220 0.000000 0.000000 
#    y 0.000000 1.699220 0.000000 
#    z 0.000000 0.000000 1.723060 
# 
# From -- ./inp_files/1133.got.cif
#   From: 2010.03.12/outbox.cif.g09.slc.cpg/sg192_1_cif.got.tgz:1133.got - 2010.04.01 12:16:15.
