data_PCOD8329408
_publ_section_title
;
Structure prediction by ZEFSAII (Michael W. Deem and Ramdas Pophale) SiO2 
 PCOD8329408
Probable space group: P 6/M C C
;
_chemical_formula_sum "Si O2"
_cell_formula_units_Z 108
_cell_length_a 21.962692
_cell_length_b 21.962692
_cell_length_c 13.611336
_cell_angle_alpha 90.000000
_cell_angle_beta 90.000000
_cell_angle_gamma 120.000000
_cell_volume 5685.943355
_symmetry_space_group_name_H-M "P 6/M C C"
_symmetry_group_IT_number 192
_symmetry_cell_setting 'hexagonal'
loop_
_space_group_symop_operation_xyz
x,y,z
x-y,x,z
-y,x-y,z
-x,-y,z
-x+y,-x,z
y,-x+y,z
x-y,-y,1/2-z
-x,-x+y,1/2-z
y,x,1/2-z
-y,-x,1/2-z
-x+y,y,1/2-z
x,x-y,1/2-z
-x,-y,-z
-x+y,-x,-z
y,-x+y,-z
x,y,-z
x-y,x,-z
-y,x-y,-z
-x+y,y,1/2+z
x,x-y,1/2+z
-y,-x,1/2+z
y,x,1/2+z
x-y,-y,1/2+z
-x,-x+y,1/2+z
loop_
_atom_site_type_symbol
_atom_site_label
_atom_site_fract_x
_atom_site_fract_y
_atom_site_fract_z
Si Si1 0.462342 0.795359 0.290413
Si Si2 0.125546 0.330925 0.000000
Si Si3 0.283509 0.794826 0.000000
Si Si4 0.125689 0.408947 0.500000
Si Si5 0.204241 0.922624 0.789939
Si Si6 0.077528 0.667722 0.789811
O O1 0.384181 0.768361 0.250000
O O2 0.490071 0.745036 0.250000
O O3 0.465601 0.794776 0.408112
O O4 0.512030 0.873522 0.249820
O O5 0.204167 0.340151 0.000000
O O6 0.079816 0.285641 0.092210
O O7 0.135843 0.410011 0.000000
O O8 0.204382 0.726042 0.000000
O O9 0.080004 0.408564 0.592233
O O10 0.125924 0.874076 0.750000
O O11 0.253460 0.893126 0.749829
O O12 0.229921 0.000000 0.750000
O O13 0.000000 0.615977 0.750000
#
# Coordination Sequence:
#
# PCOD8329408 Si02
#       6
#    24  12  12  12  24  24
#     4  12  24  42  63  91 125 164 217 269 307 375
#     4  10  18  35  64  85 121 168 203 248 327 380
#     4  10  20  38  71  83 123 170 209 256 328 375
#     4  10  18  37  69  86 132 163 209 250 322 390
#     4  11  21  35  58  91 124 160 208 260 309 377
#     4  11  22  37  64  93 126 165 205 258 326 381
#
# _framework density 18.994209000000001
#
# number of rings (size 3 to 8) (size 9 to 14) (size 15 to 20)
#    0.667    0.444    6.667    0.889    0.000    7.556 
#    0.000    0.000    0.000    2.889    0.000    0.000 
#    0.000    1.778    0.000    0.000    0.000    0.000 
#
# Total GULP energy -1339181.810683 kJ/mol
# GULP energy per Si atom -12399.831580 kJ/mol
# Density = 1.895098 g / cm^3
# Si number density = 18.994209 Si / 1000 Ang^3
#
#
#
# Elastic Constant Matrix: (Units=GPa)
#
#
# Indices 1 2 3 4 5 6 
#
# 1 81.8736 36.8155 50.3757 0.0000 0.0000 0.0000
# 2 36.8155 81.8736 50.3757 0.0000 0.0000 0.0000
# 3 50.3757 50.3757 209.6273 0.0000 0.0000 0.0000
# 4 0.0000 0.0000 0.0000 24.3320 0.0000 0.0000
# 5 0.0000 0.0000 0.0000 0.0000 24.3320 0.0000
# 6 0.0000 0.0000 0.0000 0.0000 0.0000 22.5291
#
#
#
# Elastic Compliance Matrix: (Units=1/GPa)
#
#
# Indices 1 2 3 4 5 6 
#
# 1 0.016389 -0.005805 -0.002544 0.000000 0.000000 0.000000
# 2 -0.005805 0.016389 -0.002544 0.000000 0.000000 0.000000
# 3 -0.002544 -0.002544 0.005993 0.000000 0.000000 0.000000
# 4 0.000000 0.000000 0.000000 0.041098 0.000000 0.000000
# 5 0.000000 0.000000 0.000000 0.000000 0.041098 0.000000
# 6 0.000000 0.000000 0.000000 0.000000 0.000000 0.044387
#
#
# Mechanical properties :
#
#
# Convention : Reuss Voigt Hill
#
# Bulk Modulus (GPa) = 58.86638 72.05646 65.46142
# Shear Modulus (GPa) = 25.93356 29.95911 27.94634
#
# Velocity S-wave (km/s) = 3.69906 3.97580 3.83992
# Velocity P-wave (km/s) = 7.02162 7.68729 7.36198
#
# Compressibility (1/GPa) = 0.01698762
#
# Stress axis : x y z
#
# Youngs Moduli (GPa) = 61.01636 61.01636 166.86503
#
# Poissons Ratio (x) = 0.35417 0.42443
# Poissons Ratio (y) = 0.35417 0.42443
# Poissons Ratio (z) = 0.15520 0.15520
#
# Static dielectric constant tensor:
#      x y z
#    x 3.152830 0.000000 0.000000 
#    y 0.000000 3.152830 0.000000 
#    z 0.000000 0.000000 3.557960 
# 
# 
# High freq. dielectric constant tensor:
#      x y z
#    x 1.711920 0.000000 0.000000 
#    y 0.000000 1.711920 0.000000 
#    z 0.000000 0.000000 1.760110 
# 
# From -- ./inp_files/1780.got.cif
#   From: 2010.03.12/outbox.cif.g09.slc.cpg/sg192_1_cif.got.tgz:1780.got - 2010.04.01 12:16:15.
