data_PCOD8329708
_publ_section_title
;
Structure prediction by ZEFSAII (Michael W. Deem and Ramdas Pophale) SiO2 
 PCOD8329708
Probable space group: P 6/M C C
;
_chemical_formula_sum "Si O2"
_cell_formula_units_Z 168
_cell_length_a 27.885862
_cell_length_b 27.885862
_cell_length_c 15.986101
_cell_angle_alpha 90.000000
_cell_angle_beta 90.000000
_cell_angle_gamma 120.000000
_cell_volume 10765.676658
_symmetry_space_group_name_H-M "P 6/M C C"
_symmetry_group_IT_number 192
_symmetry_cell_setting 'hexagonal'
loop_
_space_group_symop_operation_xyz
x,y,z
x-y,x,z
-y,x-y,z
-x,-y,z
-x+y,-x,z
y,-x+y,z
x-y,-y,1/2-z
-x,-x+y,1/2-z
y,x,1/2-z
-y,-x,1/2-z
-x+y,y,1/2-z
x,x-y,1/2-z
-x,-y,-z
-x+y,-x,-z
y,-x+y,-z
x,y,-z
x-y,x,-z
-y,x-y,-z
-x+y,y,1/2+z
x,x-y,1/2+z
-y,-x,1/2+z
y,x,1/2+z
x-y,-y,1/2+z
-x,-x+y,1/2+z
loop_
_atom_site_type_symbol
_atom_site_label
_atom_site_fract_x
_atom_site_fract_y
_atom_site_fract_z
Si Si1 0.066032 0.648035 0.406676
Si Si2 0.752417 0.691122 0.097602
Si Si3 0.063101 0.126201 0.349905
Si Si4 0.521233 0.933967 0.750000
Si Si5 0.648036 0.582003 0.906676
Si Si6 0.249297 0.124649 0.155288
Si Si7 0.691123 0.752416 0.097602
O O1 0.087139 0.642993 0.500000
O O2 0.088857 0.624115 0.334464
O O3 0.086488 0.712103 0.385001
O O4 1.000000 0.615074 0.407966
O O5 0.712103 0.625614 0.115000
O O6 0.811156 0.712164 0.137853
O O7 0.725565 0.725564 0.137201
O O8 0.760452 0.702242 0.000000
O O9 0.094710 0.094710 0.383414
O O10 0.063061 0.126121 0.250000
O O11 0.094444 0.188887 0.389464
O O12 0.455886 0.911771 0.750000
O O13 0.535258 0.911143 0.834464
O O14 0.555786 0.000000 0.750000
O O15 0.642994 0.555854 0.000000
O O16 0.231919 0.115960 0.250000
O O17 0.287836 0.188845 0.137854
O O18 0.702243 0.760452 0.000000
#
# Coordination Sequence:
#
# PCOD8329708 Si02
#       7
#    24  24  24  24  24  24  24
#     4   8  15  27  41  57  79 109 141 172 208 246
#     4   9  18  32  46  58  77 108 141 175 221 271
#     4   9  17  29  42  57  78 102 128 164 224 302
#     4   9  16  24  38  61  84 108 137 168 201 231
#     4   8  15  27  41  57  79 109 141 172 208 246
#     4  11  21  28  41  66  86 100 130 182 232 280
#     4   9  18  32  46  58  77 108 141 175 221 271
#
# _framework density 15.60515
#
# number of rings (size 3 to 8) (size 9 to 14) (size 15 to 20)
#    0.000    3.000    0.000    3.143    2.000    2.857 
#    0.000    2.857    0.000    0.000    0.000    0.000 
#    0.000    6.857    0.000    0.000    0.000    0.000 
#
# Total GULP energy -2081706.956852 kJ/mol
# GULP energy per Si atom -12391.112838 kJ/mol
# Density = 1.556963 g / cm^3
# Si number density = 15.605150 Si / 1000 Ang^3
#
#
#
# Elastic Constant Matrix: (Units=GPa)
#
#
# Indices 1 2 3 4 5 6 
#
# 1 88.7625 35.3251 44.4260 0.0000 0.0000 0.0000
# 2 35.3251 88.7625 44.4260 0.0000 0.0000 0.0000
# 3 44.4260 44.4260 77.3212 0.0000 0.0000 0.0000
# 4 0.0000 0.0000 0.0000 13.8233 0.0000 0.0000
# 5 0.0000 0.0000 0.0000 0.0000 13.8233 0.0000
# 6 0.0000 0.0000 0.0000 0.0000 0.0000 26.7187
#
#
#
# Elastic Compliance Matrix: (Units=1/GPa)
#
#
# Indices 1 2 3 4 5 6 
#
# 1 0.016203 -0.002511 -0.007867 0.000000 0.000000 0.000000
# 2 -0.002511 0.016203 -0.007867 0.000000 0.000000 0.000000
# 3 -0.007867 -0.007867 0.021973 0.000000 0.000000 0.000000
# 4 0.000000 0.000000 0.000000 0.072341 0.000000 0.000000
# 5 0.000000 0.000000 0.000000 0.000000 0.072341 0.000000
# 6 0.000000 0.000000 0.000000 0.000000 0.000000 0.037427
#
#
# Mechanical properties :
#
#
# Convention : Reuss Voigt Hill
#
# Bulk Modulus (GPa) = 55.89910 55.91115 55.90512
# Shear Modulus (GPa) = 17.92498 19.58435 18.75467
#
# Velocity S-wave (km/s) = 3.39286 3.54643 3.47050
# Velocity P-wave (km/s) = 7.15873 7.25782 7.20845
#
# Compressibility (1/GPa) = 0.01788938
#
# Stress axis : x y z
#
# Youngs Moduli (GPa) = 61.71834 61.71834 45.51028
#
# Poissons Ratio (x) = 0.15496 0.35802
# Poissons Ratio (y) = 0.15496 0.35802
# Poissons Ratio (z) = 0.48553 0.48553
#
# Static dielectric constant tensor:
#      x y z
#    x 2.813660 0.000000 0.000000 
#    y 0.000000 2.813660 0.000000 
#    z 0.000000 0.000000 3.098720 
# 
# 
# High freq. dielectric constant tensor:
#      x y z
#    x 1.564230 0.000000 0.000000 
#    y 0.000000 1.564230 0.000000 
#    z 0.000000 0.000000 1.601970 
# 
# From -- ./inp_files/3526.got.cif
#   From: 2010.03.12/outbox.cif.g09.slc.cpg/sg192_2_cif.got.tgz:3526.got - 2010.04.01 12:16:15.
