data_PCOD8329004
_publ_section_title
;
Structure prediction by ZEFSAII (Michael W. Deem and Ramdas Pophale) SiO2 
 PCOD8329004
Probable space group: P 6/M M M
;
_chemical_formula_sum "Si O2"
_cell_formula_units_Z 144
_cell_length_a 22.593534
_cell_length_b 22.593534
_cell_length_c 18.359936
_cell_angle_alpha 90.000000
_cell_angle_beta 90.000000
_cell_angle_gamma 120.000000
_cell_volume 8116.524964
_symmetry_space_group_name_H-M "P 6/M M M"
_symmetry_group_IT_number 191
_symmetry_cell_setting 'hexagonal'
loop_
_space_group_symop_operation_xyz
x,y,z
x-y,x,z
-y,x-y,z
-x,-y,z
-x+y,-x,z
y,-x+y,z
x-y,-y,-z
-x,-x+y,-z
y,x,-z
-y,-x,-z
-x+y,y,-z
x,x-y,-z
-x,-y,-z
-x+y,-x,-z
y,-x+y,-z
x,y,-z
x-y,x,-z
-y,x-y,-z
-x+y,y,z
x,x-y,z
-y,-x,z
y,x,z
x-y,-y,z
-x,-x+y,z
loop_
_atom_site_type_symbol
_atom_site_label
_atom_site_fract_x
_atom_site_fract_y
_atom_site_fract_z
Si Si1 0.606678 0.078150 0.301228
Si Si2 0.077823 0.666697 0.848825
Si Si3 0.714528 0.564581 0.415986
Si Si4 0.209736 0.286157 0.083624
Si Si5 0.666605 0.202267 0.085360
Si Si6 0.279325 0.204146 0.586535
O O1 0.546331 0.092662 0.277358
O O2 0.658726 0.093911 0.234637
O O3 0.648102 0.128964 0.367259
O O4 0.574774 0.000000 0.327460
O O5 0.090232 0.742420 0.862462
O O6 0.127534 0.654659 0.900004
O O7 0.000000 0.610255 0.868981
O O8 0.691807 0.554585 0.500000
O O9 0.770882 0.541763 0.403438
O O10 0.744707 0.642865 0.391024
O O11 0.130860 0.261719 0.101528
O O12 0.222410 0.222410 0.096229
O O13 0.227482 0.312202 0.000000
O O14 0.604471 0.208942 0.119918
O O15 0.738248 0.261753 0.119236
O O16 0.667728 0.212496 0.000000
O O17 0.274468 0.201869 0.500000
O O18 0.255686 0.127843 0.616188
O O19 0.230708 0.230708 0.620478
#
# Coordination Sequence:
#
# PCOD8329004 Si02
#       6
#    24  24  24  24  24  24
#     4  10  21  35  50  70  97 126 154 189 236 289
#     4  10  20  33  48  69  98 128 160 200 244 289
#     4   9  18  32  50  72  94 116 148 191 236 284
#     4   9  17  30  50  76 105 137 173 211 249 289
#     4  10  20  33  49  68  91 121 159 202 244 288
#     4   8  13  22  38  60  85 112 142 178 219 262
#
# _framework density 17.741582000000001
#
# number of rings (size 3 to 8) (size 9 to 14) (size 15 to 20)
#    0.000    2.667    0.000    3.167    0.000    6.667 
#    0.000    1.667    0.000    0.667    0.000    2.333 
#    0.000    0.000    0.000    0.000    0.000   21.667 
#
# Total GULP energy -1785130.090811 kJ/mol
# GULP energy per Si atom -12396.736742 kJ/mol
# Density = 1.770120 g / cm^3
# Si number density = 17.741582 Si / 1000 Ang^3
#
#
#
# Elastic Constant Matrix: (Units=GPa)
#
#
# Indices 1 2 3 4 5 6 
#
# 1 105.8397 56.5952 38.3061 0.0000 0.0000 0.0000
# 2 56.5952 105.8397 38.3061 0.0000 0.0000 0.0000
# 3 38.3061 38.3061 52.5434 0.0000 0.0000 0.0000
# 4 0.0000 0.0000 0.0000 17.6784 0.0000 0.0000
# 5 0.0000 0.0000 0.0000 0.0000 17.6784 0.0000
# 6 0.0000 0.0000 0.0000 0.0000 0.0000 24.6223
#
#
#
# Elastic Compliance Matrix: (Units=1/GPa)
#
#
# Indices 1 2 3 4 5 6 
#
# 1 0.014845 -0.005462 -0.006840 0.000000 0.000000 0.000000
# 2 -0.005462 0.014845 -0.006840 0.000000 0.000000 0.000000
# 3 -0.006840 -0.006840 0.029005 0.000000 0.000000 0.000000
# 4 0.000000 0.000000 0.000000 0.056566 0.000000 0.000000
# 5 0.000000 0.000000 0.000000 0.000000 0.056566 0.000000
# 6 0.000000 0.000000 0.000000 0.000000 0.000000 0.040614
#
#
# Mechanical properties :
#
#
# Convention : Reuss Voigt Hill
#
# Bulk Modulus (GPa) = 48.99650 58.95975 53.97812
# Shear Modulus (GPa) = 19.41530 20.73019 20.07275
#
# Velocity S-wave (km/s) = 3.31167 3.42197 3.36727
# Velocity P-wave (km/s) = 6.50381 6.99413 6.75342
#
# Compressibility (1/GPa) = 0.02040962
#
# Stress axis : x y z
#
# Youngs Moduli (GPa) = 67.36435 67.36435 34.47633
#
# Poissons Ratio (x) = 0.36796 0.23582
# Poissons Ratio (y) = 0.36796 0.23582
# Poissons Ratio (z) = 0.46078 0.46078
#
# Static dielectric constant tensor:
#      x y z
#    x 3.381240 0.000000 0.000000 
#    y 0.000000 3.381240 0.000000 
#    z 0.000000 0.000000 2.973170 
# 
# 
# High freq. dielectric constant tensor:
#      x y z
#    x 1.680580 0.000000 0.000000 
#    y 0.000000 1.680580 0.000000 
#    z 0.000000 0.000000 1.656950 
# 
# From -- ./inp_files/7592.got.cif
#   From: 2010.03.12/outbox.cif.g09.slc.cpg/sg191_4_cif.got.tgz:7592.got - 2010.04.01 12:09:02.
