data_PCOD8329600
_publ_section_title
;
Structure prediction by ZEFSAII (Michael W. Deem and Ramdas Pophale) SiO2 
 PCOD8329600
Probable space group: P 6/M C C
;
_chemical_formula_sum "Si O2"
_cell_formula_units_Z 104
_cell_length_a 19.362934
_cell_length_b 19.362934
_cell_length_c 17.143934
_cell_angle_alpha 90.000000
_cell_angle_beta 90.000000
_cell_angle_gamma 120.000000
_cell_volume 5566.515825
_symmetry_space_group_name_H-M "P 6/M C C"
_symmetry_group_IT_number 192
_symmetry_cell_setting 'hexagonal'
loop_
_space_group_symop_operation_xyz
x,y,z
x-y,x,z
-y,x-y,z
-x,-y,z
-x+y,-x,z
y,-x+y,z
x-y,-y,1/2-z
-x,-x+y,1/2-z
y,x,1/2-z
-y,-x,1/2-z
-x+y,y,1/2-z
x,x-y,1/2-z
-x,-y,-z
-x+y,-x,-z
y,-x+y,-z
x,y,-z
x-y,x,-z
-y,x-y,-z
-x+y,y,1/2+z
x,x-y,1/2+z
-y,-x,1/2+z
y,x,1/2+z
x-y,-y,1/2+z
-x,-x+y,1/2+z
loop_
_atom_site_type_symbol
_atom_site_label
_atom_site_fract_x
_atom_site_fract_y
_atom_site_fract_z
Si Si1 0.666667 0.333334 0.158285
Si Si2 0.283146 0.283412 0.907627
Si Si3 0.283643 0.782846 0.407486
Si Si4 0.588305 0.543027 0.092052
Si Si5 0.831524 0.166002 0.157832
O O1 0.666668 0.333334 0.250000
O O2 0.576769 0.293645 0.127536
O O3 0.364862 0.364017 0.884995
O O4 0.283938 0.209117 0.868913
O O5 0.208314 0.286872 0.872965
O O6 0.272983 0.272934 0.000000
O O7 0.280621 0.776515 0.500000
O O8 0.361899 0.863562 0.377813
O O9 0.204579 0.782333 0.379327
O O10 0.500000 0.500000 0.130510
O O11 0.580460 0.533050 0.000000
O O12 0.828942 0.171059 0.250000
#
# Coordination Sequence:
#
# PCOD8329600 Si02
#       5
#     8  24  24  24  24
#     4  12  25  38  52  78 115 149 190 249 301 335
#     4  10  20  36  60  86 115 152 197 238 282 349
#     4  10  21  37  56  79 108 150 200 236 283 350
#     4   8  16  31  53  80 103 136 189 242 280 323
#     4  11  22  38  59  87 121 152 188 240 298 342
#
# _framework density 18.683142
#
# number of rings (size 3 to 8) (size 9 to 14) (size 15 to 20)
#    0.000    2.077    0.000    5.538    3.231    0.000 
#    0.000    0.000    0.000    0.462    0.000    3.231 
#    0.000    0.000    0.000    0.000    0.000    0.000 
#
# Total GULP energy -1289797.688400 kJ/mol
# GULP energy per Si atom -12401.900850 kJ/mol
# Density = 1.864062 g / cm^3
# Si number density = 18.683142 Si / 1000 Ang^3
#
#
#
# Elastic Constant Matrix: (Units=GPa)
#
#
# Indices 1 2 3 4 5 6 
#
# 1 99.9189 56.9717 36.8159 -0.0002 0.0001 0.0002
# 2 56.9717 99.9192 36.8155 -0.0001 0.0000 0.0003
# 3 36.8159 36.8155 111.0776 0.0000 -0.0001 -0.0001
# 4 -0.0002 -0.0001 0.0000 25.3846 0.0000 0.0000
# 5 0.0001 0.0000 -0.0001 0.0000 25.3843 0.0001
# 6 0.0002 0.0003 -0.0001 0.0000 0.0001 21.4734
#
#
#
# Elastic Compliance Matrix: (Units=1/GPa)
#
#
# Indices 1 2 3 4 5 6 
#
# 1 0.015416 -0.007868 -0.002502 0.000000 0.000000 0.000000
# 2 -0.007868 0.015416 -0.002502 0.000000 0.000000 0.000000
# 3 -0.002502 -0.002502 0.010661 0.000000 0.000000 0.000000
# 4 0.000000 0.000000 0.000000 0.039394 0.000000 0.000000
# 5 0.000000 0.000000 0.000000 0.000000 0.039394 0.000000
# 6 0.000000 0.000000 0.000000 0.000000 0.000000 0.046569
#
#
# Mechanical properties :
#
#
# Convention : Reuss Voigt Hill
#
# Bulk Modulus (GPa) = 63.49149 63.56911 63.53030
# Shear Modulus (GPa) = 25.27240 26.46929 25.87084
#
# Velocity S-wave (km/s) = 3.68188 3.76805 3.72521
# Velocity P-wave (km/s) = 7.22025 7.28215 7.25127
#
# Compressibility (1/GPa) = 0.01575014
#
# Stress axis : x y z
#
# Youngs Moduli (GPa) = 64.86688 64.86729 93.79939
#
# Poissons Ratio (x) = 0.51039 0.23466
# Poissons Ratio (y) = 0.51038 0.23465
# Poissons Ratio (z) = 0.16228 0.16228
#
# Static dielectric constant tensor:
#      x y z
#    x 3.503080 0.000000 0.000000 
#    y 0.000000 3.503080 0.000000 
#    z 0.000000 0.000000 3.299110 
# 
# 
# High freq. dielectric constant tensor:
#      x y z
#    x 1.722550 0.000000 0.000000 
#    y 0.000000 1.722550 0.000000 
#    z 0.000000 0.000000 1.717860 
# 
# From -- ./inp_files/2861.got.cif
#   From: 2010.03.12/outbox.cif.g09.slc.cpg/sg192_2_cif.got.tgz:2861.got - 2010.04.01 12:16:15.
