data_PCOD8329039
_publ_section_title
;
Structure prediction by ZEFSAII (Michael W. Deem and Ramdas Pophale) SiO2 
 PCOD8329039
Probable space group: P 6/M M M
;
_chemical_formula_sum "Si O2"
_cell_formula_units_Z 168
_cell_length_a 21.887543
_cell_length_b 21.887543
_cell_length_c 23.551851
_cell_angle_alpha 90.000000
_cell_angle_beta 90.000000
_cell_angle_gamma 120.000000
_cell_volume 9771.240471
_symmetry_space_group_name_H-M "P 6/M M M"
_symmetry_group_IT_number 191
_symmetry_cell_setting 'hexagonal'
loop_
_space_group_symop_operation_xyz
x,y,z
x-y,x,z
-y,x-y,z
-x,-y,z
-x+y,-x,z
y,-x+y,z
x-y,-y,-z
-x,-x+y,-z
y,x,-z
-y,-x,-z
-x+y,y,-z
x,x-y,-z
-x,-y,-z
-x+y,-x,-z
y,-x+y,-z
x,y,-z
x-y,x,-z
-y,x-y,-z
-x+y,y,z
x,x-y,z
-y,-x,z
y,x,z
x-y,-y,z
-x,-x+y,z
loop_
_atom_site_type_symbol
_atom_site_label
_atom_site_fract_x
_atom_site_fract_y
_atom_site_fract_z
Si Si1 0.080996 0.672944 0.766605
Si Si2 0.810889 0.476428 0.844059
Si Si3 0.081126 0.670584 0.365335
Si Si4 0.787319 0.078086 0.564765
Si Si5 0.921083 0.219690 0.848762
Si Si6 0.805608 0.471946 0.435379
Si Si7 0.864089 0.584651 0.062547
O O1 0.134466 0.650295 0.792936
O O2 0.098451 0.686182 0.700584
O O3 0.094195 0.746291 0.793718
O O4 0.000000 0.611570 0.777303
O O5 0.739950 0.479900 0.834006
O O6 0.791307 0.395654 0.847000
O O7 0.849959 0.515464 0.902400
O O8 0.101050 0.743848 0.395102
O O9 0.128511 0.641958 0.393387
O O10 0.000000 0.612269 0.375860
O O11 0.766170 0.082762 0.500000
O O12 0.870020 0.129981 0.575475
O O13 0.771921 0.000000 0.579736
O O14 0.863618 0.136383 0.850883
O O15 0.917245 0.261497 0.903925
O O16 0.000000 0.230611 0.846494
O O17 0.828912 0.497777 0.500000
O O18 0.742137 0.484273 0.416581
O O19 0.778886 0.389443 0.429784
O O20 0.791179 0.582357 0.055341
O O21 0.895135 0.584367 0.000000
#
# Coordination Sequence:
#
# PCOD8329039 Si02
#       7
#    24  24  24  24  24  24  24
#     4   9  19  35  52  69  91 121 157 198 241 282
#     4  10  20  33  49  70  98 130 161 194 234 282
#     4  10  20  33  51  74  95 116 148 194 246 291
#     4   9  17  29  46  69  96 123 150 183 226 275
#     4   9  17  30  49  72  98 128 161 198 240 284
#     4  10  21  36  52  69  92 124 159 192 228 276
#     4   8  15  29  48  69  93 122 157 195 231 267
#
# _framework density 17.193314000000001
#
# number of rings (size 3 to 8) (size 9 to 14) (size 15 to 20)
#    0.000    2.714    0.000    2.429    0.000    6.571 
#    0.000    2.143    0.000    2.857    0.000    5.000 
#    0.000    0.000    0.000   10.714    0.000    3.714 
#
# Total GULP energy -2082787.201102 kJ/mol
# GULP energy per Si atom -12397.542864 kJ/mol
# Density = 1.715418 g / cm^3
# Si number density = 17.193314 Si / 1000 Ang^3
#
#
#
# Elastic Constant Matrix: (Units=GPa)
#
#
# Indices 1 2 3 4 5 6 
#
# 1 87.0053 42.8721 43.1992 0.0000 0.0000 0.0000
# 2 42.8721 87.0053 43.1992 0.0000 0.0000 0.0000
# 3 43.1992 43.1992 114.9265 0.0000 0.0000 0.0000
# 4 0.0000 0.0000 0.0000 16.8986 0.0000 0.0000
# 5 0.0000 0.0000 0.0000 0.0000 16.8986 0.0000
# 6 0.0000 0.0000 0.0000 0.0000 0.0000 22.0666
#
#
#
# Elastic Compliance Matrix: (Units=1/GPa)
#
#
# Indices 1 2 3 4 5 6 
#
# 1 0.016463 -0.006196 -0.003859 0.000000 0.000000 0.000000
# 2 -0.006196 0.016463 -0.003859 0.000000 0.000000 0.000000
# 3 -0.003859 -0.003859 0.011602 0.000000 0.000000 0.000000
# 4 0.000000 0.000000 0.000000 0.059176 0.000000 0.000000
# 5 0.000000 0.000000 0.000000 0.000000 0.059176 0.000000
# 6 0.000000 0.000000 0.000000 0.000000 0.000000 0.045317
#
#
# Mechanical properties :
#
#
# Convention : Reuss Voigt Hill
#
# Bulk Modulus (GPa) = 59.88227 60.83088 60.35657
# Shear Modulus (GPa) = 20.69595 21.81719 21.25657
#
# Velocity S-wave (km/s) = 3.47323 3.56608 3.51996
# Velocity P-wave (km/s) = 7.14065 7.23970 7.19034
#
# Compressibility (1/GPa) = 0.01669943
#
# Stress axis : x y z
#
# Youngs Moduli (GPa) = 60.74324 60.74324 86.18903
#
# Poissons Ratio (x) = 0.37636 0.33262
# Poissons Ratio (y) = 0.37636 0.33262
# Poissons Ratio (z) = 0.23442 0.23442
#
# Static dielectric constant tensor:
#      x y z
#    x 3.081550 0.000000 0.000000 
#    y 0.000000 3.081550 0.000000 
#    z 0.000000 0.000000 3.469650 
# 
# 
# High freq. dielectric constant tensor:
#      x y z
#    x 1.649820 0.000000 0.000000 
#    y 0.000000 1.649820 0.000000 
#    z 0.000000 0.000000 1.668010 
# 
# From -- ./inp_files/7914.got.cif
#   From: 2010.03.12/outbox.cif.g09.slc.cpg/sg191_4_cif.got.tgz:7914.got - 2010.04.01 12:09:02.
