data_PCOD8329574
_publ_section_title
;
Structure prediction by ZEFSAII (Michael W. Deem and Ramdas Pophale) SiO2 
 PCOD8329574
Probable space group: P 6/M C C
;
_chemical_formula_sum "Si O2"
_cell_formula_units_Z 144
_cell_length_a 32.352252
_cell_length_b 32.352252
_cell_length_c 8.534384
_cell_angle_alpha 90.000000
_cell_angle_beta 90.000000
_cell_angle_gamma 120.000000
_cell_volume 7735.917775
_symmetry_space_group_name_H-M "P 6/M C C"
_symmetry_group_IT_number 192
_symmetry_cell_setting 'hexagonal'
loop_
_space_group_symop_operation_xyz
x,y,z
x-y,x,z
-y,x-y,z
-x,-y,z
-x+y,-x,z
y,-x+y,z
x-y,-y,1/2-z
-x,-x+y,1/2-z
y,x,1/2-z
-y,-x,1/2-z
-x+y,y,1/2-z
x,x-y,1/2-z
-x,-y,-z
-x+y,-x,-z
y,-x+y,-z
x,y,-z
x-y,x,-z
-y,x-y,-z
-x+y,y,1/2+z
x,x-y,1/2+z
-y,-x,1/2+z
y,x,1/2+z
x-y,-y,1/2+z
-x,-x+y,1/2+z
loop_
_atom_site_type_symbol
_atom_site_label
_atom_site_fract_x
_atom_site_fract_y
_atom_site_fract_z
Si Si1 0.472081 0.280023 0.814614
Si Si2 0.145326 0.617293 0.814252
Si Si3 0.103126 0.720795 0.185229
Si Si4 0.948300 0.807895 0.685196
Si Si5 0.562837 0.949366 0.816671
Si Si6 0.719593 0.770590 0.184223
O O1 0.489158 0.244579 0.750000
O O2 0.513157 0.332690 0.767073
O O3 0.422028 0.265820 0.732221
O O4 0.465298 0.276030 0.000000
O O5 0.159126 0.579563 0.750000
O O6 0.090732 0.600430 0.765575
O O7 0.152125 0.623353 0.000000
O O8 0.066346 0.666793 0.242248
O O9 0.090522 0.756493 0.274272
O O10 0.100519 0.726510 0.000000
O O11 0.911451 0.822902 0.750000
O O12 0.949169 0.809620 0.500000
O O13 0.932872 0.754607 0.740305
O O14 0.000000 0.845742 0.750000
O O15 0.574295 0.000000 0.750000
O O16 0.566465 0.954276 0.000000
O O17 0.730352 0.730352 0.250000
O O18 0.727826 0.774690 0.000000
#
# Coordination Sequence:
#
# PCOD8329574 Si02
#       6
#    24  24  24  24  24  24
#     4  11  22  38  59  83 109 141 177 220 271 327
#     4  10  21  38  57  81 109 141 179 222 269 322
#     4  10  20  35  52  76 109 147 189 233 273 318
#     4  11  22  39  60  84 111 143 180 223 272 326
#     4   9  19  32  49  73 106 144 185 226 266 309
#     4  11  21  34  52  78 110 149 191 232 274 320
#
# _framework density 18.614469
#
# number of rings (size 3 to 8) (size 9 to 14) (size 15 to 20)
#    0.000    1.667    0.000    8.000    0.000    6.333 
#    0.000    5.000    0.000    0.500    0.000    3.500 
#    0.000    0.000    0.000    0.000    0.000    0.000 
#
# Total GULP energy -1786145.898444 kJ/mol
# GULP energy per Si atom -12403.790961 kJ/mol
# Density = 1.857210 g / cm^3
# Si number density = 18.614469 Si / 1000 Ang^3
#
#
#
# Elastic Constant Matrix: (Units=GPa)
#
#
# Indices 1 2 3 4 5 6 
#
# 1 101.5697 67.8217 32.4018 0.0000 0.0000 0.0000
# 2 67.8217 101.5697 32.4018 0.0000 0.0000 0.0000
# 3 32.4018 32.4018 111.6340 0.0000 0.0000 0.0000
# 4 0.0000 0.0000 0.0000 30.1720 0.0000 0.0000
# 5 0.0000 0.0000 0.0000 0.0000 30.1720 0.0000
# 6 0.0000 0.0000 0.0000 0.0000 0.0000 16.8740
#
#
#
# Elastic Compliance Matrix: (Units=1/GPa)
#
#
# Indices 1 2 3 4 5 6 
#
# 1 0.018136 -0.011495 -0.001928 0.000000 0.000000 0.000000
# 2 -0.011495 0.018136 -0.001928 0.000000 0.000000 0.000000
# 3 -0.001928 -0.001928 0.010077 0.000000 0.000000 0.000000
# 4 0.000000 0.000000 0.000000 0.033143 0.000000 0.000000
# 5 0.000000 0.000000 0.000000 0.000000 0.033143 0.000000
# 6 0.000000 0.000000 0.000000 0.000000 0.000000 0.059263
#
#
# Mechanical properties :
#
#
# Convention : Reuss Voigt Hill
#
# Bulk Modulus (GPa) = 63.90398 64.44710 64.17554
# Shear Modulus (GPa) = 24.05985 27.58682 25.82333
#
# Velocity S-wave (km/s) = 3.59908 3.85386 3.72865
# Velocity P-wave (km/s) = 7.18860 7.38243 7.28616
#
# Compressibility (1/GPa) = 0.01564848
#
# Stress axis : x y z
#
# Youngs Moduli (GPa) = 55.13855 55.13855 99.23814
#
# Poissons Ratio (x) = 0.63383 0.19128
# Poissons Ratio (y) = 0.63383 0.19128
# Poissons Ratio (z) = 0.10628 0.10628
#
# Static dielectric constant tensor:
#      x y z
#    x 24.684640 0.000010 0.000000 
#    y 0.000010 24.684660 0.000000 
#    z 0.000000 0.000000 3.508840 
# 
# 
# High freq. dielectric constant tensor:
#      x y z
#    x 1.713500 0.000000 0.000000 
#    y 0.000000 1.713500 0.000000 
#    z 0.000000 0.000000 1.739550 
# 
# From -- ./inp_files/1211.got.cif
#   From: 2010.03.12/outbox.cif.g09.slc.cpg/sg192_1_cif.got.tgz:1211.got - 2010.04.01 12:16:15.
