data_PCOD8329227
_publ_section_title
;
Structure prediction by ZEFSAII (Michael W. Deem and Ramdas Pophale) SiO2 
 PCOD8329227
Probable space group: P 6/M M M
;
_chemical_formula_sum "Si O2"
_cell_formula_units_Z 144
_cell_length_a 30.321882
_cell_length_b 30.321882
_cell_length_c 9.020678
_cell_angle_alpha 90.000000
_cell_angle_beta 90.000000
_cell_angle_gamma 120.000000
_cell_volume 7182.607240
_symmetry_space_group_name_H-M "P 6/M M M"
_symmetry_group_IT_number 191
_symmetry_cell_setting 'hexagonal'
loop_
_space_group_symop_operation_xyz
x,y,z
x-y,x,z
-y,x-y,z
-x,-y,z
-x+y,-x,z
y,-x+y,z
x-y,-y,-z
-x,-x+y,-z
y,x,-z
-y,-x,-z
-x+y,y,-z
x,x-y,-z
-x,-y,-z
-x+y,-x,-z
y,-x+y,-z
x,y,-z
x-y,x,-z
-y,x-y,-z
-x+y,y,z
x,x-y,z
-y,-x,z
y,x,z
x-y,-y,z
-x,-x+y,z
loop_
_atom_site_type_symbol
_atom_site_label
_atom_site_fract_x
_atom_site_fract_y
_atom_site_fract_z
Si Si1 0.089500 0.405741 0.325949
Si Si2 0.058689 0.841104 0.326208
Si Si3 0.665482 0.434176 0.330785
Si Si4 0.518952 0.939888 0.832217
Si Si5 0.695386 0.753164 0.162646
Si Si6 0.182753 0.468906 0.835629
O O1 0.080433 0.399660 0.500000
O O2 0.078676 0.449865 0.268651
O O3 0.057599 0.350639 0.252015
O O4 0.147316 0.424200 0.277753
O O5 0.059646 0.832331 0.500000
O O6 0.099279 0.900722 0.285505
O O7 0.079741 0.806371 0.251205
O O8 0.000000 0.824516 0.278699
O O9 0.661184 0.448320 0.500000
O O10 0.713233 0.426465 0.309528
O O11 0.617092 0.382909 0.278357
O O12 0.668076 0.478002 0.225563
O O13 0.460695 0.921390 0.776083
O O14 0.549684 0.000000 0.828326
O O15 0.516858 0.920491 0.000000
O O16 0.736388 0.736388 0.134993
O O17 0.676939 0.761678 0.000000
O O18 0.235745 0.471489 0.837991
O O19 0.158738 0.459043 0.000000
#
# Coordination Sequence:
#
# PCOD8329227 Si02
#       6
#    24  24  24  24  24  24
#     4  12  24  36  55  80 106 139 177 220 273 332
#     4   9  18  34  57  86 121 160 201 244 289 336
#     4   9  17  31  52  76 100 125 155 195 247 308
#     4   9  19  37  59  81 107 140 177 219 268 321
#     4  10  21  37  57  81 110 144 183 228 276 326
#     4  10  22  39  55  71  95 129 168 210 255 303
#
# _framework density 20.048428999999999
#
# number of rings (size 3 to 8) (size 9 to 14) (size 15 to 20)
#    0.000    2.167    0.000    3.667    0.000    7.333 
#    0.000    0.833    0.000    1.167    0.000    1.167 
#    0.000    0.000    0.000    4.167    0.000    4.333 
#
# Total GULP energy -1784157.615356 kJ/mol
# GULP energy per Si atom -12389.983440 kJ/mol
# Density = 2.000280 g / cm^3
# Si number density = 20.048429 Si / 1000 Ang^3
#
#
#
# Elastic Constant Matrix: (Units=GPa)
#
#
# Indices 1 2 3 4 5 6 
#
# 1 86.8304 35.0429 41.6818 0.0000 0.0000 0.0000
# 2 35.0429 86.8304 41.6818 0.0000 0.0000 0.0000
# 3 41.6818 41.6818 112.5501 0.0000 0.0000 0.0000
# 4 0.0000 0.0000 0.0000 25.7696 0.0000 0.0000
# 5 0.0000 0.0000 0.0000 0.0000 25.7696 0.0000
# 6 0.0000 0.0000 0.0000 0.0000 0.0000 25.8938
#
#
#
# Elastic Compliance Matrix: (Units=1/GPa)
#
#
# Indices 1 2 3 4 5 6 
#
# 1 0.015149 -0.004160 -0.004070 0.000000 0.000000 0.000000
# 2 -0.004160 0.015149 -0.004070 0.000000 0.000000 0.000000
# 3 -0.004070 -0.004070 0.011899 0.000000 0.000000 0.000000
# 4 0.000000 0.000000 0.000000 0.038805 0.000000 0.000000
# 5 0.000000 0.000000 0.000000 0.000000 0.038805 0.000000
# 6 0.000000 0.000000 0.000000 0.000000 0.000000 0.038619
#
#
# Mechanical properties :
#
#
# Convention : Reuss Voigt Hill
#
# Bulk Modulus (GPa) = 56.82285 58.11378 57.46832
# Shear Modulus (GPa) = 26.46996 26.67357 26.57176
#
# Velocity S-wave (km/s) = 3.63754 3.65150 3.64452
# Velocity P-wave (km/s) = 6.78576 6.84307 6.81447
#
# Compressibility (1/GPa) = 0.01759855
#
# Stress axis : x y z
#
# Youngs Moduli (GPa) = 66.00960 66.00960 84.03891
#
# Poissons Ratio (x) = 0.27462 0.34201
# Poissons Ratio (y) = 0.27462 0.34201
# Poissons Ratio (z) = 0.26864 0.26864
#
# Static dielectric constant tensor:
#      x y z
#    x 3.801030 0.000000 0.000000 
#    y 0.000000 3.801030 0.000000 
#    z 0.000000 0.000000 3.904170 
# 
# 
# High freq. dielectric constant tensor:
#      x y z
#    x 1.777260 0.000000 0.000000 
#    y 0.000000 1.777260 0.000000 
#    z 0.000000 0.000000 1.780870 
# 
# From -- ./inp_files/1940.got.cif
#   From: 2010.03.12/outbox.cif.g09.slc.cpg/sg191_1_cif.got.tgz:1940.got - 2010.04.01 12:09:02.
