data_PCOD8329812
_publ_section_title
;
Structure prediction by ZEFSAII (Michael W. Deem and Ramdas Pophale) SiO2 
 PCOD8329812
Probable space group: P 63/M C M
;
_chemical_formula_sum "Si O2"
_cell_formula_units_Z 168
_cell_length_a 17.505621
_cell_length_b 17.505621
_cell_length_c 32.605612
_cell_angle_alpha 90.000000
_cell_angle_beta 90.000000
_cell_angle_gamma 120.000000
_cell_volume 8653.225696
_symmetry_space_group_name_H-M "P 63/M C M"
_symmetry_group_IT_number 193
_symmetry_cell_setting 'hexagonal'
loop_
_space_group_symop_operation_xyz
x,y,z
x-y,x,1/2+z
-y,x-y,z
-x,-y,1/2+z
-x+y,-x,z
y,-x+y,1/2+z
x-y,-y,1/2-z
-x,-x+y,1/2-z
y,x,1/2-z
-y,-x,-z
-x+y,y,-z
x,x-y,-z
-x,-y,-z
-x+y,-x,1/2-z
y,-x+y,-z
x,y,1/2-z
x-y,x,-z
-y,x-y,1/2-z
-x+y,y,1/2+z
x,x-y,1/2+z
-y,-x,1/2+z
y,x,z
x-y,-y,z
-x,-x+y,z
loop_
_atom_site_type_symbol
_atom_site_label
_atom_site_fract_x
_atom_site_fract_y
_atom_site_fract_z
Si Si1 0.511129 0.836000 0.928303
Si Si2 0.498822 0.164214 0.580080
Si Si3 0.100078 0.800621 0.296515
Si Si4 0.361085 0.257360 0.647221
Si Si5 0.105227 0.610161 0.795085
Si Si6 0.544257 0.643666 0.665906
Si Si7 0.624883 0.724212 0.994824
O O1 0.437088 0.861306 0.916762
O O2 0.463629 0.729730 0.932905
O O3 0.593275 0.865379 0.897085
O O4 0.552032 0.883554 0.971023
O O5 0.455679 0.151199 0.625147
O O6 0.421634 0.104181 0.548426
O O7 0.131746 0.839050 0.250000
O O8 0.159256 0.862642 0.334298
O O9 0.101940 0.709890 0.299633
O O10 0.000000 0.780714 0.303279
O O11 0.302764 0.302764 0.645273
O O12 0.440040 0.300787 0.679821
O O13 0.145145 0.638608 0.750000
O O14 0.144551 0.553638 0.815436
O O15 0.000000 0.553186 0.793857
O O16 0.575193 0.575193 0.652080
O O17 0.708479 0.708479 0.999085
O O18 0.657388 0.828694 0.000000
#
# Coordination Sequence:
#
# PCOD8329812 Si02
#       7
#    24  24  24  24  24  24  24
#     4  11  22  37  56  83 119 156 194 234 281 333
#     4  11  21  36  56  80 115 157 194 234 279 337
#     4  10  21  37  55  76 107 146 188 237 290 346
#     4  11  21  34  55  81 109 143 183 236 290 343
#     4   9  17  29  47  73 103 134 173 224 276 328
#     4  10  18  30  51  76 103 141 187 227 272 331
#     4  10  23  40  61  88 117 152 194 242 292 344
#
# _framework density 19.414725000000001
#
# number of rings (size 3 to 8) (size 9 to 14) (size 15 to 20)
#    0.000    1.714    2.857    2.429    0.000    4.857 
#    0.000    1.429    0.000    0.429    0.000    4.000 
#    0.000    1.143    0.000    0.000    0.000    0.000 
#
# Total GULP energy -2082106.424245 kJ/mol
# GULP energy per Si atom -12393.490621 kJ/mol
# Density = 1.937054 g / cm^3
# Si number density = 19.414725 Si / 1000 Ang^3
#
#
#
# Elastic Constant Matrix: (Units=GPa)
#
#
# Indices 1 2 3 4 5 6 
#
# 1 58.5740 16.8612 1.4743 0.0000 0.0000 0.0000
# 2 16.8612 58.5740 1.4743 0.0000 0.0000 0.0000
# 3 1.4743 1.4743 91.5856 0.0000 0.0000 0.0000
# 4 0.0000 0.0000 0.0000 25.4980 0.0000 0.0000
# 5 0.0000 0.0000 0.0000 0.0000 25.4980 0.0000
# 6 0.0000 0.0000 0.0000 0.0000 0.0000 20.8564
#
#
#
# Elastic Compliance Matrix: (Units=1/GPa)
#
#
# Indices 1 2 3 4 5 6 
#
# 1 0.018619 -0.005354 -0.000214 0.000000 0.000000 0.000000
# 2 -0.005354 0.018619 -0.000214 0.000000 0.000000 0.000000
# 3 -0.000214 -0.000214 0.010926 0.000000 0.000000 0.000000
# 4 0.000000 0.000000 0.000000 0.039219 0.000000 0.000000
# 5 0.000000 0.000000 0.000000 0.000000 0.039219 0.000000
# 6 0.000000 0.000000 0.000000 0.000000 0.000000 0.047947
#
#
# Mechanical properties :
#
#
# Convention : Reuss Voigt Hill
#
# Bulk Modulus (GPa) = 27.32164 27.59479 27.45822
# Shear Modulus (GPa) = 25.21286 26.96539 26.08912
#
# Velocity S-wave (km/s) = 3.60758 3.73086 3.66974
# Velocity P-wave (km/s) = 5.60857 5.72741 5.66830
#
# Compressibility (1/GPa) = 0.03660103
#
# Stress axis : x y z
#
# Youngs Moduli (GPa) = 53.70824 53.70824 91.52794
#
# Poissons Ratio (x) = 0.28757 0.01954
# Poissons Ratio (y) = 0.28757 0.01954
# Poissons Ratio (z) = 0.01147 0.01147
#
# Static dielectric constant tensor:
#      x y z
#    x 3.365560 0.000000 0.000000 
#    y 0.000000 3.365560 0.000000 
#    z 0.000000 0.000000 3.669620 
# 
# 
# High freq. dielectric constant tensor:
#      x y z
#    x 1.733210 0.000000 0.000000 
#    y 0.000000 1.733210 0.000000 
#    z 0.000000 0.000000 1.771730 
# 
# From -- ./inp_files/9289.got.cif
#   From: 2010.03.12/outbox.cif.g09.slc.cpg/sg193_5_cif.got.tgz:9289.got - 2010.04.01 12:20:39.
