data_PCOD8329895
_publ_section_title
;
Structure prediction by ZEFSAII (Michael W. Deem and Ramdas Pophale) SiO2 
 PCOD8329895
Probable space group: P 63/M C M
;
_chemical_formula_sum "Si O2"
_cell_formula_units_Z 144
_cell_length_a 32.262035
_cell_length_b 32.262035
_cell_length_c 8.916769
_cell_angle_alpha 90.000000
_cell_angle_beta 90.000000
_cell_angle_gamma 120.000000
_cell_volume 8037.512541
_symmetry_space_group_name_H-M "P 63/M C M"
_symmetry_group_IT_number 193
_symmetry_cell_setting 'hexagonal'
loop_
_space_group_symop_operation_xyz
x,y,z
x-y,x,1/2+z
-y,x-y,z
-x,-y,1/2+z
-x+y,-x,z
y,-x+y,1/2+z
x-y,-y,1/2-z
-x,-x+y,1/2-z
y,x,1/2-z
-y,-x,-z
-x+y,y,-z
x,x-y,-z
-x,-y,-z
-x+y,-x,1/2-z
y,-x+y,-z
x,y,1/2-z
x-y,x,-z
-y,x-y,1/2-z
-x+y,y,1/2+z
x,x-y,1/2+z
-y,-x,1/2+z
y,x,z
x-y,-y,z
-x,-x+y,z
loop_
_atom_site_type_symbol
_atom_site_label
_atom_site_fract_x
_atom_site_fract_y
_atom_site_fract_z
Si Si1 0.193961 0.473670 0.923871
Si Si2 0.946252 0.808203 0.574020
Si Si3 0.716369 0.618528 0.572261
Si Si4 0.698172 0.891821 0.573176
Si Si5 0.562660 0.945154 0.923436
Si Si6 0.862162 0.473733 0.427451
O O1 0.203495 0.475085 0.750000
O O2 0.152096 0.421012 0.971719
O O3 0.177730 0.511902 0.968292
O O4 0.243876 0.487753 0.000000
O O5 0.913573 0.827145 0.500000
O O6 0.944443 0.814123 0.750000
O O7 0.927484 0.753256 0.531241
O O8 0.000000 0.839763 0.511781
O O9 0.714371 0.623781 0.750000
O O10 0.754047 0.668689 0.498603
O O11 0.664886 0.603476 0.504363
O O12 0.680301 0.840150 0.500000
O O13 0.689427 0.885414 0.750000
O O14 0.559237 0.930082 0.750000
O O15 0.576170 0.000000 0.939898
O O16 0.511734 0.913182 0.002794
O O17 0.844271 0.422136 0.500000
O O18 0.868699 0.472586 0.250000
#
# Coordination Sequence:
#
# PCOD8329895 Si02
#       6
#    24  24  24  24  24  24
#     4   9  19  33  51  76 103 131 165 205 250 301
#     4   9  19  35  53  74 100 129 163 204 249 298
#     4  10  20  33  49  73 105 139 176 216 255 298
#     4  10  19  31  48  71 101 136 172 209 249 296
#     4  10  21  36  53  74 101 136 177 218 262 308
#     4  10  21  37  56  79 105 134 171 213 259 311
#
# _framework density 17.915990000000001
#
# number of rings (size 3 to 8) (size 9 to 14) (size 15 to 20)
#    0.000    2.333    0.000    3.500    0.000    8.667 
#    0.000    1.667    0.000    0.500    0.000    0.000 
#    0.000    0.000    0.000    0.000    0.000    0.000 
#
# Total GULP energy -1785949.003971 kJ/mol
# GULP energy per Si atom -12402.423639 kJ/mol
# Density = 1.787521 g / cm^3
# Si number density = 17.915990 Si / 1000 Ang^3
#
#
#
# Elastic Constant Matrix: (Units=GPa)
#
#
# Indices 1 2 3 4 5 6 
#
# 1 97.9742 54.4396 44.2472 0.0000 0.0000 0.0000
# 2 54.4396 97.9742 44.2472 0.0000 0.0000 0.0000
# 3 44.2472 44.2472 86.1643 0.0000 0.0000 0.0000
# 4 0.0000 0.0000 0.0000 32.3726 0.0000 0.0000
# 5 0.0000 0.0000 0.0000 0.0000 32.3726 0.0000
# 6 0.0000 0.0000 0.0000 0.0000 0.0000 21.7673
#
#
#
# Elastic Compliance Matrix: (Units=1/GPa)
#
#
# Indices 1 2 3 4 5 6 
#
# 1 0.016159 -0.006811 -0.004801 0.000000 0.000000 0.000000
# 2 -0.006811 0.016159 -0.004801 0.000000 0.000000 0.000000
# 3 -0.004801 -0.004801 0.016536 0.000000 0.000000 0.000000
# 4 0.000000 0.000000 0.000000 0.030890 0.000000 0.000000
# 5 0.000000 0.000000 0.000000 0.000000 0.030890 0.000000
# 6 0.000000 0.000000 0.000000 0.000000 0.000000 0.045940
#
#
# Mechanical properties :
#
#
# Convention : Reuss Voigt Hill
#
# Bulk Modulus (GPa) = 62.38085 63.10894 62.74489
# Shear Modulus (GPa) = 25.67476 26.58106 26.12791
#
# Velocity S-wave (km/s) = 3.78969 3.85600 3.82299
# Velocity P-wave (km/s) = 7.35140 7.42471 7.38815
#
# Compressibility (1/GPa) = 0.01603056
#
# Stress axis : x y z
#
# Youngs Moduli (GPa) = 61.88376 61.88376 60.47351
#
# Poissons Ratio (x) = 0.42148 0.29031
# Poissons Ratio (y) = 0.42148 0.29031
# Poissons Ratio (z) = 0.29708 0.29708
#
# Static dielectric constant tensor:
#      x y z
#    x 3.278880 0.000000 0.000000 
#    y 0.000000 3.278880 0.000000 
#    z 0.000000 0.000000 3.363470 
# 
# 
# High freq. dielectric constant tensor:
#      x y z
#    x 1.683580 0.000000 0.000000 
#    y 0.000000 1.683580 0.000000 
#    z 0.000000 0.000000 1.704740 
# 
# From -- ./inp_files/1510.got.cif
#   From: 2010.03.12/outbox.cif.g09.slc.cpg/sg193_1_cif.got.tgz:1510.got - 2010.04.01 12:20:39.
