data_PCOD8329901
_publ_section_title
;
Structure prediction by ZEFSAII (Michael W. Deem and Ramdas Pophale) SiO2 
 PCOD8329901
Probable space group: P 63/M C M
;
_chemical_formula_sum "Si O2"
_cell_formula_units_Z 132
_cell_length_a 22.900535
_cell_length_b 22.900535
_cell_length_c 15.823069
_cell_angle_alpha 90.000000
_cell_angle_beta 90.000000
_cell_angle_gamma 120.000000
_cell_volume 7186.420250
_symmetry_space_group_name_H-M "P 63/M C M"
_symmetry_group_IT_number 193
_symmetry_cell_setting 'hexagonal'
loop_
_space_group_symop_operation_xyz
x,y,z
x-y,x,1/2+z
-y,x-y,z
-x,-y,1/2+z
-x+y,-x,z
y,-x+y,1/2+z
x-y,-y,1/2-z
-x,-x+y,1/2-z
y,x,1/2-z
-y,-x,-z
-x+y,y,-z
x,x-y,-z
-x,-y,-z
-x+y,-x,1/2-z
y,-x+y,-z
x,y,1/2-z
x-y,x,-z
-y,x-y,1/2-z
-x+y,y,1/2+z
x,x-y,1/2+z
-y,-x,1/2+z
y,x,z
x-y,-y,z
-x,-x+y,z
loop_
_atom_site_type_symbol
_atom_site_label
_atom_site_fract_x
_atom_site_fract_y
_atom_site_fract_z
Si Si1 0.809935 0.417375 0.345411
Si Si2 0.164486 0.380943 0.591594
Si Si3 0.480641 0.725836 0.403384
Si Si4 0.922359 0.562188 0.151361
Si Si5 0.160103 0.237040 0.344283
Si Si6 0.078141 0.921860 0.000000
O O1 0.806119 0.393898 0.250000
O O2 0.748792 0.431969 0.360325
O O3 0.801817 0.354500 0.399661
O O4 0.882135 0.481992 0.366273
O O5 0.180773 0.361546 0.500000
O O6 0.232500 0.442850 0.634390
O O7 0.108461 0.404552 0.588744
O O8 0.131962 0.315673 0.650667
O O9 0.491785 0.745893 0.500000
O O10 0.913464 0.576235 0.250000
O O11 0.000000 0.590496 0.128175
O O12 0.129955 0.212355 0.250000
O O13 0.221840 0.221840 0.359150
O O14 0.103817 0.200052 0.415108
O O15 0.000000 0.890546 0.987630
#
# Coordination Sequence:
#
# PCOD8329901 Si02
#       6
#    24  24  24  24  24  12
#     4  10  19  31  49  74 101 132 174 221 274 328
#     4  10  19  32  51  78 108 138 177 226 275 322
#     4  10  20  32  49  69 103 139 177 221 275 328
#     4   9  18  33  54  77 101 134 178 227 273 322
#     4  10  20  35  58  85 113 146 182 222 267 315
#     4  10  21  38  60  86 116 146 178 214 258 314
#
# _framework density 18.367977
#
# number of rings (size 3 to 8) (size 9 to 14) (size 15 to 20)
#    0.000    2.182    0.909    2.636    0.000    4.000 
#    0.000    0.000    0.000   26.182    0.000    2.545 
#    0.000    0.000    0.000    0.000    0.000    0.000 
#
# Total GULP energy -1636031.981815 kJ/mol
# GULP energy per Si atom -12394.181680 kJ/mol
# Density = 1.832617 g / cm^3
# Si number density = 18.367977 Si / 1000 Ang^3
#
#
#
# Elastic Constant Matrix: (Units=GPa)
#
#
# Indices 1 2 3 4 5 6 
#
# 1 108.9665 62.4015 42.5952 0.0000 0.0000 0.0000
# 2 62.4015 108.9665 42.5952 0.0000 0.0000 0.0000
# 3 42.5952 42.5952 85.9671 0.0000 0.0000 0.0000
# 4 0.0000 0.0000 0.0000 35.3500 0.0000 0.0000
# 5 0.0000 0.0000 0.0000 0.0000 35.3500 0.0000
# 6 0.0000 0.0000 0.0000 0.0000 0.0000 23.2825
#
#
#
# Elastic Compliance Matrix: (Units=1/GPa)
#
#
# Indices 1 2 3 4 5 6 
#
# 1 0.014609 -0.006866 -0.003836 0.000000 0.000000 0.000000
# 2 -0.006866 0.014609 -0.003836 0.000000 0.000000 0.000000
# 3 -0.003836 -0.003836 0.015434 0.000000 0.000000 0.000000
# 4 0.000000 0.000000 0.000000 0.028289 0.000000 0.000000
# 5 0.000000 0.000000 0.000000 0.000000 0.028289 0.000000
# 6 0.000000 0.000000 0.000000 0.000000 0.000000 0.042951
#
#
# Mechanical properties :
#
#
# Convention : Reuss Voigt Hill
#
# Bulk Modulus (GPa) = 64.21014 66.56487 65.38750
# Shear Modulus (GPa) = 28.01923 29.21704 28.61813
#
# Velocity S-wave (km/s) = 3.90992 3.99262 3.95149
# Velocity P-wave (km/s) = 7.44425 7.58769 7.51631
#
# Compressibility (1/GPa) = 0.01557386
#
# Stress axis : x y z
#
# Youngs Moduli (GPa) = 68.45127 68.45127 64.79224
#
# Poissons Ratio (x) = 0.47002 0.24856
# Poissons Ratio (y) = 0.47002 0.24856
# Poissons Ratio (z) = 0.26260 0.26260
#
# Static dielectric constant tensor:
#      x y z
#    x 3.441640 0.000000 0.000000 
#    y 0.000000 3.441640 0.000000 
#    z 0.000000 0.000000 3.369100 
# 
# 
# High freq. dielectric constant tensor:
#      x y z
#    x 1.705860 0.000000 0.000000 
#    y 0.000000 1.705860 0.000000 
#    z 0.000000 0.000000 1.707770 
# 
# From -- ./inp_files/4132.got.cif
#   From: 2010.03.12/outbox.cif.g09.slc.cpg/sg193_3_cif.got.tgz:4132.got - 2010.04.01 12:20:39.
