data_PCOD8329296
_publ_section_title
;
Structure prediction by ZEFSAII (Michael W. Deem and Ramdas Pophale) SiO2 
 PCOD8329296
Probable space group: P 6/M M M
;
_chemical_formula_sum "Si O2"
_cell_formula_units_Z 192
_cell_length_a 23.216383
_cell_length_b 23.216383
_cell_length_c 29.325506
_cell_angle_alpha 90.000000
_cell_angle_beta 90.000000
_cell_angle_gamma 120.000000
_cell_volume 13688.796446
_symmetry_space_group_name_H-M "P 6/M M M"
_symmetry_group_IT_number 191
_symmetry_cell_setting 'hexagonal'
loop_
_space_group_symop_operation_xyz
x,y,z
x-y,x,z
-y,x-y,z
-x,-y,z
-x+y,-x,z
y,-x+y,z
x-y,-y,-z
-x,-x+y,-z
y,x,-z
-y,-x,-z
-x+y,y,-z
x,x-y,-z
-x,-y,-z
-x+y,-x,-z
y,-x+y,-z
x,y,-z
x-y,x,-z
-y,x-y,-z
-x+y,y,z
x,x-y,z
-y,-x,z
y,x,z
x-y,-y,z
-x,-x+y,z
loop_
_atom_site_type_symbol
_atom_site_label
_atom_site_fract_x
_atom_site_fract_y
_atom_site_fract_z
Si Si1 0.394941 0.470405 0.051952
Si Si2 0.072467 0.272347 0.773530
Si Si3 0.277618 0.418689 0.779941
Si Si4 0.799461 0.465841 0.285101
Si Si5 0.197521 0.926850 0.117974
Si Si6 0.467566 0.800798 0.609118
Si Si7 0.605237 0.073783 0.551614
Si Si8 0.722425 0.144642 0.117788
O O1 0.455850 0.544151 0.056934
O O2 0.417469 0.417469 0.066828
O O3 0.337230 0.466222 0.083898
O O4 0.369340 0.456625 0.000000
O O5 0.128812 0.257624 0.752991
O O6 0.086596 0.346210 0.760994
O O7 0.072710 0.267913 0.827720
O O8 0.000000 0.218773 0.753691
O O9 0.209393 0.418786 0.782852
O O10 0.328594 0.473850 0.744983
O O11 0.307610 0.432392 0.830966
O O12 0.726049 0.452097 0.273999
O O13 0.802026 0.401013 0.270881
O O14 0.816716 0.483815 0.337829
O O15 0.123104 0.876897 0.099369
O O16 0.246277 0.900411 0.102396
O O17 0.223085 0.000000 0.097422
O O18 0.393429 0.786858 0.597889
O O19 0.471251 0.735626 0.594425
O O20 0.524621 0.865690 0.582724
O O21 0.632688 0.086306 0.500000
O O22 0.537207 0.074414 0.553803
O O23 0.589944 0.000000 0.567994
O O24 0.777448 0.222553 0.114451
#
# Coordination Sequence:
#
# PCOD8329296 Si02
#       8
#    24  24  24  24  24  24  24  24
#     4   9  18  31  44  57  74  97 121 142 171 218
#     4   8  13  22  36  52  70  93 120 148 178 213
#     4   8  15  26  38  54  75  98 124 152 180 213
#     4   9  16  26  39  54  74 100 127 153 185 227
#     4   8  13  21  35  55  76  97 120 146 176 208
#     4   9  16  25  38  56  77 100 125 156 195 235
#     4   8  14  25  39  52  68  95 129 159 189 228
#     4   9  16  26  42  61  76  92 118 153 188 215
#
# _framework density 14.026068
#
# number of rings (size 3 to 8) (size 9 to 14) (size 15 to 20)
#    0.000    3.500    0.000    2.875    0.000    2.500 
#    0.000    0.625    0.000    2.375    0.000    1.750 
#    0.000    0.000    0.000    0.000    0.000    0.000 
#
# Total GULP energy -2379225.264441 kJ/mol
# GULP energy per Si atom -12391.798252 kJ/mol
# Density = 1.399414 g / cm^3
# Si number density = 14.026068 Si / 1000 Ang^3
#
#
#
# Elastic Constant Matrix: (Units=GPa)
#
#
# Indices 1 2 3 4 5 6 
#
# 1 81.2484 43.3155 37.5049 0.0000 0.0000 0.0000
# 2 43.3155 81.2484 37.5049 0.0000 0.0000 0.0000
# 3 37.5049 37.5049 48.0065 0.0000 0.0000 0.0000
# 4 0.0000 0.0000 0.0000 16.8900 0.0000 0.0000
# 5 0.0000 0.0000 0.0000 0.0000 16.8900 0.0000
# 6 0.0000 0.0000 0.0000 0.0000 0.0000 18.9665
#
#
#
# Elastic Compliance Matrix: (Units=1/GPa)
#
#
# Indices 1 2 3 4 5 6 
#
# 1 0.020761 -0.005601 -0.011844 0.000000 0.000000 0.000000
# 2 -0.005601 0.020761 -0.011844 0.000000 0.000000 0.000000
# 3 -0.011844 -0.011844 0.039336 0.000000 0.000000 0.000000
# 4 0.000000 0.000000 0.000000 0.059207 0.000000 0.000000
# 5 0.000000 0.000000 0.000000 0.000000 0.059207 0.000000
# 6 0.000000 0.000000 0.000000 0.000000 0.000000 0.052725
#
#
# Mechanical properties :
#
#
# Convention : Reuss Voigt Hill
#
# Bulk Modulus (GPa) = 44.88044 49.68379 47.28212
# Shear Modulus (GPa) = 15.72323 16.69450 16.20887
#
# Velocity S-wave (km/s) = 3.35177 3.45374 3.40314
# Velocity P-wave (km/s) = 6.85904 7.16964 7.01606
#
# Compressibility (1/GPa) = 0.02228142
#
# Stress axis : x y z
#
# Youngs Moduli (GPa) = 48.16679 48.16679 25.42181
#
# Poissons Ratio (x) = 0.26979 0.30109
# Poissons Ratio (y) = 0.26979 0.30109
# Poissons Ratio (z) = 0.57048 0.57048
#
# Static dielectric constant tensor:
#      x y z
#    x 2.841790 0.000000 0.000000 
#    y 0.000000 2.841790 0.000000 
#    z 0.000000 0.000000 2.600690 
# 
# 
# High freq. dielectric constant tensor:
#      x y z
#    x 1.521360 0.000000 0.000000 
#    y 0.000000 1.521360 0.000000 
#    z 0.000000 0.000000 1.507030 
# 
# From -- ./inp_files/10156.got.cif
#   From: 2010.03.12/outbox.cif.g09.slc.cpg/sg191_6_cif.got.tgz:10156.got - 2010.04.01 12:09:02.
