data_PCOD8329844
_publ_section_title
;
Structure prediction by ZEFSAII (Michael W. Deem and Ramdas Pophale) SiO2 
 PCOD8329844
Probable space group: P 63/M C M
;
_chemical_formula_sum "Si O2"
_cell_formula_units_Z 108
_cell_length_a 14.455113
_cell_length_b 14.455113
_cell_length_c 29.988470
_cell_angle_alpha 90.000000
_cell_angle_beta 90.000000
_cell_angle_gamma 120.000000
_cell_volume 5426.601400
_symmetry_space_group_name_H-M "P 63/M C M"
_symmetry_group_IT_number 193
_symmetry_cell_setting 'hexagonal'
loop_
_space_group_symop_operation_xyz
x,y,z
x-y,x,1/2+z
-y,x-y,z
-x,-y,1/2+z
-x+y,-x,z
y,-x+y,1/2+z
x-y,-y,1/2-z
-x,-x+y,1/2-z
y,x,1/2-z
-y,-x,-z
-x+y,y,-z
x,x-y,-z
-x,-y,-z
-x+y,-x,1/2-z
y,-x+y,-z
x,y,1/2-z
x-y,x,-z
-y,x-y,1/2-z
-x+y,y,1/2+z
x,x-y,1/2+z
-y,-x,1/2+z
y,x,z
x-y,-y,z
-x,-x+y,z
loop_
_atom_site_type_symbol
_atom_site_label
_atom_site_fract_x
_atom_site_fract_y
_atom_site_fract_z
Si Si1 0.778343 0.320728 0.750000
Si Si2 0.479571 0.600421 0.114857
Si Si3 0.879714 0.121738 0.387570
Si Si4 0.815519 0.267217 0.656827
Si Si5 0.271349 0.879978 0.036344
O O1 0.777345 0.432410 0.750000
O O2 0.840604 0.314470 0.706630
O O3 0.569322 0.569322 0.126372
O O4 0.489952 0.688227 0.150285
O O5 0.361845 0.498437 0.119798
O O6 0.502303 0.648489 0.064584
O O7 0.804574 0.129508 0.349798
O O8 0.875005 0.180314 0.431832
O O9 0.000000 0.176566 0.368846
O O10 0.840368 0.000000 0.399669
O O11 0.338673 0.000000 0.015381
O O12 0.212744 0.787257 0.000000
#
# Coordination Sequence:
#
# PCOD8329844 Si02
#       5
#    12  24  24  24  24
#     4  10  18  34  58  90 114 146 176 232 284 338
#     4  10  20  35  56  82 114 152 186 224 282 343
#     4  10  21  37  57  79 110 152 198 241 282 329
#     4  11  19  36  57  85 117 147 182 230 285 342
#     4   9  18  33  56  85 116 149 189 238 288 337
#
# _framework density 19.901959999999999
#
# number of rings (size 3 to 8) (size 9 to 14) (size 15 to 20)
#    0.222    1.778    2.222    4.000    0.000    0.000 
#    0.000   10.000    0.000   15.556    0.000    1.556 
#    0.000    0.889    0.000    0.000    0.000    0.000 
#
# Total GULP energy -1338955.520853 kJ/mol
# GULP energy per Si atom -12397.736304 kJ/mol
# Density = 1.985666 g / cm^3
# Si number density = 19.901960 Si / 1000 Ang^3
#
#
#
# Elastic Constant Matrix: (Units=GPa)
#
#
# Indices 1 2 3 4 5 6 
#
# 1 103.7367 39.8886 45.3761 0.0000 0.0000 0.0000
# 2 39.8886 103.7367 45.3761 0.0000 0.0000 0.0000
# 3 45.3761 45.3761 102.4991 0.0000 0.0000 0.0000
# 4 0.0000 0.0000 0.0000 19.5850 0.0000 0.0000
# 5 0.0000 0.0000 0.0000 0.0000 19.5850 0.0000
# 6 0.0000 0.0000 0.0000 0.0000 0.0000 31.9240
#
#
#
# Elastic Compliance Matrix: (Units=1/GPa)
#
#
# Indices 1 2 3 4 5 6 
#
# 1 0.012664 -0.002998 -0.004279 0.000000 0.000000 0.000000
# 2 -0.002998 0.012664 -0.004279 0.000000 0.000000 0.000000
# 3 -0.004279 -0.004279 0.013545 0.000000 0.000000 0.000000
# 4 0.000000 0.000000 0.000000 0.051060 0.000000 0.000000
# 5 0.000000 0.000000 0.000000 0.000000 0.051060 0.000000
# 6 0.000000 0.000000 0.000000 0.000000 0.000000 0.031324
#
#
# Mechanical properties :
#
#
# Convention : Reuss Voigt Hill
#
# Bulk Modulus (GPa) = 63.44865 63.47267 63.46066
# Shear Modulus (GPa) = 24.91480 26.17425 25.54453
#
# Velocity S-wave (km/s) = 3.54203 3.63045 3.58651
# Velocity P-wave (km/s) = 6.97694 7.03814 7.00761
#
# Compressibility (1/GPa) = 0.01576078
#
# Stress axis : x y z
#
# Youngs Moduli (GPa) = 78.96170 78.96170 73.82739
#
# Poissons Ratio (x) = 0.23671 0.31593
# Poissons Ratio (y) = 0.23671 0.31593
# Poissons Ratio (z) = 0.33791 0.33791
#
# Static dielectric constant tensor:
#      x y z
#    x 3.645130 0.000000 0.000000 
#    y 0.000000 3.645130 0.000000 
#    z 0.000000 0.000000 3.263890 
# 
# 
# High freq. dielectric constant tensor:
#      x y z
#    x 1.776300 0.000000 0.000000 
#    y 0.000000 1.776300 0.000000 
#    z 0.000000 0.000000 1.746470 
# 
# From -- ./inp_files/8829.got.cif
#   From: 2010.03.12/outbox.cif.g09.slc.cpg/sg193_5_cif.got.tgz:8829.got - 2010.04.01 12:20:39.
