data_PCOD8329943
_publ_section_title
;
Structure prediction by ZEFSAII (Michael W. Deem and Ramdas Pophale) SiO2 
 PCOD8329943
Probable space group: P 63/M C M
;
_chemical_formula_sum "Si O2"
_cell_formula_units_Z 144
_cell_length_a 32.518771
_cell_length_b 32.518771
_cell_length_c 8.839929
_cell_angle_alpha 90.000000
_cell_angle_beta 90.000000
_cell_angle_gamma 120.000000
_cell_volume 8095.574169
_symmetry_space_group_name_H-M "P 63/M C M"
_symmetry_group_IT_number 193
_symmetry_cell_setting 'hexagonal'
loop_
_space_group_symop_operation_xyz
x,y,z
x-y,x,1/2+z
-y,x-y,z
-x,-y,1/2+z
-x+y,-x,z
y,-x+y,1/2+z
x-y,-y,1/2-z
-x,-x+y,1/2-z
y,x,1/2-z
-y,-x,-z
-x+y,y,-z
x,x-y,-z
-x,-y,-z
-x+y,-x,1/2-z
y,-x+y,-z
x,y,1/2-z
x-y,x,-z
-y,x-y,1/2-z
-x+y,y,1/2+z
x,x-y,1/2+z
-y,-x,1/2+z
y,x,z
x-y,-y,z
-x,-x+y,z
loop_
_atom_site_type_symbol
_atom_site_label
_atom_site_fract_x
_atom_site_fract_y
_atom_site_fract_z
Si Si1 0.519062 0.568508 0.073786
Si Si2 0.848061 0.468857 0.571161
Si Si3 0.193909 0.719017 0.073204
Si Si4 0.227792 0.860641 0.927656
Si Si5 0.945505 0.226624 0.427798
Si Si6 0.193819 0.139345 0.072405
O O1 0.510086 0.561319 0.250000
O O2 0.568478 0.568478 0.031450
O O3 0.513859 0.613455 0.026716
O O4 0.476809 0.523192 0.000000
O O5 0.839544 0.419772 0.500000
O O6 0.840071 0.461682 0.750000
O O7 0.813055 0.484090 0.499616
O O8 0.201147 0.717179 0.250000
O O9 0.152002 0.730877 0.038062
O O10 0.241548 0.758453 0.000000
O O11 0.219616 0.862139 0.750000
O O12 0.178183 0.821818 0.000000
O O13 0.244791 0.912000 0.000524
O O14 0.936509 0.219487 0.250000
O O15 0.932136 0.176240 0.499666
O O16 0.000000 0.265654 0.464752
O O17 0.201305 0.137485 0.250000
O O18 0.154795 0.154795 0.036262
O O19 0.175251 0.087626 0.000000
#
# Coordination Sequence:
#
# PCOD8329943 Si02
#       6
#    24  24  24  24  24  24
#     4   8  14  25  42  66  96 129 163 197 233 274
#     4  10  19  32  53  79 107 138 172 211 253 298
#     4  10  21  37  56  78 103 133 171 213 257 302
#     4  10  20  34  53  74  99 132 170 212 254 301
#     4  10  20  33  50  73 102 135 170 209 253 303
#     4  10  20  33  50  72  98 129 165 208 259 313
#
# _framework density 17.787496000000001
#
# number of rings (size 3 to 8) (size 9 to 14) (size 15 to 20)
#    0.000    2.333    0.000    3.000    0.000    4.667 
#    0.000    0.833    0.000    3.500    0.000    2.333 
#    0.000    0.000    0.000    0.000    0.000    0.000 
#
# Total GULP energy -1784411.323719 kJ/mol
# GULP energy per Si atom -12391.745304 kJ/mol
# Density = 1.774701 g / cm^3
# Si number density = 17.787496 Si / 1000 Ang^3
#
#
#
# Elastic Constant Matrix: (Units=GPa)
#
#
# Indices 1 2 3 4 5 6 
#
# 1 108.4109 63.6343 60.1930 0.0000 0.0000 0.0000
# 2 63.6343 108.4109 60.1930 0.0000 0.0000 0.0000
# 3 60.1930 60.1930 101.1432 0.0000 0.0000 0.0000
# 4 0.0000 0.0000 0.0000 28.0454 0.0000 0.0000
# 5 0.0000 0.0000 0.0000 0.0000 28.0454 0.0000
# 6 0.0000 0.0000 0.0000 0.0000 0.0000 22.3883
#
#
#
# Elastic Compliance Matrix: (Units=1/GPa)
#
#
# Indices 1 2 3 4 5 6 
#
# 1 0.016147 -0.006186 -0.005928 0.000000 0.000000 0.000000
# 2 -0.006186 0.016147 -0.005928 0.000000 0.000000 0.000000
# 3 -0.005928 -0.005928 0.016942 0.000000 0.000000 0.000000
# 4 0.000000 0.000000 0.000000 0.035656 0.000000 0.000000
# 5 0.000000 0.000000 0.000000 0.000000 0.035656 0.000000
# 6 0.000000 0.000000 0.000000 0.000000 0.000000 0.044666
#
#
# Mechanical properties :
#
#
# Convention : Reuss Voigt Hill
#
# Bulk Modulus (GPa) = 76.03204 76.22285 76.12744
# Shear Modulus (GPa) = 24.30939 24.62546 24.46742
#
# Velocity S-wave (km/s) = 3.70084 3.72482 3.71285
# Velocity P-wave (km/s) = 7.81659 7.83862 7.82762
#
# Compressibility (1/GPa) = 0.01315235
#
# Stress axis : x y z
#
# Youngs Moduli (GPa) = 61.93250 61.93250 59.02395
#
# Poissons Ratio (x) = 0.38314 0.34987
# Poissons Ratio (y) = 0.38314 0.34987
# Poissons Ratio (z) = 0.36711 0.36711
#
# Static dielectric constant tensor:
#      x y z
#    x 3.317140 0.000000 0.000000 
#    y 0.000000 3.317140 0.000000 
#    z 0.000000 0.000000 3.399140 
# 
# 
# High freq. dielectric constant tensor:
#      x y z
#    x 1.674900 0.000000 0.000000 
#    y 0.000000 1.674900 0.000000 
#    z 0.000000 0.000000 1.705710 
# 
# From -- ./inp_files/1536.got.cif
#   From: 2010.03.12/outbox.cif.g09.slc.cpg/sg193_1_cif.got.tgz:1536.got - 2010.04.01 12:20:39.
