data_PCOD8329767
_publ_section_title
;
Structure prediction by ZEFSAII (Michael W. Deem and Ramdas Pophale) SiO2 
 PCOD8329767
Probable space group: P 63/M C M
;
_chemical_formula_sum "Si O2"
_cell_formula_units_Z 144
_cell_length_a 23.200271
_cell_length_b 23.200271
_cell_length_c 17.040822
_cell_angle_alpha 90.000000
_cell_angle_beta 90.000000
_cell_angle_gamma 120.000000
_cell_volume 7943.415637
_symmetry_space_group_name_H-M "P 63/M C M"
_symmetry_group_IT_number 193
_symmetry_cell_setting 'hexagonal'
loop_
_space_group_symop_operation_xyz
x,y,z
x-y,x,1/2+z
-y,x-y,z
-x,-y,1/2+z
-x+y,-x,z
y,-x+y,1/2+z
x-y,-y,1/2-z
-x,-x+y,1/2-z
y,x,1/2-z
-y,-x,-z
-x+y,y,-z
x,x-y,-z
-x,-y,-z
-x+y,-x,1/2-z
y,-x+y,-z
x,y,1/2-z
x-y,x,-z
-y,x-y,1/2-z
-x+y,y,1/2+z
x,x-y,1/2+z
-y,-x,1/2+z
y,x,z
x-y,-y,z
-x,-x+y,z
loop_
_atom_site_type_symbol
_atom_site_label
_atom_site_fract_x
_atom_site_fract_y
_atom_site_fract_z
Si Si1 0.923546 0.655743 0.164592
Si Si2 0.543656 0.620768 0.568768
Si Si3 0.414143 0.264425 0.548531
Si Si4 0.583187 0.382941 0.087326
Si Si5 0.800455 0.722807 0.513252
Si Si6 0.718800 0.478818 0.159573
O O1 0.888560 0.647712 0.250000
O O2 0.915325 0.585584 0.139294
O O3 0.895957 0.683658 0.096477
O O4 0.000000 0.709973 0.172982
O O5 0.565877 0.565877 0.554556
O O6 0.552392 0.662417 0.489646
O O7 0.465794 0.585609 0.591086
O O8 0.428771 0.214386 0.500000
O O9 0.334391 0.236785 0.553144
O O10 0.449566 0.271057 0.632141
O O11 0.642415 0.421733 0.148499
O O12 0.540246 0.305690 0.109944
O O13 0.611939 0.388062 0.000000
O O14 0.880306 0.760611 0.500000
O O15 0.775996 0.775996 0.510030
O O16 0.738363 0.484735 0.250000
#
# Coordination Sequence:
#
# PCOD8329767 Si02
#       6
#    24  24  24  24  24  24
#     4   8  15  29  51  80 110 139 176 230 282 317
#     4  10  20  35  59  86 111 141 183 228 279 351
#     4  10  17  37  56  82 107 142 185 225 282 334
#     4  12  23  42  61  81 110 143 194 240 291 336
#     4   9  18  32  55  82 114 149 193 232 275 339
#     4  12  25  40  58  83 110 146 191 241 290 342
#
# _framework density 18.128222999999998
#
# number of rings (size 3 to 8) (size 9 to 14) (size 15 to 20)
#    0.000    1.833    3.333    2.833    0.000    1.667 
#    0.000    0.000    0.000    5.667    0.000    0.000 
#    0.000    0.000    0.000    0.000    0.000    0.167 
#
# Total GULP energy -1784504.478381 kJ/mol
# GULP energy per Si atom -12392.392211 kJ/mol
# Density = 1.808696 g / cm^3
# Si number density = 18.128223 Si / 1000 Ang^3
#
#
#
# Elastic Constant Matrix: (Units=GPa)
#
#
# Indices 1 2 3 4 5 6 
#
# 1 95.6366 37.8519 34.1466 0.0000 0.0000 0.0000
# 2 37.8519 95.6366 34.1466 0.0000 0.0000 0.0000
# 3 34.1466 34.1466 100.9452 0.0000 0.0000 0.0000
# 4 0.0000 0.0000 0.0000 15.8482 0.0000 0.0000
# 5 0.0000 0.0000 0.0000 0.0000 15.8482 0.0000
# 6 0.0000 0.0000 0.0000 0.0000 0.0000 28.8924
#
#
#
# Elastic Compliance Matrix: (Units=1/GPa)
#
#
# Indices 1 2 3 4 5 6 
#
# 1 0.013182 -0.004123 -0.003064 0.000000 0.000000 0.000000
# 2 -0.004123 0.013182 -0.003064 0.000000 0.000000 0.000000
# 3 -0.003064 -0.003064 0.011980 0.000000 0.000000 0.000000
# 4 0.000000 0.000000 0.000000 0.063099 0.000000 0.000000
# 5 0.000000 0.000000 0.000000 0.000000 0.063099 0.000000
# 6 0.000000 0.000000 0.000000 0.000000 0.000000 0.034611
#
#
# Mechanical properties :
#
#
# Convention : Reuss Voigt Hill
#
# Bulk Modulus (GPa) = 56.05363 56.05650 56.05507
# Shear Modulus (GPa) = 22.16280 24.52266 23.34273
#
# Velocity S-wave (km/s) = 3.50030 3.68194 3.59227
# Velocity P-wave (km/s) = 6.87924 7.00464 6.94222
#
# Compressibility (1/GPa) = 0.01784006
#
# Stress axis : x y z
#
# Youngs Moduli (GPa) = 75.85920 75.85920 83.47570
#
# Poissons Ratio (x) = 0.31279 0.25580
# Poissons Ratio (y) = 0.31279 0.25580
# Poissons Ratio (z) = 0.23246 0.23246
#
# Static dielectric constant tensor:
#      x y z
#    x 3.337340 0.000000 0.000000 
#    y 0.000000 3.337340 0.000000 
#    z 0.000000 0.000000 3.587930 
# 
# 
# High freq. dielectric constant tensor:
#      x y z
#    x 1.689890 0.000000 0.000000 
#    y 0.000000 1.689890 0.000000 
#    z 0.000000 0.000000 1.682860 
# 
# From -- ./inp_files/5596.got.cif
#   From: 2010.03.12/outbox.cif.g09.slc.cpg/sg193_3_cif.got.tgz:5596.got - 2010.04.01 12:20:39.
