data_PCOD8329982
_publ_section_title
;
Structure prediction by ZEFSAII (Michael W. Deem and Ramdas Pophale) SiO2 
 PCOD8329982
Probable space group: P 63/M C M
;
_chemical_formula_sum "Si O2"
_cell_formula_units_Z 128
_cell_length_a 21.055562
_cell_length_b 21.055562
_cell_length_c 18.250325
_cell_angle_alpha 90.000000
_cell_angle_beta 90.000000
_cell_angle_gamma 120.000000
_cell_volume 7007.045055
_symmetry_space_group_name_H-M "P 63/M C M"
_symmetry_group_IT_number 193
_symmetry_cell_setting 'hexagonal'
loop_
_space_group_symop_operation_xyz
x,y,z
x-y,x,1/2+z
-y,x-y,z
-x,-y,1/2+z
-x+y,-x,z
y,-x+y,1/2+z
x-y,-y,1/2-z
-x,-x+y,1/2-z
y,x,1/2-z
-y,-x,-z
-x+y,y,-z
x,x-y,-z
-x,-y,-z
-x+y,-x,1/2-z
y,-x+y,-z
x,y,1/2-z
x-y,x,-z
-y,x-y,1/2-z
-x+y,y,1/2+z
x,x-y,1/2+z
-y,-x,1/2+z
y,x,z
x-y,-y,z
-x,-x+y,z
loop_
_atom_site_type_symbol
_atom_site_label
_atom_site_fract_x
_atom_site_fract_y
_atom_site_fract_z
Si Si1 0.803529 0.474758 0.164189
Si Si2 0.086471 0.795653 0.667437
Si Si3 0.916544 0.833711 0.913532
Si Si4 0.456102 0.295822 0.663294
Si Si5 0.547143 0.085334 0.586532
Si Si6 0.333334 0.666667 0.336482
O O1 0.821273 0.482260 0.250000
O O2 0.762872 0.519164 0.142081
O O3 0.879057 0.499370 0.120888
O O4 0.748860 0.390694 0.138469
O O5 0.114046 0.820155 0.750000
O O6 0.117051 0.869561 0.619960
O O7 0.115716 0.743613 0.637716
O O8 0.000000 0.749746 0.661752
O O9 0.868463 0.868463 0.884859
O O10 0.000000 0.886490 0.887085
O O11 0.913019 0.826038 0.000000
O O12 0.467385 0.314543 0.750000
O O13 0.498233 0.370859 0.618488
O O14 0.547578 0.095155 0.500000
O O15 0.507438 0.000000 0.608892
O O16 0.333334 0.666668 0.250000
#
# Coordination Sequence:
#
# PCOD8329982 Si02
#       6
#    24  24  24  24  24   8
#     4  10  19  35  59  85 109 138 182 229 276 331
#     4   9  18  33  53  78 105 136 181 228 265 312
#     4   9  17  31  51  76 105 139 178 219 266 319
#     4  10  20  37  61  82 104 142 187 227 271 327
#     4  11  24  39  54  81 118 150 183 228 280 331
#     4   9  15  30  55  83 106 126 166 227 274 315
#
# _framework density 18.267330000000001
#
# number of rings (size 3 to 8) (size 9 to 14) (size 15 to 20)
#    0.000    2.250    1.875    1.312    0.000    4.125 
#    3.375    0.938    0.000    4.500    0.000    0.000 
#    0.000    0.000    0.000    0.000    0.000    0.000 
#
# Total GULP energy -1586696.308577 kJ/mol
# GULP energy per Si atom -12396.064911 kJ/mol
# Density = 1.822575 g / cm^3
# Si number density = 18.267330 Si / 1000 Ang^3
#
#
#
# Elastic Constant Matrix: (Units=GPa)
#
#
# Indices 1 2 3 4 5 6 
#
# 1 62.2962 77.1195 42.7453 0.0003 0.0005 0.0050
# 2 77.1195 62.2989 42.7436 -0.0003 -0.0005 -0.0009
# 3 42.7453 42.7436 53.3028 0.0000 0.0000 0.0000
# 4 0.0003 -0.0003 0.0000 28.5295 0.0000 0.0005
# 5 0.0005 -0.0005 0.0000 0.0000 28.5294 -0.0003
# 6 0.0050 -0.0009 0.0000 0.0005 -0.0003 -7.4740
#
#
#
# Elastic Compliance Matrix: (Units=1/GPa)
#
#
# Indices 1 2 3 4 5 6 
#
# 1 -0.026680 0.040790 -0.011313 0.000001 0.000001 -0.000023
# 2 0.040790 -0.026675 -0.011320 -0.000001 -0.000001 0.000031
# 3 -0.011313 -0.011320 0.036911 0.000000 0.000000 -0.000006
# 4 0.000001 -0.000001 0.000000 0.035051 0.000000 0.000002
# 5 0.000001 -0.000001 0.000000 0.000000 0.035052 -0.000001
# 6 -0.000023 0.000031 -0.000006 0.000002 -0.000001 -0.133798
#
#
# Mechanical properties :
#
#
# Convention : Reuss Voigt Hill
#
# Bulk Modulus (GPa) = 50.33178 55.90162 53.11670
# Shear Modulus (GPa) = -45.52491 10.93629 -17.29431
#
# Velocity S-wave (km/s) = -4.99756 2.44945 -3.08024
# Velocity P-wave (km/s) = 2.38497 6.21837 4.06079
#
# Compressibility (1/GPa) = 0.01986816
#
# Stress axis : x y z
#
# Youngs Moduli (GPa) = -37.48067 -37.48789 27.09241
#
# Poissons Ratio (x) = 1.52912 0.30651
# Poissons Ratio (y) = 1.52883 0.30668
# Poissons Ratio (z) = -0.42404 -0.42435
#
# Static dielectric constant tensor:
#      x y z
#    x 4.122580 0.000210 -0.000020 
#    y 0.000210 4.122610 0.000010 
#    z -0.000020 0.000010 3.211420 
# 
# 
# High freq. dielectric constant tensor:
#      x y z
#    x 1.710650 0.000000 0.000000 
#    y 0.000000 1.710650 0.000000 
#    z 0.000000 0.000000 1.688190 
# 
# From -- ./inp_files/6478.got.cif
#   From: 2010.03.12/outbox.cif.g09.slc.cpg/sg193_4_cif.got.tgz:6478.got - 2010.04.01 12:20:39.
