data_PCOD8329381
_publ_section_title
;
Structure prediction by ZEFSAII (Michael W. Deem and Ramdas Pophale) SiO2 
 PCOD8329381
Probable space group: P 6/M C C
;
_chemical_formula_sum "Si O2"
_cell_formula_units_Z 144
_cell_length_a 32.366801
_cell_length_b 32.366801
_cell_length_c 9.218664
_cell_angle_alpha 90.000000
_cell_angle_beta 90.000000
_cell_angle_gamma 120.000000
_cell_volume 8363.694735
_symmetry_space_group_name_H-M "P 6/M C C"
_symmetry_group_IT_number 192
_symmetry_cell_setting 'hexagonal'
loop_
_space_group_symop_operation_xyz
x,y,z
x-y,x,z
-y,x-y,z
-x,-y,z
-x+y,-x,z
y,-x+y,z
x-y,-y,1/2-z
-x,-x+y,1/2-z
y,x,1/2-z
-y,-x,1/2-z
-x+y,y,1/2-z
x,x-y,1/2-z
-x,-y,-z
-x+y,-x,-z
y,-x+y,-z
x,y,-z
x-y,x,-z
-y,x-y,-z
-x+y,y,1/2+z
x,x-y,1/2+z
-y,-x,1/2+z
y,x,1/2+z
x-y,-y,1/2+z
-x,-x+y,1/2+z
loop_
_atom_site_type_symbol
_atom_site_label
_atom_site_fract_x
_atom_site_fract_y
_atom_site_fract_z
Si Si1 0.047834 0.342433 0.171744
Si Si2 0.332845 0.750300 0.827543
Si Si3 0.811782 0.551612 0.656717
Si Si4 0.148219 0.652102 0.666133
Si Si5 0.338399 0.130981 0.162000
Si Si6 0.954626 0.562802 0.165020
O O1 0.088407 0.334414 0.241146
O O2 0.055808 0.394800 0.206676
O O3 0.000000 0.303454 0.250000
O O4 0.045499 0.333118 0.000000
O O5 0.281367 0.718633 0.750000
O O6 0.367661 0.735322 0.750000
O O7 0.354794 0.807031 0.795545
O O8 0.329513 0.740242 0.000000
O O9 0.763203 0.526405 0.750000
O O10 0.799710 0.526123 0.500000
O O11 0.851220 0.544231 0.736071
O O12 0.830141 0.606797 0.637303
O O13 0.151608 0.668378 0.500000
O O14 0.094759 0.606839 0.694879
O O15 0.314141 0.157071 0.250000
O O16 0.315360 0.114131 0.000000
O O17 0.000000 0.566920 0.250000
O O18 0.970226 0.566933 0.000000
#
# Coordination Sequence:
#
# PCOD8329381 Si02
#       6
#    24  24  24  24  24  24
#     4  10  18  29  45  63  90 125 163 204 245 293
#     4  11  24  42  64  86 111 136 164 196 238 289
#     4  10  19  28  42  64  93 125 157 194 236 284
#     4  10  20  35  54  77 103 131 162 199 236 278
#     4  10  19  29  41  60  87 121 159 198 246 294
#     4   9  18  31  48  71 101 133 166 201 239 277
#
# _framework density 17.217271
#
# number of rings (size 3 to 8) (size 9 to 14) (size 15 to 20)
#    0.000    2.000    1.667    2.667    0.000    5.333 
#    0.000    0.000    0.000    0.500    0.000    3.500 
#    0.000    0.000    0.000    0.000    0.000    0.000 
#
# Total GULP energy -1784224.661544 kJ/mol
# GULP energy per Si atom -12390.449038 kJ/mol
# Density = 1.717808 g / cm^3
# Si number density = 17.217271 Si / 1000 Ang^3
#
#
#
# Elastic Constant Matrix: (Units=GPa)
#
#
# Indices 1 2 3 4 5 6 
#
# 1 65.7213 31.1865 39.1242 0.0000 0.0000 0.0000
# 2 31.1865 65.7213 39.1242 0.0000 0.0000 0.0000
# 3 39.1242 39.1242 108.8238 0.0000 0.0000 0.0000
# 4 0.0000 0.0000 0.0000 16.8888 0.0000 0.0000
# 5 0.0000 0.0000 0.0000 0.0000 16.8888 0.0000
# 6 0.0000 0.0000 0.0000 0.0000 0.0000 17.2674
#
#
#
# Elastic Compliance Matrix: (Units=1/GPa)
#
#
# Indices 1 2 3 4 5 6 
#
# 1 0.021748 -0.007208 -0.005227 0.000000 0.000000 0.000000
# 2 -0.007208 0.021748 -0.005227 0.000000 0.000000 0.000000
# 3 -0.005227 -0.005227 0.012948 0.000000 0.000000 0.000000
# 4 0.000000 0.000000 0.000000 0.059211 0.000000 0.000000
# 5 0.000000 0.000000 0.000000 0.000000 0.059211 0.000000
# 6 0.000000 0.000000 0.000000 0.000000 0.000000 0.057913
#
#
# Mechanical properties :
#
#
# Convention : Reuss Voigt Hill
#
# Bulk Modulus (GPa) = 47.35249 51.01511 49.18380
# Shear Modulus (GPa) = 18.17231 18.93109 18.55170
#
# Velocity S-wave (km/s) = 3.25232 3.31953 3.28610
# Velocity P-wave (km/s) = 6.45493 6.66235 6.55946
#
# Compressibility (1/GPa) = 0.02111821
#
# Stress axis : x y z
#
# Youngs Moduli (GPa) = 45.98100 45.98100 77.23292
#
# Poissons Ratio (x) = 0.33144 0.40373
# Poissons Ratio (y) = 0.33144 0.40373
# Poissons Ratio (z) = 0.24036 0.24036
#
# Static dielectric constant tensor:
#      x y z
#    x 3.060720 0.000000 0.000000 
#    y 0.000000 3.060720 0.000000 
#    z 0.000000 0.000000 3.560970 
# 
# 
# High freq. dielectric constant tensor:
#      x y z
#    x 1.630380 0.000000 0.000000 
#    y 0.000000 1.630380 0.000000 
#    z 0.000000 0.000000 1.686150 
# 
# From -- ./inp_files/1180.got.cif
#   From: 2010.03.12/outbox.cif.g09.slc.cpg/sg192_1_cif.got.tgz:1180.got - 2010.04.01 12:16:15.
