data_PCOD8329024
_publ_section_title
;
Structure prediction by ZEFSAII (Michael W. Deem and Ramdas Pophale) SiO2 
 PCOD8329024
Probable space group: P 6/M M M
;
_chemical_formula_sum "Si O2"
_cell_formula_units_Z 144
_cell_length_a 31.960115
_cell_length_b 31.960115
_cell_length_c 9.106009
_cell_angle_alpha 90.000000
_cell_angle_beta 90.000000
_cell_angle_gamma 120.000000
_cell_volume 8055.182301
_symmetry_space_group_name_H-M "P 6/M M M"
_symmetry_group_IT_number 191
_symmetry_cell_setting 'hexagonal'
loop_
_space_group_symop_operation_xyz
x,y,z
x-y,x,z
-y,x-y,z
-x,-y,z
-x+y,-x,z
y,-x+y,z
x-y,-y,-z
-x,-x+y,-z
y,x,-z
-y,-x,-z
-x+y,y,-z
x,x-y,-z
-x,-y,-z
-x+y,-x,-z
y,-x+y,-z
x,y,-z
x-y,x,-z
-y,x-y,-z
-x+y,y,z
x,x-y,z
-y,-x,z
y,x,z
x-y,-y,z
-x,-x+y,z
loop_
_atom_site_type_symbol
_atom_site_label
_atom_site_fract_x
_atom_site_fract_y
_atom_site_fract_z
Si Si1 0.520981 0.945020 0.829682
Si Si2 0.197911 0.052936 0.675234
Si Si3 0.761063 0.427677 0.674714
Si Si4 0.663361 0.521039 0.674166
Si Si5 0.304393 0.102724 0.337560
Si Si6 0.247736 0.396000 0.834328
O O1 0.468721 0.937441 0.791832
O O2 0.529192 0.908246 0.733328
O O3 0.561789 0.000000 0.791144
O O4 0.524255 0.934430 0.000000
O O5 0.197812 0.054610 0.500000
O O6 0.184740 0.092370 0.738445
O O7 0.251347 0.065086 0.725905
O O8 0.158875 0.000000 0.735055
O O9 0.759760 0.427383 0.500000
O O10 0.717143 0.434286 0.736428
O O11 0.754604 0.377302 0.734529
O O12 0.812610 0.470656 0.730738
O O13 0.662649 0.522760 0.500000
O O14 0.714291 0.562710 0.730378
O O15 0.312222 0.086820 0.500000
O O16 0.308561 0.154281 0.351680
O O17 0.344714 0.105642 0.226206
O O18 0.199182 0.398363 0.828872
O O19 0.267591 0.402423 0.000000
#
# Coordination Sequence:
#
# PCOD8329024 Si02
#       6
#    24  24  24  24  24  24
#     4   9  19  37  58  76  96 125 160 200 249 301
#     4   8  13  22  39  64  92 122 158 200 243 286
#     4   9  17  29  46  70 101 135 169 206 248 290
#     4  11  21  32  50  77 106 133 165 206 249 298
#     4   8  14  26  44  64  86 115 153 197 243 286
#     4  10  20  33  49  69  95 129 167 204 246 299
#
# _framework density 17.87669
#
# number of rings (size 3 to 8) (size 9 to 14) (size 15 to 20)
#    0.000    2.833    0.000    3.667    0.000    3.667 
#    0.000    1.667    0.000    3.667    0.000    1.167 
#    0.000    8.000    0.000    0.000    0.000    0.000 
#
# Total GULP energy -1784976.873069 kJ/mol
# GULP energy per Si atom -12395.672730 kJ/mol
# Density = 1.783600 g / cm^3
# Si number density = 17.876690 Si / 1000 Ang^3
#
#
#
# Elastic Constant Matrix: (Units=GPa)
#
#
# Indices 1 2 3 4 5 6 
#
# 1 105.3903 57.0111 32.0239 0.0000 0.0000 0.0000
# 2 57.0111 105.3903 32.0239 0.0000 0.0000 0.0000
# 3 32.0239 32.0239 50.0719 0.0000 0.0000 0.0000
# 4 0.0000 0.0000 0.0000 14.4430 0.0000 0.0000
# 5 0.0000 0.0000 0.0000 0.0000 14.4430 0.0000
# 6 0.0000 0.0000 0.0000 0.0000 0.0000 24.1896
#
#
#
# Elastic Compliance Matrix: (Units=1/GPa)
#
#
# Indices 1 2 3 4 5 6 
#
# 1 0.014452 -0.006218 -0.005267 0.000000 0.000000 0.000000
# 2 -0.006218 0.014452 -0.005267 0.000000 0.000000 0.000000
# 3 -0.005267 -0.005267 0.026708 0.000000 0.000000 0.000000
# 4 0.000000 0.000000 0.000000 0.069238 0.000000 0.000000
# 5 0.000000 0.000000 0.000000 0.000000 0.069238 0.000000
# 6 0.000000 0.000000 0.000000 0.000000 0.000000 0.041340
#
#
# Mechanical properties :
#
#
# Convention : Reuss Voigt Hill
#
# Bulk Modulus (GPa) = 45.22654 55.88560 50.55607
# Shear Modulus (GPa) = 18.09629 19.93468 19.01548
#
# Velocity S-wave (km/s) = 3.18509 3.34297 3.26498
# Velocity P-wave (km/s) = 6.23542 6.79928 6.52344
#
# Compressibility (1/GPa) = 0.02211091
#
# Stress axis : x y z
#
# Youngs Moduli (GPa) = 69.19305 69.19305 37.44233
#
# Poissons Ratio (x) = 0.43022 0.19719
# Poissons Ratio (y) = 0.43022 0.19719
# Poissons Ratio (z) = 0.36441 0.36441
#
# Static dielectric constant tensor:
#      x y z
#    x 3.411650 0.000000 0.000000 
#    y 0.000000 3.411650 0.000000 
#    z 0.000000 0.000000 3.117480 
# 
# 
# High freq. dielectric constant tensor:
#      x y z
#    x 1.687670 0.000000 0.000000 
#    y 0.000000 1.687670 0.000000 
#    z 0.000000 0.000000 1.658530 
# 
# From -- ./inp_files/1992.got.cif
#   From: 2010.03.12/outbox.cif.g09.slc.cpg/sg191_1_cif.got.tgz:1992.got - 2010.04.01 12:09:02.
