data_PCOD8329882
_publ_section_title
;
Structure prediction by ZEFSAII (Michael W. Deem and Ramdas Pophale) SiO2 
 PCOD8329882
Probable space group: P 63/M C M
;
_chemical_formula_sum "Si O2"
_cell_formula_units_Z 96
_cell_length_a 32.838642
_cell_length_b 32.838642
_cell_length_c 7.788700
_cell_angle_alpha 90.000000
_cell_angle_beta 90.000000
_cell_angle_gamma 120.000000
_cell_volume 7273.877558
_symmetry_space_group_name_H-M "P 63/M C M"
_symmetry_group_IT_number 193
_symmetry_cell_setting 'hexagonal'
loop_
_space_group_symop_operation_xyz
x,y,z
x-y,x,1/2+z
-y,x-y,z
-x,-y,1/2+z
-x+y,-x,z
y,-x+y,1/2+z
x-y,-y,1/2-z
-x,-x+y,1/2-z
y,x,1/2-z
-y,-x,-z
-x+y,y,-z
x,x-y,-z
-x,-y,-z
-x+y,-x,1/2-z
y,-x+y,-z
x,y,1/2-z
x-y,x,-z
-y,x-y,1/2-z
-x+y,y,1/2+z
x,x-y,1/2+z
-y,-x,1/2+z
y,x,z
x-y,-y,z
-x,-x+y,z
loop_
_atom_site_type_symbol
_atom_site_label
_atom_site_fract_x
_atom_site_fract_y
_atom_site_fract_z
Si Si1 0.428138 0.372078 0.750000
Si Si2 0.226921 0.944286 0.560886
Si Si3 0.052567 0.859028 0.549176
Si Si4 0.055971 0.483882 0.557443
Si Si5 0.943756 0.280214 0.250000
O O1 0.400445 0.400445 0.750000
O O2 0.459985 0.385097 0.578218
O O3 0.392165 0.316326 0.750000
O O4 0.234216 0.928583 0.750000
O O5 0.171961 0.926948 0.535104
O O6 0.247172 0.923498 0.418455
O O7 0.254486 0.000000 0.541670
O O8 0.086619 0.913382 0.500000
O O9 0.050989 0.850899 0.750000
O O10 0.000000 0.843072 0.480833
O O11 0.075107 0.537554 0.500000
O O12 0.074146 0.482552 0.750000
O O13 0.000000 0.456450 0.555687
O O14 0.000000 0.308469 0.250000
#
# Coordination Sequence:
#
# PCOD8329882 Si02
#       5
#    12  24  24  24  12
#     4   9  16  22  30  44  60  81 110 143 171 208
#     4   9  16  27  42  56  74  98 117 139 171 203
#     4  10  19  31  47  67  87 103 122 147 171 204
#     4   9  14  20  29  39  54  78 107 140 178 210
#     4   9  16  26  36  50  71  91 116 141 170 212
#
# _framework density 13.197913
#
# number of rings (size 3 to 8) (size 9 to 14) (size 15 to 20)
#    0.000    2.750    2.500    0.750    0.000    2.500 
#    0.000    5.000    0.000    0.250    0.000    0.000 
#    0.000    0.000    0.000    0.000    0.000    0.000 
#
# Total GULP energy -1189829.351344 kJ/mol
# GULP energy per Si atom -12394.055743 kJ/mol
# Density = 1.316787 g / cm^3
# Si number density = 13.197913 Si / 1000 Ang^3
#
#
#
# Elastic Constant Matrix: (Units=GPa)
#
#
# Indices 1 2 3 4 5 6 
#
# 1 52.8039 28.7753 32.4536 0.0000 0.0000 0.0000
# 2 28.7753 52.8039 32.4536 0.0000 0.0000 0.0000
# 3 32.4536 32.4536 115.6648 0.0000 0.0000 0.0000
# 4 0.0000 0.0000 0.0000 12.4200 0.0000 0.0000
# 5 0.0000 0.0000 0.0000 0.0000 12.4200 0.0000
# 6 0.0000 0.0000 0.0000 0.0000 0.0000 12.0143
#
#
#
# Elastic Compliance Matrix: (Units=1/GPa)
#
#
# Indices 1 2 3 4 5 6 
#
# 1 0.028699 -0.012918 -0.004428 0.000000 0.000000 0.000000
# 2 -0.012918 0.028699 -0.004428 0.000000 0.000000 0.000000
# 3 -0.004428 -0.004428 0.011130 0.000000 0.000000 0.000000
# 4 0.000000 0.000000 0.000000 0.080516 0.000000 0.000000
# 5 0.000000 0.000000 0.000000 0.000000 0.080516 0.000000
# 6 0.000000 0.000000 0.000000 0.000000 0.000000 0.083234
#
#
# Mechanical properties :
#
#
# Convention : Reuss Voigt Hill
#
# Bulk Modulus (GPa) = 40.03055 45.40416 42.71736
# Shear Modulus (GPa) = 13.71107 15.87684 14.79396
#
# Velocity S-wave (km/s) = 3.22667 3.47217 3.35166
# Velocity P-wave (km/s) = 6.65422 7.10998 6.88587
#
# Compressibility (1/GPa) = 0.02498092
#
# Stress axis : x y z
#
# Youngs Moduli (GPa) = 34.84433 34.84433 89.84365
#
# Poissons Ratio (x) = 0.45012 0.39782
# Poissons Ratio (y) = 0.45012 0.39782
# Poissons Ratio (z) = 0.15429 0.15429
#
# Static dielectric constant tensor:
#      x y z
#    x 2.450230 0.000000 0.000000 
#    y 0.000000 2.450230 0.000000 
#    z 0.000000 0.000000 2.940930 
# 
# 
# High freq. dielectric constant tensor:
#      x y z
#    x 1.451230 0.000000 0.000000 
#    y 0.000000 1.451230 0.000000 
#    z 0.000000 0.000000 1.528220 
# 
# From -- ./inp_files/1263.got.cif
#   From: 2010.03.12/outbox.cif.g09.slc.cpg/sg193_1_cif.got.tgz:1263.got - 2010.04.01 12:20:39.
