data_PCOD8329803
_publ_section_title
;
Structure prediction by ZEFSAII (Michael W. Deem and Ramdas Pophale) SiO2 
 PCOD8329803
Probable space group: P 63/M C M
;
_chemical_formula_sum "Si O2"
_cell_formula_units_Z 168
_cell_length_a 20.707661
_cell_length_b 20.707661
_cell_length_c 27.450367
_cell_angle_alpha 90.000000
_cell_angle_beta 90.000000
_cell_angle_gamma 120.000000
_cell_volume 10193.911999
_symmetry_space_group_name_H-M "P 63/M C M"
_symmetry_group_IT_number 193
_symmetry_cell_setting 'hexagonal'
loop_
_space_group_symop_operation_xyz
x,y,z
x-y,x,1/2+z
-y,x-y,z
-x,-y,1/2+z
-x+y,-x,z
y,-x+y,1/2+z
x-y,-y,1/2-z
-x,-x+y,1/2-z
y,x,1/2-z
-y,-x,-z
-x+y,y,-z
x,x-y,-z
-x,-y,-z
-x+y,-x,1/2-z
y,-x+y,-z
x,y,1/2-z
x-y,x,-z
-y,x-y,1/2-z
-x+y,y,1/2+z
x,x-y,1/2+z
-y,-x,1/2+z
y,x,z
x-y,-y,z
-x,-x+y,z
loop_
_atom_site_type_symbol
_atom_site_label
_atom_site_fract_x
_atom_site_fract_y
_atom_site_fract_z
Si Si1 0.656668 0.567524 0.194567
Si Si2 0.167868 0.813280 0.553363
Si Si3 0.560685 0.644880 0.034490
Si Si4 0.916290 0.082627 0.192597
Si Si5 0.552594 0.087225 0.618630
Si Si6 0.338169 0.914814 0.924939
Si Si7 0.298693 0.210991 0.852029
O O1 0.666309 0.547712 0.250000
O O2 0.613025 0.613025 0.193584
O O3 0.611036 0.490089 0.163784
O O4 0.738281 0.617894 0.169792
O O5 0.157973 0.842028 0.500000
O O6 0.147504 0.728687 0.545918
O O7 0.249787 0.862158 0.576236
O O8 0.110742 0.813981 0.592210
O O9 0.627628 0.627628 0.048342
O O10 0.488989 0.594806 0.067092
O O11 0.541305 0.628226 0.977752
O O12 0.918476 0.078364 0.250000
O O13 0.881946 0.134943 0.178587
O O14 0.000000 0.116594 0.171387
O O15 0.864744 0.000000 0.170531
O O16 0.492050 0.115205 0.614122
O O17 0.505917 0.000000 0.627079
O O18 0.359484 0.000000 0.912964
O O19 0.258229 0.258229 0.847920
#
# Coordination Sequence:
#
# PCOD8329803 Si02
#       7
#    24  24  24  24  24  24  24
#     4   9  16  26  45  72  94 111 141 189 237 273
#     4  10  19  29  43  65  95 127 157 193 235 280
#     4   9  15  27  46  67  89 116 151 190 229 270
#     4   9  17  29  46  67  91 120 155 196 244 298
#     4   9  15  26  45  67  89 113 142 179 222 267
#     4   9  18  28  41  64  93 124 154 180 219 279
#     4  10  18  30  47  68  94 122 156 201 248 284
#
# _framework density 16.480425
#
# number of rings (size 3 to 8) (size 9 to 14) (size 15 to 20)
#    0.000    2.714    1.429    1.429    0.000    5.143 
#    0.000    0.000    0.000    2.286    0.000    4.000 
#    0.000    2.857    0.000    0.000    0.000    0.000 
#
# Total GULP energy -2081359.014232 kJ/mol
# GULP energy per Si atom -12389.041751 kJ/mol
# Density = 1.644291 g / cm^3
# Si number density = 16.480425 Si / 1000 Ang^3
#
#
#
# Elastic Constant Matrix: (Units=GPa)
#
#
# Indices 1 2 3 4 5 6 
#
# 1 48.4084 31.1627 20.2228 0.0000 0.0000 0.0000
# 2 31.1627 48.4084 20.2228 0.0000 0.0000 0.0000
# 3 20.2228 20.2228 65.4103 0.0000 0.0000 0.0000
# 4 0.0000 0.0000 0.0000 22.3718 0.0000 0.0000
# 5 0.0000 0.0000 0.0000 0.0000 22.3718 0.0000
# 6 0.0000 0.0000 0.0000 0.0000 0.0000 8.6228
#
#
#
# Elastic Compliance Matrix: (Units=1/GPa)
#
#
# Indices 1 2 3 4 5 6 
#
# 1 0.036448 -0.021538 -0.004610 0.000000 0.000000 0.000000
# 2 -0.021538 0.036448 -0.004610 0.000000 0.000000 0.000000
# 3 -0.004610 -0.004610 0.018139 0.000000 0.000000 0.000000
# 4 0.000000 0.000000 0.000000 0.044699 0.000000 0.000000
# 5 0.000000 0.000000 0.000000 0.000000 0.044699 0.000000
# 6 0.000000 0.000000 0.000000 0.000000 0.000000 0.115971
#
#
# Mechanical properties :
#
#
# Convention : Reuss Voigt Hill
#
# Bulk Modulus (GPa) = 33.87516 33.93822 33.90669
# Shear Modulus (GPa) = 13.59587 16.71455 15.15521
#
# Velocity S-wave (km/s) = 2.87535 3.18812 3.03576
# Velocity P-wave (km/s) = 5.62342 5.84721 5.73641
#
# Compressibility (1/GPa) = 0.02952016
#
# Stress axis : x y z
#
# Youngs Moduli (GPa) = 27.43629 27.43629 55.13115
#
# Poissons Ratio (x) = 0.59091 0.25415
# Poissons Ratio (y) = 0.59091 0.25415
# Poissons Ratio (z) = 0.12648 0.12648
#
# Static dielectric constant tensor:
#      x y z
#    x 3.032950 0.000000 0.000000 
#    y 0.000000 3.032950 0.000000 
#    z 0.000000 0.000000 3.270710 
# 
# 
# High freq. dielectric constant tensor:
#      x y z
#    x 1.608590 0.000000 0.000000 
#    y 0.000000 1.608590 0.000000 
#    z 0.000000 0.000000 1.629320 
# 
# From -- ./inp_files/8507.got.cif
#   From: 2010.03.12/outbox.cif.g09.slc.cpg/sg193_5_cif.got.tgz:8507.got - 2010.04.01 12:20:39.
