data_PCOD8329194
_publ_section_title
;
Structure prediction by ZEFSAII (Michael W. Deem and Ramdas Pophale) SiO2 
 PCOD8329194
Probable space group: P 6/M M M
;
_chemical_formula_sum "Si O2"
_cell_formula_units_Z 60
_cell_length_a 21.463696
_cell_length_b 21.463696
_cell_length_c 8.852178
_cell_angle_alpha 90.000000
_cell_angle_beta 90.000000
_cell_angle_gamma 120.000000
_cell_volume 3531.748644
_symmetry_space_group_name_H-M "P 6/M M M"
_symmetry_group_IT_number 191
_symmetry_cell_setting 'hexagonal'
loop_
_space_group_symop_operation_xyz
x,y,z
x-y,x,z
-y,x-y,z
-x,-y,z
-x+y,-x,z
y,-x+y,z
x-y,-y,-z
-x,-x+y,-z
y,x,-z
-y,-x,-z
-x+y,y,-z
x,x-y,-z
-x,-y,-z
-x+y,-x,-z
y,-x+y,-z
x,y,-z
x-y,x,-z
-y,x-y,-z
-x+y,y,z
x,x-y,z
-y,-x,z
y,x,z
x-y,-y,z
-x,-x+y,z
loop_
_atom_site_type_symbol
_atom_site_label
_atom_site_fract_x
_atom_site_fract_y
_atom_site_fract_z
Si Si1 0.331290 0.917074 0.322280
Si Si2 0.423141 0.711571 0.176897
Si Si3 0.417287 0.208644 0.820234
Si Si4 0.914465 0.457233 0.170626
O O1 0.326656 0.905399 0.500000
O O2 0.252248 0.872029 0.246631
O O3 0.381544 0.887539 0.254267
O O4 0.361369 0.000000 0.279611
O O5 0.374285 0.748569 0.219803
O O6 0.501470 0.750735 0.251186
O O7 0.437222 0.718611 0.000000
O O8 0.411336 0.205668 0.000000
O O9 0.000000 0.500000 0.172423
O O10 0.884060 0.442030 0.000000
#
# Coordination Sequence:
#
# PCOD8329194 Si02
#       4
#    24  12  12  12
#     4  10  21  36  51  69  97 130 163 202 249 302
#     4   7  14  28  42  61  89 117 148 192 244 291
#     4  11  21  31  52  76  95 125 163 207 254 297
#     4   9  17  30  49  70  92 121 160 205 246 285
#
# _framework density 16.988751000000001
#
# number of rings (size 3 to 8) (size 9 to 14) (size 15 to 20)
#    0.400    2.200    0.000    2.400    2.800    4.800 
#    0.000    0.000    0.000    0.000    0.000    0.000 
#    0.000    0.000    0.000    0.600    0.000   11.600 
#
# Total GULP energy -743605.871201 kJ/mol
# GULP energy per Si atom -12393.431187 kJ/mol
# Density = 1.695008 g / cm^3
# Si number density = 16.988751 Si / 1000 Ang^3
#
#
#
# Elastic Constant Matrix: (Units=GPa)
#
#
# Indices 1 2 3 4 5 6 
#
# 1 73.6150 33.4837 42.6530 0.0000 0.0000 0.0000
# 2 33.4837 73.6150 42.6530 0.0000 0.0000 0.0000
# 3 42.6530 42.6530 93.6658 0.0000 0.0000 0.0000
# 4 0.0000 0.0000 0.0000 23.9063 0.0000 0.0000
# 5 0.0000 0.0000 0.0000 0.0000 23.9063 0.0000
# 6 0.0000 0.0000 0.0000 0.0000 0.0000 20.0656
#
#
#
# Elastic Compliance Matrix: (Units=1/GPa)
#
#
# Indices 1 2 3 4 5 6 
#
# 1 0.019785 -0.005133 -0.006672 0.000000 0.000000 0.000000
# 2 -0.005133 0.019785 -0.006672 0.000000 0.000000 0.000000
# 3 -0.006672 -0.006672 0.016753 0.000000 0.000000 0.000000
# 4 0.000000 0.000000 0.000000 0.041830 0.000000 0.000000
# 5 0.000000 0.000000 0.000000 0.000000 0.041830 0.000000
# 6 0.000000 0.000000 0.000000 0.000000 0.000000 0.049836
#
#
# Mechanical properties :
#
#
# Convention : Reuss Voigt Hill
#
# Bulk Modulus (GPa) = 51.63154 53.16390 52.39772
# Shear Modulus (GPa) = 21.43814 21.71605 21.57709
#
# Velocity S-wave (km/s) = 3.55618 3.57916 3.56769
# Velocity P-wave (km/s) = 6.87891 6.96003 6.91959
#
# Compressibility (1/GPa) = 0.01936801
#
# Stress axis : x y z
#
# Youngs Moduli (GPa) = 50.54374 50.54374 59.69196
#
# Poissons Ratio (x) = 0.25946 0.39826
# Poissons Ratio (y) = 0.25946 0.39826
# Poissons Ratio (z) = 0.33722 0.33722
#
# Static dielectric constant tensor:
#      x y z
#    x 3.162780 0.000000 0.000000 
#    y 0.000000 3.162780 0.000000 
#    z 0.000000 0.000000 3.050450 
# 
# 
# High freq. dielectric constant tensor:
#      x y z
#    x 1.630440 0.000000 0.000000 
#    y 0.000000 1.630440 0.000000 
#    z 0.000000 0.000000 1.652160 
# 
# From -- ./inp_files/592.got.cif
#   From: 2010.03.12/outbox.cif.g09.slc.cpg/sg191_1_cif.got.tgz:592.got - 2010.04.01 12:09:02.
