data_PCOD8329389
_publ_section_title
;
Structure prediction by ZEFSAII (Michael W. Deem and Ramdas Pophale) SiO2 
 PCOD8329389
Probable space group: P 6/M C C
;
_chemical_formula_sum "Si O2"
_cell_formula_units_Z 128
_cell_length_a 20.838158
_cell_length_b 20.838158
_cell_length_c 18.093414
_cell_angle_alpha 90.000000
_cell_angle_beta 90.000000
_cell_angle_gamma 120.000000
_cell_volume 6804.086176
_symmetry_space_group_name_H-M "P 6/M C C"
_symmetry_group_IT_number 192
_symmetry_cell_setting 'hexagonal'
loop_
_space_group_symop_operation_xyz
x,y,z
x-y,x,z
-y,x-y,z
-x,-y,z
-x+y,-x,z
y,-x+y,z
x-y,-y,1/2-z
-x,-x+y,1/2-z
y,x,1/2-z
-y,-x,1/2-z
-x+y,y,1/2-z
x,x-y,1/2-z
-x,-y,-z
-x+y,-x,-z
y,-x+y,-z
x,y,-z
x-y,x,-z
-y,x-y,-z
-x+y,y,1/2+z
x,x-y,1/2+z
-y,-x,1/2+z
y,x,1/2+z
x-y,-y,1/2+z
-x,-x+y,1/2+z
loop_
_atom_site_type_symbol
_atom_site_label
_atom_site_fract_x
_atom_site_fract_y
_atom_site_fract_z
Si Si1 0.333334 0.666668 0.337108
Si Si2 0.282876 0.437847 0.912128
Si Si3 0.428931 0.294737 0.913893
Si Si4 0.714182 0.009079 0.588317
Si Si5 0.815799 0.405157 0.414103
Si Si6 0.147553 0.142290 0.588069
O O1 0.333334 0.666667 0.250000
O O2 0.396221 0.744972 0.367375
O O3 0.210627 0.438531 0.880031
O O4 0.283951 0.366310 0.880445
O O5 0.358741 0.510824 0.885916
O O6 0.280552 0.435757 0.000000
O O7 0.358449 0.295762 0.878745
O O8 0.502034 0.375387 0.901060
O O9 0.413241 0.277968 0.000000
O O10 0.712353 0.009206 0.500000
O O11 0.786391 0.007956 0.617663
O O12 0.792860 0.397982 0.500000
O O13 0.076495 0.145098 0.618681
O O14 0.146982 0.141751 0.500000
#
# Coordination Sequence:
#
# PCOD8329389 Si02
#       6
#     8  24  24  24  24  24
#     4  12  22  32  49  75  97 116 154 201 235 272
#     4   9  16  25  40  60  85 117 148 184 235 281
#     4   9  16  25  40  60  85 117 148 184 235 281
#     4   9  16  24  34  56  86 113 147 195 238 271
#     4  10  18  31  50  68  92 122 152 190 235 283
#     4   9  15  22  32  46  73 117 165 199 224 268
#
# _framework density 18.812225000000002
#
# number of rings (size 3 to 8) (size 9 to 14) (size 15 to 20)
#    0.000    2.625    1.875    1.875    0.000    6.000 
#    0.000    3.750    0.000    0.000    0.000    2.625 
#    0.000    0.000    0.000    0.000    0.000    0.000 
#
# Total GULP energy -1586630.184243 kJ/mol
# GULP energy per Si atom -12395.548314 kJ/mol
# Density = 1.876941 g / cm^3
# Si number density = 18.812225 Si / 1000 Ang^3
#
#
#
# Elastic Constant Matrix: (Units=GPa)
#
#
# Indices 1 2 3 4 5 6 
#
# 1 167.0999 90.5126 5.3945 0.0000 -0.0001 0.0001
# 2 90.5126 167.1001 5.3946 0.0000 0.0000 0.0001
# 3 5.3945 5.3946 17.4600 0.0001 0.0000 0.0000
# 4 0.0000 0.0000 0.0001 1.2603 0.0000 0.0000
# 5 -0.0001 0.0000 0.0000 0.0000 1.2604 0.0000
# 6 0.0001 0.0001 0.0000 0.0000 0.0000 38.2937
#
#
#
# Elastic Compliance Matrix: (Units=1/GPa)
#
#
# Indices 1 2 3 4 5 6 
#
# 1 0.008495 -0.004562 -0.001215 0.000000 0.000000 0.000000
# 2 -0.004562 0.008495 -0.001215 0.000000 0.000000 0.000000
# 3 -0.001215 -0.001215 0.058025 -0.000006 0.000001 0.000000
# 4 0.000000 0.000000 -0.000006 0.793456 0.000000 0.000001
# 5 0.000000 0.000000 0.000001 0.000000 0.793398 0.000000
# 6 0.000000 0.000000 0.000000 0.000001 0.000000 0.026114
#
#
# Mechanical properties :
#
#
# Convention : Reuss Voigt Hill
#
# Bulk Modulus (GPa) = 16.38547 61.58482 38.98514
# Shear Modulus (GPa) = 2.90308 24.85343 13.87825
#
# Velocity S-wave (km/s) = 1.24360 3.63868 2.71906
# Velocity P-wave (km/s) = 3.28496 7.10359 5.53407
#
# Compressibility (1/GPa) = 0.06102968
#
# Stress axis : x y z
#
# Youngs Moduli (GPa) = 117.71855 117.71862 17.23408
#
# Poissons Ratio (x) = 0.53705 0.02094
# Poissons Ratio (y) = 0.53705 0.02094
# Poissons Ratio (z) = 0.14303 0.14304
#
# Static dielectric constant tensor:
#      x y z
#    x 3.698430 0.000000 0.000000 
#    y 0.000000 3.698420 0.000000 
#    z 0.000000 0.000000 2.514950 
# 
# 
# High freq. dielectric constant tensor:
#      x y z
#    x 1.744070 0.000000 0.000000 
#    y 0.000000 1.744070 0.000000 
#    z 0.000000 0.000000 1.625990 
# 
# From -- ./inp_files/5020.got.cif
#   From: 2010.03.12/outbox.cif.g09.slc.cpg/sg192_3_cif.got.tgz:5020.got - 2010.04.01 12:16:15.
