data_PCOD8329554
_publ_section_title
;
Structure prediction by ZEFSAII (Michael W. Deem and Ramdas Pophale) SiO2 
 PCOD8329554
Probable space group: P 6/M C C
;
_chemical_formula_sum "Si O2"
_cell_formula_units_Z 78
_cell_length_a 23.875175
_cell_length_b 23.875175
_cell_length_c 8.615243
_cell_angle_alpha 90.000000
_cell_angle_beta 90.000000
_cell_angle_gamma 120.000000
_cell_volume 4252.959925
_symmetry_space_group_name_H-M "P 6/M C C"
_symmetry_group_IT_number 192
_symmetry_cell_setting 'hexagonal'
loop_
_space_group_symop_operation_xyz
x,y,z
x-y,x,z
-y,x-y,z
-x,-y,z
-x+y,-x,z
y,-x+y,z
x-y,-y,1/2-z
-x,-x+y,1/2-z
y,x,1/2-z
-y,-x,1/2-z
-x+y,y,1/2-z
x,x-y,1/2-z
-x,-y,-z
-x+y,-x,-z
y,-x+y,-z
x,y,-z
x-y,x,-z
-y,x-y,-z
-x+y,y,1/2+z
x,x-y,1/2+z
-y,-x,1/2+z
y,x,1/2+z
x-y,-y,1/2+z
-x,-x+y,1/2+z
loop_
_atom_site_type_symbol
_atom_site_label
_atom_site_fract_x
_atom_site_fract_y
_atom_site_fract_z
Si Si1 0.500000 0.500000 0.250000
Si Si2 0.615411 0.492924 0.829881
Si Si3 0.192074 0.261395 0.815755
Si Si4 0.258837 0.398315 0.317644
O O1 0.437196 0.483628 0.146186
O O2 0.578763 0.421238 0.750000
O O3 0.670562 0.542650 0.716327
O O4 0.642909 0.490197 0.000000
O O5 0.208343 0.208343 0.750000
O O6 0.122790 0.245579 0.750000
O O7 0.247656 0.332653 0.762806
O O8 0.189085 0.258039 0.000000
O O9 0.209190 0.418380 0.250000
O O10 0.248309 0.385758 0.500000
#
# Coordination Sequence:
#
# PCOD8329554 Si02
#       4
#     6  24  24  24
#     4   8  22  32  54  76 114 140 182 216 276 316
#     4  10  20  34  52  77 109 143 182 224 270 323
#     4  11  22  38  58  83 113 147 185 226 273 326
#     4  11  22  37  56  80 111 147 186 229 276 327
#
# _framework density 18.340167999999998
#
# number of rings (size 3 to 8) (size 9 to 14) (size 15 to 20)
#    0.923    0.615    0.000    8.769    2.154    0.000 
#    0.000    0.000    0.000    0.923    0.000    6.462 
#    0.000    0.000    0.000    0.000    0.000    0.000 
#
# Total GULP energy -966713.045555 kJ/mol
# GULP energy per Si atom -12393.756994 kJ/mol
# Density = 1.829843 g / cm^3
# Si number density = 18.340168 Si / 1000 Ang^3
#
#
#
# Elastic Constant Matrix: (Units=GPa)
#
#
# Indices 1 2 3 4 5 6 
#
# 1 102.2780 48.3588 41.5308 0.0000 0.0000 0.0000
# 2 48.3588 102.2780 41.5308 0.0000 0.0000 0.0000
# 3 41.5308 41.5308 175.0676 0.0000 0.0000 0.0000
# 4 0.0000 0.0000 0.0000 -1.4845 0.0000 0.0000
# 5 0.0000 0.0000 0.0000 0.0000 -1.4845 0.0000
# 6 0.0000 0.0000 0.0000 0.0000 0.0000 26.9596
#
#
#
# Elastic Compliance Matrix: (Units=1/GPa)
#
#
# Indices 1 2 3 4 5 6 
#
# 1 0.013092 -0.005454 -0.001812 0.000000 0.000000 0.000000
# 2 -0.005454 0.013092 -0.001812 0.000000 0.000000 0.000000
# 3 -0.001812 -0.001812 0.006572 0.000000 0.000000 0.000000
# 4 0.000000 0.000000 0.000000 -0.673637 0.000000 0.000000
# 5 0.000000 0.000000 0.000000 0.000000 -0.673637 0.000000
# 6 0.000000 0.000000 0.000000 0.000000 0.000000 0.037093
#
#
# Mechanical properties :
#
#
# Convention : Reuss Voigt Hill
#
# Bulk Modulus (GPa) = 68.49572 71.38493 69.94032
# Shear Modulus (GPa) = -3.98596 21.34501 8.67952
#
# Velocity S-wave (km/s) = -1.47583 3.41521 2.17780
# Velocity P-wave (km/s) = 5.87574 7.38639 6.67395
#
# Compressibility (1/GPa) = 0.01459945
#
# Stress axis : x y z
#
# Youngs Moduli (GPa) = 76.38308 76.38308 152.16741
#
# Poissons Ratio (x) = 0.41662 0.27570
# Poissons Ratio (y) = 0.41662 0.27570
# Poissons Ratio (z) = 0.13839 0.13839
#
# Static dielectric constant tensor:
#      x y z
#    x 3.256270 0.000000 0.000000 
#    y 0.000000 3.256270 0.000000 
#    z 0.000000 0.000000 3.426070 
# 
# 
# High freq. dielectric constant tensor:
#      x y z
#    x 1.694140 0.000000 0.000000 
#    y 0.000000 1.694140 0.000000 
#    z 0.000000 0.000000 1.733450 
# 
# From -- ./inp_files/734.got.cif
#   From: 2010.03.12/outbox.cif.g09.slc.cpg/sg192_1_cif.got.tgz:734.got - 2010.04.01 12:16:15.
