data_PCOD8329251
_publ_section_title
;
Structure prediction by ZEFSAII (Michael W. Deem and Ramdas Pophale) SiO2 
 PCOD8329251
Probable space group: P 6/M M M
;
_chemical_formula_sum "Si O2"
_cell_formula_units_Z 96
_cell_length_a 29.163622
_cell_length_b 29.163622
_cell_length_c 8.781229
_cell_angle_alpha 90.000000
_cell_angle_beta 90.000000
_cell_angle_gamma 120.000000
_cell_volume 6467.982792
_symmetry_space_group_name_H-M "P 6/M M M"
_symmetry_group_IT_number 191
_symmetry_cell_setting 'hexagonal'
loop_
_space_group_symop_operation_xyz
x,y,z
x-y,x,z
-y,x-y,z
-x,-y,z
-x+y,-x,z
y,-x+y,z
x-y,-y,-z
-x,-x+y,-z
y,x,-z
-y,-x,-z
-x+y,y,-z
x,x-y,-z
-x,-y,-z
-x+y,-x,-z
y,-x+y,-z
x,y,-z
x-y,x,-z
-y,x-y,-z
-x+y,y,z
x,x-y,z
-y,-x,z
y,x,z
x-y,-y,z
-x,-x+y,z
loop_
_atom_site_type_symbol
_atom_site_label
_atom_site_fract_x
_atom_site_fract_y
_atom_site_fract_z
Si Si1 0.153281 0.846720 0.666684
Si Si2 0.522639 0.939351 0.675727
Si Si3 0.567673 0.783837 0.330992
Si Si4 0.940293 0.685770 0.317923
Si Si5 0.427542 0.307358 0.821261
O O1 0.140139 0.859862 0.500000
O O2 0.184784 0.815217 0.655940
O O3 0.097120 0.806054 0.746931
O O4 0.531742 0.930601 0.500000
O O5 0.462827 0.925653 0.703022
O O6 0.531704 0.899741 0.780706
O O7 0.562961 0.000000 0.722381
O O8 0.542390 0.771195 0.500000
O O9 0.549417 0.820468 0.243088
O O10 0.934353 0.679517 0.500000
O O11 0.922220 0.628657 0.249663
O O12 0.000000 0.726323 0.267351
O O13 0.420993 0.298971 0.000000
#
# Coordination Sequence:
#
# PCOD8329251 Si02
#       5
#    12  24  12  24  24
#     4   7  12  23  37  53  71  93 128 173 205 226
#     4   9  18  32  47  61  81 114 152 181 205 243
#     4   9  17  31  47  59  77 107 139 168 198 239
#     4   9  16  26  40  55  74 107 145 172 200 245
#     4  11  20  28  41  63  88 108 132 171 216 253
#
# _framework density 14.84234
#
# number of rings (size 3 to 8) (size 9 to 14) (size 15 to 20)
#    0.000    2.750    0.000    5.625    0.000    4.500 
#    0.000    1.250    0.000    0.000    0.000    0.000 
#    1.250    0.000    2.250    0.375    2.250   12.000 
#
# Total GULP energy -1189639.015852 kJ/mol
# GULP energy per Si atom -12392.073082 kJ/mol
# Density = 1.480856 g / cm^3
# Si number density = 14.842340 Si / 1000 Ang^3
#
#
#
# Elastic Constant Matrix: (Units=GPa)
#
#
# Indices 1 2 3 4 5 6 
#
# 1 87.8437 42.1836 27.7368 0.0000 0.0000 0.0000
# 2 42.1836 87.8437 27.7368 0.0000 0.0000 0.0000
# 3 27.7368 27.7368 58.0374 0.0000 0.0000 0.0000
# 4 0.0000 0.0000 0.0000 11.6923 0.0000 0.0000
# 5 0.0000 0.0000 0.0000 0.0000 11.6923 0.0000
# 6 0.0000 0.0000 0.0000 0.0000 0.0000 22.8300
#
#
#
# Elastic Compliance Matrix: (Units=1/GPa)
#
#
# Indices 1 2 3 4 5 6 
#
# 1 0.015781 -0.006120 -0.004617 0.000000 0.000000 0.000000
# 2 -0.006120 0.015781 -0.004617 0.000000 0.000000 0.000000
# 3 -0.004617 -0.004617 0.021643 0.000000 0.000000 0.000000
# 4 0.000000 0.000000 0.000000 0.085526 0.000000 0.000000
# 5 0.000000 0.000000 0.000000 0.000000 0.085526 0.000000
# 6 0.000000 0.000000 0.000000 0.000000 0.000000 0.043802
#
#
# Mechanical properties :
#
#
# Convention : Reuss Voigt Hill
#
# Bulk Modulus (GPa) = 44.45113 47.67103 46.06108
# Shear Modulus (GPa) = 16.32572 18.31411 17.31991
#
# Velocity S-wave (km/s) = 3.32014 3.51652 3.41974
# Velocity P-wave (km/s) = 6.68667 6.97681 6.83328
#
# Compressibility (1/GPa) = 0.02249662
#
# Stress axis : x y z
#
# Youngs Moduli (GPa) = 63.36864 63.36864 46.20402
#
# Poissons Ratio (x) = 0.38784 0.21332
# Poissons Ratio (y) = 0.38784 0.21332
# Poissons Ratio (z) = 0.29256 0.29256
#
# Static dielectric constant tensor:
#      x y z
#    x 2.916850 0.000000 0.000000 
#    y 0.000000 2.916850 0.000000 
#    z 0.000000 0.000000 2.781070 
# 
# 
# High freq. dielectric constant tensor:
#      x y z
#    x 1.547940 0.000000 0.000000 
#    y 0.000000 1.547940 0.000000 
#    z 0.000000 0.000000 1.558830 
# 
# From -- ./inp_files/1515.got.cif
#   From: 2010.03.12/outbox.cif.g09.slc.cpg/sg191_1_cif.got.tgz:1515.got - 2010.04.01 12:09:02.
