data_PCOD8329101
_publ_section_title
;
Structure prediction by ZEFSAII (Michael W. Deem and Ramdas Pophale) SiO2 
 PCOD8329101
Probable space group: P 6/M M M
;
_chemical_formula_sum "Si O2"
_cell_formula_units_Z 168
_cell_length_a 22.903314
_cell_length_b 22.903314
_cell_length_c 21.081245
_cell_angle_alpha 90.000000
_cell_angle_beta 90.000000
_cell_angle_gamma 120.000000
_cell_volume 9576.868886
_symmetry_space_group_name_H-M "P 6/M M M"
_symmetry_group_IT_number 191
_symmetry_cell_setting 'hexagonal'
loop_
_space_group_symop_operation_xyz
x,y,z
x-y,x,z
-y,x-y,z
-x,-y,z
-x+y,-x,z
y,-x+y,z
x-y,-y,-z
-x,-x+y,-z
y,x,-z
-y,-x,-z
-x+y,y,-z
x,x-y,-z
-x,-y,-z
-x+y,-x,-z
y,-x+y,-z
x,y,-z
x-y,x,-z
-y,x-y,-z
-x+y,y,z
x,x-y,z
-y,-x,z
y,x,z
x-y,-y,z
-x,-x+y,z
loop_
_atom_site_type_symbol
_atom_site_label
_atom_site_fract_x
_atom_site_fract_y
_atom_site_fract_z
Si Si1 0.355496 0.275686 0.430821
Si Si2 0.474323 0.395869 0.757064
Si Si3 0.394380 0.317677 0.928844
Si Si4 0.522748 0.602521 0.611159
Si Si5 0.718578 0.923825 0.690117
Si Si6 0.378203 0.256753 0.804719
Si Si7 0.202792 0.536520 0.074015
O O1 0.341161 0.239423 0.500000
O O2 0.319621 0.319621 0.425485
O O3 0.436470 0.326299 0.425465
O O4 0.327754 0.223267 0.372964
O O5 0.547340 0.452661 0.783129
O O6 0.420173 0.420173 0.766024
O O7 0.480508 0.381043 0.684158
O O8 0.448182 0.326562 0.794899
O O9 0.379715 0.379715 0.922520
O O10 0.351063 0.260884 0.875233
O O11 0.472546 0.343831 0.914439
O O12 0.374429 0.285992 0.000000
O O13 0.445946 0.554055 0.585207
O O14 0.561660 0.561660 0.603553
O O15 0.749143 0.874572 0.702126
O O16 0.674981 0.922842 0.750394
O O17 0.779709 0.000000 0.680784
O O18 0.394927 0.197464 0.801100
O O19 0.262465 0.524929 0.102852
O O20 0.205759 0.602880 0.104837
O O21 0.215673 0.548739 0.000000
#
# Coordination Sequence:
#
# PCOD8329101 Si02
#       7
#    24  24  24  24  24  24  24
#     4   9  16  26  42  66  98 130 158 194 236 277
#     4   9  16  28  48  70  94 126 163 202 238 277
#     4  10  21  35  50  68  92 123 160 205 252 296
#     4   8  13  22  38  61  91 127 162 197 236 273
#     4  10  20  34  52  73  97 126 160 196 237 291
#     4  11  21  33  52  73  96 126 159 199 244 295
#     4   9  17  30  48  69  94 124 158 196 239 287
#
# _framework density 17.542266999999999
#
# number of rings (size 3 to 8) (size 9 to 14) (size 15 to 20)
#    0.000    2.571    1.429    2.714    0.000    2.857 
#    0.000    2.857    0.000    0.429    0.000    0.000 
#    0.000    0.000    0.000    3.571    0.000   13.000 
#
# Total GULP energy -2081245.179170 kJ/mol
# GULP energy per Si atom -12388.364162 kJ/mol
# Density = 1.750234 g / cm^3
# Si number density = 17.542267 Si / 1000 Ang^3
#
#
#
# Elastic Constant Matrix: (Units=GPa)
#
#
# Indices 1 2 3 4 5 6 
#
# 1 81.2594 41.3816 28.6426 0.0000 0.0000 0.0000
# 2 41.3816 81.2594 28.6426 0.0000 0.0000 0.0000
# 3 28.6426 28.6426 98.2563 0.0000 0.0000 0.0000
# 4 0.0000 0.0000 0.0000 13.0322 0.0000 0.0000
# 5 0.0000 0.0000 0.0000 0.0000 13.0322 0.0000
# 6 0.0000 0.0000 0.0000 0.0000 0.0000 19.9389
#
#
#
# Elastic Compliance Matrix: (Units=1/GPa)
#
#
# Indices 1 2 3 4 5 6 
#
# 1 0.017258 -0.007819 -0.002752 0.000000 0.000000 0.000000
# 2 -0.007819 0.017258 -0.002752 0.000000 0.000000 0.000000
# 3 -0.002752 -0.002752 0.011782 0.000000 0.000000 0.000000
# 4 0.000000 0.000000 0.000000 0.076733 0.000000 0.000000
# 5 0.000000 0.000000 0.000000 0.000000 0.076733 0.000000
# 6 0.000000 0.000000 0.000000 0.000000 0.000000 0.050153
#
#
# Mechanical properties :
#
#
# Convention : Reuss Voigt Hill
#
# Bulk Modulus (GPa) = 50.88125 50.90094 50.89109
# Shear Modulus (GPa) = 17.66090 20.00790 18.83440
#
# Velocity S-wave (km/s) = 3.17639 3.38087 3.28023
# Velocity P-wave (km/s) = 6.52078 6.65729 6.58939
#
# Compressibility (1/GPa) = 0.01965361
#
# Stress axis : x y z
#
# Youngs Moduli (GPa) = 57.94458 57.94458 84.87742
#
# Poissons Ratio (x) = 0.45305 0.23355
# Poissons Ratio (y) = 0.45305 0.23355
# Poissons Ratio (z) = 0.15944 0.15944
#
# Static dielectric constant tensor:
#      x y z
#    x 2.932980 0.000000 0.000000 
#    y 0.000000 2.932980 0.000000 
#    z 0.000000 0.000000 3.556870 
# 
# 
# High freq. dielectric constant tensor:
#      x y z
#    x 1.645480 0.000000 0.000000 
#    y 0.000000 1.645480 0.000000 
#    z 0.000000 0.000000 1.689190 
# 
# From -- ./inp_files/7905.got.cif
#   From: 2010.03.12/outbox.cif.g09.slc.cpg/sg191_4_cif.got.tgz:7905.got - 2010.04.01 12:09:02.
