data_PCOD8329109
_publ_section_title
;
Structure prediction by ZEFSAII (Michael W. Deem and Ramdas Pophale) SiO2 
 PCOD8329109
Probable space group: P 6/M M M
;
_chemical_formula_sum "Si O2"
_cell_formula_units_Z 84
_cell_length_a 21.333327
_cell_length_b 21.333327
_cell_length_c 12.586644
_cell_angle_alpha 90.000000
_cell_angle_beta 90.000000
_cell_angle_gamma 120.000000
_cell_volume 4960.869026
_symmetry_space_group_name_H-M "P 6/M M M"
_symmetry_group_IT_number 191
_symmetry_cell_setting 'hexagonal'
loop_
_space_group_symop_operation_xyz
x,y,z
x-y,x,z
-y,x-y,z
-x,-y,z
-x+y,-x,z
y,-x+y,z
x-y,-y,-z
-x,-x+y,-z
y,x,-z
-y,-x,-z
-x+y,y,-z
x,x-y,-z
-x,-y,-z
-x+y,-x,-z
y,-x+y,-z
x,y,-z
x-y,x,-z
-y,x-y,-z
-x+y,y,z
x,x-y,z
-y,-x,z
y,x,z
x-y,-y,z
-x,-x+y,z
loop_
_atom_site_type_symbol
_atom_site_label
_atom_site_fract_x
_atom_site_fract_y
_atom_site_fract_z
Si Si1 0.000000 0.282875 0.374008
Si Si2 0.000000 0.857911 0.626760
Si Si3 0.533591 0.614686 0.000000
Si Si4 0.333326 0.520320 0.184796
Si Si5 0.425591 0.285356 0.380605
O O1 0.000000 0.212676 0.326505
O O2 0.930216 0.286021 0.334815
O O3 0.000000 0.277587 0.500000
O O4 0.929150 0.858300 0.669652
O O5 0.000000 0.856972 0.500000
O O6 0.533755 0.658429 0.104298
O O7 0.603679 0.603679 0.000000
O O8 0.462812 0.537189 0.000000
O O9 0.259652 0.519303 0.156911
O O10 0.398169 0.601832 0.173084
O O11 0.333172 0.493489 0.304581
O O12 0.446149 0.318038 0.500000
O O13 0.404844 0.202422 0.380777
#
# Coordination Sequence:
#
# PCOD8329109 Si02
#       5
#    12  12  12  24  24
#     4   9  16  27  43  60  85 126 167 201 238 284
#     4   9  15  22  35  57  85 117 155 200 246 289
#     4   9  19  34  52  74  98 123 152 192 241 289
#     4  10  20  34  53  74  98 127 162 203 247 295
#     4   9  18  31  46  68  97 128 165 204 241 288
#
# _framework density 16.932518000000002
#
# number of rings (size 3 to 8) (size 9 to 14) (size 15 to 20)
#    0.000    2.714    0.000    1.714    2.000    4.571 
#    0.000    1.429    0.000    4.286    0.000    0.000 
#    0.000    0.000    0.000    0.000    0.000    0.000 
#
# Total GULP energy -1041455.930768 kJ/mol
# GULP energy per Si atom -12398.284890 kJ/mol
# Density = 1.689398 g / cm^3
# Si number density = 16.932518 Si / 1000 Ang^3
#
#
#
# Elastic Constant Matrix: (Units=GPa)
#
#
# Indices 1 2 3 4 5 6 
#
# 1 90.7198 47.5944 38.8373 0.0000 0.0000 0.0000
# 2 47.5944 90.7198 38.8373 0.0000 0.0000 0.0000
# 3 38.8373 38.8373 80.0804 0.0000 0.0000 0.0000
# 4 0.0000 0.0000 0.0000 17.2668 0.0000 0.0000
# 5 0.0000 0.0000 0.0000 0.0000 17.2668 0.0000
# 6 0.0000 0.0000 0.0000 0.0000 0.0000 21.5627
#
#
#
# Elastic Compliance Matrix: (Units=1/GPa)
#
#
# Indices 1 2 3 4 5 6 
#
# 1 0.016562 -0.006626 -0.004819 0.000000 0.000000 0.000000
# 2 -0.006626 0.016562 -0.004819 0.000000 0.000000 0.000000
# 3 -0.004819 -0.004819 0.017161 0.000000 0.000000 0.000000
# 4 0.000000 0.000000 0.000000 0.057915 0.000000 0.000000
# 5 0.000000 0.000000 0.000000 0.000000 0.057915 0.000000
# 6 0.000000 0.000000 0.000000 0.000000 0.000000 0.046376
#
#
# Mechanical properties :
#
#
# Convention : Reuss Voigt Hill
#
# Bulk Modulus (GPa) = 56.31120 56.89534 56.60327
# Shear Modulus (GPa) = 19.92521 20.30263 20.11392
#
# Velocity S-wave (km/s) = 3.43409 3.46646 3.45031
# Velocity P-wave (km/s) = 7.00374 7.04954 7.02668
#
# Compressibility (1/GPa) = 0.01775846
#
# Stress axis : x y z
#
# Youngs Moduli (GPa) = 60.37867 60.37867 58.27015
#
# Poissons Ratio (x) = 0.40007 0.28079
# Poissons Ratio (y) = 0.40007 0.28079
# Poissons Ratio (z) = 0.29095 0.29095
#
# Static dielectric constant tensor:
#      x y z
#    x 3.209850 0.000000 0.000000 
#    y 0.000000 3.209850 0.000000 
#    z 0.000000 0.000000 2.999190 
# 
# 
# High freq. dielectric constant tensor:
#      x y z
#    x 1.653100 0.000000 0.000000 
#    y 0.000000 1.653100 0.000000 
#    z 0.000000 0.000000 1.619530 
# 
# From -- ./inp_files/2447.got.cif
#   From: 2010.03.12/outbox.cif.g09.slc.cpg/sg191_2_cif.got.tgz:2447.got - 2010.04.01 12:09:02.
