data_PCOD8329579
_publ_section_title
;
Structure prediction by ZEFSAII (Michael W. Deem and Ramdas Pophale) SiO2 
 PCOD8329579
Probable space group: P 6/M C C
;
_chemical_formula_sum "Si O2"
_cell_formula_units_Z 120
_cell_length_a 22.503078
_cell_length_b 22.503078
_cell_length_c 15.202488
_cell_angle_alpha 90.000000
_cell_angle_beta 90.000000
_cell_angle_gamma 120.000000
_cell_volume 6666.979996
_symmetry_space_group_name_H-M "P 6/M C C"
_symmetry_group_IT_number 192
_symmetry_cell_setting 'hexagonal'
loop_
_space_group_symop_operation_xyz
x,y,z
x-y,x,z
-y,x-y,z
-x,-y,z
-x+y,-x,z
y,-x+y,z
x-y,-y,1/2-z
-x,-x+y,1/2-z
y,x,1/2-z
-y,-x,1/2-z
-x+y,y,1/2-z
x,x-y,1/2-z
-x,-y,-z
-x+y,-x,-z
y,-x+y,-z
x,y,-z
x-y,x,-z
-y,x-y,-z
-x+y,y,1/2+z
x,x-y,1/2+z
-y,-x,1/2+z
y,x,1/2+z
x-y,-y,1/2+z
-x,-x+y,1/2+z
loop_
_atom_site_type_symbol
_atom_site_label
_atom_site_fract_x
_atom_site_fract_y
_atom_site_fract_z
Si Si1 0.850658 0.566037 0.401589
Si Si2 0.206887 0.923944 0.852140
Si Si3 0.609761 0.078973 0.250000
Si Si4 0.923944 0.206887 0.147860
Si Si5 0.284621 0.850658 0.901589
O O1 0.848014 0.537575 0.500000
O O2 0.880714 0.532108 0.336267
O O3 0.900504 0.647771 0.405401
O O4 0.774505 0.549011 0.371273
O O5 0.126339 0.873661 0.872205
O O6 0.223517 0.921013 0.750000
O O7 0.252733 0.900504 0.905401
O O8 0.225585 0.000000 0.881456
O O9 0.540059 0.080117 0.250000
O O10 0.651394 0.119286 0.163733
O O11 0.593643 0.000000 0.250000
O O12 0.310439 0.848014 0.000000
#
# Coordination Sequence:
#
# PCOD8329579 Si02
#       5
#    24  24  24  24  24
#     4  10  20  35  56  78 101 133 174 218 258 298
#     4   9  16  27  45  69  98 131 168 211 255 297
#     4  11  23  36  52  78 112 143 167 199 252 320
#     4   9  16  27  45  69  98 131 168 211 255 297
#     4  10  20  35  56  78 101 133 174 218 258 298
#
# _framework density 17.999153
#
# number of rings (size 3 to 8) (size 9 to 14) (size 15 to 20)
#    0.000    2.200    2.000    1.800    0.000    4.000 
#    0.000    2.000    0.000    3.600    0.000    2.800 
#    0.000    0.000    0.000   10.000    0.000   10.400 
#
# Total GULP energy -1487702.634458 kJ/mol
# GULP energy per Si atom -12397.521954 kJ/mol
# Density = 1.795819 g / cm^3
# Si number density = 17.999153 Si / 1000 Ang^3
#
#
#
# Elastic Constant Matrix: (Units=GPa)
#
#
# Indices 1 2 3 4 5 6 
#
# 1 89.1264 37.4809 41.3203 0.0000 0.0000 0.0000
# 2 37.4809 89.1264 41.3203 0.0000 0.0000 0.0000
# 3 41.3203 41.3203 94.6857 0.0000 0.0000 0.0000
# 4 0.0000 0.0000 0.0000 10.4618 0.0000 0.0000
# 5 0.0000 0.0000 0.0000 0.0000 10.4618 0.0000
# 6 0.0000 0.0000 0.0000 0.0000 0.0000 25.8227
#
#
#
# Elastic Compliance Matrix: (Units=1/GPa)
#
#
# Indices 1 2 3 4 5 6 
#
# 1 0.015204 -0.004159 -0.004820 0.000000 0.000000 0.000000
# 2 -0.004159 0.015204 -0.004820 0.000000 0.000000 0.000000
# 3 -0.004820 -0.004820 0.014768 0.000000 0.000000 0.000000
# 4 0.000000 0.000000 0.000000 0.095585 0.000000 0.000000
# 5 0.000000 0.000000 0.000000 0.000000 0.095585 0.000000
# 6 0.000000 0.000000 0.000000 0.000000 0.000000 0.038726
#
#
# Mechanical properties :
#
#
# Convention : Reuss Voigt Hill
#
# Bulk Modulus (GPa) = 56.88991 57.02017 56.95504
# Shear Modulus (GPa) = 16.20599 19.53708 17.87153
#
# Velocity S-wave (km/s) = 3.00388 3.29818 3.15447
# Velocity P-wave (km/s) = 6.61110 6.80089 6.70667
#
# Compressibility (1/GPa) = 0.01757781
#
# Stress axis : x y z
#
# Youngs Moduli (GPa) = 65.77386 65.77386 67.71461
#
# Poissons Ratio (x) = 0.27357 0.32637
# Poissons Ratio (y) = 0.27357 0.32637
# Poissons Ratio (z) = 0.31701 0.31701
#
# Static dielectric constant tensor:
#      x y z
#    x 3.243820 0.000000 0.000000 
#    y 0.000000 3.243820 0.000000 
#    z 0.000000 0.000000 3.478610 
# 
# 
# High freq. dielectric constant tensor:
#      x y z
#    x 1.678050 0.000000 0.000000 
#    y 0.000000 1.678050 0.000000 
#    z 0.000000 0.000000 1.704180 
# 
# From -- ./inp_files/3159.got.cif
#   From: 2010.03.12/outbox.cif.g09.slc.cpg/sg192_2_cif.got.tgz:3159.got - 2010.04.01 12:16:15.
