data_PCOD8329665
_publ_section_title
;
Structure prediction by ZEFSAII (Michael W. Deem and Ramdas Pophale) SiO2 
 PCOD8329665
Probable space group: P 6/M C C
;
_chemical_formula_sum "Si O2"
_cell_formula_units_Z 56
_cell_length_a 12.879328
_cell_length_b 12.879328
_cell_length_c 16.414767
_cell_angle_alpha 90.000000
_cell_angle_beta 90.000000
_cell_angle_gamma 120.000000
_cell_volume 2358.043223
_symmetry_space_group_name_H-M "P 6/M C C"
_symmetry_group_IT_number 192
_symmetry_cell_setting 'hexagonal'
loop_
_space_group_symop_operation_xyz
x,y,z
x-y,x,z
-y,x-y,z
-x,-y,z
-x+y,-x,z
y,-x+y,z
x-y,-y,1/2-z
-x,-x+y,1/2-z
y,x,1/2-z
-y,-x,1/2-z
-x+y,y,1/2-z
x,x-y,1/2-z
-x,-y,-z
-x+y,-x,-z
y,-x+y,-z
x,y,-z
x-y,x,-z
-y,x-y,-z
-x+y,y,1/2+z
x,x-y,1/2+z
-y,-x,1/2+z
y,x,1/2+z
x-y,-y,1/2+z
-x,-x+y,1/2+z
loop_
_atom_site_type_symbol
_atom_site_label
_atom_site_fract_x
_atom_site_fract_y
_atom_site_fract_z
Si Si1 0.333416 0.469813 0.697377
Si Si2 0.666668 0.333334 0.905842
Si Si3 0.764686 0.015610 0.906501
O O1 0.454202 0.545799 0.750000
O O2 0.215071 0.430142 0.750000
O O3 0.332947 0.548646 0.622887
O O4 0.328855 0.352109 0.656974
O O5 0.666667 0.333334 0.000000
O O6 0.895601 0.127689 0.888809
O O7 0.725738 0.017413 0.000000
#
# Coordination Sequence:
#
# PCOD8329665 Si02
#       3
#    24   8  24
#     4   9  19  36  56  85 124 165 211 265 326 391
#     4   9  16  32  58  84 115 158 208 264 325 386
#     4  10  21  39  64  94 129 171 219 268 318 378
#
# _framework density 23.748502999999999
#
# number of rings (size 3 to 8) (size 9 to 14) (size 15 to 20)
#    0.000    2.571    0.000    3.429    0.000    3.429 
#    0.000   21.429    0.000   25.714    0.000    0.000 
#    0.000    0.000    0.000    0.000    0.000    0.000 
#
# Total GULP energy -694243.135280 kJ/mol
# GULP energy per Si atom -12397.198844 kJ/mol
# Density = 2.369445 g / cm^3
# Si number density = 23.748503 Si / 1000 Ang^3
#
#
#
# Elastic Constant Matrix: (Units=GPa)
#
#
# Indices 1 2 3 4 5 6 
#
# 1 92.1446 16.5422 40.2773 0.0001 -0.0001 -0.0005
# 2 16.5422 92.1447 40.2773 0.0000 -0.0002 -0.0001
# 3 40.2773 40.2773 138.2324 -0.0002 -0.0002 0.0000
# 4 0.0001 0.0000 -0.0002 30.0785 0.0001 0.0000
# 5 -0.0001 -0.0002 -0.0002 0.0001 30.0781 0.0000
# 6 -0.0005 -0.0001 0.0000 0.0000 0.0000 37.8015
#
#
#
# Elastic Compliance Matrix: (Units=1/GPa)
#
#
# Indices 1 2 3 4 5 6 
#
# 1 0.012481 -0.000746 -0.003419 0.000000 0.000000 0.000000
# 2 -0.000746 0.012481 -0.003419 0.000000 0.000000 0.000000
# 3 -0.003419 -0.003419 0.009227 0.000000 0.000000 0.000000
# 4 0.000000 0.000000 0.000000 0.033246 0.000000 0.000000
# 5 0.000000 0.000000 0.000000 0.000000 0.033247 0.000000
# 6 0.000000 0.000000 0.000000 0.000000 0.000000 0.026454
#
#
# Mechanical properties :
#
#
# Convention : Reuss Voigt Hill
#
# Bulk Modulus (GPa) = 52.57718 57.41280 54.99499
# Shear Modulus (GPa) = 33.63721 34.61996 34.12858
#
# Velocity S-wave (km/s) = 3.76758 3.82222 3.79500
# Velocity P-wave (km/s) = 6.41198 6.61113 6.51231
#
# Compressibility (1/GPa) = 0.01901966
#
# Stress axis : x y z
#
# Youngs Moduli (GPa) = 80.12159 80.12162 108.38043
#
# Poissons Ratio (x) = 0.05978 0.37058
# Poissons Ratio (y) = 0.05978 0.37058
# Poissons Ratio (z) = 0.27396 0.27396
#
# Static dielectric constant tensor:
#      x y z
#    x 4.135590 -0.000010 0.000000 
#    y -0.000010 4.135570 0.000010 
#    z 0.000000 0.000010 4.353980 
# 
# 
# High freq. dielectric constant tensor:
#      x y z
#    x 1.948030 0.000000 0.000000 
#    y 0.000000 1.948030 0.000000 
#    z 0.000000 0.000000 1.950350 
# 
# From -- ./inp_files/2223.got.cif
#   From: 2010.03.12/outbox.cif.g09.slc.cpg/sg192_2_cif.got.tgz:2223.got - 2010.04.01 12:16:15.
