data_PCOD8329480
_publ_section_title
;
Structure prediction by ZEFSAII (Michael W. Deem and Ramdas Pophale) SiO2 
 PCOD8329480
Probable space group: P 6/M C C
;
_chemical_formula_sum "Si O2"
_cell_formula_units_Z 192
_cell_length_a 29.362937
_cell_length_b 29.362937
_cell_length_c 14.450987
_cell_angle_alpha 90.000000
_cell_angle_beta 90.000000
_cell_angle_gamma 120.000000
_cell_volume 10790.141219
_symmetry_space_group_name_H-M "P 6/M C C"
_symmetry_group_IT_number 192
_symmetry_cell_setting 'hexagonal'
loop_
_space_group_symop_operation_xyz
x,y,z
x-y,x,z
-y,x-y,z
-x,-y,z
-x+y,-x,z
y,-x+y,z
x-y,-y,1/2-z
-x,-x+y,1/2-z
y,x,1/2-z
-y,-x,1/2-z
-x+y,y,1/2-z
x,x-y,1/2-z
-x,-y,-z
-x+y,-x,-z
y,-x+y,-z
x,y,-z
x-y,x,-z
-y,x-y,-z
-x+y,y,1/2+z
x,x-y,1/2+z
-y,-x,1/2+z
y,x,1/2+z
x-y,-y,1/2+z
-x,-x+y,1/2+z
loop_
_atom_site_type_symbol
_atom_site_label
_atom_site_fract_x
_atom_site_fract_y
_atom_site_fract_z
Si Si1 0.616598 0.678059 0.247882
Si Si2 0.456117 0.138922 0.609207
Si Si3 0.139982 0.282536 0.389038
Si Si4 0.769209 0.332373 0.889699
Si Si5 0.320289 0.457111 0.103607
Si Si6 0.769173 0.334499 0.390442
Si Si7 0.398980 0.201903 0.896817
Si Si8 0.061738 0.786298 0.748083
O O1 0.639004 0.639004 0.250000
O O2 0.577644 0.660602 0.159177
O O3 0.579185 0.664798 0.336799
O O4 0.664011 0.738515 0.246314
O O5 0.450320 0.129079 0.500000
O O6 0.517392 0.173232 0.637896
O O7 0.431229 0.172955 0.651652
O O8 0.133676 0.272747 0.500000
O O9 0.165972 0.342404 0.352778
O O10 0.177227 0.262230 0.344323
O O11 0.083393 0.259418 0.339230
O O12 0.825856 0.341594 0.855226
O O13 0.763712 0.380901 0.851577
O O14 0.720259 0.278352 0.850295
O O15 0.768863 0.330229 0.000000
O O16 0.258563 0.432845 0.103140
O O17 0.341667 0.458850 0.000000
O O18 0.764021 0.331816 0.500000
O O19 0.387974 0.213937 0.000000
O O20 0.000000 0.763744 0.750000
#
# Coordination Sequence:
#
# PCOD8329480 Si02
#       8
#    24  24  24  24  24  24  24  24
#     4  11  23  35  50  74  99 128 169 217 267 305
#     4  10  19  33  52  73 101 133 167 206 248 301
#     4  10  19  33  52  73 105 144 175 217 268 310
#     4   9  16  28  49  78 108 133 158 194 247 313
#     4  10  19  33  52  73 101 133 167 206 248 301
#     4   9  16  28  49  78 108 133 158 194 247 313
#     4   9  15  27  47  72  97 129 170 205 239 290
#     4  10  21  33  48  76 107 136 179 224 263 313
#
# _framework density 17.794021999999998
#
# number of rings (size 3 to 8) (size 9 to 14) (size 15 to 20)
#    0.000    2.250    3.750    0.250    0.000    2.500 
#    0.000    3.125    0.000    1.500    0.000    5.250 
#    0.000    0.000    0.000   12.000    0.000   26.000 
#
# Total GULP energy -2378667.814243 kJ/mol
# GULP energy per Si atom -12388.894866 kJ/mol
# Density = 1.775352 g / cm^3
# Si number density = 17.794022 Si / 1000 Ang^3
#
#
#
# Elastic Constant Matrix: (Units=GPa)
#
#
# Indices 1 2 3 4 5 6 
#
# 1 106.1734 52.7641 39.2770 0.0000 0.0000 0.0000
# 2 52.7641 106.1734 39.2770 0.0000 0.0000 0.0000
# 3 39.2770 39.2770 93.8111 0.0000 0.0000 0.0000
# 4 0.0000 0.0000 0.0000 -30.4357 0.0000 0.0000
# 5 0.0000 0.0000 0.0000 0.0000 -30.4357 0.0000
# 6 0.0000 0.0000 0.0000 0.0000 0.0000 26.7047
#
#
#
# Elastic Compliance Matrix: (Units=1/GPa)
#
#
# Indices 1 2 3 4 5 6 
#
# 1 0.013328 -0.005395 -0.003322 0.000000 0.000000 0.000000
# 2 -0.005395 0.013328 -0.003322 0.000000 0.000000 0.000000
# 3 -0.003322 -0.003322 0.013441 0.000000 0.000000 0.000000
# 4 0.000000 0.000000 0.000000 -0.032856 0.000000 0.000000
# 5 0.000000 0.000000 0.000000 0.000000 -0.032856 0.000000
# 6 0.000000 0.000000 0.000000 0.000000 0.000000 0.037447
#
#
# Mechanical properties :
#
#
# Convention : Reuss Voigt Hill
#
# Bulk Modulus (GPa) = 62.41557 63.19934 62.80746
# Shear Modulus (GPa) = 121.21523 4.82265 63.01894
#
# Velocity S-wave (km/s) = 8.26252 1.64807 5.95757
# Velocity P-wave (km/s) = 11.23292 6.26225 9.09380
#
# Compressibility (1/GPa) = 0.01602164
#
# Stress axis : x y z
#
# Youngs Moduli (GPa) = 75.02785 75.02785 74.39868
#
# Poissons Ratio (x) = 0.40477 0.24712
# Poissons Ratio (y) = 0.40477 0.24712
# Poissons Ratio (z) = 0.24921 0.24921
#
# Static dielectric constant tensor:
#      x y z
#    x 3.191940 0.000000 0.000000 
#    y 0.000000 3.191940 0.000000 
#    z 0.000000 0.000000 4.923470 
# 
# 
# High freq. dielectric constant tensor:
#      x y z
#    x 1.665380 0.000000 0.000000 
#    y 0.000000 1.665380 0.000000 
#    z 0.000000 0.000000 1.689880 
# 
# From -- ./inp_files/3583.got.cif
#   From: 2010.03.12/outbox.cif.g09.slc.cpg/sg192_2_cif.got.tgz:3583.got - 2010.04.01 12:16:15.
