data_PCOD8329279
_publ_section_title
;
Structure prediction by ZEFSAII (Michael W. Deem and Ramdas Pophale) SiO2 
 PCOD8329279
Probable space group: P 6/M M M
;
_chemical_formula_sum "Si O2"
_cell_formula_units_Z 108
_cell_length_a 32.172795
_cell_length_b 32.172795
_cell_length_c 9.300071
_cell_angle_alpha 90.000000
_cell_angle_beta 90.000000
_cell_angle_gamma 120.000000
_cell_volume 8336.705869
_symmetry_space_group_name_H-M "P 6/M M M"
_symmetry_group_IT_number 191
_symmetry_cell_setting 'hexagonal'
loop_
_space_group_symop_operation_xyz
x,y,z
x-y,x,z
-y,x-y,z
-x,-y,z
-x+y,-x,z
y,-x+y,z
x-y,-y,-z
-x,-x+y,-z
y,x,-z
-y,-x,-z
-x+y,y,-z
x,x-y,-z
-x,-y,-z
-x+y,-x,-z
y,-x+y,-z
x,y,-z
x-y,x,-z
-y,x-y,-z
-x+y,y,z
x,x-y,z
-y,-x,z
y,x,z
x-y,-y,z
-x,-x+y,z
loop_
_atom_site_type_symbol
_atom_site_label
_atom_site_fract_x
_atom_site_fract_y
_atom_site_fract_z
Si Si1 0.946042 0.146534 0.334326
Si Si2 0.225721 0.943040 0.161677
Si Si3 0.942539 0.382142 0.838154
Si Si4 0.695993 0.057286 0.662205
Si Si5 0.526276 0.473725 0.170646
O O1 0.945045 0.160325 0.500000
O O2 0.910179 0.089822 0.307581
O O3 0.927374 0.175725 0.240556
O O4 0.000000 0.159617 0.290091
O O5 0.254698 0.922173 0.248241
O O6 0.257142 0.000000 0.158197
O O7 0.215416 0.922089 0.000000
O O8 0.922970 0.336572 0.733201
O O9 0.921679 0.417081 0.786018
O O10 0.000000 0.412950 0.835154
O O11 0.925237 0.363142 0.000000
O O12 0.708532 0.076853 0.500000
O O13 0.667781 0.000000 0.664354
O O14 0.500000 0.500000 0.243153
O O15 0.523385 0.476616 0.000000
#
# Coordination Sequence:
#
# PCOD8329279 Si02
#       5
#    24  24  24  24  12
#     4   9  17  29  44  60  77  95 111 126 147 178
#     4   9  16  25  37  52  68  85 105 128 152 179
#     4   8  12  18  27  37  50  71 100 131 161 192
#     4   9  15  21  29  42  60  80 101 126 157 190
#     4   7  10  16  25  35  47  67  97 131 163 193
#
# _framework density 12.954756
#
# number of rings (size 3 to 8) (size 9 to 14) (size 15 to 20)
#    0.000    3.444    0.000    2.667    0.000    5.778 
#    0.000    0.556    0.000    3.556    0.000    1.556 
#    0.000    0.000    0.000    5.556    0.000    5.778 
#
# Total GULP energy -1337955.744123 kJ/mol
# GULP energy per Si atom -12388.479112 kJ/mol
# Density = 1.292527 g / cm^3
# Si number density = 12.954756 Si / 1000 Ang^3
#
#
#
# Elastic Constant Matrix: (Units=GPa)
#
#
# Indices 1 2 3 4 5 6 
#
# 1 57.1254 32.5330 33.1781 0.0000 0.0000 0.0000
# 2 32.5330 57.1254 33.1781 0.0000 0.0000 0.0000
# 3 33.1781 33.1781 82.5372 0.0000 0.0000 0.0000
# 4 0.0000 0.0000 0.0000 13.1320 0.0000 0.0000
# 5 0.0000 0.0000 0.0000 0.0000 13.1320 0.0000
# 6 0.0000 0.0000 0.0000 0.0000 0.0000 12.2962
#
#
#
# Elastic Compliance Matrix: (Units=1/GPa)
#
#
# Indices 1 2 3 4 5 6 
#
# 1 0.028270 -0.012393 -0.006382 0.000000 0.000000 0.000000
# 2 -0.012393 0.028270 -0.006382 0.000000 0.000000 0.000000
# 3 -0.006382 -0.006382 0.017247 0.000000 0.000000 0.000000
# 4 0.000000 0.000000 0.000000 0.076150 0.000000 0.000000
# 5 0.000000 0.000000 0.000000 0.000000 0.076150 0.000000
# 6 0.000000 0.000000 0.000000 0.000000 0.000000 0.081326
#
#
# Mechanical properties :
#
#
# Convention : Reuss Voigt Hill
#
# Bulk Modulus (GPa) = 42.60421 43.84072 43.22246
# Shear Modulus (GPa) = 13.67802 14.23865 13.95834
#
# Velocity S-wave (km/s) = 3.25288 3.31887 3.28604
# Velocity P-wave (km/s) = 6.86051 6.97147 6.91621
#
# Compressibility (1/GPa) = 0.02347186
#
# Stress axis : x y z
#
# Youngs Moduli (GPa) = 35.37332 35.37332 57.98213
#
# Poissons Ratio (x) = 0.43838 0.37005
# Poissons Ratio (y) = 0.43838 0.37005
# Poissons Ratio (z) = 0.22576 0.22576
#
# Static dielectric constant tensor:
#      x y z
#    x 2.435650 0.000000 0.000000 
#    y 0.000000 2.435650 0.000000 
#    z 0.000000 0.000000 2.722630 
# 
# 
# High freq. dielectric constant tensor:
#      x y z
#    x 1.450050 0.000000 0.000000 
#    y 0.000000 1.450050 0.000000 
#    z 0.000000 0.000000 1.497090 
# 
# From -- ./inp_files/1685.got.cif
#   From: 2010.03.12/outbox.cif.g09.slc.cpg/sg191_1_cif.got.tgz:1685.got - 2010.04.01 12:09:02.
