data_PCOD8329591
_publ_section_title
;
Structure prediction by ZEFSAII (Michael W. Deem and Ramdas Pophale) SiO2 
 PCOD8329591
Probable space group: P 6/M C C
;
_chemical_formula_sum "Si O2"
_cell_formula_units_Z 144
_cell_length_a 31.336769
_cell_length_b 31.336769
_cell_length_c 8.716266
_cell_angle_alpha 90.000000
_cell_angle_beta 90.000000
_cell_angle_gamma 120.000000
_cell_volume 7412.582492
_symmetry_space_group_name_H-M "P 6/M C C"
_symmetry_group_IT_number 192
_symmetry_cell_setting 'hexagonal'
loop_
_space_group_symop_operation_xyz
x,y,z
x-y,x,z
-y,x-y,z
-x,-y,z
-x+y,-x,z
y,-x+y,z
x-y,-y,1/2-z
-x,-x+y,1/2-z
y,x,1/2-z
-y,-x,1/2-z
-x+y,y,1/2-z
x,x-y,1/2-z
-x,-y,-z
-x+y,-x,-z
y,-x+y,-z
x,y,-z
x-y,x,-z
-y,x-y,-z
-x+y,y,1/2+z
x,x-y,1/2+z
-y,-x,1/2+z
y,x,1/2+z
x-y,-y,1/2+z
-x,-x+y,1/2+z
loop_
_atom_site_type_symbol
_atom_site_label
_atom_site_fract_x
_atom_site_fract_y
_atom_site_fract_z
Si Si1 0.329525 0.475584 0.678761
Si Si2 0.236090 0.287397 0.818932
Si Si3 0.574769 0.332776 0.820142
Si Si4 0.479534 0.051089 0.318342
Si Si5 0.052675 0.196782 0.817004
Si Si6 0.614627 0.762229 0.678314
O O1 0.318805 0.465204 0.500000
O O2 0.343198 0.530841 0.721071
O O3 0.374628 0.468379 0.731600
O O4 0.280701 0.437714 0.766163
O O5 0.279023 0.279023 0.750000
O O6 0.184347 0.251181 0.738579
O O7 0.250725 0.343098 0.779848
O O8 0.230823 0.276515 0.000000
O O9 0.624987 0.375014 0.750000
O O10 0.560975 0.280488 0.750000
O O11 0.582144 0.331382 0.000000
O O12 0.531853 0.063705 0.250000
O O13 0.481761 0.046843 0.500000
O O14 0.436133 0.000000 0.250000
O O15 0.091402 0.182803 0.750000
O O16 0.000000 0.156923 0.750000
O O17 0.052142 0.194998 0.000000
O O18 0.628508 0.814254 0.750000
O O19 0.611132 0.768220 0.500000
#
# Coordination Sequence:
#
# PCOD8329591 Si02
#       6
#    24  24  24  24  24  24
#     4  10  23  40  59  83 113 148 188 230 276 328
#     4  10  21  37  57  84 113 147 188 233 282 332
#     4  11  23  40  61  86 113 144 180 224 275 330
#     4  10  20  36  58  85 114 147 186 231 280 332
#     4  11  21  35  56  83 113 148 188 234 284 336
#     4  11  24  39  58  82 112 150 190 229 277 331
#
# _framework density 19.426427
#
# number of rings (size 3 to 8) (size 9 to 14) (size 15 to 20)
#    0.000    1.500    0.000    6.667    0.000    8.667 
#    0.000    3.333    0.000    0.167    0.000    1.167 
#    0.000    0.000    0.000    0.000    0.000    0.000 
#
# Total GULP energy -1786323.473117 kJ/mol
# GULP energy per Si atom -12405.024119 kJ/mol
# Density = 1.938221 g / cm^3
# Si number density = 19.426427 Si / 1000 Ang^3
#
#
#
# Elastic Constant Matrix: (Units=GPa)
#
#
# Indices 1 2 3 4 5 6 
#
# 1 110.6775 37.4901 51.7926 0.0000 0.0000 0.0000
# 2 37.4901 110.6775 51.7926 0.0000 0.0000 0.0000
# 3 51.7926 51.7926 114.4129 0.0000 0.0000 0.0000
# 4 0.0000 0.0000 0.0000 32.3524 0.0000 0.0000
# 5 0.0000 0.0000 0.0000 0.0000 32.3524 0.0000
# 6 0.0000 0.0000 0.0000 0.0000 0.0000 36.5937
#
#
#
# Elastic Compliance Matrix: (Units=1/GPa)
#
#
# Indices 1 2 3 4 5 6 
#
# 1 0.011769 -0.001895 -0.004470 0.000000 0.000000 0.000000
# 2 -0.001895 0.011769 -0.004470 0.000000 0.000000 0.000000
# 3 -0.004470 -0.004470 0.012787 0.000000 0.000000 0.000000
# 4 0.000000 0.000000 0.000000 0.030910 0.000000 0.000000
# 5 0.000000 0.000000 0.000000 0.000000 0.030910 0.000000
# 6 0.000000 0.000000 0.000000 0.000000 0.000000 0.027327
#
#
# Mechanical properties :
#
#
# Convention : Reuss Voigt Hill
#
# Bulk Modulus (GPa) = 68.23188 68.65764 68.44476
# Shear Modulus (GPa) = 32.88939 33.23923 33.06431
#
# Velocity S-wave (km/s) = 4.11910 4.14095 4.13004
# Velocity P-wave (km/s) = 7.60409 7.63429 7.61920
#
# Compressibility (1/GPa) = 0.01465591
#
# Stress axis : x y z
#
# Youngs Moduli (GPa) = 84.97077 84.97077 78.20423
#
# Poissons Ratio (x) = 0.16100 0.34955
# Poissons Ratio (y) = 0.16100 0.34955
# Poissons Ratio (z) = 0.37980 0.37980
#
# Static dielectric constant tensor:
#      x y z
#    x 3.555480 0.000000 0.000000 
#    y 0.000000 3.555480 0.000000 
#    z 0.000000 0.000000 3.674750 
# 
# 
# High freq. dielectric constant tensor:
#      x y z
#    x 1.761480 0.000000 0.000000 
#    y 0.000000 1.761480 0.000000 
#    z 0.000000 0.000000 1.771600 
# 
# From -- ./inp_files/1206.got.cif
#   From: 2010.03.12/outbox.cif.g09.slc.cpg/sg192_1_cif.got.tgz:1206.got - 2010.04.01 12:16:15.
