data_PCOD8329715
_publ_section_title
;
Structure prediction by ZEFSAII (Michael W. Deem and Ramdas Pophale) SiO2 
 PCOD8329715
Probable space group: P 6/M C C
;
_chemical_formula_sum "Si O2"
_cell_formula_units_Z 72
_cell_length_a 21.175650
_cell_length_b 21.175650
_cell_length_c 9.513627
_cell_angle_alpha 90.000000
_cell_angle_beta 90.000000
_cell_angle_gamma 120.000000
_cell_volume 3694.453903
_symmetry_space_group_name_H-M "P 6/M C C"
_symmetry_group_IT_number 192
_symmetry_cell_setting 'hexagonal'
loop_
_space_group_symop_operation_xyz
x,y,z
x-y,x,z
-y,x-y,z
-x,-y,z
-x+y,-x,z
y,-x+y,z
x-y,-y,1/2-z
-x,-x+y,1/2-z
y,x,1/2-z
-y,-x,1/2-z
-x+y,y,1/2-z
x,x-y,1/2-z
-x,-y,-z
-x+y,-x,-z
y,-x+y,-z
x,y,-z
x-y,x,-z
-y,x-y,-z
-x+y,y,1/2+z
x,x-y,1/2+z
-y,-x,1/2+z
y,x,1/2+z
x-y,-y,1/2+z
-x,-x+y,1/2+z
loop_
_atom_site_type_symbol
_atom_site_label
_atom_site_fract_x
_atom_site_fract_y
_atom_site_fract_z
Si Si1 0.569339 0.854889 0.229642
Si Si2 0.603359 0.096283 0.500000
Si Si3 0.927308 0.194219 0.838459
Si Si4 0.625701 0.072179 0.000000
O O1 0.537117 0.768559 0.250000
O O2 0.645989 0.886912 0.150252
O O3 0.580894 0.900323 0.370435
O O4 0.510637 0.862716 0.137545
O O5 0.532704 0.104724 0.500000
O O6 0.590095 0.014566 0.500000
O O7 0.879570 0.120431 0.750000
O O8 0.000000 0.238982 0.750000
O O9 0.940932 0.177833 0.000000
#
# Coordination Sequence:
#
# PCOD8329715 Si02
#       4
#    24  12  24  12
#     4  11  23  37  58  84 118 153 196 243 309 366
#     4  11  21  40  58  88 112 147 197 249 308 368
#     4  11  23  38  61  90 126 162 203 247 301 358
#     4  11  23  36  62  84 114 151 193 253 306 364
#
# _framework density 19.488672000000001
#
# number of rings (size 3 to 8) (size 9 to 14) (size 15 to 20)
#    0.000    1.000    1.667    6.000    9.333    2.667 
#    0.000    0.000    0.000   13.667    0.000    2.333 
#    0.000    0.000    0.000    0.000    0.000    0.000 
#
# Total GULP energy -892862.431035 kJ/mol
# GULP energy per Si atom -12400.867098 kJ/mol
# Density = 1.944432 g / cm^3
# Si number density = 19.488672 Si / 1000 Ang^3
#
#
#
# Elastic Constant Matrix: (Units=GPa)
#
#
# Indices 1 2 3 4 5 6 
#
# 1 84.7894 21.8040 23.0634 0.0000 0.0000 0.0000
# 2 21.8040 84.7894 23.0634 0.0000 0.0000 0.0000
# 3 23.0634 23.0634 146.7135 0.0000 0.0000 0.0000
# 4 0.0000 0.0000 0.0000 27.1856 0.0000 0.0000
# 5 0.0000 0.0000 0.0000 0.0000 27.1856 0.0000
# 6 0.0000 0.0000 0.0000 0.0000 0.0000 31.4927
#
#
#
# Elastic Compliance Matrix: (Units=1/GPa)
#
#
# Indices 1 2 3 4 5 6 
#
# 1 0.012971 -0.002905 -0.001582 0.000000 0.000000 0.000000
# 2 -0.002905 0.012971 -0.001582 0.000000 0.000000 0.000000
# 3 -0.001582 -0.001582 0.007314 0.000000 0.000000 0.000000
# 4 0.000000 0.000000 0.000000 0.036784 0.000000 0.000000
# 5 0.000000 0.000000 0.000000 0.000000 0.036784 0.000000
# 6 0.000000 0.000000 0.000000 0.000000 0.000000 0.031753
#
#
# Mechanical properties :
#
#
# Convention : Reuss Voigt Hill
#
# Bulk Modulus (GPa) = 47.35678 50.23930 48.79804
# Shear Modulus (GPa) = 31.69430 33.73022 32.71226
#
# Velocity S-wave (km/s) = 4.03711 4.16475 4.10143
# Velocity P-wave (km/s) = 6.78847 6.99726 6.89366
#
# Compressibility (1/GPa) = 0.02111630
#
# Stress axis : x y z
#
# Youngs Moduli (GPa) = 77.09237 77.09237 136.73316
#
# Poissons Ratio (x) = 0.22397 0.21637
# Poissons Ratio (y) = 0.22397 0.21637
# Poissons Ratio (z) = 0.12199 0.12199
#
# Static dielectric constant tensor:
#      x y z
#    x 3.529940 0.000000 0.000000 
#    y 0.000000 3.529940 0.000000 
#    z 0.000000 0.000000 3.694340 
# 
# 
# High freq. dielectric constant tensor:
#      x y z
#    x 1.746870 0.000000 0.000000 
#    y 0.000000 1.746870 0.000000 
#    z 0.000000 0.000000 1.782080 
# 
# From -- ./inp_files/674.got.cif
#   From: 2010.03.12/outbox.cif.g09.slc.cpg/sg192_1_cif.got.tgz:674.got - 2010.04.01 12:16:15.
