data_PCOD8329034
_publ_section_title
;
Structure prediction by ZEFSAII (Michael W. Deem and Ramdas Pophale) SiO2 
 PCOD8329034
Probable space group: P 6/M M M
;
_chemical_formula_sum "Si O2"
_cell_formula_units_Z 120
_cell_length_a 17.724261
_cell_length_b 17.724261
_cell_length_c 25.404771
_cell_angle_alpha 90.000000
_cell_angle_beta 90.000000
_cell_angle_gamma 120.000000
_cell_volume 6911.657190
_symmetry_space_group_name_H-M "P 6/M M M"
_symmetry_group_IT_number 191
_symmetry_cell_setting 'hexagonal'
loop_
_space_group_symop_operation_xyz
x,y,z
x-y,x,z
-y,x-y,z
-x,-y,z
-x+y,-x,z
y,-x+y,z
x-y,-y,-z
-x,-x+y,-z
y,x,-z
-y,-x,-z
-x+y,y,-z
x,x-y,-z
-x,-y,-z
-x+y,-x,-z
y,-x+y,-z
x,y,-z
x-y,x,-z
-y,x-y,-z
-x+y,y,z
x,x-y,z
-y,-x,z
y,x,z
x-y,-y,z
-x,-x+y,z
loop_
_atom_site_type_symbol
_atom_site_label
_atom_site_fract_x
_atom_site_fract_y
_atom_site_fract_z
Si Si1 0.360485 0.262749 0.092901
Si Si2 0.901813 0.631418 0.401566
Si Si3 0.468832 0.102873 0.000000
Si Si4 0.097762 0.732028 0.212156
Si Si5 0.331585 0.840949 0.500000
Si Si6 0.160245 0.492260 0.695840
O O1 0.317063 0.158532 0.087688
O O2 0.285771 0.285771 0.078701
O O3 0.396918 0.293032 0.151844
O O4 0.441041 0.308203 0.052737
O O5 0.833357 0.666714 0.404702
O O6 0.886770 0.566099 0.448878
O O7 0.891406 0.580590 0.347723
O O8 0.000000 0.713437 0.404490
O O9 0.573405 0.146810 0.000000
O O10 0.425514 0.000000 0.000000
O O11 0.165631 0.834370 0.223602
O O12 0.121876 0.672089 0.247542
O O13 0.000000 0.712591 0.224586
O O14 0.261649 0.738352 0.500000
O O15 0.427069 0.854138 0.500000
O O16 0.263072 0.526143 0.692435
O O17 0.144566 0.572283 0.686508
#
# Coordination Sequence:
#
# PCOD8329034 Si02
#       6
#    24  24  12  24  12  24
#     4   9  17  30  48  69  93 121 154 190 229 274
#     4  10  21  35  51  72  97 126 159 197 240 281
#     4   9  17  28  43  64  88 114 146 185 225 264
#     4   9  18  31  47  68  93 122 155 192 233 274
#     4  10  20  33  50  73 102 134 165 196 232 275
#     4  10  20  33  49  70  97 127 157 189 228 275
#
# _framework density 17.361972999999999
#
# number of rings (size 3 to 8) (size 9 to 14) (size 15 to 20)
#    0.000    2.500    0.000    2.100    0.000    4.000 
#    0.000    4.000    0.000    2.200    0.000    2.800 
#    0.000    9.600    0.000    0.400    0.000    0.800 
#
# Total GULP energy -1487676.103218 kJ/mol
# GULP energy per Si atom -12397.300860 kJ/mol
# Density = 1.732246 g / cm^3
# Si number density = 17.361973 Si / 1000 Ang^3
#
#
#
# Elastic Constant Matrix: (Units=GPa)
#
#
# Indices 1 2 3 4 5 6 
#
# 1 100.0303 68.0196 38.5279 0.0000 0.0000 0.0000
# 2 68.0196 100.0303 38.5279 0.0000 0.0000 0.0000
# 3 38.5279 38.5279 98.4456 0.0000 0.0000 0.0000
# 4 0.0000 0.0000 0.0000 18.6114 0.0000 0.0000
# 5 0.0000 0.0000 0.0000 0.0000 18.6114 0.0000
# 6 0.0000 0.0000 0.0000 0.0000 0.0000 16.0053
#
#
#
# Elastic Compliance Matrix: (Units=1/GPa)
#
#
# Indices 1 2 3 4 5 6 
#
# 1 0.019246 -0.011994 -0.002838 0.000000 0.000000 0.000000
# 2 -0.011994 0.019246 -0.002838 0.000000 0.000000 0.000000
# 3 -0.002838 -0.002838 0.012379 0.000000 0.000000 0.000000
# 4 0.000000 0.000000 0.000000 0.053731 0.000000 0.000000
# 5 0.000000 0.000000 0.000000 0.000000 0.053731 0.000000
# 6 0.000000 0.000000 0.000000 0.000000 0.000000 0.062479
#
#
# Mechanical properties :
#
#
# Convention : Reuss Voigt Hill
#
# Bulk Modulus (GPa) = 64.38843 65.40636 64.89740
# Shear Modulus (GPa) = 19.13302 20.87434 20.00368
#
# Velocity S-wave (km/s) = 3.32325 3.47118 3.39802
# Velocity P-wave (km/s) = 7.20359 7.33618 7.27019
#
# Compressibility (1/GPa) = 0.01553074
#
# Stress axis : x y z
#
# Youngs Moduli (GPa) = 51.95943 51.95943 80.77946
#
# Poissons Ratio (x) = 0.62319 0.22926
# Poissons Ratio (y) = 0.62319 0.22926
# Poissons Ratio (z) = 0.14747 0.14747
#
# Static dielectric constant tensor:
#      x y z
#    x 3.182400 0.000000 0.000000 
#    y 0.000000 3.182400 0.000000 
#    z 0.000000 0.000000 3.520560 
# 
# 
# High freq. dielectric constant tensor:
#      x y z
#    x 1.652600 0.000000 0.000000 
#    y 0.000000 1.652600 0.000000 
#    z 0.000000 0.000000 1.693620 
# 
# From -- ./inp_files/8503.got.cif
#   From: 2010.03.12/outbox.cif.g09.slc.cpg/sg191_5_cif.got.tgz:8503.got - 2010.04.01 12:09:02.
