data_PCOD8329174
_publ_section_title
;
Structure prediction by ZEFSAII (Michael W. Deem and Ramdas Pophale) SiO2 
 PCOD8329174
Probable space group: P 6/M M M
;
_chemical_formula_sum "Si O2"
_cell_formula_units_Z 108
_cell_length_a 18.025804
_cell_length_b 18.025804
_cell_length_c 24.414449
_cell_angle_alpha 90.000000
_cell_angle_beta 90.000000
_cell_angle_gamma 120.000000
_cell_volume 6870.159946
_symmetry_space_group_name_H-M "P 6/M M M"
_symmetry_group_IT_number 191
_symmetry_cell_setting 'hexagonal'
loop_
_space_group_symop_operation_xyz
x,y,z
x-y,x,z
-y,x-y,z
-x,-y,z
-x+y,-x,z
y,-x+y,z
x-y,-y,-z
-x,-x+y,-z
y,x,-z
-y,-x,-z
-x+y,y,-z
x,x-y,-z
-x,-y,-z
-x+y,-x,-z
y,-x+y,-z
x,y,-z
x-y,x,-z
-y,x-y,-z
-x+y,y,z
x,x-y,z
-y,-x,z
y,x,z
x-y,-y,z
-x,-x+y,z
loop_
_atom_site_type_symbol
_atom_site_label
_atom_site_fract_x
_atom_site_fract_y
_atom_site_fract_z
Si Si1 0.735044 0.095496 0.653709
Si Si2 0.836350 0.333254 0.437389
Si Si3 0.161808 0.666961 0.129398
Si Si4 0.588224 0.000000 0.061792
Si Si5 0.164224 0.666708 0.255032
O O1 0.836464 0.163537 0.653036
O O2 0.688876 0.104871 0.600104
O O3 0.690487 0.106741 0.707453
O O4 0.721406 0.000000 0.654163
O O5 0.864896 0.334939 0.500000
O O6 0.848799 0.424400 0.419651
O O7 0.736856 0.263145 0.428981
O O8 0.181230 0.590615 0.117514
O O9 0.245327 0.754674 0.112953
O O10 0.135797 0.665352 0.192572
O O11 0.084391 0.659529 0.092718
O O12 0.500000 0.000000 0.062938
O O13 0.619129 0.000000 0.000000
O O14 0.149835 0.574918 0.273165
O O15 0.264404 0.735597 0.262498
#
# Coordination Sequence:
#
# PCOD8329174 Si02
#       5
#    24  24  24  12  24
#     4  10  21  34  47  65  88 115 147 185 230 275
#     4   9  17  29  45  66  94 128 161 188 214 250
#     4   9  17  29  45  64  87 118 153 187 220 259
#     4   9  18  30  42  60  86 114 146 186 228 260
#     4   9  17  28  44  66  92 120 149 179 211 251
#
# _framework density 15.720158
#
# number of rings (size 3 to 8) (size 9 to 14) (size 15 to 20)
#    0.000    2.778    0.000    1.333    1.556    5.333 
#    0.000    3.333    0.000    1.556    0.000    0.000 
#    0.000    0.000    0.000    5.889    0.000    1.444 
#
# Total GULP energy -1339202.905138 kJ/mol
# GULP energy per Si atom -12400.026899 kJ/mol
# Density = 1.568438 g / cm^3
# Si number density = 15.720158 Si / 1000 Ang^3
#
#
#
# Elastic Constant Matrix: (Units=GPa)
#
#
# Indices 1 2 3 4 5 6 
#
# 1 88.9224 58.3881 44.9399 0.0000 0.0000 0.0000
# 2 58.3881 88.9224 44.9399 0.0000 0.0000 0.0000
# 3 44.9399 44.9399 88.9747 0.0000 0.0000 0.0000
# 4 0.0000 0.0000 0.0000 19.3060 0.0000 0.0000
# 5 0.0000 0.0000 0.0000 0.0000 19.3060 0.0000
# 6 0.0000 0.0000 0.0000 0.0000 0.0000 15.2672
#
#
#
# Elastic Compliance Matrix: (Units=1/GPa)
#
#
# Indices 1 2 3 4 5 6 
#
# 1 0.021281 -0.011469 -0.004956 0.000000 0.000000 0.000000
# 2 -0.011469 0.021281 -0.004956 0.000000 0.000000 0.000000
# 3 -0.004956 -0.004956 0.016246 0.000000 0.000000 0.000000
# 4 0.000000 0.000000 0.000000 0.051797 0.000000 0.000000
# 5 0.000000 0.000000 0.000000 0.000000 0.051797 0.000000
# 6 0.000000 0.000000 0.000000 0.000000 0.000000 0.065500
#
#
# Mechanical properties :
#
#
# Convention : Reuss Voigt Hill
#
# Bulk Modulus (GPa) = 62.32095 62.59502 62.45798
# Shear Modulus (GPa) = 18.11506 18.67927 18.39717
#
# Velocity S-wave (km/s) = 3.39831 3.45082 3.42466
# Velocity P-wave (km/s) = 7.42482 7.46876 7.44682
#
# Compressibility (1/GPa) = 0.01604597
#
# Stress axis : x y z
#
# Youngs Moduli (GPa) = 46.98996 46.98996 61.55523
#
# Poissons Ratio (x) = 0.53892 0.30507
# Poissons Ratio (y) = 0.53892 0.30507
# Poissons Ratio (z) = 0.23288 0.23288
#
# Static dielectric constant tensor:
#      x y z
#    x 2.784440 0.000000 0.000000 
#    y 0.000000 2.784440 0.000000 
#    z 0.000000 0.000000 3.208060 
# 
# 
# High freq. dielectric constant tensor:
#      x y z
#    x 1.575840 0.000000 0.000000 
#    y 0.000000 1.575840 0.000000 
#    z 0.000000 0.000000 1.615850 
# 
# From -- ./inp_files/8336.got.cif
#   From: 2010.03.12/outbox.cif.g09.slc.cpg/sg191_5_cif.got.tgz:8336.got - 2010.04.01 12:09:02.
