data_PCOD8329705
_publ_section_title
;
Structure prediction by ZEFSAII (Michael W. Deem and Ramdas Pophale) SiO2 
 PCOD8329705
Probable space group: P 6/M C C
;
_chemical_formula_sum "Si O2"
_cell_formula_units_Z 104
_cell_length_a 17.527925
_cell_length_b 17.527925
_cell_length_c 19.769841
_cell_angle_alpha 90.000000
_cell_angle_beta 90.000000
_cell_angle_gamma 120.000000
_cell_volume 5260.109933
_symmetry_space_group_name_H-M "P 6/M C C"
_symmetry_group_IT_number 192
_symmetry_cell_setting 'hexagonal'
loop_
_space_group_symop_operation_xyz
x,y,z
x-y,x,z
-y,x-y,z
-x,-y,z
-x+y,-x,z
y,-x+y,z
x-y,-y,1/2-z
-x,-x+y,1/2-z
y,x,1/2-z
-y,-x,1/2-z
-x+y,y,1/2-z
x,x-y,1/2-z
-x,-y,-z
-x+y,-x,-z
y,-x+y,-z
x,y,-z
x-y,x,-z
-y,x-y,-z
-x+y,y,1/2+z
x,x-y,1/2+z
-y,-x,1/2+z
y,x,1/2+z
x-y,-y,1/2+z
-x,-x+y,1/2+z
loop_
_atom_site_type_symbol
_atom_site_label
_atom_site_fract_x
_atom_site_fract_y
_atom_site_fract_z
Si Si1 0.226869 0.319674 0.870616
Si Si2 0.104030 0.895971 0.750000
Si Si3 0.473778 0.257953 0.828175
Si Si4 0.571238 0.977022 0.327643
Si Si5 0.666668 0.333334 0.170067
Si Si6 0.152561 0.199805 0.000000
O O1 0.151561 0.269790 0.813790
O O2 0.221699 0.407433 0.881162
O O3 0.328629 0.351597 0.854754
O O4 0.200148 0.258469 0.935352
O O5 0.000000 0.854583 0.750000
O O6 0.452897 0.226449 0.750000
O O7 0.473569 0.347497 0.837811
O O8 0.567122 0.273984 0.854422
O O9 0.500000 0.000000 0.361980
O O10 0.577511 0.000000 0.250000
O O11 0.666668 0.333334 0.250000
O O12 0.165038 0.115656 0.000000
#
# Coordination Sequence:
#
# PCOD8329705 Si02
#       6
#    24  12  24  24   8  12
#     4  12  23  41  63  91 123 167 212 272 328 396
#     4  12  23  38  60  88 122 158 208 266 335 394
#     4  11  19  34  55  86 124 157 201 250 312 374
#     4  11  21  34  59  92 126 162 204 258 323 387
#     4   9  21  30  54  91 128 163 201 253 308 376
#     4  12  27  46  67  90 124 168 222 272 338 402
#
# _framework density 19.771450999999999
#
# number of rings (size 3 to 8) (size 9 to 14) (size 15 to 20)
#    0.000    0.692    3.462    6.462    6.462    0.000 
#    0.000    2.885    0.000    4.154    0.000    0.000 
#    0.000    0.000    0.000    0.000    0.000    0.000 
#
# Total GULP energy -1288521.680023 kJ/mol
# GULP energy per Si atom -12389.631539 kJ/mol
# Density = 1.972645 g / cm^3
# Si number density = 19.771451 Si / 1000 Ang^3
#
#
#
# Elastic Constant Matrix: (Units=GPa)
#
#
# Indices 1 2 3 4 5 6 
#
# 1 169.3304 57.5727 42.5328 0.0000 -0.0001 -0.0001
# 2 57.5727 169.3295 42.5328 0.0001 -0.0001 -0.0002
# 3 42.5328 42.5328 77.1610 0.0000 0.0000 0.0000
# 4 0.0000 0.0001 0.0000 4.1139 0.0001 0.0000
# 5 -0.0001 -0.0001 0.0000 0.0001 4.1142 0.0000
# 6 -0.0001 -0.0002 0.0000 0.0000 0.0000 55.8785
#
#
#
# Elastic Compliance Matrix: (Units=1/GPa)
#
#
# Indices 1 2 3 4 5 6 
#
# 1 0.007252 -0.001696 -0.003062 0.000000 0.000000 0.000000
# 2 -0.001696 0.007252 -0.003062 0.000000 0.000000 0.000000
# 3 -0.003062 -0.003062 0.016336 0.000000 0.000000 0.000000
# 4 0.000000 0.000000 0.000000 0.243077 -0.000004 0.000000
# 5 0.000000 0.000000 0.000000 -0.000004 0.243059 0.000000
# 6 0.000000 0.000000 0.000000 0.000000 0.000000 0.017896
#
#
# Mechanical properties :
#
#
# Convention : Reuss Voigt Hill
#
# Bulk Modulus (GPa) = 65.80004 77.89971 71.84987
# Shear Modulus (GPa) = 8.99963 31.03350 20.01656
#
# Velocity S-wave (km/s) = 2.13582 3.96613 3.18527
# Velocity P-wave (km/s) = 6.27972 7.77555 7.06732
#
# Compressibility (1/GPa) = 0.01519756
#
# Stress axis : x y z
#
# Youngs Moduli (GPa) = 137.90167 137.90091 61.21551
#
# Poissons Ratio (x) = 0.23393 0.18745
# Poissons Ratio (y) = 0.23394 0.18745
# Poissons Ratio (z) = 0.42227 0.42227
#
# Static dielectric constant tensor:
#      x y z
#    x 4.416330 -0.000010 0.000000 
#    y -0.000010 4.416340 0.000000 
#    z 0.000000 0.000000 3.100210 
# 
# 
# High freq. dielectric constant tensor:
#      x y z
#    x 1.802410 0.000000 0.000000 
#    y 0.000000 1.802410 0.000000 
#    z 0.000000 0.000000 1.706410 
# 
# From -- ./inp_files/4891.got.cif
#   From: 2010.03.12/outbox.cif.g09.slc.cpg/sg192_3_cif.got.tgz:4891.got - 2010.04.01 12:16:15.
