data_PCOD8329610
_publ_section_title
;
Structure prediction by ZEFSAII (Michael W. Deem and Ramdas Pophale) SiO2 
 PCOD8329610
Probable space group: P 6/M C C
;
_chemical_formula_sum "Si O2"
_cell_formula_units_Z 168
_cell_length_a 18.863319
_cell_length_b 18.863319
_cell_length_c 26.166889
_cell_angle_alpha 90.000000
_cell_angle_beta 90.000000
_cell_angle_gamma 120.000000
_cell_volume 8063.413701
_symmetry_space_group_name_H-M "P 6/M C C"
_symmetry_group_IT_number 192
_symmetry_cell_setting 'hexagonal'
loop_
_space_group_symop_operation_xyz
x,y,z
x-y,x,z
-y,x-y,z
-x,-y,z
-x+y,-x,z
y,-x+y,z
x-y,-y,1/2-z
-x,-x+y,1/2-z
y,x,1/2-z
-y,-x,1/2-z
-x+y,y,1/2-z
x,x-y,1/2-z
-x,-y,-z
-x+y,-x,-z
y,-x+y,-z
x,y,-z
x-y,x,-z
-y,x-y,-z
-x+y,y,1/2+z
x,x-y,1/2+z
-y,-x,1/2+z
y,x,1/2+z
x-y,-y,1/2+z
-x,-x+y,1/2+z
loop_
_atom_site_type_symbol
_atom_site_label
_atom_site_fract_x
_atom_site_fract_y
_atom_site_fract_z
Si Si1 0.204605 0.383913 0.057384
Si Si2 0.551679 0.385366 0.353824
Si Si3 0.869795 0.503230 0.942463
Si Si4 0.330783 0.232711 0.149537
Si Si5 0.391651 0.357586 0.610065
Si Si6 0.898825 0.824638 0.691652
Si Si7 0.284545 0.504313 0.693514
O O1 0.194369 0.464043 0.059577
O O2 0.136149 0.320474 0.096364
O O3 0.295022 0.402545 0.072985
O O4 0.186069 0.347246 0.000000
O O5 0.590466 0.420635 0.409367
O O6 0.468170 0.390971 0.350063
O O7 0.617379 0.435953 0.309263
O O8 0.530616 0.292097 0.347692
O O9 0.959886 0.569242 0.921131
O O10 0.881473 0.481260 0.000000
O O11 0.310875 0.306175 0.141159
O O12 0.270843 0.165037 0.188871
O O13 0.418093 0.270820 0.175794
O O14 0.855252 0.869771 0.664051
O O15 0.923753 0.847506 0.750000
O O16 0.251539 0.503078 0.750000
#
# Coordination Sequence:
#
# PCOD8329610 Si02
#       7
#    24  24  24  24  24  24  24
#     4  10  20  38  62  92 129 170 213 255 317 398
#     4  12  23  44  65  95 124 168 225 276 322 398
#     4  10  22  39  65  99 135 174 214 264 337 398
#     4  11  22  42  63  96 132 171 212 270 328 393
#     4  11  21  38  68  95 135 167 217 271 331 384
#     4  10  21  38  64  95 129 166 209 258 321 391
#     4  12  26  45  67  87 123 175 227 276 336 388
#
# _framework density 20.834848000000001
#
# number of rings (size 3 to 8) (size 9 to 14) (size 15 to 20)
#    0.000    1.143    4.286    3.000    0.000    2.857 
#    0.000    0.714    3.143    0.000    0.000    0.000 
#    0.000    2.286    0.000    0.000    0.000    0.000 
#
# Total GULP energy -2081692.231923 kJ/mol
# GULP energy per Si atom -12391.025190 kJ/mol
# Density = 2.078743 g / cm^3
# Si number density = 20.834848 Si / 1000 Ang^3
#
#
#
# Elastic Constant Matrix: (Units=GPa)
#
#
# Indices 1 2 3 4 5 6 
#
# 1 111.0351 51.5183 38.6597 0.0000 0.0000 0.0000
# 2 51.5183 111.0351 38.6597 0.0000 0.0000 0.0000
# 3 38.6597 38.6597 95.9804 0.0000 0.0000 0.0000
# 4 0.0000 0.0000 0.0000 23.9760 0.0000 0.0000
# 5 0.0000 0.0000 0.0000 0.0000 23.9760 0.0000
# 6 0.0000 0.0000 0.0000 0.0000 0.0000 29.7584
#
#
#
# Elastic Compliance Matrix: (Units=1/GPa)
#
#
# Indices 1 2 3 4 5 6 
#
# 1 0.012206 -0.004596 -0.003065 0.000000 0.000000 0.000000
# 2 -0.004596 0.012206 -0.003065 0.000000 0.000000 0.000000
# 3 -0.003065 -0.003065 0.012888 0.000000 0.000000 0.000000
# 4 0.000000 0.000000 0.000000 0.041708 0.000000 0.000000
# 5 0.000000 0.000000 0.000000 0.000000 0.041708 0.000000
# 6 0.000000 0.000000 0.000000 0.000000 0.000000 0.033604
#
#
# Mechanical properties :
#
#
# Convention : Reuss Voigt Hill
#
# Bulk Modulus (GPa) = 63.10328 63.96954 63.53641
# Shear Modulus (GPa) = 27.61583 28.15626 27.88605
#
# Velocity S-wave (km/s) = 3.64464 3.68013 3.66243
# Velocity P-wave (km/s) = 6.93284 6.98768 6.96031
#
# Compressibility (1/GPa) = 0.01584704
#
# Stress axis : x y z
#
# Youngs Moduli (GPa) = 81.92777 81.92777 77.59176
#
# Poissons Ratio (x) = 0.37655 0.23783
# Poissons Ratio (y) = 0.37655 0.23783
# Poissons Ratio (z) = 0.25112 0.25112
#
# Static dielectric constant tensor:
#      x y z
#    x 3.974250 0.000000 0.000000 
#    y 0.000000 3.974250 0.000000 
#    z 0.000000 0.000000 3.860320 
# 
# 
# High freq. dielectric constant tensor:
#      x y z
#    x 1.821350 0.000000 0.000000 
#    y 0.000000 1.821350 0.000000 
#    z 0.000000 0.000000 1.797360 
# 
# From -- ./inp_files/7207.got.cif
#   From: 2010.03.12/outbox.cif.g09.slc.cpg/sg192_4_cif.got.tgz:7207.got - 2010.04.01 12:16:15.
