data_PCOD8329123
_publ_section_title
;
Structure prediction by ZEFSAII (Michael W. Deem and Ramdas Pophale) SiO2 
 PCOD8329123
Probable space group: P 6/M M M
;
_chemical_formula_sum "Si O2"
_cell_formula_units_Z 156
_cell_length_a 21.587669
_cell_length_b 21.587669
_cell_length_c 22.554689
_cell_angle_alpha 90.000000
_cell_angle_beta 90.000000
_cell_angle_gamma 120.000000
_cell_volume 9102.883315
_symmetry_space_group_name_H-M "P 6/M M M"
_symmetry_group_IT_number 191
_symmetry_cell_setting 'hexagonal'
loop_
_space_group_symop_operation_xyz
x,y,z
x-y,x,z
-y,x-y,z
-x,-y,z
-x+y,-x,z
y,-x+y,z
x-y,-y,-z
-x,-x+y,-z
y,x,-z
-y,-x,-z
-x+y,y,-z
x,x-y,-z
-x,-y,-z
-x+y,-x,-z
y,-x+y,-z
x,y,-z
x-y,x,-z
-y,x-y,-z
-x+y,y,z
x,x-y,z
-y,-x,z
y,x,z
x-y,-y,z
-x,-x+y,z
loop_
_atom_site_type_symbol
_atom_site_label
_atom_site_fract_x
_atom_site_fract_y
_atom_site_fract_z
Si Si1 0.566947 0.650060 0.164062
Si Si2 0.704902 0.152693 0.612790
Si Si3 0.532714 0.920368 0.500000
Si Si4 0.476073 0.665534 0.265770
Si Si5 0.078449 0.294594 0.800843
Si Si6 0.474987 0.808104 0.068267
Si Si7 0.216020 0.295469 0.663650
O O1 0.587119 0.587119 0.166863
O O2 0.518854 0.643863 0.220183
O O3 0.638356 0.726977 0.161579
O O4 0.524168 0.643800 0.104332
O O5 0.770232 0.229769 0.595595
O O6 0.652720 0.122965 0.557867
O O7 0.662936 0.159230 0.668828
O O8 0.732725 0.097850 0.626311
O O9 0.463844 0.927687 0.500000
O O10 0.602324 0.000000 0.500000
O O11 0.488008 0.744004 0.250654
O O12 0.392174 0.607827 0.261870
O O13 0.136351 0.272701 0.820910
O O14 0.087631 0.318066 0.732306
O O15 0.000000 0.226214 0.811985
O O16 0.392221 0.784441 0.077112
O O17 0.484761 0.742381 0.091013
O O18 0.497851 0.825408 0.000000
O O19 0.133042 0.266083 0.647826
O O20 0.232887 0.232887 0.647828
#
# Coordination Sequence:
#
# PCOD8329123 Si02
#       7
#    24  24  12  24  24  24  24
#     4  11  22  34  51  75 103 134 167 205 250 299
#     4  10  20  35  54  72  94 126 165 208 249 294
#     4  11  23  36  50  70  98 129 159 195 246 306
#     4  11  22  36  54  75 100 128 163 208 256 304
#     4   9  16  28  47  71  98 127 161 199 240 287
#     4  10  21  37  56  75  98 131 171 212 253 301
#     4   9  16  28  48  72  97 126 160 199 242 287
#
# _framework density 17.137426999999999
#
# number of rings (size 3 to 8) (size 9 to 14) (size 15 to 20)
#    0.000    1.923    1.538    3.308    0.000    2.769 
#    0.000    2.308    0.000    2.462    0.000    2.154 
#    0.000    0.000    0.000    0.000    0.000   16.000 
#
# Total GULP energy -1934449.646148 kJ/mol
# GULP energy per Si atom -12400.318245 kJ/mol
# Density = 1.709842 g / cm^3
# Si number density = 17.137427 Si / 1000 Ang^3
#
#
#
# Elastic Constant Matrix: (Units=GPa)
#
#
# Indices 1 2 3 4 5 6 
#
# 1 100.9554 53.1497 47.1364 0.0000 0.0000 0.0000
# 2 53.1497 100.9554 47.1364 0.0000 0.0000 0.0000
# 3 47.1364 47.1364 84.5365 0.0000 0.0000 0.0000
# 4 0.0000 0.0000 0.0000 22.5381 0.0000 0.0000
# 5 0.0000 0.0000 0.0000 0.0000 22.5381 0.0000
# 6 0.0000 0.0000 0.0000 0.0000 0.0000 23.9028
#
#
#
# Elastic Compliance Matrix: (Units=1/GPa)
#
#
# Indices 1 2 3 4 5 6 
#
# 1 0.015383 -0.005535 -0.005491 0.000000 0.000000 0.000000
# 2 -0.005535 0.015383 -0.005491 0.000000 0.000000 0.000000
# 3 -0.005491 -0.005491 0.017953 0.000000 0.000000 0.000000
# 4 0.000000 0.000000 0.000000 0.044369 0.000000 0.000000
# 5 0.000000 0.000000 0.000000 0.000000 0.044369 0.000000
# 6 0.000000 0.000000 0.000000 0.000000 0.000000 0.041836
#
#
# Mechanical properties :
#
#
# Convention : Reuss Voigt Hill
#
# Bulk Modulus (GPa) = 63.75745 64.58803 64.17274
# Shear Modulus (GPa) = 22.98246 23.06411 23.02328
#
# Velocity S-wave (km/s) = 3.66603 3.67254 3.66929
# Velocity P-wave (km/s) = 7.42995 7.46683 7.44841
#
# Compressibility (1/GPa) = 0.01568444
#
# Stress axis : x y z
#
# Youngs Moduli (GPa) = 65.00603 65.00603 55.70106
#
# Poissons Ratio (x) = 0.35980 0.30587
# Poissons Ratio (y) = 0.35980 0.30587
# Poissons Ratio (z) = 0.35697 0.35697
#
# Static dielectric constant tensor:
#      x y z
#    x 3.242540 0.000000 0.000000 
#    y 0.000000 3.242540 0.000000 
#    z 0.000000 0.000000 3.096930 
# 
# 
# High freq. dielectric constant tensor:
#      x y z
#    x 1.660450 0.000000 0.000000 
#    y 0.000000 1.660450 0.000000 
#    z 0.000000 0.000000 1.647710 
# 
# From -- ./inp_files/7738.got.cif
#   From: 2010.03.12/outbox.cif.g09.slc.cpg/sg191_4_cif.got.tgz:7738.got - 2010.04.01 12:09:02.
