data_PCOD8329316
_publ_section_title
;
Structure prediction by ZEFSAII (Michael W. Deem and Ramdas Pophale) SiO2 
 PCOD8329316
Probable space group: P 6/M M M
;
_chemical_formula_sum "Si O2"
_cell_formula_units_Z 108
_cell_length_a 28.465305
_cell_length_b 28.465305
_cell_length_c 9.441820
_cell_angle_alpha 90.000000
_cell_angle_beta 90.000000
_cell_angle_gamma 120.000000
_cell_volume 6625.490438
_symmetry_space_group_name_H-M "P 6/M M M"
_symmetry_group_IT_number 191
_symmetry_cell_setting 'hexagonal'
loop_
_space_group_symop_operation_xyz
x,y,z
x-y,x,z
-y,x-y,z
-x,-y,z
-x+y,-x,z
y,-x+y,z
x-y,-y,-z
-x,-x+y,-z
y,x,-z
-y,-x,-z
-x+y,y,-z
x,x-y,-z
-x,-y,-z
-x+y,-x,-z
y,-x+y,-z
x,y,-z
x-y,x,-z
-y,x-y,-z
-x+y,y,z
x,x-y,z
-y,-x,z
y,x,z
x-y,-y,z
-x,-x+y,z
loop_
_atom_site_type_symbol
_atom_site_label
_atom_site_fract_x
_atom_site_fract_y
_atom_site_fract_z
Si Si1 0.498353 0.394381 0.165713
Si Si2 0.107931 0.780998 0.156342
Si Si3 0.828656 0.554200 0.832473
Si Si4 0.555590 0.000000 0.659453
Si Si5 0.939851 0.165799 0.335519
O O1 0.559845 0.440156 0.203361
O O2 0.490850 0.335879 0.208689
O O3 0.454309 0.401360 0.255340
O O4 0.486244 0.396869 0.000000
O O5 0.161921 0.838080 0.144522
O O6 0.124588 0.738375 0.220963
O O7 0.066173 0.787113 0.257723
O O8 0.081453 0.762579 0.000000
O O9 0.769103 0.538205 0.769127
O O10 0.825975 0.558654 0.000000
O O11 0.500000 0.000000 0.652989
O O12 0.576657 0.000000 0.500000
O O13 0.932433 0.172868 0.500000
O O14 0.894947 0.105054 0.284843
O O15 0.000000 0.175555 0.302932
#
# Coordination Sequence:
#
# PCOD8329316 Si02
#       5
#    24  24  24  12  24
#     4   9  16  27  45  66  86 112 147 180 210 253
#     4   8  14  26  43  60  78 103 136 171 204 239
#     4   8  14  26  44  64  86 112 142 176 212 248
#     4   9  17  29  43  59  83 113 141 175 219 257
#     4   9  17  29  44  61  83 110 136 164 202 246
#
# _framework density 16.30068
#
# number of rings (size 3 to 8) (size 9 to 14) (size 15 to 20)
#    0.000    3.444    0.000    1.667    0.000    1.778 
#    2.000    1.111    0.000    2.667    0.000    4.667 
#    0.000    0.000    0.000    5.556    0.000    6.222 
#
# Total GULP energy -1338041.288410 kJ/mol
# GULP energy per Si atom -12389.271189 kJ/mol
# Density = 1.626358 g / cm^3
# Si number density = 16.300680 Si / 1000 Ang^3
#
#
#
# Elastic Constant Matrix: (Units=GPa)
#
#
# Indices 1 2 3 4 5 6 
#
# 1 103.5389 60.1525 30.5672 0.0000 0.0000 0.0000
# 2 60.1525 103.5389 30.5672 0.0000 0.0000 0.0000
# 3 30.5672 30.5672 43.2612 0.0000 0.0000 0.0000
# 4 0.0000 0.0000 0.0000 13.5711 0.0000 0.0000
# 5 0.0000 0.0000 0.0000 0.0000 13.5711 0.0000
# 6 0.0000 0.0000 0.0000 0.0000 0.0000 21.6932
#
#
#
# Elastic Compliance Matrix: (Units=1/GPa)
#
#
# Indices 1 2 3 4 5 6 
#
# 1 0.015674 -0.007375 -0.005864 0.000000 0.000000 0.000000
# 2 -0.007375 0.015674 -0.005864 0.000000 0.000000 0.000000
# 3 -0.005864 -0.005864 0.031402 0.000000 0.000000 0.000000
# 4 0.000000 0.000000 0.000000 0.073686 0.000000 0.000000
# 5 0.000000 0.000000 0.000000 0.000000 0.073686 0.000000
# 6 0.000000 0.000000 0.000000 0.000000 0.000000 0.046097
#
#
# Mechanical properties :
#
#
# Convention : Reuss Voigt Hill
#
# Bulk Modulus (GPa) = 40.74230 54.76808 47.75519
# Shear Modulus (GPa) = 16.52314 18.37056 17.44685
#
# Velocity S-wave (km/s) = 3.18724 3.36070 3.27512
# Velocity P-wave (km/s) = 6.21234 6.98073 6.60771
#
# Compressibility (1/GPa) = 0.02454451
#
# Stress axis : x y z
#
# Youngs Moduli (GPa) = 63.80045 63.80045 31.84514
#
# Poissons Ratio (x) = 0.47052 0.18674
# Poissons Ratio (y) = 0.47052 0.18674
# Poissons Ratio (z) = 0.37412 0.37412
#
# Static dielectric constant tensor:
#      x y z
#    x 3.146480 0.000000 0.000000 
#    y 0.000000 3.146480 0.000000 
#    z 0.000000 0.000000 3.081480 
# 
# 
# High freq. dielectric constant tensor:
#      x y z
#    x 1.611230 0.000000 0.000000 
#    y 0.000000 1.611230 0.000000 
#    z 0.000000 0.000000 1.603620 
# 
# From -- ./inp_files/3076.got.cif
#   From: 2010.03.12/outbox.cif.g09.slc.cpg/sg191_2_cif.got.tgz:3076.got - 2010.04.01 12:09:02.
