data_PCOD8329537
_publ_section_title
;
Structure prediction by ZEFSAII (Michael W. Deem and Ramdas Pophale) SiO2 
 PCOD8329537
Probable space group: P 6/M C C
;
_chemical_formula_sum "Si O2"
_cell_formula_units_Z 144
_cell_length_a 32.447389
_cell_length_b 32.447389
_cell_length_c 8.602183
_cell_angle_alpha 90.000000
_cell_angle_beta 90.000000
_cell_angle_gamma 120.000000
_cell_volume 7843.299876
_symmetry_space_group_name_H-M "P 6/M C C"
_symmetry_group_IT_number 192
_symmetry_cell_setting 'hexagonal'
loop_
_space_group_symop_operation_xyz
x,y,z
x-y,x,z
-y,x-y,z
-x,-y,z
-x+y,-x,z
y,-x+y,z
x-y,-y,1/2-z
-x,-x+y,1/2-z
y,x,1/2-z
-y,-x,1/2-z
-x+y,y,1/2-z
x,x-y,1/2-z
-x,-y,-z
-x+y,-x,-z
y,-x+y,-z
x,y,-z
x-y,x,-z
-y,x-y,-z
-x+y,y,1/2+z
x,x-y,1/2+z
-y,-x,1/2+z
y,x,1/2+z
x-y,-y,1/2+z
-x,-x+y,1/2+z
loop_
_atom_site_type_symbol
_atom_site_label
_atom_site_fract_x
_atom_site_fract_y
_atom_site_fract_z
Si Si1 0.387512 0.863568 0.683118
Si Si2 0.422580 0.667060 0.683515
Si Si3 0.701266 0.894065 0.683673
Si Si4 0.948446 0.138093 0.317799
Si Si5 0.950221 0.380563 0.317403
Si Si6 0.339655 0.291903 0.316737
O O1 0.437937 0.875873 0.750000
O O2 0.391255 0.868341 0.500000
O O3 0.347397 0.809633 0.731448
O O4 0.376480 0.902723 0.748956
O O5 0.371230 0.628771 0.750000
O O6 0.438656 0.719328 0.750000
O O7 0.417833 0.667930 0.500000
O O8 0.684527 0.842264 0.750000
O O9 0.692946 0.892709 0.500000
O O10 0.755887 0.929802 0.730039
O O11 0.667774 0.908648 0.775623
O O12 0.913982 0.086019 0.250000
O O13 0.950001 0.133682 0.500000
O O14 0.000000 0.156471 0.250000
O O15 0.951176 0.387886 0.500000
O O16 0.946089 0.330898 0.275741
O O17 0.000000 0.423978 0.250000
O O18 0.294113 0.294113 0.250000
O O19 0.346273 0.301845 0.500000
#
# Coordination Sequence:
#
# PCOD8329537 Si02
#       6
#    24  24  24  24  24  24
#     4  10  21  38  58  83 112 144 181 225 274 323
#     4  10  20  34  55  81 113 147 183 223 266 316
#     4  10  20  34  52  77 107 139 174 214 260 311
#     4  10  20  33  51  74 102 133 168 209 256 307
#     4  11  22  38  59  82 108 140 179 224 271 323
#     4  11  21  35  55  78 105 138 176 218 262 313
#
# _framework density 18.35962
#
# number of rings (size 3 to 8) (size 9 to 14) (size 15 to 20)
#    0.000    1.667    0.000    6.667    0.000    5.667 
#    0.000    2.500    0.000    2.167    0.000    1.167 
#    0.000    0.000    0.000    0.000    0.000    0.000 
#
# Total GULP energy -1785767.128229 kJ/mol
# GULP energy per Si atom -12401.160613 kJ/mol
# Density = 1.831783 g / cm^3
# Si number density = 18.359620 Si / 1000 Ang^3
#
#
#
# Elastic Constant Matrix: (Units=GPa)
#
#
# Indices 1 2 3 4 5 6 
#
# 1 96.2851 47.1478 22.9132 0.0000 0.0000 0.0000
# 2 47.1478 96.2851 22.9132 0.0000 0.0000 0.0000
# 3 22.9132 22.9132 70.4720 0.0000 0.0000 0.0000
# 4 0.0000 0.0000 0.0000 32.7749 0.0000 0.0000
# 5 0.0000 0.0000 0.0000 0.0000 32.7749 0.0000
# 6 0.0000 0.0000 0.0000 0.0000 0.0000 24.5687
#
#
#
# Elastic Compliance Matrix: (Units=1/GPa)
#
#
# Indices 1 2 3 4 5 6 
#
# 1 0.014066 -0.006286 -0.002530 0.000000 0.000000 0.000000
# 2 -0.006286 0.014066 -0.002530 0.000000 0.000000 0.000000
# 3 -0.002530 -0.002530 0.015835 0.000000 0.000000 0.000000
# 4 0.000000 0.000000 0.000000 0.030511 0.000000 0.000000
# 5 0.000000 0.000000 0.000000 0.000000 0.030511 0.000000
# 6 0.000000 0.000000 0.000000 0.000000 0.000000 0.040702
#
#
# Mechanical properties :
#
#
# Convention : Reuss Voigt Hill
#
# Bulk Modulus (GPa) = 46.99969 49.88783 48.44376
# Shear Modulus (GPa) = 28.49450 29.36157 28.92804
#
# Velocity S-wave (km/s) = 3.94384 4.00340 3.97373
# Velocity P-wave (km/s) = 6.81128 6.97145 6.89183
#
# Compressibility (1/GPa) = 0.02127674
#
# Stress axis : x y z
#
# Youngs Moduli (GPa) = 71.09534 71.09534 63.15132
#
# Poissons Ratio (x) = 0.44687 0.15975
# Poissons Ratio (y) = 0.44687 0.15975
# Poissons Ratio (z) = 0.17984 0.17984
#
# Static dielectric constant tensor:
#      x y z
#    x 3.461390 0.000000 0.000000 
#    y 0.000000 3.461390 0.000000 
#    z 0.000000 0.000000 3.523290 
# 
# 
# High freq. dielectric constant tensor:
#      x y z
#    x 1.707830 0.000000 0.000000 
#    y 0.000000 1.707830 0.000000 
#    z 0.000000 0.000000 1.732760 
# 
# From -- ./inp_files/1198.got.cif
#   From: 2010.03.12/outbox.cif.g09.slc.cpg/sg192_1_cif.got.tgz:1198.got - 2010.04.01 12:16:15.
