data_PCOD8329655
_publ_section_title
;
Structure prediction by ZEFSAII (Michael W. Deem and Ramdas Pophale) SiO2 
 PCOD8329655
Probable space group: P 6/M C C
;
_chemical_formula_sum "Si O2"
_cell_formula_units_Z 108
_cell_length_a 19.846829
_cell_length_b 19.846829
_cell_length_c 15.501762
_cell_angle_alpha 90.000000
_cell_angle_beta 90.000000
_cell_angle_gamma 120.000000
_cell_volume 5288.030510
_symmetry_space_group_name_H-M "P 6/M C C"
_symmetry_group_IT_number 192
_symmetry_cell_setting 'hexagonal'
loop_
_space_group_symop_operation_xyz
x,y,z
x-y,x,z
-y,x-y,z
-x,-y,z
-x+y,-x,z
y,-x+y,z
x-y,-y,1/2-z
-x,-x+y,1/2-z
y,x,1/2-z
-y,-x,1/2-z
-x+y,y,1/2-z
x,x-y,1/2-z
-x,-y,-z
-x+y,-x,-z
y,-x+y,-z
x,y,-z
x-y,x,-z
-y,x-y,-z
-x+y,y,1/2+z
x,x-y,1/2+z
-y,-x,1/2+z
y,x,1/2+z
x-y,-y,1/2+z
-x,-x+y,1/2+z
loop_
_atom_site_type_symbol
_atom_site_label
_atom_site_fract_x
_atom_site_fract_y
_atom_site_fract_z
Si Si1 0.860183 0.564304 0.157190
Si Si2 0.574313 0.856220 0.859107
Si Si3 0.846816 0.833487 0.500000
Si Si4 0.267247 0.998757 0.147447
Si Si5 0.455658 0.540988 0.097463
O O1 0.785520 0.557880 0.107496
O O2 0.853181 0.569139 0.257770
O O3 0.936955 0.641841 0.126394
O O4 0.861690 0.485227 0.142110
O O5 0.511227 0.874439 0.899267
O O6 0.661886 0.919443 0.885188
O O7 0.934047 0.849270 0.500000
O O8 0.806243 0.786788 0.411841
O O9 0.248208 0.000000 0.250000
O O10 0.500000 0.500000 0.142456
O O11 0.484443 0.559665 0.000000
#
# Coordination Sequence:
#
# PCOD8329655 Si02
#       5
#    24  24  12  24  24
#     4  10  21  38  62  89 119 160 208 260 314 370
#     4  10  21  38  62  89 119 160 208 260 314 370
#     4  12  27  44  66  95 132 172 206 250 308 375
#     4  10  22  42  68  98 126 159 211 266 317 365
#     4  11  23  37  57  89 125 161 203 253 314 382
#
# _framework density 20.423482
#
# number of rings (size 3 to 8) (size 9 to 14) (size 15 to 20)
#    0.000    1.556    2.222    2.111    3.111    4.444 
#    1.333    0.000    0.000    1.333    0.000    0.000 
#    0.000    0.000    0.000    0.000    0.000    0.000 
#
# Total GULP energy -1339012.615760 kJ/mol
# GULP energy per Si atom -12398.264961 kJ/mol
# Density = 2.037700 g / cm^3
# Si number density = 20.423482 Si / 1000 Ang^3
#
#
#
# Elastic Constant Matrix: (Units=GPa)
#
#
# Indices 1 2 3 4 5 6 
#
# 1 110.7784 36.3874 28.0550 0.0000 0.0000 0.0000
# 2 36.3874 110.7784 28.0550 0.0000 0.0000 0.0000
# 3 28.0550 28.0550 51.8822 0.0000 0.0000 0.0000
# 4 0.0000 0.0000 0.0000 22.7120 0.0000 0.0000
# 5 0.0000 0.0000 0.0000 0.0000 22.7120 0.0000
# 6 0.0000 0.0000 0.0000 0.0000 0.0000 37.1955
#
#
#
# Elastic Compliance Matrix: (Units=1/GPa)
#
#
# Indices 1 2 3 4 5 6 
#
# 1 0.011001 -0.002441 -0.004629 0.000000 0.000000 0.000000
# 2 -0.002441 0.011001 -0.004629 0.000000 0.000000 0.000000
# 3 -0.004629 -0.004629 0.024280 0.000000 0.000000 0.000000
# 4 0.000000 0.000000 0.000000 0.044030 0.000000 0.000000
# 5 0.000000 0.000000 0.000000 0.000000 0.044030 0.000000
# 6 0.000000 0.000000 0.000000 0.000000 0.000000 0.026885
#
#
# Mechanical properties :
#
#
# Convention : Reuss Voigt Hill
#
# Bulk Modulus (GPa) = 43.69624 50.93705 47.31665
# Shear Modulus (GPa) = 26.00746 28.58668 27.29707
#
# Velocity S-wave (km/s) = 3.57236 3.74531 3.65986
# Velocity P-wave (km/s) = 6.20139 6.61042 6.40917
#
# Compressibility (1/GPa) = 0.02288527
#
# Stress axis : x y z
#
# Youngs Moduli (GPa) = 90.89947 90.89947 41.18564
#
# Poissons Ratio (x) = 0.22192 0.19064
# Poissons Ratio (y) = 0.22192 0.19064
# Poissons Ratio (z) = 0.42074 0.42074
#
# Static dielectric constant tensor:
#      x y z
#    x 4.031500 0.000000 0.000000 
#    y 0.000000 4.031500 0.000000 
#    z 0.000000 0.000000 3.620950 
# 
# 
# High freq. dielectric constant tensor:
#      x y z
#    x 1.799890 0.000000 0.000000 
#    y 0.000000 1.799890 0.000000 
#    z 0.000000 0.000000 1.796410 
# 
# From -- ./inp_files/4150.got.cif
#   From: 2010.03.12/outbox.cif.g09.slc.cpg/sg192_3_cif.got.tgz:4150.got - 2010.04.01 12:16:15.
