data_PCOD8329162
_publ_section_title
;
Structure prediction by ZEFSAII (Michael W. Deem and Ramdas Pophale) SiO2 
 PCOD8329162
Probable space group: P 6/M M M
;
_chemical_formula_sum "Si O2"
_cell_formula_units_Z 88
_cell_length_a 23.885468
_cell_length_b 23.885468
_cell_length_c 9.433616
_cell_angle_alpha 90.000000
_cell_angle_beta 90.000000
_cell_angle_gamma 120.000000
_cell_volume 4660.970303
_symmetry_space_group_name_H-M "P 6/M M M"
_symmetry_group_IT_number 191
_symmetry_cell_setting 'hexagonal'
loop_
_space_group_symop_operation_xyz
x,y,z
x-y,x,z
-y,x-y,z
-x,-y,z
-x+y,-x,z
y,-x+y,z
x-y,-y,-z
-x,-x+y,-z
y,x,-z
-y,-x,-z
-x+y,y,-z
x,x-y,-z
-x,-y,-z
-x+y,-x,-z
y,-x+y,-z
x,y,-z
x-y,x,-z
-y,x-y,-z
-x+y,y,z
x,x-y,z
-y,-x,z
y,x,z
x-y,-y,z
-x,-x+y,z
loop_
_atom_site_type_symbol
_atom_site_label
_atom_site_fract_x
_atom_site_fract_y
_atom_site_fract_z
Si Si1 0.628736 0.501035 0.160368
Si Si2 0.543808 0.271904 0.844234
Si Si3 0.666667 0.333334 0.334276
Si Si4 0.074659 0.695768 0.656311
Si Si5 0.726968 0.926248 0.835890
O O1 0.567030 0.432971 0.208193
O O2 0.695090 0.499607 0.170820
O O3 0.639453 0.557632 0.266128
O O4 0.617960 0.517419 0.000000
O O5 0.594118 0.297059 0.718518
O O6 0.578018 0.289009 0.000000
O O7 0.666667 0.333334 0.500000
O O8 0.108104 0.711245 0.500000
O O9 0.100698 0.760739 0.749036
O O10 0.000000 0.668989 0.635030
O O11 0.754525 0.877263 0.806271
O O12 0.781300 0.000000 0.793606
O O13 0.708281 0.924065 0.000000
#
# Coordination Sequence:
#
# PCOD8329162 Si02
#       5
#    24  12   4  24  24
#     4  10  21  36  57  79  99 133 178 221 265 318
#     4  10  20  38  56  72 100 135 171 212 263 319
#     4  12  22  32  52  78 103 131 166 216 268 314
#     4  10  22  38  54  76 109 143 173 214 268 318
#     4   9  18  34  57  83 111 145 185 225 264 313
#
# _framework density 18.880189000000001
#
# number of rings (size 3 to 8) (size 9 to 14) (size 15 to 20)
#    0.000    2.182    1.364    1.227    1.909    4.364 
#    0.000    2.727    0.000    0.273    0.000    1.909 
#    0.000    0.000    0.000    6.818    0.000    7.091 
#
# Total GULP energy -1090744.907044 kJ/mol
# GULP energy per Si atom -12394.828489 kJ/mol
# Density = 1.883722 g / cm^3
# Si number density = 18.880189 Si / 1000 Ang^3
#
#
#
# Elastic Constant Matrix: (Units=GPa)
#
#
# Indices 1 2 3 4 5 6 
#
# 1 79.1197 36.8595 38.6209 0.0000 0.0000 0.0000
# 2 36.8595 79.1198 38.6209 0.0000 0.0000 0.0000
# 3 38.6209 38.6209 111.0775 -0.0001 -0.0001 0.0000
# 4 0.0000 0.0000 -0.0001 13.9322 0.0000 0.0000
# 5 0.0000 0.0000 -0.0001 0.0000 13.9324 0.0000
# 6 0.0000 0.0000 0.0000 0.0000 0.0000 21.1301
#
#
#
# Elastic Compliance Matrix: (Units=1/GPa)
#
#
# Indices 1 2 3 4 5 6 
#
# 1 0.017442 -0.006221 -0.003901 0.000000 0.000000 0.000000
# 2 -0.006221 0.017442 -0.003901 0.000000 0.000000 0.000000
# 3 -0.003901 -0.003901 0.011716 0.000000 0.000000 0.000000
# 4 0.000000 0.000000 0.000000 0.071776 0.000000 0.000000
# 5 0.000000 0.000000 0.000000 0.000000 0.071775 0.000000
# 6 0.000000 0.000000 0.000000 0.000000 0.000000 0.047326
#
#
# Mechanical properties :
#
#
# Convention : Reuss Voigt Hill
#
# Bulk Modulus (GPa) = 53.90418 55.27996 54.59207
# Shear Modulus (GPa) = 18.40217 20.14667 19.27442
#
# Velocity S-wave (km/s) = 3.12538 3.27016 3.19859
# Velocity P-wave (km/s) = 6.45264 6.60315 6.52833
#
# Compressibility (1/GPa) = 0.01855144
#
# Stress axis : x y z
#
# Youngs Moduli (GPa) = 57.33389 57.33397 85.35610
#
# Poissons Ratio (x) = 0.35669 0.33300
# Poissons Ratio (y) = 0.35669 0.33300
# Poissons Ratio (z) = 0.22368 0.22368
#
# Static dielectric constant tensor:
#      x y z
#    x 3.340140 0.000000 0.000000 
#    y 0.000000 3.340140 0.000000 
#    z 0.000000 0.000000 3.770320 
# 
# 
# High freq. dielectric constant tensor:
#      x y z
#    x 1.720040 0.000000 0.000000 
#    y 0.000000 1.720040 0.000000 
#    z 0.000000 0.000000 1.734350 
# 
# From -- ./inp_files/1284.got.cif
#   From: 2010.03.12/outbox.cif.g09.slc.cpg/sg191_1_cif.got.tgz:1284.got - 2010.04.01 12:09:02.
