data_PCOD8329992
_publ_section_title
;
Structure prediction by ZEFSAII (Michael W. Deem and Ramdas Pophale) SiO2 
 PCOD8329992
Probable space group: P 63/M C M
;
_chemical_formula_sum "Si O2"
_cell_formula_units_Z 144
_cell_length_a 29.917873
_cell_length_b 29.917873
_cell_length_c 9.208053
_cell_angle_alpha 90.000000
_cell_angle_beta 90.000000
_cell_angle_gamma 120.000000
_cell_volume 7137.725970
_symmetry_space_group_name_H-M "P 63/M C M"
_symmetry_group_IT_number 193
_symmetry_cell_setting 'hexagonal'
loop_
_space_group_symop_operation_xyz
x,y,z
x-y,x,1/2+z
-y,x-y,z
-x,-y,1/2+z
-x+y,-x,z
y,-x+y,1/2+z
x-y,-y,1/2-z
-x,-x+y,1/2-z
y,x,1/2-z
-y,-x,-z
-x+y,y,-z
x,x-y,-z
-x,-y,-z
-x+y,-x,1/2-z
y,-x+y,-z
x,y,1/2-z
x-y,x,-z
-y,x-y,1/2-z
-x+y,y,1/2+z
x,x-y,1/2+z
-y,-x,1/2+z
y,x,z
x-y,-y,z
-x,-x+y,z
loop_
_atom_site_type_symbol
_atom_site_label
_atom_site_fract_x
_atom_site_fract_y
_atom_site_fract_z
Si Si1 0.688688 0.940282 0.092007
Si Si2 0.787960 0.940275 0.422204
Si Si3 0.494751 0.076934 0.914542
Si Si4 0.642274 0.442502 0.586684
Si Si5 0.330272 0.921341 0.087990
Si Si6 0.199364 0.473074 0.409999
O O1 0.664433 0.914553 0.250000
O O2 0.727991 0.921591 0.034015
O O3 0.724806 0.000000 0.119580
O O4 0.644479 0.931666 0.979772
O O5 0.804220 0.902110 0.500000
O O6 0.791556 0.935245 0.250000
O O7 0.826713 0.000000 0.470706
O O8 0.484420 0.055111 0.750000
O O9 0.526285 0.138120 0.911838
O O10 0.527953 0.055906 0.000000
O O11 0.439018 0.056413 0.992836
O O12 0.610514 0.389487 0.500000
O O13 0.652020 0.430620 0.750000
O O14 0.695611 0.474674 0.502477
O O15 0.344285 0.945724 0.250000
O O16 0.305274 0.860976 0.100937
O O17 0.219988 0.439976 0.500000
O O18 0.223876 0.485718 0.250000
#
# Coordination Sequence:
#
# PCOD8329992 Si02
#       6
#    24  24  24  24  24  24
#     4   9  19  36  55  75 104 143 183 222 267 320
#     4   9  19  36  58  86 119 154 194 239 285 335
#     4   9  16  27  45  68  94 124 161 207 258 312
#     4   9  16  27  44  64  85 112 147 187 231 281
#     4  10  20  32  48  72 100 131 171 218 267 322
#     4  10  20  32  45  65  94 125 157 196 244 297
#
# _framework density 20.174492000000001
#
# number of rings (size 3 to 8) (size 9 to 14) (size 15 to 20)
#    0.000    2.667    0.000    3.000    0.000    8.000 
#    0.000    5.000    0.000    1.000    0.000    2.333 
#    0.000    0.000    0.000    0.000    0.000    0.000 
#
# Total GULP energy -1784185.134225 kJ/mol
# GULP energy per Si atom -12390.174543 kJ/mol
# Density = 2.012857 g / cm^3
# Si number density = 20.174492 Si / 1000 Ang^3
#
#
#
# Elastic Constant Matrix: (Units=GPa)
#
#
# Indices 1 2 3 4 5 6 
#
# 1 -233.2061 346.7877 50.5499 0.0000 0.0000 0.0000
# 2 346.7877 -233.2061 50.5499 0.0000 0.0000 0.0000
# 3 50.5499 50.5499 161.7683 0.0000 0.0000 0.0000
# 4 0.0000 0.0000 0.0000 -52.6403 0.0000 0.0000
# 5 0.0000 0.0000 0.0000 0.0000 -52.6403 0.0000
# 6 0.0000 0.0000 0.0000 0.0000 0.0000 -289.9969
#
#
#
# Elastic Compliance Matrix: (Units=1/GPa)
#
#
# Indices 1 2 3 4 5 6 
#
# 1 0.005236 0.006960 -0.003811 0.000000 0.000000 0.000000
# 2 0.006960 0.005236 -0.003811 0.000000 0.000000 0.000000
# 3 -0.003811 -0.003811 0.008564 0.000000 0.000000 0.000000
# 4 0.000000 0.000000 0.000000 -0.018997 0.000000 0.000000
# 5 0.000000 0.000000 0.000000 0.000000 -0.018997 0.000000
# 6 0.000000 0.000000 0.000000 0.000000 0.000000 -0.003448
#
#
# Mechanical properties :
#
#
# Convention : Reuss Voigt Hill
#
# Bulk Modulus (GPa) = 56.45921 65.68123 61.07022
# Shear Modulus (GPa) = -329.43006 -129.22428 -229.32717
#
# Velocity S-wave (km/s) = -12.79238 -8.01201 -10.67327
# Velocity P-wave (km/s) = 13.78938 7.27754 11.02519
#
# Compressibility (1/GPa) = 0.01771190
#
# Stress axis : x y z
#
# Youngs Moduli (GPa) = 190.97619 190.97619 116.77346
#
# Poissons Ratio (x) = -1.32927 0.44505
# Poissons Ratio (y) = -1.32927 0.44505
# Poissons Ratio (z) = 0.72786 0.72786
#
# Static dielectric constant tensor:
#      x y z
#    x 3.659800 0.000000 0.000000 
#    y 0.000000 3.659800 0.000000 
#    z 0.000000 0.000000 3.958580 
# 
# 
# High freq. dielectric constant tensor:
#      x y z
#    x 1.771260 0.000000 0.000000 
#    y 0.000000 1.771260 0.000000 
#    z 0.000000 0.000000 1.800320 
# 
# From -- ./inp_files/1584.got.cif
#   From: 2010.03.12/outbox.cif.g09.slc.cpg/sg193_1_cif.got.tgz:1584.got - 2010.04.01 12:20:39.
