data_PCOD8329922
_publ_section_title
;
Structure prediction by ZEFSAII (Michael W. Deem and Ramdas Pophale) SiO2 
 PCOD8329922
Probable space group: P 63/M C M
;
_chemical_formula_sum "Si O2"
_cell_formula_units_Z 144
_cell_length_a 21.996365
_cell_length_b 21.996365
_cell_length_c 19.215255
_cell_angle_alpha 90.000000
_cell_angle_beta 90.000000
_cell_angle_gamma 120.000000
_cell_volume 8051.533776
_symmetry_space_group_name_H-M "P 63/M C M"
_symmetry_group_IT_number 193
_symmetry_cell_setting 'hexagonal'
loop_
_space_group_symop_operation_xyz
x,y,z
x-y,x,1/2+z
-y,x-y,z
-x,-y,1/2+z
-x+y,-x,z
y,-x+y,1/2+z
x-y,-y,1/2-z
-x,-x+y,1/2-z
y,x,1/2-z
-y,-x,-z
-x+y,y,-z
x,x-y,-z
-x,-y,-z
-x+y,-x,1/2-z
y,-x+y,-z
x,y,1/2-z
x-y,x,-z
-y,x-y,1/2-z
-x+y,y,1/2+z
x,x-y,1/2+z
-y,-x,1/2+z
y,x,z
x-y,-y,z
-x,-x+y,z
loop_
_atom_site_type_symbol
_atom_site_label
_atom_site_fract_x
_atom_site_fract_y
_atom_site_fract_z
Si Si1 0.918350 0.649628 0.327190
Si Si2 0.919258 0.580738 0.534128
Si Si3 0.519405 0.917680 0.673971
Si Si4 0.791434 0.459378 0.031643
Si Si5 0.356033 0.515866 0.326848
Si Si6 0.081238 0.791282 0.468918
O O1 0.901289 0.668611 0.250000
O O2 0.883370 0.567140 0.336452
O O3 0.895358 0.683978 0.388991
O O4 0.000000 0.677703 0.335968
O O5 0.895390 0.556217 0.614169
O O6 0.872804 0.514805 0.484260
O O7 0.907508 0.645333 0.517032
O O8 0.000000 0.602398 0.521570
O O9 0.529748 0.891030 0.750000
O O10 0.438172 0.888592 0.658209
O O11 0.553195 0.000000 0.675167
O O12 0.779386 0.452389 0.114931
O O13 0.744869 0.489738 0.000000
O O14 0.767221 0.383611 0.000000
O O15 0.342009 0.535964 0.250000
O O16 0.130776 0.869225 0.500000
O O17 0.000000 0.772498 0.471910
#
# Coordination Sequence:
#
# PCOD8329922 Si02
#       6
#    24  24  24  24  24  24
#     4   9  17  29  48  77 109 139 172 214 264 312
#     4  10  20  33  54  81 104 131 168 216 271 322
#     4   9  17  30  49  76 110 140 169 214 269 323
#     4  12  24  39  54  72 100 139 180 223 264 314
#     4  10  19  32  50  75 102 134 178 221 268 314
#     4  10  20  35  56  81 112 144 176 216 263 318
#
# _framework density 17.884791
#
# number of rings (size 3 to 8) (size 9 to 14) (size 15 to 20)
#    0.000    2.000    3.333    1.167    0.000    3.000 
#    0.000    2.500    0.000    1.667    0.000    0.000 
#    0.000    0.000    0.000    0.000    0.000    0.333 
#
# Total GULP energy -1784810.121563 kJ/mol
# GULP energy per Si atom -12394.514733 kJ/mol
# Density = 1.784408 g / cm^3
# Si number density = 17.884791 Si / 1000 Ang^3
#
#
#
# Elastic Constant Matrix: (Units=GPa)
#
#
# Indices 1 2 3 4 5 6 
#
# 1 59.1329 27.1314 47.7090 0.0000 0.0000 0.0000
# 2 27.1314 59.1329 47.7090 0.0000 0.0000 0.0000
# 3 47.7090 47.7090 176.2273 0.0000 0.0000 0.0000
# 4 0.0000 0.0000 0.0000 21.7335 0.0000 0.0000
# 5 0.0000 0.0000 0.0000 0.0000 21.7335 0.0000
# 6 0.0000 0.0000 0.0000 0.0000 0.0000 16.0008
#
#
#
# Elastic Compliance Matrix: (Units=1/GPa)
#
#
# Indices 1 2 3 4 5 6 
#
# 1 0.023898 -0.007351 -0.004480 0.000000 0.000000 0.000000
# 2 -0.007351 0.023898 -0.004480 0.000000 0.000000 0.000000
# 3 -0.004480 -0.004480 0.008100 0.000000 0.000000 0.000000
# 4 0.000000 0.000000 0.000000 0.046012 0.000000 0.000000
# 5 0.000000 0.000000 0.000000 0.000000 0.046012 0.000000
# 6 0.000000 0.000000 0.000000 0.000000 0.000000 0.062497
#
#
# Mechanical properties :
#
#
# Convention : Reuss Voigt Hill
#
# Bulk Modulus (GPa) = 42.96315 59.95468 51.45892
# Shear Modulus (GPa) = 19.93655 23.35647 21.64651
#
# Velocity S-wave (km/s) = 3.34237 3.61770 3.48276
# Velocity P-wave (km/s) = 6.24256 7.14464 6.70878
#
# Compressibility (1/GPa) = 0.02327576
#
# Stress axis : x y z
#
# Youngs Moduli (GPa) = 41.84454 41.84454 123.45578
#
# Poissons Ratio (x) = 0.30758 0.55306
# Poissons Ratio (y) = 0.30758 0.55306
# Poissons Ratio (z) = 0.18745 0.18745
#
# Static dielectric constant tensor:
#      x y z
#    x 2.987000 0.000000 0.000000 
#    y 0.000000 2.987000 0.000000 
#    z 0.000000 0.000000 4.067060 
# 
# 
# High freq. dielectric constant tensor:
#      x y z
#    x 1.658840 0.000000 0.000000 
#    y 0.000000 1.658840 0.000000 
#    z 0.000000 0.000000 1.720080 
# 
# From -- ./inp_files/6608.got.cif
#   From: 2010.03.12/outbox.cif.g09.slc.cpg/sg193_4_cif.got.tgz:6608.got - 2010.04.01 12:20:39.
