data_PCOD8329845
_publ_section_title
;
Structure prediction by ZEFSAII (Michael W. Deem and Ramdas Pophale) SiO2 
 PCOD8329845
Probable space group: P 63/M C M
;
_chemical_formula_sum "Si O2"
_cell_formula_units_Z 132
_cell_length_a 25.306296
_cell_length_b 25.306296
_cell_length_c 14.730936
_cell_angle_alpha 90.000000
_cell_angle_beta 90.000000
_cell_angle_gamma 120.000000
_cell_volume 8169.926350
_symmetry_space_group_name_H-M "P 63/M C M"
_symmetry_group_IT_number 193
_symmetry_cell_setting 'hexagonal'
loop_
_space_group_symop_operation_xyz
x,y,z
x-y,x,1/2+z
-y,x-y,z
-x,-y,1/2+z
-x+y,-x,z
y,-x+y,1/2+z
x-y,-y,1/2-z
-x,-x+y,1/2-z
y,x,1/2-z
-y,-x,-z
-x+y,y,-z
x,x-y,-z
-x,-y,-z
-x+y,-x,1/2-z
y,-x+y,-z
x,y,1/2-z
x-y,x,-z
-y,x-y,1/2-z
-x+y,y,1/2+z
x,x-y,1/2+z
-y,-x,1/2+z
y,x,z
x-y,-y,z
-x,-x+y,z
loop_
_atom_site_type_symbol
_atom_site_label
_atom_site_fract_x
_atom_site_fract_y
_atom_site_fract_z
Si Si1 0.577775 0.929505 0.648148
Si Si2 0.467378 0.932728 0.106631
Si Si3 0.579680 0.929880 0.147906
Si Si4 0.151760 0.421921 0.503035
Si Si5 0.735329 0.399885 0.250000
Si Si6 0.437651 0.771410 0.453295
O O1 0.596775 0.924717 0.750000
O O2 0.504184 0.902166 0.642726
O O3 0.596313 0.888472 0.588147
O O4 0.613313 0.000000 0.613752
O O5 0.505388 0.899532 0.137219
O O6 0.503061 0.000000 0.150856
O O7 0.468255 0.936510 0.000000
O O8 0.596791 0.924295 0.250000
O O9 0.604870 0.894103 0.088218
O O10 0.612504 0.000000 0.114678
O O11 0.197017 0.394033 0.500000
O O12 0.189739 0.493868 0.513905
O O13 0.668419 0.394515 0.250000
O O14 0.769625 0.434026 0.157079
O O15 0.401062 0.802124 0.500000
O O16 0.409320 0.704660 0.500000
#
# Coordination Sequence:
#
# PCOD8329845 Si02
#       6
#    24  24  24  24  12  24
#     4  10  20  37  58  75  91 117 153 192 234 278
#     4   9  15  27  50  74  95 113 143 190 233 275
#     4  10  20  35  54  73  92 119 151 186 230 278
#     4  11  25  36  48  71 100 122 142 185 233 286
#     4  10  18  34  60  62  73 116 162 208 224 260
#     4  11  21  37  49  67  87 115 158 190 233 281
#
# _framework density 16.156817
#
# number of rings (size 3 to 8) (size 9 to 14) (size 15 to 20)
#    0.182    1.636    3.636    1.273    3.818    2.909 
#    6.545    0.000    0.000    0.000    0.000    0.000 
#    0.000    0.000    0.000    0.000    0.000    0.000 
#
# Total GULP energy -1635929.920845 kJ/mol
# GULP energy per Si atom -12393.408491 kJ/mol
# Density = 1.612004 g / cm^3
# Si number density = 16.156817 Si / 1000 Ang^3
#
#
#
# Elastic Constant Matrix: (Units=GPa)
#
#
# Indices 1 2 3 4 5 6 
#
# 1 59.5853 17.9516 30.1989 0.0000 0.0000 0.0000
# 2 17.9516 59.5853 30.1989 0.0000 0.0000 0.0000
# 3 30.1989 30.1989 117.5417 0.0000 0.0000 0.0000
# 4 0.0000 0.0000 0.0000 13.6574 0.0000 0.0000
# 5 0.0000 0.0000 0.0000 0.0000 13.6574 0.0000
# 6 0.0000 0.0000 0.0000 0.0000 0.0000 20.8168
#
#
#
# Elastic Compliance Matrix: (Units=1/GPa)
#
#
# Indices 1 2 3 4 5 6 
#
# 1 0.020072 -0.003948 -0.004143 0.000000 0.000000 0.000000
# 2 -0.003948 0.020072 -0.004143 0.000000 0.000000 0.000000
# 3 -0.004143 -0.004143 0.010636 0.000000 0.000000 0.000000
# 4 0.000000 0.000000 0.000000 0.073221 0.000000 0.000000
# 5 0.000000 0.000000 0.000000 0.000000 0.073221 0.000000
# 6 0.000000 0.000000 0.000000 0.000000 0.000000 0.048038
#
#
# Mechanical properties :
#
#
# Convention : Reuss Voigt Hill
#
# Bulk Modulus (GPa) = 38.00278 43.71236 40.85757
# Shear Modulus (GPa) = 17.95362 20.18382 19.06872
#
# Velocity S-wave (km/s) = 3.33710 3.53830 3.43917
# Velocity P-wave (km/s) = 6.19843 6.61865 6.41199
#
# Compressibility (1/GPa) = 0.02631387
#
# Stress axis : x y z
#
# Youngs Moduli (GPa) = 49.82187 49.82187 94.01805
#
# Poissons Ratio (x) = 0.19667 0.38948
# Poissons Ratio (y) = 0.19667 0.38948
# Poissons Ratio (z) = 0.20639 0.20639
#
# Static dielectric constant tensor:
#      x y z
#    x 2.985190 0.000000 0.000000 
#    y 0.000000 2.985190 0.000000 
#    z 0.000000 0.000000 3.138750 
# 
# 
# High freq. dielectric constant tensor:
#      x y z
#    x 1.576340 0.000000 0.000000 
#    y 0.000000 1.576340 0.000000 
#    z 0.000000 0.000000 1.642630 
# 
# From -- ./inp_files/4256.got.cif
#   From: 2010.03.12/outbox.cif.g09.slc.cpg/sg193_3_cif.got.tgz:4256.got - 2010.04.01 12:20:39.
