data_PCOD8329343
_publ_section_title
;
Structure prediction by ZEFSAII (Michael W. Deem and Ramdas Pophale) SiO2 
 PCOD8329343
Probable space group: P 6/M M M
;
_chemical_formula_sum "Si O2"
_cell_formula_units_Z 120
_cell_length_a 18.319090
_cell_length_b 18.319090
_cell_length_c 24.953869
_cell_angle_alpha 90.000000
_cell_angle_beta 90.000000
_cell_angle_gamma 120.000000
_cell_volume 7252.309256
_symmetry_space_group_name_H-M "P 6/M M M"
_symmetry_group_IT_number 191
_symmetry_cell_setting 'hexagonal'
loop_
_space_group_symop_operation_xyz
x,y,z
x-y,x,z
-y,x-y,z
-x,-y,z
-x+y,-x,z
y,-x+y,z
x-y,-y,-z
-x,-x+y,-z
y,x,-z
-y,-x,-z
-x+y,y,-z
x,x-y,-z
-x,-y,-z
-x+y,-x,-z
y,-x+y,-z
x,y,-z
x-y,x,-z
-y,x-y,-z
-x+y,y,z
x,x-y,z
-y,-x,z
y,x,z
x-y,-y,z
-x,-x+y,z
loop_
_atom_site_type_symbol
_atom_site_label
_atom_site_fract_x
_atom_site_fract_y
_atom_site_fract_z
Si Si1 0.501158 0.834614 0.438743
Si Si2 0.650415 0.743249 0.638531
Si Si3 0.645411 0.904441 0.938768
Si Si4 0.741297 0.095913 0.239248
Si Si5 0.468712 0.098986 0.150300
O O1 0.528592 0.862189 0.500000
O O2 0.421376 0.842751 0.422786
O O3 0.477020 0.738510 0.429429
O O4 0.576775 0.896769 0.400589
O O5 0.680144 0.840072 0.624761
O O6 0.730703 0.730703 0.630083
O O7 0.616437 0.719851 0.699192
O O8 0.682046 0.841023 0.929427
O O9 0.562458 0.873597 0.902432
O O10 0.718144 0.000000 0.923696
O O11 0.616315 0.900356 0.000000
O O12 0.841093 0.158908 0.228255
O O13 0.687837 0.125828 0.203495
O O14 0.717726 0.000000 0.224907
O O15 0.570843 0.141686 0.150226
O O16 0.429614 0.000000 0.149880
#
# Coordination Sequence:
#
# PCOD8329343 Si02
#       5
#    24  24  24  24  24
#     4   9  17  29  45  65  90 119 148 177 212 258
#     4   9  18  31  46  65  89 117 148 183 223 263
#     4   9  17  29  46  68  93 121 153 188 225 266
#     4   9  17  30  48  68  90 117 149 183 219 261
#     4   9  17  28  43  64  87 111 142 180 219 258
#
# _framework density 16.546454000000001
#
# number of rings (size 3 to 8) (size 9 to 14) (size 15 to 20)
#    0.000    3.000    0.000    0.800    0.000    2.800 
#    0.000    5.000    0.000    3.800    0.000    4.200 
#    0.000    4.800    0.000    5.400    0.000    5.200 
#
# Total GULP energy -1487305.145883 kJ/mol
# GULP energy per Si atom -12394.209549 kJ/mol
# Density = 1.650879 g / cm^3
# Si number density = 16.546454 Si / 1000 Ang^3
#
#
#
# Elastic Constant Matrix: (Units=GPa)
#
#
# Indices 1 2 3 4 5 6 
#
# 1 96.7799 61.7787 50.4610 0.0000 0.0000 0.0000
# 2 61.7787 96.7799 50.4610 0.0000 0.0000 0.0000
# 3 50.4610 50.4610 85.7998 0.0000 0.0000 0.0000
# 4 0.0000 0.0000 0.0000 22.6027 0.0000 0.0000
# 5 0.0000 0.0000 0.0000 0.0000 22.6027 0.0000
# 6 0.0000 0.0000 0.0000 0.0000 0.0000 17.5006
#
#
#
# Elastic Compliance Matrix: (Units=1/GPa)
#
#
# Indices 1 2 3 4 5 6 
#
# 1 0.019325 -0.009245 -0.005928 0.000000 0.000000 0.000000
# 2 -0.009245 0.019325 -0.005928 0.000000 0.000000 0.000000
# 3 -0.005928 -0.005928 0.018628 0.000000 0.000000 0.000000
# 4 0.000000 0.000000 0.000000 0.044242 0.000000 0.000000
# 5 0.000000 0.000000 0.000000 0.000000 0.044242 0.000000
# 6 0.000000 0.000000 0.000000 0.000000 0.000000 0.057141
#
#
# Mechanical properties :
#
#
# Convention : Reuss Voigt Hill
#
# Bulk Modulus (GPa) = 66.33460 67.19566 66.76513
# Shear Modulus (GPa) = 19.98930 20.31848 20.15389
#
# Velocity S-wave (km/s) = 3.47950 3.50804 3.49380
# Velocity P-wave (km/s) = 7.50463 7.55691 7.53082
#
# Compressibility (1/GPa) = 0.01507509
#
# Stress axis : x y z
#
# Youngs Moduli (GPa) = 51.74550 51.74550 53.68151
#
# Poissons Ratio (x) = 0.47839 0.31825
# Poissons Ratio (y) = 0.47839 0.31825
# Poissons Ratio (z) = 0.30677 0.30677
#
# Static dielectric constant tensor:
#      x y z
#    x 3.125900 0.000000 0.000000 
#    y 0.000000 3.125900 0.000000 
#    z 0.000000 0.000000 3.294990 
# 
# 
# High freq. dielectric constant tensor:
#      x y z
#    x 1.618080 0.000000 0.000000 
#    y 0.000000 1.618080 0.000000 
#    z 0.000000 0.000000 1.650960 
# 
# From -- ./inp_files/10260.got.cif
#   From: 2010.03.12/outbox.cif.g09.slc.cpg/sg191_6_cif.got.tgz:10260.got - 2010.04.01 12:09:02.
