data_PCOD8329635
_publ_section_title
;
Structure prediction by ZEFSAII (Michael W. Deem and Ramdas Pophale) SiO2 
 PCOD8329635
Probable space group: P 6/M C C
;
_chemical_formula_sum "Si O2"
_cell_formula_units_Z 168
_cell_length_a 17.943878
_cell_length_b 17.943878
_cell_length_c 34.675334
_cell_angle_alpha 90.000000
_cell_angle_beta 90.000000
_cell_angle_gamma 120.000000
_cell_volume 9669.052099
_symmetry_space_group_name_H-M "P 6/M C C"
_symmetry_group_IT_number 192
_symmetry_cell_setting 'hexagonal'
loop_
_space_group_symop_operation_xyz
x,y,z
x-y,x,z
-y,x-y,z
-x,-y,z
-x+y,-x,z
y,-x+y,z
x-y,-y,1/2-z
-x,-x+y,1/2-z
y,x,1/2-z
-y,-x,1/2-z
-x+y,y,1/2-z
x,x-y,1/2-z
-x,-y,-z
-x+y,-x,-z
y,-x+y,-z
x,y,-z
x-y,x,-z
-y,x-y,-z
-x+y,y,1/2+z
x,x-y,1/2+z
-y,-x,1/2+z
y,x,1/2+z
x-y,-y,1/2+z
-x,-x+y,1/2+z
loop_
_atom_site_type_symbol
_atom_site_label
_atom_site_fract_x
_atom_site_fract_y
_atom_site_fract_z
Si Si1 0.668563 0.500660 0.172170
Si Si2 0.668623 0.509836 0.587344
Si Si3 0.533918 0.899721 0.750000
Si Si4 1.000000 0.339465 0.954331
Si Si5 0.841213 0.331377 0.087344
Si Si6 0.830536 1.000000 0.954100
Si Si7 0.832097 0.331436 0.672170
O O1 0.691059 0.560536 0.210492
O O2 0.680956 0.548322 0.131094
O O3 0.569807 0.430193 0.175261
O O4 0.728991 0.457982 0.172044
O O5 0.659925 0.575252 0.559371
O O6 0.584317 0.415683 0.584630
O O7 0.750933 0.501866 0.574803
O O8 0.680956 0.548322 0.631094
O O9 0.430341 0.860681 0.750000
O O10 0.560536 0.869477 0.710492
O O11 0.582153 0.000000 0.750000
O O12 1.000000 0.254465 0.938876
O O13 0.915328 0.340075 0.940629
O O14 1.000000 0.340543 0.000000
O O15 0.915089 0.084911 0.938273
O O16 0.831741 1.000000 0.000000
#
# Coordination Sequence:
#
# PCOD8329635 Si02
#       7
#    24  24  24  24  24  24  24
#     4   9  17  29  46  67  91 121 158 201 245 290
#     4  10  21  36  54  74  99 132 173 217 260 305
#     4   9  17  26  40  64  94 123 152 186 229 283
#     4  11  23  37  53  74 101 133 169 211 261 318
#     4  10  21  36  54  74  99 132 173 217 260 305
#     4   9  17  31  53  79 104 127 153 190 240 300
#     4   9  17  29  46  67  91 121 158 201 245 290
#
# _framework density 17.375022000000001
#
# number of rings (size 3 to 8) (size 9 to 14) (size 15 to 20)
#    0.000    2.429    0.000    2.429    2.000    5.714 
#    0.000    1.429    0.000    1.714    0.000    0.000 
#    0.000    0.000    0.000    0.000    0.000    0.000 
#
# Total GULP energy -2081298.338890 kJ/mol
# GULP energy per Si atom -12388.680589 kJ/mol
# Density = 1.733548 g / cm^3
# Si number density = 17.375022 Si / 1000 Ang^3
#
#
#
# Elastic Constant Matrix: (Units=GPa)
#
#
# Indices 1 2 3 4 5 6 
#
# 1 93.0645 42.6976 40.6912 0.0000 0.0000 0.0000
# 2 42.6976 93.0645 40.6912 0.0000 0.0000 0.0000
# 3 40.6912 40.6912 94.5621 0.0000 0.0000 0.0000
# 4 0.0000 0.0000 0.0000 5.0511 0.0000 0.0000
# 5 0.0000 0.0000 0.0000 0.0000 5.0511 0.0000
# 6 0.0000 0.0000 0.0000 0.0000 0.0000 25.1835
#
#
#
# Elastic Compliance Matrix: (Units=1/GPa)
#
#
# Indices 1 2 3 4 5 6 
#
# 1 0.014890 -0.004964 -0.004271 0.000000 0.000000 0.000000
# 2 -0.004964 0.014890 -0.004271 0.000000 0.000000 0.000000
# 3 -0.004271 -0.004271 0.014251 0.000000 0.000000 0.000000
# 4 0.000000 0.000000 0.000000 0.197978 0.000000 0.000000
# 5 0.000000 0.000000 0.000000 0.000000 0.197978 0.000000
# 6 0.000000 0.000000 0.000000 0.000000 0.000000 0.039709
#
#
# Mechanical properties :
#
#
# Convention : Reuss Voigt Hill
#
# Bulk Modulus (GPa) = 58.76089 58.76125 58.76107
# Shear Modulus (GPa) = 9.75831 17.49786 13.62809
#
# Velocity S-wave (km/s) = 2.37244 3.17688 2.80366
# Velocity P-wave (km/s) = 6.43407 6.88110 6.66134
#
# Compressibility (1/GPa) = 0.01701812
#
# Stress axis : x y z
#
# Youngs Moduli (GPa) = 67.15778 67.15778 70.16983
#
# Poissons Ratio (x) = 0.33337 0.29972
# Poissons Ratio (y) = 0.33337 0.29972
# Poissons Ratio (z) = 0.28686 0.28686
#
# Static dielectric constant tensor:
#      x y z
#    x 3.134090 0.000000 0.000000 
#    y 0.000000 3.134090 0.000000 
#    z 0.000000 0.000000 3.539720 
# 
# 
# High freq. dielectric constant tensor:
#      x y z
#    x 1.651990 0.000000 0.000000 
#    y 0.000000 1.651990 0.000000 
#    z 0.000000 0.000000 1.674440 
# 
# From -- ./inp_files/7194.got.cif
#   From: 2010.03.12/outbox.cif.g09.slc.cpg/sg192_4_cif.got.tgz:7194.got - 2010.04.01 12:16:15.
