data_PCOD8329898
_publ_section_title
;
Structure prediction by ZEFSAII (Michael W. Deem and Ramdas Pophale) SiO2 
 PCOD8329898
Probable space group: P 63/M C M
;
_chemical_formula_sum "Si O2"
_cell_formula_units_Z 144
_cell_length_a 23.181964
_cell_length_b 23.181964
_cell_length_c 18.690784
_cell_angle_alpha 90.000000
_cell_angle_beta 90.000000
_cell_angle_gamma 120.000000
_cell_volume 8698.785150
_symmetry_space_group_name_H-M "P 63/M C M"
_symmetry_group_IT_number 193
_symmetry_cell_setting 'hexagonal'
loop_
_space_group_symop_operation_xyz
x,y,z
x-y,x,1/2+z
-y,x-y,z
-x,-y,1/2+z
-x+y,-x,z
y,-x+y,1/2+z
x-y,-y,1/2-z
-x,-x+y,1/2-z
y,x,1/2-z
-y,-x,-z
-x+y,y,-z
x,x-y,-z
-x,-y,-z
-x+y,-x,1/2-z
y,-x+y,-z
x,y,1/2-z
x-y,x,-z
-y,x-y,1/2-z
-x+y,y,1/2+z
x,x-y,1/2+z
-y,-x,1/2+z
y,x,z
x-y,-y,z
-x,-x+y,z
loop_
_atom_site_type_symbol
_atom_site_label
_atom_site_fract_x
_atom_site_fract_y
_atom_site_fract_z
Si Si1 0.395367 0.924176 0.332229
Si Si2 0.926598 0.731698 0.834252
Si Si3 0.273474 0.865252 0.574924
Si Si4 0.792258 0.074490 0.167761
Si Si5 0.140751 0.736773 0.910763
Si Si6 0.501352 0.075896 0.931146
O O1 0.381754 0.901197 0.250000
O O2 0.333913 0.873241 0.381352
O O3 0.458694 0.919981 0.359618
O O4 0.410386 0.000000 0.340899
O O5 0.928550 0.725260 0.750000
O O6 0.868868 0.747673 0.857867
O O7 0.907940 0.660827 0.865913
O O8 0.000000 0.788367 0.861849
O O9 0.260607 0.915455 0.622159
O O10 0.219200 0.790124 0.598885
O O11 0.265529 0.879448 0.492820
O O12 0.347334 0.877095 0.584900
O O13 0.783631 0.089526 0.250000
O O14 0.777700 0.000000 0.157119
O O15 0.442472 0.000000 0.945772
O O16 0.550472 0.100943 0.000000
#
# Coordination Sequence:
#
# PCOD8329898 Si02
#       6
#    24  24  24  24  24  24
#     4  10  20  33  51  75 100 127 161 201 244 290
#     4   9  17  29  46  68  95 127 161 198 242 289
#     4  10  20  32  49  72  98 127 160 194 239 292
#     4   9  18  31  46  66  95 130 164 199 241 290
#     4  10  19  31  48  73  99 124 156 197 240 288
#     4  10  19  32  50  72  99 130 160 195 242 293
#
# _framework density 16.554036
#
# number of rings (size 3 to 8) (size 9 to 14) (size 15 to 20)
#    0.000    2.333    1.667    1.500    0.000    4.667 
#    0.000    1.667    0.000    1.000    4.333    2.333 
#    0.000    0.000    0.000    8.333    0.000    8.667 
#
# Total GULP energy -1785190.565640 kJ/mol
# GULP energy per Si atom -12397.156706 kJ/mol
# Density = 1.651636 g / cm^3
# Si number density = 16.554036 Si / 1000 Ang^3
#
#
#
# Elastic Constant Matrix: (Units=GPa)
#
#
# Indices 1 2 3 4 5 6 
#
# 1 97.7136 57.3538 28.1434 0.0000 0.0000 0.0000
# 2 57.3538 97.7136 28.1434 0.0000 0.0000 0.0000
# 3 28.1434 28.1434 42.7287 0.0000 0.0000 0.0000
# 4 0.0000 0.0000 0.0000 23.1323 0.0000 0.0000
# 5 0.0000 0.0000 0.0000 0.0000 23.1323 0.0000
# 6 0.0000 0.0000 0.0000 0.0000 0.0000 20.1799
#
#
#
# Elastic Compliance Matrix: (Units=1/GPa)
#
#
# Indices 1 2 3 4 5 6 
#
# 1 0.016626 -0.008151 -0.005582 0.000000 0.000000 0.000000
# 2 -0.008151 0.016626 -0.005582 0.000000 0.000000 0.000000
# 3 -0.005582 -0.005582 0.030757 0.000000 0.000000 0.000000
# 4 0.000000 0.000000 0.000000 0.043230 0.000000 0.000000
# 5 0.000000 0.000000 0.000000 0.000000 0.043230 0.000000
# 6 0.000000 0.000000 0.000000 0.000000 0.000000 0.049554
#
#
# Mechanical properties :
#
#
# Convention : Reuss Voigt Hill
#
# Bulk Modulus (GPa) = 39.40349 51.71522 45.55936
# Shear Modulus (GPa) = 20.23371 21.58992 20.91181
#
# Velocity S-wave (km/s) = 3.49991 3.61530 3.55807
# Velocity P-wave (km/s) = 6.33933 6.98107 6.66792
#
# Compressibility (1/GPa) = 0.02537846
#
# Stress axis : x y z
#
# Youngs Moduli (GPa) = 60.14646 60.14646 32.51313
#
# Poissons Ratio (x) = 0.49026 0.18149
# Poissons Ratio (y) = 0.49026 0.18149
# Poissons Ratio (z) = 0.33574 0.33574
#
# Static dielectric constant tensor:
#      x y z
#    x 3.117000 0.000000 0.000000 
#    y 0.000000 3.117000 0.000000 
#    z 0.000000 0.000000 3.185680 
# 
# 
# High freq. dielectric constant tensor:
#      x y z
#    x 1.623740 0.000000 0.000000 
#    y 0.000000 1.623740 0.000000 
#    z 0.000000 0.000000 1.645540 
# 
# From -- ./inp_files/6579.got.cif
#   From: 2010.03.12/outbox.cif.g09.slc.cpg/sg193_4_cif.got.tgz:6579.got - 2010.04.01 12:20:39.
