data_PCOD8329400
_publ_section_title
;
Structure prediction by ZEFSAII (Michael W. Deem and Ramdas Pophale) SiO2 
 PCOD8329400
Probable space group: P 6/M C C
;
_chemical_formula_sum "Si O2"
_cell_formula_units_Z 132
_cell_length_a 17.107163
_cell_length_b 17.107163
_cell_length_c 29.277703
_cell_angle_alpha 90.000000
_cell_angle_beta 90.000000
_cell_angle_gamma 120.000000
_cell_volume 7420.336828
_symmetry_space_group_name_H-M "P 6/M C C"
_symmetry_group_IT_number 192
_symmetry_cell_setting 'hexagonal'
loop_
_space_group_symop_operation_xyz
x,y,z
x-y,x,z
-y,x-y,z
-x,-y,z
-x+y,-x,z
y,-x+y,z
x-y,-y,1/2-z
-x,-x+y,1/2-z
y,x,1/2-z
-y,-x,1/2-z
-x+y,y,1/2-z
x,x-y,1/2-z
-x,-y,-z
-x+y,-x,-z
y,-x+y,-z
x,y,-z
x-y,x,-z
-y,x-y,-z
-x+y,y,1/2+z
x,x-y,1/2+z
-y,-x,1/2+z
y,x,1/2+z
x-y,-y,1/2+z
-x,-x+y,1/2+z
loop_
_atom_site_type_symbol
_atom_site_label
_atom_site_fract_x
_atom_site_fract_y
_atom_site_fract_z
Si Si1 0.793339 0.585822 0.083844
Si Si2 0.450423 0.733888 0.500000
Si Si3 0.509771 0.668779 0.748348
Si Si4 0.899279 0.541546 0.155727
Si Si5 0.901434 0.793439 0.445941
Si Si6 0.365112 0.471346 0.848437
O O1 0.861579 0.581361 0.118832
O O2 0.835749 0.688829 0.068083
O O3 0.699982 0.553379 0.109061
O O4 0.773547 0.516098 0.043102
O O5 0.376770 0.768658 0.500000
O O6 0.435179 0.564822 0.750000
O O7 0.466800 0.733400 0.750000
O O8 0.571641 0.685255 0.793223
O O9 0.562737 0.687114 0.700293
O O10 0.851550 0.431974 0.152933
O O11 0.001442 0.580221 0.142880
O O12 0.846569 0.841814 0.426970
O O13 0.903529 0.798418 0.500000
#
# Coordination Sequence:
#
# PCOD8329400 Si02
#       6
#    24  12  24  24  24  24
#     4  12  20  38  58  81 112 146 195 229 268 343
#     4  10  24  40  54  78 114 158 192 232 276 308
#     4  10  18  33  51  78 109 141 182 227 274 333
#     4  10  21  35  54  80 111 146 182 229 281 327
#     4  10  21  38  61  85 110 139 180 237 293 340
#     4  10  21  35  54  80 111 146 182 229 281 327
#
# _framework density 17.788951000000001
#
# number of rings (size 3 to 8) (size 9 to 14) (size 15 to 20)
#    0.182    1.455    2.727    3.091    0.000    2.909 
#    1.091    0.000    0.000    4.364    0.000    0.000 
#    0.000    0.000    0.000    7.818    0.000    0.000 
#
# Total GULP energy -1635821.255444 kJ/mol
# GULP energy per Si atom -12392.585269 kJ/mol
# Density = 1.774846 g / cm^3
# Si number density = 17.788951 Si / 1000 Ang^3
#
#
#
# Elastic Constant Matrix: (Units=GPa)
#
#
# Indices 1 2 3 4 5 6 
#
# 1 57.2529 12.3249 5.4416 0.0000 0.0000 0.0000
# 2 12.3249 57.2529 5.4416 0.0000 0.0000 0.0000
# 3 5.4416 5.4416 70.6356 0.0000 0.0000 0.0000
# 4 0.0000 0.0000 0.0000 22.1194 0.0000 0.0000
# 5 0.0000 0.0000 0.0000 0.0000 22.1194 0.0000
# 6 0.0000 0.0000 0.0000 0.0000 0.0000 22.4640
#
#
#
# Elastic Compliance Matrix: (Units=1/GPa)
#
#
# Indices 1 2 3 4 5 6 
#
# 1 0.018403 -0.003855 -0.001121 0.000000 0.000000 0.000000
# 2 -0.003855 0.018403 -0.001121 0.000000 0.000000 0.000000
# 3 -0.001121 -0.001121 0.014330 0.000000 0.000000 0.000000
# 4 0.000000 0.000000 0.000000 0.045209 0.000000 0.000000
# 5 0.000000 0.000000 0.000000 0.000000 0.045209 0.000000
# 6 0.000000 0.000000 0.000000 0.000000 0.000000 0.044516
#
#
# Mechanical properties :
#
#
# Convention : Reuss Voigt Hill
#
# Bulk Modulus (GPa) = 25.67898 25.72863 25.70381
# Shear Modulus (GPa) = 23.66942 24.13613 23.90277
#
# Velocity S-wave (km/s) = 3.65165 3.68748 3.66961
# Velocity P-wave (km/s) = 5.67857 5.71180 5.69521
#
# Compressibility (1/GPa) = 0.03894235
#
# Stress axis : x y z
#
# Youngs Moduli (GPa) = 54.33966 54.33966 69.78441
#
# Poissons Ratio (x) = 0.20948 0.07821
# Poissons Ratio (y) = 0.20948 0.07821
# Poissons Ratio (z) = 0.06090 0.06090
#
# Static dielectric constant tensor:
#      x y z
#    x 3.346910 0.000000 0.000000 
#    y 0.000000 3.346910 0.000000 
#    z 0.000000 0.000000 3.445690 
# 
# 
# High freq. dielectric constant tensor:
#      x y z
#    x 1.680990 0.000000 0.000000 
#    y 0.000000 1.680990 0.000000 
#    z 0.000000 0.000000 1.694300 
# 
# From -- ./inp_files/5817.got.cif
#   From: 2010.03.12/outbox.cif.g09.slc.cpg/sg192_3_cif.got.tgz:5817.got - 2010.04.01 12:16:15.
