data_PCOD8329080
_publ_section_title
;
Structure prediction by ZEFSAII (Michael W. Deem and Ramdas Pophale) SiO2 
 PCOD8329080
Probable space group: P 6/M M M
;
_chemical_formula_sum "Si O2"
_cell_formula_units_Z 132
_cell_length_a 25.504112
_cell_length_b 25.504112
_cell_length_c 13.910010
_cell_angle_alpha 90.000000
_cell_angle_beta 90.000000
_cell_angle_gamma 120.000000
_cell_volume 7835.712406
_symmetry_space_group_name_H-M "P 6/M M M"
_symmetry_group_IT_number 191
_symmetry_cell_setting 'hexagonal'
loop_
_space_group_symop_operation_xyz
x,y,z
x-y,x,z
-y,x-y,z
-x,-y,z
-x+y,-x,z
y,-x+y,z
x-y,-y,-z
-x,-x+y,-z
y,x,-z
-y,-x,-z
-x+y,y,-z
x,x-y,-z
-x,-y,-z
-x+y,-x,-z
y,-x+y,-z
x,y,-z
x-y,x,-z
-y,x-y,-z
-x+y,y,z
x,x-y,z
-y,-x,z
y,x,z
x-y,-y,z
-x,-x+y,z
loop_
_atom_site_type_symbol
_atom_site_label
_atom_site_fract_x
_atom_site_fract_y
_atom_site_fract_z
Si Si1 0.290624 0.000000 0.393169
Si Si2 0.638463 0.108881 0.259836
Si Si3 0.652088 0.886968 0.263153
Si Si4 0.334359 0.549027 0.394419
Si Si5 0.585563 0.585563 0.606862
Si Si6 0.535953 0.071906 0.111290
Si Si7 0.067089 0.249181 0.111067
O O1 0.304424 0.062219 0.340474
O O2 0.352497 0.000000 0.400729
O O3 0.265556 0.000000 0.500000
O O4 0.702598 0.112267 0.245067
O O5 0.649870 0.170306 0.306083
O O6 0.602184 0.098138 0.160154
O O7 0.595093 0.057890 0.334847
O O8 0.640449 0.820225 0.294864
O O9 0.686519 0.906603 0.162359
O O10 0.338427 0.522945 0.500000
O O11 0.267073 0.534146 0.376826
O O12 0.379136 0.620864 0.392636
O O13 0.560606 0.560606 0.500000
O O14 0.500000 0.000000 0.120324
O O15 0.546196 0.092391 0.000000
O O16 0.110418 0.220835 0.131507
O O17 0.000000 0.200859 0.147974
O O18 0.066298 0.263905 0.000000
#
# Coordination Sequence:
#
# PCOD8329080 Si02
#       7
#    12  24  24  24  12  12  24
#     4   9  18  32  48  72 109 148 180 213 259 312
#     4  11  20  36  53  76 103 139 175 214 267 323
#     4  10  20  33  52  78 107 139 181 223 266 320
#     4  10  20  34  54  80 105 129 162 205 256 314
#     4   9  18  31  50  75 104 132 164 209 257 321
#     4  11  24  40  56  78 106 140 184 228 274 326
#     4   9  17  30  50  76 104 134 170 215 265 314
#
# _framework density 16.845948
#
# number of rings (size 3 to 8) (size 9 to 14) (size 15 to 20)
#    0.000    2.091    2.727    1.273    0.000    2.545 
#    0.000    2.273    0.000    1.818    0.000    1.273 
#    0.000    0.000    0.000    0.000    0.000    8.273 
#
# Total GULP energy -1636012.010179 kJ/mol
# GULP energy per Si atom -12394.030380 kJ/mol
# Density = 1.680761 g / cm^3
# Si number density = 16.845948 Si / 1000 Ang^3
#
#
#
# Elastic Constant Matrix: (Units=GPa)
#
#
# Indices 1 2 3 4 5 6 
#
# 1 94.9845 47.8562 50.4270 0.0000 0.0000 0.0000
# 2 47.8562 94.9845 50.4270 0.0000 0.0000 0.0000
# 3 50.4270 50.4270 108.3040 0.0000 0.0000 0.0000
# 4 0.0000 0.0000 0.0000 24.5904 0.0000 0.0000
# 5 0.0000 0.0000 0.0000 0.0000 24.5904 0.0000
# 6 0.0000 0.0000 0.0000 0.0000 0.0000 23.5641
#
#
#
# Elastic Compliance Matrix: (Units=1/GPa)
#
#
# Indices 1 2 3 4 5 6 
#
# 1 0.015824 -0.005395 -0.004856 0.000000 0.000000 0.000000
# 2 -0.005395 0.015824 -0.004856 0.000000 0.000000 0.000000
# 3 -0.004856 -0.004856 0.013755 0.000000 0.000000 0.000000
# 4 0.000000 0.000000 0.000000 0.040666 0.000000 0.000000
# 5 0.000000 0.000000 0.000000 0.000000 0.040666 0.000000
# 6 0.000000 0.000000 0.000000 0.000000 0.000000 0.042437
#
#
# Mechanical properties :
#
#
# Convention : Reuss Voigt Hill
#
# Bulk Modulus (GPa) = 65.83243 66.18815 66.01029
# Shear Modulus (GPa) = 24.45586 24.51984 24.48785
#
# Velocity S-wave (km/s) = 3.81430 3.81928 3.81679
# Velocity P-wave (km/s) = 7.65261 7.66973 7.66117
#
# Compressibility (1/GPa) = 0.01519008
#
# Stress axis : x y z
#
# Youngs Moduli (GPa) = 63.19495 63.19495 72.69960
#
# Poissons Ratio (x) = 0.34091 0.35303
# Poissons Ratio (y) = 0.34091 0.35303
# Poissons Ratio (z) = 0.30687 0.30687
#
# Static dielectric constant tensor:
#      x y z
#    x 3.240000 0.000000 0.000000 
#    y 0.000000 3.240000 0.000000 
#    z 0.000000 0.000000 3.252000 
# 
# 
# High freq. dielectric constant tensor:
#      x y z
#    x 1.646160 0.000000 0.000000 
#    y 0.000000 1.646160 0.000000 
#    z 0.000000 0.000000 1.645300 
# 
# From -- ./inp_files/3411.got.cif
#   From: 2010.03.12/outbox.cif.g09.slc.cpg/sg191_2_cif.got.tgz:3411.got - 2010.04.01 12:09:02.
