data_PCOD8329563
_publ_section_title
;
Structure prediction by ZEFSAII (Michael W. Deem and Ramdas Pophale) SiO2 
 PCOD8329563
Probable space group: P 6/M C C
;
_chemical_formula_sum "Si O2"
_cell_formula_units_Z 144
_cell_length_a 31.781788
_cell_length_b 31.781788
_cell_length_c 8.833632
_cell_angle_alpha 90.000000
_cell_angle_beta 90.000000
_cell_angle_gamma 120.000000
_cell_volume 7727.278900
_symmetry_space_group_name_H-M "P 6/M C C"
_symmetry_group_IT_number 192
_symmetry_cell_setting 'hexagonal'
loop_
_space_group_symop_operation_xyz
x,y,z
x-y,x,z
-y,x-y,z
-x,-y,z
-x+y,-x,z
y,-x+y,z
x-y,-y,1/2-z
-x,-x+y,1/2-z
y,x,1/2-z
-y,-x,1/2-z
-x+y,y,1/2-z
x,x-y,1/2-z
-x,-y,-z
-x+y,-x,-z
y,-x+y,-z
x,y,-z
x-y,x,-z
-y,x-y,-z
-x+y,y,1/2+z
x,x-y,1/2+z
-y,-x,1/2+z
y,x,1/2+z
x-y,-y,1/2+z
-x,-x+y,1/2+z
loop_
_atom_site_type_symbol
_atom_site_label
_atom_site_fract_x
_atom_site_fract_y
_atom_site_fract_z
Si Si1 0.332894 0.478617 0.674678
Si Si2 0.194832 0.299096 0.675935
Si Si3 0.667181 0.423956 0.677823
Si Si4 0.479321 0.048509 0.322830
Si Si5 0.050380 0.191728 0.823593
Si Si6 0.607154 0.757866 0.677659
O O1 0.317178 0.465844 0.500000
O O2 0.343153 0.532366 0.713270
O O3 0.379451 0.474139 0.713910
O O4 0.291735 0.440520 0.783227
O O5 0.148504 0.297007 0.750000
O O6 0.197036 0.311170 0.500000
O O7 0.188217 0.245815 0.703028
O O8 0.241436 0.344205 0.756803
O O9 0.624978 0.375023 0.750000
O O10 0.718607 0.437213 0.750000
O O11 0.668822 0.415739 0.500000
O O12 0.529170 0.058339 0.250000
O O13 0.480773 0.040242 0.500000
O O14 0.434392 0.000000 0.250000
O O15 0.092993 0.185985 0.750000
O O16 0.000000 0.152670 0.750000
O O17 0.049545 0.180680 0.000000
O O18 0.601991 0.800996 0.750000
O O19 0.612177 0.764702 0.500000
#
# Coordination Sequence:
#
# PCOD8329563 Si02
#       6
#    24  24  24  24  24  24
#     4  10  22  38  56  80 109 141 179 222 267 320
#     4   9  17  31  51  74 102 136 174 215 258 307
#     4  11  23  39  58  80 108 143 183 228 277 328
#     4  10  20  36  58  81 105 133 168 212 262 317
#     4  10  20  34  55  82 112 147 187 232 279 328
#     4  11  21  33  53  78 107 142 178 218 265 318
#
# _framework density 18.635280999999999
#
# number of rings (size 3 to 8) (size 9 to 14) (size 15 to 20)
#    0.000    1.833    0.000    6.167    0.000    6.000 
#    0.000    0.833    0.000    0.167    0.000    1.167 
#    0.000    0.000    0.000    0.000    0.000    0.000 
#
# Total GULP energy -1785257.400441 kJ/mol
# GULP energy per Si atom -12397.620836 kJ/mol
# Density = 1.859287 g / cm^3
# Si number density = 18.635281 Si / 1000 Ang^3
#
#
#
# Elastic Constant Matrix: (Units=GPa)
#
#
# Indices 1 2 3 4 5 6 
#
# 1 105.9168 53.6609 62.5136 0.0000 0.0000 0.0000
# 2 53.6609 105.9168 62.5136 0.0000 0.0000 0.0000
# 3 62.5136 62.5136 142.2155 0.0000 0.0000 0.0000
# 4 0.0000 0.0000 0.0000 27.7011 0.0000 0.0000
# 5 0.0000 0.0000 0.0000 0.0000 27.7011 0.0000
# 6 0.0000 0.0000 0.0000 0.0000 0.0000 26.1279
#
#
#
# Elastic Compliance Matrix: (Units=1/GPa)
#
#
# Indices 1 2 3 4 5 6 
#
# 1 0.014348 -0.004789 -0.004202 0.000000 0.000000 0.000000
# 2 -0.004789 0.014348 -0.004202 0.000000 0.000000 0.000000
# 3 -0.004202 -0.004202 0.010725 0.000000 0.000000 0.000000
# 4 0.000000 0.000000 0.000000 0.036100 0.000000 0.000000
# 5 0.000000 0.000000 0.000000 0.000000 0.036100 0.000000
# 6 0.000000 0.000000 0.000000 0.000000 0.000000 0.038273
#
#
# Mechanical properties :
#
#
# Convention : Reuss Voigt Hill
#
# Bulk Modulus (GPa) = 76.71148 79.04725 77.87936
# Shear Modulus (GPa) = 27.68201 27.99677 27.83939
#
# Velocity S-wave (km/s) = 3.85835 3.88022 3.86930
# Velocity P-wave (km/s) = 7.81685 7.91107 7.86410
#
# Compressibility (1/GPa) = 0.01303586
#
# Stress axis : x y z
#
# Youngs Moduli (GPa) = 69.69841 69.69841 93.23690
#
# Poissons Ratio (x) = 0.33379 0.39174
# Poissons Ratio (y) = 0.33379 0.39174
# Poissons Ratio (z) = 0.29284 0.29284
#
# Static dielectric constant tensor:
#      x y z
#    x 3.719110 0.000000 0.000000 
#    y 0.000000 3.719110 0.000000 
#    z 0.000000 0.000000 3.632940 
# 
# 
# High freq. dielectric constant tensor:
#      x y z
#    x 1.716660 0.000000 0.000000 
#    y 0.000000 1.716660 0.000000 
#    z 0.000000 0.000000 1.741130 
# 
# From -- ./inp_files/1207.got.cif
#   From: 2010.03.12/outbox.cif.g09.slc.cpg/sg192_1_cif.got.tgz:1207.got - 2010.04.01 12:16:15.
