data_PCOD8329547
_publ_section_title
;
Structure prediction by ZEFSAII (Michael W. Deem and Ramdas Pophale) SiO2 
 PCOD8329547
Probable space group: P 6/M C C
;
_chemical_formula_sum "Si O2"
_cell_formula_units_Z 144
_cell_length_a 32.360229
_cell_length_b 32.360229
_cell_length_c 8.744581
_cell_angle_alpha 90.000000
_cell_angle_beta 90.000000
_cell_angle_gamma 120.000000
_cell_volume 7930.358293
_symmetry_space_group_name_H-M "P 6/M C C"
_symmetry_group_IT_number 192
_symmetry_cell_setting 'hexagonal'
loop_
_space_group_symop_operation_xyz
x,y,z
x-y,x,z
-y,x-y,z
-x,-y,z
-x+y,-x,z
y,-x+y,z
x-y,-y,1/2-z
-x,-x+y,1/2-z
y,x,1/2-z
-y,-x,1/2-z
-x+y,y,1/2-z
x,x-y,1/2-z
-x,-y,-z
-x+y,-x,-z
y,-x+y,-z
x,y,-z
x-y,x,-z
-y,x-y,-z
-x+y,y,1/2+z
x,x-y,1/2+z
-y,-x,1/2+z
y,x,1/2+z
x-y,-y,1/2+z
-x,-x+y,1/2+z
loop_
_atom_site_type_symbol
_atom_site_label
_atom_site_fract_x
_atom_site_fract_y
_atom_site_fract_z
Si Si1 0.049905 0.432120 0.818410
Si Si2 0.189727 0.050338 0.679185
Si Si3 0.050531 0.765598 0.320097
Si Si4 0.896248 0.280396 0.181578
Si Si5 0.613618 0.472806 0.677901
Si Si6 0.471542 0.192840 0.319080
O O1 0.063912 0.395175 0.747323
O O2 0.088543 0.485849 0.768652
O O3 0.000000 0.422298 0.750000
O O4 0.047398 0.425841 0.000000
O O5 0.181227 0.090614 0.750000
O O6 0.181059 0.047983 0.500000
O O7 0.243071 0.061846 0.718556
O O8 0.151219 0.000000 0.750000
O O9 0.049666 0.756482 0.500000
O O10 0.091662 0.759440 0.239497
O O11 0.000000 0.727030 0.250000
O O12 0.844096 0.265374 0.243906
O O13 0.896243 0.282260 0.000000
O O14 0.577758 0.422243 0.750000
O O15 0.606457 0.465697 0.500000
O O16 0.667578 0.488328 0.724908
O O17 0.489772 0.244886 0.250000
O O18 0.464249 0.191832 0.500000
#
# Coordination Sequence:
#
# PCOD8329547 Si02
#       6
#    24  24  24  24  24  24
#     4  10  20  34  50  73 105 142 183 224 262 306
#     4  10  21  37  58  81 107 138 174 214 261 312
#     4  10  20  34  51  74 106 144 184 226 265 308
#     4  11  21  33  51  75 105 144 183 222 264 307
#     4   9  20  36  55  78 105 134 169 211 258 312
#     4  10  21  38  57  80 106 135 171 213 260 313
#
# _framework density 18.158069000000001
#
# number of rings (size 3 to 8) (size 9 to 14) (size 15 to 20)
#    0.000    2.000    0.000    5.000    0.000    7.000 
#    0.000    3.333    0.000    0.500    0.000    1.167 
#    0.000    0.000    0.000    0.000    0.000    0.000 
#
# Total GULP energy -1786090.756430 kJ/mol
# GULP energy per Si atom -12403.408031 kJ/mol
# Density = 1.811674 g / cm^3
# Si number density = 18.158069 Si / 1000 Ang^3
#
#
#
# Elastic Constant Matrix: (Units=GPa)
#
#
# Indices 1 2 3 4 5 6 
#
# 1 115.6124 79.9827 56.2384 0.0000 0.0000 0.0000
# 2 79.9827 115.6124 56.2384 0.0000 0.0000 0.0000
# 3 56.2384 56.2384 108.8557 0.0000 0.0000 0.0000
# 4 0.0000 0.0000 0.0000 32.1443 0.0000 0.0000
# 5 0.0000 0.0000 0.0000 0.0000 32.1443 0.0000
# 6 0.0000 0.0000 0.0000 0.0000 0.0000 17.8148
#
#
#
# Elastic Compliance Matrix: (Units=1/GPa)
#
#
# Indices 1 2 3 4 5 6 
#
# 1 0.017670 -0.010397 -0.003758 0.000000 0.000000 0.000000
# 2 -0.010397 0.017670 -0.003758 0.000000 0.000000 0.000000
# 3 -0.003758 -0.003758 0.013069 0.000000 0.000000 0.000000
# 4 0.000000 0.000000 0.000000 0.031110 0.000000 0.000000
# 5 0.000000 0.000000 0.000000 0.000000 0.031110 0.000000
# 6 0.000000 0.000000 0.000000 0.000000 0.000000 0.056133
#
#
# Mechanical properties :
#
#
# Convention : Reuss Voigt Hill
#
# Bulk Modulus (GPa) = 79.45790 80.55551 80.00671
# Shear Modulus (GPa) = 24.18021 26.26206 25.22114
#
# Velocity S-wave (km/s) = 3.65314 3.80715 3.73094
# Velocity P-wave (km/s) = 7.85162 7.98659 7.91939
#
# Compressibility (1/GPa) = 0.01258528
#
# Stress axis : x y z
#
# Youngs Moduli (GPa) = 56.59314 56.59314 76.51579
#
# Poissons Ratio (x) = 0.58837 0.28752
# Poissons Ratio (y) = 0.58837 0.28752
# Poissons Ratio (z) = 0.21266 0.21266
#
# Static dielectric constant tensor:
#      x y z
#    x 3.289200 0.000000 0.000000 
#    y 0.000000 3.289200 0.000000 
#    z 0.000000 0.000000 3.421450 
# 
# 
# High freq. dielectric constant tensor:
#      x y z
#    x 1.694030 0.000000 0.000000 
#    y 0.000000 1.694030 0.000000 
#    z 0.000000 0.000000 1.719250 
# 
# From -- ./inp_files/1189.got.cif
#   From: 2010.03.12/outbox.cif.g09.slc.cpg/sg192_1_cif.got.tgz:1189.got - 2010.04.01 12:16:15.
