data_PCOD8329756
_publ_section_title
;
Structure prediction by ZEFSAII (Michael W. Deem and Ramdas Pophale) SiO2 
 PCOD8329756
Probable space group: P 63/M C M
;
_chemical_formula_sum "Si O2"
_cell_formula_units_Z 120
_cell_length_a 20.457253
_cell_length_b 20.457253
_cell_length_c 17.165859
_cell_angle_alpha 90.000000
_cell_angle_beta 90.000000
_cell_angle_gamma 120.000000
_cell_volume 6221.438395
_symmetry_space_group_name_H-M "P 63/M C M"
_symmetry_group_IT_number 193
_symmetry_cell_setting 'hexagonal'
loop_
_space_group_symop_operation_xyz
x,y,z
x-y,x,1/2+z
-y,x-y,z
-x,-y,1/2+z
-x+y,-x,z
y,-x+y,1/2+z
x-y,-y,1/2-z
-x,-x+y,1/2-z
y,x,1/2-z
-y,-x,-z
-x+y,y,-z
x,x-y,-z
-x,-y,-z
-x+y,-x,1/2-z
y,-x+y,-z
x,y,1/2-z
x-y,x,-z
-y,x-y,1/2-z
-x+y,y,1/2+z
x,x-y,1/2+z
-y,-x,1/2+z
y,x,z
x-y,-y,z
-x,-x+y,z
loop_
_atom_site_type_symbol
_atom_site_label
_atom_site_fract_x
_atom_site_fract_y
_atom_site_fract_z
Si Si1 0.000000 0.517710 0.589406
Si Si2 0.085267 0.914379 0.343233
Si Si3 0.853573 0.188325 0.339636
Si Si4 0.000000 0.653165 0.837747
Si Si5 0.751335 0.248975 0.343132
Si Si6 0.160289 0.580853 0.342432
O O1 0.000000 0.500000 0.500000
O O2 0.075480 0.525964 0.627685
O O3 0.000000 0.595482 0.600047
O O4 0.088176 0.915755 0.250000
O O5 0.123248 0.866709 0.377422
O O6 0.000000 0.874931 0.374298
O O7 0.130249 0.000000 0.374924
O O8 0.834756 0.167273 0.250000
O O9 0.928629 0.266721 0.351207
O O10 0.785402 0.197289 0.376090
O O11 0.000000 0.623102 0.750000
O O12 0.754593 0.251328 0.250000
O O13 0.666082 0.212427 0.373631
O O14 0.802226 0.334803 0.374193
O O15 0.158170 0.579639 0.250000
#
# Coordination Sequence:
#
# PCOD8329756 Si02
#       6
#    12  24  24  12  24  24
#     4  12  24  36  52  78 108 143 182 222 264 321
#     4   9  15  22  33  55  92 133 166 198 246 304
#     4   9  15  25  44  70  93 125 174 216 249 299
#     4  10  16  30  56  74  94 131 182 231 260 299
#     4   9  17  29  51  78  99 124 167 218 266 313
#     4  10  19  35  57  81 107 136 173 221 274 324
#
# _framework density 19.288143999999999
#
# number of rings (size 3 to 8) (size 9 to 14) (size 15 to 20)
#    0.000    2.400    3.000    1.500    0.000    2.400 
#    1.800    1.000    0.000    0.000    0.000    0.000 
#    0.000    0.000    0.000    0.000    0.000    2.000 
#
# Total GULP energy -1487159.369700 kJ/mol
# GULP energy per Si atom -12392.994747 kJ/mol
# Density = 1.924424 g / cm^3
# Si number density = 19.288144 Si / 1000 Ang^3
#
#
#
# Elastic Constant Matrix: (Units=GPa)
#
#
# Indices 1 2 3 4 5 6 
#
# 1 169.6216 71.6002 15.3742 0.0000 0.0000 0.0000
# 2 71.6002 169.6216 15.3742 0.0000 0.0000 0.0000
# 3 15.3742 15.3742 20.0748 0.0000 0.0000 0.0000
# 4 0.0000 0.0000 0.0000 4.3509 0.0000 0.0000
# 5 0.0000 0.0000 0.0000 0.0000 4.3509 0.0000
# 6 0.0000 0.0000 0.0000 0.0000 0.0000 49.0107
#
#
#
# Elastic Compliance Matrix: (Units=1/GPa)
#
#
# Indices 1 2 3 4 5 6 
#
# 1 0.007398 -0.002804 -0.003518 0.000000 0.000000 0.000000
# 2 -0.002804 0.007398 -0.003518 0.000000 0.000000 0.000000
# 3 -0.003518 -0.003518 0.055203 0.000000 0.000000 0.000000
# 4 0.000000 0.000000 0.000000 0.229838 0.000000 0.000000
# 5 0.000000 0.000000 0.000000 0.000000 0.229838 0.000000
# 6 0.000000 0.000000 0.000000 0.000000 0.000000 0.020404
#
#
# Mechanical properties :
#
#
# Convention : Reuss Voigt Hill
#
# Bulk Modulus (GPa) = 19.87384 62.66839 41.27111
# Shear Modulus (GPa) = 8.52468 28.67379 18.59923
#
# Velocity S-wave (km/s) = 2.10458 3.85983 3.10866
# Velocity P-wave (km/s) = 4.02886 7.24055 5.85906
#
# Compressibility (1/GPa) = 0.05031740
#
# Stress axis : x y z
#
# Youngs Moduli (GPa) = 135.17263 135.17263 18.11508
#
# Poissons Ratio (x) = 0.37901 0.06373
# Poissons Ratio (y) = 0.37901 0.06373
# Poissons Ratio (z) = 0.47558 0.47558
#
# Static dielectric constant tensor:
#      x y z
#    x 4.009250 0.000000 0.000000 
#    y 0.000000 4.009250 0.000000 
#    z 0.000000 0.000000 2.756850 
# 
# 
# High freq. dielectric constant tensor:
#      x y z
#    x 1.764150 0.000000 0.000000 
#    y 0.000000 1.764150 0.000000 
#    z 0.000000 0.000000 1.666810 
# 
# From -- ./inp_files/5381.got.cif
#   From: 2010.03.12/outbox.cif.g09.slc.cpg/sg193_3_cif.got.tgz:5381.got - 2010.04.01 12:20:39.
