data_PCOD8329440
_publ_section_title
;
Structure prediction by ZEFSAII (Michael W. Deem and Ramdas Pophale) SiO2 
 PCOD8329440
Probable space group: P 6/M C C
;
_chemical_formula_sum "Si O2"
_cell_formula_units_Z 126
_cell_length_a 21.369676
_cell_length_b 21.369676
_cell_length_c 17.643205
_cell_angle_alpha 90.000000
_cell_angle_beta 90.000000
_cell_angle_gamma 120.000000
_cell_volume 6977.566547
_symmetry_space_group_name_H-M "P 6/M C C"
_symmetry_group_IT_number 192
_symmetry_cell_setting 'hexagonal'
loop_
_space_group_symop_operation_xyz
x,y,z
x-y,x,z
-y,x-y,z
-x,-y,z
-x+y,-x,z
y,-x+y,z
x-y,-y,1/2-z
-x,-x+y,1/2-z
y,x,1/2-z
-y,-x,1/2-z
-x+y,y,1/2-z
x,x-y,1/2-z
-x,-y,-z
-x+y,-x,-z
y,-x+y,-z
x,y,-z
x-y,x,-z
-y,x-y,-z
-x+y,y,1/2+z
x,x-y,1/2+z
-y,-x,1/2+z
y,x,1/2+z
x-y,-y,1/2+z
-x,-x+y,1/2+z
loop_
_atom_site_type_symbol
_atom_site_label
_atom_site_fract_x
_atom_site_fract_y
_atom_site_fract_z
Si Si1 0.000000 0.500000 0.750000
Si Si2 0.350093 0.934419 0.830435
Si Si3 0.929349 0.300628 0.911164
Si Si4 0.076928 0.777718 0.771835
Si Si5 0.331368 0.803370 0.089869
Si Si6 0.191998 0.527824 0.410342
O O1 0.049740 0.477479 0.798869
O O2 0.293346 0.926176 0.765509
O O3 0.311754 0.859810 0.874916
O O4 0.361537 0.993046 0.893628
O O5 0.918047 0.231346 0.862476
O O6 0.870751 0.321598 0.881837
O O7 0.921606 0.280547 0.000000
O O8 0.144811 0.855190 0.750000
O O9 0.000000 0.772731 0.750000
O O10 0.408522 0.819441 0.121924
O O11 0.269801 0.725622 0.118603
O O12 0.331327 0.808956 0.000000
O O13 0.190605 0.529332 0.500000
#
# Coordination Sequence:
#
# PCOD8329440 Si02
#       6
#     6  24  24  24  24  24
#     4  12  20  36  50  76 104 148 188 232 288 328
#     4  11  21  34  53  73 106 141 183 228 277 332
#     4  10  19  35  55  80 105 136 183 232 270 325
#     4  10  21  39  59  83 112 149 179 222 282 340
#     4  10  19  31  49  71  96 136 174 221 276 328
#     4   9  18  30  45  68  98 127 170 219 268 318
#
# _framework density 18.057872
#
# number of rings (size 3 to 8) (size 9 to 14) (size 15 to 20)
#    0.000    1.905    2.857    3.238    0.000    1.524 
#    0.000    7.619    0.000    0.190    0.000    0.000 
#    0.000    0.000    0.000    6.857    0.000    0.000 
#
# Total GULP energy -1561607.667859 kJ/mol
# GULP energy per Si atom -12393.711650 kJ/mol
# Density = 1.801677 g / cm^3
# Si number density = 18.057872 Si / 1000 Ang^3
#
#
#
# Elastic Constant Matrix: (Units=GPa)
#
#
# Indices 1 2 3 4 5 6 
#
# 1 83.9400 45.9961 33.7109 0.0000 0.0000 0.0000
# 2 45.9961 83.9400 33.7109 0.0000 0.0000 0.0000
# 3 33.7109 33.7109 70.5730 0.0000 0.0000 0.0000
# 4 0.0000 0.0000 0.0000 18.0757 0.0000 0.0000
# 5 0.0000 0.0000 0.0000 0.0000 18.0757 0.0000
# 6 0.0000 0.0000 0.0000 0.0000 0.0000 18.9719
#
#
#
# Elastic Compliance Matrix: (Units=1/GPa)
#
#
# Indices 1 2 3 4 5 6 
#
# 1 0.018293 -0.008061 -0.004888 0.000000 0.000000 0.000000
# 2 -0.008061 0.018293 -0.004888 0.000000 0.000000 0.000000
# 3 -0.004888 -0.004888 0.018839 0.000000 0.000000 0.000000
# 4 0.000000 0.000000 0.000000 0.055323 0.000000 0.000000
# 5 0.000000 0.000000 0.000000 0.000000 0.055323 0.000000
# 6 0.000000 0.000000 0.000000 0.000000 0.000000 0.052709
#
#
# Mechanical properties :
#
#
# Convention : Reuss Voigt Hill
#
# Bulk Modulus (GPa) = 50.62543 51.69877 51.16210
# Shear Modulus (GPa) = 19.15425 19.36035 19.25730
#
# Velocity S-wave (km/s) = 3.26040 3.27789 3.26915
# Velocity P-wave (km/s) = 6.50150 6.55879 6.53021
#
# Compressibility (1/GPa) = 0.01975292
#
# Stress axis : x y z
#
# Youngs Moduli (GPa) = 54.66433 54.66433 53.08094
#
# Poissons Ratio (x) = 0.44066 0.25944
# Poissons Ratio (y) = 0.44066 0.25944
# Poissons Ratio (z) = 0.26718 0.26718
#
# Static dielectric constant tensor:
#      x y z
#    x 3.381810 0.000000 0.000000 
#    y 0.000000 3.381810 0.000000 
#    z 0.000000 0.000000 3.208780 
# 
# 
# High freq. dielectric constant tensor:
#      x y z
#    x 1.687440 0.000000 0.000000 
#    y 0.000000 1.687440 0.000000 
#    z 0.000000 0.000000 1.692490 
# 
# From -- ./inp_files/4210.got.cif
#   From: 2010.03.12/outbox.cif.g09.slc.cpg/sg192_3_cif.got.tgz:4210.got - 2010.04.01 12:16:15.
