data_PCOD8329566
_publ_section_title
;
Structure prediction by ZEFSAII (Michael W. Deem and Ramdas Pophale) SiO2 
 PCOD8329566
Probable space group: P 6/M C C
;
_chemical_formula_sum "Si O2"
_cell_formula_units_Z 144
_cell_length_a 30.988696
_cell_length_b 30.988696
_cell_length_c 8.649198
_cell_angle_alpha 90.000000
_cell_angle_beta 90.000000
_cell_angle_gamma 120.000000
_cell_volume 7193.049916
_symmetry_space_group_name_H-M "P 6/M C C"
_symmetry_group_IT_number 192
_symmetry_cell_setting 'hexagonal'
loop_
_space_group_symop_operation_xyz
x,y,z
x-y,x,z
-y,x-y,z
-x,-y,z
-x+y,-x,z
y,-x+y,z
x-y,-y,1/2-z
-x,-x+y,1/2-z
y,x,1/2-z
-y,-x,1/2-z
-x+y,y,1/2-z
x,x-y,1/2-z
-x,-y,-z
-x+y,-x,-z
y,-x+y,-z
x,y,-z
x-y,x,-z
-y,x-y,-z
-x+y,y,1/2+z
x,x-y,1/2+z
-y,-x,1/2+z
y,x,1/2+z
x-y,-y,1/2+z
-x,-x+y,1/2+z
loop_
_atom_site_type_symbol
_atom_site_label
_atom_site_fract_x
_atom_site_fract_y
_atom_site_fract_z
Si Si1 0.330960 0.482177 0.681727
Si Si2 0.245162 0.297991 0.682540
Si Si3 0.666882 0.425495 0.816631
Si Si4 0.479616 0.051563 0.319512
Si Si5 0.052617 0.198862 0.818413
Si Si6 0.612174 0.760197 0.683001
O O1 0.324642 0.486707 0.500000
O O2 0.349068 0.535114 0.761378
O O3 0.372201 0.466606 0.718882
O O4 0.278698 0.441948 0.753249
O O5 0.286162 0.286162 0.750000
O O6 0.252044 0.305811 0.500000
O O7 0.190105 0.253902 0.727648
O O8 0.255572 0.348528 0.762297
O O9 0.628481 0.371520 0.750000
O O10 0.721343 0.442685 0.750000
O O11 0.667239 0.423090 0.000000
O O12 0.533053 0.066105 0.250000
O O13 0.482529 0.044477 0.500000
O O14 0.435808 0.000000 0.250000
O O15 0.094890 0.189779 0.750000
O O16 0.000000 0.157413 0.750000
O O17 0.050772 0.191985 0.000000
O O18 0.628968 0.814484 0.750000
O O19 0.610666 0.761849 0.500000
#
# Coordination Sequence:
#
# PCOD8329566 Si02
#       6
#    24  24  24  24  24  24
#     4  11  24  42  62  88 120 157 199 244 293 350
#     4  10  21  38  60  87 118 153 194 242 293 348
#     4  12  25  43  66  93 123 156 194 240 293 351
#     4  10  21  37  61  88 118 152 191 238 288 342
#     4  10  20  34  55  82 113 148 189 236 288 342
#     4  12  25  41  61  85 117 158 199 243 293 350
#
# _framework density 20.019324000000001
#
# number of rings (size 3 to 8) (size 9 to 14) (size 15 to 20)
#    0.000    1.167    0.000    7.167    0.000    8.000 
#    0.000    1.667    0.000    0.167    0.000    1.167 
#    0.000    0.000    0.000    0.000    0.000    0.000 
#
# Total GULP energy -1786703.299538 kJ/mol
# GULP energy per Si atom -12407.661802 kJ/mol
# Density = 1.997376 g / cm^3
# Si number density = 20.019324 Si / 1000 Ang^3
#
#
#
# Elastic Constant Matrix: (Units=GPa)
#
#
# Indices 1 2 3 4 5 6 
#
# 1 91.1873 38.5612 49.3797 0.0000 0.0000 0.0000
# 2 38.5612 91.1873 49.3797 0.0000 0.0000 0.0000
# 3 49.3797 49.3797 148.4993 0.0000 0.0000 0.0000
# 4 0.0000 0.0000 0.0000 29.8302 0.0000 0.0000
# 5 0.0000 0.0000 0.0000 0.0000 29.8302 0.0000
# 6 0.0000 0.0000 0.0000 0.0000 0.0000 26.3131
#
#
#
# Elastic Compliance Matrix: (Units=1/GPa)
#
#
# Indices 1 2 3 4 5 6 
#
# 1 0.014660 -0.004341 -0.003431 0.000000 0.000000 0.000000
# 2 -0.004341 0.014660 -0.003431 0.000000 0.000000 0.000000
# 3 -0.003431 -0.003431 0.009016 0.000000 0.000000 0.000000
# 4 0.000000 0.000000 0.000000 0.033523 0.000000 0.000000
# 5 0.000000 0.000000 0.000000 0.000000 0.033523 0.000000
# 6 0.000000 0.000000 0.000000 0.000000 0.000000 0.038004
#
#
# Mechanical properties :
#
#
# Convention : Reuss Voigt Hill
#
# Bulk Modulus (GPa) = 62.77958 67.27947 65.02953
# Shear Modulus (GPa) = 29.22183 30.09824 29.66004
#
# Velocity S-wave (km/s) = 3.82472 3.88165 3.85329
# Velocity P-wave (km/s) = 7.13668 7.33279 7.23540
#
# Compressibility (1/GPa) = 0.01592875
#
# Stress axis : x y z
#
# Youngs Moduli (GPa) = 68.21058 68.21058 110.91348
#
# Poissons Ratio (x) = 0.29614 0.38058
# Poissons Ratio (y) = 0.29614 0.38058
# Poissons Ratio (z) = 0.23405 0.23405
#
# Static dielectric constant tensor:
#      x y z
#    x 3.654690 0.000000 0.000000 
#    y 0.000000 3.654690 0.000000 
#    z 0.000000 0.000000 3.783730 
# 
# 
# High freq. dielectric constant tensor:
#      x y z
#    x 1.785050 0.000000 0.000000 
#    y 0.000000 1.785050 0.000000 
#    z 0.000000 0.000000 1.800840 
# 
# From -- ./inp_files/1200.got.cif
#   From: 2010.03.12/outbox.cif.g09.slc.cpg/sg192_1_cif.got.tgz:1200.got - 2010.04.01 12:16:15.
