data_PCOD8329712
_publ_section_title
;
Structure prediction by ZEFSAII (Michael W. Deem and Ramdas Pophale) SiO2 
 PCOD8329712
Probable space group: P 6/M C C
;
_chemical_formula_sum "Si O2"
_cell_formula_units_Z 116
_cell_length_a 19.443953
_cell_length_b 19.443953
_cell_length_c 15.851371
_cell_angle_alpha 90.000000
_cell_angle_beta 90.000000
_cell_angle_gamma 120.000000
_cell_volume 5189.990796
_symmetry_space_group_name_H-M "P 6/M C C"
_symmetry_group_IT_number 192
_symmetry_cell_setting 'hexagonal'
loop_
_space_group_symop_operation_xyz
x,y,z
x-y,x,z
-y,x-y,z
-x,-y,z
-x+y,-x,z
y,-x+y,z
x-y,-y,1/2-z
-x,-x+y,1/2-z
y,x,1/2-z
-y,-x,1/2-z
-x+y,y,1/2-z
x,x-y,1/2-z
-x,-y,-z
-x+y,-x,-z
y,-x+y,-z
x,y,-z
x-y,x,-z
-y,x-y,-z
-x+y,y,1/2+z
x,x-y,1/2+z
-y,-x,1/2+z
y,x,1/2+z
x-y,-y,1/2+z
-x,-x+y,1/2+z
loop_
_atom_site_type_symbol
_atom_site_label
_atom_site_fract_x
_atom_site_fract_y
_atom_site_fract_z
Si Si1 0.993931 0.737089 0.843841
Si Si2 0.666667 0.333334 0.850619
Si Si3 0.309826 0.423580 0.903488
Si Si4 0.156309 0.587750 0.651117
Si Si5 0.584695 0.849827 0.401570
Si Si6 0.013922 0.845173 0.000000
O O1 0.050009 0.697800 0.846659
O O2 0.000000 0.773015 0.750000
O O3 0.903180 0.669174 0.857494
O O4 0.021549 0.804299 0.914963
O O5 0.666668 0.333334 0.750000
O O6 0.617208 0.372437 0.886874
O O7 0.396273 0.500854 0.889906
O O8 0.241639 0.444834 0.877482
O O9 0.299891 0.395712 0.000000
O O10 0.155668 0.577834 0.750000
O O11 0.122404 0.645591 0.628459
O O12 0.598832 0.865664 0.500000
O O13 0.933653 0.847581 0.000000
#
# Coordination Sequence:
#
# PCOD8329712 Si02
#       6
#    24   8  24  24  24  12
#     4  12  26  46  74 106 143 186 229 278 343 416
#     4   9  18  33  52  86 133 177 235 302 349 397
#     4  11  23  41  64  94 134 182 235 288 347 414
#     4  11  21  36  60  93 133 181 240 296 348 407
#     4  11  23  41  64  94 134 182 235 288 347 414
#     4  12  27  52  82 115 148 180 220 270 332 405
#
# _framework density 22.350712000000001
#
# number of rings (size 3 to 8) (size 9 to 14) (size 15 to 20)
#    0.000    0.828    4.138    3.207    0.000    5.793 
#    0.000    4.138    0.000    1.241    0.000    0.000 
#    0.000    0.000    0.000    0.000    0.000    0.000 
#
# Total GULP energy -1438983.820605 kJ/mol
# GULP energy per Si atom -12405.032936 kJ/mol
# Density = 2.229984 g / cm^3
# Si number density = 22.350712 Si / 1000 Ang^3
#
#
#
# Elastic Constant Matrix: (Units=GPa)
#
#
# Indices 1 2 3 4 5 6 
#
# 1 82.0707 -0.9104 18.9467 -0.0005 -0.0004 0.0000
# 2 -0.9104 82.0706 18.9468 -0.0001 0.0001 0.0000
# 3 18.9467 18.9468 122.4981 -0.0004 0.0001 0.0000
# 4 -0.0005 -0.0001 -0.0004 64.5817 -0.0280 -0.0002
# 5 -0.0004 0.0001 0.0001 -0.0280 64.5547 0.0002
# 6 0.0000 0.0000 0.0000 -0.0002 0.0002 41.4907
#
#
#
# Elastic Compliance Matrix: (Units=1/GPa)
#
#
# Indices 1 2 3 4 5 6 
#
# 1 0.012666 0.000615 -0.002054 0.000000 0.000000 0.000000
# 2 0.000615 0.012666 -0.002054 0.000000 0.000000 0.000000
# 3 -0.002054 -0.002054 0.008799 0.000000 0.000000 0.000000
# 4 0.000000 0.000000 0.000000 0.015484 0.000007 0.000000
# 5 0.000000 0.000000 0.000000 0.000007 0.015491 0.000000
# 6 0.000000 0.000000 0.000000 0.000000 0.000000 0.024102
#
#
# Mechanical properties :
#
#
# Convention : Reuss Voigt Hill
#
# Bulk Modulus (GPa) = 36.84163 40.06729 38.45446
# Shear Modulus (GPa) = 47.50979 50.76918 49.13949
#
# Velocity S-wave (km/s) = 4.61548 4.77117 4.69397
# Velocity P-wave (km/s) = 6.70244 6.95109 6.82790
#
# Compressibility (1/GPa) = 0.02714321
#
# Stress axis : x y z
#
# Youngs Moduli (GPa) = 78.95384 78.95373 113.65191
#
# Poissons Ratio (x) = -0.04853 0.23345
# Poissons Ratio (y) = -0.04853 0.23345
# Poissons Ratio (z) = 0.16218 0.16218
#
# Static dielectric constant tensor:
#      x y z
#    x 3.972690 0.000000 0.000000 
#    y 0.000000 3.972690 0.000000 
#    z 0.000000 0.000000 3.942270 
# 
# 
# High freq. dielectric constant tensor:
#      x y z
#    x 1.877130 0.000000 0.000000 
#    y 0.000000 1.877130 0.000000 
#    z 0.000000 0.000000 1.879560 
# 
# From -- ./inp_files/3000.got.cif
#   From: 2010.03.12/outbox.cif.g09.slc.cpg/sg192_2_cif.got.tgz:3000.got - 2010.04.01 12:16:15.
