data_PCOD8329235
_publ_section_title
;
Structure prediction by ZEFSAII (Michael W. Deem and Ramdas Pophale) SiO2 
 PCOD8329235
Probable space group: P 6/M M M
;
_chemical_formula_sum "Si O2"
_cell_formula_units_Z 138
_cell_length_a 30.824817
_cell_length_b 30.824817
_cell_length_c 8.108474
_cell_angle_alpha 90.000000
_cell_angle_beta 90.000000
_cell_angle_gamma 120.000000
_cell_volume 6672.226398
_symmetry_space_group_name_H-M "P 6/M M M"
_symmetry_group_IT_number 191
_symmetry_cell_setting 'hexagonal'
loop_
_space_group_symop_operation_xyz
x,y,z
x-y,x,z
-y,x-y,z
-x,-y,z
-x+y,-x,z
y,-x+y,z
x-y,-y,-z
-x,-x+y,-z
y,x,-z
-y,-x,-z
-x+y,y,-z
x,x-y,-z
-x,-y,-z
-x+y,-x,-z
y,-x+y,-z
x,y,-z
x-y,x,-z
-y,x-y,-z
-x+y,y,z
x,x-y,z
-y,-x,z
y,x,z
x-y,-y,z
-x,-x+y,z
loop_
_atom_site_type_symbol
_atom_site_label
_atom_site_fract_x
_atom_site_fract_y
_atom_site_fract_z
Si Si1 0.763088 0.429788 0.807951
Si Si2 0.133593 0.766102 0.693345
Si Si3 0.205026 0.943235 0.187970
Si Si4 0.145413 0.675282 0.687740
Si Si5 0.880015 0.940008 0.000000
Si Si6 0.194465 0.097233 0.313180
Si Si7 0.943103 0.421774 0.809478
O O1 0.715410 0.430820 0.727631
O O2 0.768404 0.384202 0.728647
O O3 0.813284 0.482263 0.784985
O O4 0.753725 0.419978 0.000000
O O5 0.122621 0.759792 0.500000
O O6 0.183486 0.816515 0.738660
O O7 0.087878 0.766968 0.782004
O O8 0.139402 0.720342 0.763658
O O9 0.156817 0.926577 0.301448
O O10 0.245542 0.000000 0.229572
O O11 0.186324 0.936602 0.000000
O O12 0.163368 0.687694 0.500000
O O13 0.092107 0.625014 0.696816
O O14 0.914567 0.914567 0.000000
O O15 0.847460 0.923730 0.169160
O O16 0.170837 0.085419 0.500000
O O17 0.935770 0.467885 0.757998
O O18 0.000000 0.435611 0.777483
O O19 0.928579 0.408088 0.000000
#
# Coordination Sequence:
#
# PCOD8329235 Si02
#       7
#    24  24  24  24   6  12  24
#     4  10  21  38  60  85 113 149 197 252 309 371
#     4  10  22  40  58  80 115 159 201 241 295 363
#     4  11  23  40  64  96 129 160 206 266 317 371
#     4  11  23  37  56  84 120 157 195 242 301 370
#     4  12  27  48  72 104 144 184 232 284 334 394
#     4  12  24  43  71 101 136 178 222 274 334 392
#     4   9  19  37  59  81 108 146 194 246 296 350
#
# _framework density 20.682753000000002
#
# number of rings (size 3 to 8) (size 9 to 14) (size 15 to 20)
#    0.000    1.565    1.739    3.348    0.000    9.391 
#    0.000    4.348    0.000    1.565    0.000    0.000 
#    0.000    0.000    0.000    0.000    0.000    0.000 
#
# Total GULP energy -1711485.572810 kJ/mol
# GULP energy per Si atom -12402.069368 kJ/mol
# Density = 2.063568 g / cm^3
# Si number density = 20.682753 Si / 1000 Ang^3
#
#
#
# Elastic Constant Matrix: (Units=GPa)
#
#
# Indices 1 2 3 4 5 6 
#
# 1 144.5388 78.7251 32.8194 0.0000 0.0000 0.0000
# 2 78.7251 144.5388 32.8194 0.0000 0.0000 0.0000
# 3 32.8194 32.8194 61.2224 0.0000 0.0000 0.0000
# 4 0.0000 0.0000 0.0000 2.0160 0.0000 0.0000
# 5 0.0000 0.0000 0.0000 0.0000 2.0160 0.0000
# 6 0.0000 0.0000 0.0000 0.0000 0.0000 32.9069
#
#
#
# Elastic Compliance Matrix: (Units=1/GPa)
#
#
# Indices 1 2 3 4 5 6 
#
# 1 0.010256 -0.004939 -0.002850 0.000000 0.000000 0.000000
# 2 -0.004939 0.010256 -0.002850 0.000000 0.000000 0.000000
# 3 -0.002850 -0.002850 0.019390 0.000000 0.000000 0.000000
# 4 0.000000 0.000000 0.000000 0.496042 0.000000 0.000000
# 5 0.000000 0.000000 0.000000 0.000000 0.496042 0.000000
# 6 0.000000 0.000000 0.000000 0.000000 0.000000 0.030389
#
#
# Mechanical properties :
#
#
# Convention : Reuss Voigt Hill
#
# Bulk Modulus (GPa) = 53.69802 71.00308 62.35055
# Shear Modulus (GPa) = 4.58775 21.11683 12.85229
#
# Velocity S-wave (km/s) = 1.49096 3.19876 2.49550
# Velocity P-wave (km/s) = 5.38359 6.93158 6.20604
#
# Compressibility (1/GPa) = 0.01862266
#
# Stress axis : x y z
#
# Youngs Moduli (GPa) = 97.50690 97.50690 51.57361
#
# Poissons Ratio (x) = 0.48156 0.14700
# Poissons Ratio (y) = 0.48156 0.14700
# Poissons Ratio (z) = 0.27792 0.27792
#
# Static dielectric constant tensor:
#      x y z
#    x 3.828790 0.000000 0.000000 
#    y 0.000000 3.828790 0.000000 
#    z 0.000000 0.000000 3.559590 
# 
# 
# High freq. dielectric constant tensor:
#      x y z
#    x 1.816880 0.000000 0.000000 
#    y 0.000000 1.816880 0.000000 
#    z 0.000000 0.000000 1.796210 
# 
# From -- ./inp_files/2050.got.cif
#   From: 2010.03.12/outbox.cif.g09.slc.cpg/sg191_2_cif.got.tgz:2050.got - 2010.04.01 12:09:02.
