data_PCOD8329573
_publ_section_title
;
Structure prediction by ZEFSAII (Michael W. Deem and Ramdas Pophale) SiO2 
 PCOD8329573
Probable space group: P 6/M C C
;
_chemical_formula_sum "Si O2"
_cell_formula_units_Z 144
_cell_length_a 32.422100
_cell_length_b 32.422100
_cell_length_c 8.538510
_cell_angle_alpha 90.000000
_cell_angle_beta 90.000000
_cell_angle_gamma 120.000000
_cell_volume 7773.113425
_symmetry_space_group_name_H-M "P 6/M C C"
_symmetry_group_IT_number 192
_symmetry_cell_setting 'hexagonal'
loop_
_space_group_symop_operation_xyz
x,y,z
x-y,x,z
-y,x-y,z
-x,-y,z
-x+y,-x,z
y,-x+y,z
x-y,-y,1/2-z
-x,-x+y,1/2-z
y,x,1/2-z
-y,-x,1/2-z
-x+y,y,1/2-z
x,x-y,1/2-z
-x,-y,-z
-x+y,-x,-z
y,-x+y,-z
x,y,-z
x-y,x,-z
-y,x-y,-z
-x+y,y,1/2+z
x,x-y,1/2+z
-y,-x,1/2+z
y,x,1/2+z
x-y,-y,1/2+z
-x,-x+y,1/2+z
loop_
_atom_site_type_symbol
_atom_site_label
_atom_site_fract_x
_atom_site_fract_y
_atom_site_fract_z
Si Si1 0.809076 0.706287 0.815768
Si Si2 0.381064 0.279790 0.185274
Si Si3 0.387795 0.524473 0.314892
Si Si4 0.949480 0.382499 0.814830
Si Si5 0.051105 0.191528 0.814823
Si Si6 0.193433 0.719221 0.317183
O O1 0.844641 0.689282 0.750000
O O2 0.755429 0.667386 0.773726
O O3 0.820050 0.755976 0.740542
O O4 0.816074 0.713244 0.000000
O O5 0.395866 0.333228 0.231537
O O6 0.422322 0.269097 0.244340
O O7 0.373327 0.273355 0.000000
O O8 0.423210 0.576791 0.250000
O O9 0.393207 0.520973 0.500000
O O10 0.399061 0.487077 0.230638
O O11 0.334664 0.513117 0.270571
O O12 0.000000 0.422971 0.750000
O O13 0.950546 0.376958 0.000000
O O14 0.088816 0.177632 0.750000
O O15 0.000000 0.153031 0.750000
O O16 0.051136 0.190115 0.000000
O O17 0.245099 0.754902 0.250000
O O18 0.196713 0.725715 0.500000
#
# Coordination Sequence:
#
# PCOD8329573 Si02
#       6
#    24  24  24  24  24  24
#     4  11  21  34  52  78 109 145 184 224 267 316
#     4  10  20  35  52  76 109 145 184 228 268 314
#     4  10  21  38  57  81 108 138 176 222 269 321
#     4  11  22  37  55  77 105 141 181 225 272 321
#     4  11  22  39  60  84 111 143 180 222 268 319
#     4   9  19  33  53  79 108 137 172 214 262 316
#
# _framework density 18.525395
#
# number of rings (size 3 to 8) (size 9 to 14) (size 15 to 20)
#    0.000    1.667    0.000    8.000    0.000    6.333 
#    0.000    5.000    0.000    0.500    0.000    1.167 
#    0.000    0.000    0.000    0.000    0.000    0.000 
#
# Total GULP energy -1786144.943055 kJ/mol
# GULP energy per Si atom -12403.784327 kJ/mol
# Density = 1.848323 g / cm^3
# Si number density = 18.525395 Si / 1000 Ang^3
#
#
#
# Elastic Constant Matrix: (Units=GPa)
#
#
# Indices 1 2 3 4 5 6 
#
# 1 8348.8686-8175.6657 39.6417 0.0000 0.0000 -0.2866
# 2 -8175.6657 8348.8686 39.6417 0.0000 0.0000 0.2866
# 3 39.6417 39.6417 116.4248 0.0000 0.0000 0.0000
# 4 0.0000 0.0000 0.0000 33.0109 0.0000 0.0000
# 5 0.0000 0.0000 0.0000 0.0000 33.0109 0.0000
# 6 -0.2866 0.2866 0.0000 0.0000 0.0000 8262.5974
#
#
#
# Elastic Compliance Matrix: (Units=1/GPa)
#
#
# Indices 1 2 3 4 5 6 
#
# 1 0.003450 0.003390 -0.002329 0.000000 0.000000 0.000000
# 2 0.003390 0.003450 -0.002329 0.000000 0.000000 0.000000
# 3 -0.002329 -0.002329 0.010175 0.000000 0.000000 0.000000
# 4 0.000000 0.000000 0.000000 0.030293 0.000000 0.000000
# 5 0.000000 0.000000 0.000000 0.000000 0.030293 0.000000
# 6 0.000000 0.000000 0.000000 0.000000 0.000000 0.000121
#
#
# Mechanical properties :
#
#
# Convention : Reuss Voigt Hill
#
# Bulk Modulus (GPa) = 68.78049 69.04416 68.91233
# Shear Modulus (GPa) = 58.70961 3326.42678 1692.56820
#
# Velocity S-wave (km/s) = 5.63562 42.42053 30.25940
# Velocity P-wave (km/s) = 8.91937 49.36281 35.47000
#
# Compressibility (1/GPa) = 0.01453901
#
# Stress axis : x y z
#
# Youngs Moduli (GPa) = 289.85043 289.85043 98.27881
#
# Poissons Ratio (x) = -0.98246 0.22887
# Poissons Ratio (y) = -0.98246 0.22887
# Poissons Ratio (z) = 0.67501 0.67501
#
# Static dielectric constant tensor:
#      x y z
#    x 11.066490 0.000000 0.000000 
#    y 0.000000 11.066490 0.000000 
#    z 0.000000 0.000000 3.495410 
# 
# 
# High freq. dielectric constant tensor:
#      x y z
#    x 1.710460 0.000000 0.000000 
#    y 0.000000 1.710460 0.000000 
#    z 0.000000 0.000000 1.736000 
# 
# From -- ./inp_files/1171.got.cif
#   From: 2010.03.12/outbox.cif.g09.slc.cpg/sg192_1_cif.got.tgz:1171.got - 2010.04.01 12:16:15.
