data_PCOD8329452
_publ_section_title
;
Structure prediction by ZEFSAII (Michael W. Deem and Ramdas Pophale) SiO2 
 PCOD8329452
Probable space group: P 6/M C C
;
_chemical_formula_sum "Si O2"
_cell_formula_units_Z 102
_cell_length_a 26.276025
_cell_length_b 26.276025
_cell_length_c 9.593076
_cell_angle_alpha 90.000000
_cell_angle_beta 90.000000
_cell_angle_gamma 120.000000
_cell_volume 5735.982922
_symmetry_space_group_name_H-M "P 6/M C C"
_symmetry_group_IT_number 192
_symmetry_cell_setting 'hexagonal'
loop_
_space_group_symop_operation_xyz
x,y,z
x-y,x,z
-y,x-y,z
-x,-y,z
-x+y,-x,z
y,-x+y,z
x-y,-y,1/2-z
-x,-x+y,1/2-z
y,x,1/2-z
-y,-x,1/2-z
-x+y,y,1/2-z
x,x-y,1/2-z
-x,-y,-z
-x+y,-x,-z
y,-x+y,-z
x,y,-z
x-y,x,-z
-y,x-y,-z
-x+y,y,1/2+z
x,x-y,1/2+z
-y,-x,1/2+z
y,x,1/2+z
x-y,-y,1/2+z
-x,-x+y,1/2+z
loop_
_atom_site_type_symbol
_atom_site_label
_atom_site_fract_x
_atom_site_fract_y
_atom_site_fract_z
Si Si1 0.319076 0.050983 0.653686
Si Si2 0.834488 0.569179 0.163920
Si Si3 0.513864 0.398920 0.155835
Si Si4 0.052657 0.200498 0.841645
Si Si5 0.000000 0.500000 0.750000
O O1 0.339757 0.043327 0.500000
O O2 0.364911 0.116109 0.708389
O O3 0.255188 0.042990 0.644693
O O4 0.317401 0.000000 0.750000
O O5 0.775347 0.550694 0.250000
O O6 0.862239 0.529110 0.208820
O O7 0.819584 0.564461 0.000000
O O8 0.572631 0.427370 0.250000
O O9 0.484170 0.440840 0.161780
O O10 0.533620 0.396823 0.000000
O O11 0.110376 0.220751 0.750000
O O12 0.000000 0.149353 0.750000
O O13 0.056082 0.179059 0.000000
#
# Coordination Sequence:
#
# PCOD8329452 Si02
#       5
#    24  24  24  24   6
#     4   9  19  32  49  73 104 137 175 212 250 297
#     4  10  21  36  51  77 111 145 180 219 263 324
#     4   9  19  33  53  78 107 137 177 223 272 329
#     4  10  19  32  49  70  94 125 161 201 242 290
#     4   8  18  32  54  80 110 136 174 228 290 320
#
# _framework density 17.78248
#
# number of rings (size 3 to 8) (size 9 to 14) (size 15 to 20)
#    0.706    1.882    0.000    1.765    1.647    2.824 
#    0.000    0.000    0.000    0.706    0.000    1.647 
#    0.000    0.000    0.000    0.000    0.000    0.000 
#
# Total GULP energy -1263724.392750 kJ/mol
# GULP energy per Si atom -12389.454831 kJ/mol
# Density = 1.774201 g / cm^3
# Si number density = 17.782480 Si / 1000 Ang^3
#
#
#
# Elastic Constant Matrix: (Units=GPa)
#
#
# Indices 1 2 3 4 5 6 
#
# 1 83.3368 27.1823 42.1466 0.0000 0.0000 0.0000
# 2 27.1823 83.3368 42.1466 0.0000 0.0000 0.0000
# 3 42.1466 42.1466 105.5939 0.0000 0.0000 0.0000
# 4 0.0000 0.0000 0.0000 27.1122 0.0000 0.0000
# 5 0.0000 0.0000 0.0000 0.0000 27.1122 0.0000
# 6 0.0000 0.0000 0.0000 0.0000 0.0000 28.0772
#
#
#
# Elastic Compliance Matrix: (Units=1/GPa)
#
#
# Indices 1 2 3 4 5 6 
#
# 1 0.015408 -0.002400 -0.005192 0.000000 0.000000 0.000000
# 2 -0.002400 0.015408 -0.005192 0.000000 0.000000 0.000000
# 3 -0.005192 -0.005192 0.013615 0.000000 0.000000 0.000000
# 4 0.000000 0.000000 0.000000 0.036884 0.000000 0.000000
# 5 0.000000 0.000000 0.000000 0.000000 0.036884 0.000000
# 6 0.000000 0.000000 0.000000 0.000000 0.000000 0.035616
#
#
# Mechanical properties :
#
#
# Convention : Reuss Voigt Hill
#
# Bulk Modulus (GPa) = 53.01361 55.02427 54.01894
# Shear Modulus (GPa) = 26.92943 27.17981 27.05462
#
# Velocity S-wave (km/s) = 3.89573 3.91379 3.90477
# Velocity P-wave (km/s) = 7.07902 7.17174 7.12553
#
# Compressibility (1/GPa) = 0.01886308
#
# Stress axis : x y z
#
# Youngs Moduli (GPa) = 64.90084 64.90084 73.44862
#
# Poissons Ratio (x) = 0.15576 0.38135
# Poissons Ratio (y) = 0.15576 0.38135
# Poissons Ratio (z) = 0.33697 0.33697
#
# Static dielectric constant tensor:
#      x y z
#    x 3.084200 0.000000 0.000000 
#    y 0.000000 3.084200 0.000000 
#    z 0.000000 0.000000 3.523010 
# 
# 
# High freq. dielectric constant tensor:
#      x y z
#    x 1.667380 0.000000 0.000000 
#    y 0.000000 1.667380 0.000000 
#    z 0.000000 0.000000 1.694400 
# 
# From -- ./inp_files/889.got.cif
#   From: 2010.03.12/outbox.cif.g09.slc.cpg/sg192_1_cif.got.tgz:889.got - 2010.04.01 12:16:15.
