data_PCOD8329298
_publ_section_title
;
Structure prediction by ZEFSAII (Michael W. Deem and Ramdas Pophale) SiO2 
 PCOD8329298
Probable space group: P 6/M M M
;
_chemical_formula_sum "Si O2"
_cell_formula_units_Z 168
_cell_length_a 22.899538
_cell_length_b 22.899538
_cell_length_c 29.495553
_cell_angle_alpha 90.000000
_cell_angle_beta 90.000000
_cell_angle_gamma 120.000000
_cell_volume 13394.935160
_symmetry_space_group_name_H-M "P 6/M M M"
_symmetry_group_IT_number 191
_symmetry_cell_setting 'hexagonal'
loop_
_space_group_symop_operation_xyz
x,y,z
x-y,x,z
-y,x-y,z
-x,-y,z
-x+y,-x,z
y,-x+y,z
x-y,-y,-z
-x,-x+y,-z
y,x,-z
-y,-x,-z
-x+y,y,-z
x,x-y,-z
-x,-y,-z
-x+y,-x,-z
y,-x+y,-z
x,y,-z
x-y,x,-z
-y,x-y,-z
-x+y,y,z
x,x-y,z
-y,-x,z
y,x,z
x-y,-y,z
-x,-x+y,z
loop_
_atom_site_type_symbol
_atom_site_label
_atom_site_fract_x
_atom_site_fract_y
_atom_site_fract_z
Si Si1 0.074836 0.468104 0.214627
Si Si2 0.857829 0.577049 0.449792
Si Si3 0.666273 0.198242 0.619996
Si Si4 0.926907 0.726337 0.553880
Si Si5 0.666811 0.469715 0.275868
Si Si6 0.667008 0.198378 0.947156
Si Si7 0.925305 0.531986 0.112321
O O1 0.075229 0.537615 0.216768
O O2 0.133980 0.473645 0.247120
O O3 0.089795 0.454291 0.163463
O O4 0.000000 0.408382 0.229791
O O5 0.875671 0.561094 0.500000
O O6 0.786361 0.572721 0.452242
O O7 0.856934 0.525361 0.412712
O O8 0.912532 0.651878 0.433375
O O9 0.599667 0.199334 0.607192
O O10 0.727723 0.272278 0.610374
O O11 0.666775 0.177463 0.671874
O O12 0.925034 0.731017 0.500000
O O13 0.870780 0.741560 0.575244
O O14 0.000000 0.780674 0.573421
O O15 0.735945 0.471890 0.262359
O O16 0.605656 0.394345 0.266046
O O17 0.605778 0.211555 0.935500
O O18 0.735828 0.264173 0.931817
O O19 0.660013 0.133354 0.920581
O O20 0.667980 0.183606 0.000000
O O21 0.925267 0.462634 0.110232
O O22 0.000000 0.591819 0.097103
#
# Coordination Sequence:
#
# PCOD8329298 Si02
#       7
#    24  24  24  24  24  24  24
#     4   8  14  25  38  49  63  83 106 134 167 200
#     4   8  14  24  36  49  65  86 112 139 163 187
#     4   9  16  25  36  50  68  88 109 135 169 206
#     4   8  13  22  37  54  69  86 108 132 157 186
#     4   9  16  25  37  52  69  88 109 135 169 209
#     4   9  16  24  33  46  66  90 112 135 167 206
#     4   8  14  24  36  48  61  80 108 139 168 197
#
# _framework density 12.542054
#
# number of rings (size 3 to 8) (size 9 to 14) (size 15 to 20)
#    0.000    3.571    0.000    2.143    0.000    2.857 
#    0.000    2.143    0.000    4.000    0.000    3.000 
#    0.000    0.000    0.000    0.000    0.000    0.000 
#
# Total GULP energy -2081692.717830 kJ/mol
# GULP energy per Si atom -12391.028082 kJ/mol
# Density = 1.251351 g / cm^3
# Si number density = 12.542054 Si / 1000 Ang^3
#
#
#
# Elastic Constant Matrix: (Units=GPa)
#
#
# Indices 1 2 3 4 5 6 
#
# 1 69.6088 43.1846 40.2932 0.0000 0.0000 0.0000
# 2 43.1846 69.6088 40.2932 0.0000 0.0000 0.0000
# 3 40.2932 40.2932 54.1595 0.0000 0.0000 0.0000
# 4 0.0000 0.0000 0.0000 15.8318 0.0000 0.0000
# 5 0.0000 0.0000 0.0000 0.0000 15.8318 0.0000
# 6 0.0000 0.0000 0.0000 0.0000 0.0000 13.2121
#
#
#
# Elastic Compliance Matrix: (Units=1/GPa)
#
#
# Indices 1 2 3 4 5 6 
#
# 1 0.028385 -0.009459 -0.014080 0.000000 0.000000 0.000000
# 2 -0.009459 0.028385 -0.014080 0.000000 0.000000 0.000000
# 3 -0.014080 -0.014080 0.039414 0.000000 0.000000 0.000000
# 4 0.000000 0.000000 0.000000 0.063164 0.000000 0.000000
# 5 0.000000 0.000000 0.000000 0.000000 0.063164 0.000000
# 6 0.000000 0.000000 0.000000 0.000000 0.000000 0.075688
#
#
# Mechanical properties :
#
#
# Convention : Reuss Voigt Hill
#
# Bulk Modulus (GPa) = 47.74388 48.99100 48.36744
# Shear Modulus (GPa) = 13.14337 13.61555 13.37946
#
# Velocity S-wave (km/s) = 3.24071 3.29841 3.26968
# Velocity P-wave (km/s) = 7.22168 7.32476 7.27340
#
# Compressibility (1/GPa) = 0.02094509
#
# Stress axis : x y z
#
# Youngs Moduli (GPa) = 35.23025 35.23025 25.37162
#
# Poissons Ratio (x) = 0.33326 0.35723
# Poissons Ratio (y) = 0.33326 0.35723
# Poissons Ratio (z) = 0.49604 0.49604
#
# Static dielectric constant tensor:
#      x y z
#    x 2.581220 0.000000 0.000000 
#    y 0.000000 2.581220 0.000000 
#    z 0.000000 0.000000 2.598400 
# 
# 
# High freq. dielectric constant tensor:
#      x y z
#    x 1.452370 0.000000 0.000000 
#    y 0.000000 1.452370 0.000000 
#    z 0.000000 0.000000 1.464050 
# 
# From -- ./inp_files/9237.got.cif
#   From: 2010.03.12/outbox.cif.g09.slc.cpg/sg191_5_cif.got.tgz:9237.got - 2010.04.01 12:09:02.
