data_PCOD8329704
_publ_section_title
;
Structure prediction by ZEFSAII (Michael W. Deem and Ramdas Pophale) SiO2 
 PCOD8329704
Probable space group: P 6/M C C
;
_chemical_formula_sum "Si O2"
_cell_formula_units_Z 92
_cell_length_a 21.403867
_cell_length_b 21.403867
_cell_length_c 14.366388
_cell_angle_alpha 90.000000
_cell_angle_beta 90.000000
_cell_angle_gamma 120.000000
_cell_volume 5699.840600
_symmetry_space_group_name_H-M "P 6/M C C"
_symmetry_group_IT_number 192
_symmetry_cell_setting 'hexagonal'
loop_
_space_group_symop_operation_xyz
x,y,z
x-y,x,z
-y,x-y,z
-x,-y,z
-x+y,-x,z
y,-x+y,z
x-y,-y,1/2-z
-x,-x+y,1/2-z
y,x,1/2-z
-y,-x,1/2-z
-x+y,y,1/2-z
x,x-y,1/2-z
-x,-y,-z
-x+y,-x,-z
y,-x+y,-z
x,y,-z
x-y,x,-z
-y,x-y,-z
-x+y,y,1/2+z
x,x-y,1/2+z
-y,-x,1/2+z
y,x,1/2+z
x-y,-y,1/2+z
-x,-x+y,1/2+z
loop_
_atom_site_type_symbol
_atom_site_label
_atom_site_fract_x
_atom_site_fract_y
_atom_site_fract_z
Si Si1 0.514700 0.103442 0.895217
Si Si2 0.408365 0.408365 0.750000
Si Si3 0.666667 0.333334 0.361597
Si Si4 0.888870 0.550602 0.103396
Si Si5 0.242797 0.508577 0.642237
O O1 0.599050 0.131488 0.874845
O O2 0.488990 0.161715 0.879819
O O3 0.471090 0.038213 0.825448
O O4 0.494893 0.073752 0.000000
O O5 0.397306 0.340042 0.814095
O O6 0.666668 0.333334 0.250000
O O7 0.705320 0.413648 0.403204
O O8 0.812931 0.550306 0.102971
O O9 0.923618 0.576032 0.000000
O O10 0.256587 0.513173 0.750000
#
# Coordination Sequence:
#
# PCOD8329704 Si02
#       5
#    24  12   8  24  24
#     4  11  22  34  49  67  86 111 143 178 220 270
#     4  12  23  36  48  60  86 118 144 172 210 267
#     4   9  18  27  49  65  85 112 137 175 235 278
#     4  11  22  34  49  67  86 111 143 178 220 270
#     4  11  19  33  51  68  87 112 139 181 232 272
#
# _framework density 16.140802000000001
#
# number of rings (size 3 to 8) (size 9 to 14) (size 15 to 20)
#    0.000    1.043    5.217    3.913    0.000    2.087 
#    0.000    0.000    0.000    0.000    0.000    0.000 
#    0.000    0.000    0.000    0.000    0.000    0.000 
#
# Total GULP energy -1139886.944308 kJ/mol
# GULP energy per Si atom -12390.075482 kJ/mol
# Density = 1.610407 g / cm^3
# Si number density = 16.140802 Si / 1000 Ang^3
#
#
#
# Elastic Constant Matrix: (Units=GPa)
#
#
# Indices 1 2 3 4 5 6 
#
# 1 54.3476 24.6471 21.4503 0.0000 0.0000 0.0000
# 2 24.6471 54.3482 21.4504 0.0001 0.0000 0.0001
# 3 21.4503 21.4504 103.5890 0.0000 0.0001 0.0000
# 4 0.0000 0.0001 0.0000 14.7973 0.0000 0.0000
# 5 0.0000 0.0000 0.0001 0.0000 14.7973 0.0001
# 6 0.0000 0.0001 0.0000 0.0000 0.0001 14.8503
#
#
#
# Elastic Compliance Matrix: (Units=1/GPa)
#
#
# Indices 1 2 3 4 5 6 
#
# 1 0.023966 -0.009703 -0.002953 0.000000 0.000000 0.000000
# 2 -0.009703 0.023966 -0.002953 0.000000 0.000000 0.000000
# 3 -0.002953 -0.002953 0.010877 0.000000 0.000000 0.000000
# 4 0.000000 0.000000 0.000000 0.067580 0.000000 0.000000
# 5 0.000000 0.000000 0.000000 0.000000 0.067580 0.000000
# 6 0.000000 0.000000 0.000000 0.000000 0.000000 0.067339
#
#
# Mechanical properties :
#
#
# Convention : Reuss Voigt Hill
#
# Bulk Modulus (GPa) = 36.24653 38.59782 37.42217
# Shear Modulus (GPa) = 16.57145 18.53811 17.55478
#
# Velocity S-wave (km/s) = 3.20766 3.39267 3.30146
# Velocity P-wave (km/s) = 6.01864 6.26993 6.14557
#
# Compressibility (1/GPa) = 0.02758885
#
# Stress axis : x y z
#
# Youngs Moduli (GPa) = 41.72547 41.72592 91.93969
#
# Poissons Ratio (x) = 0.40487 0.27154
# Poissons Ratio (y) = 0.40486 0.27154
# Poissons Ratio (z) = 0.12324 0.12324
#
# Static dielectric constant tensor:
#      x y z
#    x 2.881300 0.000000 0.000000 
#    y 0.000000 2.881290 0.000000 
#    z 0.000000 0.000000 3.450600 
# 
# 
# High freq. dielectric constant tensor:
#      x y z
#    x 1.572150 0.000000 0.000000 
#    y 0.000000 1.572150 0.000000 
#    z 0.000000 0.000000 1.656360 
# 
# From -- ./inp_files/2778.got.cif
#   From: 2010.03.12/outbox.cif.g09.slc.cpg/sg192_2_cif.got.tgz:2778.got - 2010.04.01 12:16:15.
