data_PCOD8329836
_publ_section_title
;
Structure prediction by ZEFSAII (Michael W. Deem and Ramdas Pophale) SiO2 
 PCOD8329836
Probable space group: P 63/M C M
;
_chemical_formula_sum "Si O2"
_cell_formula_units_Z 168
_cell_length_a 20.789112
_cell_length_b 20.789112
_cell_length_c 26.683650
_cell_angle_alpha 90.000000
_cell_angle_beta 90.000000
_cell_angle_gamma 120.000000
_cell_volume 9987.291945
_symmetry_space_group_name_H-M "P 63/M C M"
_symmetry_group_IT_number 193
_symmetry_cell_setting 'hexagonal'
loop_
_space_group_symop_operation_xyz
x,y,z
x-y,x,1/2+z
-y,x-y,z
-x,-y,1/2+z
-x+y,-x,z
y,-x+y,1/2+z
x-y,-y,1/2-z
-x,-x+y,1/2-z
y,x,1/2-z
-y,-x,-z
-x+y,y,-z
x,x-y,-z
-x,-y,-z
-x+y,-x,1/2-z
y,-x+y,-z
x,y,1/2-z
x-y,x,-z
-y,x-y,1/2-z
-x+y,y,1/2+z
x,x-y,1/2+z
-y,-x,1/2+z
y,x,z
x-y,-y,z
-x,-x+y,z
loop_
_atom_site_type_symbol
_atom_site_label
_atom_site_fract_x
_atom_site_fract_y
_atom_site_fract_z
Si Si1 0.525259 0.303230 0.863977
Si Si2 0.310099 0.394262 0.306761
Si Si3 0.794262 0.626222 0.611733
Si Si4 0.797778 0.332734 0.476713
Si Si5 0.185766 0.269514 0.960216
Si Si6 0.562388 0.367511 0.308269
Si Si7 0.602186 0.686281 0.976543
O O1 0.436122 0.249707 0.868742
O O2 0.553015 0.335860 0.918615
O O3 0.566403 0.261089 0.841956
O O4 0.550663 0.374421 0.827340
O O5 0.281682 0.376943 0.250000
O O6 0.365022 0.365022 0.320906
O O7 0.235927 0.350767 0.340113
O O8 0.358205 0.481982 0.316976
O O9 0.866467 0.699244 0.590150
O O10 0.727416 0.591727 0.571283
O O11 0.749226 0.250775 0.500000
O O12 0.772226 0.386113 0.500000
O O13 0.882371 0.356995 0.492145
O O14 0.206016 0.206016 0.945855
O O15 0.117587 0.235173 0.000000
O O16 0.254492 0.338346 0.985942
O O17 0.575518 0.357176 0.250000
O O18 0.627699 0.627699 0.959388
#
# Coordination Sequence:
#
# PCOD8329836 Si02
#       7
#    24  24  24  24  24  24  24
#     4  11  20  33  50  69  95 130 170 217 266 308
#     4   9  19  35  54  76 101 130 169 222 272 308
#     4  10  18  33  53  74 100 132 171 212 259 311
#     4  12  22  34  46  67 100 135 168 207 253 306
#     4   9  17  32  54  79 107 139 172 207 245 295
#     4  10  21  35  52  71  94 128 175 226 267 315
#     4  10  19  34  52  71  99 134 170 213 253 299
#
# _framework density 16.821376999999998
#
# number of rings (size 3 to 8) (size 9 to 14) (size 15 to 20)
#    0.000    1.857    2.857    2.571    2.000    1.429 
#    0.000    1.429    0.000    0.571    0.000    0.000 
#    0.000    0.000    0.000    0.000    0.000    0.000 
#
# Total GULP energy -2082424.094407 kJ/mol
# GULP energy per Si atom -12395.381514 kJ/mol
# Density = 1.678309 g / cm^3
# Si number density = 16.821377 Si / 1000 Ang^3
#
#
#
# Elastic Constant Matrix: (Units=GPa)
#
#
# Indices 1 2 3 4 5 6 
#
# 1 83.3441 47.1374 49.2868 0.0000 0.0000 0.0000
# 2 47.1374 83.3441 49.2868 0.0000 0.0000 0.0000
# 3 49.2868 49.2868 102.8291 0.0000 0.0000 0.0000
# 4 0.0000 0.0000 0.0000 17.0559 0.0000 0.0000
# 5 0.0000 0.0000 0.0000 0.0000 17.0559 0.0000
# 6 0.0000 0.0000 0.0000 0.0000 0.0000 18.1033
#
#
#
# Elastic Compliance Matrix: (Units=1/GPa)
#
#
# Indices 1 2 3 4 5 6 
#
# 1 0.019817 -0.007802 -0.005759 0.000000 0.000000 0.000000
# 2 -0.007802 0.019817 -0.005759 0.000000 0.000000 0.000000
# 3 -0.005759 -0.005759 0.015245 0.000000 0.000000 0.000000
# 4 0.000000 0.000000 0.000000 0.058631 0.000000 0.000000
# 5 0.000000 0.000000 0.000000 0.000000 0.058631 0.000000
# 6 0.000000 0.000000 0.000000 0.000000 0.000000 0.055239
#
#
# Mechanical properties :
#
#
# Convention : Reuss Voigt Hill
#
# Bulk Modulus (GPa) = 61.57826 62.32657 61.95241
# Shear Modulus (GPa) = 18.42089 18.69676 18.55883
#
# Velocity S-wave (km/s) = 3.31280 3.33752 3.32518
# Velocity P-wave (km/s) = 7.16376 7.21002 7.18693
#
# Compressibility (1/GPa) = 0.01623950
#
# Stress axis : x y z
#
# Youngs Moduli (GPa) = 50.46236 50.46236 65.59492
#
# Poissons Ratio (x) = 0.39373 0.37773
# Poissons Ratio (y) = 0.39373 0.37773
# Poissons Ratio (z) = 0.29059 0.29059
#
# Static dielectric constant tensor:
#      x y z
#    x 3.106610 0.000000 0.000000 
#    y 0.000000 3.106610 0.000000 
#    z 0.000000 0.000000 3.316960 
# 
# 
# High freq. dielectric constant tensor:
#      x y z
#    x 1.626720 0.000000 0.000000 
#    y 0.000000 1.626720 0.000000 
#    z 0.000000 0.000000 1.655260 
# 
# From -- ./inp_files/7687.got.cif
#   From: 2010.03.12/outbox.cif.g09.slc.cpg/sg193_4_cif.got.tgz:7687.got - 2010.04.01 12:20:39.
