data_PCOD8329861
_publ_section_title
;
Structure prediction by ZEFSAII (Michael W. Deem and Ramdas Pophale) SiO2 
 PCOD8329861
Probable space group: P 63/M C M
;
_chemical_formula_sum "Si O2"
_cell_formula_units_Z 120
_cell_length_a 18.006539
_cell_length_b 18.006539
_cell_length_c 27.224938
_cell_angle_alpha 90.000000
_cell_angle_beta 90.000000
_cell_angle_gamma 120.000000
_cell_volume 7644.657331
_symmetry_space_group_name_H-M "P 63/M C M"
_symmetry_group_IT_number 193
_symmetry_cell_setting 'hexagonal'
loop_
_space_group_symop_operation_xyz
x,y,z
x-y,x,1/2+z
-y,x-y,z
-x,-y,1/2+z
-x+y,-x,z
y,-x+y,1/2+z
x-y,-y,1/2-z
-x,-x+y,1/2-z
y,x,1/2-z
-y,-x,-z
-x+y,y,-z
x,x-y,-z
-x,-y,-z
-x+y,-x,1/2-z
y,-x+y,-z
x,y,1/2-z
x-y,x,-z
-y,x-y,1/2-z
-x+y,y,1/2+z
x,x-y,1/2+z
-y,-x,1/2+z
y,x,z
x-y,-y,z
-x,-x+y,z
loop_
_atom_site_type_symbol
_atom_site_label
_atom_site_fract_x
_atom_site_fract_y
_atom_site_fract_z
Si Si1 0.215878 0.388074 0.691476
Si Si2 0.604639 0.099271 0.639237
Si Si3 0.602433 0.377881 0.555075
Si Si4 0.456232 0.094025 0.807485
Si Si5 0.903683 0.096179 0.191706
O O1 0.234599 0.396771 0.750000
O O2 0.302899 0.430484 0.661027
O O3 0.165322 0.435469 0.672943
O O4 0.159221 0.289573 0.674918
O O5 0.600008 0.145992 0.590359
O O6 0.553306 0.119840 0.680368
O O7 0.560419 0.000000 0.625832
O O8 0.570359 0.276447 0.563568
O O9 0.594009 0.405992 0.500000
O O10 0.443799 0.088575 0.750000
O O11 0.390353 0.000000 0.830213
O O12 0.903102 0.092035 0.250000
O O13 0.000000 0.133130 0.171500
O O14 0.843269 0.000000 0.170568
#
# Coordination Sequence:
#
# PCOD8329861 Si02
#       5
#    24  24  24  24  24
#     4  10  19  30  43  61  89 126 159 190 227 268
#     4  11  20  29  45  68  93 117 145 186 230 274
#     4   8  17  34  53  67  83 110 144 183 225 267
#     4   9  18  31  44  60  86 122 160 192 221 257
#     4   9  16  26  41  60  83 115 157 199 233 266
#
# _framework density 15.697236999999999
#
# number of rings (size 3 to 8) (size 9 to 14) (size 15 to 20)
#    0.400    2.200    0.000    3.200    0.000    5.600 
#    1.200    0.000    0.000    0.000    0.000    0.000 
#    0.000    0.000    0.000    0.000    0.000    1.400 
#
# Total GULP energy -1486789.181148 kJ/mol
# GULP energy per Si atom -12389.909843 kJ/mol
# Density = 1.566151 g / cm^3
# Si number density = 15.697237 Si / 1000 Ang^3
#
#
#
# Elastic Constant Matrix: (Units=GPa)
#
#
# Indices 1 2 3 4 5 6 
#
# 1 109.2841 69.1734 31.0478 0.0000 0.0000 0.0000
# 2 69.1734 109.2841 31.0478 0.0000 0.0000 0.0000
# 3 31.0478 31.0478 38.8836 0.0000 0.0000 0.0000
# 4 0.0000 0.0000 0.0000 17.2808 0.0000 0.0000
# 5 0.0000 0.0000 0.0000 0.0000 17.2808 0.0000
# 6 0.0000 0.0000 0.0000 0.0000 0.0000 20.0553
#
#
#
# Elastic Compliance Matrix: (Units=1/GPa)
#
#
# Indices 1 2 3 4 5 6 
#
# 1 0.016345 -0.008586 -0.006196 0.000000 0.000000 0.000000
# 2 -0.008586 0.016345 -0.006196 0.000000 0.000000 0.000000
# 3 -0.006196 -0.006196 0.035612 0.000000 0.000000 0.000000
# 4 0.000000 0.000000 0.000000 0.057868 0.000000 0.000000
# 5 0.000000 0.000000 0.000000 0.000000 0.057868 0.000000
# 6 0.000000 0.000000 0.000000 0.000000 0.000000 0.049862
#
#
# Mechanical properties :
#
#
# Convention : Reuss Voigt Hill
#
# Bulk Modulus (GPa) = 37.95350 57.77665 47.86507
# Shear Modulus (GPa) = 17.56619 19.33555 18.45087
#
# Velocity S-wave (km/s) = 3.34887 3.51348 3.43216
# Velocity P-wave (km/s) = 6.25973 7.30385 6.80185
#
# Compressibility (1/GPa) = 0.02634803
#
# Stress axis : x y z
#
# Youngs Moduli (GPa) = 61.17988 61.17988 28.08023
#
# Poissons Ratio (x) = 0.52528 0.17398
# Poissons Ratio (y) = 0.52528 0.17398
# Poissons Ratio (z) = 0.37906 0.37906
#
# Static dielectric constant tensor:
#      x y z
#    x 3.145290 0.000000 0.000000 
#    y 0.000000 3.145290 0.000000 
#    z 0.000000 0.000000 2.560290 
# 
# 
# High freq. dielectric constant tensor:
#      x y z
#    x 1.611060 0.000000 0.000000 
#    y 0.000000 1.611060 0.000000 
#    z 0.000000 0.000000 1.550220 
# 
# From -- ./inp_files/9090.got.cif
#   From: 2010.03.12/outbox.cif.g09.slc.cpg/sg193_5_cif.got.tgz:9090.got - 2010.04.01 12:20:39.
