data_PCOD8329773
_publ_section_title
;
Structure prediction by ZEFSAII (Michael W. Deem and Ramdas Pophale) SiO2 
 PCOD8329773
Probable space group: P 63/M C M
;
_chemical_formula_sum "Si O2"
_cell_formula_units_Z 192
_cell_length_a 24.679719
_cell_length_b 24.679719
_cell_length_c 24.512780
_cell_angle_alpha 90.000000
_cell_angle_beta 90.000000
_cell_angle_gamma 120.000000
_cell_volume 12930.151704
_symmetry_space_group_name_H-M "P 63/M C M"
_symmetry_group_IT_number 193
_symmetry_cell_setting 'hexagonal'
loop_
_space_group_symop_operation_xyz
x,y,z
x-y,x,1/2+z
-y,x-y,z
-x,-y,1/2+z
-x+y,-x,z
y,-x+y,1/2+z
x-y,-y,1/2-z
-x,-x+y,1/2-z
y,x,1/2-z
-y,-x,-z
-x+y,y,-z
x,x-y,-z
-x,-y,-z
-x+y,-x,1/2-z
y,-x+y,-z
x,y,1/2-z
x-y,x,-z
-y,x-y,1/2-z
-x+y,y,1/2+z
x,x-y,1/2+z
-y,-x,1/2+z
y,x,z
x-y,-y,z
-x,-x+y,z
loop_
_atom_site_type_symbol
_atom_site_label
_atom_site_fract_x
_atom_site_fract_y
_atom_site_fract_z
Si Si1 0.640271 0.713553 0.188578
Si Si2 0.069916 0.140134 0.185396
Si Si3 0.926805 0.654810 0.373476
Si Si4 0.434687 0.360469 0.590992
Si Si5 0.416171 0.074030 0.972228
Si Si6 0.925366 0.444228 0.592036
Si Si7 0.926475 0.548927 0.191073
Si Si8 0.139133 0.855693 0.312988
O O1 0.611622 0.697960 0.250000
O O2 0.686336 0.686336 0.179443
O O3 0.584127 0.684373 0.143990
O O4 0.681029 0.786978 0.179550
O O5 0.066452 0.133957 0.250000
O O6 0.110538 0.110538 0.161576
O O7 0.100813 0.212173 0.168384
O O8 0.000000 0.102525 0.160635
O O9 0.902260 0.620077 0.432333
O O10 0.911936 0.601909 0.328875
O O11 0.888349 0.687658 0.355586
O O12 0.000000 0.706267 0.375291
O O13 0.401362 0.401362 0.595891
O O14 0.414020 0.320204 0.534742
O O15 0.509574 0.406784 0.586513
O O16 0.488538 0.098547 0.954334
O O17 0.381129 0.000000 0.965107
O O18 0.900077 0.409128 0.649779
O O19 0.000000 0.484270 0.589996
O O20 0.894445 0.524400 0.250000
O O21 0.000000 0.577624 0.195433
O O22 0.120635 0.833186 0.250000
#
# Coordination Sequence:
#
# PCOD8329773 Si02
#       8
#    24  24  24  24  24  24  24  24
#     4   9  18  30  40  52  72  99 133 169 199 230
#     4   9  16  25  38  56  76  97 124 165 219 274
#     4   9  16  25  37  54  75  99 129 163 197 239
#     4   9  15  24  39  54  71 100 131 155 182 216
#     4   8  14  24  37  55  78  99 121 153 188 217
#     4   8  13  20  33  54  76  99 127 153 175 204
#     4   8  13  20  30  48  76 103 124 152 187 216
#     4  10  18  27  39  53  72 102 137 167 201 252
#
# _framework density 14.849014
#
# number of rings (size 3 to 8) (size 9 to 14) (size 15 to 20)
#    0.000    3.250    0.000    3.125    0.000    5.250 
#    0.000    3.125    0.000    0.000    0.000    0.000 
#    0.000    0.000    0.000    6.750    0.000   62.875 
#
# Total GULP energy -2378836.914250 kJ/mol
# GULP energy per Si atom -12389.775595 kJ/mol
# Density = 1.481522 g / cm^3
# Si number density = 14.849014 Si / 1000 Ang^3
#
#
#
# Elastic Constant Matrix: (Units=GPa)
#
#
# Indices 1 2 3 4 5 6 
#
# 1 61.2739 31.1785 37.0284 0.0000 0.0000 0.0000
# 2 31.1785 61.2739 37.0284 0.0000 0.0000 0.0000
# 3 37.0284 37.0284 106.4039 0.0000 0.0000 0.0000
# 4 0.0000 0.0000 0.0000 14.7331 0.0000 0.0000
# 5 0.0000 0.0000 0.0000 0.0000 14.7331 0.0000
# 6 0.0000 0.0000 0.0000 0.0000 0.0000 15.0477
#
#
#
# Elastic Compliance Matrix: (Units=1/GPa)
#
#
# Indices 1 2 3 4 5 6 
#
# 1 0.024112 -0.009115 -0.005219 0.000000 0.000000 0.000000
# 2 -0.009115 0.024112 -0.005219 0.000000 0.000000 0.000000
# 3 -0.005219 -0.005219 0.013030 0.000000 0.000000 0.000000
# 4 0.000000 0.000000 0.000000 0.067875 0.000000 0.000000
# 5 0.000000 0.000000 0.000000 0.000000 0.067875 0.000000
# 6 0.000000 0.000000 0.000000 0.000000 0.000000 0.066455
#
#
# Mechanical properties :
#
#
# Convention : Reuss Voigt Hill
#
# Bulk Modulus (GPa) = 45.14948 48.82470 46.98709
# Shear Modulus (GPa) = 16.13171 17.15053 16.64112
#
# Velocity S-wave (km/s) = 3.29961 3.40221 3.35130
# Velocity P-wave (km/s) = 6.70733 6.95597 6.83278
#
# Compressibility (1/GPa) = 0.02214865
#
# Stress axis : x y z
#
# Youngs Moduli (GPa) = 41.47270 41.47270 76.74316
#
# Poissons Ratio (x) = 0.37804 0.40051
# Poissons Ratio (y) = 0.37804 0.40051
# Poissons Ratio (z) = 0.21644 0.21644
#
# Static dielectric constant tensor:
#      x y z
#    x 2.676520 0.000000 0.000000 
#    y 0.000000 2.676520 0.000000 
#    z 0.000000 0.000000 3.053190 
# 
# 
# High freq. dielectric constant tensor:
#      x y z
#    x 1.535830 0.000000 0.000000 
#    y 0.000000 1.535830 0.000000 
#    z 0.000000 0.000000 1.563420 
# 
# From -- ./inp_files/8575.got.cif
#   From: 2010.03.12/outbox.cif.g09.slc.cpg/sg193_5_cif.got.tgz:8575.got - 2010.04.01 12:20:39.
