data_PCOD8329855
_publ_section_title
;
Structure prediction by ZEFSAII (Michael W. Deem and Ramdas Pophale) SiO2 
 PCOD8329855
Probable space group: P 63/M C M
;
_chemical_formula_sum "Si O2"
_cell_formula_units_Z 104
_cell_length_a 26.361510
_cell_length_b 26.361510
_cell_length_c 15.464236
_cell_angle_alpha 90.000000
_cell_angle_beta 90.000000
_cell_angle_gamma 120.000000
_cell_volume 9306.784696
_symmetry_space_group_name_H-M "P 63/M C M"
_symmetry_group_IT_number 193
_symmetry_cell_setting 'hexagonal'
loop_
_space_group_symop_operation_xyz
x,y,z
x-y,x,1/2+z
-y,x-y,z
-x,-y,1/2+z
-x+y,-x,z
y,-x+y,1/2+z
x-y,-y,1/2-z
-x,-x+y,1/2-z
y,x,1/2-z
-y,-x,-z
-x+y,y,-z
x,x-y,-z
-x,-y,-z
-x+y,-x,1/2-z
y,-x+y,-z
x,y,1/2-z
x-y,x,-z
-y,x-y,1/2-z
-x+y,y,1/2+z
x,x-y,1/2+z
-y,-x,1/2+z
y,x,z
x-y,-y,z
-x,-x+y,z
loop_
_atom_site_type_symbol
_atom_site_label
_atom_site_fract_x
_atom_site_fract_y
_atom_site_fract_z
Si Si1 0.464233 0.729754 0.599581
Si Si2 0.145219 0.510525 0.652933
Si Si3 0.333334 0.666667 0.146823
Si Si4 0.149815 0.630218 0.846882
Si Si5 0.527526 0.592628 0.002281
O O1 0.481968 0.740984 0.500000
O O2 0.497702 0.699149 0.642742
O O3 0.396126 0.684312 0.609826
O O4 0.482367 0.790526 0.646500
O O5 0.120109 0.492416 0.750000
O O6 0.163481 0.578004 0.633393
O O7 0.095601 0.467944 0.585532
O O8 0.333334 0.666668 0.250000
O O9 0.124644 0.624098 0.750000
O O10 0.102307 0.628414 0.914017
O O11 0.583959 0.583959 0.008311
O O12 0.469870 0.530131 0.000000
#
# Coordination Sequence:
#
# PCOD8329855 Si02
#       5
#    24  24   8  24  24
#     4  12  20  28  38  53  73  92 108 126 156 197
#     4  10  19  29  40  54  70  88 107 128 157 192
#     4  12  22  26  34  54  70  92 112 124 149 199
#     4  10  19  29  40  54  70  88 107 128 157 192
#     4   9  18  31  42  52  64  81 109 139 160 180
#
# _framework density 11.174644000000001
#
# number of rings (size 3 to 8) (size 9 to 14) (size 15 to 20)
#    0.000    1.615    4.615    2.769    0.000    0.923 
#    0.000    4.615    0.000    0.000    0.000    0.000 
#    0.000    0.000    0.000    0.000    0.000    0.000 
#
# Total GULP energy -1289532.601399 kJ/mol
# GULP energy per Si atom -12399.351937 kJ/mol
# Density = 1.114921 g / cm^3
# Si number density = 11.174644 Si / 1000 Ang^3
#
#
#
# Elastic Constant Matrix: (Units=GPa)
#
#
# Indices 1 2 3 4 5 6 
#
# 1 40.6300 23.5416 24.2982 -0.0001 -0.0001 0.0000
# 2 23.5416 40.6302 24.2981 -0.0001 -0.0001 0.0000
# 3 24.2982 24.2981 93.8663 -0.0001 0.0000 0.0000
# 4 -0.0001 -0.0001 -0.0001 9.0182 0.0000 0.0000
# 5 -0.0001 -0.0001 0.0000 0.0000 9.0182 0.0000
# 6 0.0000 0.0000 0.0000 0.0000 0.0000 8.5443
#
#
#
# Elastic Compliance Matrix: (Units=1/GPa)
#
#
# Indices 1 2 3 4 5 6 
#
# 1 0.038951 -0.019568 -0.005017 0.000000 0.000000 0.000000
# 2 -0.019568 0.038951 -0.005017 0.000000 0.000000 0.000000
# 3 -0.005017 -0.005017 0.013251 0.000000 0.000000 0.000000
# 4 0.000000 0.000000 0.000000 0.110887 0.000000 0.000000
# 5 0.000000 0.000000 0.000000 0.000000 0.110886 0.000000
# 6 0.000000 0.000000 0.000000 0.000000 0.000000 0.117037
#
#
# Mechanical properties :
#
#
# Convention : Reuss Voigt Hill
#
# Bulk Modulus (GPa) = 31.30184 35.48915 33.39549
# Shear Modulus (GPa) = 10.00366 12.18206 11.09286
#
# Velocity S-wave (km/s) = 2.99525 3.30533 3.15410
# Velocity P-wave (km/s) = 6.32727 6.81135 6.57377
#
# Compressibility (1/GPa) = 0.03194701
#
# Stress axis : x y z
#
# Youngs Moduli (GPa) = 25.67336 25.67352 75.46565
#
# Poissons Ratio (x) = 0.50238 0.37865
# Poissons Ratio (y) = 0.50237 0.37864
# Poissons Ratio (z) = 0.12882 0.12881
#
# Static dielectric constant tensor:
#      x y z
#    x 2.131750 -0.000010 -0.000010 
#    y -0.000010 2.131810 -0.000010 
#    z -0.000010 -0.000010 2.575720 
# 
# 
# High freq. dielectric constant tensor:
#      x y z
#    x 1.379900 0.000000 0.000000 
#    y 0.000000 1.379900 0.000000 
#    z 0.000000 0.000000 1.446810 
# 
# From -- ./inp_files/3929.got.cif
#   From: 2010.03.12/outbox.cif.g09.slc.cpg/sg193_2_cif.got.tgz:3929.got - 2010.04.01 12:20:39.
