data_PCOD8329158
_publ_section_title
;
Structure prediction by ZEFSAII (Michael W. Deem and Ramdas Pophale) SiO2 
 PCOD8329158
Probable space group: P 6/M M M
;
_chemical_formula_sum "Si O2"
_cell_formula_units_Z 138
_cell_length_a 30.999076
_cell_length_b 30.999076
_cell_length_c 8.031430
_cell_angle_alpha 90.000000
_cell_angle_beta 90.000000
_cell_angle_gamma 120.000000
_cell_volume 6683.762478
_symmetry_space_group_name_H-M "P 6/M M M"
_symmetry_group_IT_number 191
_symmetry_cell_setting 'hexagonal'
loop_
_space_group_symop_operation_xyz
x,y,z
x-y,x,z
-y,x-y,z
-x,-y,z
-x+y,-x,z
y,-x+y,z
x-y,-y,-z
-x,-x+y,-z
y,x,-z
-y,-x,-z
-x+y,y,-z
x,x-y,-z
-x,-y,-z
-x+y,-x,-z
y,-x+y,-z
x,y,-z
x-y,x,-z
-y,x-y,-z
-x+y,y,z
x,x-y,z
-y,-x,z
y,x,z
x-y,-y,z
-x,-x+y,z
loop_
_atom_site_type_symbol
_atom_site_label
_atom_site_fract_x
_atom_site_fract_y
_atom_site_fract_z
Si Si1 0.530079 0.674432 0.687713
Si Si2 0.521812 0.943880 0.191650
Si Si3 0.333317 0.762970 0.805157
Si Si4 0.212535 0.945161 0.803780
Si Si5 0.881545 0.940773 0.500000
Si Si6 0.097670 0.195339 0.197016
Si Si7 0.766715 0.138252 0.194318
O O1 0.530756 0.691369 0.500000
O O2 0.529228 0.622403 0.691033
O O3 0.481784 0.669473 0.775698
O O4 0.580000 0.714040 0.777725
O O5 0.469845 0.939689 0.238740
O O6 0.566330 0.000000 0.223483
O O7 0.521616 0.928738 0.000000
O O8 0.384017 0.768034 0.726859
O O9 0.285090 0.714911 0.726299
O O10 0.333694 0.755056 0.000000
O O11 0.155695 0.927165 0.761268
O O12 0.229867 0.907951 0.725740
O O13 0.247000 0.000000 0.725346
O O14 0.220025 0.947725 0.000000
O O15 0.916090 0.916090 0.500000
O O16 0.850148 0.925074 0.327144
O O17 0.089047 0.178094 0.000000
O O18 0.810250 0.189751 0.272944
O O19 0.776181 0.138278 0.000000
#
# Coordination Sequence:
#
# PCOD8329158 Si02
#       7
#    24  24  24  24   6  12  24
#     4  12  25  37  53  82 120 157 192 233 290 359
#     4   9  19  38  63  86 107 139 188 240 286 339
#     4  10  21  39  63  88 112 144 192 249 302 355
#     4   9  17  33  61  93 120 149 192 248 306 362
#     4  12  27  44  64  96 136 180 224 268 322 386
#     4  10  20  41  69  97 128 164 214 272 324 380
#     4  10  20  37  58  80 111 154 201 243 287 343
#
# _framework density 20.647054000000001
#
# number of rings (size 3 to 8) (size 9 to 14) (size 15 to 20)
#    0.000    1.913    0.870    3.870    0.000    8.348 
#    1.565    2.609    0.000    1.565    0.000    0.000 
#    0.000    0.000    0.000    0.000    0.000    0.000 
#
# Total GULP energy -1710940.834700 kJ/mol
# GULP energy per Si atom -12398.121991 kJ/mol
# Density = 2.060006 g / cm^3
# Si number density = 20.647054 Si / 1000 Ang^3
#
#
#
# Elastic Constant Matrix: (Units=GPa)
#
#
# Indices 1 2 3 4 5 6 
#
# 1 111.9084 134.1553 22.0894 0.0000 0.0000 0.0000
# 2 134.1553 111.9084 22.0894 0.0000 0.0000 0.0000
# 3 22.0894 22.0894 40.8930 0.0000 0.0000 0.0000
# 4 0.0000 0.0000 0.0000 4.6071 0.0000 0.0000
# 5 0.0000 0.0000 0.0000 0.0000 4.6071 0.0000
# 6 0.0000 0.0000 0.0000 0.0000 0.0000 -11.1235
#
#
#
# Elastic Compliance Matrix: (Units=1/GPa)
#
#
# Indices 1 2 3 4 5 6 
#
# 1 -0.020225 0.024725 -0.002431 0.000000 0.000000 0.000000
# 2 0.024725 -0.020225 -0.002431 0.000000 0.000000 0.000000
# 3 -0.002431 -0.002431 0.027080 0.000000 0.000000 0.000000
# 4 0.000000 0.000000 0.000000 0.217058 0.000000 0.000000
# 5 0.000000 0.000000 0.000000 0.000000 0.217058 0.000000
# 6 0.000000 0.000000 0.000000 0.000000 0.000000 -0.089900
#
#
# Mechanical properties :
#
#
# Convention : Reuss Voigt Hill
#
# Bulk Modulus (GPa) = 37.94026 69.04201 53.49113
# Shear Modulus (GPa) = 16.67186 5.37651 11.02419
#
# Velocity S-wave (km/s) = 2.84468 1.61545 2.31321
# Velocity P-wave (km/s) = 5.40418 6.08205 5.75311
#
# Compressibility (1/GPa) = 0.02635723
#
# Stress axis : x y z
#
# Youngs Moduli (GPa) = -49.44423 -49.44423 36.92699
#
# Poissons Ratio (x) = 1.22252 0.08977
# Poissons Ratio (y) = 1.22252 0.08977
# Poissons Ratio (z) = -0.12020 -0.12020
#
# Static dielectric constant tensor:
#      x y z
#    x 3.939430 0.000000 0.000000 
#    y 0.000000 3.939430 0.000000 
#    z 0.000000 0.000000 3.399770 
# 
# 
# High freq. dielectric constant tensor:
#      x y z
#    x 1.818290 0.000000 0.000000 
#    y 0.000000 1.818290 0.000000 
#    z 0.000000 0.000000 1.777100 
# 
# From -- ./inp_files/2032.got.cif
#   From: 2010.03.12/outbox.cif.g09.slc.cpg/sg191_2_cif.got.tgz:2032.got - 2010.04.01 12:09:02.
