data_PCOD8329543
_publ_section_title
;
Structure prediction by ZEFSAII (Michael W. Deem and Ramdas Pophale) SiO2 
 PCOD8329543
Probable space group: P 6/M C C
;
_chemical_formula_sum "Si O2"
_cell_formula_units_Z 144
_cell_length_a 23.986790
_cell_length_b 23.986790
_cell_length_c 15.007842
_cell_angle_alpha 90.000000
_cell_angle_beta 90.000000
_cell_angle_gamma 120.000000
_cell_volume 7478.132339
_symmetry_space_group_name_H-M "P 6/M C C"
_symmetry_group_IT_number 192
_symmetry_cell_setting 'hexagonal'
loop_
_space_group_symop_operation_xyz
x,y,z
x-y,x,z
-y,x-y,z
-x,-y,z
-x+y,-x,z
y,-x+y,z
x-y,-y,1/2-z
-x,-x+y,1/2-z
y,x,1/2-z
-y,-x,1/2-z
-x+y,y,1/2-z
x,x-y,1/2-z
-x,-y,-z
-x+y,-x,-z
y,-x+y,-z
x,y,-z
x-y,x,-z
-y,x-y,-z
-x+y,y,1/2+z
x,x-y,1/2+z
-y,-x,1/2+z
y,x,1/2+z
x-y,-y,1/2+z
-x,-x+y,1/2+z
loop_
_atom_site_type_symbol
_atom_site_label
_atom_site_fract_x
_atom_site_fract_y
_atom_site_fract_z
Si Si1 0.258599 0.510108 0.105751
Si Si2 0.307883 0.928675 0.755623
Si Si3 0.350437 0.524259 0.742450
Si Si4 0.145927 0.773726 0.904741
Si Si5 0.720533 0.899647 0.335002
Si Si6 0.891656 0.860905 0.605752
O O1 0.323894 0.530398 0.160764
O O2 0.222890 0.542302 0.158453
O O3 0.216543 0.432831 0.118483
O O4 0.270516 0.530325 0.000000
O O5 0.337132 0.883759 0.780998
O O6 0.273160 0.908895 0.661095
O O7 0.255538 0.928365 0.823978
O O8 0.368146 0.000000 0.750000
O O9 0.426350 0.573651 0.750000
O O10 0.154335 0.844699 0.910484
O O11 0.122803 0.739743 0.000000
O O12 0.722326 0.861163 0.250000
O O13 0.791587 0.956194 0.360831
O O14 0.875733 0.914579 0.642996
O O15 0.892906 0.862471 0.500000
#
# Coordination Sequence:
#
# PCOD8329543 Si02
#       6
#    24  24  24  24  24  24
#     4   9  18  36  60  84 110 150 196 241 294 344
#     4  10  21  36  55  84 117 152 187 236 293 343
#     4  10  20  37  59  84 120 159 195 237 289 357
#     4   9  17  34  58  80 107 141 186 239 292 344
#     4  10  20  33  54  78 105 138 183 239 290 337
#     4  10  22  38  54  75 107 148 190 235 294 359
#
# _framework density 19.256145
#
# number of rings (size 3 to 8) (size 9 to 14) (size 15 to 20)
#    0.000    2.333    1.667    0.667    4.667    1.667 
#    4.000    1.667    0.000    1.000    0.000    5.833 
#    0.000    0.000    0.000    0.000    0.000    0.000 
#
# Total GULP energy -1784305.809389 kJ/mol
# GULP energy per Si atom -12391.012565 kJ/mol
# Density = 1.921232 g / cm^3
# Si number density = 19.256145 Si / 1000 Ang^3
#
#
#
# Elastic Constant Matrix: (Units=GPa)
#
#
# Indices 1 2 3 4 5 6 
#
# 1 116.0418 54.4700 28.5264 0.0000 0.0000 0.0000
# 2 54.4700 116.0418 28.5264 0.0000 0.0000 0.0000
# 3 28.5264 28.5264 82.2118 0.0000 0.0000 0.0000
# 4 0.0000 0.0000 0.0000 20.0848 0.0000 0.0000
# 5 0.0000 0.0000 0.0000 0.0000 20.0848 0.0000
# 6 0.0000 0.0000 0.0000 0.0000 0.0000 30.7859
#
#
#
# Elastic Compliance Matrix: (Units=1/GPa)
#
#
# Indices 1 2 3 4 5 6 
#
# 1 0.011438 -0.004803 -0.002302 0.000000 0.000000 0.000000
# 2 -0.004803 0.011438 -0.002302 0.000000 0.000000 0.000000
# 3 -0.002302 -0.002302 0.013761 0.000000 0.000000 0.000000
# 4 0.000000 0.000000 0.000000 0.049789 0.000000 0.000000
# 5 0.000000 0.000000 0.000000 0.000000 0.049789 0.000000
# 6 0.000000 0.000000 0.000000 0.000000 0.000000 0.032482
#
#
# Mechanical properties :
#
#
# Convention : Reuss Voigt Hill
#
# Bulk Modulus (GPa) = 56.10916 59.70457 57.90686
# Shear Modulus (GPa) = 25.84596 27.70928 26.77762
#
# Velocity S-wave (km/s) = 3.66760 3.79751 3.73312
# Velocity P-wave (km/s) = 6.86561 7.09231 6.97988
#
# Compressibility (1/GPa) = 0.01782240
#
# Stress axis : x y z
#
# Youngs Moduli (GPa) = 87.42706 87.42706 72.66688
#
# Poissons Ratio (x) = 0.41992 0.16730
# Poissons Ratio (y) = 0.41992 0.16730
# Poissons Ratio (z) = 0.20128 0.20128
#
# Static dielectric constant tensor:
#      x y z
#    x 3.430600 0.000000 0.000000 
#    y 0.000000 3.430600 0.000000 
#    z 0.000000 0.000000 3.501020 
# 
# 
# High freq. dielectric constant tensor:
#      x y z
#    x 1.735850 0.000000 0.000000 
#    y 0.000000 1.735850 0.000000 
#    z 0.000000 0.000000 1.747420 
# 
# From -- ./inp_files/4318.got.cif
#   From: 2010.03.12/outbox.cif.g09.slc.cpg/sg192_3_cif.got.tgz:4318.got - 2010.04.01 12:16:15.
