data_PCOD8329406
_publ_section_title
;
Structure prediction by ZEFSAII (Michael W. Deem and Ramdas Pophale) SiO2 
 PCOD8329406
Probable space group: P 6/M C C
;
_chemical_formula_sum "Si O2"
_cell_formula_units_Z 84
_cell_length_a 13.647018
_cell_length_b 13.647018
_cell_length_c 30.493980
_cell_angle_alpha 90.000000
_cell_angle_beta 90.000000
_cell_angle_gamma 120.000000
_cell_volume 4918.359522
_symmetry_space_group_name_H-M "P 6/M C C"
_symmetry_group_IT_number 192
_symmetry_cell_setting 'hexagonal'
loop_
_space_group_symop_operation_xyz
x,y,z
x-y,x,z
-y,x-y,z
-x,-y,z
-x+y,-x,z
y,-x+y,z
x-y,-y,1/2-z
-x,-x+y,1/2-z
y,x,1/2-z
-y,-x,1/2-z
-x+y,y,1/2-z
x,x-y,1/2-z
-x,-y,-z
-x+y,-x,-z
y,-x+y,-z
x,y,-z
x-y,x,-z
-y,x-y,-z
-x+y,y,1/2+z
x,x-y,1/2+z
-y,-x,1/2+z
y,x,1/2+z
x-y,-y,1/2+z
-x,-x+y,1/2+z
loop_
_atom_site_type_symbol
_atom_site_label
_atom_site_fract_x
_atom_site_fract_y
_atom_site_fract_z
Si Si1 0.541087 0.667051 0.593886
Si Si2 0.332820 0.454333 0.371374
Si Si3 0.332986 0.539982 0.000000
Si Si4 0.121049 0.453771 0.767587
O O1 0.631929 0.630922 0.607177
O O2 0.417972 0.582298 0.613720
O O3 0.584393 0.791329 0.612905
O O4 0.531477 0.666887 0.541495
O O5 0.337139 0.450909 0.319499
O O6 0.444509 0.666426 0.000000
O O7 0.209915 0.419830 0.750000
O O8 0.155414 0.577707 0.750000
O O9 0.000000 0.359832 0.750000
#
# Coordination Sequence:
#
# PCOD8329406 Si02
#       4
#    24  24  12  24
#     4  11  21  34  55  76 110 140 177 223 263 330
#     4  11  21  35  53  78 105 143 176 218 274 316
#     4  10  18  35  53  79 112 138 179 213 270 320
#     4  11  21  35  52  77 106 139 179 221 266 323
#
# _framework density 17.078865
#
# number of rings (size 3 to 8) (size 9 to 14) (size 15 to 20)
#    0.286    0.857    2.857    7.714    0.000    3.429 
#    0.000    0.000    0.000    0.857    0.000    4.000 
#    0.000    2.286    0.000    0.000    0.000    0.000 
#
# Total GULP energy -1041888.325042 kJ/mol
# GULP energy per Si atom -12403.432441 kJ/mol
# Density = 1.703999 g / cm^3
# Si number density = 17.078865 Si / 1000 Ang^3
#
#
#
# Elastic Constant Matrix: (Units=GPa)
#
#
# Indices 1 2 3 4 5 6 
#
# 1 109.2651 61.5219 56.1863 0.0000 0.0000 0.0000
# 2 61.5219 109.2651 56.1863 0.0000 0.0000 0.0000
# 3 56.1863 56.1863 198.8247 0.0000 0.0000 0.0000
# 4 0.0000 0.0000 0.0000 21.0421 0.0000 0.0000
# 5 0.0000 0.0000 0.0000 0.0000 21.0421 0.0000
# 6 0.0000 0.0000 0.0000 0.0000 0.0000 23.8716
#
#
#
# Elastic Compliance Matrix: (Units=1/GPa)
#
#
# Indices 1 2 3 4 5 6 
#
# 1 0.014069 -0.006876 -0.002033 0.000000 0.000000 0.000000
# 2 -0.006876 0.014069 -0.002033 0.000000 0.000000 0.000000
# 3 -0.002033 -0.002033 0.006178 0.000000 0.000000 0.000000
# 4 0.000000 0.000000 0.000000 0.047524 0.000000 0.000000
# 5 0.000000 0.000000 0.000000 0.000000 0.047524 0.000000
# 6 0.000000 0.000000 0.000000 0.000000 0.000000 0.041891
#
#
# Mechanical properties :
#
#
# Convention : Reuss Voigt Hill
#
# Bulk Modulus (GPa) = 80.42939 85.01598 82.72268
# Shear Modulus (GPa) = 25.34441 29.42186 27.38313
#
# Velocity S-wave (km/s) = 3.85640 4.15505 4.00851
# Velocity P-wave (km/s) = 8.18684 8.53849 8.36451
#
# Compressibility (1/GPa) = 0.01243327
#
# Stress axis : x y z
#
# Youngs Moduli (GPa) = 71.07822 71.07822 161.85591
#
# Poissons Ratio (x) = 0.48876 0.32898
# Poissons Ratio (y) = 0.48876 0.32898
# Poissons Ratio (z) = 0.14447 0.14447
#
# Static dielectric constant tensor:
#      x y z
#    x 3.054830 0.000000 0.000000 
#    y 0.000000 3.054830 0.000000 
#    z 0.000000 0.000000 3.396800 
# 
# 
# High freq. dielectric constant tensor:
#      x y z
#    x 1.641790 0.000000 0.000000 
#    y 0.000000 1.641790 0.000000 
#    z 0.000000 0.000000 1.687640 
# 
# From -- ./inp_files/6300.got.cif
#   From: 2010.03.12/outbox.cif.g09.slc.cpg/sg192_4_cif.got.tgz:6300.got - 2010.04.01 12:16:15.
