data_PCOD8329840
_publ_section_title
;
Structure prediction by ZEFSAII (Michael W. Deem and Ramdas Pophale) SiO2 
 PCOD8329840
Probable space group: P 63/M C M
;
_chemical_formula_sum "Si O2"
_cell_formula_units_Z 60
_cell_length_a 13.174159
_cell_length_b 13.174159
_cell_length_c 22.211147
_cell_angle_alpha 90.000000
_cell_angle_beta 90.000000
_cell_angle_gamma 120.000000
_cell_volume 3338.469550
_symmetry_space_group_name_H-M "P 63/M C M"
_symmetry_group_IT_number 193
_symmetry_cell_setting 'hexagonal'
loop_
_space_group_symop_operation_xyz
x,y,z
x-y,x,1/2+z
-y,x-y,z
-x,-y,1/2+z
-x+y,-x,z
y,-x+y,1/2+z
x-y,-y,1/2-z
-x,-x+y,1/2-z
y,x,1/2-z
-y,-x,-z
-x+y,y,-z
x,x-y,-z
-x,-y,-z
-x+y,-x,1/2-z
y,-x+y,-z
x,y,1/2-z
x-y,x,-z
-y,x-y,1/2-z
-x+y,y,1/2+z
x,x-y,1/2+z
-y,-x,1/2+z
y,x,z
x-y,-y,z
-x,-x+y,z
loop_
_atom_site_type_symbol
_atom_site_label
_atom_site_fract_x
_atom_site_fract_y
_atom_site_fract_z
Si Si1 0.689782 0.137050 0.120209
Si Si2 0.478679 0.346923 0.817543
Si Si3 0.258353 0.741648 0.500000
O O1 0.785522 0.208292 0.171499
O O2 0.580673 0.157939 0.133759
O O3 0.649745 0.000000 0.122308
O O4 0.759601 0.196640 0.058197
O O5 0.531580 0.378994 0.750000
O O6 0.373905 0.373905 0.825188
O O7 0.199417 0.599709 0.500000
#
# Coordination Sequence:
#
# PCOD8329840 Si02
#       3
#    24  24  12
#     4  11  21  34  55  80 108 143 178 217 268 321
#     4  10  20  34  53  78 109 141 174 217 267 320
#     4  10  18  34  49  72 105 140 172 210 258 308
#
# _framework density 17.972307000000001
#
# number of rings (size 3 to 8) (size 9 to 14) (size 15 to 20)
#    0.400    1.200    4.000    2.000    0.000    4.800 
#    0.000    0.000    0.000    0.800    0.000    1.400 
#    0.000    0.000    0.000    0.000    0.000    0.000 
#
# Total GULP energy -743311.533675 kJ/mol
# GULP energy per Si atom -12388.525561 kJ/mol
# Density = 1.793140 g / cm^3
# Si number density = 17.972307 Si / 1000 Ang^3
#
#
#
# Elastic Constant Matrix: (Units=GPa)
#
#
# Indices 1 2 3 4 5 6 
#
# 1 95.0145 47.3427 44.2874 0.0000 0.0000 0.0000
# 2 47.3427 95.0145 44.2874 0.0000 0.0000 0.0000
# 3 44.2874 44.2874 104.1442 0.0000 0.0000 0.0000
# 4 0.0000 0.0000 0.0000 22.8677 0.0000 0.0000
# 5 0.0000 0.0000 0.0000 0.0000 22.8677 0.0000
# 6 0.0000 0.0000 0.0000 0.0000 0.0000 23.8359
#
#
#
# Elastic Compliance Matrix: (Units=1/GPa)
#
#
# Indices 1 2 3 4 5 6 
#
# 1 0.015264 -0.005712 -0.004062 0.000000 0.000000 0.000000
# 2 -0.005712 0.015264 -0.004062 0.000000 0.000000 0.000000
# 3 -0.004062 -0.004062 0.013057 0.000000 0.000000 0.000000
# 4 0.000000 0.000000 0.000000 0.043730 0.000000 0.000000
# 5 0.000000 0.000000 0.000000 0.000000 0.043730 0.000000
# 6 0.000000 0.000000 0.000000 0.000000 0.000000 0.041953
#
#
# Mechanical properties :
#
#
# Convention : Reuss Voigt Hill
#
# Bulk Modulus (GPa) = 62.84255 62.88981 62.86618
# Shear Modulus (GPa) = 24.27471 24.46463 24.36967
#
# Velocity S-wave (km/s) = 3.67914 3.69350 3.68633
# Velocity P-wave (km/s) = 7.28631 7.29780 7.29206
#
# Compressibility (1/GPa) = 0.01591279
#
# Stress axis : x y z
#
# Youngs Moduli (GPa) = 65.51214 65.51214 76.58857
#
# Poissons Ratio (x) = 0.37423 0.31110
# Poissons Ratio (y) = 0.37423 0.31110
# Poissons Ratio (z) = 0.26611 0.26611
#
# Static dielectric constant tensor:
#      x y z
#    x 3.054710 0.000000 0.000000 
#    y 0.000000 3.054710 0.000000 
#    z 0.000000 0.000000 3.454970 
# 
# 
# High freq. dielectric constant tensor:
#      x y z
#    x 1.661110 0.000000 0.000000 
#    y 0.000000 1.661110 0.000000 
#    z 0.000000 0.000000 1.714940 
# 
# From -- ./inp_files/5834.got.cif
#   From: 2010.03.12/outbox.cif.g09.slc.cpg/sg193_3_cif.got.tgz:5834.got - 2010.04.01 12:20:39.
