data_PCOD8329998
_publ_section_title
;
Structure prediction by ZEFSAII (Michael W. Deem and Ramdas Pophale) SiO2 
 PCOD8329998
Probable space group: P 63/M C M
;
_chemical_formula_sum "Si O2"
_cell_formula_units_Z 144
_cell_length_a 32.154338
_cell_length_b 32.154338
_cell_length_c 9.089331
_cell_angle_alpha 90.000000
_cell_angle_beta 90.000000
_cell_angle_gamma 120.000000
_cell_volume 8138.449934
_symmetry_space_group_name_H-M "P 63/M C M"
_symmetry_group_IT_number 193
_symmetry_cell_setting 'hexagonal'
loop_
_space_group_symop_operation_xyz
x,y,z
x-y,x,1/2+z
-y,x-y,z
-x,-y,1/2+z
-x+y,-x,z
y,-x+y,1/2+z
x-y,-y,1/2-z
-x,-x+y,1/2-z
y,x,1/2-z
-y,-x,-z
-x+y,y,-z
x,x-y,-z
-x,-y,-z
-x+y,-x,1/2-z
y,-x+y,-z
x,y,1/2-z
x-y,x,-z
-y,x-y,1/2-z
-x+y,y,1/2+z
x,x-y,1/2+z
-y,-x,1/2+z
y,x,z
x-y,-y,z
-x,-x+y,z
loop_
_atom_site_type_symbol
_atom_site_label
_atom_site_fract_x
_atom_site_fract_y
_atom_site_fract_z
Si Si1 0.195483 0.474867 0.919446
Si Si2 0.944832 0.807228 0.577856
Si Si3 0.714057 0.615455 0.577644
Si Si4 0.723827 0.944747 0.418718
Si Si5 0.561714 0.944665 0.920445
Si Si6 0.862554 0.473399 0.076448
O O1 0.207376 0.476760 0.750000
O O2 0.153764 0.421470 0.964689
O O3 0.177795 0.512342 0.959055
O O4 0.244904 0.489807 0.000000
O O5 0.913642 0.827284 0.500000
O O6 0.935604 0.804188 0.750000
O O7 0.928696 0.754042 0.519862
O O8 0.000000 0.843574 0.536779
O O9 0.700312 0.610998 0.750000
O O10 0.756126 0.668420 0.536431
O O11 0.667108 0.603689 0.485058
O O12 0.732508 0.936187 0.250000
O O13 0.739324 0.000000 0.446218
O O14 0.553659 0.929331 0.750000
O O15 0.576965 0.000000 0.939976
O O16 0.512545 0.913525 0.009167
O O17 0.869277 0.470411 0.250000
O O18 0.844833 0.422417 0.000000
#
# Coordination Sequence:
#
# PCOD8329998 Si02
#       6
#    24  24  24  24  24  24
#     4   9  19  34  52  75 101 129 162 200 244 296
#     4  10  21  36  54  76 101 130 165 206 253 305
#     4   9  18  32  49  72 103 139 178 215 251 289
#     4   9  17  30  49  72 101 139 178 214 252 292
#     4  10  20  32  48  73 104 139 178 215 250 290
#     4  10  21  37  56  77 100 129 166 207 255 307
#
# _framework density 17.693788000000001
#
# number of rings (size 3 to 8) (size 9 to 14) (size 15 to 20)
#    0.000    2.500    0.000    3.000    0.000    8.000 
#    0.000    3.333    0.000    0.500    0.000    0.000 
#    0.000    0.000    0.000    0.000    0.000    0.000 
#
# Total GULP energy -1785908.410471 kJ/mol
# GULP energy per Si atom -12402.141739 kJ/mol
# Density = 1.765352 g / cm^3
# Si number density = 17.693788 Si / 1000 Ang^3
#
#
#
# Elastic Constant Matrix: (Units=GPa)
#
#
# Indices 1 2 3 4 5 6 
#
# 1 102.3881 68.7915 59.8650 0.0000 0.0000 0.0000
# 2 68.7915 102.3881 59.8650 0.0000 0.0000 0.0000
# 3 59.8650 59.8650 93.4074 0.0000 0.0000 0.0000
# 4 0.0000 0.0000 0.0000 31.8525 0.0000 0.0000
# 5 0.0000 0.0000 0.0000 0.0000 31.8525 0.0000
# 6 0.0000 0.0000 0.0000 0.0000 0.0000 16.7983
#
#
#
# Elastic Compliance Matrix: (Units=1/GPa)
#
#
# Indices 1 2 3 4 5 6 
#
# 1 0.020177 -0.009588 -0.006786 0.000000 0.000000 0.000000
# 2 -0.009588 0.020177 -0.006786 0.000000 0.000000 0.000000
# 3 -0.006786 -0.006786 0.019404 0.000000 0.000000 0.000000
# 4 0.000000 0.000000 0.000000 0.031395 0.000000 0.000000
# 5 0.000000 0.000000 0.000000 0.000000 0.031395 0.000000
# 6 0.000000 0.000000 0.000000 0.000000 0.000000 0.059530
#
#
# Mechanical properties :
#
#
# Convention : Reuss Voigt Hill
#
# Bulk Modulus (GPa) = 74.42401 75.02518 74.72460
# Shear Modulus (GPa) = 21.47065 23.41148 22.44107
#
# Velocity S-wave (km/s) = 3.48725 3.64146 3.56519
# Velocity P-wave (km/s) = 7.63990 7.75721 7.69878
#
# Compressibility (1/GPa) = 0.01343652
#
# Stress axis : x y z
#
# Youngs Moduli (GPa) = 49.56246 49.56246 51.53540
#
# Poissons Ratio (x) = 0.47522 0.34972
# Poissons Ratio (y) = 0.47522 0.34972
# Poissons Ratio (z) = 0.33633 0.33633
#
# Static dielectric constant tensor:
#      x y z
#    x 3.197470 0.000000 0.000000 
#    y 0.000000 3.197470 0.000000 
#    z 0.000000 0.000000 3.325660 
# 
# 
# High freq. dielectric constant tensor:
#      x y z
#    x 1.673890 0.000000 0.000000 
#    y 0.000000 1.673890 0.000000 
#    z 0.000000 0.000000 1.691410 
# 
# From -- ./inp_files/1551.got.cif
#   From: 2010.03.12/outbox.cif.g09.slc.cpg/sg193_1_cif.got.tgz:1551.got - 2010.04.01 12:20:39.
