data_PCOD8329868
_publ_section_title
;
Structure prediction by ZEFSAII (Michael W. Deem and Ramdas Pophale) SiO2 
 PCOD8329868
Probable space group: P 63/M C M
;
_chemical_formula_sum "Si O2"
_cell_formula_units_Z 164
_cell_length_a 20.671611
_cell_length_b 20.671611
_cell_length_c 25.402832
_cell_angle_alpha 90.000000
_cell_angle_beta 90.000000
_cell_angle_gamma 120.000000
_cell_volume 9400.726449
_symmetry_space_group_name_H-M "P 63/M C M"
_symmetry_group_IT_number 193
_symmetry_cell_setting 'hexagonal'
loop_
_space_group_symop_operation_xyz
x,y,z
x-y,x,1/2+z
-y,x-y,z
-x,-y,1/2+z
-x+y,-x,z
y,-x+y,1/2+z
x-y,-y,1/2-z
-x,-x+y,1/2-z
y,x,1/2-z
-y,-x,-z
-x+y,y,-z
x,x-y,-z
-x,-y,-z
-x+y,-x,1/2-z
y,-x+y,-z
x,y,1/2-z
x-y,x,-z
-y,x-y,1/2-z
-x+y,y,1/2+z
x,x-y,1/2+z
-y,-x,1/2+z
y,x,z
x-y,-y,z
-x,-x+y,z
loop_
_atom_site_type_symbol
_atom_site_label
_atom_site_fract_x
_atom_site_fract_y
_atom_site_fract_z
Si Si1 0.084393 0.164910 0.750000
Si Si2 0.684719 0.472249 0.809927
Si Si3 0.333334 0.666668 0.561000
Si Si4 0.442626 0.797348 0.871040
Si Si5 0.196335 0.831288 0.689703
Si Si6 0.698229 0.610383 0.378574
Si Si7 0.864854 0.086330 0.358506
Si Si8 0.728415 0.916184 0.545308
O O1 0.090407 0.090407 0.750000
O O2 0.120774 0.207066 0.804953
O O3 0.000000 0.147016 0.750000
O O4 0.662386 0.447598 0.750000
O O5 0.744047 0.447905 0.827327
O O6 0.610165 0.435994 0.845354
O O7 0.724127 0.561045 0.816715
O O8 0.333334 0.666667 0.500000
O O9 0.343975 0.597704 0.578587
O O10 0.521042 0.868815 0.888252
O O11 0.181798 0.844212 0.750000
O O12 0.126320 0.751844 0.671461
O O13 0.203142 0.897547 0.651721
O O14 0.641792 0.641792 0.367221
O O15 0.748580 0.650256 0.430132
O O16 0.911643 0.130696 0.409424
O O17 0.837653 0.000000 0.367538
O O18 0.711315 0.855658 0.500000
O O19 0.773873 0.000000 0.521484
#
# Coordination Sequence:
#
# PCOD8329868 Si02
#       8
#    12  24   8  24  24  24  24  24
#     4  10  19  30  46  68  94 122 154 192 240 296
#     4   9  16  27  47  70  99 130 164 206 246 292
#     4   9  18  30  49  74  94 120 159 204 247 293
#     4   9  17  30  48  72  98 128 165 203 251 300
#     4   9  17  30  45  69  98 128 165 204 244 289
#     4   9  19  33  49  71 100 131 164 203 249 302
#     4  10  19  32  50  70  95 129 164 201 247 301
#     4  10  20  35  54  76  99 127 167 213 258 305
#
# _framework density 17.445461000000002
#
# number of rings (size 3 to 8) (size 9 to 14) (size 15 to 20)
#    0.000    2.634    0.732    1.683    0.000    2.049 
#    0.000    0.732    0.000    4.829    0.000    0.000 
#    0.000    0.000    0.000    0.000    0.000    0.000 
#
# Total GULP energy -2032381.587712 kJ/mol
# GULP energy per Si atom -12392.570657 kJ/mol
# Density = 1.740575 g / cm^3
# Si number density = 17.445461 Si / 1000 Ang^3
#
#
#
# Elastic Constant Matrix: (Units=GPa)
#
#
# Indices 1 2 3 4 5 6 
#
# 1 81.5361 40.8638 29.1933 0.0000 0.0000 0.0001
# 2 40.8638 81.5360 29.1930 0.0000 0.0000 0.0001
# 3 29.1933 29.1930 82.9726 0.0001 -0.0001 0.0001
# 4 0.0000 0.0000 0.0001 21.2026 0.0000 0.0000
# 5 0.0000 0.0000 -0.0001 0.0000 21.2024 0.0000
# 6 0.0001 0.0001 0.0001 0.0000 0.0000 20.3367
#
#
#
# Elastic Compliance Matrix: (Units=1/GPa)
#
#
# Indices 1 2 3 4 5 6 
#
# 1 0.017202 -0.007385 -0.003454 0.000000 0.000000 0.000000
# 2 -0.007385 0.017202 -0.003454 0.000000 0.000000 0.000000
# 3 -0.003454 -0.003454 0.014483 0.000000 0.000000 0.000000
# 4 0.000000 0.000000 0.000000 0.047164 0.000000 0.000000
# 5 0.000000 0.000000 0.000000 0.000000 0.047164 0.000000
# 6 0.000000 0.000000 0.000000 0.000000 0.000000 0.049172
#
#
# Mechanical properties :
#
#
# Convention : Reuss Voigt Hill
#
# Bulk Modulus (GPa) = 49.25822 49.39387 49.32605
# Shear Modulus (GPa) = 21.95474 22.33464 22.14469
#
# Velocity S-wave (km/s) = 3.55135 3.58195 3.56668
# Velocity P-wave (km/s) = 6.71662 6.74403 6.73034
#
# Compressibility (1/GPa) = 0.02030118
#
# Stress axis : x y z
#
# Youngs Moduli (GPa) = 58.13196 58.13202 69.04706
#
# Poissons Ratio (x) = 0.42928 0.23851
# Poissons Ratio (y) = 0.42928 0.23850
# Poissons Ratio (z) = 0.20081 0.20080
#
# Static dielectric constant tensor:
#      x y z
#    x 3.264650 0.000000 0.000000 
#    y 0.000000 3.264650 0.000000 
#    z 0.000000 0.000000 3.149320 
# 
# 
# High freq. dielectric constant tensor:
#      x y z
#    x 1.664010 0.000000 0.000000 
#    y 0.000000 1.664010 0.000000 
#    z 0.000000 0.000000 1.666470 
# 
# From -- ./inp_files/7741.got.cif
#   From: 2010.03.12/outbox.cif.g09.slc.cpg/sg193_4_cif.got.tgz:7741.got - 2010.04.01 12:20:39.
