data_PCOD8329370
_publ_section_title
;
Structure prediction by ZEFSAII (Michael W. Deem and Ramdas Pophale) SiO2 
 PCOD8329370
Probable space group: P 6/M C C
;
_chemical_formula_sum "Si O2"
_cell_formula_units_Z 164
_cell_length_a 21.850352
_cell_length_b 21.850352
_cell_length_c 22.565735
_cell_angle_alpha 90.000000
_cell_angle_beta 90.000000
_cell_angle_gamma 120.000000
_cell_volume 9330.329707
_symmetry_space_group_name_H-M "P 6/M C C"
_symmetry_group_IT_number 192
_symmetry_cell_setting 'hexagonal'
loop_
_space_group_symop_operation_xyz
x,y,z
x-y,x,z
-y,x-y,z
-x,-y,z
-x+y,-x,z
y,-x+y,z
x-y,-y,1/2-z
-x,-x+y,1/2-z
y,x,1/2-z
-y,-x,1/2-z
-x+y,y,1/2-z
x,x-y,1/2-z
-x,-y,-z
-x+y,-x,-z
y,-x+y,-z
x,y,-z
x-y,x,-z
-y,x-y,-z
-x+y,y,1/2+z
x,x-y,1/2+z
-y,-x,1/2+z
y,x,1/2+z
x-y,-y,1/2+z
-x,-x+y,1/2+z
loop_
_atom_site_type_symbol
_atom_site_label
_atom_site_fract_x
_atom_site_fract_y
_atom_site_fract_z
Si Si1 0.158917 0.125385 0.500000
Si Si2 0.333334 0.666667 0.429254
Si Si3 0.717781 0.639279 0.569621
Si Si4 0.040355 0.255160 0.607007
Si Si5 0.186563 0.640502 0.070680
Si Si6 0.846799 0.900233 0.318145
Si Si7 0.427443 0.492232 0.570476
Si Si8 0.764637 0.162757 0.569076
O O1 0.134767 0.043451 0.500000
O O2 0.208116 0.161034 0.556376
O O3 0.333334 0.666668 0.500000
O O4 0.338056 0.737106 0.404107
O O5 0.716763 0.656846 0.500000
O O6 0.748909 0.712918 0.606188
O O7 0.639919 0.580701 0.592866
O O8 0.766713 0.605197 0.581367
O O9 0.062747 0.229920 0.667423
O O10 0.096645 0.336786 0.602163
O O11 0.133814 0.561841 0.094597
O O12 0.169239 0.699435 0.094750
O O13 0.185733 0.641269 0.000000
O O14 0.896763 0.872605 0.347775
O O15 0.851718 0.925859 0.250000
O O16 0.500000 0.500000 0.594426
O O17 0.424839 0.490976 0.500000
O O18 0.754311 0.145140 0.500000
#
# Coordination Sequence:
#
# PCOD8329370 Si02
#       8
#    12   8  24  24  24  24  24  24
#     4  12  23  34  46  64  89 118 150 188 232 278
#     4   9  15  24  36  54  78 114 160 200 232 261
#     4  10  18  28  41  60  86 122 159 197 237 286
#     4  12  21  32  48  66  92 120 154 193 237 286
#     4   9  16  25  38  56  82 120 165 204 232 266
#     4  10  21  37  55  71  87 112 148 192 239 288
#     4   9  16  25  37  53  79 115 162 201 229 264
#     4  10  18  28  41  60  87 121 158 190 230 277
#
# _framework density 17.577085
#
# number of rings (size 3 to 8) (size 9 to 14) (size 15 to 20)
#    0.000    1.902    1.463    4.610    0.000    6.439 
#    0.000    1.463    0.000    0.000    0.000    0.000 
#    0.000    0.000    0.000   86.927    0.000    7.610 
#
# Total GULP energy -2031933.596935 kJ/mol
# GULP energy per Si atom -12389.839006 kJ/mol
# Density = 1.753708 g / cm^3
# Si number density = 17.577085 Si / 1000 Ang^3
#
#
#
# Elastic Constant Matrix: (Units=GPa)
#
#
# Indices 1 2 3 4 5 6 
#
# 1 128.6618 47.9664 18.2799 0.0000 0.0000 0.0000
# 2 47.9664 128.6618 18.2800 0.0000 0.0000 -0.0001
# 3 18.2799 18.2800 16.2441 0.0000 0.0000 0.0000
# 4 0.0000 0.0000 0.0000 13.4341 0.0000 0.0000
# 5 0.0000 0.0000 0.0000 0.0000 13.4340 0.0000
# 6 0.0000 -0.0001 0.0000 0.0000 0.0000 40.3475
#
#
#
# Elastic Compliance Matrix: (Units=1/GPa)
#
#
# Indices 1 2 3 4 5 6 
#
# 1 0.009887 -0.002506 -0.008306 0.000000 0.000000 0.000000
# 2 -0.002506 0.009887 -0.008306 0.000000 0.000000 0.000000
# 3 -0.008306 -0.008306 0.080255 0.000000 0.000000 0.000000
# 4 0.000000 0.000000 0.000000 0.074437 0.000000 0.000000
# 5 0.000000 0.000000 0.000000 0.000000 0.074438 0.000000
# 6 0.000000 0.000000 0.000000 0.000000 0.000000 0.024785
#
#
# Mechanical properties :
#
#
# Convention : Reuss Voigt Hill
#
# Bulk Modulus (GPa) = 16.18310 49.18004 32.68157
# Shear Modulus (GPa) = 15.03667 26.04587 20.54127
#
# Velocity S-wave (km/s) = 2.92802 3.85360 3.42225
# Velocity P-wave (km/s) = 4.54510 6.91670 5.85229
#
# Compressibility (1/GPa) = 0.06179284
#
# Stress axis : x y z
#
# Youngs Moduli (GPa) = 101.14755 101.14747 12.46034
#
# Poissons Ratio (x) = 0.25345 0.10349
# Poissons Ratio (y) = 0.25345 0.10349
# Poissons Ratio (z) = 0.84012 0.84012
#
# Static dielectric constant tensor:
#      x y z
#    x 3.677970 0.000000 0.000000 
#    y 0.000000 3.677970 0.000000 
#    z 0.000000 0.000000 2.695310 
# 
# 
# High freq. dielectric constant tensor:
#      x y z
#    x 1.700570 0.000000 0.000000 
#    y 0.000000 1.700570 0.000000 
#    z 0.000000 0.000000 1.583860 
# 
# From -- ./inp_files/6656.got.cif
#   From: 2010.03.12/outbox.cif.g09.slc.cpg/sg192_4_cif.got.tgz:6656.got - 2010.04.01 12:16:15.
