data_PCOD8329318
_publ_section_title
;
Structure prediction by ZEFSAII (Michael W. Deem and Ramdas Pophale) SiO2 
 PCOD8329318
Probable space group: P 6/M M M
;
_chemical_formula_sum "Si O2"
_cell_formula_units_Z 96
_cell_length_a 22.020045
_cell_length_b 22.020045
_cell_length_c 14.341077
_cell_angle_alpha 90.000000
_cell_angle_beta 90.000000
_cell_angle_gamma 120.000000
_cell_volume 6022.111658
_symmetry_space_group_name_H-M "P 6/M M M"
_symmetry_group_IT_number 191
_symmetry_cell_setting 'hexagonal'
loop_
_space_group_symop_operation_xyz
x,y,z
x-y,x,z
-y,x-y,z
-x,-y,z
-x+y,-x,z
y,-x+y,z
x-y,-y,-z
-x,-x+y,-z
y,x,-z
-y,-x,-z
-x+y,y,-z
x,x-y,-z
-x,-y,-z
-x+y,-x,-z
y,-x+y,-z
x,y,-z
x-y,x,-z
-y,x-y,-z
-x+y,y,z
x,x-y,z
-y,-x,z
y,x,z
x-y,-y,z
-x,-x+y,z
loop_
_atom_site_type_symbol
_atom_site_label
_atom_site_fract_x
_atom_site_fract_y
_atom_site_fract_z
Si Si1 0.588149 0.722585 0.103114
Si Si2 0.295497 0.077483 0.749996
Si Si3 0.523166 0.333896 0.750004
Si Si4 0.588142 0.865561 0.603115
O O1 0.581499 0.790750 0.094370
O O2 0.659060 0.742930 0.158749
O O3 0.519879 0.665105 0.159084
O O4 0.590476 0.693710 0.000000
O O5 0.271177 0.135589 0.749993
O O6 0.340945 0.083871 0.658745
O O7 0.226895 0.000000 0.749993
O O8 0.532073 0.266037 0.750005
O O9 0.598559 0.401442 0.750009
O O10 0.480127 0.334898 0.659087
O O11 0.590466 0.896760 0.500000
O O12 0.581495 0.790748 0.594373
#
# Coordination Sequence:
#
# PCOD8329318 Si02
#       4
#    24  24  24  24
#     4   8  15  28  43  59  82 113 148 183 215 246
#     4   9  17  29  47  70  91 110 135 169 207 247
#     4   9  16  25  39  61  88 116 146 182 225 269
#     4   8  15  28  43  59  82 113 148 183 215 246
#
# _framework density 15.941252
#
# number of rings (size 3 to 8) (size 9 to 14) (size 15 to 20)
#    0.000    3.500    0.000    3.250    0.000    2.000 
#    0.000    0.000    0.000   15.250    0.000   14.000 
#    0.000    0.000    0.000   12.500    0.000    0.000 
#
# Total GULP energy -1189461.169240 kJ/mol
# GULP energy per Si atom -12390.220513 kJ/mol
# Density = 1.590497 g / cm^3
# Si number density = 15.941252 Si / 1000 Ang^3
#
#
#
# Elastic Constant Matrix: (Units=GPa)
#
#
# Indices 1 2 3 4 5 6 
#
# 1 76.3407 42.1528 37.1895 0.0000 0.0000 0.0000
# 2 42.1528 76.3407 37.1895 0.0000 0.0000 0.0000
# 3 37.1895 37.1895 150.4427 0.0000 0.0000 0.0000
# 4 0.0000 0.0000 0.0000 7.1451 0.0000 0.0000
# 5 0.0000 0.0000 0.0000 0.0000 7.1451 0.0000
# 6 0.0000 0.0000 0.0000 0.0000 0.0000 17.0939
#
#
#
# Elastic Compliance Matrix: (Units=1/GPa)
#
#
# Indices 1 2 3 4 5 6 
#
# 1 0.019620 -0.009630 -0.002469 0.000000 0.000000 0.000000
# 2 -0.009630 0.019620 -0.002469 0.000000 0.000000 0.000000
# 3 -0.002469 -0.002469 0.007868 0.000000 0.000000 0.000000
# 4 0.000000 0.000000 0.000000 0.139956 0.000000 0.000000
# 5 0.000000 0.000000 0.000000 0.000000 0.139956 0.000000
# 6 0.000000 0.000000 0.000000 0.000000 0.000000 0.058500
#
#
# Mechanical properties :
#
#
# Convention : Reuss Voigt Hill
#
# Bulk Modulus (GPa) = 55.65113 59.57640 57.61377
# Shear Modulus (GPa) = 11.88645 18.71632 15.30139
#
# Velocity S-wave (km/s) = 2.73361 3.43020 3.10152
# Velocity P-wave (km/s) = 6.70443 7.28986 7.00326
#
# Compressibility (1/GPa) = 0.01796909
#
# Stress axis : x y z
#
# Youngs Moduli (GPa) = 50.96913 50.96913 127.09865
#
# Poissons Ratio (x) = 0.49085 0.31385
# Poissons Ratio (y) = 0.49085 0.31385
# Poissons Ratio (z) = 0.12586 0.12586
#
# Static dielectric constant tensor:
#      x y z
#    x 2.684670 0.000000 0.000000 
#    y 0.000000 2.684670 0.000000 
#    z 0.000000 0.000000 4.309810 
# 
# 
# High freq. dielectric constant tensor:
#      x y z
#    x 1.580280 0.000000 0.000000 
#    y 0.000000 1.580280 0.000000 
#    z 0.000000 0.000000 1.627500 
# 
# From -- ./inp_files/4170.got.cif
#   From: 2010.03.12/outbox.cif.g09.slc.cpg/sg191_3_cif.got.tgz:4170.got - 2010.04.01 12:09:02.
