data_PCOD8329199
_publ_section_title
;
Structure prediction by ZEFSAII (Michael W. Deem and Ramdas Pophale) SiO2 
 PCOD8329199
Probable space group: P 6/M M M
;
_chemical_formula_sum "Si O2"
_cell_formula_units_Z 108
_cell_length_a 18.537786
_cell_length_b 18.537786
_cell_length_c 22.350382
_cell_angle_alpha 90.000000
_cell_angle_beta 90.000000
_cell_angle_gamma 120.000000
_cell_volume 6651.679429
_symmetry_space_group_name_H-M "P 6/M M M"
_symmetry_group_IT_number 191
_symmetry_cell_setting 'hexagonal'
loop_
_space_group_symop_operation_xyz
x,y,z
x-y,x,z
-y,x-y,z
-x,-y,z
-x+y,-x,z
y,-x+y,z
x-y,-y,-z
-x,-x+y,-z
y,x,-z
-y,-x,-z
-x+y,y,-z
x,x-y,-z
-x,-y,-z
-x+y,-x,-z
y,-x+y,-z
x,y,-z
x-y,x,-z
-y,x-y,-z
-x+y,y,z
x,x-y,z
-y,-x,z
y,x,z
x-y,-y,z
-x,-x+y,z
loop_
_atom_site_type_symbol
_atom_site_label
_atom_site_fract_x
_atom_site_fract_y
_atom_site_fract_z
Si Si1 0.461925 0.367206 0.000000
Si Si2 0.191828 0.095914 0.571167
Si Si3 0.808305 0.616610 0.570749
Si Si4 0.905312 0.534507 0.627976
Si Si5 0.500487 0.332734 0.751193
Si Si6 0.170718 0.668182 0.119266
O O1 0.444736 0.312356 0.939445
O O2 0.393368 0.393368 0.000000
O O3 0.555541 0.444460 0.000000
O O4 0.143905 0.143905 0.594693
O O5 0.191654 0.095827 0.500000
O O6 0.287674 0.143837 0.595070
O O7 0.809340 0.618679 0.500000
O O8 0.851851 0.565303 0.591988
O O9 0.874566 0.437283 0.613207
O O10 0.900502 0.545280 0.699621
O O11 0.000000 0.591761 0.607767
O O12 0.496856 0.248428 0.730529
O O13 0.596748 0.403253 0.758026
O O14 0.456384 0.322507 0.816526
O O15 0.149207 0.574604 0.112318
O O16 0.269723 0.730278 0.120148
#
# Coordination Sequence:
#
# PCOD8329199 Si02
#       6
#    12  12  12  24  24  24
#     4   9  17  26  34  50  80 115 146 178 220 268
#     4   9  17  30  51  78 104 128 153 184 227 287
#     4  11  22  37  54  73  98 129 160 195 244 297
#     4  10  21  36  53  73  97 126 162 202 241 283
#     4   9  16  28  46  67  88 114 149 190 234 276
#     4   9  16  25  40  60  83 110 143 183 225 266
#
# _framework density 16.236499999999999
#
# number of rings (size 3 to 8) (size 9 to 14) (size 15 to 20)
#    0.000    2.556    1.111    1.556    0.000    4.889 
#    0.667    6.667    0.000    0.000    0.000    0.000 
#    0.000    0.000    0.000    0.000    0.000    0.000 
#
# Total GULP energy -1337987.121775 kJ/mol
# GULP energy per Si atom -12388.769646 kJ/mol
# Density = 1.619955 g / cm^3
# Si number density = 16.236500 Si / 1000 Ang^3
#
#
#
# Elastic Constant Matrix: (Units=GPa)
#
#
# Indices 1 2 3 4 5 6 
#
# 1 76.3218 41.4125 33.9715 0.0000 0.0000 0.0000
# 2 41.4125 76.3218 33.9715 0.0000 0.0000 0.0000
# 3 33.9715 33.9715 84.9335 0.0000 0.0000 0.0000
# 4 0.0000 0.0000 0.0000 14.9141 0.0000 0.0000
# 5 0.0000 0.0000 0.0000 0.0000 14.9141 0.0000
# 6 0.0000 0.0000 0.0000 0.0000 0.0000 17.4546
#
#
#
# Elastic Compliance Matrix: (Units=1/GPa)
#
#
# Indices 1 2 3 4 5 6 
#
# 1 0.019844 -0.008802 -0.004417 0.000000 0.000000 0.000000
# 2 -0.008802 0.019844 -0.004417 0.000000 0.000000 0.000000
# 3 -0.004417 -0.004417 0.015307 0.000000 0.000000 0.000000
# 4 0.000000 0.000000 0.000000 0.067051 0.000000 0.000000
# 5 0.000000 0.000000 0.000000 0.000000 0.067051 0.000000
# 6 0.000000 0.000000 0.000000 0.000000 0.000000 0.057291
#
#
# Mechanical properties :
#
#
# Convention : Reuss Voigt Hill
#
# Bulk Modulus (GPa) = 50.69667 50.69868 50.69768
# Shear Modulus (GPa) = 17.34705 18.00467 17.67586
#
# Velocity S-wave (km/s) = 3.27218 3.33363 3.30305
# Velocity P-wave (km/s) = 6.75040 6.79046 6.77046
#
# Compressibility (1/GPa) = 0.01972516
#
# Stress axis : x y z
#
# Youngs Moduli (GPa) = 50.39275 50.39275 65.32902
#
# Poissons Ratio (x) = 0.44353 0.28854
# Poissons Ratio (y) = 0.44353 0.28854
# Poissons Ratio (z) = 0.22257 0.22257
#
# Static dielectric constant tensor:
#      x y z
#    x 2.916190 0.000000 0.000000 
#    y 0.000000 2.916190 0.000000 
#    z 0.000000 0.000000 3.353920 
# 
# 
# High freq. dielectric constant tensor:
#      x y z
#    x 1.598790 0.000000 0.000000 
#    y 0.000000 1.598790 0.000000 
#    z 0.000000 0.000000 1.632170 
# 
# From -- ./inp_files/8462.got.cif
#   From: 2010.03.12/outbox.cif.g09.slc.cpg/sg191_5_cif.got.tgz:8462.got - 2010.04.01 12:09:02.
