data_PCOD8329534
_publ_section_title
;
Structure prediction by ZEFSAII (Michael W. Deem and Ramdas Pophale) SiO2 
 PCOD8329534
Probable space group: P 6/M C C
;
_chemical_formula_sum "Si O2"
_cell_formula_units_Z 144
_cell_length_a 32.330282
_cell_length_b 32.330282
_cell_length_c 8.613142
_cell_angle_alpha 90.000000
_cell_angle_beta 90.000000
_cell_angle_gamma 120.000000
_cell_volume 7796.707192
_symmetry_space_group_name_H-M "P 6/M C C"
_symmetry_group_IT_number 192
_symmetry_cell_setting 'hexagonal'
loop_
_space_group_symop_operation_xyz
x,y,z
x-y,x,z
-y,x-y,z
-x,-y,z
-x+y,-x,z
y,-x+y,z
x-y,-y,1/2-z
-x,-x+y,1/2-z
y,x,1/2-z
-y,-x,1/2-z
-x+y,y,1/2-z
x,x-y,1/2-z
-x,-y,-z
-x+y,-x,-z
y,-x+y,-z
x,y,-z
x-y,x,-z
-y,x-y,-z
-x+y,y,1/2+z
x,x-y,1/2+z
-y,-x,1/2+z
y,x,1/2+z
x-y,-y,1/2+z
-x,-x+y,1/2+z
loop_
_atom_site_type_symbol
_atom_site_label
_atom_site_fract_x
_atom_site_fract_y
_atom_site_fract_z
Si Si1 0.228687 0.948869 0.816556
Si Si2 0.192653 0.717609 0.817522
Si Si3 0.380374 0.098203 0.817469
Si Si4 0.191800 0.051728 0.184449
Si Si5 0.432951 0.049367 0.683078
Si Si6 0.616560 0.143726 0.182132
O O1 0.243362 0.909763 0.772605
O O2 0.177365 0.932310 0.741750
O O3 0.268268 0.000000 0.750000
O O4 0.224973 0.952538 0.000000
O O5 0.242017 0.757984 0.750000
O O6 0.150500 0.727918 0.768650
O O7 0.182687 0.667319 0.750310
O O8 0.196472 0.715903 0.000000
O O9 0.393753 0.058796 0.764276
O O10 0.370485 0.093357 0.000000
O O11 0.176232 0.088116 0.250000
O O12 0.154331 0.000000 0.250000
O O13 0.190432 0.050881 0.000000
O O14 0.424694 0.046420 0.500000
O O15 0.485972 0.090531 0.729280
O O16 0.426434 0.000000 0.750000
O O17 0.576966 0.153931 0.250000
O O18 0.618450 0.150161 0.000000
#
# Coordination Sequence:
#
# PCOD8329534 Si02
#       6
#    24  24  24  24  24  24
#     4  11  21  34  52  76 108 147 188 230 271 315
#     4  10  21  37  58  81 107 138 174 216 265 318
#     4  10  20  34  51  74 106 145 186 227 268 314
#     4  11  22  39  60  84 111 142 179 221 269 322
#     4  10  20  33  50  74 105 143 184 226 267 311
#     4  10  21  37  57  80 107 138 175 216 263 316
#
# _framework density 18.469335999999998
#
# number of rings (size 3 to 8) (size 9 to 14) (size 15 to 20)
#    0.000    1.667    0.000    6.500    0.000    5.000 
#    0.000    3.333    0.000    0.500    0.000    3.500 
#    0.000    0.000    0.000    0.000    0.000    0.000 
#
# Total GULP energy -1786379.774798 kJ/mol
# GULP energy per Si atom -12405.415103 kJ/mol
# Density = 1.842730 g / cm^3
# Si number density = 18.469336 Si / 1000 Ang^3
#
#
#
# Elastic Constant Matrix: (Units=GPa)
#
#
# Indices 1 2 3 4 5 6 
#
# 1 126.9064 76.1984 53.0685 0.0000 0.0000 0.0000
# 2 76.1984 126.9064 53.0685 0.0000 0.0000 0.0000
# 3 53.0685 53.0685 123.9000 0.0000 0.0000 0.0000
# 4 0.0000 0.0000 0.0000 32.0433 0.0000 0.0000
# 5 0.0000 0.0000 0.0000 0.0000 32.0433 0.0000
# 6 0.0000 0.0000 0.0000 0.0000 0.0000 25.3540
#
#
#
# Elastic Compliance Matrix: (Units=1/GPa)
#
#
# Indices 1 2 3 4 5 6 
#
# 1 0.013032 -0.006689 -0.002717 0.000000 0.000000 0.000000
# 2 -0.006689 0.013032 -0.002717 0.000000 0.000000 0.000000
# 3 -0.002717 -0.002717 0.010398 0.000000 0.000000 0.000000
# 4 0.000000 0.000000 0.000000 0.031208 0.000000 0.000000
# 5 0.000000 0.000000 0.000000 0.000000 0.031208 0.000000
# 6 0.000000 0.000000 0.000000 0.000000 0.000000 0.039441
#
#
# Mechanical properties :
#
#
# Convention : Reuss Voigt Hill
#
# Bulk Modulus (GPa) = 81.85093 82.48707 82.16900
# Shear Modulus (GPa) = 30.00529 30.91330 30.45930
#
# Velocity S-wave (km/s) = 4.03501 4.09560 4.06542
# Velocity P-wave (km/s) = 8.13153 8.19292 8.16228
#
# Compressibility (1/GPa) = 0.01221733
#
# Stress axis : x y z
#
# Youngs Moduli (GPa) = 76.73381 76.73381 96.16784
#
# Poissons Ratio (x) = 0.51325 0.26129
# Poissons Ratio (y) = 0.51325 0.26129
# Poissons Ratio (z) = 0.20848 0.20848
#
# Static dielectric constant tensor:
#      x y z
#    x 2.965210 0.000000 0.000000 
#    y 0.000000 2.965210 0.000000 
#    z 0.000000 0.000000 3.529620 
# 
# 
# High freq. dielectric constant tensor:
#      x y z
#    x 1.706640 0.000000 0.000000 
#    y 0.000000 1.706640 0.000000 
#    z 0.000000 0.000000 1.738160 
# 
# From -- ./inp_files/1147.got.cif
#   From: 2010.03.12/outbox.cif.g09.slc.cpg/sg192_1_cif.got.tgz:1147.got - 2010.04.01 12:16:15.
