data_PCOD8329067
_publ_section_title
;
Structure prediction by ZEFSAII (Michael W. Deem and Ramdas Pophale) SiO2 
 PCOD8329067
Probable space group: P 6/M M M
;
_chemical_formula_sum "Si O2"
_cell_formula_units_Z 168
_cell_length_a 17.567792
_cell_length_b 17.567792
_cell_length_c 35.054534
_cell_angle_alpha 90.000000
_cell_angle_beta 90.000000
_cell_angle_gamma 120.000000
_cell_volume 9369.344149
_symmetry_space_group_name_H-M "P 6/M M M"
_symmetry_group_IT_number 191
_symmetry_cell_setting 'hexagonal'
loop_
_space_group_symop_operation_xyz
x,y,z
x-y,x,z
-y,x-y,z
-x,-y,z
-x+y,-x,z
y,-x+y,z
x-y,-y,-z
-x,-x+y,-z
y,x,-z
-y,-x,-z
-x+y,y,-z
x,x-y,-z
-x,-y,-z
-x+y,-x,-z
y,-x+y,-z
x,y,-z
x-y,x,-z
-y,x-y,-z
-x+y,y,z
x,x-y,z
-y,-x,z
y,x,z
x-y,-y,z
-x,-x+y,z
loop_
_atom_site_type_symbol
_atom_site_label
_atom_site_fract_x
_atom_site_fract_y
_atom_site_fract_z
Si Si1 0.269948 0.899647 0.815440
Si Si2 0.099695 0.370979 0.329080
Si Si3 0.488089 0.156059 0.256357
Si Si4 0.896557 0.364697 0.112505
Si Si5 0.600228 0.800114 0.545184
Si Si6 0.900427 0.099574 0.454592
Si Si7 0.634785 0.901434 0.957083
Si Si8 0.535019 0.897437 0.404491
O O1 0.165273 0.834728 0.808717
O O2 0.325662 0.893698 0.780683
O O3 0.295428 0.865092 0.853185
O O4 0.290511 0.000000 0.819438
O O5 0.166378 0.332756 0.325719
O O6 0.107520 0.429663 0.292932
O O7 0.126139 0.433536 0.365691
O O8 0.000000 0.289641 0.331871
O O9 0.573288 0.146576 0.257287
O O10 0.516783 0.258392 0.255819
O O11 0.852316 0.426158 0.115900
O O12 0.869406 0.315931 0.071776
O O13 0.000000 0.425477 0.115183
O O14 0.596776 0.798388 0.500000
O O15 0.700928 0.850464 0.560379
O O16 0.550636 0.700896 0.560044
O O17 0.901373 0.098627 0.500000
O O18 0.000000 0.149838 0.438681
O O19 0.676321 0.838161 0.952912
O O20 0.711863 0.000000 0.947150
O O21 0.598694 0.896589 0.000000
O O22 0.431508 0.863015 0.400983
O O23 0.588286 0.000000 0.413107
#
# Coordination Sequence:
#
# PCOD8329067 Si02
#       8
#    24  24  24  24  12  12  24  24
#     4  10  20  33  50  74 104 137 172 210 254 304
#     4  10  20  36  58  82 107 137 173 212 255 303
#     4  10  20  33  52  80 111 141 172 210 255 303
#     4   9  17  29  46  68  93 122 158 201 249 302
#     4  11  22  37  56  79 106 140 177 216 259 306
#     4   9  17  30  51  80 112 142 172 209 256 311
#     4   9  17  29  46  68  93 124 166 214 259 302
#     4  10  21  38  58  79 104 136 175 216 258 305
#
# _framework density 17.930817999999999
#
# number of rings (size 3 to 8) (size 9 to 14) (size 15 to 20)
#    0.000    2.286    0.714    2.357    0.000    4.000 
#    0.429    2.143    0.000    3.571    0.000    1.000 
#    0.000    6.857    0.000    0.143    0.000    0.571 
#
# Total GULP energy -2083067.761656 kJ/mol
# GULP energy per Si atom -12399.212867 kJ/mol
# Density = 1.789001 g / cm^3
# Si number density = 17.930818 Si / 1000 Ang^3
#
#
#
# Elastic Constant Matrix: (Units=GPa)
#
#
# Indices 1 2 3 4 5 6 
#
# 1 99.2087 62.9898 35.8828 0.0000 0.0000 0.0000
# 2 62.9898 99.2087 35.8828 0.0000 0.0000 0.0000
# 3 35.8828 35.8828 107.1680 0.0000 0.0000 0.0000
# 4 0.0000 0.0000 0.0000 20.5230 0.0000 0.0000
# 5 0.0000 0.0000 0.0000 0.0000 20.5230 0.0000
# 6 0.0000 0.0000 0.0000 0.0000 0.0000 18.1094
#
#
#
# Elastic Compliance Matrix: (Units=1/GPa)
#
#
# Indices 1 2 3 4 5 6 
#
# 1 0.017424 -0.010186 -0.002423 0.000000 0.000000 0.000000
# 2 -0.010186 0.017424 -0.002423 0.000000 0.000000 0.000000
# 3 -0.002423 -0.002423 0.010954 0.000000 0.000000 0.000000
# 4 0.000000 0.000000 0.000000 0.048726 0.000000 0.000000
# 5 0.000000 0.000000 0.000000 0.000000 0.048726 0.000000
# 6 0.000000 0.000000 0.000000 0.000000 0.000000 0.055220
#
#
# Mechanical properties :
#
#
# Convention : Reuss Voigt Hill
#
# Bulk Modulus (GPa) = 63.54991 63.89958 63.72475
# Shear Modulus (GPa) = 21.38729 23.21975 22.30352
#
# Velocity S-wave (km/s) = 3.45739 3.60246 3.53067
# Velocity P-wave (km/s) = 7.17334 7.28133 7.22753
#
# Compressibility (1/GPa) = 0.01573566
#
# Stress axis : x y z
#
# Youngs Moduli (GPa) = 57.39306 57.39306 91.29141
#
# Poissons Ratio (x) = 0.58462 0.22123
# Poissons Ratio (y) = 0.58462 0.22123
# Poissons Ratio (z) = 0.13908 0.13908
#
# Static dielectric constant tensor:
#      x y z
#    x 3.289550 0.000000 0.000000 
#    y 0.000000 3.289550 0.000000 
#    z 0.000000 0.000000 3.421040 
# 
# 
# High freq. dielectric constant tensor:
#      x y z
#    x 1.682510 0.000000 0.000000 
#    y 0.000000 1.682510 0.000000 
#    z 0.000000 0.000000 1.704420 
# 
# From -- ./inp_files/10787.got.cif
#   From: 2010.03.12/outbox.cif.g09.slc.cpg/sg191_6_cif.got.tgz:10787.got - 2010.04.01 12:09:02.
