data_PCOD8329881
_publ_section_title
;
Structure prediction by ZEFSAII (Michael W. Deem and Ramdas Pophale) SiO2 
 PCOD8329881
Probable space group: P 63/M C M
;
_chemical_formula_sum "Si O2"
_cell_formula_units_Z 168
_cell_length_a 21.069070
_cell_length_b 21.069070
_cell_length_c 28.241864
_cell_angle_alpha 90.000000
_cell_angle_beta 90.000000
_cell_angle_gamma 120.000000
_cell_volume 10857.122079
_symmetry_space_group_name_H-M "P 63/M C M"
_symmetry_group_IT_number 193
_symmetry_cell_setting 'hexagonal'
loop_
_space_group_symop_operation_xyz
x,y,z
x-y,x,1/2+z
-y,x-y,z
-x,-y,1/2+z
-x+y,-x,z
y,-x+y,1/2+z
x-y,-y,1/2-z
-x,-x+y,1/2-z
y,x,1/2-z
-y,-x,-z
-x+y,y,-z
x,x-y,-z
-x,-y,-z
-x+y,-x,1/2-z
y,-x+y,-z
x,y,1/2-z
x-y,x,-z
-y,x-y,1/2-z
-x+y,y,1/2+z
x,x-y,1/2+z
-y,-x,1/2+z
y,x,z
x-y,-y,z
-x,-x+y,z
loop_
_atom_site_type_symbol
_atom_site_label
_atom_site_fract_x
_atom_site_fract_y
_atom_site_fract_z
Si Si1 0.520656 0.332460 0.947636
Si Si2 0.697242 0.778321 0.304130
Si Si3 0.697242 0.778321 0.804130
Si Si4 0.299794 0.453466 0.149041
Si Si5 0.457630 0.542370 0.193928
Si Si6 0.846328 0.299794 0.149041
Si Si7 0.188196 0.667540 0.052364
O O1 0.459628 0.313879 0.907556
O O2 0.588618 0.411382 0.936138
O O3 0.549050 0.274525 0.945698
O O4 0.487959 0.331213 1.000000
O O5 0.669735 0.758290 0.250000
O O6 0.763407 0.763407 0.314953
O O7 0.727565 0.863783 0.314473
O O8 0.629931 0.727491 0.337823
O O9 0.669735 0.758290 0.750000
O O10 0.763407 0.763407 0.814953
O O11 0.629931 0.727491 0.837823
O O12 0.374227 0.504528 0.176656
O O13 0.237212 0.474425 0.162670
O O14 0.313879 0.459628 0.092444
O O15 0.458060 0.541940 0.250000
O O16 0.500000 0.500000 0.175100
O O17 0.495472 0.625773 0.176656
#
# Coordination Sequence:
#
# PCOD8329881 Si02
#       7
#    24  24  24  24  24  24  24
#     4   9  16  27  44  63  85 115 153 195 235 274
#     4   9  17  30  49  70  91 116 147 182 219 265
#     4   9  17  30  49  70  91 116 147 182 219 265
#     4  10  19  31  46  66  90 118 153 195 232 271
#     4  11  22  34  47  63  87 123 160 192 233 285
#     4  10  19  31  46  66  90 118 153 195 232 271
#     4   9  16  27  44  63  85 115 153 195 235 274
#
# _framework density 15.473713999999999
#
# number of rings (size 3 to 8) (size 9 to 14) (size 15 to 20)
#    0.000    2.429    1.429    2.000    0.000    5.143 
#    0.857    0.000    0.000    4.571    0.000    2.000 
#    0.000    0.000    0.000    0.000    0.000    0.000 
#
# Total GULP energy -2082311.246875 kJ/mol
# GULP energy per Si atom -12394.709803 kJ/mol
# Density = 1.543850 g / cm^3
# Si number density = 15.473714 Si / 1000 Ang^3
#
#
#
# Elastic Constant Matrix: (Units=GPa)
#
#
# Indices 1 2 3 4 5 6 
#
# 1 93.3278 60.9287 44.8992 0.0000 0.0000 0.0000
# 2 60.9287 93.3278 44.8992 0.0000 0.0000 0.0000
# 3 44.8992 44.8992 88.6698 0.0000 0.0000 0.0000
# 4 0.0000 0.0000 0.0000 13.6737 0.0000 0.0000
# 5 0.0000 0.0000 0.0000 0.0000 13.6737 0.0000
# 6 0.0000 0.0000 0.0000 0.0000 0.0000 16.1995
#
#
#
# Elastic Compliance Matrix: (Units=1/GPa)
#
#
# Indices 1 2 3 4 5 6 
#
# 1 0.020029 -0.010836 -0.004655 0.000000 0.000000 0.000000
# 2 -0.010836 0.020029 -0.004655 0.000000 0.000000 0.000000
# 3 -0.004655 -0.004655 0.015992 0.000000 0.000000 0.000000
# 4 0.000000 0.000000 0.000000 0.073133 0.000000 0.000000
# 5 0.000000 0.000000 0.000000 0.000000 0.073133 0.000000
# 6 0.000000 0.000000 0.000000 0.000000 0.000000 0.061730
#
#
# Mechanical properties :
#
#
# Convention : Reuss Voigt Hill
#
# Bulk Modulus (GPa) = 63.46094 64.08663 63.77379
# Shear Modulus (GPa) = 16.15042 17.01594 16.58318
#
# Velocity S-wave (km/s) = 3.23419 3.31972 3.27723
# Velocity P-wave (km/s) = 7.41942 7.49669 7.45816
#
# Compressibility (1/GPa) = 0.01575773
#
# Stress axis : x y z
#
# Youngs Moduli (GPa) = 49.92829 49.92829 62.53228
#
# Poissons Ratio (x) = 0.54104 0.29107
# Poissons Ratio (y) = 0.54104 0.29107
# Poissons Ratio (z) = 0.23240 0.23240
#
# Static dielectric constant tensor:
#      x y z
#    x 2.935110 0.000000 0.000000 
#    y 0.000000 2.935110 0.000000 
#    z 0.000000 0.000000 3.157280 
# 
# 
# High freq. dielectric constant tensor:
#      x y z
#    x 1.578280 0.000000 0.000000 
#    y 0.000000 1.578280 0.000000 
#    z 0.000000 0.000000 1.595510 
# 
# From -- ./inp_files/8537.got.cif
#   From: 2010.03.12/outbox.cif.g09.slc.cpg/sg193_5_cif.got.tgz:8537.got - 2010.04.01 12:20:39.
