data_PCOD8329302
_publ_section_title
;
Structure prediction by ZEFSAII (Michael W. Deem and Ramdas Pophale) SiO2 
 PCOD8329302
Probable space group: P 6/M M M
;
_chemical_formula_sum "Si O2"
_cell_formula_units_Z 132
_cell_length_a 18.251814
_cell_length_b 18.251814
_cell_length_c 27.976175
_cell_angle_alpha 90.000000
_cell_angle_beta 90.000000
_cell_angle_gamma 120.000000
_cell_volume 8071.068557
_symmetry_space_group_name_H-M "P 6/M M M"
_symmetry_group_IT_number 191
_symmetry_cell_setting 'hexagonal'
loop_
_space_group_symop_operation_xyz
x,y,z
x-y,x,z
-y,x-y,z
-x,-y,z
-x+y,-x,z
y,-x+y,z
x-y,-y,-z
-x,-x+y,-z
y,x,-z
-y,-x,-z
-x+y,y,-z
x,x-y,-z
-x,-y,-z
-x+y,-x,-z
y,-x+y,-z
x,y,-z
x-y,x,-z
-y,x-y,-z
-x+y,y,z
x,x-y,z
-y,-x,z
y,x,z
x-y,-y,z
-x,-x+y,z
loop_
_atom_site_type_symbol
_atom_site_label
_atom_site_fract_x
_atom_site_fract_y
_atom_site_fract_z
Si Si1 0.531256 0.900581 0.634568
Si Si2 0.903875 0.259073 0.714476
Si Si3 0.741301 0.647954 0.176485
Si Si4 0.644726 0.740501 0.445479
Si Si5 0.331725 0.499884 0.000000
Si Si6 0.668364 0.162812 0.896360
O O1 0.428865 0.857730 0.634541
O O2 0.561688 0.873350 0.682031
O O3 0.561982 0.872923 0.587388
O O4 0.570832 0.000000 0.634284
O O5 0.841252 0.158749 0.705160
O O6 0.896229 0.281353 0.769215
O O7 0.000000 0.282654 0.701723
O O8 0.838125 0.676250 0.163589
O O9 0.728785 0.728785 0.168945
O O10 0.675687 0.572718 0.142684
O O11 0.614867 0.714708 0.500000
O O12 0.682041 0.841021 0.437561
O O13 0.717735 0.717735 0.432066
O O14 0.319457 0.450911 0.050471
O O15 0.425670 0.574331 0.000000
O O16 0.268891 0.537781 0.000000
O O17 0.577826 0.155652 0.891188
O O18 0.740333 0.259668 0.887309
#
# Coordination Sequence:
#
# PCOD8329302 Si02
#       6
#    24  24  24  24  12  24
#     4   9  17  28  43  64  87 111 142 179 215 251
#     4   9  17  30  48  68  89 114 145 179 215 257
#     4   9  18  31  46  64  86 113 144 179 219 260
#     4   9  17  29  46  68  93 121 153 188 225 266
#     4   8  13  22  37  57  82 113 146 176 205 242
#     4   9  16  26  41  62  88 117 147 176 207 246
#
# _framework density 16.354711999999999
#
# number of rings (size 3 to 8) (size 9 to 14) (size 15 to 20)
#    0.000    3.091    0.000    0.818    0.000    2.909 
#    0.000    4.091    0.000    5.091    0.000    3.818 
#    0.000    4.364    0.000    0.364    0.000   10.727 
#
# Total GULP energy -1635317.015939 kJ/mol
# GULP energy per Si atom -12388.765272 kJ/mol
# Density = 1.631749 g / cm^3
# Si number density = 16.354712 Si / 1000 Ang^3
#
#
#
# Elastic Constant Matrix: (Units=GPa)
#
#
# Indices 1 2 3 4 5 6 
#
# 1 83.5754 49.7800 48.9866 0.0000 0.0000 0.0000
# 2 49.7800 83.5754 48.9866 0.0000 0.0000 0.0000
# 3 48.9866 48.9866 105.0929 0.0000 0.0000 0.0000
# 4 0.0000 0.0000 0.0000 20.4587 0.0000 0.0000
# 5 0.0000 0.0000 0.0000 0.0000 20.4587 0.0000
# 6 0.0000 0.0000 0.0000 0.0000 0.0000 16.8977
#
#
#
# Elastic Compliance Matrix: (Units=1/GPa)
#
#
# Indices 1 2 3 4 5 6 
#
# 1 0.020497 -0.009093 -0.005316 0.000000 0.000000 0.000000
# 2 -0.009093 0.020497 -0.005316 0.000000 0.000000 0.000000
# 3 -0.005316 -0.005316 0.014471 0.000000 0.000000 0.000000
# 4 0.000000 0.000000 0.000000 0.048879 0.000000 0.000000
# 5 0.000000 0.000000 0.000000 0.000000 0.048879 0.000000
# 6 0.000000 0.000000 0.000000 0.000000 0.000000 0.059180
#
#
# Mechanical properties :
#
#
# Convention : Reuss Voigt Hill
#
# Bulk Modulus (GPa) = 62.43669 63.08333 62.76001
# Shear Modulus (GPa) = 19.44088 19.86239 19.65164
#
# Velocity S-wave (km/s) = 3.45150 3.48871 3.47015
# Velocity P-wave (km/s) = 7.35821 7.40836 7.38333
#
# Compressibility (1/GPa) = 0.01601622
#
# Stress axis : x y z
#
# Youngs Moduli (GPa) = 48.78765 48.78765 69.10353
#
# Poissons Ratio (x) = 0.44362 0.36734
# Poissons Ratio (y) = 0.44362 0.36734
# Poissons Ratio (z) = 0.25934 0.25934
#
# Static dielectric constant tensor:
#      x y z
#    x 3.019510 0.000000 0.000000 
#    y 0.000000 3.019510 0.000000 
#    z 0.000000 0.000000 3.464120 
# 
# 
# High freq. dielectric constant tensor:
#      x y z
#    x 1.602240 0.000000 0.000000 
#    y 0.000000 1.602240 0.000000 
#    z 0.000000 0.000000 1.650390 
# 
# From -- ./inp_files/10524.got.cif
#   From: 2010.03.12/outbox.cif.g09.slc.cpg/sg191_6_cif.got.tgz:10524.got - 2010.04.01 12:09:02.
