data_PCOD8329021
_publ_section_title
;
Structure prediction by ZEFSAII (Michael W. Deem and Ramdas Pophale) SiO2 
 PCOD8329021
Probable space group: P 6/M M M
;
_chemical_formula_sum "Si O2"
_cell_formula_units_Z 132
_cell_length_a 17.892523
_cell_length_b 17.892523
_cell_length_c 27.686150
_cell_angle_alpha 90.000000
_cell_angle_beta 90.000000
_cell_angle_gamma 120.000000
_cell_volume 7676.024770
_symmetry_space_group_name_H-M "P 6/M M M"
_symmetry_group_IT_number 191
_symmetry_cell_setting 'hexagonal'
loop_
_space_group_symop_operation_xyz
x,y,z
x-y,x,z
-y,x-y,z
-x,-y,z
-x+y,-x,z
y,-x+y,z
x-y,-y,-z
-x,-x+y,-z
y,x,-z
-y,-x,-z
-x+y,y,-z
x,x-y,-z
-x,-y,-z
-x+y,-x,-z
y,-x+y,-z
x,y,-z
x-y,x,-z
-y,x-y,-z
-x+y,y,z
x,x-y,z
-y,-x,z
y,x,z
x-y,-y,z
-x,-x+y,z
loop_
_atom_site_type_symbol
_atom_site_label
_atom_site_fract_x
_atom_site_fract_y
_atom_site_fract_z
Si Si1 0.666663 0.162645 0.282189
Si Si2 0.504323 0.666818 0.555034
Si Si3 0.495365 0.333317 0.171914
Si Si4 0.732962 0.634552 0.089393
Si Si5 0.365869 0.898341 0.000000
Si Si6 0.095155 0.734848 0.363503
O O1 0.574959 0.149917 0.297941
O O2 0.736926 0.263075 0.288935
O O3 0.664595 0.132963 0.227118
O O4 0.689080 0.104421 0.315924
O O5 0.532912 0.665818 0.500000
O O6 0.474222 0.737111 0.562008
O O7 0.425100 0.574901 0.570157
O O8 0.584403 0.688523 0.589078
O O9 0.524394 0.262197 0.164797
O O10 0.574643 0.425358 0.156283
O O11 0.412802 0.310978 0.139334
O O12 0.836684 0.673367 0.090743
O O13 0.712191 0.712191 0.081157
O O14 0.694030 0.563115 0.047243
O O15 0.428116 0.856232 0.000000
O O16 0.425410 0.000000 0.000000
O O17 0.163490 0.836511 0.363682
O O18 0.000000 0.723121 0.363463
#
# Coordination Sequence:
#
# PCOD8329021 Si02
#       6
#    24  24  24  24  12  24
#     4   9  17  29  46  69  98 130 159 184 213 256
#     4   9  17  29  46  69  98 131 162 187 211 246
#     4   9  17  29  46  69  97 128 159 189 221 260
#     4  10  20  33  49  69  93 122 157 197 240 282
#     4   9  17  30  49  72  96 120 146 177 215 264
#     4  10  21  35  49  66  89 117 150 190 236 280
#
# _framework density 17.196400000000001
#
# number of rings (size 3 to 8) (size 9 to 14) (size 15 to 20)
#    0.000    2.636    0.000    1.909    0.000    5.818 
#    0.000    4.545    0.000    2.909    0.000    0.000 
#    0.000    2.182    0.000   13.636    0.000    0.000 
#
# Total GULP energy -1636702.021509 kJ/mol
# GULP energy per Si atom -12399.257739 kJ/mol
# Density = 1.715726 g / cm^3
# Si number density = 17.196400 Si / 1000 Ang^3
#
#
#
# Elastic Constant Matrix: (Units=GPa)
#
#
# Indices 1 2 3 4 5 6 
#
# 1 89.3497 60.4375 37.2038 0.0000 0.0000 0.0000
# 2 60.4375 89.3497 37.2038 0.0000 0.0000 0.0000
# 3 37.2038 37.2038 87.7069 0.0000 0.0000 0.0000
# 4 0.0000 0.0000 0.0000 17.8660 0.0000 0.0000
# 5 0.0000 0.0000 0.0000 0.0000 17.8660 0.0000
# 6 0.0000 0.0000 0.0000 0.0000 0.0000 14.4561
#
#
#
# Elastic Compliance Matrix: (Units=1/GPa)
#
#
# Indices 1 2 3 4 5 6 
#
# 1 0.021523 -0.013064 -0.003588 0.000000 0.000000 0.000000
# 2 -0.013064 0.021523 -0.003588 0.000000 0.000000 0.000000
# 3 -0.003588 -0.003588 0.014445 0.000000 0.000000 0.000000
# 4 0.000000 0.000000 0.000000 0.055972 0.000000 0.000000
# 5 0.000000 0.000000 0.000000 0.000000 0.055972 0.000000
# 6 0.000000 0.000000 0.000000 0.000000 0.000000 0.069175
#
#
# Mechanical properties :
#
#
# Convention : Reuss Voigt Hill
#
# Bulk Modulus (GPa) = 58.78663 59.56628 59.17646
# Shear Modulus (GPa) = 17.55855 18.80839 18.18347
#
# Velocity S-wave (km/s) = 3.19887 3.31076 3.25530
# Velocity P-wave (km/s) = 6.92122 7.02345 6.97252
#
# Compressibility (1/GPa) = 0.01701067
#
# Stress axis : x y z
#
# Youngs Moduli (GPa) = 46.46206 46.46206 69.22574
#
# Poissons Ratio (x) = 0.60700 0.24838
# Poissons Ratio (y) = 0.60700 0.24838
# Poissons Ratio (z) = 0.16670 0.16670
#
# Static dielectric constant tensor:
#      x y z
#    x 2.981560 0.000000 0.000000 
#    y 0.000000 2.981560 0.000000 
#    z 0.000000 0.000000 3.494240 
# 
# 
# High freq. dielectric constant tensor:
#      x y z
#    x 1.636620 0.000000 0.000000 
#    y 0.000000 1.636620 0.000000 
#    z 0.000000 0.000000 1.682740 
# 
# From -- ./inp_files/9835.got.cif
#   From: 2010.03.12/outbox.cif.g09.slc.cpg/sg191_5_cif.got.tgz:9835.got - 2010.04.01 12:09:02.
