data_PCOD8329961
_publ_section_title
;
Structure prediction by ZEFSAII (Michael W. Deem and Ramdas Pophale) SiO2 
 PCOD8329961
Probable space group: P 63/M C M
;
_chemical_formula_sum "Si O2"
_cell_formula_units_Z 152
_cell_length_a 27.316894
_cell_length_b 27.316894
_cell_length_c 14.187404
_cell_angle_alpha 90.000000
_cell_angle_beta 90.000000
_cell_angle_gamma 120.000000
_cell_volume 9168.455943
_symmetry_space_group_name_H-M "P 63/M C M"
_symmetry_group_IT_number 193
_symmetry_cell_setting 'hexagonal'
loop_
_space_group_symop_operation_xyz
x,y,z
x-y,x,1/2+z
-y,x-y,z
-x,-y,1/2+z
-x+y,-x,z
y,-x+y,1/2+z
x-y,-y,1/2-z
-x,-x+y,1/2-z
y,x,1/2-z
-y,-x,-z
-x+y,y,-z
x,x-y,-z
-x,-y,-z
-x+y,-x,1/2-z
y,-x+y,-z
x,y,1/2-z
x-y,x,-z
-y,x-y,1/2-z
-x+y,y,1/2+z
x,x-y,1/2+z
-y,-x,1/2+z
y,x,z
x-y,-y,z
-x,-x+y,z
loop_
_atom_site_type_symbol
_atom_site_label
_atom_site_fract_x
_atom_site_fract_y
_atom_site_fract_z
Si Si1 0.620582 0.208777 0.852663
Si Si2 0.371368 0.257673 0.553573
Si Si3 0.314496 0.314496 0.857088
Si Si4 0.339202 0.494445 0.146786
Si Si5 0.517149 0.629769 0.046514
Si Si6 0.162214 0.773844 0.357860
Si Si7 0.666668 0.333334 0.108844
Si Si8 0.000000 0.431090 0.142494
O O1 0.626717 0.187016 0.750000
O O2 0.559304 0.203388 0.865018
O O3 0.629372 0.169901 0.927543
O O4 0.664236 0.275587 0.858634
O O5 0.320018 0.265203 0.590709
O O6 0.430447 0.312087 0.581446
O O7 0.372962 0.209213 0.614135
O O8 0.360944 0.246045 0.440722
O O9 0.296295 0.296295 0.750000
O O10 0.372847 0.372847 0.864195
O O11 0.357540 0.483349 0.250000
O O12 0.270971 0.455787 0.135880
O O13 0.372531 0.479891 0.067399
O O14 0.520281 0.576833 0.090875
O O15 0.140330 0.773670 0.250000
O O16 0.666668 0.333334 0.000000
O O17 0.000000 0.449600 0.250000
#
# Coordination Sequence:
#
# PCOD8329961 Si02
#       8
#    24  24  12  24  24  24   8  12
#     4  11  23  37  51  69  92 115 141 174 212 259
#     4   9  18  29  47  71  91 115 151 184 224 273
#     4   9  16  28  45  68  96 116 141 187 230 263
#     4   9  19  34  49  66  91 118 146 178 212 259
#     4  10  19  34  53  70  92 118 145 181 224 264
#     4   9  17  30  47  66  90 120 150 181 218 266
#     4  12  25  38  52  69  94 122 146 173 214 264
#     4   9  18  32  50  74  94 114 145 179 218 266
#
# _framework density 16.578582999999998
#
# number of rings (size 3 to 8) (size 9 to 14) (size 15 to 20)
#    0.000    2.368    0.000    2.842    2.211    1.895 
#    0.000    2.368    0.000    6.632    0.000    0.000 
#    0.000    0.000    0.000    0.000    0.000    0.000 
#
# Total GULP energy -1883094.165131 kJ/mol
# GULP energy per Si atom -12388.777402 kJ/mol
# Density = 1.654085 g / cm^3
# Si number density = 16.578583 Si / 1000 Ang^3
#
#
#
# Elastic Constant Matrix: (Units=GPa)
#
#
# Indices 1 2 3 4 5 6 
#
# 1 66.7065 43.3570 44.1039 0.0000 0.0000 -0.0001
# 2 43.3570 66.7062 44.1038 0.0001 0.0000 0.0000
# 3 44.1039 44.1038 143.6241 0.0000 0.0000 -0.0001
# 4 0.0000 0.0001 0.0000 20.4247 0.0000 0.0000
# 5 0.0000 0.0000 0.0000 0.0000 20.4248 0.0000
# 6 -0.0001 0.0000 -0.0001 0.0000 0.0000 11.6746
#
#
#
# Elastic Compliance Matrix: (Units=1/GPa)
#
#
# Indices 1 2 3 4 5 6 
#
# 1 0.027440 -0.015388 -0.003701 0.000000 0.000000 0.000000
# 2 -0.015388 0.027440 -0.003701 0.000000 0.000000 0.000000
# 3 -0.003701 -0.003701 0.009235 0.000000 0.000000 0.000000
# 4 0.000000 0.000000 0.000000 0.048960 0.000000 0.000000
# 5 0.000000 0.000000 0.000000 0.000000 0.048960 0.000000
# 6 0.000000 0.000000 0.000000 0.000000 0.000000 0.085656
#
#
# Mechanical properties :
#
#
# Convention : Reuss Voigt Hill
#
# Bulk Modulus (GPa) = 53.95048 60.01848 56.98448
# Shear Modulus (GPa) = 16.69734 20.20296 18.45015
#
# Velocity S-wave (km/s) = 3.17703 3.49466 3.33962
# Velocity P-wave (km/s) = 6.78756 7.25014 7.02266
#
# Compressibility (1/GPa) = 0.01853552
#
# Stress axis : x y z
#
# Youngs Moduli (GPa) = 36.44359 36.44347 108.27807
#
# Poissons Ratio (x) = 0.56080 0.40071
# Poissons Ratio (y) = 0.56080 0.40071
# Poissons Ratio (z) = 0.13487 0.13487
#
# Static dielectric constant tensor:
#      x y z
#    x 2.848600 0.000000 0.000000 
#    y 0.000000 2.848600 0.000000 
#    z 0.000000 0.000000 3.520290 
# 
# 
# High freq. dielectric constant tensor:
#      x y z
#    x 1.595310 0.000000 0.000000 
#    y 0.000000 1.595310 0.000000 
#    z 0.000000 0.000000 1.667770 
# 
# From -- ./inp_files/4354.got.cif
#   From: 2010.03.12/outbox.cif.g09.slc.cpg/sg193_3_cif.got.tgz:4354.got - 2010.04.01 12:20:39.
