data_PCOD8329777
_publ_section_title
;
Structure prediction by ZEFSAII (Michael W. Deem and Ramdas Pophale) SiO2 
 PCOD8329777
Probable space group: P 63/M C M
;
_chemical_formula_sum "Si O2"
_cell_formula_units_Z 144
_cell_length_a 20.488155
_cell_length_b 20.488155
_cell_length_c 25.439942
_cell_angle_alpha 90.000000
_cell_angle_beta 90.000000
_cell_angle_gamma 120.000000
_cell_volume 9248.098584
_symmetry_space_group_name_H-M "P 63/M C M"
_symmetry_group_IT_number 193
_symmetry_cell_setting 'hexagonal'
loop_
_space_group_symop_operation_xyz
x,y,z
x-y,x,1/2+z
-y,x-y,z
-x,-y,1/2+z
-x+y,-x,z
y,-x+y,1/2+z
x-y,-y,1/2-z
-x,-x+y,1/2-z
y,x,1/2-z
-y,-x,-z
-x+y,y,-z
x,x-y,-z
-x,-y,-z
-x+y,-x,1/2-z
y,-x+y,-z
x,y,1/2-z
x-y,x,-z
-y,x-y,1/2-z
-x+y,y,1/2+z
x,x-y,1/2+z
-y,-x,1/2+z
y,x,z
x-y,-y,z
-x,-x+y,z
loop_
_atom_site_type_symbol
_atom_site_label
_atom_site_fract_x
_atom_site_fract_y
_atom_site_fract_z
Si Si1 0.087645 0.407629 0.598205
Si Si2 0.454434 0.909851 0.560003
Si Si3 0.768899 0.683731 0.309624
Si Si4 0.769668 0.682296 0.499063
Si Si5 0.316522 0.230863 0.309724
Si Si6 0.911639 0.592120 0.903084
O O1 0.124626 0.497359 0.588477
O O2 0.105321 0.368299 0.550574
O O3 0.115545 0.389637 0.652845
O O4 0.000000 0.376101 0.602556
O O5 0.440801 0.881602 0.500000
O O6 0.502262 0.877034 0.589643
O O7 0.498207 0.000000 0.560975
O O8 0.744711 0.655399 0.250000
O O9 0.749515 0.749515 0.323740
O O10 0.858675 0.717691 0.317247
O O11 0.722140 0.611037 0.346815
O O12 0.860693 0.721385 0.500000
O O13 0.747304 0.747304 0.495547
O O14 0.741354 0.626359 0.449428
O O15 0.344229 0.255100 0.250000
O O16 0.251897 0.251897 0.324468
O O17 0.000000 0.628508 0.908308
#
# Coordination Sequence:
#
# PCOD8329777 Si02
#       6
#    24  24  24  24  24  24
#     4   9  16  26  41  62  86 111 138 172 219 271
#     4   9  14  24  41  61  87 113 132 157 205 269
#     4   9  17  29  44  62  88 122 158 196 237 279
#     4  10  18  27  41  62  89 117 149 189 232 276
#     4   9  17  29  44  62  88 122 158 196 237 279
#     4   9  16  26  41  62  86 111 138 172 219 271
#
# _framework density 15.570767999999999
#
# number of rings (size 3 to 8) (size 9 to 14) (size 15 to 20)
#    0.000    2.833    1.667    1.000    0.000    0.000 
#    0.000    0.833    0.000    5.500    0.000    2.333 
#   23.333    8.000    0.000    0.333    0.000    0.667 
#
# Total GULP energy -1784210.658794 kJ/mol
# GULP energy per Si atom -12390.351797 kJ/mol
# Density = 1.553533 g / cm^3
# Si number density = 15.570768 Si / 1000 Ang^3
#
#
#
# Elastic Constant Matrix: (Units=GPa)
#
#
# Indices 1 2 3 4 5 6 
#
# 1 73.5760 41.0529 38.5689 0.0000 0.0000 0.0000
# 2 41.0529 73.5760 38.5689 0.0000 0.0000 0.0000
# 3 38.5689 38.5689 102.3342 0.0000 0.0000 0.0000
# 4 0.0000 0.0000 0.0000 10.3843 0.0000 0.0000
# 5 0.0000 0.0000 0.0000 0.0000 10.3843 0.0000
# 6 0.0000 0.0000 0.0000 0.0000 0.0000 16.2616
#
#
#
# Elastic Compliance Matrix: (Units=1/GPa)
#
#
# Indices 1 2 3 4 5 6 
#
# 1 0.021218 -0.009530 -0.004405 0.000000 0.000000 0.000000
# 2 -0.009530 0.021218 -0.004405 0.000000 0.000000 0.000000
# 3 -0.004405 -0.004405 0.013092 0.000000 0.000000 0.000000
# 4 0.000000 0.000000 0.000000 0.096299 0.000000 0.000000
# 5 0.000000 0.000000 0.000000 0.000000 0.096299 0.000000
# 6 0.000000 0.000000 0.000000 0.000000 0.000000 0.061495
#
#
# Mechanical properties :
#
#
# Convention : Reuss Voigt Hill
#
# Bulk Modulus (GPa) = 53.05569 53.98531 53.52050
# Shear Modulus (GPa) = 14.18104 16.15907 15.17006
#
# Velocity S-wave (km/s) = 3.02113 3.22496 3.12471
# Velocity P-wave (km/s) = 6.80570 6.97233 6.88952
#
# Compressibility (1/GPa) = 0.01884812
#
# Stress axis : x y z
#
# Youngs Moduli (GPa) = 47.13027 47.13027 76.37979
#
# Poissons Ratio (x) = 0.44913 0.33647
# Poissons Ratio (y) = 0.44913 0.33647
# Poissons Ratio (z) = 0.20762 0.20762
#
# Static dielectric constant tensor:
#      x y z
#    x 3.021600 0.000000 0.000000 
#    y 0.000000 3.021600 0.000000 
#    z 0.000000 0.000000 3.298030 
# 
# 
# High freq. dielectric constant tensor:
#      x y z
#    x 1.568400 0.000000 0.000000 
#    y 0.000000 1.568400 0.000000 
#    z 0.000000 0.000000 1.608240 
# 
# From -- ./inp_files/8439.got.cif
#   From: 2010.03.12/outbox.cif.g09.slc.cpg/sg193_5_cif.got.tgz:8439.got - 2010.04.01 12:20:39.
