data_PCOD8329196
_publ_section_title
;
Structure prediction by ZEFSAII (Michael W. Deem and Ramdas Pophale) SiO2 
 PCOD8329196
Probable space group: P 6/M M M
;
_chemical_formula_sum "Si O2"
_cell_formula_units_Z 144
_cell_length_a 31.392109
_cell_length_b 31.392109
_cell_length_c 9.265138
_cell_angle_alpha 90.000000
_cell_angle_beta 90.000000
_cell_angle_gamma 120.000000
_cell_volume 7907.214340
_symmetry_space_group_name_H-M "P 6/M M M"
_symmetry_group_IT_number 191
_symmetry_cell_setting 'hexagonal'
loop_
_space_group_symop_operation_xyz
x,y,z
x-y,x,z
-y,x-y,z
-x,-y,z
-x+y,-x,z
y,-x+y,z
x-y,-y,-z
-x,-x+y,-z
y,x,-z
-y,-x,-z
-x+y,y,-z
x,x-y,-z
-x,-y,-z
-x+y,-x,-z
y,-x+y,-z
x,y,-z
x-y,x,-z
-y,x-y,-z
-x+y,y,z
x,x-y,z
-y,-x,z
y,x,z
x-y,-y,z
-x,-x+y,z
loop_
_atom_site_type_symbol
_atom_site_label
_atom_site_fract_x
_atom_site_fract_y
_atom_site_fract_z
Si Si1 0.056633 0.479236 0.167250
Si Si2 0.390464 0.244594 0.833826
Si Si3 0.666651 0.428847 0.671516
Si Si4 0.288145 0.055609 0.833184
Si Si5 0.333026 0.474139 0.328666
Si Si6 0.148409 0.202803 0.331455
O O1 0.067281 0.533641 0.206057
O O2 0.090269 0.465910 0.264190
O O3 0.000000 0.439751 0.201072
O O4 0.068233 0.476269 0.000000
O O5 0.377552 0.188776 0.806564
O O6 0.344142 0.250845 0.791473
O O7 0.434156 0.280089 0.729611
O O8 0.405691 0.259869 0.000000
O O9 0.667596 0.427167 0.500000
O O10 0.717619 0.435237 0.734000
O O11 0.621540 0.378461 0.733097
O O12 0.658983 0.473378 0.722552
O O13 0.253971 0.070555 0.745620
O O14 0.275447 0.000000 0.795921
O O15 0.278710 0.060832 0.000000
O O16 0.333718 0.469920 0.500000
O O17 0.157418 0.213334 0.500000
O O18 0.092031 0.184061 0.288898
O O19 0.160951 0.160951 0.281923
#
# Coordination Sequence:
#
# PCOD8329196 Si02
#       6
#    24  24  24  24  24  24
#     4   9  19  37  59  80 103 135 175 215 256 306
#     4  10  21  36  52  71 100 140 181 214 248 300
#     4   9  17  30  49  73 101 132 165 201 243 292
#     4   9  18  33  53  75  97 123 160 208 256 300
#     4  11  22  34  51  78 110 138 168 211 260 309
#     4   9  17  29  46  69  97 128 161 199 245 295
#
# _framework density 18.211217000000001
#
# number of rings (size 3 to 8) (size 9 to 14) (size 15 to 20)
#    0.000    2.500    0.000    2.667    0.000    5.333 
#    0.000    2.500    0.000    0.167    0.000    1.167 
#    0.000    8.000    0.000    4.167    0.000    4.333 
#
# Total GULP energy -1785677.871491 kJ/mol
# GULP energy per Si atom -12400.540774 kJ/mol
# Density = 1.816977 g / cm^3
# Si number density = 18.211217 Si / 1000 Ang^3
#
#
#
# Elastic Constant Matrix: (Units=GPa)
#
#
# Indices 1 2 3 4 5 6 
#
# 1 115.3642 57.9500 38.7623 0.0000 0.0000 0.0000
# 2 57.9500 115.3642 38.7623 0.0000 0.0000 0.0000
# 3 38.7623 38.7623 46.6397 0.0000 0.0000 0.0000
# 4 0.0000 0.0000 0.0000 23.7377 0.0000 0.0000
# 5 0.0000 0.0000 0.0000 0.0000 23.7377 0.0000
# 6 0.0000 0.0000 0.0000 0.0000 0.0000 28.7071
#
#
#
# Elastic Compliance Matrix: (Units=1/GPa)
#
#
# Indices 1 2 3 4 5 6 
#
# 1 0.013301 -0.004117 -0.007633 0.000000 0.000000 0.000000
# 2 -0.004117 0.013301 -0.007633 0.000000 0.000000 0.000000
# 3 -0.007633 -0.007633 0.034128 0.000000 0.000000 0.000000
# 4 0.000000 0.000000 0.000000 0.042127 0.000000 0.000000
# 5 0.000000 0.000000 0.000000 0.000000 0.042127 0.000000
# 6 0.000000 0.000000 0.000000 0.000000 0.000000 0.034835
#
#
# Mechanical properties :
#
#
# Convention : Reuss Voigt Hill
#
# Bulk Modulus (GPa) = 45.52711 60.92417 53.22564
# Shear Modulus (GPa) = 22.13319 24.69608 23.41463
#
# Velocity S-wave (km/s) = 3.48998 3.68651 3.58959
# Velocity P-wave (km/s) = 6.42602 7.18661 6.81693
#
# Compressibility (1/GPa) = 0.02196494
#
# Stress axis : x y z
#
# Youngs Moduli (GPa) = 75.18395 75.18395 29.30108
#
# Poissons Ratio (x) = 0.30950 0.22365
# Poissons Ratio (y) = 0.30950 0.22365
# Poissons Ratio (z) = 0.57387 0.57387
#
# Static dielectric constant tensor:
#      x y z
#    x 3.482020 0.000000 0.000000 
#    y 0.000000 3.482020 0.000000 
#    z 0.000000 0.000000 3.165390 
# 
# 
# High freq. dielectric constant tensor:
#      x y z
#    x 1.710560 0.000000 0.000000 
#    y 0.000000 1.710560 0.000000 
#    z 0.000000 0.000000 1.685810 
# 
# From -- ./inp_files/1982.got.cif
#   From: 2010.03.12/outbox.cif.g09.slc.cpg/sg191_1_cif.got.tgz:1982.got - 2010.04.01 12:09:02.
