data_PCOD8329690
_publ_section_title
;
Structure prediction by ZEFSAII (Michael W. Deem and Ramdas Pophale) SiO2 
 PCOD8329690
Probable space group: P 6/M C C
;
_chemical_formula_sum "Si O2"
_cell_formula_units_Z 122
_cell_length_a 16.657975
_cell_length_b 16.657975
_cell_length_c 23.707865
_cell_angle_alpha 90.000000
_cell_angle_beta 90.000000
_cell_angle_gamma 120.000000
_cell_volume 5697.279020
_symmetry_space_group_name_H-M "P 6/M C C"
_symmetry_group_IT_number 192
_symmetry_cell_setting 'hexagonal'
loop_
_space_group_symop_operation_xyz
x,y,z
x-y,x,z
-y,x-y,z
-x,-y,z
-x+y,-x,z
y,-x+y,z
x-y,-y,1/2-z
-x,-x+y,1/2-z
y,x,1/2-z
-y,-x,1/2-z
-x+y,y,1/2-z
x,x-y,1/2-z
-x,-y,-z
-x+y,-x,-z
y,-x+y,-z
x,y,-z
x-y,x,-z
-y,x-y,-z
-x+y,y,1/2+z
x,x-y,1/2+z
-y,-x,1/2+z
y,x,1/2+z
x-y,-y,1/2+z
-x,-x+y,1/2+z
loop_
_atom_site_type_symbol
_atom_site_label
_atom_site_fract_x
_atom_site_fract_y
_atom_site_fract_z
Si Si1 0.500000 0.000000 0.250000
Si Si2 0.516756 0.376610 0.846074
Si Si3 0.816238 0.998458 0.815555
Si Si4 0.943996 0.786155 0.000000
Si Si5 0.514049 0.600767 0.560292
Si Si6 0.289649 0.964338 0.097167
Si Si7 0.666667 0.333334 0.185311
O O1 0.416096 0.930901 0.207798
O O2 0.597872 0.457232 0.884548
O O3 0.427683 0.311554 0.884358
O O4 0.565473 0.317533 0.830668
O O5 0.823950 0.910994 0.834451
O O6 0.797782 0.000000 0.750000
O O7 0.730425 0.996037 0.846431
O O8 0.872721 0.824395 0.000000
O O9 0.924147 0.721497 0.054870
O O10 0.500000 0.500000 0.554490
O O11 0.482967 0.625472 0.500000
O O12 0.622500 0.673505 0.568474
O O13 0.666668 0.333334 0.250000
#
# Coordination Sequence:
#
# PCOD8329690 Si02
#       7
#     6  24  24  12  24  24   8
#     4  12  20  44  74  96 132 192 226 286 348 436
#     4  11  25  43  72 100 138 181 234 281 361 412
#     4  10  22  40  61  89 128 170 219 273 339 407
#     4  12  27  46  69 100 142 186 236 293 365 432
#     4   9  18  39  69  92 128 171 221 279 337 398
#     4  11  22  40  67 101 128 174 235 283 338 416
#     4  12  27  48  67 107 151 186 222 286 359 436
#
# _framework density 21.413732
#
# number of rings (size 3 to 8) (size 9 to 14) (size 15 to 20)
#    0.000    1.377    4.918    1.475    2.754    3.934 
#    3.541    2.951    0.000    0.000    0.000    0.000 
#    0.000    0.000    0.000    0.000    0.000    0.000 
#
# Total GULP energy -1511698.073783 kJ/mol
# GULP energy per Si atom -12390.967818 kJ/mol
# Density = 2.136499 g / cm^3
# Si number density = 21.413732 Si / 1000 Ang^3
#
#
#
# Elastic Constant Matrix: (Units=GPa)
#
#
# Indices 1 2 3 4 5 6 
#
# 1 107.8777 42.7419 51.5895 -0.0001 0.0001 -0.0003
# 2 42.7419 107.8784 51.5898 0.0000 0.0000 0.0002
# 3 51.5895 51.5898 115.5241 0.0000 0.0002 -0.0001
# 4 -0.0001 0.0000 0.0000 29.7629 0.0001 0.0000
# 5 0.0001 0.0000 0.0002 0.0001 29.7631 0.0001
# 6 -0.0003 0.0002 -0.0001 0.0000 0.0001 32.5681
#
#
#
# Elastic Compliance Matrix: (Units=1/GPa)
#
#
# Indices 1 2 3 4 5 6 
#
# 1 0.012459 -0.002894 -0.004272 0.000000 0.000000 0.000000
# 2 -0.002894 0.012459 -0.004272 0.000000 0.000000 0.000000
# 3 -0.004272 -0.004272 0.012471 0.000000 0.000000 0.000000
# 4 0.000000 0.000000 0.000000 0.033599 0.000000 0.000000
# 5 0.000000 0.000000 0.000000 0.000000 0.033599 0.000000
# 6 0.000000 0.000000 0.000000 0.000000 0.000000 0.030705
#
#
# Mechanical properties :
#
#
# Convention : Reuss Voigt Hill
#
# Bulk Modulus (GPa) = 68.89100 69.23584 69.06342
# Shear Modulus (GPa) = 30.67413 30.77609 30.72511
#
# Velocity S-wave (km/s) = 3.78888 3.79517 3.79203
# Velocity P-wave (km/s) = 7.16813 7.18381 7.17597
#
# Compressibility (1/GPa) = 0.01451569
#
# Stress axis : x y z
#
# Youngs Moduli (GPa) = 80.26337 80.26379 80.18365
#
# Poissons Ratio (x) = 0.23224 0.34252
# Poissons Ratio (y) = 0.23224 0.34252
# Poissons Ratio (z) = 0.34286 0.34286
#
# Static dielectric constant tensor:
#      x y z
#    x 3.714140 0.000000 0.000000 
#    y 0.000000 3.714140 0.000010 
#    z 0.000000 0.000010 4.967760 
# 
# 
# High freq. dielectric constant tensor:
#      x y z
#    x 1.826570 0.000000 0.000000 
#    y 0.000000 1.826570 0.000000 
#    z 0.000000 0.000000 1.864480 
# 
# From -- ./inp_files/5797.got.cif
#   From: 2010.03.12/outbox.cif.g09.slc.cpg/sg192_3_cif.got.tgz:5797.got - 2010.04.01 12:16:15.
