data_PCOD8329099
_publ_section_title
;
Structure prediction by ZEFSAII (Michael W. Deem and Ramdas Pophale) SiO2 
 PCOD8329099
Probable space group: P 6/M M M
;
_chemical_formula_sum "Si O2"
_cell_formula_units_Z 144
_cell_length_a 31.305661
_cell_length_b 31.305661
_cell_length_c 8.980866
_cell_angle_alpha 90.000000
_cell_angle_beta 90.000000
_cell_angle_gamma 120.000000
_cell_volume 7622.450353
_symmetry_space_group_name_H-M "P 6/M M M"
_symmetry_group_IT_number 191
_symmetry_cell_setting 'hexagonal'
loop_
_space_group_symop_operation_xyz
x,y,z
x-y,x,z
-y,x-y,z
-x,-y,z
-x+y,-x,z
y,-x+y,z
x-y,-y,-z
-x,-x+y,-z
y,x,-z
-y,-x,-z
-x+y,y,-z
x,x-y,-z
-x,-y,-z
-x+y,-x,-z
y,-x+y,-z
x,y,-z
x-y,x,-z
-y,x-y,-z
-x+y,y,z
x,x-y,z
-y,-x,z
y,x,z
x-y,-y,z
-x,-x+y,z
loop_
_atom_site_type_symbol
_atom_site_label
_atom_site_fract_x
_atom_site_fract_y
_atom_site_fract_z
Si Si1 0.851890 0.605037 0.327403
Si Si2 0.702043 0.756540 0.676652
Si Si3 0.482194 0.335500 0.824277
Si Si4 0.235840 0.666844 0.328147
Si Si5 0.478871 0.056275 0.673199
Si Si6 0.201989 0.054022 0.322676
O O1 0.857225 0.594780 0.500000
O O2 0.809525 0.619050 0.305992
O O3 0.902977 0.649736 0.261704
O O4 0.838029 0.556555 0.234321
O O5 0.701397 0.759866 0.500000
O O6 0.712697 0.712697 0.725311
O O7 0.745650 0.808633 0.738278
O O8 0.535901 0.348759 0.767273
O O9 0.467383 0.375036 0.768104
O O10 0.482273 0.335712 0.000000
O O11 0.223495 0.670207 0.500000
O O12 0.251621 0.625811 0.305477
O O13 0.281044 0.718957 0.273393
O O14 0.476271 0.066959 0.500000
O O15 0.532843 0.065685 0.714150
O O16 0.438044 0.000000 0.711510
O O17 0.204033 0.056775 0.500000
O O18 0.191482 0.095741 0.255866
O O19 0.158623 0.000000 0.271038
#
# Coordination Sequence:
#
# PCOD8329099 Si02
#       6
#    24  24  24  24  24  24
#     4  10  20  34  52  72  96 131 175 218 258 303
#     4   8  14  25  43  67  90 112 146 199 260 311
#     4  12  25  37  52  78 112 146 176 207 250 307
#     4  10  21  39  63  87 109 135 172 218 264 308
#     4   9  19  38  63  86 106 133 173 218 260 301
#     4   8  12  18  30  50  77 108 143 187 240 293
#
# _framework density 18.891563000000001
#
# number of rings (size 3 to 8) (size 9 to 14) (size 15 to 20)
#    0.000    2.500    0.000    4.667    0.000    9.000 
#    0.000    2.500    0.000    1.167    0.000    1.167 
#    0.000    0.000    0.000    0.000    0.000    0.000 
#
# Total GULP energy -1785420.402868 kJ/mol
# GULP energy per Si atom -12398.752798 kJ/mol
# Density = 1.884856 g / cm^3
# Si number density = 18.891563 Si / 1000 Ang^3
#
#
#
# Elastic Constant Matrix: (Units=GPa)
#
#
# Indices 1 2 3 4 5 6 
#
# 1 105.3611 37.6078 35.2773 0.0000 0.0000 0.0000
# 2 37.6078 105.3611 35.2773 0.0000 0.0000 0.0000
# 3 35.2773 35.2773 63.0310 0.0000 0.0000 0.0000
# 4 0.0000 0.0000 0.0000 5.3303 0.0000 0.0000
# 5 0.0000 0.0000 0.0000 0.0000 5.3303 0.0000
# 6 0.0000 0.0000 0.0000 0.0000 0.0000 33.8767
#
#
#
# Elastic Compliance Matrix: (Units=1/GPa)
#
#
# Indices 1 2 3 4 5 6 
#
# 1 0.012212 -0.002548 -0.005409 0.000000 0.000000 0.000000
# 2 -0.002548 0.012212 -0.005409 0.000000 0.000000 0.000000
# 3 -0.005409 -0.005409 0.021919 0.000000 0.000000 0.000000
# 4 0.000000 0.000000 0.000000 0.187605 0.000000 0.000000
# 5 0.000000 0.000000 0.000000 0.000000 0.187605 0.000000
# 6 0.000000 0.000000 0.000000 0.000000 0.000000 0.029519
#
#
# Mechanical properties :
#
#
# Convention : Reuss Voigt Hill
#
# Bulk Modulus (GPa) = 50.98820 54.45312 52.72066
# Shear Modulus (GPa) = 10.32334 19.94685 15.13509
#
# Velocity S-wave (km/s) = 2.34017 3.25293 2.83354
# Velocity P-wave (km/s) = 5.86092 6.55708 6.21875
#
# Compressibility (1/GPa) = 0.01961238
#
# Stress axis : x y z
#
# Youngs Moduli (GPa) = 81.88980 81.88980 45.62172
#
# Poissons Ratio (x) = 0.20865 0.24675
# Poissons Ratio (y) = 0.20865 0.24675
# Poissons Ratio (z) = 0.44291 0.44291
#
# Static dielectric constant tensor:
#      x y z
#    x 3.622770 0.000000 0.000000 
#    y 0.000000 3.622770 0.000000 
#    z 0.000000 0.000000 2.984000 
# 
# 
# High freq. dielectric constant tensor:
#      x y z
#    x 1.741230 0.000000 0.000000 
#    y 0.000000 1.741230 0.000000 
#    z 0.000000 0.000000 1.679040 
# 
# From -- ./inp_files/1975.got.cif
#   From: 2010.03.12/outbox.cif.g09.slc.cpg/sg191_1_cif.got.tgz:1975.got - 2010.04.01 12:09:02.
