data_PCOD8329734
_publ_section_title
;
Structure prediction by ZEFSAII (Michael W. Deem and Ramdas Pophale) SiO2 
 PCOD8329734
Probable space group: P 6/M C C
;
_chemical_formula_sum "Si O2"
_cell_formula_units_Z 132
_cell_length_a 23.521091
_cell_length_b 23.521091
_cell_length_c 14.138628
_cell_angle_alpha 90.000000
_cell_angle_beta 90.000000
_cell_angle_gamma 120.000000
_cell_volume 6774.119037
_symmetry_space_group_name_H-M "P 6/M C C"
_symmetry_group_IT_number 192
_symmetry_cell_setting 'hexagonal'
loop_
_space_group_symop_operation_xyz
x,y,z
x-y,x,z
-y,x-y,z
-x,-y,z
-x+y,-x,z
y,-x+y,z
x-y,-y,1/2-z
-x,-x+y,1/2-z
y,x,1/2-z
-y,-x,1/2-z
-x+y,y,1/2-z
x,x-y,1/2-z
-x,-y,-z
-x+y,-x,-z
y,-x+y,-z
x,y,-z
x-y,x,-z
-y,x-y,-z
-x+y,y,1/2+z
x,x-y,1/2+z
-y,-x,1/2+z
y,x,1/2+z
x-y,-y,1/2+z
-x,-x+y,1/2+z
loop_
_atom_site_type_symbol
_atom_site_label
_atom_site_fract_x
_atom_site_fract_y
_atom_site_fract_z
Si Si1 0.160405 0.290228 0.500000
Si Si2 0.595117 0.777713 0.146814
Si Si3 0.027231 0.362887 0.353705
Si Si4 0.489056 0.325678 0.607458
Si Si5 0.240644 0.260451 0.000000
Si Si6 0.538060 0.908290 0.395644
Si Si7 0.141751 0.570876 0.250000
O O1 0.184028 0.337782 0.410316
O O2 0.192751 0.243272 0.500000
O O3 0.080639 0.245873 0.500000
O O4 0.614943 0.807472 0.250000
O O5 0.533623 0.782574 0.105246
O O6 0.570032 0.701446 0.148923
O O7 0.098612 0.426112 0.353097
O O8 0.026702 0.302915 0.407655
O O9 0.000000 0.336948 0.250000
O O10 0.982949 0.387536 0.406096
O O11 0.509315 0.353639 0.500000
O O12 0.548680 0.364432 0.683775
O O13 0.508098 0.882012 0.500000
O O14 0.483720 0.905052 0.324773
#
# Coordination Sequence:
#
# PCOD8329734 Si02
#       7
#    12  24  24  24  12  24  12
#     4  12  24  40  68  99 134 174 210 272 324 390
#     4  12  20  38  66  91 119 165 220 274 336 387
#     4  12  20  36  61  89 126 161 209 262 319 394
#     4  12  23  39  59  86 122 165 213 267 327 390
#     4  12  24  40  64 102 136 170 216 264 324 396
#     4  12  23  39  59  86 122 165 213 267 327 390
#     4  12  26  39  54  84 128 166 214 260 318 394
#
# _framework density 19.485928999999999
#
# number of rings (size 3 to 8) (size 9 to 14) (size 15 to 20)
#    0.000    0.000   10.909    0.545    0.000    1.455 
#    0.000    1.818    0.000    3.091    0.000    5.091 
#    0.000    0.000    0.000    3.273    0.000    0.000 
#
# Total GULP energy -1636271.126721 kJ/mol
# GULP energy per Si atom -12395.993384 kJ/mol
# Density = 1.944158 g / cm^3
# Si number density = 19.485929 Si / 1000 Ang^3
#
#
#
# Elastic Constant Matrix: (Units=GPa)
#
#
# Indices 1 2 3 4 5 6 
#
# 1 65.4750 25.2662 27.9481 0.0000 0.0000 0.0000
# 2 25.2662 65.4750 27.9481 0.0000 0.0000 0.0000
# 3 27.9481 27.9481 155.8676 0.0000 0.0000 0.0000
# 4 0.0000 0.0000 0.0000 28.8816 0.0000 0.0000
# 5 0.0000 0.0000 0.0000 0.0000 28.8816 0.0000
# 6 0.0000 0.0000 0.0000 0.0000 0.0000 20.1044
#
#
#
# Elastic Compliance Matrix: (Units=1/GPa)
#
#
# Indices 1 2 3 4 5 6 
#
# 1 0.018629 -0.006241 -0.002221 0.000000 0.000000 0.000000
# 2 -0.006241 0.018629 -0.002221 0.000000 0.000000 0.000000
# 3 -0.002221 -0.002221 0.007212 0.000000 0.000000 0.000000
# 4 0.000000 0.000000 0.000000 0.034624 0.000000 0.000000
# 5 0.000000 0.000000 0.000000 0.000000 0.034624 0.000000
# 6 0.000000 0.000000 0.000000 0.000000 0.000000 0.049740
#
#
# Mechanical properties :
#
#
# Convention : Reuss Voigt Hill
#
# Bulk Modulus (GPa) = 43.28214 49.90471 46.59342
# Shear Modulus (GPa) = 25.97021 29.28385 27.62703
#
# Velocity S-wave (km/s) = 3.65467 3.88083 3.76945
# Velocity P-wave (km/s) = 6.33001 6.76368 6.55043
#
# Compressibility (1/GPa) = 0.02310422
#
# Stress axis : x y z
#
# Youngs Moduli (GPa) = 53.67847 53.67847 138.65172
#
# Poissons Ratio (x) = 0.33499 0.30800
# Poissons Ratio (y) = 0.33499 0.30800
# Poissons Ratio (z) = 0.11924 0.11924
#
# Static dielectric constant tensor:
#      x y z
#    x 3.683150 0.000000 0.000000 
#    y 0.000000 3.683150 0.000000 
#    z 0.000000 0.000000 3.787590 
# 
# 
# High freq. dielectric constant tensor:
#      x y z
#    x 1.732690 0.000000 0.000000 
#    y 0.000000 1.732690 0.000000 
#    z 0.000000 0.000000 1.793420 
# 
# From -- ./inp_files/3277.got.cif
#   From: 2010.03.12/outbox.cif.g09.slc.cpg/sg192_2_cif.got.tgz:3277.got - 2010.04.01 12:16:15.
