data_PCOD8329628
_publ_section_title
;
Structure prediction by ZEFSAII (Michael W. Deem and Ramdas Pophale) SiO2 
 PCOD8329628
Probable space group: P 6/M C C
;
_chemical_formula_sum "Si O2"
_cell_formula_units_Z 132
_cell_length_a 25.030812
_cell_length_b 25.030812
_cell_length_c 14.066094
_cell_angle_alpha 90.000000
_cell_angle_beta 90.000000
_cell_angle_gamma 120.000000
_cell_volume 7632.275240
_symmetry_space_group_name_H-M "P 6/M C C"
_symmetry_group_IT_number 192
_symmetry_cell_setting 'hexagonal'
loop_
_space_group_symop_operation_xyz
x,y,z
x-y,x,z
-y,x-y,z
-x,-y,z
-x+y,-x,z
y,-x+y,z
x-y,-y,1/2-z
-x,-x+y,1/2-z
y,x,1/2-z
-y,-x,1/2-z
-x+y,y,1/2-z
x,x-y,1/2-z
-x,-y,-z
-x+y,-x,-z
y,-x+y,-z
x,y,-z
x-y,x,-z
-y,x-y,-z
-x+y,y,1/2+z
x,x-y,1/2+z
-y,-x,1/2+z
y,x,1/2+z
x-y,-y,1/2+z
-x,-x+y,1/2+z
loop_
_atom_site_type_symbol
_atom_site_label
_atom_site_fract_x
_atom_site_fract_y
_atom_site_fract_z
Si Si1 0.271106 0.430606 0.390510
Si Si2 0.964210 0.857106 0.500000
Si Si3 0.290000 0.846665 0.393997
Si Si4 0.219510 0.059941 0.190493
Si Si5 0.927900 0.658555 0.736401
Si Si6 0.667718 0.210337 0.248657
O O1 0.292206 0.432431 0.500000
O O2 0.203080 0.421005 0.385891
O O3 0.265287 0.370865 0.336871
O O4 0.319043 0.495025 0.338716
O O5 0.915815 0.882199 0.500000
O O6 0.953777 0.812497 0.411773
O O7 0.313798 0.865131 0.500000
O O8 0.303466 0.908357 0.340323
O O9 0.329003 0.818970 0.347843
O O10 0.195890 0.097945 0.250000
O O11 0.293859 0.091789 0.190197
O O12 0.200462 0.000000 0.250000
O O13 0.000000 0.688600 0.750000
O O14 0.716983 0.283018 0.250000
O O15 0.599767 0.199533 0.250000
#
# Coordination Sequence:
#
# PCOD8329628 Si02
#       6
#    24  12  24  24  24  24
#     4   9  18  35  54  74 104 143 183 212 261 337
#     4  12  25  42  62  80 106 152 190 223 279 347
#     4   9  18  33  52  74 103 138 178 210 257 327
#     4  11  22  39  56  79 111 132 172 230 277 329
#     4  10  21  35  52  77 102 131 167 221 283 326
#     4   9  17  30  51  80 114 145 176 216 254 302
#
# _framework density 17.294972999999999
#
# number of rings (size 3 to 8) (size 9 to 14) (size 15 to 20)
#    0.000    2.182    1.818    3.000    1.273    1.455 
#    6.545    0.000    0.000   10.909    0.000   10.182 
#    0.000    0.000    0.000    0.000    0.000    0.000 
#
# Total GULP energy -1635909.148993 kJ/mol
# GULP energy per Si atom -12393.251129 kJ/mol
# Density = 1.725561 g / cm^3
# Si number density = 17.294973 Si / 1000 Ang^3
#
#
#
# Elastic Constant Matrix: (Units=GPa)
#
#
# Indices 1 2 3 4 5 6 
#
# 1 93.8739 46.4267 50.9002 0.0000 0.0000 0.0000
# 2 46.4267 93.8739 50.9002 0.0000 0.0000 0.0000
# 3 50.9002 50.9002 156.6936 0.0000 0.0000 0.0000
# 4 0.0000 0.0000 0.0000 18.2422 0.0000 0.0000
# 5 0.0000 0.0000 0.0000 0.0000 18.2422 0.0000
# 6 0.0000 0.0000 0.0000 0.0000 0.0000 23.7236
#
#
#
# Elastic Compliance Matrix: (Units=1/GPa)
#
#
# Indices 1 2 3 4 5 6 
#
# 1 0.015201 -0.005875 -0.003029 0.000000 0.000000 0.000000
# 2 -0.005875 0.015201 -0.003029 0.000000 0.000000 0.000000
# 3 -0.003029 -0.003029 0.008350 0.000000 0.000000 0.000000
# 4 0.000000 0.000000 0.000000 0.054818 0.000000 0.000000
# 5 0.000000 0.000000 0.000000 0.000000 0.054818 0.000000
# 6 0.000000 0.000000 0.000000 0.000000 0.000000 0.042152
#
#
# Mechanical properties :
#
#
# Convention : Reuss Voigt Hill
#
# Bulk Modulus (GPa) = 67.18683 71.21065 69.19874
# Shear Modulus (GPa) = 22.79268 25.12255 23.95761
#
# Velocity S-wave (km/s) = 3.63420 3.81542 3.72591
# Velocity P-wave (km/s) = 7.51943 7.78932 7.65556
#
# Compressibility (1/GPa) = 0.01488387
#
# Stress axis : x y z
#
# Youngs Moduli (GPa) = 65.78596 65.78596 119.76097
#
# Poissons Ratio (x) = 0.38651 0.36279
# Poissons Ratio (y) = 0.38651 0.36279
# Poissons Ratio (z) = 0.19929 0.19929
#
# Static dielectric constant tensor:
#      x y z
#    x 3.081170 0.000000 0.000000 
#    y 0.000000 3.081170 0.000000 
#    z 0.000000 0.000000 3.495730 
# 
# 
# High freq. dielectric constant tensor:
#      x y z
#    x 1.660480 0.000000 0.000000 
#    y 0.000000 1.660480 0.000000 
#    z 0.000000 0.000000 1.676760 
# 
# From -- ./inp_files/3226.got.cif
#   From: 2010.03.12/outbox.cif.g09.slc.cpg/sg192_2_cif.got.tgz:3226.got - 2010.04.01 12:16:15.
