data_PCOD8329693
_publ_section_title
;
Structure prediction by ZEFSAII (Michael W. Deem and Ramdas Pophale) SiO2 
 PCOD8329693
Probable space group: P 6/M C C
;
_chemical_formula_sum "Si O2"
_cell_formula_units_Z 128
_cell_length_a 20.619517
_cell_length_b 20.619517
_cell_length_c 19.505187
_cell_angle_alpha 90.000000
_cell_angle_beta 90.000000
_cell_angle_gamma 120.000000
_cell_volume 7181.873081
_symmetry_space_group_name_H-M "P 6/M C C"
_symmetry_group_IT_number 192
_symmetry_cell_setting 'hexagonal'
loop_
_space_group_symop_operation_xyz
x,y,z
x-y,x,z
-y,x-y,z
-x,-y,z
-x+y,-x,z
y,-x+y,z
x-y,-y,1/2-z
-x,-x+y,1/2-z
y,x,1/2-z
-y,-x,1/2-z
-x+y,y,1/2-z
x,x-y,1/2-z
-x,-y,-z
-x+y,-x,-z
y,-x+y,-z
x,y,-z
x-y,x,-z
-y,x-y,-z
-x+y,y,1/2+z
x,x-y,1/2+z
-y,-x,1/2+z
y,x,1/2+z
x-y,-y,1/2+z
-x,-x+y,1/2+z
loop_
_atom_site_type_symbol
_atom_site_label
_atom_site_fract_x
_atom_site_fract_y
_atom_site_fract_z
Si Si1 0.802985 0.401492 0.927049
Si Si2 0.441023 0.144600 0.387411
Si Si3 0.333334 0.666667 0.168005
Si Si4 0.144599 0.703576 0.112590
Si Si5 0.912675 0.530213 0.750000
Si Si6 0.915217 0.233395 0.500000
Si Si7 0.318178 0.084782 0.000000
O O1 0.855476 0.490595 0.926523
O O2 0.750672 0.375335 0.860250
O O3 0.855479 0.364883 0.926521
O O4 0.758633 0.379315 0.000000
O O5 0.458452 0.229226 0.379667
O O6 0.436350 0.110194 0.313400
O O7 0.366410 0.095809 0.431552
O O8 0.333334 0.666667 0.250000
O O9 0.110193 0.673844 0.186601
O O10 0.095808 0.729398 0.068448
O O11 0.877059 0.438530 0.750000
O O12 0.000000 0.564070 0.750000
O O13 0.855866 0.144133 0.500000
O O14 1.000000 0.248100 0.500000
#
# Coordination Sequence:
#
# PCOD8329693 Si02
#       7
#    24  24   8  24  24  12  12
#     4  12  22  36  51  77 111 148 196 248 294 328
#     4  11  22  36  55  77 108 144 192 236 285 331
#     4  12  28  32  52  75 109 158 211 264 298 323
#     4  11  22  36  55  77 108 144 192 236 285 331
#     4  11  23  36  50  72 106 147 189 245 292 330
#     4  10  22  41  63  86 109 141 179 221 274 346
#     4  10  22  41  63  86 109 141 179 221 274 346
#
# _framework density 17.822648999999998
#
# number of rings (size 3 to 8) (size 9 to 14) (size 15 to 20)
#    0.000    0.938    5.625    2.250    2.625    0.000 
#    0.000    0.938    0.000    0.188    0.000    0.000 
#    0.000    0.000    0.000    0.000    0.000   39.000 
#
# Total GULP energy -1586555.953179 kJ/mol
# GULP energy per Si atom -12394.968384 kJ/mol
# Density = 1.778208 g / cm^3
# Si number density = 17.822649 Si / 1000 Ang^3
#
#
#
# Elastic Constant Matrix: (Units=GPa)
#
#
# Indices 1 2 3 4 5 6 
#
# 1 86.6961 54.5500 35.0435 0.0000 0.0000 0.0000
# 2 54.5500 86.6962 35.0435 0.0000 0.0000 0.0000
# 3 35.0435 35.0435 155.1650 -0.0001 0.0000 0.0000
# 4 0.0000 0.0000 -0.0001 23.6212 0.0000 0.0000
# 5 0.0000 0.0000 0.0000 0.0000 23.6212 0.0000
# 6 0.0000 0.0000 0.0000 0.0000 0.0000 16.0731
#
#
#
# Elastic Compliance Matrix: (Units=1/GPa)
#
#
# Indices 1 2 3 4 5 6 
#
# 1 0.019541 -0.011567 -0.001801 0.000000 0.000000 0.000000
# 2 -0.011567 0.019541 -0.001801 0.000000 0.000000 0.000000
# 3 -0.001801 -0.001801 0.007258 0.000000 0.000000 0.000000
# 4 0.000000 0.000000 0.000000 0.042335 0.000000 0.000000
# 5 0.000000 0.000000 0.000000 0.000000 0.042335 0.000000
# 6 0.000000 0.000000 0.000000 0.000000 0.000000 0.062216
#
#
# Mechanical properties :
#
#
# Convention : Reuss Voigt Hill
#
# Bulk Modulus (GPa) = 62.49269 64.20346 63.34807
# Shear Modulus (GPa) = 21.84396 26.25780 24.05088
#
# Velocity S-wave (km/s) = 3.50470 3.84250 3.67748
# Velocity P-wave (km/s) = 7.17753 7.46915 7.32479
#
# Compressibility (1/GPa) = 0.01600187
#
# Stress axis : x y z
#
# Youngs Moduli (GPa) = 51.17540 51.17545 137.77627
#
# Poissons Ratio (x) = 0.59196 0.24810
# Poissons Ratio (y) = 0.59196 0.24810
# Poissons Ratio (z) = 0.09215 0.09215
#
# Static dielectric constant tensor:
#      x y z
#    x 3.134120 0.000000 0.000000 
#    y 0.000000 3.134120 0.000000 
#    z 0.000000 0.000000 3.473780 
# 
# 
# High freq. dielectric constant tensor:
#      x y z
#    x 1.665050 0.000000 0.000000 
#    y 0.000000 1.665050 0.000000 
#    z 0.000000 0.000000 1.709380 
# 
# From -- ./inp_files/5057.got.cif
#   From: 2010.03.12/outbox.cif.g09.slc.cpg/sg192_3_cif.got.tgz:5057.got - 2010.04.01 12:16:15.
