data_PCOD8329283
_publ_section_title
;
Structure prediction by ZEFSAII (Michael W. Deem and Ramdas Pophale) SiO2 
 PCOD8329283
Probable space group: P 6/M M M
;
_chemical_formula_sum "Si O2"
_cell_formula_units_Z 96
_cell_length_a 27.663610
_cell_length_b 27.663610
_cell_length_c 9.490714
_cell_angle_alpha 90.000000
_cell_angle_beta 90.000000
_cell_angle_gamma 120.000000
_cell_volume 6289.950455
_symmetry_space_group_name_H-M "P 6/M M M"
_symmetry_group_IT_number 191
_symmetry_cell_setting 'hexagonal'
loop_
_space_group_symop_operation_xyz
x,y,z
x-y,x,z
-y,x-y,z
-x,-y,z
-x+y,-x,z
y,-x+y,z
x-y,-y,-z
-x,-x+y,-z
y,x,-z
-y,-x,-z
-x+y,y,-z
x,x-y,-z
-x,-y,-z
-x+y,-x,-z
y,-x+y,-z
x,y,-z
x-y,x,-z
-y,x-y,-z
-x+y,y,z
x,x-y,z
-y,-x,z
y,x,z
x-y,-y,z
-x,-x+y,z
loop_
_atom_site_type_symbol
_atom_site_label
_atom_site_fract_x
_atom_site_fract_y
_atom_site_fract_z
Si Si1 0.938202 0.662100 0.332831
Si Si2 0.938711 0.167869 0.667775
Si Si3 0.444211 0.666452 0.836529
Si Si4 0.831972 0.551761 0.335447
O O1 0.934213 0.661464 0.500000
O O2 0.928237 0.711353 0.275237
O O3 0.889713 0.602856 0.275075
O O4 0.000000 0.674590 0.285925
O O5 0.935760 0.166916 0.500000
O O6 0.891379 0.108621 0.730606
O O7 0.000000 0.180306 0.716963
O O8 0.430011 0.715006 0.804076
O O9 0.391475 0.608526 0.788990
O O10 0.497006 0.675181 0.746956
O O11 0.458159 0.665848 0.000000
O O12 0.836042 0.541478 0.500000
O O13 0.782694 0.565387 0.305688
#
# Coordination Sequence:
#
# PCOD8329283 Si02
#       4
#    24  24  24  24
#     4   8  13  21  34  52  73  96 120 148 186 230
#     4   8  12  17  26  41  62  89 120 153 189 228
#     4   9  17  29  44  60  78 101 127 152 180 219
#     4   9  16  25  39  60  82 100 121 155 196 229
#
# _framework density 15.262441000000001
#
# number of rings (size 3 to 8) (size 9 to 14) (size 15 to 20)
#    0.000    3.500    0.000    2.500    0.000    4.500 
#    0.000    0.000    0.000    3.250    0.000    7.000 
#    0.000    0.000    0.000    0.000    0.000    0.000 
#
# Total GULP energy -1189714.291073 kJ/mol
# GULP energy per Si atom -12392.857199 kJ/mol
# Density = 1.522770 g / cm^3
# Si number density = 15.262441 Si / 1000 Ang^3
#
#
#
# Elastic Constant Matrix: (Units=GPa)
#
#
# Indices 1 2 3 4 5 6 
#
# 1 136.8653 79.9807 28.8916 0.0000 0.0000 0.0000
# 2 79.9807 136.8653 28.8916 0.0000 0.0000 0.0000
# 3 28.8916 28.8916 19.0586 0.0000 0.0000 0.0000
# 4 0.0000 0.0000 0.0000 7.8401 0.0000 0.0000
# 5 0.0000 0.0000 0.0000 0.0000 7.8401 0.0000
# 6 0.0000 0.0000 0.0000 0.0000 0.0000 28.4423
#
#
#
# Elastic Compliance Matrix: (Units=1/GPa)
#
#
# Indices 1 2 3 4 5 6 
#
# 1 0.012658 -0.004921 -0.011729 0.000000 0.000000 0.000000
# 2 -0.004921 0.012658 -0.011729 0.000000 0.000000 0.000000
# 3 -0.011729 -0.011729 0.088029 0.000000 0.000000 0.000000
# 4 0.000000 0.000000 0.000000 0.127549 0.000000 0.000000
# 5 0.000000 0.000000 0.000000 0.000000 0.127549 0.000000
# 6 0.000000 0.000000 0.000000 0.000000 0.000000 0.035159
#
#
# Mechanical properties :
#
#
# Convention : Reuss Voigt Hill
#
# Bulk Modulus (GPa) = 17.67138 63.14631 40.40885
# Shear Modulus (GPa) = 10.43356 19.15954 14.79655
#
# Velocity S-wave (km/s) = 2.61743 3.54692 3.11702
# Velocity P-wave (km/s) = 4.55391 7.63136 6.28394
#
# Compressibility (1/GPa) = 0.05658866
#
# Stress axis : x y z
#
# Youngs Moduli (GPa) = 79.00036 79.00036 11.35985
#
# Poissons Ratio (x) = 0.38878 0.13324
# Poissons Ratio (y) = 0.38878 0.13324
# Poissons Ratio (z) = 0.92657 0.92657
#
# Static dielectric constant tensor:
#      x y z
#    x 3.093440 0.000000 0.000000 
#    y 0.000000 3.093440 0.000000 
#    z 0.000000 0.000000 2.467740 
# 
# 
# High freq. dielectric constant tensor:
#      x y z
#    x 1.581100 0.000000 0.000000 
#    y 0.000000 1.581100 0.000000 
#    z 0.000000 0.000000 1.531550 
# 
# From -- ./inp_files/2746.got.cif
#   From: 2010.03.12/outbox.cif.g09.slc.cpg/sg191_2_cif.got.tgz:2746.got - 2010.04.01 12:09:02.
