data_PCOD8329939
_publ_section_title
;
Structure prediction by ZEFSAII (Michael W. Deem and Ramdas Pophale) SiO2 
 PCOD8329939
Probable space group: P 63/M C M
;
_chemical_formula_sum "Si O2"
_cell_formula_units_Z 108
_cell_length_a 17.770883
_cell_length_b 17.770883
_cell_length_c 22.283418
_cell_angle_alpha 90.000000
_cell_angle_beta 90.000000
_cell_angle_gamma 120.000000
_cell_volume 6094.392963
_symmetry_space_group_name_H-M "P 63/M C M"
_symmetry_group_IT_number 193
_symmetry_cell_setting 'hexagonal'
loop_
_space_group_symop_operation_xyz
x,y,z
x-y,x,1/2+z
-y,x-y,z
-x,-y,1/2+z
-x+y,-x,z
y,-x+y,1/2+z
x-y,-y,1/2-z
-x,-x+y,1/2-z
y,x,1/2-z
-y,-x,-z
-x+y,y,-z
x,x-y,-z
-x,-y,-z
-x+y,-x,1/2-z
y,-x+y,-z
x,y,1/2-z
x-y,x,-z
-y,x-y,1/2-z
-x+y,y,1/2+z
x,x-y,1/2+z
-y,-x,1/2+z
y,x,z
x-y,-y,z
-x,-x+y,z
loop_
_atom_site_type_symbol
_atom_site_label
_atom_site_fract_x
_atom_site_fract_y
_atom_site_fract_z
Si Si1 0.531805 0.804994 0.320690
Si Si2 0.000000 0.794366 0.820542
Si Si3 0.842897 0.454199 0.679971
Si Si4 0.277803 0.178322 0.376049
Si Si5 0.373850 0.373850 0.678074
Si Si6 0.797019 0.898510 0.500000
O O1 0.555806 0.821860 0.250000
O O2 0.461569 0.703683 0.332035
O O3 0.475277 0.846479 0.346357
O O4 0.621983 0.840374 0.356186
O O5 0.911298 0.788927 0.842352
O O6 0.000000 0.795179 0.750000
O O7 0.000000 0.710048 0.847691
O O8 0.857963 0.450629 0.750000
O O9 0.918898 0.541366 0.651129
O O10 0.248263 0.248263 0.360379
O O11 0.267700 0.155994 0.446295
O O12 0.370237 0.370237 0.750000
O O13 0.858588 0.858588 0.483015
#
# Coordination Sequence:
#
# PCOD8329939 Si02
#       6
#    24  12  24  24  12  12
#     4  10  19  32  52  81 115 146 181 225 276 333
#     4  11  20  36  56  78 111 147 180 222 288 345
#     4   9  17  28  45  71 105 143 176 208 254 323
#     4  11  23  37  56  81 108 143 183 234 283 331
#     4   9  16  28  46  69  99 143 181 200 248 331
#     4  10  21  40  62  78  98 138 198 244 277 328
#
# _framework density 17.721207
#
# number of rings (size 3 to 8) (size 9 to 14) (size 15 to 20)
#    0.000    2.000    3.333    1.222    1.556    3.556 
#    0.667    0.000    0.000    1.333    0.000    4.667 
#    0.000    0.000    0.000    0.000    0.000    0.000 
#
# Total GULP energy -1338143.895643 kJ/mol
# GULP energy per Si atom -12390.221256 kJ/mol
# Density = 1.768087 g / cm^3
# Si number density = 17.721207 Si / 1000 Ang^3
#
#
#
# Elastic Constant Matrix: (Units=GPa)
#
#
# Indices 1 2 3 4 5 6 
#
# 1 89.8959 30.9918 30.1234 0.0000 0.0000 0.0000
# 2 30.9918 89.8959 30.1234 0.0000 0.0000 0.0000
# 3 30.1234 30.1234 49.6212 0.0000 0.0000 0.0000
# 4 0.0000 0.0000 0.0000 18.4526 0.0000 0.0000
# 5 0.0000 0.0000 0.0000 0.0000 18.4526 0.0000
# 6 0.0000 0.0000 0.0000 0.0000 0.0000 29.4521
#
#
#
# Elastic Compliance Matrix: (Units=1/GPa)
#
#
# Indices 1 2 3 4 5 6 
#
# 1 0.014419 -0.002558 -0.007200 0.000000 0.000000 0.000000
# 2 -0.002558 0.014419 -0.007200 0.000000 0.000000 0.000000
# 3 -0.007200 -0.007200 0.028895 0.000000 0.000000 0.000000
# 4 0.000000 0.000000 0.000000 0.054193 0.000000 0.000000
# 5 0.000000 0.000000 0.000000 0.000000 0.054193 0.000000
# 6 0.000000 0.000000 0.000000 0.000000 0.000000 0.033953
#
#
# Mechanical properties :
#
#
# Convention : Reuss Voigt Hill
#
# Bulk Modulus (GPa) = 41.99021 45.76560 43.87790
# Shear Modulus (GPa) = 20.66747 22.48308 21.57527
#
# Velocity S-wave (km/s) = 3.41875 3.56576 3.49303
# Velocity P-wave (km/s) = 6.27138 6.54479 6.40954
#
# Compressibility (1/GPa) = 0.02381508
#
# Stress axis : x y z
#
# Youngs Moduli (GPa) = 69.35487 69.35487 34.60859
#
# Poissons Ratio (x) = 0.17742 0.24919
# Poissons Ratio (y) = 0.17742 0.24919
# Poissons Ratio (z) = 0.49936 0.49936
#
# Static dielectric constant tensor:
#      x y z
#    x 3.525540 0.000000 0.000000 
#    y 0.000000 3.525540 0.000000 
#    z 0.000000 0.000000 2.836780 
# 
# 
# High freq. dielectric constant tensor:
#      x y z
#    x 1.698100 0.000000 0.000000 
#    y 0.000000 1.698100 0.000000 
#    z 0.000000 0.000000 1.625680 
# 
# From -- ./inp_files/7326.got.cif
#   From: 2010.03.12/outbox.cif.g09.slc.cpg/sg193_4_cif.got.tgz:7326.got - 2010.04.01 12:20:39.
