data_PCOD8329182
_publ_section_title
;
Structure prediction by ZEFSAII (Michael W. Deem and Ramdas Pophale) SiO2 
 PCOD8329182
Probable space group: P 6/M M M
;
_chemical_formula_sum "Si O2"
_cell_formula_units_Z 108
_cell_length_a 18.520357
_cell_length_b 18.520357
_cell_length_c 22.747523
_cell_angle_alpha 90.000000
_cell_angle_beta 90.000000
_cell_angle_gamma 120.000000
_cell_volume 6757.148328
_symmetry_space_group_name_H-M "P 6/M M M"
_symmetry_group_IT_number 191
_symmetry_cell_setting 'hexagonal'
loop_
_space_group_symop_operation_xyz
x,y,z
x-y,x,z
-y,x-y,z
-x,-y,z
-x+y,-x,z
y,-x+y,z
x-y,-y,-z
-x,-x+y,-z
y,x,-z
-y,-x,-z
-x+y,y,-z
x,x-y,-z
-x,-y,-z
-x+y,-x,-z
y,-x+y,-z
x,y,-z
x-y,x,-z
-y,x-y,-z
-x+y,y,z
x,x-y,z
-y,-x,z
y,x,z
x-y,-y,z
-x,-x+y,z
loop_
_atom_site_type_symbol
_atom_site_label
_atom_site_fract_x
_atom_site_fract_y
_atom_site_fract_z
Si Si1 0.906156 0.252284 0.566809
Si Si2 0.834434 0.333251 0.097355
Si Si3 0.903198 0.637249 0.000000
Si Si4 0.469313 0.095539 0.651098
Si Si5 0.497672 0.666336 0.228435
O O1 0.904813 0.280655 0.500000
O O2 0.847562 0.152439 0.573322
O O3 0.866209 0.294092 0.608516
O O4 0.000000 0.277062 0.585737
O O5 0.843798 0.421899 0.078862
O O6 0.736870 0.263130 0.092583
O O7 0.868240 0.336271 0.163588
O O8 0.890129 0.310152 0.056477
O O9 0.834528 0.669056 0.000000
O O10 0.000000 0.714386 0.000000
O O11 0.569175 0.138350 0.639447
O O12 0.452989 0.101855 0.720402
O O13 0.426931 0.000000 0.633882
O O14 0.510527 0.755264 0.243746
O O15 0.399727 0.600274 0.229387
#
# Coordination Sequence:
#
# PCOD8329182 Si02
#       5
#    24  24  12  24  24
#     4   9  17  29  45  63  82 106 137 173 213 258
#     4   9  17  28  43  64  91 123 154 180 205 237
#     4  10  21  35  49  66  87 111 140 176 219 261
#     4   9  17  27  39  58  83 110 141 176 212 248
#     4   9  16  26  40  58  82 113 147 178 205 234
#
# _framework density 15.983074
#
# number of rings (size 3 to 8) (size 9 to 14) (size 15 to 20)
#    0.000    2.889    0.000    1.444    0.000    4.000 
#    0.000    5.556    0.000    0.778    0.000    1.556 
#    0.000    0.000    0.000    0.000    0.000   28.889 
#
# Total GULP energy -1338076.929389 kJ/mol
# GULP energy per Si atom -12389.601198 kJ/mol
# Density = 1.594670 g / cm^3
# Si number density = 15.983074 Si / 1000 Ang^3
#
#
#
# Elastic Constant Matrix: (Units=GPa)
#
#
# Indices 1 2 3 4 5 6 
#
# 1 69.2286 38.0209 36.3985 0.0000 0.0000 0.0000
# 2 38.0209 69.2286 36.3985 0.0000 0.0000 0.0000
# 3 36.3985 36.3985 91.3656 0.0000 0.0000 0.0000
# 4 0.0000 0.0000 0.0000 21.0423 0.0000 0.0000
# 5 0.0000 0.0000 0.0000 0.0000 21.0423 0.0000
# 6 0.0000 0.0000 0.0000 0.0000 0.0000 15.6039
#
#
#
# Elastic Compliance Matrix: (Units=1/GPa)
#
#
# Indices 1 2 3 4 5 6 
#
# 1 0.022412 -0.009632 -0.005091 0.000000 0.000000 0.000000
# 2 -0.009632 0.022412 -0.005091 0.000000 0.000000 0.000000
# 3 -0.005091 -0.005091 0.015002 0.000000 0.000000 0.000000
# 4 0.000000 0.000000 0.000000 0.047523 0.000000 0.000000
# 5 0.000000 0.000000 0.000000 0.000000 0.047523 0.000000
# 6 0.000000 0.000000 0.000000 0.000000 0.000000 0.064087
#
#
# Mechanical properties :
#
#
# Convention : Reuss Voigt Hill
#
# Bulk Modulus (GPa) = 49.51432 50.16204 49.83818
# Shear Modulus (GPa) = 18.84526 19.47135 19.15830
#
# Velocity S-wave (km/s) = 3.43749 3.49413 3.46593
# Velocity P-wave (km/s) = 6.84117 6.90878 6.87506
#
# Compressibility (1/GPa) = 0.02019618
#
# Stress axis : x y z
#
# Youngs Moduli (GPa) = 44.61981 44.61981 66.65973
#
# Poissons Ratio (x) = 0.42977 0.33938
# Poissons Ratio (y) = 0.42977 0.33938
# Poissons Ratio (z) = 0.22717 0.22717
#
# Static dielectric constant tensor:
#      x y z
#    x 2.904180 0.000000 0.000000 
#    y 0.000000 2.904180 0.000000 
#    z 0.000000 0.000000 3.275910 
# 
# 
# High freq. dielectric constant tensor:
#      x y z
#    x 1.587630 0.000000 0.000000 
#    y 0.000000 1.587630 0.000000 
#    z 0.000000 0.000000 1.629510 
# 
# From -- ./inp_files/8329.got.cif
#   From: 2010.03.12/outbox.cif.g09.slc.cpg/sg191_5_cif.got.tgz:8329.got - 2010.04.01 12:09:02.
