data_PCOD8329187
_publ_section_title
;
Structure prediction by ZEFSAII (Michael W. Deem and Ramdas Pophale) SiO2 
 PCOD8329187
Probable space group: P 6/M M M
;
_chemical_formula_sum "Si O2"
_cell_formula_units_Z 120
_cell_length_a 18.214778
_cell_length_b 18.214778
_cell_length_c 24.875409
_cell_angle_alpha 90.000000
_cell_angle_beta 90.000000
_cell_angle_gamma 120.000000
_cell_volume 7147.408870
_symmetry_space_group_name_H-M "P 6/M M M"
_symmetry_group_IT_number 191
_symmetry_cell_setting 'hexagonal'
loop_
_space_group_symop_operation_xyz
x,y,z
x-y,x,z
-y,x-y,z
-x,-y,z
-x+y,-x,z
y,-x+y,z
x-y,-y,-z
-x,-x+y,-z
y,x,-z
-y,-x,-z
-x+y,y,-z
x,x-y,-z
-x,-y,-z
-x+y,-x,-z
y,-x+y,-z
x,y,-z
x-y,x,-z
-y,x-y,-z
-x+y,y,z
x,x-y,z
-y,-x,z
y,x,z
x-y,-y,z
-x,-x+y,z
loop_
_atom_site_type_symbol
_atom_site_label
_atom_site_fract_x
_atom_site_fract_y
_atom_site_fract_z
Si Si1 0.835528 0.333683 0.639093
Si Si2 0.666875 0.165087 0.237972
Si Si3 0.501267 0.834589 0.938317
Si Si4 0.906770 0.649937 0.560968
Si Si5 0.265036 0.904234 0.850507
O O1 0.842316 0.421158 0.622680
O O2 0.739471 0.260530 0.629522
O O3 0.863292 0.334733 0.700638
O O4 0.898611 0.321520 0.600516
O O5 0.576351 0.152701 0.220657
O O6 0.736264 0.263737 0.229892
O O7 0.689740 0.106905 0.201763
O O8 0.423610 0.847220 0.920090
O O9 0.472375 0.736188 0.929644
O O10 0.583395 0.893348 0.903058
O O11 0.525857 0.861876 0.000000
O O12 0.892143 0.614895 0.500000
O O13 0.839966 0.679932 0.576461
O O14 0.000000 0.731033 0.567871
O O15 0.164085 0.835916 0.850431
O O16 0.280549 0.000000 0.850398
#
# Coordination Sequence:
#
# PCOD8329187 Si02
#       5
#    24  24  24  24  24
#     4   9  17  29  45  66  93 125 158 187 213 244
#     4   9  17  29  46  68  95 126 156 183 211 248
#     4   9  17  29  46  69  98 131 162 187 211 246
#     4   9  18  32  48  65  86 113 145 182 226 274
#     4  10  21  35  49  66  89 117 149 187 232 277
#
# _framework density 16.789301999999999
#
# number of rings (size 3 to 8) (size 9 to 14) (size 15 to 20)
#    0.000    2.800    0.000    1.200    0.000    6.000 
#    0.000    6.000    0.000    1.600    0.000    1.400 
#    0.000    0.000    0.000   15.000    0.000    5.200 
#
# Total GULP energy -1487806.397723 kJ/mol
# GULP energy per Si atom -12398.386648 kJ/mol
# Density = 1.675109 g / cm^3
# Si number density = 16.789302 Si / 1000 Ang^3
#
#
#
# Elastic Constant Matrix: (Units=GPa)
#
#
# Indices 1 2 3 4 5 6 
#
# 1 91.0762 63.3140 41.7676 0.0000 0.0000 0.0000
# 2 63.3140 91.0762 41.7676 0.0000 0.0000 0.0000
# 3 41.7676 41.7676 76.0156 0.0000 0.0000 0.0000
# 4 0.0000 0.0000 0.0000 18.7587 0.0000 0.0000
# 5 0.0000 0.0000 0.0000 0.0000 18.7587 0.0000
# 6 0.0000 0.0000 0.0000 0.0000 0.0000 13.8811
#
#
#
# Elastic Compliance Matrix: (Units=1/GPa)
#
#
# Indices 1 2 3 4 5 6 
#
# 1 0.022619 -0.013401 -0.005065 0.000000 0.000000 0.000000
# 2 -0.013401 0.022619 -0.005065 0.000000 0.000000 0.000000
# 3 -0.005065 -0.005065 0.018721 0.000000 0.000000 0.000000
# 4 0.000000 0.000000 0.000000 0.053309 0.000000 0.000000
# 5 0.000000 0.000000 0.000000 0.000000 0.053309 0.000000
# 6 0.000000 0.000000 0.000000 0.000000 0.000000 0.072040
#
#
# Mechanical properties :
#
#
# Convention : Reuss Voigt Hill
#
# Bulk Modulus (GPa) = 59.18148 61.31849 60.24999
# Shear Modulus (GPa) = 16.93137 17.70094 17.31616
#
# Velocity S-wave (km/s) = 3.17907 3.25052 3.21500
# Velocity P-wave (km/s) = 6.98580 7.11965 7.05304
#
# Compressibility (1/GPa) = 0.01689718
#
# Stress axis : x y z
#
# Youngs Moduli (GPa) = 44.21104 44.21104 53.41660
#
# Poissons Ratio (x) = 0.59249 0.27053
# Poissons Ratio (y) = 0.59249 0.27053
# Poissons Ratio (z) = 0.22391 0.22391
#
# Static dielectric constant tensor:
#      x y z
#    x 2.986330 0.000000 0.000000 
#    y 0.000000 2.986330 0.000000 
#    z 0.000000 0.000000 3.383020 
# 
# 
# High freq. dielectric constant tensor:
#      x y z
#    x 1.623990 0.000000 0.000000 
#    y 0.000000 1.623990 0.000000 
#    z 0.000000 0.000000 1.661340 
# 
# From -- ./inp_files/10252.got.cif
#   From: 2010.03.12/outbox.cif.g09.slc.cpg/sg191_6_cif.got.tgz:10252.got - 2010.04.01 12:09:02.
