data_PCOD8329848
_publ_section_title
;
Structure prediction by ZEFSAII (Michael W. Deem and Ramdas Pophale) SiO2 
 PCOD8329848
Probable space group: P 63/M C M
;
_chemical_formula_sum "Si O2"
_cell_formula_units_Z 108
_cell_length_a 17.550824
_cell_length_b 17.550824
_cell_length_c 20.683315
_cell_angle_alpha 90.000000
_cell_angle_beta 90.000000
_cell_angle_gamma 120.000000
_cell_volume 5517.543936
_symmetry_space_group_name_H-M "P 63/M C M"
_symmetry_group_IT_number 193
_symmetry_cell_setting 'hexagonal'
loop_
_space_group_symop_operation_xyz
x,y,z
x-y,x,1/2+z
-y,x-y,z
-x,-y,1/2+z
-x+y,-x,z
y,-x+y,1/2+z
x-y,-y,1/2-z
-x,-x+y,1/2-z
y,x,1/2-z
-y,-x,-z
-x+y,y,-z
x,x-y,-z
-x,-y,-z
-x+y,-x,1/2-z
y,-x+y,-z
x,y,1/2-z
x-y,x,-z
-y,x-y,1/2-z
-x+y,y,1/2+z
x,x-y,1/2+z
-y,-x,1/2+z
y,x,z
x-y,-y,z
-x,-x+y,z
loop_
_atom_site_type_symbol
_atom_site_label
_atom_site_fract_x
_atom_site_fract_y
_atom_site_fract_z
Si Si1 0.682628 0.785914 0.056212
Si Si2 0.223832 0.635705 0.250000
Si Si3 0.897020 0.365065 0.506897
Si Si4 0.285915 0.099025 0.678987
Si Si5 0.643192 0.544670 0.847610
O O1 0.735973 0.735973 0.046929
O O2 0.703850 0.829155 0.126905
O O3 0.716994 0.858497 0.000000
O O4 0.577811 0.715852 0.044260
O O5 0.263237 0.569457 0.250000
O O6 0.165004 0.617235 0.314141
O O7 0.851743 0.425872 0.500000
O O8 0.874709 0.324768 0.578766
O O9 0.000000 0.425832 0.495329
O O10 0.261064 0.120618 0.750000
O O11 0.377923 0.102179 0.689542
O O12 0.212215 0.000000 0.657077
O O13 0.558271 0.558271 0.844583
#
# Coordination Sequence:
#
# PCOD8329848 Si02
#       5
#    24  12  24  24  24
#     4  11  21  36  61  91 121 156 198 249 299 349
#     4  10  23  36  50  82 120 152 189 248 300 342
#     4   9  19  35  57  84 111 143 188 240 294 348
#     4  10  20  36  62  90 116 154 201 244 293 358
#     4  10  18  36  62  81 107 156 201 233 288 363
#
# _framework density 19.573927999999999
#
# number of rings (size 3 to 8) (size 9 to 14) (size 15 to 20)
#    0.222    1.778    3.333    1.000    0.000    2.222 
#    0.000    0.000    0.000    5.778    0.000    0.000 
#    0.000    0.000    0.000    0.000    0.000    0.000 
#
# Total GULP energy -1338259.874269 kJ/mol
# GULP energy per Si atom -12391.295132 kJ/mol
# Density = 1.952938 g / cm^3
# Si number density = 19.573928 Si / 1000 Ang^3
#
#
#
# Elastic Constant Matrix: (Units=GPa)
#
#
# Indices 1 2 3 4 5 6 
#
# 1 86.0607 39.1704 46.0137 0.0000 0.0000 0.0000
# 2 39.1704 86.0607 46.0137 0.0000 0.0000 0.0000
# 3 46.0137 46.0137 120.9871 0.0000 0.0000 0.0000
# 4 0.0000 0.0000 0.0000 27.5480 0.0000 0.0000
# 5 0.0000 0.0000 0.0000 0.0000 27.5480 0.0000
# 6 0.0000 0.0000 0.0000 0.0000 0.0000 23.4452
#
#
#
# Elastic Compliance Matrix: (Units=1/GPa)
#
#
# Indices 1 2 3 4 5 6 
#
# 1 0.016204 -0.005122 -0.004215 0.000000 0.000000 0.000000
# 2 -0.005122 0.016204 -0.004215 0.000000 0.000000 0.000000
# 3 -0.004215 -0.004215 0.011471 0.000000 0.000000 0.000000
# 4 0.000000 0.000000 0.000000 0.036300 0.000000 0.000000
# 5 0.000000 0.000000 0.000000 0.000000 0.036300 0.000000
# 6 0.000000 0.000000 0.000000 0.000000 0.000000 0.042653
#
#
# Mechanical properties :
#
#
# Convention : Reuss Voigt Hill
#
# Bulk Modulus (GPa) = 59.60579 61.72270 60.66425
# Shear Modulus (GPa) = 26.06481 26.50227 26.28354
#
# Velocity S-wave (km/s) = 3.65308 3.68361 3.66838
# Velocity P-wave (km/s) = 6.95062 7.04936 7.00016
#
# Compressibility (1/GPa) = 0.01677689
#
# Stress axis : x y z
#
# Youngs Moduli (GPa) = 61.71125 61.71125 87.17339
#
# Poissons Ratio (x) = 0.31608 0.36743
# Poissons Ratio (y) = 0.31608 0.36743
# Poissons Ratio (z) = 0.26011 0.26011
#
# Static dielectric constant tensor:
#      x y z
#    x 3.458590 0.000000 0.000000 
#    y 0.000000 3.458590 0.000000 
#    z 0.000000 0.000000 3.522640 
# 
# 
# High freq. dielectric constant tensor:
#      x y z
#    x 1.740590 0.000000 0.000000 
#    y 0.000000 1.740590 0.000000 
#    z 0.000000 0.000000 1.771190 
# 
# From -- ./inp_files/6270.got.cif
#   From: 2010.03.12/outbox.cif.g09.slc.cpg/sg193_4_cif.got.tgz:6270.got - 2010.04.01 12:20:39.
