data_PCOD8329621
_publ_section_title
;
Structure prediction by ZEFSAII (Michael W. Deem and Ramdas Pophale) SiO2 
 PCOD8329621
Probable space group: P 6/M C C
;
_chemical_formula_sum "Si O2"
_cell_formula_units_Z 152
_cell_length_a 25.625568
_cell_length_b 25.625568
_cell_length_c 16.510801
_cell_angle_alpha 90.000000
_cell_angle_beta 90.000000
_cell_angle_gamma 120.000000
_cell_volume 9389.571549
_symmetry_space_group_name_H-M "P 6/M C C"
_symmetry_group_IT_number 192
_symmetry_cell_setting 'hexagonal'
loop_
_space_group_symop_operation_xyz
x,y,z
x-y,x,z
-y,x-y,z
-x,-y,z
-x+y,-x,z
y,-x+y,z
x-y,-y,1/2-z
-x,-x+y,1/2-z
y,x,1/2-z
-y,-x,1/2-z
-x+y,y,1/2-z
x,x-y,1/2-z
-x,-y,-z
-x+y,-x,-z
y,-x+y,-z
x,y,-z
x-y,x,-z
-y,x-y,-z
-x+y,y,1/2+z
x,x-y,1/2+z
-y,-x,1/2+z
y,x,1/2+z
x-y,-y,1/2+z
-x,-x+y,1/2+z
loop_
_atom_site_type_symbol
_atom_site_label
_atom_site_fract_x
_atom_site_fract_y
_atom_site_fract_z
Si Si1 0.666667 0.333334 0.093188
Si Si2 0.764681 0.338043 0.804678
Si Si3 0.250081 0.090703 0.175897
Si Si4 0.179922 0.740395 0.176695
Si Si5 0.102403 0.128851 0.904068
Si Si6 0.278059 0.344855 0.256292
Si Si7 0.649068 0.856448 0.406488
O O1 0.617881 0.266107 0.120538
O O2 0.666667 0.333334 0.000000
O O3 0.712568 0.287433 0.750000
O O4 0.799256 0.399628 0.750000
O O5 0.807477 0.314274 0.841002
O O6 0.226074 0.113037 0.250000
O O7 0.193335 0.039113 0.127854
O O8 0.286503 0.061065 0.212689
O O9 0.290979 0.145307 0.115287
O O10 0.219415 0.780586 0.250000
O O11 0.110055 0.707849 0.201421
O O12 0.197043 0.788534 0.103736
O O13 0.115469 0.077697 0.870883
O O14 0.103690 0.129587 0.000000
O O15 0.336644 0.336644 0.250000
O O16 0.259908 0.354078 0.347676
O O17 0.651308 0.876219 0.500000
#
# Coordination Sequence:
#
# PCOD8329621 Si02
#       7
#     8  24  24  24  24  24  24
#     4   9  16  23  37  69 103 128 157 192 223 248
#     4   8  14  26  44  65  94 130 160 185 215 264
#     4   9  19  31  46  62  80 106 139 182 236 289
#     4   8  15  29  46  65  89 120 154 184 229 278
#     4  10  21  34  46  60  79 105 137 180 235 296
#     4   9  18  31  47  66  88 119 150 192 237 275
#     4   9  17  30  46  66  89 112 146 191 237 285
#
# _framework density 16.188171000000001
#
# number of rings (size 3 to 8) (size 9 to 14) (size 15 to 20)
#    0.000    3.158    0.000    3.158    4.421    1.263 
#    0.000    3.158    0.000    1.421    0.000    0.000 
#    0.000    0.000    0.000   21.474    0.000    0.316 
#
# Total GULP energy -1883453.622805 kJ/mol
# GULP energy per Si atom -12391.142255 kJ/mol
# Density = 1.615133 g / cm^3
# Si number density = 16.188171 Si / 1000 Ang^3
#
#
#
# Elastic Constant Matrix: (Units=GPa)
#
#
# Indices 1 2 3 4 5 6 
#
# 1 74.6395 41.8931 28.1576 0.0000 0.0000 -0.0001
# 2 41.8931 74.6398 28.1572 0.0001 0.0000 0.0002
# 3 28.1576 28.1572 80.1578 0.0001 0.0000 -0.0001
# 4 0.0000 0.0001 0.0001 14.3776 0.0000 0.0000
# 5 0.0000 0.0000 0.0000 0.0000 14.3777 0.0000
# 6 -0.0001 0.0002 -0.0001 0.0000 0.0000 16.3736
#
#
#
# Elastic Compliance Matrix: (Units=1/GPa)
#
#
# Indices 1 2 3 4 5 6 
#
# 1 0.020437 -0.010101 -0.003631 0.000000 0.000000 0.000000
# 2 -0.010101 0.020437 -0.003631 0.000000 0.000000 0.000000
# 3 -0.003631 -0.003631 0.015026 0.000000 0.000000 0.000000
# 4 0.000000 0.000000 0.000000 0.069553 0.000000 0.000000
# 5 0.000000 0.000000 0.000000 0.000000 0.069552 0.000000
# 6 0.000000 0.000000 0.000000 0.000000 0.000000 0.061074
#
#
# Mechanical properties :
#
#
# Convention : Reuss Voigt Hill
#
# Bulk Modulus (GPa) = 47.22559 47.31697 47.27128
# Shear Modulus (GPa) = 16.78634 17.77439 17.28036
#
# Velocity S-wave (km/s) = 3.22367 3.31718 3.27076
# Velocity P-wave (km/s) = 6.56447 6.63057 6.59760
#
# Compressibility (1/GPa) = 0.02117496
#
# Stress axis : x y z
#
# Youngs Moduli (GPa) = 48.93142 48.93185 66.55061
#
# Poissons Ratio (x) = 0.49425 0.24163
# Poissons Ratio (y) = 0.49425 0.24162
# Poissons Ratio (z) = 0.17766 0.17765
#
# Static dielectric constant tensor:
#      x y z
#    x 3.169610 0.000000 0.000000 
#    y 0.000000 3.169610 0.000000 
#    z 0.000000 0.000000 2.898150 
# 
# 
# High freq. dielectric constant tensor:
#      x y z
#    x 1.601590 0.000000 0.000000 
#    y 0.000000 1.601590 0.000000 
#    z 0.000000 0.000000 1.611330 
# 
# From -- ./inp_files/3406.got.cif
#   From: 2010.03.12/outbox.cif.g09.slc.cpg/sg192_2_cif.got.tgz:3406.got - 2010.04.01 12:16:15.
