data_PCOD8329390
_publ_section_title
;
Structure prediction by ZEFSAII (Michael W. Deem and Ramdas Pophale) SiO2 
 PCOD8329390
Probable space group: P 6/M C C
;
_chemical_formula_sum "Si O2"
_cell_formula_units_Z 104
_cell_length_a 18.965813
_cell_length_b 18.965813
_cell_length_c 18.350314
_cell_angle_alpha 90.000000
_cell_angle_beta 90.000000
_cell_angle_gamma 120.000000
_cell_volume 5716.326942
_symmetry_space_group_name_H-M "P 6/M C C"
_symmetry_group_IT_number 192
_symmetry_cell_setting 'hexagonal'
loop_
_space_group_symop_operation_xyz
x,y,z
x-y,x,z
-y,x-y,z
-x,-y,z
-x+y,-x,z
y,-x+y,z
x-y,-y,1/2-z
-x,-x+y,1/2-z
y,x,1/2-z
-y,-x,1/2-z
-x+y,y,1/2-z
x,x-y,1/2-z
-x,-y,-z
-x+y,-x,-z
y,-x+y,-z
x,y,-z
x-y,x,-z
-y,x-y,-z
-x+y,y,1/2+z
x,x-y,1/2+z
-y,-x,1/2+z
y,x,1/2+z
x-y,-y,1/2+z
-x,-x+y,1/2+z
loop_
_atom_site_type_symbol
_atom_site_label
_atom_site_fract_x
_atom_site_fract_y
_atom_site_fract_z
Si Si1 0.580793 0.508719 0.916269
Si Si2 0.798777 0.326917 0.583516
Si Si3 0.116959 0.343031 0.086414
Si Si4 0.936576 0.670229 0.587012
Si Si5 0.333334 0.666667 0.335914
O O1 0.500000 0.500000 0.877568
O O2 0.578237 0.424005 0.908308
O O3 0.663572 0.582410 0.882283
O O4 0.579547 0.532963 0.000000
O O5 0.770987 0.300313 0.500000
O O6 0.852891 0.288456 0.611103
O O7 0.719513 0.294101 0.633986
O O8 0.178881 0.313961 0.116655
O O9 0.025029 0.284352 0.116079
O O10 0.114569 0.339368 0.000000
O O11 0.934098 0.669142 0.500000
O O12 0.333334 0.666667 0.250000
#
# Coordination Sequence:
#
# PCOD8329390 Si02
#       5
#    24  24  24  24   8
#     4   9  14  23  42  68  94 110 137 192 243 275
#     4  10  18  31  50  70  89 120 161 199 234 274
#     4   9  16  25  41  65  90 114 148 193 238 276
#     4   9  15  23  35  59  92 119 142 185 240 280
#     4  12  25  35  43  63 100 134 157 189 229 275
#
# _framework density 18.193501000000001
#
# number of rings (size 3 to 8) (size 9 to 14) (size 15 to 20)
#    0.000    2.538    2.308    2.077    0.000    3.692 
#    0.000    0.000    0.000    1.154    0.000    3.231 
#    0.000    0.000    0.000    0.000    0.000    0.000 
#
# Total GULP energy -1288716.217600 kJ/mol
# GULP energy per Si atom -12391.502092 kJ/mol
# Density = 1.815209 g / cm^3
# Si number density = 18.193501 Si / 1000 Ang^3
#
#
#
# Elastic Constant Matrix: (Units=GPa)
#
#
# Indices 1 2 3 4 5 6 
#
# 1 132.3915 70.8558 14.7771 0.0000 0.0000 0.0000
# 2 70.8558 132.3911 14.7771 0.0000 0.0000 0.0000
# 3 14.7771 14.7771 28.7946 0.0001 0.0000 0.0001
# 4 0.0000 0.0000 0.0001 2.1909 0.0000 0.0000
# 5 0.0000 0.0000 0.0000 0.0000 2.1909 0.0000
# 6 0.0000 0.0000 0.0001 0.0000 0.0000 30.7679
#
#
#
# Elastic Compliance Matrix: (Units=1/GPa)
#
#
# Indices 1 2 3 4 5 6 
#
# 1 0.010784 -0.005467 -0.002729 0.000000 0.000000 0.000000
# 2 -0.005467 0.010784 -0.002729 0.000000 0.000000 0.000000
# 3 -0.002729 -0.002729 0.037529 -0.000002 0.000000 0.000000
# 4 0.000000 0.000000 -0.000002 0.456431 -0.000001 0.000001
# 5 0.000000 0.000000 0.000000 -0.000001 0.456425 0.000000
# 6 0.000000 0.000000 0.000000 0.000001 0.000000 0.032501
#
#
# Mechanical properties :
#
#
# Convention : Reuss Voigt Hill
#
# Bulk Modulus (GPa) = 26.84655 54.93303 40.88979
# Shear Modulus (GPa) = 4.81362 19.90776 12.36069
#
# Velocity S-wave (km/s) = 1.62835 3.31149 2.60936
# Velocity P-wave (km/s) = 4.28060 6.69930 5.62157
#
# Compressibility (1/GPa) = 0.03724874
#
# Stress axis : x y z
#
# Youngs Moduli (GPa) = 92.73157 92.73128 26.64587
#
# Poissons Ratio (x) = 0.50696 0.07270
# Poissons Ratio (y) = 0.50696 0.07271
# Poissons Ratio (z) = 0.25302 0.25303
#
# Static dielectric constant tensor:
#      x y z
#    x 3.591950 0.000000 0.000000 
#    y 0.000000 3.591950 0.000000 
#    z 0.000000 0.000000 2.491510 
# 
# 
# High freq. dielectric constant tensor:
#      x y z
#    x 1.707870 0.000000 0.000000 
#    y 0.000000 1.707870 0.000000 
#    z 0.000000 0.000000 1.603630 
# 
# From -- ./inp_files/2883.got.cif
#   From: 2010.03.12/outbox.cif.g09.slc.cpg/sg192_2_cif.got.tgz:2883.got - 2010.04.01 12:16:15.
