data_PCOD8329858
_publ_section_title
;
Structure prediction by ZEFSAII (Michael W. Deem and Ramdas Pophale) SiO2 
 PCOD8329858
Probable space group: P 63/M C M
;
_chemical_formula_sum "Si O2"
_cell_formula_units_Z 168
_cell_length_a 24.547145
_cell_length_b 24.547145
_cell_length_c 20.771986
_cell_angle_alpha 90.000000
_cell_angle_beta 90.000000
_cell_angle_gamma 120.000000
_cell_volume 10839.534423
_symmetry_space_group_name_H-M "P 63/M C M"
_symmetry_group_IT_number 193
_symmetry_cell_setting 'hexagonal'
loop_
_space_group_symop_operation_xyz
x,y,z
x-y,x,1/2+z
-y,x-y,z
-x,-y,1/2+z
-x+y,-x,z
y,-x+y,1/2+z
x-y,-y,1/2-z
-x,-x+y,1/2-z
y,x,1/2-z
-y,-x,-z
-x+y,y,-z
x,x-y,-z
-x,-y,-z
-x+y,-x,1/2-z
y,-x+y,-z
x,y,1/2-z
x-y,x,-z
-y,x-y,1/2-z
-x+y,y,1/2+z
x,x-y,1/2+z
-y,-x,1/2+z
y,x,z
x-y,-y,z
-x,-x+y,z
loop_
_atom_site_type_symbol
_atom_site_label
_atom_site_fract_x
_atom_site_fract_y
_atom_site_fract_z
Si Si1 0.223781 0.073556 0.440579
Si Si2 0.226705 0.856905 0.057161
Si Si3 0.925683 0.374363 0.034709
Si Si4 0.152927 0.785116 0.323663
Si Si5 0.442942 0.515814 0.087745
Si Si6 0.576271 0.645782 0.674803
Si Si7 0.148694 0.222105 0.322776
O O1 0.206515 0.103258 0.500000
O O2 0.296268 0.091607 0.444475
O O3 0.205204 0.093258 0.373420
O O4 0.181654 0.000000 0.446720
O O5 0.300899 0.889462 0.049177
O O6 0.210030 0.825271 0.127945
O O7 0.193245 0.806756 0.000000
O O8 0.900143 0.409160 0.083774
O O9 0.000000 0.399273 0.040292
O O10 0.904929 0.387957 0.965615
O O11 0.178414 0.793424 0.250000
O O12 0.120857 0.714014 0.349793
O O13 0.097896 0.802053 0.328160
O O14 0.489041 0.489041 0.075039
O O15 0.405970 0.495358 0.155442
O O16 0.582365 0.647482 0.750000
O O17 0.623560 0.623560 0.644862
O O18 0.120873 0.205210 0.250000
O O19 0.185049 0.185049 0.340632
#
# Coordination Sequence:
#
# PCOD8329858 Si02
#       7
#    24  24  24  24  24  24  24
#     4  10  20  32  46  65  88 114 144 178 220 268
#     4  10  19  29  44  66  89 114 146 179 209 252
#     4   9  16  28  44  60  86 117 140 170 209 249
#     4   9  17  28  42  64  94 119 140 173 216 258
#     4   8  15  26  41  62  84 110 141 167 201 249
#     4   9  15  24  41  64  90 115 138 169 208 250
#     4   9  17  30  48  67  86 112 146 181 219 263
#
# _framework density 15.49882
#
# number of rings (size 3 to 8) (size 9 to 14) (size 15 to 20)
#    0.000    2.857    0.000    3.000    0.000    2.000 
#    0.000    5.000    0.000    4.714    0.000    0.000 
#   37.143    0.000    0.000    0.000    0.000    0.000 
#
# Total GULP energy -2081511.533572 kJ/mol
# GULP energy per Si atom -12389.949605 kJ/mol
# Density = 1.546354 g / cm^3
# Si number density = 15.498820 Si / 1000 Ang^3
#
#
#
# Elastic Constant Matrix: (Units=GPa)
#
#
# Indices 1 2 3 4 5 6 
#
# 1 101.3334 55.1065 42.2651 0.0000 0.0000 0.0000
# 2 55.1065 101.3334 42.2651 0.0000 0.0000 0.0000
# 3 42.2651 42.2651 65.3865 0.0000 0.0000 0.0000
# 4 0.0000 0.0000 0.0000 21.3103 0.0000 0.0000
# 5 0.0000 0.0000 0.0000 0.0000 21.3103 0.0000
# 6 0.0000 0.0000 0.0000 0.0000 0.0000 23.1134
#
#
#
# Elastic Compliance Matrix: (Units=1/GPa)
#
#
# Indices 1 2 3 4 5 6 
#
# 1 0.015728 -0.005905 -0.006350 0.000000 0.000000 0.000000
# 2 -0.005905 0.015728 -0.006350 0.000000 0.000000 0.000000
# 3 -0.006350 -0.006350 0.023502 0.000000 0.000000 0.000000
# 4 0.000000 0.000000 0.000000 0.046926 0.000000 0.000000
# 5 0.000000 0.000000 0.000000 0.000000 0.046926 0.000000
# 6 0.000000 0.000000 0.000000 0.000000 0.000000 0.043265
#
#
# Mechanical properties :
#
#
# Convention : Reuss Voigt Hill
#
# Bulk Modulus (GPa) = 56.33718 60.81407 58.57563
# Shear Modulus (GPa) = 21.25866 21.70792 21.48329
#
# Velocity S-wave (km/s) = 3.70757 3.74654 3.72711
# Velocity P-wave (km/s) = 7.39975 7.61830 7.50982
#
# Compressibility (1/GPa) = 0.01775027
#
# Stress axis : x y z
#
# Youngs Moduli (GPa) = 63.58171 63.58171 42.54914
#
# Poissons Ratio (x) = 0.37543 0.27017
# Poissons Ratio (y) = 0.37543 0.27017
# Poissons Ratio (z) = 0.40372 0.40372
#
# Static dielectric constant tensor:
#      x y z
#    x 2.878510 0.000000 0.000000 
#    y 0.000000 2.878510 0.000000 
#    z 0.000000 0.000000 3.151720 
# 
# 
# High freq. dielectric constant tensor:
#      x y z
#    x 1.574680 0.000000 0.000000 
#    y 0.000000 1.574680 0.000000 
#    z 0.000000 0.000000 1.601790 
# 
# From -- ./inp_files/6818.got.cif
#   From: 2010.03.12/outbox.cif.g09.slc.cpg/sg193_4_cif.got.tgz:6818.got - 2010.04.01 12:20:39.
