data_PCOD8329250
_publ_section_title
;
Structure prediction by ZEFSAII (Michael W. Deem and Ramdas Pophale) SiO2 
 PCOD8329250
Probable space group: P 6/M M M
;
_chemical_formula_sum "Si O2"
_cell_formula_units_Z 168
_cell_length_a 22.923719
_cell_length_b 22.923719
_cell_length_c 23.145943
_cell_angle_alpha 90.000000
_cell_angle_beta 90.000000
_cell_angle_gamma 120.000000
_cell_volume 10533.571885
_symmetry_space_group_name_H-M "P 6/M M M"
_symmetry_group_IT_number 191
_symmetry_cell_setting 'hexagonal'
loop_
_space_group_symop_operation_xyz
x,y,z
x-y,x,z
-y,x-y,z
-x,-y,z
-x+y,-x,z
y,-x+y,z
x-y,-y,-z
-x,-x+y,-z
y,x,-z
-y,-x,-z
-x+y,y,-z
x,x-y,-z
-x,-y,-z
-x+y,-x,-z
y,-x+y,-z
x,y,-z
x-y,x,-z
-y,x-y,-z
-x+y,y,z
x,x-y,z
-y,-x,z
y,x,z
x-y,-y,z
-x,-x+y,z
loop_
_atom_site_type_symbol
_atom_site_label
_atom_site_fract_x
_atom_site_fract_y
_atom_site_fract_z
Si Si1 0.922671 0.394550 0.432535
Si Si2 0.799361 0.075042 0.163034
Si Si3 0.362841 0.080132 0.936523
Si Si4 0.923884 0.206979 0.706516
Si Si5 0.281830 0.854463 0.341502
Si Si6 0.393649 0.470440 0.749697
Si Si7 0.523154 0.603067 0.119353
O O1 0.914554 0.378136 0.500000
O O2 0.902099 0.451050 0.418185
O O3 0.873910 0.324811 0.400312
O O4 0.000000 0.423026 0.413020
O O5 0.880125 0.119876 0.162071
O O6 0.771558 0.105437 0.114599
O O7 0.771930 0.078871 0.226650
O O8 0.781517 0.000000 0.147311
O O9 0.441874 0.108430 0.923646
O O10 0.324066 0.000000 0.935310
O O11 0.355969 0.106223 0.000000
O O12 0.873355 0.126646 0.698180
O O13 0.900695 0.247604 0.665166
O O14 0.000000 0.225439 0.690517
O O15 0.224432 0.775569 0.342453
O O16 0.332552 0.869402 0.288762
O O17 0.459738 0.540262 0.733839
O O18 0.409574 0.409574 0.738900
O O19 0.371186 0.470606 0.815256
O O20 0.444786 0.555215 0.101709
O O21 0.559651 0.559651 0.115627
#
# Coordination Sequence:
#
# PCOD8329250 Si02
#       7
#    24  24  24  24  24  24  24
#     4   9  18  33  52  70  87 112 148 186 216 240
#     4   9  17  29  43  58  79 108 141 175 212 257
#     4   9  16  24  35  53  78 107 134 160 196 248
#     4   9  17  28  43  63  86 112 140 173 214 258
#     4  11  20  27  41  66  93 118 141 170 213 259
#     4   9  16  27  45  64  81 106 142 184 220 246
#     4   8  14  24  38  57  79 103 132 166 205 243
#
# _framework density 15.949006000000001
#
# number of rings (size 3 to 8) (size 9 to 14) (size 15 to 20)
#    0.000    2.857    0.000    3.857    0.000    4.286 
#    0.000    1.429    0.000    2.571    0.000    2.000 
#    0.000    0.000    0.000    4.000    0.000    6.286 
#
# Total GULP energy -2081792.796967 kJ/mol
# GULP energy per Si atom -12391.623791 kJ/mol
# Density = 1.591270 g / cm^3
# Si number density = 15.949006 Si / 1000 Ang^3
#
#
#
# Elastic Constant Matrix: (Units=GPa)
#
#
# Indices 1 2 3 4 5 6 
#
# 1 80.1695 39.1409 33.4883 0.0000 0.0000 0.0000
# 2 39.1409 80.1695 33.4883 0.0000 0.0000 0.0000
# 3 33.4883 33.4883 60.6691 0.0000 0.0000 0.0000
# 4 0.0000 0.0000 0.0000 15.9624 0.0000 0.0000
# 5 0.0000 0.0000 0.0000 0.0000 15.9624 0.0000
# 6 0.0000 0.0000 0.0000 0.0000 0.0000 20.5143
#
#
#
# Elastic Compliance Matrix: (Units=1/GPa)
#
#
# Indices 1 2 3 4 5 6 
#
# 1 0.018259 -0.006114 -0.006704 0.000000 0.000000 0.000000
# 2 -0.006114 0.018259 -0.006704 0.000000 0.000000 0.000000
# 3 -0.006704 -0.006704 0.023883 0.000000 0.000000 0.000000
# 4 0.000000 0.000000 0.000000 0.062647 0.000000 0.000000
# 5 0.000000 0.000000 0.000000 0.000000 0.062647 0.000000
# 6 0.000000 0.000000 0.000000 0.000000 0.000000 0.048746
#
#
# Mechanical properties :
#
#
# Convention : Reuss Voigt Hill
#
# Bulk Modulus (GPa) = 46.82039 48.13811 47.47925
# Shear Modulus (GPa) = 17.81865 18.14721 17.98293
#
# Velocity S-wave (km/s) = 3.34612 3.37683 3.36151
# Velocity P-wave (km/s) = 6.65948 6.74181 6.70077
#
# Compressibility (1/GPa) = 0.02135822
#
# Stress axis : x y z
#
# Youngs Moduli (GPa) = 54.76768 54.76768 41.87001
#
# Poissons Ratio (x) = 0.33486 0.28068
# Poissons Ratio (y) = 0.33486 0.28068
# Poissons Ratio (z) = 0.36714 0.36714
#
# Static dielectric constant tensor:
#      x y z
#    x 2.933950 0.000000 0.000000 
#    y 0.000000 2.933950 0.000000 
#    z 0.000000 0.000000 3.078610 
# 
# 
# High freq. dielectric constant tensor:
#      x y z
#    x 1.587890 0.000000 0.000000 
#    y 0.000000 1.587890 0.000000 
#    z 0.000000 0.000000 1.612350 
# 
# From -- ./inp_files/9232.got.cif
#   From: 2010.03.12/outbox.cif.g09.slc.cpg/sg191_5_cif.got.tgz:9232.got - 2010.04.01 12:09:02.
