data_PCOD8329280
_publ_section_title
;
Structure prediction by ZEFSAII (Michael W. Deem and Ramdas Pophale) SiO2 
 PCOD8329280
Probable space group: P 6/M M M
;
_chemical_formula_sum "Si O2"
_cell_formula_units_Z 108
_cell_length_a 22.265787
_cell_length_b 22.265787
_cell_length_c 22.850622
_cell_angle_alpha 90.000000
_cell_angle_beta 90.000000
_cell_angle_gamma 120.000000
_cell_volume 9810.807587
_symmetry_space_group_name_H-M "P 6/M M M"
_symmetry_group_IT_number 191
_symmetry_cell_setting 'hexagonal'
loop_
_space_group_symop_operation_xyz
x,y,z
x-y,x,z
-y,x-y,z
-x,-y,z
-x+y,-x,z
y,-x+y,z
x-y,-y,-z
-x,-x+y,-z
y,x,-z
-y,-x,-z
-x+y,y,-z
x,x-y,-z
-x,-y,-z
-x+y,-x,-z
y,-x+y,-z
x,y,-z
x-y,x,-z
-y,x-y,-z
-x+y,y,z
x,x-y,z
-y,-x,z
y,x,z
x-y,-y,z
-x,-x+y,z
loop_
_atom_site_type_symbol
_atom_site_label
_atom_site_fract_x
_atom_site_fract_y
_atom_site_fract_z
Si Si1 0.667083 0.472867 0.848369
Si Si2 0.922397 0.533072 0.625747
Si Si3 0.923030 0.532832 0.065532
Si Si4 0.918020 0.524409 0.500000
Si Si5 0.667008 0.194233 0.286151
O O1 0.736224 0.472448 0.865787
O O2 0.603585 0.396416 0.860936
O O3 0.662868 0.530590 0.888031
O O4 0.667830 0.493963 0.781097
O O5 0.922887 0.461444 0.622513
O O6 0.898191 0.547079 0.561598
O O7 0.869226 0.529361 0.674925
O O8 0.000000 0.594780 0.641690
O O9 0.924095 0.462048 0.069054
O O10 0.000000 0.595826 0.081125
O O11 0.902120 0.543014 0.000000
O O12 0.881813 0.440907 0.500000
O O13 0.000000 0.556824 0.500000
O O14 0.604388 0.208776 0.298110
O O15 0.737156 0.262845 0.303922
#
# Coordination Sequence:
#
# PCOD8329280 Si02
#       5
#    24  24  24  12  24
#     4   9  16  24  33  44  58  76  96 117 141 170
#     4   8  13  21  33  46  56  68  90 118 143 167
#     4   8  14  24  35  45  57  72  89 111 141 173
#     4   7  10  18  31  44  56  68  84 111 144 170
#     4   9  16  24  32  42  58  78  96 114 140 174
#
# _framework density 11.008269
#
# number of rings (size 3 to 8) (size 9 to 14) (size 15 to 20)
#    0.000    3.667    0.000    2.444    0.000    3.111 
#    0.000    5.000    0.000    1.333    0.000    1.556 
#    0.000    0.000    0.000    0.000    0.000    0.000 
#
# Total GULP energy -1337932.833339 kJ/mol
# GULP energy per Si atom -12388.266975 kJ/mol
# Density = 1.098321 g / cm^3
# Si number density = 11.008269 Si / 1000 Ang^3
#
#
#
# Elastic Constant Matrix: (Units=GPa)
#
#
# Indices 1 2 3 4 5 6 
#
# 1 43.1179 26.1078 42.4134 0.0000 0.0000 0.0000
# 2 26.1078 43.1179 42.4134 0.0000 0.0000 0.0000
# 3 42.4134 42.4134 86.2463 0.0000 0.0000 0.0000
# 4 0.0000 0.0000 0.0000 14.1583 0.0000 0.0000
# 5 0.0000 0.0000 0.0000 0.0000 14.1583 0.0000
# 6 0.0000 0.0000 0.0000 0.0000 0.0000 8.5051
#
#
#
# Elastic Compliance Matrix: (Units=1/GPa)
#
#
# Indices 1 2 3 4 5 6 
#
# 1 0.047569 -0.011219 -0.017876 0.000000 0.000000 0.000000
# 2 -0.011219 0.047569 -0.017876 0.000000 0.000000 0.000000
# 3 -0.017876 -0.017876 0.029176 0.000000 0.000000 0.000000
# 4 0.000000 0.000000 0.000000 0.070630 0.000000 0.000000
# 5 0.000000 0.000000 0.000000 0.000000 0.070630 0.000000
# 6 0.000000 0.000000 0.000000 0.000000 0.000000 0.117577
#
#
# Mechanical properties :
#
#
# Convention : Reuss Voigt Hill
#
# Bulk Modulus (GPa) = 32.92410 43.81681 38.37046
# Shear Modulus (GPa) = 10.26235 11.46750 10.86492
#
# Velocity S-wave (km/s) = 3.05657 3.23107 3.14503
# Velocity P-wave (km/s) = 6.51385 7.33551 6.93686
#
# Compressibility (1/GPa) = 0.03037288
#
# Stress axis : x y z
#
# Youngs Moduli (GPa) = 21.02198 21.02198 34.27434
#
# Poissons Ratio (x) = 0.23585 0.61268
# Poissons Ratio (y) = 0.23585 0.61268
# Poissons Ratio (z) = 0.37579 0.37579
#
# Static dielectric constant tensor:
#      x y z
#    x 2.167920 0.000000 0.000000 
#    y 0.000000 2.167920 0.000000 
#    z 0.000000 0.000000 2.648990 
# 
# 
# High freq. dielectric constant tensor:
#      x y z
#    x 1.376100 0.000000 0.000000 
#    y 0.000000 1.376100 0.000000 
#    z 0.000000 0.000000 1.432720 
# 
# From -- ./inp_files/6358.got.cif
#   From: 2010.03.12/outbox.cif.g09.slc.cpg/sg191_4_cif.got.tgz:6358.got - 2010.04.01 12:09:02.
