data_PCOD8329413
_publ_section_title
;
Structure prediction by ZEFSAII (Michael W. Deem and Ramdas Pophale) SiO2 
 PCOD8329413
Probable space group: P 6/M C C
;
_chemical_formula_sum "Si O2"
_cell_formula_units_Z 192
_cell_length_a 24.168000
_cell_length_b 24.168000
_cell_length_c 25.634924
_cell_angle_alpha 90.000000
_cell_angle_beta 90.000000
_cell_angle_gamma 120.000000
_cell_volume 12967.136737
_symmetry_space_group_name_H-M "P 6/M C C"
_symmetry_group_IT_number 192
_symmetry_cell_setting 'hexagonal'
loop_
_space_group_symop_operation_xyz
x,y,z
x-y,x,z
-y,x-y,z
-x,-y,z
-x+y,-x,z
y,-x+y,z
x-y,-y,1/2-z
-x,-x+y,1/2-z
y,x,1/2-z
-y,-x,1/2-z
-x+y,y,1/2-z
x,x-y,1/2-z
-x,-y,-z
-x+y,-x,-z
y,-x+y,-z
x,y,-z
x-y,x,-z
-y,x-y,-z
-x+y,y,1/2+z
x,x-y,1/2+z
-y,-x,1/2+z
y,x,1/2+z
x-y,-y,1/2+z
-x,-x+y,1/2+z
loop_
_atom_site_type_symbol
_atom_site_label
_atom_site_fract_x
_atom_site_fract_y
_atom_site_fract_z
Si Si1 0.617981 0.765418 0.561260
Si Si2 0.523640 0.245418 0.938120
Si Si3 0.890769 0.141032 0.894226
Si Si4 0.019100 0.784166 0.559894
Si Si5 0.569746 0.050040 0.937666
Si Si6 0.066508 0.148773 0.689289
Si Si7 0.190534 0.579085 0.937749
Si Si8 0.651778 0.660350 0.439256
O O1 0.634102 0.786677 0.500000
O O2 0.550549 0.757602 0.578877
O O3 0.672288 0.817766 0.600041
O O4 0.611213 0.696087 0.569275
O O5 0.563235 0.213001 0.915617
O O6 0.555714 0.317420 0.916609
O O7 0.527391 0.245206 0.000000
O O8 0.847220 0.069562 0.912536
O O9 0.910284 0.129194 0.836604
O O10 0.950617 0.172828 0.932836
O O11 0.036136 0.787951 0.500000
O O12 0.018593 0.722221 0.585338
O O13 0.589635 0.119980 0.916202
O O14 0.617163 0.027117 0.913915
O O15 0.500000 0.000000 0.916594
O O16 0.570867 0.049779 0.000000
O O17 0.104147 0.111757 0.672755
O O18 0.081428 0.162856 0.750000
O O19 0.190279 0.579214 0.000000
O O20 0.659370 0.652392 0.500000
#
# Coordination Sequence:
#
# PCOD8329413 Si02
#       8
#    24  24  24  24  24  24  24  24
#     4   9  17  27  39  56  82 115 144 172 209 252
#     4   9  16  25  35  49  73 105 148 188 216 247
#     4  11  19  30  45  63  84 110 141 173 211 248
#     4  10  19  29  41  58  85 115 144 171 203 246
#     4   9  15  22  33  47  63  87 128 177 215 238
#     4  10  20  36  55  71  85 104 134 175 218 261
#     4   9  16  23  33  47  64  95 137 183 217 237
#     4   8  15  25  35  49  71 101 137 173 202 240
#
# _framework density 14.806661
#
# number of rings (size 3 to 8) (size 9 to 14) (size 15 to 20)
#    0.000    2.625    1.250    3.000    1.750    4.500 
#    0.000    0.000    0.000    0.000    0.000    1.750 
#    0.000    0.000    0.000    1.125    1.250   10.000 
#
# Total GULP energy -2378963.672680 kJ/mol
# GULP energy per Si atom -12390.435795 kJ/mol
# Density = 1.477296 g / cm^3
# Si number density = 14.806661 Si / 1000 Ang^3
#
#
#
# Elastic Constant Matrix: (Units=GPa)
#
#
# Indices 1 2 3 4 5 6 
#
# 1 104.6369 50.8641 17.1168 0.0000 0.0000 0.0000
# 2 50.8641 104.6369 17.1168 0.0000 0.0000 0.0000
# 3 17.1168 17.1168 22.4393 0.0000 0.0000 0.0000
# 4 0.0000 0.0000 0.0000 7.9178 0.0000 0.0000
# 5 0.0000 0.0000 0.0000 0.0000 7.9178 0.0000
# 6 0.0000 0.0000 0.0000 0.0000 0.0000 26.8864
#
#
#
# Elastic Compliance Matrix: (Units=1/GPa)
#
#
# Indices 1 2 3 4 5 6 
#
# 1 0.013163 -0.005434 -0.005895 0.000000 0.000000 0.000000
# 2 -0.005434 0.013163 -0.005895 0.000000 0.000000 0.000000
# 3 -0.005895 -0.005895 0.053559 0.000000 0.000000 0.000000
# 4 0.000000 0.000000 0.000000 0.126298 0.000000 0.000000
# 5 0.000000 0.000000 0.000000 0.000000 0.126298 0.000000
# 6 0.000000 0.000000 0.000000 0.000000 0.000000 0.037194
#
#
# Mechanical properties :
#
#
# Convention : Reuss Voigt Hill
#
# Bulk Modulus (GPa) = 22.00975 44.65650 33.33313
# Shear Modulus (GPa) = 11.92552 18.31876 15.12214
#
# Velocity S-wave (km/s) = 2.84106 3.52120 3.19926
# Velocity P-wave (km/s) = 5.06549 6.83791 6.01732
#
# Compressibility (1/GPa) = 0.04543440
#
# Stress axis : x y z
#
# Youngs Moduli (GPa) = 75.97204 75.97204 18.67101
#
# Poissons Ratio (x) = 0.41283 0.11007
# Poissons Ratio (y) = 0.41283 0.11007
# Poissons Ratio (z) = 0.44789 0.44789
#
# Static dielectric constant tensor:
#      x y z
#    x 3.121170 0.000000 0.000000 
#    y 0.000000 3.121170 0.000000 
#    z 0.000000 0.000000 2.242420 
# 
# 
# High freq. dielectric constant tensor:
#      x y z
#    x 1.583260 0.000000 0.000000 
#    y 0.000000 1.583260 0.000000 
#    z 0.000000 0.000000 1.470750 
# 
# From -- ./inp_files/6179.got.cif
#   From: 2010.03.12/outbox.cif.g09.slc.cpg/sg192_4_cif.got.tgz:6179.got - 2010.04.01 12:16:15.
