data_PCOD8329089
_publ_section_title
;
Structure prediction by ZEFSAII (Michael W. Deem and Ramdas Pophale) SiO2 
 PCOD8329089
Probable space group: P 6/M M M
;
_chemical_formula_sum "Si O2"
_cell_formula_units_Z 120
_cell_length_a 17.971287
_cell_length_b 17.971287
_cell_length_c 27.782177
_cell_angle_alpha 90.000000
_cell_angle_beta 90.000000
_cell_angle_gamma 120.000000
_cell_volume 7770.612732
_symmetry_space_group_name_H-M "P 6/M M M"
_symmetry_group_IT_number 191
_symmetry_cell_setting 'hexagonal'
loop_
_space_group_symop_operation_xyz
x,y,z
x-y,x,z
-y,x-y,z
-x,-y,z
-x+y,-x,z
y,-x+y,z
x-y,-y,-z
-x,-x+y,-z
y,x,-z
-y,-x,-z
-x+y,y,-z
x,x-y,-z
-x,-y,-z
-x+y,-x,-z
y,-x+y,-z
x,y,-z
x-y,x,-z
-y,x-y,-z
-x+y,y,z
x,x-y,z
-y,-x,z
y,x,z
x-y,-y,z
-x,-x+y,z
loop_
_atom_site_type_symbol
_atom_site_label
_atom_site_fract_x
_atom_site_fract_y
_atom_site_fract_z
Si Si1 0.000000 0.411453 0.776287
Si Si2 0.168522 0.000000 0.557306
Si Si3 0.493942 0.160585 0.605519
Si Si4 0.000000 0.662343 0.557030
Si Si5 0.667076 0.162086 0.282830
Si Si6 0.411442 0.411442 0.884964
Si Si7 0.332948 0.494720 0.944364
O O1 0.084037 0.423885 0.748767
O O2 0.000000 0.380667 0.830624
O O3 0.000000 0.500000 0.775133
O O4 0.084430 0.915571 0.577324
O O5 0.167157 0.000000 0.500000
O O6 0.253025 0.000000 0.576494
O O7 0.585277 0.170554 0.592355
O O8 0.497581 0.248791 0.591475
O O9 0.421394 0.084359 0.574857
O O10 0.472222 0.138552 0.661481
O O11 0.000000 0.661134 0.500000
O O12 0.590248 0.180495 0.271477
O O13 0.754289 0.245712 0.267642
O O14 0.500000 0.500000 0.886209
O O15 0.339774 0.423930 0.912392
O O16 0.245889 0.491777 0.929486
O O17 0.410039 0.589961 0.933327
O O18 0.333531 0.471059 0.000000
#
# Coordination Sequence:
#
# PCOD8329089 Si02
#       7
#    12  12  24  12  24  12  24
#     4   9  17  28  41  60  86 112 138 171 213 260
#     4   9  17  30  48  68  89 113 141 173 209 250
#     4  10  20  34  51  69  89 115 148 184 221 262
#     4  11  22  34  48  68  94 121 147 177 216 263
#     4   9  17  30  48  67  86 110 142 179 217 257
#     4   9  17  27  38  55  82 113 141 173 217 263
#     4   9  16  26  40  57  78 108 148 189 223 256
#
# _framework density 15.442798
#
# number of rings (size 3 to 8) (size 9 to 14) (size 15 to 20)
#    0.000    2.600    0.000    2.500    0.000    8.400 
#    0.000    0.000    0.000    3.600    0.000    0.000 
#    0.000    0.000    0.000    0.600    0.000    7.100 
#
# Total GULP energy -1488120.554247 kJ/mol
# GULP energy per Si atom -12401.004619 kJ/mol
# Density = 1.540765 g / cm^3
# Si number density = 15.442798 Si / 1000 Ang^3
#
#
#
# Elastic Constant Matrix: (Units=GPa)
#
#
# Indices 1 2 3 4 5 6 
#
# 1 117.4975 61.3867 53.6905 0.0000 0.0000 0.0000
# 2 61.3867 117.4975 53.6905 0.0000 0.0000 0.0000
# 3 53.6905 53.6905 71.0562 0.0000 0.0000 0.0000
# 4 0.0000 0.0000 0.0000 18.3964 0.0000 0.0000
# 5 0.0000 0.0000 0.0000 0.0000 18.3964 0.0000
# 6 0.0000 0.0000 0.0000 0.0000 0.0000 28.0554
#
#
#
# Elastic Compliance Matrix: (Units=1/GPa)
#
#
# Indices 1 2 3 4 5 6 
#
# 1 0.014026 -0.003796 -0.007730 0.000000 0.000000 0.000000
# 2 -0.003796 0.014026 -0.007730 0.000000 0.000000 0.000000
# 3 -0.007730 -0.007730 0.025755 0.000000 0.000000 0.000000
# 4 0.000000 0.000000 0.000000 0.054358 0.000000 0.000000
# 5 0.000000 0.000000 0.000000 0.000000 0.054358 0.000000
# 6 0.000000 0.000000 0.000000 0.000000 0.000000 0.035644
#
#
# Mechanical properties :
#
#
# Convention : Reuss Voigt Hill
#
# Bulk Modulus (GPa) = 65.37882 71.50964 68.44423
# Shear Modulus (GPa) = 20.68001 22.12188 21.40095
#
# Velocity S-wave (km/s) = 3.66339 3.78895 3.72670
# Velocity P-wave (km/s) = 7.76672 8.09618 7.93316
#
# Compressibility (1/GPa) = 0.01529547
#
# Stress axis : x y z
#
# Youngs Moduli (GPa) = 71.29503 71.29503 38.82668
#
# Poissons Ratio (x) = 0.27061 0.30014
# Poissons Ratio (y) = 0.27061 0.30014
# Poissons Ratio (z) = 0.55113 0.55113
#
# Static dielectric constant tensor:
#      x y z
#    x 2.968360 0.000000 0.000000 
#    y 0.000000 2.968360 0.000000 
#    z 0.000000 0.000000 2.921160 
# 
# 
# High freq. dielectric constant tensor:
#      x y z
#    x 1.583880 0.000000 0.000000 
#    y 0.000000 1.583880 0.000000 
#    z 0.000000 0.000000 1.580590 
# 
# From -- ./inp_files/8657.got.cif
#   From: 2010.03.12/outbox.cif.g09.slc.cpg/sg191_5_cif.got.tgz:8657.got - 2010.04.01 12:09:02.
