data_PCOD8329068
_publ_section_title
;
Structure prediction by ZEFSAII (Michael W. Deem and Ramdas Pophale) SiO2 
 PCOD8329068
Probable space group: P 6/M M M
;
_chemical_formula_sum "Si O2"
_cell_formula_units_Z 120
_cell_length_a 27.694538
_cell_length_b 27.694538
_cell_length_c 11.298814
_cell_angle_alpha 90.000000
_cell_angle_beta 90.000000
_cell_angle_gamma 120.000000
_cell_volume 7505.018038
_symmetry_space_group_name_H-M "P 6/M M M"
_symmetry_group_IT_number 191
_symmetry_cell_setting 'hexagonal'
loop_
_space_group_symop_operation_xyz
x,y,z
x-y,x,z
-y,x-y,z
-x,-y,z
-x+y,-x,z
y,-x+y,z
x-y,-y,-z
-x,-x+y,-z
y,x,-z
-y,-x,-z
-x+y,y,-z
x,x-y,-z
-x,-y,-z
-x+y,-x,-z
y,-x+y,-z
x,y,-z
x-y,x,-z
-y,x-y,-z
-x+y,y,z
x,x-y,z
-y,-x,z
y,x,z
x-y,-y,z
-x,-x+y,z
loop_
_atom_site_type_symbol
_atom_site_label
_atom_site_fract_x
_atom_site_fract_y
_atom_site_fract_z
Si Si1 0.504269 0.897091 0.755009
Si Si2 0.066385 0.629794 0.000000
Si Si3 0.398046 0.000000 0.636550
Si Si4 0.130520 0.761025 0.000000
Si Si5 0.171257 0.453133 0.638652
Si Si6 0.290099 0.000000 0.639796
Si Si7 0.668380 0.887838 0.257713
O O1 0.441303 0.882605 0.738796
O O2 0.544338 0.945901 0.667417
O O3 0.505621 0.841501 0.716280
O O4 0.524021 0.918544 0.887120
O O5 0.108673 0.695742 0.000000
O O6 0.000000 0.610394 0.000000
O O7 0.344552 0.000000 0.696109
O O8 0.387578 0.000000 0.500000
O O9 0.106642 0.775002 0.883901
O O10 0.199000 0.801001 0.000000
O O11 0.159411 0.455792 0.500000
O O12 0.235350 0.470699 0.660930
O O13 0.129963 0.391500 0.686195
O O14 0.287503 0.053192 0.687726
O O15 0.289818 0.000000 0.500000
O O16 0.686925 0.843463 0.294840
#
# Coordination Sequence:
#
# PCOD8329068 Si02
#       7
#    24  12  12  12  24  12  24
#     4  12  24  36  51  72 100 133 169 206 253 312
#     4  12  23  36  52  71 104 144 171 205 257 303
#     4  11  21  33  47  70 100 131 166 205 250 305
#     4  10  20  33  53  76  96 125 168 213 254 296
#     4  10  20  35  54  74  96 122 156 203 256 307
#     4  11  20  32  51  73 102 139 172 205 251 301
#     4  10  20  33  50  75 102 130 169 210 245 293
#
# _framework density 15.989300999999999
#
# number of rings (size 3 to 8) (size 9 to 14) (size 15 to 20)
#    0.000    1.200    5.000    1.800    1.400    3.600 
#    0.000    0.000    0.000    0.400    0.000    0.000 
#    0.000    0.000    0.000    0.300    0.000    1.300 
#
# Total GULP energy -1487874.768193 kJ/mol
# GULP energy per Si atom -12398.956402 kJ/mol
# Density = 1.595291 g / cm^3
# Si number density = 15.989301 Si / 1000 Ang^3
#
#
#
# Elastic Constant Matrix: (Units=GPa)
#
#
# Indices 1 2 3 4 5 6 
#
# 1 97.6014 55.4545 36.7128 0.0000 0.0000 0.0000
# 2 55.4545 97.6014 36.7128 0.0000 0.0000 0.0000
# 3 36.7128 36.7128 89.5039 0.0000 0.0000 0.0000
# 4 0.0000 0.0000 0.0000 19.7598 0.0000 0.0000
# 5 0.0000 0.0000 0.0000 0.0000 19.7598 0.0000
# 6 0.0000 0.0000 0.0000 0.0000 0.0000 21.0734
#
#
#
# Elastic Compliance Matrix: (Units=1/GPa)
#
#
# Indices 1 2 3 4 5 6 
#
# 1 0.015930 -0.007796 -0.003336 0.000000 0.000000 0.000000
# 2 -0.007796 0.015930 -0.003336 0.000000 0.000000 0.000000
# 3 -0.003336 -0.003336 0.013910 0.000000 0.000000 0.000000
# 4 0.000000 0.000000 0.000000 0.050608 0.000000 0.000000
# 5 0.000000 0.000000 0.000000 0.000000 0.050608 0.000000
# 6 0.000000 0.000000 0.000000 0.000000 0.000000 0.047453
#
#
# Mechanical properties :
#
#
# Convention : Reuss Voigt Hill
#
# Bulk Modulus (GPa) = 59.40981 60.27410 59.84195
# Shear Modulus (GPa) = 21.83519 22.50705 22.17112
#
# Velocity S-wave (km/s) = 3.69943 3.75591 3.72778
# Velocity P-wave (km/s) = 7.44878 7.52247 7.48571
#
# Compressibility (1/GPa) = 0.01683224
#
# Stress axis : x y z
#
# Youngs Moduli (GPa) = 62.77322 62.77322 71.89162
#
# Poissons Ratio (x) = 0.48939 0.23987
# Poissons Ratio (y) = 0.48939 0.23987
# Poissons Ratio (z) = 0.20944 0.20944
#
# Static dielectric constant tensor:
#      x y z
#    x 2.977920 0.000000 0.000000 
#    y 0.000000 2.977920 0.000000 
#    z 0.000000 0.000000 3.314990 
# 
# 
# High freq. dielectric constant tensor:
#      x y z
#    x 1.590120 0.000000 0.000000 
#    y 0.000000 1.590120 0.000000 
#    z 0.000000 0.000000 1.638250 
# 
# From -- ./inp_files/3287.got.cif
#   From: 2010.03.12/outbox.cif.g09.slc.cpg/sg191_2_cif.got.tgz:3287.got - 2010.04.01 12:09:02.
