data_PCOD8329866
_publ_section_title
;
Structure prediction by ZEFSAII (Michael W. Deem and Ramdas Pophale) SiO2 
 PCOD8329866
Probable space group: P 63/M C M
;
_chemical_formula_sum "Si O2"
_cell_formula_units_Z 192
_cell_length_a 23.124868
_cell_length_b 23.124868
_cell_length_c 26.145096
_cell_angle_alpha 90.000000
_cell_angle_beta 90.000000
_cell_angle_gamma 120.000000
_cell_volume 12108.194742
_symmetry_space_group_name_H-M "P 63/M C M"
_symmetry_group_IT_number 193
_symmetry_cell_setting 'hexagonal'
loop_
_space_group_symop_operation_xyz
x,y,z
x-y,x,1/2+z
-y,x-y,z
-x,-y,1/2+z
-x+y,-x,z
y,-x+y,1/2+z
x-y,-y,1/2-z
-x,-x+y,1/2-z
y,x,1/2-z
-y,-x,-z
-x+y,y,-z
x,x-y,-z
-x,-y,-z
-x+y,-x,1/2-z
y,-x+y,-z
x,y,1/2-z
x-y,x,-z
-y,x-y,1/2-z
-x+y,y,1/2+z
x,x-y,1/2+z
-y,-x,1/2+z
y,x,z
x-y,-y,z
-x,-x+y,z
loop_
_atom_site_type_symbol
_atom_site_label
_atom_site_fract_x
_atom_site_fract_y
_atom_site_fract_z
Si Si1 0.510584 0.261771 0.941176
Si Si2 0.734405 0.806527 0.810014
Si Si3 0.831997 0.256560 0.352398
Si Si4 0.466310 0.392099 0.808414
Si Si5 0.504875 0.924267 0.137798
Si Si6 0.281328 0.865779 0.808515
Si Si7 0.283442 0.206743 0.689914
Si Si8 0.583434 0.179414 0.941170
O O1 0.443118 0.240466 0.908530
O O2 0.548749 0.222420 0.926223
O O3 0.562085 0.338643 0.928101
O O4 0.488414 0.244207 0.000000
O O5 0.732057 0.796634 0.750000
O O6 0.787163 0.787163 0.834380
O O7 0.660081 0.755376 0.830168
O O8 0.755891 0.883195 0.822423
O O9 0.866423 0.335097 0.341634
O O10 0.772393 0.213187 0.312375
O O11 0.891766 0.240082 0.346233
O O12 0.456257 0.369230 0.750000
O O13 0.406576 0.406576 0.824852
O O14 0.536599 0.459693 0.815032
O O15 0.541997 0.885054 0.154745
O O16 0.455851 0.889444 0.089900
O O17 0.558842 0.000000 0.122377
O O18 0.305178 0.884127 0.750000
O O19 0.304556 0.219883 0.750000
O O20 0.235330 0.235330 0.675064
O O21 0.579362 0.158724 0.000000
#
# Coordination Sequence:
#
# PCOD8329866 Si02
#       8
#    24  24  24  24  24  24  24  24
#     4  10  20  35  56  72  86 113 155 207 254 292
#     4   8  14  25  42  63  88 123 163 197 224 256
#     4  11  18  30  50  69  91 120 158 197 237 281
#     4  10  20  32  46  67  97 130 160 189 227 283
#     4  11  21  32  47  68  95 128 157 190 238 288
#     4  10  19  30  45  67  95 126 157 192 233 279
#     4   9  17  28  44  70 102 133 161 188 223 273
#     4  10  20  37  55  72  90 114 156 206 253 294
#
# _framework density 15.857029000000001
#
# number of rings (size 3 to 8) (size 9 to 14) (size 15 to 20)
#    0.000    2.125    2.500    3.250    0.000    3.500 
#    0.000    0.000    0.000    0.250    0.000    5.250 
#    0.000    0.000    0.000    0.000    0.000    0.625 
#
# Total GULP energy -2379333.575268 kJ/mol
# GULP energy per Si atom -12392.362371 kJ/mol
# Density = 1.582094 g / cm^3
# Si number density = 15.857029 Si / 1000 Ang^3
#
#
#
# Elastic Constant Matrix: (Units=GPa)
#
#
# Indices 1 2 3 4 5 6 
#
# 1 100.2093 52.4842 34.1940 0.0000 0.0000 0.0000
# 2 52.4842 100.2093 34.1940 0.0000 0.0000 0.0000
# 3 34.1940 34.1940 56.3694 0.0000 0.0000 0.0000
# 4 0.0000 0.0000 0.0000 19.2652 0.0000 0.0000
# 5 0.0000 0.0000 0.0000 0.0000 19.2652 0.0000
# 6 0.0000 0.0000 0.0000 0.0000 0.0000 23.8626
#
#
#
# Elastic Compliance Matrix: (Units=1/GPa)
#
#
# Indices 1 2 3 4 5 6 
#
# 1 0.014973 -0.005981 -0.005455 0.000000 0.000000 0.000000
# 2 -0.005981 0.014973 -0.005455 0.000000 0.000000 0.000000
# 3 -0.005455 -0.005455 0.024358 0.000000 0.000000 0.000000
# 4 0.000000 0.000000 0.000000 0.051907 0.000000 0.000000
# 5 0.000000 0.000000 0.000000 0.000000 0.051907 0.000000
# 6 0.000000 0.000000 0.000000 0.000000 0.000000 0.041907
#
#
# Mechanical properties :
#
#
# Convention : Reuss Voigt Hill
#
# Bulk Modulus (GPa) = 48.72500 55.39247 52.05874
# Shear Modulus (GPa) = 20.77750 21.53964 21.15857
#
# Velocity S-wave (km/s) = 3.62374 3.68960 3.65682
# Velocity P-wave (km/s) = 6.95004 7.29103 7.12258
#
# Compressibility (1/GPa) = 0.02052334
#
# Stress axis : x y z
#
# Youngs Moduli (GPa) = 66.78818 66.78818 41.05465
#
# Poissons Ratio (x) = 0.39944 0.22394
# Poissons Ratio (y) = 0.39944 0.22394
# Poissons Ratio (z) = 0.36431 0.36431
#
# Static dielectric constant tensor:
#      x y z
#    x 3.136330 0.000000 0.000000 
#    y 0.000000 3.136330 0.000000 
#    z 0.000000 0.000000 2.787560 
# 
# 
# High freq. dielectric constant tensor:
#      x y z
#    x 1.609610 0.000000 0.000000 
#    y 0.000000 1.609610 0.000000 
#    z 0.000000 0.000000 1.575300 
# 
# From -- ./inp_files/7895.got.cif
#   From: 2010.03.12/outbox.cif.g09.slc.cpg/sg193_4_cif.got.tgz:7895.got - 2010.04.01 12:20:39.
