data_PCOD8329405
_publ_section_title
;
Structure prediction by ZEFSAII (Michael W. Deem and Ramdas Pophale) SiO2 
 PCOD8329405
Probable space group: P 6/M C C
;
_chemical_formula_sum "Si O2"
_cell_formula_units_Z 132
_cell_length_a 18.091638
_cell_length_b 18.091638
_cell_length_c 23.588063
_cell_angle_alpha 90.000000
_cell_angle_beta 90.000000
_cell_angle_gamma 120.000000
_cell_volume 6686.189624
_symmetry_space_group_name_H-M "P 6/M C C"
_symmetry_group_IT_number 192
_symmetry_cell_setting 'hexagonal'
loop_
_space_group_symop_operation_xyz
x,y,z
x-y,x,z
-y,x-y,z
-x,-y,z
-x+y,-x,z
y,-x+y,z
x-y,-y,1/2-z
-x,-x+y,1/2-z
y,x,1/2-z
-y,-x,1/2-z
-x+y,y,1/2-z
x,x-y,1/2-z
-x,-y,-z
-x+y,-x,-z
y,-x+y,-z
x,y,-z
x-y,x,-z
-y,x-y,-z
-x+y,y,1/2+z
x,x-y,1/2+z
-y,-x,1/2+z
y,x,1/2+z
x-y,-y,1/2+z
-x,-x+y,1/2+z
loop_
_atom_site_type_symbol
_atom_site_label
_atom_site_fract_x
_atom_site_fract_y
_atom_site_fract_z
Si Si1 0.465792 0.368117 0.621634
Si Si2 0.504065 0.665416 0.000000
Si Si3 0.504065 0.665416 0.500000
Si Si4 0.197219 0.098610 0.000000
Si Si5 0.097677 0.631884 0.621634
Si Si6 0.808662 0.191339 0.183138
Si Si7 0.102063 0.897936 0.623437
O O1 0.449294 0.343482 0.555312
O O2 0.411784 0.411785 0.639168
O O3 0.566490 0.433510 0.632475
O O4 0.433947 0.287027 0.660917
O O5 0.404614 0.595386 0.000000
O O6 0.513519 0.756760 0.000000
O O7 0.550706 0.656517 0.944688
O O8 0.135051 0.135051 0.000000
O O9 0.248026 0.124014 0.059934
O O10 0.146923 0.712974 0.660916
O O11 0.807032 0.192969 0.250000
O O12 0.858307 0.141691 0.165858
O O13 0.999999 0.854187 0.633241
#
# Coordination Sequence:
#
# PCOD8329405 Si02
#       7
#    24  12  12  12  24  24  24
#     4  10  22  41  65  92 123 159 200 249 309 373
#     4  10  18  34  62  97 128 155 188 238 307 376
#     4  10  18  34  62  97 128 155 188 238 307 376
#     4   8  15  30  54  86 120 154 194 244 306 368
#     4  10  22  41  65  92 123 159 200 249 309 373
#     4  12  26  43  61  87 120 164 217 265 305 354
#     4  10  21  38  62  92 126 164 206 257 315 375
#
# _framework density 19.742187000000001
#
# number of rings (size 3 to 8) (size 9 to 14) (size 15 to 20)
#    0.000    1.818    1.818    2.091    0.000    8.727 
#    1.091    5.455    0.000    1.091    0.000    0.000 
#    0.000    0.000    0.000    0.000    0.000    0.000 
#
# Total GULP energy -1636212.287654 kJ/mol
# GULP energy per Si atom -12395.547634 kJ/mol
# Density = 1.969725 g / cm^3
# Si number density = 19.742187 Si / 1000 Ang^3
#
#
#
# Elastic Constant Matrix: (Units=GPa)
#
#
# Indices 1 2 3 4 5 6 
#
# 1 1.6109 176.0024 68.4138 0.0000 0.0000 0.0000
# 2 176.0024 1.6109 68.4138 0.0000 0.0000 0.0000
# 3 68.4138 68.4138 165.1904 0.0000 0.0000 0.0000
# 4 0.0000 0.0000 0.0000 2.5677 0.0000 0.0000
# 5 0.0000 0.0000 0.0000 0.0000 2.5677 0.0000
# 6 0.0000 0.0000 0.0000 0.0000 0.0000 -87.1957
#
#
#
# Elastic Compliance Matrix: (Units=1/GPa)
#
#
# Indices 1 2 3 4 5 6 
#
# 1 0.001267 0.007001 -0.003424 0.000000 0.000000 0.000000
# 2 0.007001 0.001267 -0.003424 0.000000 0.000000 0.000000
# 3 -0.003424 -0.003424 0.008890 0.000000 0.000000 0.000000
# 4 0.000000 0.000000 0.000000 0.389448 0.000000 0.000000
# 5 0.000000 0.000000 0.000000 0.000000 0.389448 0.000000
# 6 0.000000 0.000000 0.000000 0.000000 0.000000 -0.011468
#
#
# Mechanical properties :
#
#
# Convention : Reuss Voigt Hill
#
# Bulk Modulus (GPa) = 85.25736 88.23024 86.74380
# Shear Modulus (GPa) = 6.39014 -26.03990 -9.82488
#
# Velocity S-wave (km/s) = 1.80106 -3.63574 -2.23325
# Velocity P-wave (km/s) = 6.89958 5.21185 6.11423
#
# Compressibility (1/GPa) = 0.01172919
#
# Stress axis : x y z
#
# Youngs Moduli (GPa) = 789.28830 789.28830 112.48661
#
# Poissons Ratio (x) = -5.52596 0.38518
# Poissons Ratio (y) = -5.52596 0.38518
# Poissons Ratio (z) = 2.70273 2.70273
#
# Static dielectric constant tensor:
#      x y z
#    x 3.648240 0.000000 0.000000 
#    y 0.000000 3.648240 0.000000 
#    z 0.000000 0.000000 3.714460 
# 
# 
# High freq. dielectric constant tensor:
#      x y z
#    x 1.774430 0.000000 0.000000 
#    y 0.000000 1.774430 0.000000 
#    z 0.000000 0.000000 1.764190 
# 
# From -- ./inp_files/5871.got.cif
#   From: 2010.03.12/outbox.cif.g09.slc.cpg/sg192_3_cif.got.tgz:5871.got - 2010.04.01 12:16:15.
