data_PCOD8329017
_publ_section_title
;
Structure prediction by ZEFSAII (Michael W. Deem and Ramdas Pophale) SiO2 
 PCOD8329017
Probable space group: P 6/M M M
;
_chemical_formula_sum "Si O2"
_cell_formula_units_Z 144
_cell_length_a 20.996683
_cell_length_b 20.996683
_cell_length_c 21.942255
_cell_angle_alpha 90.000000
_cell_angle_beta 90.000000
_cell_angle_gamma 120.000000
_cell_volume 8377.477546
_symmetry_space_group_name_H-M "P 6/M M M"
_symmetry_group_IT_number 191
_symmetry_cell_setting 'hexagonal'
loop_
_space_group_symop_operation_xyz
x,y,z
x-y,x,z
-y,x-y,z
-x,-y,z
-x+y,-x,z
y,-x+y,z
x-y,-y,-z
-x,-x+y,-z
y,x,-z
-y,-x,-z
-x+y,y,-z
x,x-y,-z
-x,-y,-z
-x+y,-x,-z
y,-x+y,-z
x,y,-z
x-y,x,-z
-y,x-y,-z
-x+y,y,z
x,x-y,z
-y,-x,z
y,x,z
x-y,-y,z
-x,-x+y,z
loop_
_atom_site_type_symbol
_atom_site_label
_atom_site_fract_x
_atom_site_fract_y
_atom_site_fract_z
Si Si1 0.541911 0.083822 0.928672
Si Si2 0.588465 0.719740 0.759382
Si Si3 0.300425 0.221063 0.658758
Si Si4 0.564438 0.857205 0.105243
Si Si5 0.331020 0.416037 0.430066
Si Si6 0.812781 0.477100 0.338668
Si Si7 0.914506 0.232980 0.000000
O O1 0.627648 0.131834 0.910351
O O2 0.500000 0.000000 0.900653
O O3 0.537347 0.074694 0.000000
O O4 0.578920 0.789460 0.762027
O O5 0.661932 0.738843 0.722381
O O6 0.591823 0.696666 0.828464
O O7 0.518396 0.658094 0.721654
O O8 0.269863 0.134932 0.661622
O O9 0.230029 0.230029 0.647792
O O10 0.357518 0.256254 0.603415
O O11 0.540249 0.770125 0.103837
O O12 0.631633 0.901870 0.059194
O O13 0.312391 0.421039 0.500000
O O14 0.393298 0.393298 0.423626
O O15 0.359674 0.494387 0.397945
O O16 0.746225 0.492449 0.348520
O O17 0.781738 0.390869 0.330725
O O18 0.855756 0.144245 0.000000
O O19 0.000000 0.251355 0.000000
#
# Coordination Sequence:
#
# PCOD8329017 Si02
#       7
#    12  24  24  24  24  24  12
#     4  11  22  34  50  72 104 136 167 207 263 313
#     4   8  17  33  51  69  92 122 162 207 242 278
#     4   9  17  30  49  73  98 124 154 193 237 284
#     4  10  20  35  54  74  99 133 174 215 255 298
#     4   9  18  33  52  70  89 118 156 201 248 285
#     4  10  20  33  49  68  95 127 161 196 238 292
#     4  10  20  35  57  80 105 135 169 209 251 303
#
# _framework density 17.188946000000001
#
# number of rings (size 3 to 8) (size 9 to 14) (size 15 to 20)
#    0.000    2.583    0.833    2.167    1.167    3.333 
#    0.500    0.833    0.000    1.250    0.000    0.000 
#    0.000    0.000    0.000   12.500    0.000    0.000 
#
# Total GULP energy -1784531.438889 kJ/mol
# GULP energy per Si atom -12392.579437 kJ/mol
# Density = 1.714982 g / cm^3
# Si number density = 17.188946 Si / 1000 Ang^3
#
#
#
# Elastic Constant Matrix: (Units=GPa)
#
#
# Indices 1 2 3 4 5 6 
#
# 1 94.6686 29.8839 29.6709 0.0000 0.0000 0.0000
# 2 29.8839 94.6686 29.6709 0.0000 0.0000 0.0000
# 3 29.6709 29.6709 132.8968 0.0000 0.0000 0.0000
# 4 0.0000 0.0000 0.0000 15.2846 0.0000 0.0000
# 5 0.0000 0.0000 0.0000 0.0000 15.2846 0.0000
# 6 0.0000 0.0000 0.0000 0.0000 0.0000 32.3923
#
#
#
# Elastic Compliance Matrix: (Units=1/GPa)
#
#
# Indices 1 2 3 4 5 6 
#
# 1 0.012210 -0.003226 -0.002006 0.000000 0.000000 0.000000
# 2 -0.003226 0.012210 -0.002006 0.000000 0.000000 0.000000
# 3 -0.002006 -0.002006 0.008420 0.000000 0.000000 0.000000
# 4 0.000000 0.000000 0.000000 0.065425 0.000000 0.000000
# 5 0.000000 0.000000 0.000000 0.000000 0.065425 0.000000
# 6 0.000000 0.000000 0.000000 0.000000 0.000000 0.030871
#
#
# Mechanical properties :
#
#
# Convention : Reuss Voigt Hill
#
# Bulk Modulus (GPa) = 54.44960 55.63174 55.04067
# Shear Modulus (GPa) = 23.23861 28.12620 25.68240
#
# Velocity S-wave (km/s) = 3.68088 4.04950 3.86958
# Velocity P-wave (km/s) = 7.05769 7.36884 7.21494
#
# Compressibility (1/GPa) = 0.01836561
#
# Stress axis : x y z
#
# Youngs Moduli (GPa) = 81.89950 81.89950 118.76032
#
# Poissons Ratio (x) = 0.26418 0.23822
# Poissons Ratio (y) = 0.26418 0.23822
# Poissons Ratio (z) = 0.16428 0.16428
#
# Static dielectric constant tensor:
#      x y z
#    x 3.114820 0.000000 0.000000 
#    y 0.000000 3.114820 0.000000 
#    z 0.000000 0.000000 3.730670 
# 
# 
# High freq. dielectric constant tensor:
#      x y z
#    x 1.645840 0.000000 0.000000 
#    y 0.000000 1.645840 0.000000 
#    z 0.000000 0.000000 1.675360 
# 
# From -- ./inp_files/7638.got.cif
#   From: 2010.03.12/outbox.cif.g09.slc.cpg/sg191_4_cif.got.tgz:7638.got - 2010.04.01 12:09:02.
