data_PCOD8329746
_publ_section_title
;
Structure prediction by ZEFSAII (Michael W. Deem and Ramdas Pophale) SiO2 
 PCOD8329746
Probable space group: P 6/M C C
;
_chemical_formula_sum "Si O2"
_cell_formula_units_Z 104
_cell_length_a 23.754654
_cell_length_b 23.754654
_cell_length_c 18.626620
_cell_angle_alpha 90.000000
_cell_angle_beta 90.000000
_cell_angle_gamma 120.000000
_cell_volume 9102.529696
_symmetry_space_group_name_H-M "P 6/M C C"
_symmetry_group_IT_number 192
_symmetry_cell_setting 'hexagonal'
loop_
_space_group_symop_operation_xyz
x,y,z
x-y,x,z
-y,x-y,z
-x,-y,z
-x+y,-x,z
y,-x+y,z
x-y,-y,1/2-z
-x,-x+y,1/2-z
y,x,1/2-z
-y,-x,1/2-z
-x+y,y,1/2-z
x,x-y,1/2-z
-x,-y,-z
-x+y,-x,-z
y,-x+y,-z
x,y,-z
x-y,x,-z
-y,x-y,-z
-x+y,y,1/2+z
x,x-y,1/2+z
-y,-x,1/2+z
y,x,1/2+z
x-y,-y,1/2+z
-x,-x+y,1/2+z
loop_
_atom_site_type_symbol
_atom_site_label
_atom_site_fract_x
_atom_site_fract_y
_atom_site_fract_z
Si Si1 0.523123 0.261561 0.665169
Si Si2 0.125311 0.628415 0.166382
Si Si3 1.000000 0.566838 0.419153
Si Si4 0.628416 0.125310 0.833616
Si Si5 0.666668 0.333334 0.836235
O O1 0.530592 0.265296 0.750000
O O2 0.487813 0.301852 0.641671
O O3 0.487809 0.185959 0.641673
O O4 0.594629 0.297308 0.631449
O O5 0.141187 0.570593 0.150855
O O6 0.109287 0.628447 0.249999
O O7 0.064104 0.620456 0.121553
O O8 0.000001 0.590652 0.500000
O O9 0.064101 0.620455 0.378444
O O10 0.000000 0.500000 0.418381
O O11 0.666668 0.333334 0.750000
#
# Coordination Sequence:
#
# PCOD8329746 Si02
#       5
#    24  24  24  24   8
#     4   9  14  20  33  53  70  80  95 126 164 197
#     4   9  15  23  36  51  64  79 101 127 155 190
#     4   9  17  27  35  43  59  83 107 129 153 182
#     4   9  15  23  36  51  64  79 101 127 155 190
#     4   9  12  18  30  48  70  83  94 120 160 200
#
# _framework density 11.425395999999999
#
# number of rings (size 3 to 8) (size 9 to 14) (size 15 to 20)
#    0.000    3.000    2.308    0.692    0.000    2.769 
#    0.000    1.154    0.000    0.000    0.000    0.000 
#    0.000    0.000    0.000    0.000    0.000    0.000 
#
# Total GULP energy -1288732.151220 kJ/mol
# GULP energy per Si atom -12391.655300 kJ/mol
# Density = 1.139939 g / cm^3
# Si number density = 11.425396 Si / 1000 Ang^3
#
#
#
# Elastic Constant Matrix: (Units=GPa)
#
#
# Indices 1 2 3 4 5 6 
#
# 1 72.0008 41.6323 32.3231 0.0000 0.0000 0.0000
# 2 41.6323 72.0009 32.3231 0.0000 0.0000 0.0000
# 3 32.3231 32.3231 47.8370 0.0000 0.0000 0.0000
# 4 0.0000 0.0000 0.0000 6.4735 0.0000 0.0000
# 5 0.0000 0.0000 0.0000 0.0000 6.4735 0.0000
# 6 0.0000 0.0000 0.0000 0.0000 0.0000 15.1843
#
#
#
# Elastic Compliance Matrix: (Units=1/GPa)
#
#
# Indices 1 2 3 4 5 6 
#
# 1 0.023612 -0.009317 -0.009659 0.000000 0.000000 0.000000
# 2 -0.009317 0.023612 -0.009659 0.000000 0.000000 0.000000
# 3 -0.009659 -0.009659 0.033958 0.000000 0.000000 0.000000
# 4 0.000000 0.000000 0.000000 0.154477 0.000000 0.000000
# 5 0.000000 0.000000 0.000000 0.000000 0.154477 0.000000
# 6 0.000000 0.000000 0.000000 0.000000 0.000000 0.065857
#
#
# Mechanical properties :
#
#
# Convention : Reuss Voigt Hill
#
# Bulk Modulus (GPa) = 41.82108 44.93285 43.37696
# Shear Modulus (GPa) = 9.59262 11.33027 10.46145
#
# Velocity S-wave (km/s) = 2.90071 3.15250 3.02922
# Velocity P-wave (km/s) = 6.92112 7.25697 7.09103
#
# Compressibility (1/GPa) = 0.02391139
#
# Stress axis : x y z
#
# Youngs Moduli (GPa) = 42.35114 42.35122 29.44837
#
# Poissons Ratio (x) = 0.39457 0.28445
# Poissons Ratio (y) = 0.39457 0.28445
# Poissons Ratio (z) = 0.40908 0.40908
#
# Static dielectric constant tensor:
#      x y z
#    x 2.337160 0.000000 0.000000 
#    y 0.000000 2.337160 0.000000 
#    z 0.000000 0.000000 2.299410 
# 
# 
# High freq. dielectric constant tensor:
#      x y z
#    x 1.403530 0.000000 0.000000 
#    y 0.000000 1.403530 0.000000 
#    z 0.000000 0.000000 1.417320 
# 
# From -- ./inp_files/3075.got.cif
#   From: 2010.03.12/outbox.cif.g09.slc.cpg/sg192_2_cif.got.tgz:3075.got - 2010.04.01 12:16:15.
