data_PCOD8329332
_publ_section_title
;
Structure prediction by ZEFSAII (Michael W. Deem and Ramdas Pophale) SiO2 
 PCOD8329332
Probable space group: P 6/M M M
;
_chemical_formula_sum "Si O2"
_cell_formula_units_Z 60
_cell_length_a 27.216507
_cell_length_b 27.216507
_cell_length_c 9.175841
_cell_angle_alpha 90.000000
_cell_angle_beta 90.000000
_cell_angle_gamma 120.000000
_cell_volume 5886.284979
_symmetry_space_group_name_H-M "P 6/M M M"
_symmetry_group_IT_number 191
_symmetry_cell_setting 'hexagonal'
loop_
_space_group_symop_operation_xyz
x,y,z
x-y,x,z
-y,x-y,z
-x,-y,z
-x+y,-x,z
y,-x+y,z
x-y,-y,-z
-x,-x+y,-z
y,x,-z
-y,-x,-z
-x+y,y,-z
x,x-y,-z
-x,-y,-z
-x+y,-x,-z
y,-x+y,-z
x,y,-z
x-y,x,-z
-y,x-y,-z
-x+y,y,z
x,x-y,z
-y,-x,z
y,x,z
x-y,-y,z
-x,-x+y,z
loop_
_atom_site_type_symbol
_atom_site_label
_atom_site_fract_x
_atom_site_fract_y
_atom_site_fract_z
Si Si1 0.613221 0.109452 0.835391
Si Si2 0.779607 0.446475 0.330213
Si Si3 0.558628 0.558628 0.335085
O O1 0.554010 0.108019 0.833412
O O2 0.660691 0.166853 0.759079
O O3 0.606911 0.055456 0.747380
O O4 0.632267 0.107160 0.000000
O O5 0.793267 0.459649 0.500000
O O6 0.725139 0.450277 0.281969
O O7 0.767162 0.383581 0.292694
O O8 0.500000 0.500000 0.334487
O O9 0.578683 0.578683 0.500000
#
# Coordination Sequence:
#
# PCOD8329332 Si02
#       3
#    24  24  12
#     4   9  16  24  33  45  59  72  86 106 132 159
#     4   9  16  25  35  45  57  74  95 115 133 155
#     4   9  15  23  35  47  57  69  85 105 129 157
#
# _framework density 10.193187
#
# number of rings (size 3 to 8) (size 9 to 14) (size 15 to 20)
#    0.000    3.000    0.000    2.200    0.000    9.600 
#    0.000    0.000    0.000    2.400    0.000    0.000 
#    0.000    0.000    0.000    0.000    0.000    0.000 
#
# Total GULP energy -743904.449298 kJ/mol
# GULP energy per Si atom -12398.407488 kJ/mol
# Density = 1.016999 g / cm^3
# Si number density = 10.193187 Si / 1000 Ang^3
#
#
#
# Elastic Constant Matrix: (Units=GPa)
#
#
# Indices 1 2 3 4 5 6 
#
# 1 48.6469 34.7536 37.5318 0.0000 0.0000 0.0000
# 2 34.7536 48.6469 37.5318 0.0000 0.0000 0.0000
# 3 37.5318 37.5318 81.1842 0.0000 0.0000 0.0000
# 4 0.0000 0.0000 0.0000 12.8640 0.0000 0.0000
# 5 0.0000 0.0000 0.0000 0.0000 12.8640 0.0000
# 6 0.0000 0.0000 0.0000 0.0000 0.0000 6.9466
#
#
#
# Elastic Compliance Matrix: (Units=1/GPa)
#
#
# Indices 1 2 3 4 5 6 
#
# 1 0.046256 -0.025721 -0.009493 0.000000 0.000000 0.000000
# 2 -0.025721 0.046256 -0.009493 0.000000 0.000000 0.000000
# 3 -0.009493 -0.009493 0.021095 0.000000 0.000000 0.000000
# 4 0.000000 0.000000 0.000000 0.077737 0.000000 0.000000
# 5 0.000000 0.000000 0.000000 0.000000 0.077737 0.000000
# 6 0.000000 0.000000 0.000000 0.000000 0.000000 0.143955
#
#
# Mechanical properties :
#
#
# Convention : Reuss Voigt Hill
#
# Bulk Modulus (GPa) = 41.33688 44.23471 42.78580
# Shear Modulus (GPa) = 9.79404 11.11229 10.45317
#
# Velocity S-wave (km/s) = 3.10311 3.30535 3.20583
# Velocity P-wave (km/s) = 7.31304 7.61956 7.46787
#
# Compressibility (1/GPa) = 0.02419147
#
# Stress axis : x y z
#
# Youngs Moduli (GPa) = 21.61882 21.61882 47.40410
#
# Poissons Ratio (x) = 0.55607 0.45002
# Poissons Ratio (y) = 0.55607 0.45002
# Poissons Ratio (z) = 0.20523 0.20523
#
# Static dielectric constant tensor:
#      x y z
#    x 2.075620 0.000000 0.000000 
#    y 0.000000 2.075620 0.000000 
#    z 0.000000 0.000000 2.397970 
# 
# 
# High freq. dielectric constant tensor:
#      x y z
#    x 1.348140 0.000000 0.000000 
#    y 0.000000 1.348140 0.000000 
#    z 0.000000 0.000000 1.399900 
# 
# From -- ./inp_files/775.got.cif
#   From: 2010.03.12/outbox.cif.g09.slc.cpg/sg191_1_cif.got.tgz:775.got - 2010.04.01 12:09:02.
