data_PCOD8329996
_publ_section_title
;
Structure prediction by ZEFSAII (Michael W. Deem and Ramdas Pophale) SiO2 
 PCOD8329996
Probable space group: P 63/M C M
;
_chemical_formula_sum "Si O2"
_cell_formula_units_Z 144
_cell_length_a 32.227688
_cell_length_b 32.227688
_cell_length_c 9.045707
_cell_angle_alpha 90.000000
_cell_angle_beta 90.000000
_cell_angle_gamma 120.000000
_cell_volume 8136.384226
_symmetry_space_group_name_H-M "P 63/M C M"
_symmetry_group_IT_number 193
_symmetry_cell_setting 'hexagonal'
loop_
_space_group_symop_operation_xyz
x,y,z
x-y,x,1/2+z
-y,x-y,z
-x,-y,1/2+z
-x+y,-x,z
y,-x+y,1/2+z
x-y,-y,1/2-z
-x,-x+y,1/2-z
y,x,1/2-z
-y,-x,-z
-x+y,y,-z
x,x-y,-z
-x,-y,-z
-x+y,-x,1/2-z
y,-x+y,-z
x,y,1/2-z
x-y,x,-z
-y,x-y,1/2-z
-x+y,y,1/2+z
x,x-y,1/2+z
-y,-x,1/2+z
y,x,z
x-y,-y,z
-x,-x+y,z
loop_
_atom_site_type_symbol
_atom_site_label
_atom_site_fract_x
_atom_site_fract_y
_atom_site_fract_z
Si Si1 0.946344 0.138598 0.076394
Si Si2 0.473372 0.862261 0.424754
Si Si3 0.285416 0.383848 0.423860
Si Si4 0.944826 0.383247 0.078445
Si Si5 0.287506 0.055737 0.079891
Si Si6 0.474771 0.279612 0.079442
O O1 0.943065 0.130818 0.250000
O O2 0.932577 0.178794 0.034684
O O3 0.000000 0.155665 0.020750
O O4 0.911178 0.088823 0.000000
O O5 0.422278 0.844555 0.500000
O O6 0.470938 0.868650 0.250000
O O7 0.512058 0.913386 0.491940
O O8 0.487790 0.822279 0.462878
O O9 0.295760 0.385160 0.250000
O O10 0.333731 0.396737 0.510853
O O11 0.244014 0.331833 0.473621
O O12 0.268180 0.421569 0.464807
O O13 0.929877 0.375119 0.250000
O O14 0.000000 0.423496 0.058828
O O15 0.302768 0.069492 0.250000
O O16 0.269360 0.000000 0.054269
O O17 0.477439 0.270680 0.250000
O O18 0.489136 0.244568 0.000000
#
# Coordination Sequence:
#
# PCOD8329996 Si02
#       6
#    24  24  24  24  24  24
#     4   9  19  35  53  74 100 129 163 205 253 305
#     4  10  21  37  56  79 104 131 166 206 252 304
#     4  10  20  32  47  72 104 136 174 216 252 289
#     4  10  20  33  50  73 102 139 179 214 251 293
#     4   9  18  32  48  68  98 136 174 209 247 292
#     4   9  20  36  53  75 101 129 163 202 245 295
#
# _framework density 17.698281000000001
#
# number of rings (size 3 to 8) (size 9 to 14) (size 15 to 20)
#    0.000    2.500    0.000    4.000    0.000    9.667 
#    0.000    5.000    0.000    0.500    0.000    0.000 
#    0.000    0.000    0.000    0.000    0.000    0.000 
#
# Total GULP energy -1785803.190800 kJ/mol
# GULP energy per Si atom -12401.411047 kJ/mol
# Density = 1.765800 g / cm^3
# Si number density = 17.698281 Si / 1000 Ang^3
#
#
#
# Elastic Constant Matrix: (Units=GPa)
#
#
# Indices 1 2 3 4 5 6 
#
# 1 105.7331 70.9656 56.7447 0.0000 0.0000 0.0000
# 2 70.9656 105.7331 56.7447 0.0000 0.0000 0.0000
# 3 56.7447 56.7447 89.8033 0.0000 0.0000 0.0000
# 4 0.0000 0.0000 0.0000 32.6520 0.0000 0.0000
# 5 0.0000 0.0000 0.0000 0.0000 32.6520 0.0000
# 6 0.0000 0.0000 0.0000 0.0000 0.0000 17.3837
#
#
#
# Elastic Compliance Matrix: (Units=1/GPa)
#
#
# Indices 1 2 3 4 5 6 
#
# 1 0.019144 -0.009619 -0.006019 0.000000 0.000000 0.000000
# 2 -0.009619 0.019144 -0.006019 0.000000 0.000000 0.000000
# 3 -0.006019 -0.006019 0.018742 0.000000 0.000000 0.000000
# 4 0.000000 0.000000 0.000000 0.030626 0.000000 0.000000
# 5 0.000000 0.000000 0.000000 0.000000 0.030626 0.000000
# 6 0.000000 0.000000 0.000000 0.000000 0.000000 0.057525
#
#
# Mechanical properties :
#
#
# Convention : Reuss Voigt Hill
#
# Bulk Modulus (GPa) = 72.90232 74.46437 73.68335
# Shear Modulus (GPa) = 22.35232 24.32516 23.33874
#
# Velocity S-wave (km/s) = 3.55768 3.71136 3.63533
# Velocity P-wave (km/s) = 7.62609 7.78019 7.70352
#
# Compressibility (1/GPa) = 0.01371698
#
# Stress axis : x y z
#
# Youngs Moduli (GPa) = 52.23639 52.23639 53.35749
#
# Poissons Ratio (x) = 0.50245 0.32114
# Poissons Ratio (y) = 0.50245 0.32114
# Poissons Ratio (z) = 0.31439 0.31439
#
# Static dielectric constant tensor:
#      x y z
#    x 3.212090 0.000000 0.000000 
#    y 0.000000 3.212090 0.000000 
#    z 0.000000 0.000000 3.263700 
# 
# 
# High freq. dielectric constant tensor:
#      x y z
#    x 1.674140 0.000000 0.000000 
#    y 0.000000 1.674140 0.000000 
#    z 0.000000 0.000000 1.690880 
# 
# From -- ./inp_files/1504.got.cif
#   From: 2010.03.12/outbox.cif.g09.slc.cpg/sg193_1_cif.got.tgz:1504.got - 2010.04.01 12:20:39.
