data_PCOD8329873
_publ_section_title
;
Structure prediction by ZEFSAII (Michael W. Deem and Ramdas Pophale) SiO2 
 PCOD8329873
Probable space group: P 63/M C M
;
_chemical_formula_sum "Si O2"
_cell_formula_units_Z 168
_cell_length_a 20.833853
_cell_length_b 20.833853
_cell_length_c 25.253007
_cell_angle_alpha 90.000000
_cell_angle_beta 90.000000
_cell_angle_gamma 120.000000
_cell_volume 9492.550623
_symmetry_space_group_name_H-M "P 63/M C M"
_symmetry_group_IT_number 193
_symmetry_cell_setting 'hexagonal'
loop_
_space_group_symop_operation_xyz
x,y,z
x-y,x,1/2+z
-y,x-y,z
-x,-y,1/2+z
-x+y,-x,z
y,-x+y,1/2+z
x-y,-y,1/2-z
-x,-x+y,1/2-z
y,x,1/2-z
-y,-x,-z
-x+y,y,-z
x,x-y,-z
-x,-y,-z
-x+y,-x,1/2-z
y,-x+y,-z
x,y,1/2-z
x-y,x,-z
-y,x-y,1/2-z
-x+y,y,1/2+z
x,x-y,1/2+z
-y,-x,1/2+z
y,x,z
x-y,-y,z
-x,-x+y,z
loop_
_atom_site_type_symbol
_atom_site_label
_atom_site_fract_x
_atom_site_fract_y
_atom_site_fract_z
Si Si1 0.669009 0.085366 0.308086
Si Si2 0.281415 0.083008 0.538768
Si Si3 0.575617 0.487040 0.894039
Si Si4 0.189152 0.271831 0.341919
Si Si5 0.673030 0.914129 0.809431
Si Si6 0.657096 0.088184 0.895303
Si Si7 0.423673 0.336611 0.013696
O O1 0.688760 0.124079 0.250000
O O2 0.634202 0.122295 0.345883
O O3 0.740965 0.094044 0.336543
O O4 0.608950 0.000000 0.300547
O O5 0.264633 0.132317 0.500000
O O6 0.253689 0.087449 0.596986
O O7 0.367878 0.107808 0.542590
O O8 0.236135 0.000000 0.515813
O O9 0.536273 0.536273 0.895235
O O10 0.516772 0.401456 0.882535
O O11 0.619760 0.501639 0.950382
O O12 0.211211 0.211211 0.319488
O O13 0.122056 0.273850 0.312352
O O14 0.639262 0.901478 0.750000
O O15 0.605294 0.880604 0.852476
O O16 0.726684 0.000000 0.821143
O O17 0.616957 0.000000 0.893439
O O18 0.685666 0.120286 0.954271
O O19 0.390706 0.390706 0.007582
#
# Coordination Sequence:
#
# PCOD8329873 Si02
#       7
#    24  24  24  24  24  24  24
#     4   9  16  26  42  65  92 120 153 198 246 287
#     4  10  19  30  47  70  99 131 167 215 270 330
#     4   9  15  25  41  65  95 125 155 184 223 281
#     4  10  19  33  51  71  95 128 171 217 265 317
#     4  10  21  35  49  69  99 132 169 212 260 322
#     4   9  17  27  43  65  94 131 157 181 230 291
#     4   9  15  26  42  64  94 124 156 194 234 289
#
# _framework density 17.698087999999998
#
# number of rings (size 3 to 8) (size 9 to 14) (size 15 to 20)
#    0.000    2.571    1.429    1.714    0.000    4.857 
#    0.000    2.857    0.000    0.429    0.000    0.000 
#    1.429    0.000    1.143    0.000    0.000    0.000 
#
# Total GULP energy -2081316.467262 kJ/mol
# GULP energy per Si atom -12388.788496 kJ/mol
# Density = 1.765781 g / cm^3
# Si number density = 17.698088 Si / 1000 Ang^3
#
#
#
# Elastic Constant Matrix: (Units=GPa)
#
#
# Indices 1 2 3 4 5 6 
#
# 1 59.3187 27.9649 33.5435 0.0000 0.0000 0.0000
# 2 27.9649 59.3187 33.5435 0.0000 0.0000 0.0000
# 3 33.5435 33.5435 120.7692 0.0000 0.0000 0.0000
# 4 0.0000 0.0000 0.0000 20.3165 0.0000 0.0000
# 5 0.0000 0.0000 0.0000 0.0000 20.3165 0.0000
# 6 0.0000 0.0000 0.0000 0.0000 0.0000 15.6769
#
#
#
# Elastic Compliance Matrix: (Units=1/GPa)
#
#
# Indices 1 2 3 4 5 6 
#
# 1 0.023230 -0.008664 -0.004046 0.000000 0.000000 0.000000
# 2 -0.008664 0.023230 -0.004046 0.000000 0.000000 0.000000
# 3 -0.004046 -0.004046 0.010528 0.000000 0.000000 0.000000
# 4 0.000000 0.000000 0.000000 0.049221 0.000000 0.000000
# 5 0.000000 0.000000 0.000000 0.000000 0.049221 0.000000
# 6 0.000000 0.000000 0.000000 0.000000 0.000000 0.063788
#
#
# Mechanical properties :
#
#
# Convention : Reuss Voigt Hill
#
# Bulk Modulus (GPa) = 42.59398 47.72335 45.15866
# Shear Modulus (GPa) = 19.18976 20.88561 20.03768
#
# Velocity S-wave (km/s) = 3.29642 3.43899 3.36846
# Velocity P-wave (km/s) = 6.21351 6.54161 6.37967
#
# Compressibility (1/GPa) = 0.02347750
#
# Stress axis : x y z
#
# Youngs Moduli (GPa) = 43.04714 43.04714 94.98738
#
# Poissons Ratio (x) = 0.37295 0.38430
# Poissons Ratio (y) = 0.37295 0.38430
# Poissons Ratio (z) = 0.17416 0.17416
#
# Static dielectric constant tensor:
#      x y z
#    x 3.049840 0.000000 0.000000 
#    y 0.000000 3.049840 0.000000 
#    z 0.000000 0.000000 3.636620 
# 
# 
# High freq. dielectric constant tensor:
#      x y z
#    x 1.641810 0.000000 0.000000 
#    y 0.000000 1.641810 0.000000 
#    z 0.000000 0.000000 1.704480 
# 
# From -- ./inp_files/7716.got.cif
#   From: 2010.03.12/outbox.cif.g09.slc.cpg/sg193_4_cif.got.tgz:7716.got - 2010.04.01 12:20:39.
