data_PCOD8329839
_publ_section_title
;
Structure prediction by ZEFSAII (Michael W. Deem and Ramdas Pophale) SiO2 
 PCOD8329839
Probable space group: P 63/M C M
;
_chemical_formula_sum "Si O2"
_cell_formula_units_Z 168
_cell_length_a 18.146701
_cell_length_b 18.146701
_cell_length_c 31.209415
_cell_angle_alpha 90.000000
_cell_angle_beta 90.000000
_cell_angle_gamma 120.000000
_cell_volume 8900.443074
_symmetry_space_group_name_H-M "P 63/M C M"
_symmetry_group_IT_number 193
_symmetry_cell_setting 'hexagonal'
loop_
_space_group_symop_operation_xyz
x,y,z
x-y,x,1/2+z
-y,x-y,z
-x,-y,1/2+z
-x+y,-x,z
y,-x+y,1/2+z
x-y,-y,1/2-z
-x,-x+y,1/2-z
y,x,1/2-z
-y,-x,-z
-x+y,y,-z
x,x-y,-z
-x,-y,-z
-x+y,-x,1/2-z
y,-x+y,-z
x,y,1/2-z
x-y,x,-z
-y,x-y,1/2-z
-x+y,y,1/2+z
x,x-y,1/2+z
-y,-x,1/2+z
y,x,z
x-y,-y,z
-x,-x+y,z
loop_
_atom_site_type_symbol
_atom_site_label
_atom_site_fract_x
_atom_site_fract_y
_atom_site_fract_z
Si Si1 0.445468 0.902912 0.571759
Si Si2 0.100426 0.337851 0.299615
Si Si3 0.898909 0.533551 0.202984
Si Si4 0.848145 0.258427 0.938512
Si Si5 0.673204 0.903662 0.149020
Si Si6 0.408336 0.312846 0.530908
Si Si7 0.900171 0.510960 0.661464
O O1 0.343264 0.841053 0.570709
O O2 0.497094 0.894625 0.531100
O O3 0.486509 0.879126 0.611686
O O4 0.463589 0.000000 0.576048
O O5 0.129237 0.345970 0.250000
O O6 0.138165 0.290942 0.329161
O O7 0.137482 0.431664 0.320545
O O8 0.000000 0.281718 0.303357
O O9 0.864508 0.536499 0.250000
O O10 0.869336 0.580608 0.169930
O O11 0.859833 0.435942 0.188663
O O12 0.000000 0.578924 0.202433
O O13 0.897208 0.237274 0.902078
O O14 0.757116 0.172702 0.940880
O O15 0.899076 0.278084 0.983018
O O16 0.740226 0.000000 0.161283
O O17 0.340333 0.340333 0.548794
O O18 0.000000 0.563723 0.669354
#
# Coordination Sequence:
#
# PCOD8329839 Si02
#       7
#    24  24  24  24  24  24  24
#     4  10  18  33  55  79 109 147 186 227 282 340
#     4  10  21  36  55  81 112 147 187 231 284 344
#     4   9  16  27  46  72  99 128 165 209 258 313
#     4  11  21  35  56  83 109 148 195 237 281 338
#     4  11  21  34  54  80 109 141 186 239 286 333
#     4  10  22  37  55  80 115 154 191 235 291 345
#     4   9  16  29  51  76 103 135 172 215 264 323
#
# _framework density 18.875464999999998
#
# number of rings (size 3 to 8) (size 9 to 14) (size 15 to 20)
#    0.000    2.000    1.429    3.429    0.000    5.429 
#    0.857    0.000    0.000    0.857    0.000    2.000 
#    0.000    0.000    0.000   16.571    0.000    0.000 
#
# Total GULP energy -2081816.458553 kJ/mol
# GULP energy per Si atom -12391.764634 kJ/mol
# Density = 1.883250 g / cm^3
# Si number density = 18.875465 Si / 1000 Ang^3
#
#
#
# Elastic Constant Matrix: (Units=GPa)
#
#
# Indices 1 2 3 4 5 6 
#
# 1 88.6643 39.9025 33.7136 0.0000 0.0000 0.0000
# 2 39.9025 88.6643 33.7136 0.0000 0.0000 0.0000
# 3 33.7136 33.7136 75.8174 0.0000 0.0000 0.0000
# 4 0.0000 0.0000 0.0000 27.0786 0.0000 0.0000
# 5 0.0000 0.0000 0.0000 0.0000 27.0786 0.0000
# 6 0.0000 0.0000 0.0000 0.0000 0.0000 24.3809
#
#
#
# Elastic Compliance Matrix: (Units=1/GPa)
#
#
# Indices 1 2 3 4 5 6 
#
# 1 0.015326 -0.005182 -0.004511 0.000000 0.000000 0.000000
# 2 -0.005182 0.015326 -0.004511 0.000000 0.000000 0.000000
# 3 -0.004511 -0.004511 0.017201 0.000000 0.000000 0.000000
# 4 0.000000 0.000000 0.000000 0.036930 0.000000 0.000000
# 5 0.000000 0.000000 0.000000 0.000000 0.036930 0.000000
# 6 0.000000 0.000000 0.000000 0.000000 0.000000 0.041016
#
#
# Mechanical properties :
#
#
# Convention : Reuss Voigt Hill
#
# Bulk Modulus (GPa) = 51.42435 51.97837 51.70136
# Shear Modulus (GPa) = 25.30165 25.42871 25.36518
#
# Velocity S-wave (km/s) = 3.66519 3.67438 3.66979
# Velocity P-wave (km/s) = 6.72418 6.75268 6.73845
#
# Compressibility (1/GPa) = 0.01944604
#
# Stress axis : x y z
#
# Youngs Moduli (GPa) = 65.24977 65.24977 58.13623
#
# Poissons Ratio (x) = 0.33813 0.26223
# Poissons Ratio (y) = 0.33813 0.26223
# Poissons Ratio (z) = 0.29431 0.29431
#
# Static dielectric constant tensor:
#      x y z
#    x 3.310870 0.000000 0.000000 
#    y 0.000000 3.310870 0.000000 
#    z 0.000000 0.000000 3.652790 
# 
# 
# High freq. dielectric constant tensor:
#      x y z
#    x 1.705220 0.000000 0.000000 
#    y 0.000000 1.705220 0.000000 
#    z 0.000000 0.000000 1.752920 
# 
# From -- ./inp_files/9302.got.cif
#   From: 2010.03.12/outbox.cif.g09.slc.cpg/sg193_5_cif.got.tgz:9302.got - 2010.04.01 12:20:39.
