data_PCOD8329536
_publ_section_title
;
Structure prediction by ZEFSAII (Michael W. Deem and Ramdas Pophale) SiO2 
 PCOD8329536
Probable space group: P 6/M C C
;
_chemical_formula_sum "Si O2"
_cell_formula_units_Z 144
_cell_length_a 32.282106
_cell_length_b 32.282106
_cell_length_c 8.737817
_cell_angle_alpha 90.000000
_cell_angle_beta 90.000000
_cell_angle_gamma 120.000000
_cell_volume 7886.009483
_symmetry_space_group_name_H-M "P 6/M C C"
_symmetry_group_IT_number 192
_symmetry_cell_setting 'hexagonal'
loop_
_space_group_symop_operation_xyz
x,y,z
x-y,x,z
-y,x-y,z
-x,-y,z
-x+y,-x,z
y,-x+y,z
x-y,-y,1/2-z
-x,-x+y,1/2-z
y,x,1/2-z
-y,-x,1/2-z
-x+y,y,1/2-z
x,x-y,1/2-z
-x,-y,-z
-x+y,-x,-z
y,-x+y,-z
x,y,-z
x-y,x,-z
-y,x-y,-z
-x+y,y,1/2+z
x,x-y,1/2+z
-y,-x,1/2+z
y,x,1/2+z
x-y,-y,1/2+z
-x,-x+y,1/2+z
loop_
_atom_site_type_symbol
_atom_site_label
_atom_site_fract_x
_atom_site_fract_y
_atom_site_fract_z
Si Si1 0.525148 0.719112 0.681890
Si Si2 0.860483 0.050240 0.320631
Si Si3 0.615300 0.050040 0.822277
Si Si4 0.385005 0.276989 0.181712
Si Si5 0.144182 0.527819 0.180898
Si Si6 0.765226 0.714810 0.820131
O O1 0.507832 0.753916 0.750000
O O2 0.525208 0.720203 0.500000
O O3 0.578487 0.736791 0.742362
O O4 0.487484 0.666647 0.741154
O O5 0.909181 0.090820 0.250000
O O6 0.866628 0.048094 0.500000
O O7 0.818180 0.061064 0.279858
O O8 0.849385 0.000000 0.250000
O O9 0.669441 0.068496 0.765902
O O10 0.600423 0.089332 0.778953
O O11 0.577629 0.000000 0.750000
O O12 0.612626 0.041120 0.000000
O O13 0.332384 0.239986 0.241881
O O14 0.388103 0.273309 0.000000
O O15 0.156616 0.578308 0.250000
O O16 0.152839 0.531440 0.000000
O O17 0.725918 0.725918 0.750000
O O18 0.756236 0.707027 0.000000
#
# Coordination Sequence:
#
# PCOD8329536 Si02
#       6
#    24  24  24  24  24  24
#     4  11  22  38  59  82 108 140 176 219 269 323
#     4  10  21  37  57  80 107 138 175 217 265 318
#     4   9  19  32  48  72 105 143 184 225 264 306
#     4  10  20  34  51  75 108 146 187 230 270 315
#     4  10  21  38  57  81 109 140 178 220 267 320
#     4  10  20  33  50  75 107 146 188 229 270 314
#
# _framework density 18.260185
#
# number of rings (size 3 to 8) (size 9 to 14) (size 15 to 20)
#    0.000    2.000    0.000    5.000    0.000    8.333 
#    0.000    3.333    0.000    0.500    0.000    3.500 
#    0.000    0.000    0.000    0.000    0.000    0.000 
#
# Total GULP energy -1786099.630780 kJ/mol
# GULP energy per Si atom -12403.469658 kJ/mol
# Density = 1.821862 g / cm^3
# Si number density = 18.260185 Si / 1000 Ang^3
#
#
#
# Elastic Constant Matrix: (Units=GPa)
#
#
# Indices 1 2 3 4 5 6 
#
# 1 103.8520 72.8457 57.6903 0.0000 0.0000 0.0000
# 2 72.8457 103.8520 57.6903 0.0000 0.0000 0.0000
# 3 57.6903 57.6903 114.3853 0.0000 0.0000 0.0000
# 4 0.0000 0.0000 0.0000 32.2583 0.0000 0.0000
# 5 0.0000 0.0000 0.0000 0.0000 32.2583 0.0000
# 6 0.0000 0.0000 0.0000 0.0000 0.0000 15.5032
#
#
#
# Elastic Compliance Matrix: (Units=1/GPa)
#
#
# Indices 1 2 3 4 5 6 
#
# 1 0.020345 -0.011907 -0.004256 0.000000 0.000000 0.000000
# 2 -0.011907 0.020345 -0.004256 0.000000 0.000000 0.000000
# 3 -0.004256 -0.004256 0.013035 0.000000 0.000000 0.000000
# 4 0.000000 0.000000 0.000000 0.031000 0.000000 0.000000
# 5 0.000000 0.000000 0.000000 0.000000 0.031000 0.000000
# 6 0.000000 0.000000 0.000000 0.000000 0.000000 0.064503
#
#
# Mechanical properties :
#
#
# Convention : Reuss Voigt Hill
#
# Bulk Modulus (GPa) = 77.58861 77.61578 77.60219
# Shear Modulus (GPa) = 22.18665 24.92814 23.55740
#
# Velocity S-wave (km/s) = 3.48951 3.69882 3.59569
# Velocity P-wave (km/s) = 7.66931 7.79996 7.73492
#
# Compressibility (1/GPa) = 0.01288849
#
# Stress axis : x y z
#
# Youngs Moduli (GPa) = 49.15224 49.15224 76.71449
#
# Poissons Ratio (x) = 0.58523 0.32649
# Poissons Ratio (y) = 0.58523 0.32649
# Poissons Ratio (z) = 0.20919 0.20919
#
# Static dielectric constant tensor:
#      x y z
#    x 3.390160 0.000000 0.000000 
#    y 0.000000 3.390160 0.000000 
#    z 0.000000 0.000000 3.440270 
# 
# 
# High freq. dielectric constant tensor:
#      x y z
#    x 1.699380 0.000000 0.000000 
#    y 0.000000 1.699380 0.000000 
#    z 0.000000 0.000000 1.723370 
# 
# From -- ./inp_files/1163.got.cif
#   From: 2010.03.12/outbox.cif.g09.slc.cpg/sg192_1_cif.got.tgz:1163.got - 2010.04.01 12:16:15.
