data_PCOD8329294
_publ_section_title
;
Structure prediction by ZEFSAII (Michael W. Deem and Ramdas Pophale) SiO2 
 PCOD8329294
Probable space group: P 6/M M M
;
_chemical_formula_sum "Si O2"
_cell_formula_units_Z 192
_cell_length_a 22.709438
_cell_length_b 22.709438
_cell_length_c 29.048851
_cell_angle_alpha 90.000000
_cell_angle_beta 90.000000
_cell_angle_gamma 120.000000
_cell_volume 12973.954306
_symmetry_space_group_name_H-M "P 6/M M M"
_symmetry_group_IT_number 191
_symmetry_cell_setting 'hexagonal'
loop_
_space_group_symop_operation_xyz
x,y,z
x-y,x,z
-y,x-y,z
-x,-y,z
-x+y,-x,z
y,-x+y,z
x-y,-y,-z
-x,-x+y,-z
y,x,-z
-y,-x,-z
-x+y,y,-z
x,x-y,-z
-x,-y,-z
-x+y,-x,-z
y,-x+y,-z
x,y,-z
x-y,x,-z
-y,x-y,-z
-x+y,y,z
x,x-y,z
-y,-x,z
y,x,z
x-y,-y,z
-x,-x+y,z
loop_
_atom_site_type_symbol
_atom_site_label
_atom_site_fract_x
_atom_site_fract_y
_atom_site_fract_z
Si Si1 0.393560 0.474478 0.725674
Si Si2 0.430143 0.282314 0.552568
Si Si3 0.919171 0.392960 0.902361
Si Si4 0.258707 0.874828 0.948223
Si Si5 0.798693 0.724499 0.445253
Si Si6 0.673163 0.080197 0.812903
Si Si7 0.076030 0.468452 0.375882
Si Si8 0.290081 0.077836 0.136703
O O1 0.445101 0.554900 0.734567
O O2 0.436920 0.436920 0.728279
O O3 0.333448 0.444334 0.764014
O O4 0.359690 0.461292 0.674906
O O5 0.438450 0.308196 0.500000
O O6 0.454779 0.227390 0.556934
O O7 0.352788 0.250179 0.569688
O O8 0.474463 0.345012 0.585791
O O9 0.893787 0.446894 0.910493
O O10 0.885793 0.333778 0.940417
O O11 0.893819 0.358334 0.852355
O O12 0.000000 0.429207 0.906559
O O13 0.204620 0.795381 0.940564
O O14 0.242384 0.919836 0.913174
O O15 0.254150 0.897893 0.000000
O O16 0.799227 0.727951 0.500000
O O17 0.875082 0.750163 0.427056
O O18 0.772239 0.772239 0.423363
O O19 0.750563 0.100125 0.824828
O O20 0.628738 0.000000 0.810658
O O21 0.073931 0.536966 0.377210
O O22 0.000000 0.405796 0.386163
O O23 0.262014 0.131007 0.139797
O O24 0.228761 0.000000 0.144521
#
# Coordination Sequence:
#
# PCOD8329294 Si02
#       8
#    24  24  24  24  24  24  24  24
#     4   8  13  22  37  57  82 109 131 151 180 221
#     4   9  17  28  40  53  72 101 135 167 197 232
#     4   9  16  24  37  59  81 100 127 163 200 235
#     4   9  17  28  40  54  76 107 139 170 205 245
#     4   8  13  21  34  51  69  91 120 153 188 226
#     4   8  13  23  39  57  79 106 131 154 183 223
#     4   9  17  27  40  61  85 105 126 156 197 239
#     4   9  17  28  42  60  81 105 134 168 205 246
#
# _framework density 14.798881
#
# number of rings (size 3 to 8) (size 9 to 14) (size 15 to 20)
#    0.000    3.375    0.000    3.375    0.000    3.750 
#    0.000    1.875    0.000    0.750    0.000    0.875 
#    0.000    0.000    0.000    4.375    0.000    0.750 
#
# Total GULP energy -2379086.485727 kJ/mol
# GULP energy per Si atom -12391.075446 kJ/mol
# Density = 1.476520 g / cm^3
# Si number density = 14.798881 Si / 1000 Ang^3
#
#
#
# Elastic Constant Matrix: (Units=GPa)
#
#
# Indices 1 2 3 4 5 6 
#
# 1 57.0638 24.0485 27.7355 0.0000 0.0000 0.0000
# 2 24.0485 57.0638 27.7355 0.0000 0.0000 0.0000
# 3 27.7355 27.7355 86.7117 0.0000 0.0000 0.0000
# 4 0.0000 0.0000 0.0000 15.5301 0.0000 0.0000
# 5 0.0000 0.0000 0.0000 0.0000 15.5301 0.0000
# 6 0.0000 0.0000 0.0000 0.0000 0.0000 16.5076
#
#
#
# Elastic Compliance Matrix: (Units=1/GPa)
#
#
# Indices 1 2 3 4 5 6 
#
# 1 0.023035 -0.007254 -0.005048 0.000000 0.000000 0.000000
# 2 -0.007254 0.023035 -0.005048 0.000000 0.000000 0.000000
# 3 -0.005048 -0.005048 0.014761 0.000000 0.000000 0.000000
# 4 0.000000 0.000000 0.000000 0.064391 0.000000 0.000000
# 5 0.000000 0.000000 0.000000 0.000000 0.064391 0.000000
# 6 0.000000 0.000000 0.000000 0.000000 0.000000 0.060578
#
#
# Mechanical properties :
#
#
# Convention : Reuss Voigt Hill
#
# Bulk Modulus (GPa) = 38.26677 39.98645 39.12661
# Shear Modulus (GPa) = 17.02991 17.60153 17.31572
#
# Velocity S-wave (km/s) = 3.39596 3.45248 3.42434
# Velocity P-wave (km/s) = 6.42579 6.55526 6.49085
#
# Compressibility (1/GPa) = 0.02613234
#
# Stress axis : x y z
#
# Youngs Moduli (GPa) = 43.41264 43.41264 67.74398
#
# Poissons Ratio (x) = 0.31493 0.34194
# Poissons Ratio (y) = 0.31493 0.34194
# Poissons Ratio (z) = 0.21913 0.21913
#
# Static dielectric constant tensor:
#      x y z
#    x 2.737960 0.000000 0.000000 
#    y 0.000000 2.737960 0.000000 
#    z 0.000000 0.000000 3.012150 
# 
# 
# High freq. dielectric constant tensor:
#      x y z
#    x 1.539400 0.000000 0.000000 
#    y 0.000000 1.539400 0.000000 
#    z 0.000000 0.000000 1.558330 
# 
# From -- ./inp_files/10142.got.cif
#   From: 2010.03.12/outbox.cif.g09.slc.cpg/sg191_6_cif.got.tgz:10142.got - 2010.04.01 12:09:02.
