data_PCOD8329322
_publ_section_title
;
Structure prediction by ZEFSAII (Michael W. Deem and Ramdas Pophale) SiO2 
 PCOD8329322
Probable space group: P 6/M M M
;
_chemical_formula_sum "Si O2"
_cell_formula_units_Z 60
_cell_length_a 16.015240
_cell_length_b 16.015240
_cell_length_c 16.551761
_cell_angle_alpha 90.000000
_cell_angle_beta 90.000000
_cell_angle_gamma 120.000000
_cell_volume 3676.560703
_symmetry_space_group_name_H-M "P 6/M M M"
_symmetry_group_IT_number 191
_symmetry_cell_setting 'hexagonal'
loop_
_space_group_symop_operation_xyz
x,y,z
x-y,x,z
-y,x-y,z
-x,-y,z
-x+y,-x,z
y,-x+y,z
x-y,-y,-z
-x,-x+y,-z
y,x,-z
-y,-x,-z
-x+y,y,-z
x,x-y,-z
-x,-y,-z
-x+y,-x,-z
y,-x+y,-z
x,y,-z
x-y,x,-z
-y,x-y,-z
-x+y,y,z
x,x-y,z
-y,-x,z
y,x,z
x-y,-y,z
-x,-x+y,z
loop_
_atom_site_type_symbol
_atom_site_label
_atom_site_fract_x
_atom_site_fract_y
_atom_site_fract_z
Si Si1 0.886989 0.443495 0.874806
Si Si2 0.885824 0.583119 0.000000
Si Si3 0.885321 0.442661 0.304554
Si Si4 0.291161 0.892269 0.592283
O O1 0.858658 0.345139 0.922229
O O2 0.839742 0.419871 0.785634
O O3 0.000000 0.500000 0.864961
O O4 0.814200 0.628400 0.000000
O O5 0.000000 0.666858 0.000000
O O6 0.850104 0.343398 0.351934
O O7 0.000000 0.500000 0.303081
O O8 0.322655 0.891052 0.500000
O O9 0.176406 0.823595 0.603437
O O10 0.317909 0.000000 0.618113
#
# Coordination Sequence:
#
# PCOD8329322 Si02
#       4
#    12  12  12  24
#     4   8  16  30  46  64  87 113 144 184 222 260
#     4   9  17  31  49  68  92 122 151 181 219 263
#     4   9  16  28  46  65  85 111 145 184 224 264
#     4   9  17  29  45  64  88 119 152 185 223 267
#
# _framework density 16.319600000000001
#
# number of rings (size 3 to 8) (size 9 to 14) (size 15 to 20)
#    0.000    3.200    0.000    1.800    0.000    4.000 
#    6.000    0.000    0.000    0.600    0.000    2.800 
#    0.000    0.000    0.000   20.000    0.000   10.400 
#
# Total GULP energy -743428.607818 kJ/mol
# GULP energy per Si atom -12390.476797 kJ/mol
# Density = 1.628246 g / cm^3
# Si number density = 16.319600 Si / 1000 Ang^3
#
#
#
# Elastic Constant Matrix: (Units=GPa)
#
#
# Indices 1 2 3 4 5 6 
#
# 1 89.0260 47.2198 36.3210 0.0000 0.0000 0.0000
# 2 47.2198 89.0260 36.3210 0.0000 0.0000 0.0000
# 3 36.3210 36.3210 103.6699 0.0000 0.0000 0.0000
# 4 0.0000 0.0000 0.0000 11.2039 0.0000 0.0000
# 5 0.0000 0.0000 0.0000 0.0000 11.2039 0.0000
# 6 0.0000 0.0000 0.0000 0.0000 0.0000 20.9031
#
#
#
# Elastic Compliance Matrix: (Units=1/GPa)
#
#
# Indices 1 2 3 4 5 6 
#
# 1 0.016473 -0.007447 -0.003162 0.000000 0.000000 0.000000
# 2 -0.007447 0.016473 -0.003162 0.000000 0.000000 0.000000
# 3 -0.003162 -0.003162 0.011862 0.000000 0.000000 0.000000
# 4 0.000000 0.000000 0.000000 0.089255 0.000000 0.000000
# 5 0.000000 0.000000 0.000000 0.000000 0.089255 0.000000
# 6 0.000000 0.000000 0.000000 0.000000 0.000000 0.047840
#
#
# Mechanical properties :
#
#
# Convention : Reuss Voigt Hill
#
# Bulk Modulus (GPa) = 57.92269 57.93841 57.93055
# Shear Modulus (GPa) = 16.42285 19.45286 17.93785
#
# Velocity S-wave (km/s) = 3.17571 3.45627 3.31895
# Velocity P-wave (km/s) = 7.00118 7.17685 7.08956
#
# Compressibility (1/GPa) = 0.01726439
#
# Stress axis : x y z
#
# Youngs Moduli (GPa) = 60.70629 60.70629 84.30461
#
# Poissons Ratio (x) = 0.45209 0.26658
# Poissons Ratio (y) = 0.45209 0.26658
# Poissons Ratio (z) = 0.19196 0.19196
#
# Static dielectric constant tensor:
#      x y z
#    x 2.873660 0.000000 0.000000 
#    y 0.000000 2.873660 0.000000 
#    z 0.000000 0.000000 3.681840 
# 
# 
# High freq. dielectric constant tensor:
#      x y z
#    x 1.601860 0.000000 0.000000 
#    y 0.000000 1.601860 0.000000 
#    z 0.000000 0.000000 1.636580 
# 
# From -- ./inp_files/3779.got.cif
#   From: 2010.03.12/outbox.cif.g09.slc.cpg/sg191_2_cif.got.tgz:3779.got - 2010.04.01 12:09:02.
