data_PCOD8329630
_publ_section_title
;
Structure prediction by ZEFSAII (Michael W. Deem and Ramdas Pophale) SiO2 
 PCOD8329630
Probable space group: P 6/M C C
;
_chemical_formula_sum "Si O2"
_cell_formula_units_Z 66
_cell_length_a 14.312698
_cell_length_b 14.312698
_cell_length_c 18.861579
_cell_angle_alpha 90.000000
_cell_angle_beta 90.000000
_cell_angle_gamma 120.000000
_cell_volume 3346.198453
_symmetry_space_group_name_H-M "P 6/M C C"
_symmetry_group_IT_number 192
_symmetry_cell_setting 'hexagonal'
loop_
_space_group_symop_operation_xyz
x,y,z
x-y,x,z
-y,x-y,z
-x,-y,z
-x+y,-x,z
y,-x+y,z
x-y,-y,1/2-z
-x,-x+y,1/2-z
y,x,1/2-z
-y,-x,1/2-z
-x+y,y,1/2-z
x,x-y,1/2-z
-x,-y,-z
-x+y,-x,-z
y,-x+y,-z
x,y,-z
x-y,x,-z
-y,x-y,-z
-x+y,y,1/2+z
x,x-y,1/2+z
-y,-x,1/2+z
y,x,1/2+z
x-y,-y,1/2+z
-x,-x+y,1/2+z
loop_
_atom_site_type_symbol
_atom_site_label
_atom_site_fract_x
_atom_site_fract_y
_atom_site_fract_z
Si Si1 0.000000 0.500000 0.750000
Si Si2 0.541507 0.222236 0.000000
Si Si3 0.990756 0.206897 0.584221
Si Si4 0.381048 0.942401 0.615707
O O1 0.076435 0.473953 0.699107
O O2 0.654628 0.221018 0.000000
O O3 0.473951 0.166627 0.071340
O O4 0.099008 0.211289 0.613437
O O5 0.991190 0.207611 0.500000
O O6 0.983855 0.309485 0.612404
O O7 0.500000 0.000000 0.579200
#
# Coordination Sequence:
#
# PCOD8329630 Si02
#       4
#     6  12  24  24
#     4   8  24  38  60  88 118 178 204 256 312 406
#     4  10  23  34  62  92 119 151 206 273 330 379
#     4  10  21  35  61  93 128 164 205 261 319 376
#     4  10  21  39  60  88 121 161 216 252 328 382
#
# _framework density 19.723873999999999
#
# number of rings (size 3 to 8) (size 9 to 14) (size 15 to 20)
#    1.455    0.727    1.818    0.909    5.091    1.455 
#    0.000    7.273    0.000    0.000    0.000    2.545 
#    0.000    0.000    0.000    0.000    0.000    0.000 
#
# Total GULP energy -817641.260910 kJ/mol
# GULP energy per Si atom -12388.503953 kJ/mol
# Density = 1.967898 g / cm^3
# Si number density = 19.723874 Si / 1000 Ang^3
#
#
#
# Elastic Constant Matrix: (Units=GPa)
#
#
# Indices 1 2 3 4 5 6 
#
# 1 106.3451 35.1109 15.3457 0.0000 0.0000 0.0000
# 2 35.1109 106.3451 15.3457 0.0000 0.0000 0.0000
# 3 15.3457 15.3457 101.5070 0.0000 0.0000 0.0000
# 4 0.0000 0.0000 0.0000 8.6250 0.0000 0.0000
# 5 0.0000 0.0000 0.0000 0.0000 8.6250 0.0000
# 6 0.0000 0.0000 0.0000 0.0000 0.0000 35.6171
#
#
#
# Elastic Compliance Matrix: (Units=1/GPa)
#
#
# Indices 1 2 3 4 5 6 
#
# 1 0.010674 -0.003365 -0.001105 0.000000 0.000000 0.000000
# 2 -0.003365 0.010674 -0.001105 0.000000 0.000000 0.000000
# 3 -0.001105 -0.001105 0.010186 0.000000 0.000000 0.000000
# 4 0.000000 0.000000 0.000000 0.115942 0.000000 0.000000
# 5 0.000000 0.000000 0.000000 0.000000 0.115942 0.000000
# 6 0.000000 0.000000 0.000000 0.000000 0.000000 0.028076
#
#
# Mechanical properties :
#
#
# Convention : Reuss Voigt Hill
#
# Bulk Modulus (GPa) = 49.05834 49.53352 49.29593
# Shear Modulus (GPa) = 16.15838 27.13309 21.64573
#
# Velocity S-wave (km/s) = 2.86532 3.71300 3.31635
# Velocity P-wave (km/s) = 5.98944 6.59923 6.30171
#
# Compressibility (1/GPa) = 0.02038389
#
# Stress axis : x y z
#
# Youngs Moduli (GPa) = 93.68875 93.68875 98.17751
#
# Poissons Ratio (x) = 0.31522 0.10848
# Poissons Ratio (y) = 0.31522 0.10848
# Poissons Ratio (z) = 0.10352 0.10352
#
# Static dielectric constant tensor:
#      x y z
#    x 3.575350 0.000000 0.000000 
#    y 0.000000 3.575350 0.000000 
#    z 0.000000 0.000000 3.200370 
# 
# 
# High freq. dielectric constant tensor:
#      x y z
#    x 1.764310 0.000000 0.000000 
#    y 0.000000 1.764310 0.000000 
#    z 0.000000 0.000000 1.732370 
# 
# From -- ./inp_files/4581.got.cif
#   From: 2010.03.12/outbox.cif.g09.slc.cpg/sg192_3_cif.got.tgz:4581.got - 2010.04.01 12:16:15.
