data_PCOD8329397
_publ_section_title
;
Structure prediction by ZEFSAII (Michael W. Deem and Ramdas Pophale) SiO2 
 PCOD8329397
Probable space group: P 6/M C C
;
_chemical_formula_sum "Si O2"
_cell_formula_units_Z 168
_cell_length_a 19.183076
_cell_length_b 19.183076
_cell_length_c 28.166705
_cell_angle_alpha 90.000000
_cell_angle_beta 90.000000
_cell_angle_gamma 120.000000
_cell_volume 8976.420146
_symmetry_space_group_name_H-M "P 6/M C C"
_symmetry_group_IT_number 192
_symmetry_cell_setting 'hexagonal'
loop_
_space_group_symop_operation_xyz
x,y,z
x-y,x,z
-y,x-y,z
-x,-y,z
-x+y,-x,z
y,-x+y,z
x-y,-y,1/2-z
-x,-x+y,1/2-z
y,x,1/2-z
-y,-x,1/2-z
-x+y,y,1/2-z
x,x-y,1/2-z
-x,-y,-z
-x+y,-x,-z
y,-x+y,-z
x,y,-z
x-y,x,-z
-y,x-y,-z
-x+y,y,1/2+z
x,x-y,1/2+z
-y,-x,1/2+z
y,x,1/2+z
x-y,-y,1/2+z
-x,-x+y,1/2+z
loop_
_atom_site_type_symbol
_atom_site_label
_atom_site_fract_x
_atom_site_fract_y
_atom_site_fract_z
Si Si1 0.908339 0.250750 0.947083
Si Si2 0.705814 0.583594 0.150520
Si Si3 0.732288 0.705675 0.298719
Si Si4 0.953159 0.827305 0.148393
Si Si5 0.092667 0.546353 0.806300
Si Si6 0.064446 0.823468 0.552618
Si Si7 0.453621 0.180387 0.704129
O O1 0.889141 0.298193 0.906671
O O2 0.843712 0.156042 0.941136
O O3 0.000284 0.270887 0.939659
O O4 0.899573 0.279291 0.000000
O O5 0.706333 0.659421 0.174407
O O6 0.633117 0.500682 0.169706
O O7 0.785150 0.578895 0.163113
O O8 0.756702 0.756702 0.250000
O O9 0.809194 0.739470 0.333040
O O10 0.709608 0.617438 0.280595
O O11 0.890125 0.850240 0.168942
O O12 0.952311 0.827445 0.091150
O O13 0.090534 0.545267 0.750000
O O14 0.156740 0.516743 0.818779
O O15 0.000000 0.500000 0.825636
O O16 0.052573 0.849805 0.500000
O O17 0.482642 0.241321 0.750000
#
# Coordination Sequence:
#
# PCOD8329397 Si02
#       7
#    24  24  24  24  24  24  24
#     4  10  21  36  58  89 117 152 204 254 305 356
#     4  12  23  39  64  88 123 166 194 250 308 355
#     4  12  22  37  59  85 112 151 209 256 300 358
#     4  12  24  36  49  74 115 163 210 256 308 360
#     4  11  22  40  59  89 130 163 193 241 301 365
#     4  10  18  32  54  81 115 147 191 260 312 352
#     4  12  23  37  60  95 123 155 202 244 298 367
#
# _framework density 18.715700999999999
#
# number of rings (size 3 to 8) (size 9 to 14) (size 15 to 20)
#    0.000    0.714    7.143    1.857    0.000    0.000 
#    0.857    0.714    0.000    3.000    0.000    0.000 
#    0.000    0.000    0.000    0.000    0.000    0.000 
#
# Total GULP energy -2081755.354556 kJ/mol
# GULP energy per Si atom -12391.400920 kJ/mol
# Density = 1.867310 g / cm^3
# Si number density = 18.715701 Si / 1000 Ang^3
#
#
#
# Elastic Constant Matrix: (Units=GPa)
#
#
# Indices 1 2 3 4 5 6 
#
# 1 90.1390 25.1011 32.5650 0.0000 0.0000 0.0000
# 2 25.1011 90.1390 32.5650 0.0000 0.0000 0.0000
# 3 32.5650 32.5650 106.5497 0.0000 0.0000 0.0000
# 4 0.0000 0.0000 0.0000 22.7386 0.0000 0.0000
# 5 0.0000 0.0000 0.0000 0.0000 22.7386 0.0000
# 6 0.0000 0.0000 0.0000 0.0000 0.0000 32.5189
#
#
#
# Elastic Compliance Matrix: (Units=1/GPa)
#
#
# Indices 1 2 3 4 5 6 
#
# 1 0.012933 -0.002443 -0.003206 0.000000 0.000000 0.000000
# 2 -0.002443 0.012933 -0.003206 0.000000 0.000000 0.000000
# 3 -0.003206 -0.003206 0.011345 0.000000 0.000000 0.000000
# 4 0.000000 0.000000 0.000000 0.043978 0.000000 0.000000
# 5 0.000000 0.000000 0.000000 0.000000 0.043978 0.000000
# 6 0.000000 0.000000 0.000000 0.000000 0.000000 0.030751
#
#
# Mechanical properties :
#
#
# Convention : Reuss Voigt Hill
#
# Bulk Modulus (GPa) = 51.28163 51.92110 51.60136
# Shear Modulus (GPa) = 27.75810 28.70564 28.23187
#
# Velocity S-wave (km/s) = 3.85534 3.92059 3.88810
# Velocity P-wave (km/s) = 6.87590 6.94960 6.91285
#
# Compressibility (1/GPa) = 0.01950016
#
# Stress axis : x y z
#
# Youngs Moduli (GPa) = 77.32438 77.32438 88.14499
#
# Poissons Ratio (x) = 0.18891 0.28258
# Poissons Ratio (y) = 0.18891 0.28258
# Poissons Ratio (z) = 0.24789 0.24789
#
# Static dielectric constant tensor:
#      x y z
#    x 3.433720 0.000000 0.000000 
#    y 0.000000 3.433720 0.000000 
#    z 0.000000 0.000000 3.512710 
# 
# 
# High freq. dielectric constant tensor:
#      x y z
#    x 1.711400 0.000000 0.000000 
#    y 0.000000 1.711400 0.000000 
#    z 0.000000 0.000000 1.720230 
# 
# From -- ./inp_files/7185.got.cif
#   From: 2010.03.12/outbox.cif.g09.slc.cpg/sg192_4_cif.got.tgz:7185.got - 2010.04.01 12:16:15.
