data_PCOD8329005
_publ_section_title
;
Structure prediction by ZEFSAII (Michael W. Deem and Ramdas Pophale) SiO2 
 PCOD8329005
Probable space group: P 6/M M M
;
_chemical_formula_sum "Si O2"
_cell_formula_units_Z 132
_cell_length_a 17.514902
_cell_length_b 17.514902
_cell_length_c 28.826903
_cell_angle_alpha 90.000000
_cell_angle_beta 90.000000
_cell_angle_gamma 120.000000
_cell_volume 7658.505733
_symmetry_space_group_name_H-M "P 6/M M M"
_symmetry_group_IT_number 191
_symmetry_cell_setting 'hexagonal'
loop_
_space_group_symop_operation_xyz
x,y,z
x-y,x,z
-y,x-y,z
-x,-y,z
-x+y,-x,z
y,-x+y,z
x-y,-y,-z
-x,-x+y,-z
y,x,-z
-y,-x,-z
-x+y,y,-z
x,x-y,-z
-x,-y,-z
-x+y,-x,-z
y,-x+y,-z
x,y,-z
x-y,x,-z
-y,x-y,-z
-x+y,y,z
x,x-y,z
-y,-x,z
y,x,z
x-y,-y,z
-x,-x+y,z
loop_
_atom_site_type_symbol
_atom_site_label
_atom_site_fract_x
_atom_site_fract_y
_atom_site_fract_z
Si Si1 0.100536 0.728635 0.911395
Si Si2 0.467316 0.363350 0.821871
Si Si3 0.667936 0.512522 0.000000
Si Si4 0.510217 0.841843 0.548993
Si Si5 0.668062 0.513039 0.649449
Si Si6 0.098699 0.730669 0.265706
O O1 0.165925 0.834076 0.917539
O O2 0.133915 0.698057 0.867005
O O3 0.000000 0.708232 0.905671
O O4 0.105858 0.675858 0.955280
O O5 0.573630 0.426371 0.822580
O O6 0.423932 0.423932 0.821643
O O7 0.438723 0.303850 0.775897
O O8 0.573153 0.426848 0.000000
O O9 0.742055 0.484110 0.000000
O O10 0.564514 0.883524 0.500000
O O11 0.426807 0.853614 0.547567
O O12 0.477090 0.738545 0.549763
O O13 0.558563 0.882215 0.598295
O O14 0.743559 0.487117 0.656192
O O15 0.574011 0.425990 0.655588
O O16 0.678873 0.583779 0.687618
O O17 0.164329 0.835671 0.271008
O O18 0.000000 0.712235 0.255682
#
# Coordination Sequence:
#
# PCOD8329005 Si02
#       6
#    24  24  12  24  24  24
#     4  10  20  33  50  72  97 127 163 202 242 282
#     4   9  17  30  49  72  96 121 149 179 212 257
#     4  10  20  33  50  73 100 128 157 192 236 285
#     4   8  12  18  30  50  78 112 148 182 213 246
#     4   9  16  25  39  61  89 120 152 184 216 251
#     4  10  20  33  49  68  89 115 148 186 228 272
#
# _framework density 17.235738999999999
#
# number of rings (size 3 to 8) (size 9 to 14) (size 15 to 20)
#    0.000    2.727    0.000    2.364    0.000    4.727 
#    0.000    0.000    0.000    6.000    0.000    2.545 
#    0.000    6.545    0.000    0.000    0.000    0.727 
#
# Total GULP energy -1635231.684905 kJ/mol
# GULP energy per Si atom -12388.118825 kJ/mol
# Density = 1.719651 g / cm^3
# Si number density = 17.235739 Si / 1000 Ang^3
#
#
#
# Elastic Constant Matrix: (Units=GPa)
#
#
# Indices 1 2 3 4 5 6 
#
# 1 67.9391 41.6696 26.9414 0.0000 0.0000 0.0000
# 2 41.6696 67.9391 26.9414 0.0000 0.0000 0.0000
# 3 26.9414 26.9414 152.6483 0.0000 0.0000 0.0000
# 4 0.0000 0.0000 0.0000 14.4486 0.0000 0.0000
# 5 0.0000 0.0000 0.0000 0.0000 14.4486 0.0000
# 6 0.0000 0.0000 0.0000 0.0000 0.0000 13.1347
#
#
#
# Elastic Compliance Matrix: (Units=1/GPa)
#
#
# Indices 1 2 3 4 5 6 
#
# 1 0.024029 -0.014038 -0.001763 0.000000 0.000000 0.000000
# 2 -0.014038 0.024029 -0.001763 0.000000 0.000000 0.000000
# 3 -0.001763 -0.001763 0.007173 0.000000 0.000000 0.000000
# 4 0.000000 0.000000 0.000000 0.069211 0.000000 0.000000
# 5 0.000000 0.000000 0.000000 0.000000 0.069211 0.000000
# 6 0.000000 0.000000 0.000000 0.000000 0.000000 0.076134
#
#
# Mechanical properties :
#
#
# Convention : Reuss Voigt Hill
#
# Bulk Modulus (GPa) = 49.74903 53.29236 51.52069
# Shear Modulus (GPa) = 16.04537 21.27132 18.65834
#
# Velocity S-wave (km/s) = 3.05443 3.51684 3.29376
# Velocity P-wave (km/s) = 6.43164 6.89041 6.66497
#
# Compressibility (1/GPa) = 0.02010090
#
# Stress axis : x y z
#
# Youngs Moduli (GPa) = 41.61716 41.61716 139.40416
#
# Poissons Ratio (x) = 0.58424 0.24580
# Poissons Ratio (y) = 0.58424 0.24580
# Poissons Ratio (z) = 0.07338 0.07338
#
# Static dielectric constant tensor:
#      x y z
#    x 2.924430 0.000000 0.000000 
#    y 0.000000 2.924430 0.000000 
#    z 0.000000 0.000000 3.858240 
# 
# 
# High freq. dielectric constant tensor:
#      x y z
#    x 1.628610 0.000000 0.000000 
#    y 0.000000 1.628610 0.000000 
#    z 0.000000 0.000000 1.700050 
# 
# From -- ./inp_files/10445.got.cif
#   From: 2010.03.12/outbox.cif.g09.slc.cpg/sg191_6_cif.got.tgz:10445.got - 2010.04.01 12:09:02.
