data_PCOD8329691
_publ_section_title
;
Structure prediction by ZEFSAII (Michael W. Deem and Ramdas Pophale) SiO2 
 PCOD8329691
Probable space group: P 6/M C C
;
_chemical_formula_sum "Si O2"
_cell_formula_units_Z 144
_cell_length_a 20.369290
_cell_length_b 20.369290
_cell_length_c 20.684273
_cell_angle_alpha 90.000000
_cell_angle_beta 90.000000
_cell_angle_gamma 120.000000
_cell_volume 7432.290487
_symmetry_space_group_name_H-M "P 6/M C C"
_symmetry_group_IT_number 192
_symmetry_cell_setting 'hexagonal'
loop_
_space_group_symop_operation_xyz
x,y,z
x-y,x,z
-y,x-y,z
-x,-y,z
-x+y,-x,z
y,-x+y,z
x-y,-y,1/2-z
-x,-x+y,1/2-z
y,x,1/2-z
-y,-x,1/2-z
-x+y,y,1/2-z
x,x-y,1/2-z
-x,-y,-z
-x+y,-x,-z
y,-x+y,-z
x,y,-z
x-y,x,-z
-y,x-y,-z
-x+y,y,1/2+z
x,x-y,1/2+z
-y,-x,1/2+z
y,x,1/2+z
x-y,-y,1/2+z
-x,-x+y,1/2+z
loop_
_atom_site_type_symbol
_atom_site_label
_atom_site_fract_x
_atom_site_fract_y
_atom_site_fract_z
Si Si1 0.000000 0.753634 0.877268
Si Si2 0.528399 0.617790 0.250000
Si Si3 0.157322 0.000000 0.250000
Si Si4 0.867989 0.284442 0.623438
Si Si5 0.000001 0.846015 0.000000
Si Si6 0.510298 0.176828 0.000000
Si Si7 0.867989 0.583546 0.623438
Si Si8 0.176828 0.510298 0.000000
O O1 0.926244 0.672078 0.882304
O O2 0.000000 0.795352 0.811723
O O3 0.073755 0.745832 0.882303
O O4 0.000001 0.802352 0.936669
O O5 0.573245 0.573245 0.250000
O O6 0.438615 0.561386 0.250000
O O7 0.549290 0.667416 0.186815
O O8 0.549288 0.667416 0.313184
O O9 0.148321 0.074161 0.250000
O O10 0.785089 0.214911 0.629164
O O11 0.872047 0.334180 0.561580
O O12 0.928079 0.856156 0.000000
O O13 0.462133 0.127952 0.938420
O O14 0.592004 0.184008 0.000000
O O15 0.521404 0.260702 0.000000
#
# Coordination Sequence:
#
# PCOD8329691 Si02
#       8
#    24  24  12  24  12  12  24  12
#     4  12  24  42  62  92 122 160 200 254 308 362
#     4  11  22  39  60  88 123 158 198 247 303 362
#     4  12  25  42  64  90 121 160 206 256 308 364
#     4  11  22  40  63  91 124 161 204 250 304 366
#     4  12  25  42  62  86 119 160 204 250 300 358
#     4  10  22  40  64  92 125 163 205 252 304 364
#     4  11  22  40  63  91 124 161 204 250 304 366
#     4  10  22  40  64  92 125 163 205 252 304 364
#
# _framework density 19.374915000000001
#
# number of rings (size 3 to 8) (size 9 to 14) (size 15 to 20)
#    0.000    0.833    1.667    6.833    0.000    1.333 
#    0.000    2.500    0.000    4.667    0.000    0.000 
#    0.000    0.000    0.000    0.000    0.000    0.000 
#
# Total GULP energy -1786080.688839 kJ/mol
# GULP energy per Si atom -12403.338117 kJ/mol
# Density = 1.933082 g / cm^3
# Si number density = 19.374915 Si / 1000 Ang^3
#
#
#
# Elastic Constant Matrix: (Units=GPa)
#
#
# Indices 1 2 3 4 5 6 
#
# 1 133.8806 46.5566 82.1427 0.0000 0.0000 0.0000
# 2 46.5566 133.8806 82.1427 0.0000 0.0000 0.0000
# 3 82.1427 82.1427 210.0928 0.0000 0.0000 0.0000
# 4 0.0000 0.0000 0.0000 58.7828 0.0000 0.0000
# 5 0.0000 0.0000 0.0000 0.0000 58.7828 0.0000
# 6 0.0000 0.0000 0.0000 0.0000 0.0000 43.6620
#
#
#
# Elastic Compliance Matrix: (Units=1/GPa)
#
#
# Indices 1 2 3 4 5 6 
#
# 1 0.010029 -0.001423 -0.003365 0.000000 0.000000 0.000000
# 2 -0.001423 0.010029 -0.003365 0.000000 0.000000 0.000000
# 3 -0.003365 -0.003365 0.007391 0.000000 0.000000 0.000000
# 4 0.000000 0.000000 0.000000 0.017012 0.000000 0.000000
# 5 0.000000 0.000000 0.000000 0.000000 0.017012 0.000000
# 6 0.000000 0.000000 0.000000 0.000000 0.000000 0.022903
#
#
# Mechanical properties :
#
#
# Convention : Reuss Voigt Hill
#
# Bulk Modulus (GPa) = 89.73913 99.94865 94.84389
# Shear Modulus (GPa) = 47.89563 50.04634 48.97099
#
# Velocity S-wave (km/s) = 4.97736 5.08788 5.03292
# Velocity P-wave (km/s) = 8.91346 9.28515 9.10121
#
# Compressibility (1/GPa) = 0.01114341
#
# Stress axis : x y z
#
# Youngs Moduli (GPa) = 99.71523 99.71523 135.30318
#
# Poissons Ratio (x) = 0.14190 0.45524
# Poissons Ratio (y) = 0.14190 0.45524
# Poissons Ratio (z) = 0.33550 0.33550
#
# Static dielectric constant tensor:
#      x y z
#    x 3.771380 0.000000 0.000000 
#    y 0.000000 3.771380 0.000000 
#    z 0.000000 0.000000 3.822670 
# 
# 
# High freq. dielectric constant tensor:
#      x y z
#    x 1.767410 0.000000 0.000000 
#    y 0.000000 1.767410 0.000000 
#    z 0.000000 0.000000 1.779140 
# 
# From -- ./inp_files/5212.got.cif
#   From: 2010.03.12/outbox.cif.g09.slc.cpg/sg192_3_cif.got.tgz:5212.got - 2010.04.01 12:16:15.
