data_PCOD8329282
_publ_section_title
;
Structure prediction by ZEFSAII (Michael W. Deem and Ramdas Pophale) SiO2 
 PCOD8329282
Probable space group: P 6/M M M
;
_chemical_formula_sum "Si O2"
_cell_formula_units_Z 144
_cell_length_a 22.502528
_cell_length_b 22.502528
_cell_length_c 25.306059
_cell_angle_alpha 90.000000
_cell_angle_beta 90.000000
_cell_angle_gamma 120.000000
_cell_volume 11097.311313
_symmetry_space_group_name_H-M "P 6/M M M"
_symmetry_group_IT_number 191
_symmetry_cell_setting 'hexagonal'
loop_
_space_group_symop_operation_xyz
x,y,z
x-y,x,z
-y,x-y,z
-x,-y,z
-x+y,-x,z
y,-x+y,z
x-y,-y,-z
-x,-x+y,-z
y,x,-z
-y,-x,-z
-x+y,y,-z
x,x-y,-z
-x,-y,-z
-x+y,-x,-z
y,-x+y,-z
x,y,-z
x-y,x,-z
-y,x-y,-z
-x+y,y,z
x,x-y,z
-y,-x,z
y,x,z
x-y,-y,z
-x,-x+y,z
loop_
_atom_site_type_symbol
_atom_site_label
_atom_site_fract_x
_atom_site_fract_y
_atom_site_fract_z
Si Si1 0.804249 0.471204 0.746695
Si Si2 0.081351 0.474411 0.555896
Si Si3 0.666543 0.470110 0.868644
Si Si4 0.000000 0.865503 0.936950
Si Si5 0.467523 0.077143 0.669457
Si Si6 0.867593 0.596018 0.939368
Si Si7 0.000000 0.267991 0.062738
O O1 0.737423 0.474846 0.729909
O O2 0.788783 0.394392 0.735300
O O3 0.822766 0.490321 0.807776
O O4 0.869304 0.527707 0.713547
O O5 0.104266 0.453613 0.500000
O O6 0.112350 0.556175 0.554168
O O7 0.103035 0.454981 0.611820
O O8 0.000000 0.437717 0.557543
O O9 0.726423 0.452846 0.880384
O O10 0.595601 0.404400 0.884803
O O11 0.674637 0.532410 0.904439
O O12 0.932904 0.865808 0.915493
O O13 0.000000 0.798631 0.913931
O O14 0.000000 0.864793 0.000000
O O15 0.537915 0.075829 0.666721
O O16 0.405913 0.000000 0.683246
O O17 0.804309 0.608617 0.933038
O O18 0.933380 0.663629 0.917209
O O19 0.877454 0.581071 0.000000
O O20 0.000000 0.263592 0.000000
#
# Coordination Sequence:
#
# PCOD8329282 Si02
#       7
#    24  24  24  12  24  24  12
#     4   9  16  26  39  53  69  90 115 142 174 215
#     4   7   9  14  26  44  64  85 109 137 168 198
#     4   9  17  29  43  57  70  86 110 143 181 218
#     4   9  15  22  35  57  82 103 123 147 171 192
#     4   8  13  21  33  50  70  88 109 141 175 202
#     4   9  17  29  43  57  73  92 116 145 173 208
#     4   9  16  27  41  55  73 100 125 139 162 205
#
# _framework density 12.976115999999999
#
# number of rings (size 3 to 8) (size 9 to 14) (size 15 to 20)
#    0.000    3.500    0.000    2.417    0.000    4.000 
#    1.500    0.417    0.000    3.000    0.000    0.000 
#    0.000    1.333    0.000    0.000    0.000    0.000 
#
# Total GULP energy -1783909.452343 kJ/mol
# GULP energy per Si atom -12388.260086 kJ/mol
# Density = 1.294658 g / cm^3
# Si number density = 12.976116 Si / 1000 Ang^3
#
#
#
# Elastic Constant Matrix: (Units=GPa)
#
#
# Indices 1 2 3 4 5 6 
#
# 1 74.4412 40.5120 40.8214 0.0000 0.0000 0.0000
# 2 40.5120 74.4412 40.8214 0.0000 0.0000 0.0000
# 3 40.8214 40.8214 64.3370 0.0000 0.0000 0.0000
# 4 0.0000 0.0000 0.0000 11.2983 0.0000 0.0000
# 5 0.0000 0.0000 0.0000 0.0000 11.2983 0.0000
# 6 0.0000 0.0000 0.0000 0.0000 0.0000 16.9646
#
#
#
# Elastic Compliance Matrix: (Units=1/GPa)
#
#
# Indices 1 2 3 4 5 6 
#
# 1 0.022654 -0.006819 -0.010047 0.000000 0.000000 0.000000
# 2 -0.006819 0.022654 -0.010047 0.000000 0.000000 0.000000
# 3 -0.010047 -0.010047 0.028293 0.000000 0.000000 0.000000
# 4 0.000000 0.000000 0.000000 0.088509 0.000000 0.000000
# 5 0.000000 0.000000 0.000000 0.000000 0.088509 0.000000
# 6 0.000000 0.000000 0.000000 0.000000 0.000000 0.058946
#
#
# Mechanical properties :
#
#
# Convention : Reuss Voigt Hill
#
# Bulk Modulus (GPa) = 50.57118 50.83654 50.70386
# Shear Modulus (GPa) = 13.51413 13.98322 13.74867
#
# Velocity S-wave (km/s) = 3.23067 3.28626 3.25858
# Velocity P-wave (km/s) = 7.27828 7.32539 7.30188
#
# Compressibility (1/GPa) = 0.01977411
#
# Stress axis : x y z
#
# Youngs Moduli (GPa) = 44.14224 44.14224 35.34463
#
# Poissons Ratio (x) = 0.30101 0.35511
# Poissons Ratio (y) = 0.30101 0.35511
# Poissons Ratio (z) = 0.44350 0.44350
#
# Static dielectric constant tensor:
#      x y z
#    x 2.477870 0.000000 0.000000 
#    y 0.000000 2.477870 0.000000 
#    z 0.000000 0.000000 2.800980 
# 
# 
# High freq. dielectric constant tensor:
#      x y z
#    x 1.467750 0.000000 0.000000 
#    y 0.000000 1.467750 0.000000 
#    z 0.000000 0.000000 1.483910 
# 
# From -- ./inp_files/9990.got.cif
#   From: 2010.03.12/outbox.cif.g09.slc.cpg/sg191_5_cif.got.tgz:9990.got - 2010.04.01 12:09:02.
