data_PCOD8329614
_publ_section_title
;
Structure prediction by ZEFSAII (Michael W. Deem and Ramdas Pophale) SiO2 
 PCOD8329614
Probable space group: P 6/M C C
;
_chemical_formula_sum "Si O2"
_cell_formula_units_Z 114
_cell_length_a 20.082577
_cell_length_b 20.082577
_cell_length_c 14.587027
_cell_angle_alpha 90.000000
_cell_angle_beta 90.000000
_cell_angle_gamma 120.000000
_cell_volume 5094.907459
_symmetry_space_group_name_H-M "P 6/M C C"
_symmetry_group_IT_number 192
_symmetry_cell_setting 'hexagonal'
loop_
_space_group_symop_operation_xyz
x,y,z
x-y,x,z
-y,x-y,z
-x,-y,z
-x+y,-x,z
y,-x+y,z
x-y,-y,1/2-z
-x,-x+y,1/2-z
y,x,1/2-z
-y,-x,1/2-z
-x+y,y,1/2-z
x,x-y,1/2-z
-x,-y,-z
-x+y,-x,-z
y,-x+y,-z
x,y,-z
x-y,x,-z
-y,x-y,-z
-x+y,y,1/2+z
x,x-y,1/2+z
-y,-x,1/2+z
y,x,1/2+z
x-y,-y,1/2+z
-x,-x+y,1/2+z
loop_
_atom_site_type_symbol
_atom_site_label
_atom_site_fract_x
_atom_site_fract_y
_atom_site_fract_z
Si Si1 0.631066 0.568221 0.605411
Si Si2 0.000000 0.500000 0.250000
Si Si3 0.025181 0.160204 0.390706
Si Si4 0.772583 0.229244 0.650240
Si Si5 0.673826 0.933371 0.106912
Si Si6 0.264115 0.571762 0.500000
O O1 0.600218 0.546693 0.500000
O O2 0.569469 0.514082 0.681599
O O3 0.708332 0.563818 0.612605
O O4 0.650259 0.653754 0.629683
O O5 0.093334 0.148523 0.351003
O O6 0.024667 0.157388 0.500000
O O7 0.035685 0.240594 0.355741
O O8 0.752752 0.247249 0.750000
O O9 0.764703 0.145975 0.657644
O O10 0.704960 0.224995 0.588071
O O11 0.668184 0.914504 0.000000
O O12 0.356923 0.604899 0.500000
#
# Coordination Sequence:
#
# PCOD8329614 Si02
#       6
#    24   6  24  24  24  12
#     4  11  24  44  68 103 138 182 231 293 353 425
#     4  12  26  44  64 106 128 176 228 296 364 434
#     4   9  16  27  50  89 135 185 233 285 335 396
#     4  12  24  44  72 101 138 181 229 287 345 426
#     4  10  20  38  65  94 136 182 234 283 347 410
#     4  10  26  48  68  98 133 170 219 274 348 425
#
# _framework density 22.375285000000002
#
# number of rings (size 3 to 8) (size 9 to 14) (size 15 to 20)
#    0.211    1.263    2.105    3.053    0.000    8.421 
#    0.000    0.000    0.000    0.000    0.000    0.000 
#    0.000    1.684    0.000    0.000    0.000    0.000 
#
# Total GULP energy -1413789.265920 kJ/mol
# GULP energy per Si atom -12401.660227 kJ/mol
# Density = 2.232436 g / cm^3
# Si number density = 22.375285 Si / 1000 Ang^3
#
#
#
# Elastic Constant Matrix: (Units=GPa)
#
#
# Indices 1 2 3 4 5 6 
#
# 1 110.7396 32.7640 34.9895 0.0000 0.0000 0.0000
# 2 32.7640 110.7396 34.9895 0.0000 0.0000 0.0000
# 3 34.9895 34.9895 114.3096 0.0000 0.0000 0.0000
# 4 0.0000 0.0000 0.0000 13.7303 0.0000 0.0000
# 5 0.0000 0.0000 0.0000 0.0000 13.7303 0.0000
# 6 0.0000 0.0000 0.0000 0.0000 0.0000 38.9878
#
#
#
# Elastic Compliance Matrix: (Units=1/GPa)
#
#
# Indices 1 2 3 4 5 6 
#
# 1 0.010508 -0.002317 -0.002507 0.000000 0.000000 0.000000
# 2 -0.002317 0.010508 -0.002507 0.000000 0.000000 0.000000
# 3 -0.002507 -0.002507 0.010283 0.000000 0.000000 0.000000
# 4 0.000000 0.000000 0.000000 0.072831 0.000000 0.000000
# 5 0.000000 0.000000 0.000000 0.000000 0.072831 0.000000
# 6 0.000000 0.000000 0.000000 0.000000 0.000000 0.025649
#
#
# Mechanical properties :
#
#
# Convention : Reuss Voigt Hill
#
# Bulk Modulus (GPa) = 60.10949 60.14164 60.12556
# Shear Modulus (GPa) = 22.43980 28.82610 25.63295
#
# Velocity S-wave (km/s) = 3.17027 3.59319 3.38833
# Velocity P-wave (km/s) = 6.35007 6.64467 6.49904
#
# Compressibility (1/GPa) = 0.01663631
#
# Stress axis : x y z
#
# Youngs Moduli (GPa) = 95.16727 95.16727 97.24712
#
# Poissons Ratio (x) = 0.22047 0.24382
# Poissons Ratio (y) = 0.22047 0.24382
# Poissons Ratio (z) = 0.23861 0.23861
#
# Static dielectric constant tensor:
#      x y z
#    x 4.003800 0.000000 0.000000 
#    y 0.000000 4.003800 0.000000 
#    z 0.000000 0.000000 3.996490 
# 
# 
# High freq. dielectric constant tensor:
#      x y z
#    x 1.882320 0.000000 0.000000 
#    y 0.000000 1.882320 0.000000 
#    z 0.000000 0.000000 1.882760 
# 
# From -- ./inp_files/2987.got.cif
#   From: 2010.03.12/outbox.cif.g09.slc.cpg/sg192_2_cif.got.tgz:2987.got - 2010.04.01 12:16:15.
