data_PCOD8329229
_publ_section_title
;
Structure prediction by ZEFSAII (Michael W. Deem and Ramdas Pophale) SiO2 
 PCOD8329229
Probable space group: P 6/M M M
;
_chemical_formula_sum "Si O2"
_cell_formula_units_Z 108
_cell_length_a 27.466631
_cell_length_b 27.466631
_cell_length_c 11.436731
_cell_angle_alpha 90.000000
_cell_angle_beta 90.000000
_cell_angle_gamma 120.000000
_cell_volume 7472.111159
_symmetry_space_group_name_H-M "P 6/M M M"
_symmetry_group_IT_number 191
_symmetry_cell_setting 'hexagonal'
loop_
_space_group_symop_operation_xyz
x,y,z
x-y,x,z
-y,x-y,z
-x,-y,z
-x+y,-x,z
y,-x+y,z
x-y,-y,-z
-x,-x+y,-z
y,x,-z
-y,-x,-z
-x+y,y,-z
x,x-y,-z
-x,-y,-z
-x+y,-x,-z
y,-x+y,-z
x,y,-z
x-y,x,-z
-y,x-y,-z
-x+y,y,z
x,x-y,z
-y,-x,z
y,x,z
x-y,-y,z
-x,-x+y,z
loop_
_atom_site_type_symbol
_atom_site_label
_atom_site_fract_x
_atom_site_fract_y
_atom_site_fract_z
Si Si1 0.469599 0.640765 0.752511
Si Si2 0.334570 0.553348 0.000000
Si Si3 0.177747 0.355494 0.359967
Si Si4 0.936202 0.377582 0.364594
Si Si5 0.672883 0.939563 0.637851
Si Si6 0.758821 0.241180 0.362690
O O1 0.405071 0.594930 0.726909
O O2 0.508072 0.613772 0.718689
O O3 0.484195 0.694509 0.675233
O O4 0.478019 0.657996 0.888529
O O5 0.380627 0.619374 0.000000
O O6 0.273434 0.546868 0.000000
O O7 0.178563 0.357125 0.500000
O O8 0.113317 0.322689 0.312551
O O9 0.209554 0.419107 0.310622
O O10 0.920239 0.378580 0.500000
O O11 0.929313 0.317709 0.332221
O O12 0.000000 0.426993 0.340833
O O13 0.680753 0.942670 0.500000
O O14 0.720504 0.000000 0.691302
O O15 0.760885 0.239116 0.500000
#
# Coordination Sequence:
#
# PCOD8329229 Si02
#       6
#    24  12  12  24  24  12
#     4  11  22  35  50  66  86 112 146 182 218 260
#     4  10  21  38  55  65  77 109 153 190 220 258
#     4   9  14  22  39  59  83 113 135 159 198 246
#     4   9  17  30  48  70  95 118 138 166 212 270
#     4   8  13  21  35  57  83 110 138 163 194 245
#     4  11  20  31  47  69  91 110 135 172 222 275
#
# _framework density 14.453747
#
# number of rings (size 3 to 8) (size 9 to 14) (size 15 to 20)
#    0.000    2.444    3.333    2.111    0.000    2.222 
#    0.667    1.667    0.000    2.000    0.000    0.000 
#    0.000    0.000    0.000    0.333    0.000   10.667 
#
# Total GULP energy -1338463.145725 kJ/mol
# GULP energy per Si atom -12393.177275 kJ/mol
# Density = 1.442085 g / cm^3
# Si number density = 14.453747 Si / 1000 Ang^3
#
#
#
# Elastic Constant Matrix: (Units=GPa)
#
#
# Indices 1 2 3 4 5 6 
#
# 1 78.0250 71.3516 31.3429 0.0000 0.0000 0.0000
# 2 71.3516 78.0250 31.3429 0.0000 0.0000 0.0000
# 3 31.3429 31.3429 49.5499 0.0000 0.0000 0.0000
# 4 0.0000 0.0000 0.0000 12.9564 0.0000 0.0000
# 5 0.0000 0.0000 0.0000 0.0000 12.9564 0.0000
# 6 0.0000 0.0000 0.0000 0.0000 0.0000 3.3367
#
#
#
# Elastic Compliance Matrix: (Units=1/GPa)
#
#
# Indices 1 2 3 4 5 6 
#
# 1 0.079481 -0.070368 -0.005765 0.000000 0.000000 0.000000
# 2 -0.070368 0.079481 -0.005765 0.000000 0.000000 0.000000
# 3 -0.005765 -0.005765 0.027475 0.000000 0.000000 0.000000
# 4 0.000000 0.000000 0.000000 0.077182 0.000000 0.000000
# 5 0.000000 0.000000 0.000000 0.000000 0.077182 0.000000
# 6 0.000000 0.000000 0.000000 0.000000 0.000000 0.299698
#
#
# Mechanical properties :
#
#
# Convention : Reuss Voigt Hill
#
# Bulk Modulus (GPa) = 44.16433 52.63052 48.39743
# Shear Modulus (GPa) = 6.15884 10.62074 8.38979
#
# Velocity S-wave (km/s) = 2.06647 2.71368 2.41188
# Velocity P-wave (km/s) = 6.02625 6.80521 6.42754
#
# Compressibility (1/GPa) = 0.02264271
#
# Stress axis : x y z
#
# Youngs Moduli (GPa) = 12.58157 12.58157 36.39695
#
# Poissons Ratio (x) = 0.88534 0.20982
# Poissons Ratio (y) = 0.88534 0.20982
# Poissons Ratio (z) = 0.07253 0.07253
#
# Static dielectric constant tensor:
#      x y z
#    x 2.628890 0.000000 0.000000 
#    y 0.000000 2.628890 0.000000 
#    z 0.000000 0.000000 2.545590 
# 
# 
# High freq. dielectric constant tensor:
#      x y z
#    x 1.546310 0.000000 0.000000 
#    y 0.000000 1.546310 0.000000 
#    z 0.000000 0.000000 1.511200 
# 
# From -- ./inp_files/3134.got.cif
#   From: 2010.03.12/outbox.cif.g09.slc.cpg/sg191_2_cif.got.tgz:3134.got - 2010.04.01 12:09:02.
