data_PCOD8329757
_publ_section_title
;
Structure prediction by ZEFSAII (Michael W. Deem and Ramdas Pophale) SiO2 
 PCOD8329757
Probable space group: P 63/M C M
;
_chemical_formula_sum "Si O2"
_cell_formula_units_Z 120
_cell_length_a 20.362023
_cell_length_b 20.362023
_cell_length_c 17.075015
_cell_angle_alpha 90.000000
_cell_angle_beta 90.000000
_cell_angle_gamma 120.000000
_cell_volume 6131.031859
_symmetry_space_group_name_H-M "P 63/M C M"
_symmetry_group_IT_number 193
_symmetry_cell_setting 'hexagonal'
loop_
_space_group_symop_operation_xyz
x,y,z
x-y,x,1/2+z
-y,x-y,z
-x,-y,1/2+z
-x+y,-x,z
y,-x+y,1/2+z
x-y,-y,1/2-z
-x,-x+y,1/2-z
y,x,1/2-z
-y,-x,-z
-x+y,y,-z
x,x-y,-z
-x,-y,-z
-x+y,-x,1/2-z
y,-x+y,-z
x,y,1/2-z
x-y,x,-z
-y,x-y,1/2-z
-x+y,y,1/2+z
x,x-y,1/2+z
-y,-x,1/2+z
y,x,z
x-y,-y,z
-x,-x+y,z
loop_
_atom_site_type_symbol
_atom_site_label
_atom_site_fract_x
_atom_site_fract_y
_atom_site_fract_z
Si Si1 0.000000 0.512577 0.590721
Si Si2 0.085364 0.913646 0.343619
Si Si3 0.855257 0.191706 0.342022
Si Si4 0.000000 0.652556 0.841517
Si Si5 0.750718 0.251954 0.343026
Si Si6 0.165620 0.584500 0.406832
O O1 0.000000 0.500000 0.500000
O O2 0.000000 0.589704 0.604191
O O3 0.920541 0.443792 0.624865
O O4 0.085892 0.914218 0.250000
O O5 0.122770 0.864581 0.376819
O O6 0.000000 0.874951 0.376248
O O7 0.132455 0.000000 0.374619
O O8 0.850322 0.181890 0.250000
O O9 0.928157 0.269343 0.365764
O O10 0.781438 0.195503 0.371284
O O11 0.000000 0.632657 0.750000
O O12 0.748480 0.255829 0.250000
O O13 0.668035 0.222054 0.376875
O O14 0.807592 0.335745 0.374036
O O15 0.168027 0.584014 0.500000
#
# Coordination Sequence:
#
# PCOD8329757 Si02
#       6
#    12  24  24  12  24  24
#     4  10  22  38  58  82 108 141 184 228 282 335
#     4   9  15  24  40  66 103 145 184 219 259 311
#     4   9  17  29  48  74 103 137 181 226 268 315
#     4  10  16  30  56  78 102 141 190 235 270 323
#     4  11  22  37  57  82 108 140 183 230 276 329
#     4  11  23  40  59  81 110 145 183 224 281 335
#
# _framework density 19.572562000000001
#
# number of rings (size 3 to 8) (size 9 to 14) (size 15 to 20)
#    0.000    2.000    3.000    1.800    0.000    1.600 
#    1.800    0.000    0.000    0.000    0.000    0.000 
#    0.000    0.000    0.000    0.600    0.000   20.800 
#
# Total GULP energy -1487078.710984 kJ/mol
# GULP energy per Si atom -12392.322592 kJ/mol
# Density = 1.952801 g / cm^3
# Si number density = 19.572562 Si / 1000 Ang^3
#
#
#
# Elastic Constant Matrix: (Units=GPa)
#
#
# Indices 1 2 3 4 5 6 
#
# 1 129.3554 27.5953 30.3293 0.0000 0.0000 0.0000
# 2 27.5953 129.3554 30.3293 0.0000 0.0000 0.0000
# 3 30.3293 30.3293 44.7681 0.0000 0.0000 0.0000
# 4 0.0000 0.0000 0.0000 11.8645 0.0000 0.0000
# 5 0.0000 0.0000 0.0000 0.0000 11.8645 0.0000
# 6 0.0000 0.0000 0.0000 0.0000 0.0000 50.8801
#
#
#
# Elastic Compliance Matrix: (Units=1/GPa)
#
#
# Indices 1 2 3 4 5 6 
#
# 1 0.009229 -0.000598 -0.005848 0.000000 0.000000 0.000000
# 2 -0.000598 0.009229 -0.005848 0.000000 0.000000 0.000000
# 3 -0.005848 -0.005848 0.030260 0.000000 0.000000 0.000000
# 4 0.000000 0.000000 0.000000 0.084285 0.000000 0.000000
# 5 0.000000 0.000000 0.000000 0.000000 0.084285 0.000000
# 6 0.000000 0.000000 0.000000 0.000000 0.000000 0.019654
#
#
# Mechanical properties :
#
#
# Convention : Reuss Voigt Hill
#
# Bulk Modulus (GPa) = 41.43698 53.33187 47.38443
# Shear Modulus (GPa) = 18.54784 29.27016 23.90900
#
# Velocity S-wave (km/s) = 3.08172 3.87132 3.49887
# Velocity P-wave (km/s) = 5.82062 6.87680 6.37063
#
# Compressibility (1/GPa) = 0.02413303
#
# Stress axis : x y z
#
# Youngs Moduli (GPa) = 108.35157 108.35157 33.04642
#
# Poissons Ratio (x) = 0.06477 0.19324
# Poissons Ratio (y) = 0.06477 0.19324
# Poissons Ratio (z) = 0.63359 0.63359
#
# Static dielectric constant tensor:
#      x y z
#    x 3.893520 0.000000 0.000000 
#    y 0.000000 3.893520 0.000000 
#    z 0.000000 0.000000 3.118230 
# 
# 
# High freq. dielectric constant tensor:
#      x y z
#    x 1.773860 0.000000 0.000000 
#    y 0.000000 1.773860 0.000000 
#    z 0.000000 0.000000 1.715860 
# 
# From -- ./inp_files/5380.got.cif
#   From: 2010.03.12/outbox.cif.g09.slc.cpg/sg193_3_cif.got.tgz:5380.got - 2010.04.01 12:20:39.
