data_PCOD8329722
_publ_section_title
;
Structure prediction by ZEFSAII (Michael W. Deem and Ramdas Pophale) SiO2 
 PCOD8329722
Probable space group: P 6/M C C
;
_chemical_formula_sum "Si O2"
_cell_formula_units_Z 108
_cell_length_a 17.837481
_cell_length_b 17.837481
_cell_length_c 20.388980
_cell_angle_alpha 90.000000
_cell_angle_beta 90.000000
_cell_angle_gamma 120.000000
_cell_volume 5618.148037
_symmetry_space_group_name_H-M "P 6/M C C"
_symmetry_group_IT_number 192
_symmetry_cell_setting 'hexagonal'
loop_
_space_group_symop_operation_xyz
x,y,z
x-y,x,z
-y,x-y,z
-x,-y,z
-x+y,-x,z
y,-x+y,z
x-y,-y,1/2-z
-x,-x+y,1/2-z
y,x,1/2-z
-y,-x,1/2-z
-x+y,y,1/2-z
x,x-y,1/2-z
-x,-y,-z
-x+y,-x,-z
y,-x+y,-z
x,y,-z
x-y,x,-z
-y,x-y,-z
-x+y,y,1/2+z
x,x-y,1/2+z
-y,-x,1/2+z
y,x,1/2+z
x-y,-y,1/2+z
-x,-x+y,1/2+z
loop_
_atom_site_type_symbol
_atom_site_label
_atom_site_fract_x
_atom_site_fract_y
_atom_site_fract_z
Si Si1 0.160184 0.666964 0.179920
Si Si2 0.665723 0.165922 0.169957
Si Si3 0.179259 0.000000 0.750000
Si Si4 0.241448 0.346415 0.573387
Si Si5 0.934764 0.695314 0.628703
O O1 0.261342 0.733570 0.166933
O O2 0.147681 0.577311 0.151810
O O3 0.133961 0.662870 0.255912
O O4 0.097965 0.692946 0.142837
O O5 0.689795 0.113883 0.118551
O O6 0.227926 0.987242 0.688467
O O7 0.084338 0.915663 0.750000
O O8 0.238380 0.379047 0.500000
O O9 0.274764 0.277780 0.569400
O O10 0.146856 0.297079 0.606141
#
# Coordination Sequence:
#
# PCOD8329722 Si02
#       5
#    24  24  12  24  24
#     4   9  18  33  59  87 117 150 196 253 306 355
#     4   9  18  34  56  86 117 153 196 246 305 357
#     4  12  23  40  66  95 124 150 194 264 329 384
#     4  11  23  40  58  80 115 161 204 243 299 378
#     4  11  22  38  60  86 115 154 198 249 311 371
#
# _framework density 19.223417999999999
#
# number of rings (size 3 to 8) (size 9 to 14) (size 15 to 20)
#    0.000    1.778    2.222    2.556    3.111    2.667 
#    0.000    8.889    0.000    0.000    0.000    3.111 
#    0.000    0.000    0.000    0.000    0.000    0.000 
#
# Total GULP energy -1338587.299818 kJ/mol
# GULP energy per Si atom -12394.326850 kJ/mol
# Density = 1.917966 g / cm^3
# Si number density = 19.223418 Si / 1000 Ang^3
#
#
#
# Elastic Constant Matrix: (Units=GPa)
#
#
# Indices 1 2 3 4 5 6 
#
# 1 114.4382 62.9444 42.5813 0.0000 0.0000 0.0000
# 2 62.9444 114.4382 42.5813 0.0000 0.0000 0.0000
# 3 42.5813 42.5813 90.4691 0.0000 0.0000 0.0000
# 4 0.0000 0.0000 0.0000 19.2773 0.0000 0.0000
# 5 0.0000 0.0000 0.0000 0.0000 19.2773 0.0000
# 6 0.0000 0.0000 0.0000 0.0000 0.0000 25.7469
#
#
#
# Elastic Compliance Matrix: (Units=1/GPa)
#
#
# Indices 1 2 3 4 5 6 
#
# 1 0.013352 -0.006068 -0.003428 0.000000 0.000000 0.000000
# 2 -0.006068 0.013352 -0.003428 0.000000 0.000000 0.000000
# 3 -0.003428 -0.003428 0.014281 0.000000 0.000000 0.000000
# 4 0.000000 0.000000 0.000000 0.051875 0.000000 0.000000
# 5 0.000000 0.000000 0.000000 0.000000 0.051875 0.000000
# 6 0.000000 0.000000 0.000000 0.000000 0.000000 0.038840
#
#
# Mechanical properties :
#
#
# Convention : Reuss Voigt Hill
#
# Bulk Modulus (GPa) = 66.07231 68.39547 67.23389
# Shear Modulus (GPa) = 23.31371 24.27620 23.79495
#
# Velocity S-wave (km/s) = 3.48627 3.55751 3.52207
# Velocity P-wave (km/s) = 7.11694 7.24783 7.18268
#
# Compressibility (1/GPa) = 0.01513493
#
# Stress axis : x y z
#
# Youngs Moduli (GPa) = 74.89742 74.89742 70.02552
#
# Poissons Ratio (x) = 0.45449 0.24005
# Poissons Ratio (y) = 0.45449 0.24005
# Poissons Ratio (z) = 0.25675 0.25675
#
# Static dielectric constant tensor:
#      x y z
#    x 3.576560 0.000000 0.000000 
#    y 0.000000 3.576560 0.000000 
#    z 0.000000 0.000000 3.317430 
# 
# 
# High freq. dielectric constant tensor:
#      x y z
#    x 1.753730 0.000000 0.000000 
#    y 0.000000 1.753730 0.000000 
#    z 0.000000 0.000000 1.727310 
# 
# From -- ./inp_files/4829.got.cif
#   From: 2010.03.12/outbox.cif.g09.slc.cpg/sg192_3_cif.got.tgz:4829.got - 2010.04.01 12:16:15.
