data_PCOD8329062
_publ_section_title
;
Structure prediction by ZEFSAII (Michael W. Deem and Ramdas Pophale) SiO2 
 PCOD8329062
Probable space group: P 6/M M M
;
_chemical_formula_sum "Si O2"
_cell_formula_units_Z 72
_cell_length_a 17.654024
_cell_length_b 17.654024
_cell_length_c 15.686102
_cell_angle_alpha 90.000000
_cell_angle_beta 90.000000
_cell_angle_gamma 120.000000
_cell_volume 4233.826840
_symmetry_space_group_name_H-M "P 6/M M M"
_symmetry_group_IT_number 191
_symmetry_cell_setting 'hexagonal'
loop_
_space_group_symop_operation_xyz
x,y,z
x-y,x,z
-y,x-y,z
-x,-y,z
-x+y,-x,z
y,-x+y,z
x-y,-y,-z
-x,-x+y,-z
y,x,-z
-y,-x,-z
-x+y,y,-z
x,x-y,-z
-x,-y,-z
-x+y,-x,-z
y,-x+y,-z
x,y,-z
x-y,x,-z
-y,x-y,-z
-x+y,y,z
x,x-y,z
-y,-x,z
y,x,z
x-y,-y,z
-x,-x+y,z
loop_
_atom_site_type_symbol
_atom_site_label
_atom_site_fract_x
_atom_site_fract_y
_atom_site_fract_z
Si Si1 0.632572 0.902782 0.840736
Si Si2 0.331478 0.490992 0.000000
Si Si3 0.511328 0.667352 0.315817
Si Si4 0.490899 0.332762 0.500000
O O1 0.666892 0.833446 0.841819
O O2 0.566055 0.885038 0.916992
O O3 0.584186 0.899585 0.753297
O O4 0.716009 0.000000 0.850059
O O5 0.428379 0.571622 0.000000
O O6 0.262963 0.525926 0.000000
O O7 0.484824 0.742412 0.310091
O O8 0.425215 0.574786 0.297702
O O9 0.554425 0.668214 0.409379
O O10 0.584221 0.415780 0.500000
O O11 0.508986 0.254493 0.500000
#
# Coordination Sequence:
#
# PCOD8329062 Si02
#       4
#    24  12  24  12
#     4  10  21  35  50  68  90 118 151 190 236 280
#     4  10  20  33  50  73 102 134 163 186 208 241
#     4   9  16  26  42  65  94 127 160 190 219 255
#     4   8  13  22  37  59  88 123 160 192 219 250
#
# _framework density 17.005891999999999
#
# number of rings (size 3 to 8) (size 9 to 14) (size 15 to 20)
#    0.000    2.667    0.000    2.167    0.000    6.000 
#    0.000    4.167    0.000    3.333    0.000    0.000 
#    0.000    4.000    0.000    0.000    0.000   19.667 
#
# Total GULP energy -891990.370070 kJ/mol
# GULP energy per Si atom -12388.755140 kJ/mol
# Density = 1.696719 g / cm^3
# Si number density = 17.005892 Si / 1000 Ang^3
#
#
#
# Elastic Constant Matrix: (Units=GPa)
#
#
# Indices 1 2 3 4 5 6 
#
# 1 81.9573 58.1594 38.8611 0.0000 0.0000 0.0000
# 2 58.1594 81.9573 38.8611 0.0000 0.0000 0.0000
# 3 38.8611 38.8611 145.8494 0.0000 0.0000 0.0000
# 4 0.0000 0.0000 0.0000 -13.0431 0.0000 0.0000
# 5 0.0000 0.0000 0.0000 0.0000 -13.0431 0.0000
# 6 0.0000 0.0000 0.0000 0.0000 0.0000 11.8990
#
#
#
# Elastic Compliance Matrix: (Units=1/GPa)
#
#
# Indices 1 2 3 4 5 6 
#
# 1 0.025198 -0.016823 -0.002231 0.000000 0.000000 0.000000
# 2 -0.016823 0.025198 -0.002231 0.000000 0.000000 0.000000
# 3 -0.002231 -0.002231 0.008045 0.000000 0.000000 0.000000
# 4 0.000000 0.000000 0.000000 -0.076669 0.000000 0.000000
# 5 0.000000 0.000000 0.000000 0.000000 -0.076669 0.000000
# 6 0.000000 0.000000 0.000000 0.000000 0.000000 0.084041
#
#
# Mechanical properties :
#
#
# Convention : Reuss Voigt Hill
#
# Bulk Modulus (GPa) = 63.01517 64.61415 63.81466
# Shear Modulus (GPa) = 135.11856 8.75472 71.93664
#
# Velocity S-wave (km/s) = 8.92337 2.27139 6.51098
# Velocity P-wave (km/s) = 11.97096 6.70497 9.70208
#
# Compressibility (1/GPa) = 0.01586920
#
# Stress axis : x y z
#
# Youngs Moduli (GPa) = 39.68636 39.68636 124.29327
#
# Poissons Ratio (x) = 0.66764 0.27735
# Poissons Ratio (y) = 0.66764 0.27735
# Poissons Ratio (z) = 0.08856 0.08856
#
# Static dielectric constant tensor:
#      x y z
#    x 2.893140 0.000000 0.000000 
#    y 0.000000 2.893140 0.000000 
#    z 0.000000 0.000000 3.983900 
# 
# 
# High freq. dielectric constant tensor:
#      x y z
#    x 1.622340 0.000000 0.000000 
#    y 0.000000 1.622340 0.000000 
#    z 0.000000 0.000000 1.691570 
# 
# From -- ./inp_files/3869.got.cif
#   From: 2010.03.12/outbox.cif.g09.slc.cpg/sg191_2_cif.got.tgz:3869.got - 2010.04.01 12:09:02.
