data_PCOD8329553
_publ_section_title
;
Structure prediction by ZEFSAII (Michael W. Deem and Ramdas Pophale) SiO2 
 PCOD8329553
Probable space group: P 6/M C C
;
_chemical_formula_sum "Si O2"
_cell_formula_units_Z 144
_cell_length_a 32.341311
_cell_length_b 32.341311
_cell_length_c 8.601353
_cell_angle_alpha 90.000000
_cell_angle_beta 90.000000
_cell_angle_gamma 120.000000
_cell_volume 7791.348753
_symmetry_space_group_name_H-M "P 6/M C C"
_symmetry_group_IT_number 192
_symmetry_cell_setting 'hexagonal'
loop_
_space_group_symop_operation_xyz
x,y,z
x-y,x,z
-y,x-y,z
-x,-y,z
-x+y,-x,z
y,-x+y,z
x-y,-y,1/2-z
-x,-x+y,1/2-z
y,x,1/2-z
-y,-x,1/2-z
-x+y,y,1/2-z
x,x-y,1/2-z
-x,-y,-z
-x+y,-x,-z
y,-x+y,-z
x,y,-z
x-y,x,-z
-y,x-y,-z
-x+y,y,1/2+z
x,x-y,1/2+z
-y,-x,1/2+z
y,x,1/2+z
x-y,-y,1/2+z
-x,-x+y,1/2+z
loop_
_atom_site_type_symbol
_atom_site_label
_atom_site_fract_x
_atom_site_fract_y
_atom_site_fract_z
Si Si1 0.280912 0.380259 0.817275
Si Si2 0.190994 0.897079 0.816710
Si Si3 0.282715 0.475700 0.182848
Si Si4 0.191757 0.140613 0.684505
Si Si5 0.473321 0.616376 0.182255
Si Si6 0.617943 0.568482 0.316650
O O1 0.244640 0.333328 0.723675
O O2 0.272188 0.423315 0.766445
O O3 0.333698 0.392921 0.767977
O O4 0.273680 0.370141 0.000000
O O5 0.155453 0.844548 0.750000
O O6 0.180231 0.935931 0.740595
O O7 0.183709 0.896901 0.000000
O O8 0.242610 0.485220 0.250000
O O9 0.333259 0.515953 0.248706
O O10 0.283951 0.480461 0.000000
O O11 0.153187 0.153187 0.750000
O O12 0.177978 0.088989 0.750000
O O13 0.190373 0.139215 0.500000
O O14 0.423973 0.576028 0.250000
O O15 0.515231 0.605426 0.228831
O O16 0.468618 0.618418 0.000000
O O17 0.575236 0.575236 0.250000
O O18 0.623802 0.576926 0.500000
#
# Coordination Sequence:
#
# PCOD8329553 Si02
#       6
#    24  24  24  24  24  24
#     4  10  20  34  52  76 107 144 183 225 268 314
#     4  11  21  34  52  77 108 143 181 221 263 312
#     4  10  20  34  55  81 109 140 176 217 265 318
#     4  11  22  39  60  84 111 142 179 220 265 315
#     4  10  21  37  57  80 107 138 176 220 268 320
#     4  10  21  36  53  75 104 140 181 226 271 318
#
# _framework density 18.482036999999998
#
# number of rings (size 3 to 8) (size 9 to 14) (size 15 to 20)
#    0.000    1.667    0.000    6.500    0.000    6.333 
#    0.000    5.000    0.000    0.500    0.000    3.500 
#    0.000    0.000    0.000    0.000    0.000    0.000 
#
# Total GULP energy -1786398.143324 kJ/mol
# GULP energy per Si atom -12405.542662 kJ/mol
# Density = 1.843997 g / cm^3
# Si number density = 18.482037 Si / 1000 Ang^3
#
#
#
# Elastic Constant Matrix: (Units=GPa)
#
#
# Indices 1 2 3 4 5 6 
#
# 1 114.2601 63.2550 45.8430 0.0000 0.0000 0.0000
# 2 63.2550 114.2601 45.8430 0.0000 0.0000 0.0000
# 3 45.8430 45.8430 119.0046 0.0000 0.0000 0.0000
# 4 0.0000 0.0000 0.0000 32.3498 0.0000 0.0000
# 5 0.0000 0.0000 0.0000 0.0000 32.3498 0.0000
# 6 0.0000 0.0000 0.0000 0.0000 0.0000 25.5025
#
#
#
# Elastic Compliance Matrix: (Units=1/GPa)
#
#
# Indices 1 2 3 4 5 6 
#
# 1 0.013319 -0.006287 -0.002709 0.000000 0.000000 0.000000
# 2 -0.006287 0.013319 -0.002709 0.000000 0.000000 0.000000
# 3 -0.002709 -0.002709 0.010490 0.000000 0.000000 0.000000
# 4 0.000000 0.000000 0.000000 0.030912 0.000000 0.000000
# 5 0.000000 0.000000 0.000000 0.000000 0.030912 0.000000
# 6 0.000000 0.000000 0.000000 0.000000 0.000000 0.039212
#
#
# Mechanical properties :
#
#
# Convention : Reuss Voigt Hill
#
# Bulk Modulus (GPa) = 72.89161 73.04521 72.96841
# Shear Modulus (GPa) = 30.09376 30.87933 30.48655
#
# Velocity S-wave (km/s) = 4.03956 4.09195 4.06584
# Velocity P-wave (km/s) = 7.82829 7.86978 7.84906
#
# Compressibility (1/GPa) = 0.01371900
#
# Stress axis : x y z
#
# Youngs Moduli (GPa) = 75.07942 75.07942 95.32675
#
# Poissons Ratio (x) = 0.47200 0.25825
# Poissons Ratio (y) = 0.47200 0.25825
# Poissons Ratio (z) = 0.20340 0.20340
#
# Static dielectric constant tensor:
#      x y z
#    x 3.319190 0.000000 0.000000 
#    y 0.000000 3.319190 0.000000 
#    z 0.000000 0.000000 3.530120 
# 
# 
# High freq. dielectric constant tensor:
#      x y z
#    x 1.708910 0.000000 0.000000 
#    y 0.000000 1.708910 0.000000 
#    z 0.000000 0.000000 1.738360 
# 
# From -- ./inp_files/1144.got.cif
#   From: 2010.03.12/outbox.cif.g09.slc.cpg/sg192_1_cif.got.tgz:1144.got - 2010.04.01 12:16:15.
