data_PCOD8329747
_publ_section_title
;
Structure prediction by ZEFSAII (Michael W. Deem and Ramdas Pophale) SiO2 
 PCOD8329747
Probable space group: P 6/M C C
;
_chemical_formula_sum "Si O2"
_cell_formula_units_Z 192
_cell_length_a 22.704997
_cell_length_b 22.704997
_cell_length_c 29.269113
_cell_angle_alpha 90.000000
_cell_angle_beta 90.000000
_cell_angle_gamma 120.000000
_cell_volume 13067.216624
_symmetry_space_group_name_H-M "P 6/M C C"
_symmetry_group_IT_number 192
_symmetry_cell_setting 'hexagonal'
loop_
_space_group_symop_operation_xyz
x,y,z
x-y,x,z
-y,x-y,z
-x,-y,z
-x+y,-x,z
y,-x+y,z
x-y,-y,1/2-z
-x,-x+y,1/2-z
y,x,1/2-z
-y,-x,1/2-z
-x+y,y,1/2-z
x,x-y,1/2-z
-x,-y,-z
-x+y,-x,-z
y,-x+y,-z
x,y,-z
x-y,x,-z
-y,x-y,-z
-x+y,y,1/2+z
x,x-y,1/2+z
-y,-x,1/2+z
y,x,1/2+z
x-y,-y,1/2+z
-x,-x+y,1/2+z
loop_
_atom_site_type_symbol
_atom_site_label
_atom_site_fract_x
_atom_site_fract_y
_atom_site_fract_z
Si Si1 0.922968 0.392888 0.368764
Si Si2 0.384947 0.078964 0.051372
Si Si3 0.923170 0.846341 0.554523
Si Si4 0.530674 0.197750 0.803010
Si Si5 0.153014 0.846986 0.054246
Si Si6 0.607112 0.530080 0.868764
Si Si7 0.305983 0.384947 0.551372
Si Si8 0.469326 0.802250 0.303010
O O1 0.916672 0.458336 0.378922
O O2 0.903971 0.352150 0.416221
O O3 0.869829 0.346468 0.329918
O O4 1.000000 0.415215 0.352859
O O5 0.346584 0.116402 0.071556
O O6 0.448179 0.096029 0.083779
O O7 0.330032 0.000000 0.050958
O O8 0.413044 0.103995 0.000000
O O9 0.885071 0.885071 0.573156
O O10 0.922716 0.845432 0.500000
O O11 0.884997 0.769995 0.574683
O O12 0.476640 0.130171 0.829918
O O13 0.512277 0.182284 0.750000
O O14 0.607536 0.215071 0.812506
O O15 0.524398 0.262199 0.819328
O O16 0.230182 0.883598 0.071556
O O17 0.150381 0.849619 0.000000
O O18 0.309049 0.413044 0.500000
#
# Coordination Sequence:
#
# PCOD8329747 Si02
#       8
#    24  24  24  24  24  24  24  24
#     4   9  18  30  43  62  85 108 136 169 206 247
#     4   9  17  28  41  58  80 107 140 174 207 243
#     4   9  15  22  33  50  74 103 135 171 210 249
#     4   9  17  29  46  66  86 108 134 165 202 245
#     4   9  16  25  38  55  75 103 137 175 211 241
#     4   9  18  30  43  62  85 108 136 169 206 247
#     4   9  17  28  41  58  80 107 140 174 207 243
#     4   9  17  29  46  66  86 108 134 165 202 245
#
# _framework density 14.693258999999999
#
# number of rings (size 3 to 8) (size 9 to 14) (size 15 to 20)
#    0.000    3.000    0.000    1.125    1.750    5.500 
#    0.000    5.000    0.000    0.000    0.000    0.000 
#    0.000    0.000    0.000    0.000    0.000    0.000 
#
# Total GULP energy -2380353.735627 kJ/mol
# GULP energy per Si atom -12397.675706 kJ/mol
# Density = 1.465982 g / cm^3
# Si number density = 14.693259 Si / 1000 Ang^3
#
#
#
# Elastic Constant Matrix: (Units=GPa)
#
#
# Indices 1 2 3 4 5 6 
#
# 1 89.4505 53.4614 45.7457 0.0000 0.0000 0.0000
# 2 53.4614 89.4505 45.7457 0.0000 0.0000 0.0000
# 3 45.7457 45.7457 59.2649 0.0000 0.0000 0.0000
# 4 0.0000 0.0000 0.0000 17.1162 0.0000 0.0000
# 5 0.0000 0.0000 0.0000 0.0000 17.1162 0.0000
# 6 0.0000 0.0000 0.0000 0.0000 0.0000 17.9945
#
#
#
# Elastic Compliance Matrix: (Units=1/GPa)
#
#
# Indices 1 2 3 4 5 6 
#
# 1 0.020810 -0.006977 -0.010677 0.000000 0.000000 0.000000
# 2 -0.006977 0.020810 -0.010677 0.000000 0.000000 0.000000
# 3 -0.010677 -0.010677 0.033357 0.000000 0.000000 0.000000
# 4 0.000000 0.000000 0.000000 0.058424 0.000000 0.000000
# 5 0.000000 0.000000 0.000000 0.000000 0.058424 0.000000
# 6 0.000000 0.000000 0.000000 0.000000 0.000000 0.055573
#
#
# Mechanical properties :
#
#
# Convention : Reuss Voigt Hill
#
# Bulk Modulus (GPa) = 54.60594 58.67462 56.64028
# Shear Modulus (GPa) = 16.12046 16.65957 16.39002
#
# Velocity S-wave (km/s) = 3.31589 3.37088 3.34350
# Velocity P-wave (km/s) = 7.20450 7.42766 7.31693
#
# Compressibility (1/GPa) = 0.01831303
#
# Stress axis : x y z
#
# Youngs Moduli (GPa) = 48.05469 48.05469 29.97872
#
# Poissons Ratio (x) = 0.33526 0.32010
# Poissons Ratio (y) = 0.33526 0.32010
# Poissons Ratio (z) = 0.51310 0.51310
#
# Static dielectric constant tensor:
#      x y z
#    x 2.945810 0.000000 0.000000 
#    y 0.000000 2.945810 0.000000 
#    z 0.000000 0.000000 2.621710 
# 
# 
# High freq. dielectric constant tensor:
#      x y z
#    x 1.565780 0.000000 0.000000 
#    y 0.000000 1.565780 0.000000 
#    z 0.000000 0.000000 1.521940 
# 
# From -- ./inp_files/6162.got.cif
#   From: 2010.03.12/outbox.cif.g09.slc.cpg/sg192_4_cif.got.tgz:6162.got - 2010.04.01 12:16:15.
