data_PCOD8329788
_publ_section_title
;
Structure prediction by ZEFSAII (Michael W. Deem and Ramdas Pophale) SiO2 
 PCOD8329788
Probable space group: P 63/M C M
;
_chemical_formula_sum "Si O2"
_cell_formula_units_Z 96
_cell_length_a 29.790159
_cell_length_b 29.790159
_cell_length_c 7.695251
_cell_angle_alpha 90.000000
_cell_angle_beta 90.000000
_cell_angle_gamma 120.000000
_cell_volume 5914.241632
_symmetry_space_group_name_H-M "P 63/M C M"
_symmetry_group_IT_number 193
_symmetry_cell_setting 'hexagonal'
loop_
_space_group_symop_operation_xyz
x,y,z
x-y,x,1/2+z
-y,x-y,z
-x,-y,1/2+z
-x+y,-x,z
y,-x+y,1/2+z
x-y,-y,1/2-z
-x,-x+y,1/2-z
y,x,1/2-z
-y,-x,-z
-x+y,y,-z
x,x-y,-z
-x,-y,-z
-x+y,-x,1/2-z
y,-x+y,-z
x,y,1/2-z
x-y,x,-z
-y,x-y,1/2-z
-x+y,y,1/2+z
x,x-y,1/2+z
-y,-x,1/2+z
y,x,z
x-y,-y,z
-x,-x+y,z
loop_
_atom_site_type_symbol
_atom_site_label
_atom_site_fract_x
_atom_site_fract_y
_atom_site_fract_z
Si Si1 0.133763 0.762946 0.950285
Si Si2 0.380837 0.438356 0.250000
Si Si3 0.667948 0.725747 0.750000
Si Si4 0.666031 0.232350 0.450834
Si Si5 0.342766 0.870492 0.442308
O O1 0.118100 0.764089 0.750000
O O2 0.144825 0.716107 0.985942
O O3 0.185074 0.814927 0.000000
O O4 0.087480 0.756765 0.075607
O O5 0.430865 0.430865 0.250000
O O6 0.329642 0.383113 0.250000
O O7 0.382560 0.470171 0.421533
O O8 0.717991 0.717991 0.750000
O O9 0.722591 0.277410 0.500000
O O10 0.625202 0.250404 0.500000
O O11 0.663769 0.219151 0.250000
O O12 0.652990 0.180944 0.555544
O O13 0.358494 0.895165 0.250000
#
# Coordination Sequence:
#
# PCOD8329788 Si02
#       5
#    24  12  12  24  24
#     4  10  18  28  47  70  95 124 160 199 241 290
#     4   9  18  34  54  76 102 131 159 197 243 289
#     4   9  18  30  44  66  97 125 157 199 246 289
#     4  12  24  39  56  78 104 133 161 195 236 291
#     4  10  20  34  53  79 102 130 162 198 239 286
#
# _framework density 16.232004
#
# number of rings (size 3 to 8) (size 9 to 14) (size 15 to 20)
#    0.000    1.750    2.500    3.250    0.000    3.000 
#    0.000    5.000    0.000    0.750    0.000    0.000 
#    0.000    0.000    0.000    0.000    0.000    0.000 
#
# Total GULP energy -1190557.851581 kJ/mol
# GULP energy per Si atom -12401.644287 kJ/mol
# Density = 1.619506 g / cm^3
# Si number density = 16.232004 Si / 1000 Ang^3
#
#
#
# Elastic Constant Matrix: (Units=GPa)
#
#
# Indices 1 2 3 4 5 6 
#
# 1 60.0962 35.5245 34.5116 0.0000 0.0000 0.0000
# 2 35.5245 60.0962 34.5116 0.0000 0.0000 0.0000
# 3 34.5116 34.5116 131.3379 0.0000 0.0000 0.0000
# 4 0.0000 0.0000 0.0000 19.6057 0.0000 0.0000
# 5 0.0000 0.0000 0.0000 0.0000 19.6057 0.0000
# 6 0.0000 0.0000 0.0000 0.0000 0.0000 12.2859
#
#
#
# Elastic Compliance Matrix: (Units=1/GPa)
#
#
# Indices 1 2 3 4 5 6 
#
# 1 0.026802 -0.013896 -0.003391 0.000000 0.000000 0.000000
# 2 -0.013896 0.026802 -0.003391 0.000000 0.000000 0.000000
# 3 -0.003391 -0.003391 0.009396 0.000000 0.000000 0.000000
# 4 0.000000 0.000000 0.000000 0.051006 0.000000 0.000000
# 5 0.000000 0.000000 0.000000 0.000000 0.051006 0.000000
# 6 0.000000 0.000000 0.000000 0.000000 0.000000 0.081394
#
#
# Mechanical properties :
#
#
# Convention : Reuss Voigt Hill
#
# Bulk Modulus (GPa) = 46.20440 51.18065 48.69252
# Shear Modulus (GPa) = 16.95056 20.09830 18.52443
#
# Velocity S-wave (km/s) = 3.23502 3.52261 3.38187
# Velocity P-wave (km/s) = 6.51771 6.93860 6.73145
#
# Compressibility (1/GPa) = 0.02164296
#
# Stress axis : x y z
#
# Youngs Moduli (GPa) = 37.31121 37.31121 106.42591
#
# Poissons Ratio (x) = 0.51846 0.36092
# Poissons Ratio (y) = 0.51846 0.36092
# Poissons Ratio (z) = 0.12653 0.12653
#
# Static dielectric constant tensor:
#      x y z
#    x 2.922750 0.000000 0.000000 
#    y 0.000000 2.922750 0.000000 
#    z 0.000000 0.000000 3.399710 
# 
# 
# High freq. dielectric constant tensor:
#      x y z
#    x 1.591360 0.000000 0.000000 
#    y 0.000000 1.591360 0.000000 
#    z 0.000000 0.000000 1.651090 
# 
# From -- ./inp_files/1255.got.cif
#   From: 2010.03.12/outbox.cif.g09.slc.cpg/sg193_1_cif.got.tgz:1255.got - 2010.04.01 12:20:39.
