data_PCOD8329532
_publ_section_title
;
Structure prediction by ZEFSAII (Michael W. Deem and Ramdas Pophale) SiO2 
 PCOD8329532
Probable space group: P 6/M C C
;
_chemical_formula_sum "Si O2"
_cell_formula_units_Z 144
_cell_length_a 32.109884
_cell_length_b 32.109884
_cell_length_c 8.844051
_cell_angle_alpha 90.000000
_cell_angle_beta 90.000000
_cell_angle_gamma 120.000000
_cell_volume 7896.949182
_symmetry_space_group_name_H-M "P 6/M C C"
_symmetry_group_IT_number 192
_symmetry_cell_setting 'hexagonal'
loop_
_space_group_symop_operation_xyz
x,y,z
x-y,x,z
-y,x-y,z
-x,-y,z
-x+y,-x,z
y,-x+y,z
x-y,-y,1/2-z
-x,-x+y,1/2-z
y,x,1/2-z
-y,-x,1/2-z
-x+y,y,1/2-z
x,x-y,1/2-z
-x,-y,-z
-x+y,-x,-z
y,-x+y,-z
x,y,-z
x-y,x,-z
-y,x-y,-z
-x+y,y,1/2+z
x,x-y,1/2+z
-y,-x,1/2+z
y,x,1/2+z
x-y,-y,1/2+z
-x,-x+y,1/2+z
loop_
_atom_site_type_symbol
_atom_site_label
_atom_site_fract_x
_atom_site_fract_y
_atom_site_fract_z
Si Si1 0.713987 0.619024 0.176802
Si Si2 0.382936 0.854443 0.177943
Si Si3 0.475331 0.192936 0.177035
Si Si4 0.698864 0.805986 0.176789
Si Si5 0.048470 0.613648 0.322447
Si Si6 0.809988 0.861489 0.176971
O O1 0.727218 0.577871 0.211937
O O2 0.753827 0.668690 0.249456
O O3 0.663556 0.605663 0.251588
O O4 0.710563 0.626358 0.000000
O O5 0.421835 0.843669 0.250000
O O6 0.331839 0.816854 0.248152
O O7 0.396371 0.908644 0.219306
O O8 0.380816 0.846339 0.000000
O O9 0.480721 0.240361 0.250000
O O10 0.485491 0.200550 0.000000
O O11 0.682758 0.841379 0.250000
O O12 0.754331 0.824137 0.212021
O O13 0.687944 0.803178 0.000000
O O14 0.042211 0.615568 0.500000
O O15 0.000000 0.570646 0.250000
O O16 0.842087 0.842087 0.250000
O O17 0.825624 0.912812 0.250000
O O18 0.820098 0.868650 0.000000
#
# Coordination Sequence:
#
# PCOD8329532 Si02
#       6
#    24  24  24  24  24  24
#     4  10  20  33  51  75 106 143 181 222 265 310
#     4  10  21  37  57  80 106 137 174 218 266 318
#     4  10  20  34  54  80 108 139 175 216 263 315
#     4  10  20  33  50  74 105 140 178 218 259 306
#     4  10  21  36  53  74 103 139 180 224 268 314
#     4  10  21  37  57  80 106 137 173 213 257 306
#
# _framework density 18.23489
#
# number of rings (size 3 to 8) (size 9 to 14) (size 15 to 20)
#    0.000    2.000    0.000    3.500    0.000    8.333 
#    0.000    3.333    0.000    0.500    0.000    3.500 
#    0.000    0.000    0.000    0.000    0.000    0.000 
#
# Total GULP energy -1786393.195252 kJ/mol
# GULP energy per Si atom -12405.508300 kJ/mol
# Density = 1.819339 g / cm^3
# Si number density = 18.234890 Si / 1000 Ang^3
#
#
#
# Elastic Constant Matrix: (Units=GPa)
#
#
# Indices 1 2 3 4 5 6 
#
# 1 90.4796 46.0303 48.6133 0.0000 0.0000 0.0000
# 2 46.0303 90.4796 48.6133 0.0000 0.0000 0.0000
# 3 48.6133 48.6133 100.3332 0.0000 0.0000 0.0000
# 4 0.0000 0.0000 0.0000 34.4487 0.0000 0.0000
# 5 0.0000 0.0000 0.0000 0.0000 34.4487 0.0000
# 6 0.0000 0.0000 0.0000 0.0000 0.0000 22.2246
#
#
#
# Elastic Compliance Matrix: (Units=1/GPa)
#
#
# Indices 1 2 3 4 5 6 
#
# 1 0.016842 -0.005656 -0.005420 0.000000 0.000000 0.000000
# 2 -0.005656 0.016842 -0.005420 0.000000 0.000000 0.000000
# 3 -0.005420 -0.005420 0.015219 0.000000 0.000000 0.000000
# 4 0.000000 0.000000 0.000000 0.029029 0.000000 0.000000
# 5 0.000000 0.000000 0.000000 0.000000 0.029029 0.000000
# 6 0.000000 0.000000 0.000000 0.000000 0.000000 0.044995
#
#
# Mechanical properties :
#
#
# Convention : Reuss Voigt Hill
#
# Bulk Modulus (GPa) = 62.84876 63.08958 62.96917
# Shear Modulus (GPa) = 26.28147 27.42676 26.85412
#
# Velocity S-wave (km/s) = 3.80053 3.88246 3.84171
# Velocity P-wave (km/s) = 7.33483 7.40077 7.36787
#
# Compressibility (1/GPa) = 0.01591121
#
# Stress axis : x y z
#
# Youngs Moduli (GPa) = 59.37713 59.37713 65.70932
#
# Poissons Ratio (x) = 0.33584 0.35612
# Poissons Ratio (y) = 0.33584 0.35612
# Poissons Ratio (z) = 0.32180 0.32180
#
# Static dielectric constant tensor:
#      x y z
#    x 3.283760 0.000000 0.000000 
#    y 0.000000 3.283760 0.000000 
#    z 0.000000 0.000000 3.515160 
# 
# 
# High freq. dielectric constant tensor:
#      x y z
#    x 1.698580 0.000000 0.000000 
#    y 0.000000 1.698580 0.000000 
#    z 0.000000 0.000000 1.727400 
# 
# From -- ./inp_files/1127.got.cif
#   From: 2010.03.12/outbox.cif.g09.slc.cpg/sg192_1_cif.got.tgz:1127.got - 2010.04.01 12:16:15.
