data_PCOD8329270
_publ_section_title
;
Structure prediction by ZEFSAII (Michael W. Deem and Ramdas Pophale) SiO2 
 PCOD8329270
Probable space group: P 6/M M M
;
_chemical_formula_sum "Si O2"
_cell_formula_units_Z 156
_cell_length_a 21.055445
_cell_length_b 21.055445
_cell_length_c 22.841789
_cell_angle_alpha 90.000000
_cell_angle_beta 90.000000
_cell_angle_gamma 120.000000
_cell_volume 8769.798123
_symmetry_space_group_name_H-M "P 6/M M M"
_symmetry_group_IT_number 191
_symmetry_cell_setting 'hexagonal'
loop_
_space_group_symop_operation_xyz
x,y,z
x-y,x,z
-y,x-y,z
-x,-y,z
-x+y,-x,z
y,-x+y,z
x-y,-y,-z
-x,-x+y,-z
y,x,-z
-y,-x,-z
-x+y,y,-z
x,x-y,-z
-x,-y,-z
-x+y,-x,-z
y,-x+y,-z
x,y,-z
x-y,x,-z
-y,x-y,-z
-x+y,y,z
x,x-y,z
-y,-x,z
y,x,z
x-y,-y,z
-x,-x+y,z
loop_
_atom_site_type_symbol
_atom_site_label
_atom_site_fract_x
_atom_site_fract_y
_atom_site_fract_z
Si Si1 0.452178 0.301178 0.436221
Si Si2 0.335856 0.523902 0.681597
Si Si3 0.355422 0.440061 0.215414
Si Si4 0.780469 0.700529 0.750794
Si Si5 0.221202 0.919617 0.615747
Si Si6 0.083568 0.466506 0.000000
Si Si7 0.664337 0.183343 0.106968
O O1 0.474988 0.341090 0.500000
O O2 0.452226 0.226113 0.439707
O O3 0.507590 0.349429 0.385117
O O4 0.369924 0.282056 0.420843
O O5 0.252123 0.504246 0.693779
O O6 0.389721 0.610280 0.692556
O O7 0.359282 0.477572 0.722739
O O8 0.421947 0.421947 0.210639
O O9 0.278208 0.365351 0.209450
O O10 0.359405 0.495310 0.165893
O O11 0.861528 0.723056 0.772075
O O12 0.771769 0.771769 0.758870
O O13 0.766586 0.673838 0.683566
O O14 0.138786 0.861215 0.595941
O O15 0.232455 0.000000 0.604697
O O16 0.129487 0.465956 0.056296
O O17 0.077355 0.538678 0.000000
O O18 0.000000 0.396430 0.000000
O O19 0.604047 0.208093 0.094317
O O20 0.744305 0.255696 0.111656
#
# Coordination Sequence:
#
# PCOD8329270 Si02
#       7
#    24  24  24  24  24  12  24
#     4   9  18  32  49  68  91 121 158 201 247 297
#     4  11  22  36  53  73 100 130 164 206 257 317
#     4  11  22  35  53  75 100 133 173 218 263 306
#     4   9  16  28  47  70  95 123 158 199 245 295
#     4   9  16  28  47  69  93 121 156 198 244 295
#     4   9  19  36  56  78 106 139 174 212 252 298
#     4  11  22  36  55  78 107 140 177 218 262 312
#
# _framework density 17.788323999999999
#
# number of rings (size 3 to 8) (size 9 to 14) (size 15 to 20)
#    0.000    2.077    1.538    2.846    0.000    2.462 
#    0.000    2.308    0.000    1.231    0.000    4.308 
#    0.000    0.000    0.000    3.846    0.000    4.000 
#
# Total GULP energy -1933559.627494 kJ/mol
# GULP energy per Si atom -12394.612997 kJ/mol
# Density = 1.774784 g / cm^3
# Si number density = 17.788324 Si / 1000 Ang^3
#
#
#
# Elastic Constant Matrix: (Units=GPa)
#
#
# Indices 1 2 3 4 5 6 
#
# 1 87.1485 45.5609 30.3908 0.0000 0.0000 0.0000
# 2 45.5609 87.1485 30.3908 0.0000 0.0000 0.0000
# 3 30.3908 30.3908 70.0636 0.0000 0.0000 0.0000
# 4 0.0000 0.0000 0.0000 19.3160 0.0000 0.0000
# 5 0.0000 0.0000 0.0000 0.0000 19.3160 0.0000
# 6 0.0000 0.0000 0.0000 0.0000 0.0000 20.7938
#
#
#
# Elastic Compliance Matrix: (Units=1/GPa)
#
#
# Indices 1 2 3 4 5 6 
#
# 1 0.016724 -0.007321 -0.004079 0.000000 0.000000 0.000000
# 2 -0.007321 0.016724 -0.004079 0.000000 0.000000 0.000000
# 3 -0.004079 -0.004079 0.017811 0.000000 0.000000 0.000000
# 4 0.000000 0.000000 0.000000 0.051771 0.000000 0.000000
# 5 0.000000 0.000000 0.000000 0.000000 0.051771 0.000000
# 6 0.000000 0.000000 0.000000 0.000000 0.000000 0.048091
#
#
# Mechanical properties :
#
#
# Convention : Reuss Voigt Hill
#
# Bulk Modulus (GPa) = 49.25450 50.78284 50.01867
# Shear Modulus (GPa) = 20.77985 21.08636 20.93311
#
# Velocity S-wave (km/s) = 3.42156 3.44671 3.43416
# Velocity P-wave (km/s) = 6.58474 6.66709 6.62604
#
# Compressibility (1/GPa) = 0.02030271
#
# Stress axis : x y z
#
# Youngs Moduli (GPa) = 59.79255 59.79255 56.14446
#
# Poissons Ratio (x) = 0.43775 0.22900
# Poissons Ratio (y) = 0.43775 0.22900
# Poissons Ratio (z) = 0.24388 0.24388
#
# Static dielectric constant tensor:
#      x y z
#    x 3.230450 0.000000 0.000000 
#    y 0.000000 3.230450 0.000000 
#    z 0.000000 0.000000 3.405980 
# 
# 
# High freq. dielectric constant tensor:
#      x y z
#    x 1.673880 0.000000 0.000000 
#    y 0.000000 1.673880 0.000000 
#    z 0.000000 0.000000 1.679940 
# 
# From -- ./inp_files/7750.got.cif
#   From: 2010.03.12/outbox.cif.g09.slc.cpg/sg191_4_cif.got.tgz:7750.got - 2010.04.01 12:09:02.
