data_PCOD8329477
_publ_section_title
;
Structure prediction by ZEFSAII (Michael W. Deem and Ramdas Pophale) SiO2 
 PCOD8329477
Probable space group: P 6/M C C
;
_chemical_formula_sum "Si O2"
_cell_formula_units_Z 120
_cell_length_a 24.030728
_cell_length_b 24.030728
_cell_length_c 14.358650
_cell_angle_alpha 90.000000
_cell_angle_beta 90.000000
_cell_angle_gamma 120.000000
_cell_volume 7180.887067
_symmetry_space_group_name_H-M "P 6/M C C"
_symmetry_group_IT_number 192
_symmetry_cell_setting 'hexagonal'
loop_
_space_group_symop_operation_xyz
x,y,z
x-y,x,z
-y,x-y,z
-x,-y,z
-x+y,-x,z
y,-x+y,z
x-y,-y,1/2-z
-x,-x+y,1/2-z
y,x,1/2-z
-y,-x,1/2-z
-x+y,y,1/2-z
x,x-y,1/2-z
-x,-y,-z
-x+y,-x,-z
y,-x+y,-z
x,y,-z
x-y,x,-z
-y,x-y,-z
-x+y,y,1/2+z
x,x-y,1/2+z
-y,-x,1/2+z
y,x,1/2+z
x-y,-y,1/2+z
-x,-x+y,1/2+z
loop_
_atom_site_type_symbol
_atom_site_label
_atom_site_fract_x
_atom_site_fract_y
_atom_site_fract_z
Si Si1 0.102765 0.337924 0.750000
Si Si2 0.461959 0.538041 0.896522
Si Si3 0.748303 0.748303 0.896414
Si Si4 0.448119 0.076270 0.750000
Si Si5 0.126966 0.126966 0.140381
O O1 0.170006 0.340012 0.750000
O O2 0.063826 0.302387 0.657407
O O3 0.115233 0.410177 0.750000
O O4 0.063826 0.302387 0.842593
O O5 0.500000 0.500000 0.902246
O O6 0.395988 0.493342 0.841290
O O7 0.506658 0.604012 0.841291
O O8 0.446602 0.553398 0.000000
O O9 0.814297 0.814298 0.910027
O O10 0.721402 0.721402 0.000000
O O11 0.397381 0.000000 0.750000
O O12 0.123359 0.061680 0.108157
O O13 0.137902 0.137902 0.250000
#
# Coordination Sequence:
#
# PCOD8329477 Si02
#       5
#    24  24  24  24  24
#     4  11  22  37  53  73 104 140 177 221 260 306
#     4   8  15  27  50  77 103 130 155 189 238 291
#     4  11  23  37  52  68  93 133 177 216 268 333
#     4   9  16  31  48  74 104 131 167 201 236 291
#     4  10  19  33  51  68  84 106 149 215 283 336
#
# _framework density 16.711027000000001
#
# number of rings (size 3 to 8) (size 9 to 14) (size 15 to 20)
#    0.000    2.200    4.000    2.600    0.000    5.600 
#    0.000    0.000    0.000    1.200    0.000    0.000 
#    8.000    0.000    0.000    0.000    0.000    0.000 
#
# Total GULP energy -1487846.022287 kJ/mol
# GULP energy per Si atom -12398.716852 kJ/mol
# Density = 1.667299 g / cm^3
# Si number density = 16.711027 Si / 1000 Ang^3
#
#
#
# Elastic Constant Matrix: (Units=GPa)
#
#
# Indices 1 2 3 4 5 6 
#
# 1 93.2823 58.6588 47.3522 0.0000 0.0000 0.0000
# 2 58.6588 93.2823 47.3522 0.0000 0.0000 0.0000
# 3 47.3522 47.3522 148.6995 0.0000 0.0000 0.0000
# 4 0.0000 0.0000 0.0000 -2.1383 0.0000 0.0000
# 5 0.0000 0.0000 0.0000 0.0000 -2.1383 0.0000
# 6 0.0000 0.0000 0.0000 0.0000 0.0000 17.3118
#
#
#
# Elastic Compliance Matrix: (Units=1/GPa)
#
#
# Indices 1 2 3 4 5 6 
#
# 1 0.018547 -0.010335 -0.002615 0.000000 0.000000 0.000000
# 2 -0.010335 0.018547 -0.002615 0.000000 0.000000 0.000000
# 3 -0.002615 -0.002615 0.008390 0.000000 0.000000 0.000000
# 4 0.000000 0.000000 0.000000 -0.467658 0.000000 0.000000
# 5 0.000000 0.000000 0.000000 0.000000 -0.467658 0.000000
# 6 0.000000 0.000000 0.000000 0.000000 0.000000 0.057764
#
#
# Mechanical properties :
#
#
# Convention : Reuss Voigt Hill
#
# Bulk Modulus (GPa) = 69.66882 71.33229 70.50055
# Shear Modulus (GPa) = -6.28020 14.73374 4.22677
#
# Velocity S-wave (km/s) = -1.94069 2.97253 1.59211
# Velocity P-wave (km/s) = 6.06293 7.38645 6.75717
#
# Compressibility (1/GPa) = 0.01435362
#
# Stress axis : x y z
#
# Youngs Moduli (GPa) = 53.91791 53.91791 119.18494
#
# Poissons Ratio (x) = 0.55726 0.31165
# Poissons Ratio (y) = 0.55726 0.31165
# Poissons Ratio (z) = 0.14099 0.14099
#
# Static dielectric constant tensor:
#      x y z
#    x 2.958010 0.000000 0.000000 
#    y 0.000000 2.958010 0.000000 
#    z 0.000000 0.000000 3.478600 
# 
# 
# High freq. dielectric constant tensor:
#      x y z
#    x 1.616740 0.000000 0.000000 
#    y 0.000000 1.616740 0.000000 
#    z 0.000000 0.000000 1.655840 
# 
# From -- ./inp_files/3135.got.cif
#   From: 2010.03.12/outbox.cif.g09.slc.cpg/sg192_2_cif.got.tgz:3135.got - 2010.04.01 12:16:15.
