data_PCOD8329822
_publ_section_title
;
Structure prediction by ZEFSAII (Michael W. Deem and Ramdas Pophale) SiO2 
 PCOD8329822
Probable space group: P 63/M C M
;
_chemical_formula_sum "Si O2"
_cell_formula_units_Z 144
_cell_length_a 21.434424
_cell_length_b 21.434424
_cell_length_c 19.899965
_cell_angle_alpha 90.000000
_cell_angle_beta 90.000000
_cell_angle_gamma 120.000000
_cell_volume 7917.837402
_symmetry_space_group_name_H-M "P 63/M C M"
_symmetry_group_IT_number 193
_symmetry_cell_setting 'hexagonal'
loop_
_space_group_symop_operation_xyz
x,y,z
x-y,x,1/2+z
-y,x-y,z
-x,-y,1/2+z
-x+y,-x,z
y,-x+y,1/2+z
x-y,-y,1/2-z
-x,-x+y,1/2-z
y,x,1/2-z
-y,-x,-z
-x+y,y,-z
x,x-y,-z
-x,-y,-z
-x+y,-x,1/2-z
y,-x+y,-z
x,y,1/2-z
x-y,x,-z
-y,x-y,1/2-z
-x+y,y,1/2+z
x,x-y,1/2+z
-y,-x,1/2+z
y,x,z
x-y,-y,z
-x,-x+y,z
loop_
_atom_site_type_symbol
_atom_site_label
_atom_site_fract_x
_atom_site_fract_y
_atom_site_fract_z
Si Si1 0.914602 0.286564 0.938460
Si Si2 0.473897 0.085888 0.174712
Si Si3 0.277939 0.359704 0.587537
Si Si4 0.832123 0.913708 0.750000
Si Si5 0.081514 0.163027 0.500000
Si Si6 0.858671 0.123470 0.121263
Si Si7 0.085475 0.511981 0.568840
O O1 0.885444 0.220907 0.885134
O O2 0.887128 0.342099 0.919275
O O3 0.000000 0.324584 0.937255
O O4 0.883079 0.257579 0.013330
O O5 0.493131 0.118316 0.250000
O O6 0.428986 0.117889 0.136514
O O7 0.547204 0.111672 0.133127
O O8 0.427590 0.000000 0.178776
O O9 0.340174 0.340174 0.577743
O O10 0.208380 0.293220 0.620922
O O11 0.899094 0.899094 0.750000
O O12 0.781000 0.872589 0.687759
O O13 0.863934 0.000000 0.750000
O O14 0.112995 0.112995 0.525660
O O15 0.081598 0.212299 0.559888
O O16 0.116529 0.558265 0.500000
O O17 0.000000 0.469328 0.563347
#
# Coordination Sequence:
#
# PCOD8329822 Si02
#       7
#    24  24  24  12  12  24  24
#     4  10  18  32  53  75 105 140 175 221 278 344
#     4   9  17  28  46  75 107 135 168 208 250 309
#     4  10  18  31  52  77 105 137 175 222 284 351
#     4  12  27  46  62  76 102 148 208 268 332 400
#     4  12  23  38  58  78 100 132 188 256 316 370
#     4  12  24  38  56  80 109 142 186 244 312 376
#     4   9  15  27  48  73 102 138 171 196 238 309
#
# _framework density 18.186783999999999
#
# number of rings (size 3 to 8) (size 9 to 14) (size 15 to 20)
#    0.000    1.667    3.333    3.167    1.167    0.000 
#    1.500    1.667    0.000    0.000    0.000    0.000 
#    1.667    0.333    0.000    0.000    0.000    0.000 
#
# Total GULP energy -1785014.826293 kJ/mol
# GULP energy per Si atom -12395.936294 kJ/mol
# Density = 1.814539 g / cm^3
# Si number density = 18.186784 Si / 1000 Ang^3
#
#
#
# Elastic Constant Matrix: (Units=GPa)
#
#
# Indices 1 2 3 4 5 6 
#
# 1 86.3829 19.7983 39.1136 0.0000 0.0000 0.0000
# 2 19.7983 86.3829 39.1136 0.0000 0.0000 0.0000
# 3 39.1136 39.1136 130.3465 0.0000 0.0000 0.0000
# 4 0.0000 0.0000 0.0000 24.2091 0.0000 0.0000
# 5 0.0000 0.0000 0.0000 0.0000 24.2091 0.0000
# 6 0.0000 0.0000 0.0000 0.0000 0.0000 33.2923
#
#
#
# Elastic Compliance Matrix: (Units=1/GPa)
#
#
# Indices 1 2 3 4 5 6 
#
# 1 0.013555 -0.001464 -0.003628 0.000000 0.000000 0.000000
# 2 -0.001464 0.013555 -0.003628 0.000000 0.000000 0.000000
# 3 -0.003628 -0.003628 0.009849 0.000000 0.000000 0.000000
# 4 0.000000 0.000000 0.000000 0.041307 0.000000 0.000000
# 5 0.000000 0.000000 0.000000 0.000000 0.041307 0.000000
# 6 0.000000 0.000000 0.000000 0.000000 0.000000 0.030037
#
#
# Mechanical properties :
#
#
# Convention : Reuss Voigt Hill
#
# Bulk Modulus (GPa) = 51.23378 55.46259 53.34818
# Shear Modulus (GPa) = 28.80922 30.01455 29.41188
#
# Velocity S-wave (km/s) = 3.98436 4.06686 4.02582
# Velocity P-wave (km/s) = 7.02843 7.25360 7.14190
#
# Compressibility (1/GPa) = 0.01951837
#
# Stress axis : x y z
#
# Youngs Moduli (GPa) = 73.77535 73.77535 101.53012
#
# Poissons Ratio (x) = 0.10799 0.36837
# Poissons Ratio (y) = 0.10799 0.36837
# Poissons Ratio (z) = 0.26767 0.26767
#
# Static dielectric constant tensor:
#      x y z
#    x 3.209690 0.000000 0.000000 
#    y 0.000000 3.209690 0.000000 
#    z 0.000000 0.000000 3.210980 
# 
# 
# High freq. dielectric constant tensor:
#      x y z
#    x 1.679970 0.000000 0.000000 
#    y 0.000000 1.679970 0.000000 
#    z 0.000000 0.000000 1.703200 
# 
# From -- ./inp_files/6660.got.cif
#   From: 2010.03.12/outbox.cif.g09.slc.cpg/sg193_4_cif.got.tgz:6660.got - 2010.04.01 12:20:39.
