data_PCOD8329587
_publ_section_title
;
Structure prediction by ZEFSAII (Michael W. Deem and Ramdas Pophale) SiO2 
 PCOD8329587
Probable space group: P 6/M C C
;
_chemical_formula_sum "Si O2"
_cell_formula_units_Z 56
_cell_length_a 13.596014
_cell_length_b 13.596014
_cell_length_c 18.000508
_cell_angle_alpha 90.000000
_cell_angle_beta 90.000000
_cell_angle_gamma 120.000000
_cell_volume 2881.632540
_symmetry_space_group_name_H-M "P 6/M C C"
_symmetry_group_IT_number 192
_symmetry_cell_setting 'hexagonal'
loop_
_space_group_symop_operation_xyz
x,y,z
x-y,x,z
-y,x-y,z
-x,-y,z
-x+y,-x,z
y,-x+y,z
x-y,-y,1/2-z
-x,-x+y,1/2-z
y,x,1/2-z
-y,-x,1/2-z
-x+y,y,1/2-z
x,x-y,1/2-z
-x,-y,-z
-x+y,-x,-z
y,-x+y,-z
x,y,-z
x-y,x,-z
-y,x-y,-z
-x+y,y,1/2+z
x,x-y,1/2+z
-y,-x,1/2+z
y,x,1/2+z
x-y,-y,1/2+z
-x,-x+y,1/2+z
loop_
_atom_site_type_symbol
_atom_site_label
_atom_site_fract_x
_atom_site_fract_y
_atom_site_fract_z
Si Si1 0.056710 0.244901 0.088480
Si Si2 0.509939 0.620840 0.085183
Si Si3 0.333333 0.666666 0.662381
O O1 0.151215 0.217260 0.119785
O O2 0.085774 0.368704 0.116644
O O3 0.052948 0.241243 0.000000
O O4 0.500000 0.500000 0.092427
O O5 0.410658 0.616731 0.133897
O O6 0.494623 0.647282 0.000000
O O7 0.333334 0.666667 0.750000
#
# Coordination Sequence:
#
# PCOD8329587 Si02
#       3
#    24  24   8
#     4   9  16  27  47  77 109 138 171 219 279 336
#     4  10  20  36  58  81 107 143 190 238 280 330
#     4  12  25  38  55  81 115 149 181 225 283 350
#
# _framework density 19.433429
#
# number of rings (size 3 to 8) (size 9 to 14) (size 15 to 20)
#    0.000    2.143    0.000    4.286    0.000    9.429 
#    0.000    0.000    0.000    0.000    0.000    0.000 
#    0.000    3.429    0.000    0.000    0.000    0.000 
#
# Total GULP energy -694570.158537 kJ/mol
# GULP energy per Si atom -12403.038545 kJ/mol
# Density = 1.938920 g / cm^3
# Si number density = 19.433429 Si / 1000 Ang^3
#
#
#
# Elastic Constant Matrix: (Units=GPa)
#
#
# Indices 1 2 3 4 5 6 
#
# 1 115.0091 32.0553 38.3709 0.0000 0.0001 0.0001
# 2 32.0553 115.0099 38.3711 0.0000 0.0000 0.0000
# 3 38.3709 38.3711 65.0203 0.0001 0.0000 -0.0001
# 4 0.0000 0.0000 0.0001 9.0915 0.0000 0.0000
# 5 0.0001 0.0000 0.0000 0.0000 9.0915 0.0000
# 6 0.0001 0.0000 -0.0001 0.0000 0.0000 41.4770
#
#
#
# Elastic Compliance Matrix: (Units=1/GPa)
#
#
# Indices 1 2 3 4 5 6 
#
# 1 0.010940 -0.001115 -0.005798 0.000000 0.000000 0.000000
# 2 -0.001115 0.010940 -0.005798 0.000000 0.000000 0.000000
# 3 -0.005798 -0.005798 0.022223 0.000000 0.000000 0.000000
# 4 0.000000 0.000000 0.000000 0.109993 0.000000 0.000000
# 5 0.000000 0.000000 0.000000 0.000000 0.109993 0.000000
# 6 0.000000 0.000000 0.000000 0.000000 0.000000 0.024110
#
#
# Mechanical properties :
#
#
# Convention : Reuss Voigt Hill
#
# Bulk Modulus (GPa) = 53.53061 56.95931 55.24496
# Shear Modulus (GPa) = 15.63234 24.34811 19.99023
#
# Velocity S-wave (km/s) = 2.83928 3.54347 3.21074
# Velocity P-wave (km/s) = 6.19307 6.79082 6.49882
#
# Compressibility (1/GPa) = 0.01868090
#
# Stress axis : x y z
#
# Youngs Moduli (GPa) = 91.40613 91.40666 44.99742
#
# Poissons Ratio (x) = 0.10189 0.26091
# Poissons Ratio (y) = 0.10189 0.26091
# Poissons Ratio (z) = 0.53001 0.53001
#
# Static dielectric constant tensor:
#      x y z
#    x 3.731640 0.000000 0.000000 
#    y 0.000000 3.731650 0.000000 
#    z 0.000000 0.000000 3.005840 
# 
# 
# High freq. dielectric constant tensor:
#      x y z
#    x 1.777040 0.000000 0.000000 
#    y 0.000000 1.777040 0.000000 
#    z 0.000000 0.000000 1.687950 
# 
# From -- ./inp_files/2212.got.cif
#   From: 2010.03.12/outbox.cif.g09.slc.cpg/sg192_2_cif.got.tgz:2212.got - 2010.04.01 12:16:15.
