data_PCOD8329003
_publ_section_title
;
Structure prediction by ZEFSAII (Michael W. Deem and Ramdas Pophale) SiO2 
 PCOD8329003
Probable space group: P 6/M M M
;
_chemical_formula_sum "Si O2"
_cell_formula_units_Z 160
_cell_length_a 21.449130
_cell_length_b 21.449130
_cell_length_c 22.970938
_cell_angle_alpha 90.000000
_cell_angle_beta 90.000000
_cell_angle_gamma 120.000000
_cell_volume 9152.267902
_symmetry_space_group_name_H-M "P 6/M M M"
_symmetry_group_IT_number 191
_symmetry_cell_setting 'hexagonal'
loop_
_space_group_symop_operation_xyz
x,y,z
x-y,x,z
-y,x-y,z
-x,-y,z
-x+y,-x,z
y,-x+y,z
x-y,-y,-z
-x,-x+y,-z
y,x,-z
-y,-x,-z
-x+y,y,-z
x,x-y,-z
-x,-y,-z
-x+y,-x,-z
y,-x+y,-z
x,y,-z
x-y,x,-z
-y,x-y,-z
-x+y,y,z
x,x-y,z
-y,-x,z
y,x,z
x-y,-y,z
-x,-x+y,z
loop_
_atom_site_type_symbol
_atom_site_label
_atom_site_fract_x
_atom_site_fract_y
_atom_site_fract_z
Si Si1 0.219390 0.919627 0.432359
Si Si2 0.430316 0.083320 0.373932
Si Si3 0.811357 0.335250 0.851043
Si Si4 0.666667 0.333334 0.568851
Si Si5 0.920944 0.699145 0.167807
Si Si6 0.274174 0.402060 0.936147
Si Si7 0.415382 0.830763 0.430707
Si Si8 0.917287 0.576985 0.238700
O O1 0.235255 0.916359 0.500000
O O2 0.136030 0.863971 0.417115
O O3 0.269015 0.896638 0.397425
O O4 0.237138 0.000000 0.414672
O O5 0.504334 0.131447 0.406656
O O6 0.440015 0.101156 0.305988
O O7 0.404374 0.000000 0.386075
O O8 0.786879 0.393440 0.862889
O O9 0.741928 0.258073 0.838532
O O10 0.855329 0.332722 0.907188
O O11 0.864035 0.359534 0.795512
O O12 0.666667 0.333334 0.500000
O O13 0.625727 0.251453 0.591688
O O14 0.862578 0.725156 0.169137
O O15 0.922698 0.663563 0.106225
O O16 0.903075 0.641183 0.218948
O O17 0.000000 0.768587 0.176957
O O18 0.201544 0.403087 0.944234
O O19 0.301697 0.393369 0.000000
O O20 0.418013 0.836026 0.500000
O O21 0.000000 0.599738 0.225601
#
# Coordination Sequence:
#
# PCOD8329003 Si02
#       8
#    24  24  24   4  24  24  12  24
#     4   9  18  32  51  76 103 130 161 199 246 295
#     4  10  21  35  55  80 100 126 167 215 262 307
#     4  10  20  33  48  68  98 134 165 203 250 301
#     4   9  24  45  54  69 102 144 180 201 241 314
#     4   9  17  31  51  75 103 135 167 206 254 301
#     4   8  15  29  48  69  93 124 165 208 247 288
#     4  11  23  40  57  74 104 138 171 212 258 313
#     4   9  19  35  53  72  95 124 162 207 254 296
#
# _framework density 17.482005999999998
#
# number of rings (size 3 to 8) (size 9 to 14) (size 15 to 20)
#    0.000    2.700    0.000    2.175    2.100    3.300 
#    0.000    0.000    0.000    1.200    0.000    5.250 
#    0.000    0.000    0.000   11.250    0.000    3.900 
#
# Total GULP energy -1983570.688977 kJ/mol
# GULP energy per Si atom -12397.316806 kJ/mol
# Density = 1.744222 g / cm^3
# Si number density = 17.482006 Si / 1000 Ang^3
#
#
#
# Elastic Constant Matrix: (Units=GPa)
#
#
# Indices 1 2 3 4 5 6 
#
# 1 93.7786 48.6292 33.2464 0.0000 0.0000 0.0000
# 2 48.6292 93.7785 33.2463 0.0000 0.0000 0.0000
# 3 33.2464 33.2463 84.7270 0.0001 0.0000 0.0000
# 4 0.0000 0.0000 0.0001 17.1159 0.0000 0.0000
# 5 0.0000 0.0000 0.0000 0.0000 17.1159 0.0000
# 6 0.0000 0.0000 0.0000 0.0000 0.0000 22.5747
#
#
#
# Elastic Compliance Matrix: (Units=1/GPa)
#
#
# Indices 1 2 3 4 5 6 
#
# 1 0.015373 -0.006776 -0.003373 0.000000 0.000000 0.000000
# 2 -0.006776 0.015373 -0.003374 0.000000 0.000000 0.000000
# 3 -0.003373 -0.003374 0.014450 0.000000 0.000000 0.000000
# 4 0.000000 0.000000 0.000000 0.058425 0.000000 0.000000
# 5 0.000000 0.000000 0.000000 0.000000 0.058425 0.000000
# 6 0.000000 0.000000 0.000000 0.000000 0.000000 0.044297
#
#
# Mechanical properties :
#
#
# Convention : Reuss Voigt Hill
#
# Bulk Modulus (GPa) = 55.09473 55.83644 55.46559
# Shear Modulus (GPa) = 20.88212 21.83880 21.36046
#
# Velocity S-wave (km/s) = 3.45989 3.53826 3.49929
# Velocity P-wave (km/s) = 6.89526 6.97862 6.93707
#
# Compressibility (1/GPa) = 0.01815056
#
# Stress axis : x y z
#
# Youngs Moduli (GPa) = 65.04929 65.04916 69.20373
#
# Poissons Ratio (x) = 0.44076 0.23346
# Poissons Ratio (y) = 0.44076 0.23346
# Poissons Ratio (z) = 0.21944 0.21944
#
# Static dielectric constant tensor:
#      x y z
#    x 3.183510 0.000000 0.000000 
#    y 0.000000 3.183510 0.000000 
#    z 0.000000 0.000000 3.587160 
# 
# 
# High freq. dielectric constant tensor:
#      x y z
#    x 1.663740 0.000000 0.000000 
#    y 0.000000 1.663740 0.000000 
#    z 0.000000 0.000000 1.678830 
# 
# From -- ./inp_files/7766.got.cif
#   From: 2010.03.12/outbox.cif.g09.slc.cpg/sg191_4_cif.got.tgz:7766.got - 2010.04.01 12:09:02.
