data_PCOD8329120
_publ_section_title
;
Structure prediction by ZEFSAII (Michael W. Deem and Ramdas Pophale) SiO2 
 PCOD8329120
Probable space group: P 6/M M M
;
_chemical_formula_sum "Si O2"
_cell_formula_units_Z 138
_cell_length_a 30.016504
_cell_length_b 30.016504
_cell_length_c 8.383983
_cell_angle_alpha 90.000000
_cell_angle_beta 90.000000
_cell_angle_gamma 120.000000
_cell_volume 6541.859892
_symmetry_space_group_name_H-M "P 6/M M M"
_symmetry_group_IT_number 191
_symmetry_cell_setting 'hexagonal'
loop_
_space_group_symop_operation_xyz
x,y,z
x-y,x,z
-y,x-y,z
-x,-y,z
-x+y,-x,z
y,-x+y,z
x-y,-y,-z
-x,-x+y,-z
y,x,-z
-y,-x,-z
-x+y,y,-z
x,x-y,-z
-x,-y,-z
-x+y,-x,-z
y,-x+y,-z
x,y,-z
x-y,x,-z
-y,x-y,-z
-x+y,y,z
x,x-y,z
-y,-x,z
y,x,z
x-y,-y,z
-x,-x+y,z
loop_
_atom_site_type_symbol
_atom_site_label
_atom_site_fract_x
_atom_site_fract_y
_atom_site_fract_z
Si Si1 0.489198 0.612591 0.186837
Si Si2 0.366254 0.231981 0.683754
Si Si3 0.057558 0.793685 0.820689
Si Si4 0.333047 0.767747 0.688760
Si Si5 0.059066 0.940935 0.500000
Si Si6 0.655761 0.597550 0.687739
Si Si7 0.090530 0.909470 0.823828
O O1 0.440603 0.559398 0.244618
O O2 0.479853 0.659375 0.236363
O O3 0.538469 0.615878 0.272344
O O4 0.497621 0.613792 0.000000
O O5 0.381933 0.238640 0.500000
O O6 0.382953 0.191477 0.757848
O O7 0.305085 0.206571 0.699814
O O8 0.390341 0.288964 0.763826
O O9 0.062233 0.848512 0.814193
O O10 0.000000 0.751020 0.767819
O O11 0.069095 0.782223 0.000000
O O12 0.332174 0.772206 0.500000
O O13 0.378923 0.757845 0.743711
O O14 0.279411 0.720590 0.751900
O O15 0.073708 0.926293 0.667089
O O16 0.000000 0.917438 0.500000
O O17 0.661875 0.605979 0.500000
O O18 0.634014 0.634014 0.757049
O O19 0.076361 0.923640 0.000000
#
# Coordination Sequence:
#
# PCOD8329120 Si02
#       7
#    24  24  24  24   6  24  12
#     4  10  22  39  58  83 115 150 193 247 302 355
#     4  10  21  37  58  86 119 152 187 229 281 344
#     4  10  20  34  55  83 116 153 191 234 284 340
#     4   9  17  31  54  84 118 156 197 241 289 347
#     4  12  27  44  64  88 116 156 204 256 314 374
#     4  10  22  40  60  84 115 152 195 243 295 352
#     4  10  22  41  61  89 122 152 194 248 302 364
#
# _framework density 21.094919000000001
#
# number of rings (size 3 to 8) (size 9 to 14) (size 15 to 20)
#    0.000    2.087    0.870    1.783    1.217    6.261 
#    0.000    3.478    0.000    1.565    0.000    0.000 
#    0.000    0.000    0.000    0.000    0.000    0.000 
#
# Total GULP energy -1710136.218576 kJ/mol
# GULP energy per Si atom -12392.291439 kJ/mol
# Density = 2.104691 g / cm^3
# Si number density = 21.094919 Si / 1000 Ang^3
#
#
#
# Elastic Constant Matrix: (Units=GPa)
#
#
# Indices 1 2 3 4 5 6 
#
# 1 125.8997 64.3831 20.4378 0.0000 0.0000 0.0000
# 2 64.3831 125.8997 20.4378 0.0000 0.0000 0.0000
# 3 20.4378 20.4378 44.2276 0.0000 0.0000 0.0000
# 4 0.0000 0.0000 0.0000 23.0455 0.0000 0.0000
# 5 0.0000 0.0000 0.0000 0.0000 23.0455 0.0000
# 6 0.0000 0.0000 0.0000 0.0000 0.0000 30.7583
#
#
#
# Elastic Compliance Matrix: (Units=1/GPa)
#
#
# Indices 1 2 3 4 5 6 
#
# 1 0.011045 -0.005211 -0.002696 0.000000 0.000000 0.000000
# 2 -0.005211 0.011045 -0.002696 0.000000 0.000000 0.000000
# 3 -0.002696 -0.002696 0.025102 0.000000 0.000000 0.000000
# 4 0.000000 0.000000 0.000000 0.043392 0.000000 0.000000
# 5 0.000000 0.000000 0.000000 0.000000 0.043392 0.000000
# 6 0.000000 0.000000 0.000000 0.000000 0.000000 0.032512
#
#
# Mechanical properties :
#
#
# Convention : Reuss Voigt Hill
#
# Bulk Modulus (GPa) = 38.48144 56.28270 47.38207
# Shear Modulus (GPa) = 25.46384 28.08775 26.77579
#
# Velocity S-wave (km/s) = 3.47811 3.65292 3.56659
# Velocity P-wave (km/s) = 5.86612 6.67311 6.28259
#
# Compressibility (1/GPa) = 0.02598655
#
# Stress axis : x y z
#
# Youngs Moduli (GPa) = 90.53756 90.53756 39.83723
#
# Poissons Ratio (x) = 0.47176 0.10741
# Poissons Ratio (y) = 0.47176 0.10741
# Poissons Ratio (z) = 0.24410 0.24410
#
# Static dielectric constant tensor:
#      x y z
#    x 3.958320 0.000000 0.000000 
#    y 0.000000 3.958320 0.000000 
#    z 0.000000 0.000000 3.416690 
# 
# 
# High freq. dielectric constant tensor:
#      x y z
#    x 1.827740 0.000000 0.000000 
#    y 0.000000 1.827740 0.000000 
#    z 0.000000 0.000000 1.804990 
# 
# From -- ./inp_files/2038.got.cif
#   From: 2010.03.12/outbox.cif.g09.slc.cpg/sg191_2_cif.got.tgz:2038.got - 2010.04.01 12:09:02.
