data_PCOD8329092
_publ_section_title
;
Structure prediction by ZEFSAII (Michael W. Deem and Ramdas Pophale) SiO2 
 PCOD8329092
Probable space group: P 6/M M M
;
_chemical_formula_sum "Si O2"
_cell_formula_units_Z 120
_cell_length_a 17.914239
_cell_length_b 17.914239
_cell_length_c 27.016544
_cell_angle_alpha 90.000000
_cell_angle_beta 90.000000
_cell_angle_gamma 120.000000
_cell_volume 7508.568588
_symmetry_space_group_name_H-M "P 6/M M M"
_symmetry_group_IT_number 191
_symmetry_cell_setting 'hexagonal'
loop_
_space_group_symop_operation_xyz
x,y,z
x-y,x,z
-y,x-y,z
-x,-y,z
-x+y,-x,z
y,-x+y,z
x-y,-y,-z
-x,-x+y,-z
y,x,-z
-y,-x,-z
-x+y,y,-z
x,x-y,-z
-x,-y,-z
-x+y,-x,-z
y,-x+y,-z
x,y,-z
x-y,x,-z
-y,x-y,-z
-x+y,y,z
x,x-y,z
-y,-x,z
y,x,z
x-y,-y,z
-x,-x+y,z
loop_
_atom_site_type_symbol
_atom_site_label
_atom_site_fract_x
_atom_site_fract_y
_atom_site_fract_z
Si Si1 0.837147 0.504032 0.268467
Si Si2 0.166006 0.499443 0.058517
Si Si3 0.000000 0.174625 0.057345
Si Si4 0.000000 0.586814 0.797978
Si Si5 0.838892 0.506122 0.382239
Si Si6 0.000000 0.411130 0.444119
Si Si7 0.336123 0.336123 0.098664
O O1 0.757897 0.515794 0.252049
O O2 0.808898 0.404449 0.261367
O O3 0.916973 0.564851 0.234266
O O4 0.863778 0.531820 0.325142
O O5 0.251378 0.502756 0.080473
O O6 0.159180 0.579590 0.080906
O O7 0.083698 0.410743 0.072655
O O8 0.172446 0.506841 0.000000
O O9 0.000000 0.247069 0.092356
O O10 0.083484 0.166968 0.069524
O O11 0.000000 0.200139 0.000000
O O12 0.000000 0.500000 0.814654
O O13 0.000000 0.642180 0.844101
O O14 0.753738 0.507475 0.397570
O O15 0.821746 0.410873 0.392885
O O16 0.915804 0.576676 0.415811
O O17 0.000000 0.500000 0.442882
O O18 0.000000 0.380271 0.500000
#
# Coordination Sequence:
#
# PCOD8329092 Si02
#       7
#    24  24  12  12  24  12  12
#     4   9  17  30  48  67  86 112 149 191 230 266
#     4  10  20  34  51  70  93 122 155 189 225 267
#     4  10  21  38  59  80  99 119 145 180 224 273
#     4  10  21  34  46  64  93 125 152 182 225 272
#     4   9  16  27  44  64  85 112 150 193 230 263
#     4   9  17  27  38  56  86 121 150 177 216 264
#     4  12  22  33  50  73  98 123 152 186 224 269
#
# _framework density 15.981741
#
# number of rings (size 3 to 8) (size 9 to 14) (size 15 to 20)
#    0.000    2.300    0.000    3.700    0.000    9.600 
#    0.000    0.000    0.000    3.600    0.000    0.000 
#    0.000    0.000    0.000    0.300    0.000    9.800 
#
# Total GULP energy -1488154.663936 kJ/mol
# GULP energy per Si atom -12401.288866 kJ/mol
# Density = 1.594537 g / cm^3
# Si number density = 15.981741 Si / 1000 Ang^3
#
#
#
# Elastic Constant Matrix: (Units=GPa)
#
#
# Indices 1 2 3 4 5 6 
#
# 1 117.7972 63.4597 47.4583 0.0000 0.0000 0.0000
# 2 63.4597 117.7972 47.4583 0.0000 0.0000 0.0000
# 3 47.4583 47.4583 71.9438 0.0000 0.0000 0.0000
# 4 0.0000 0.0000 0.0000 38.6615 0.0000 0.0000
# 5 0.0000 0.0000 0.0000 0.0000 38.6615 0.0000
# 6 0.0000 0.0000 0.0000 0.0000 0.0000 27.1687
#
#
#
# Elastic Compliance Matrix: (Units=1/GPa)
#
#
# Indices 1 2 3 4 5 6 
#
# 1 0.013416 -0.004987 -0.005560 0.000000 0.000000 0.000000
# 2 -0.004987 0.013416 -0.005560 0.000000 0.000000 0.000000
# 3 -0.005560 -0.005560 0.021235 0.000000 0.000000 0.000000
# 4 0.000000 0.000000 0.000000 0.025866 0.000000 0.000000
# 5 0.000000 0.000000 0.000000 0.000000 0.025866 0.000000
# 6 0.000000 0.000000 0.000000 0.000000 0.000000 0.036807
#
#
# Mechanical properties :
#
#
# Convention : Reuss Voigt Hill
#
# Bulk Modulus (GPa) = 63.08216 69.36565 66.22390
# Shear Modulus (GPa) = 28.71845 30.84247 29.78046
#
# Velocity S-wave (km/s) = 4.24365 4.39778 4.32140
# Velocity P-wave (km/s) = 7.97298 8.32374 8.15025
#
# Compressibility (1/GPa) = 0.01585234
#
# Stress axis : x y z
#
# Youngs Moduli (GPa) = 74.53774 74.53774 47.09188
#
# Poissons Ratio (x) = 0.37176 0.26183
# Poissons Ratio (y) = 0.37176 0.26183
# Poissons Ratio (z) = 0.41443 0.41443
#
# Static dielectric constant tensor:
#      x y z
#    x 3.017540 0.000000 0.000000 
#    y 0.000000 3.017540 0.000000 
#    z 0.000000 0.000000 2.995710 
# 
# 
# High freq. dielectric constant tensor:
#      x y z
#    x 1.608940 0.000000 0.000000 
#    y 0.000000 1.608940 0.000000 
#    z 0.000000 0.000000 1.603290 
# 
# From -- ./inp_files/8659.got.cif
#   From: 2010.03.12/outbox.cif.g09.slc.cpg/sg191_5_cif.got.tgz:8659.got - 2010.04.01 12:09:02.
