data_PCOD8329625
_publ_section_title
;
Structure prediction by ZEFSAII (Michael W. Deem and Ramdas Pophale) SiO2 
 PCOD8329625
Probable space group: P 6/M C C
;
_chemical_formula_sum "Si O2"
_cell_formula_units_Z 192
_cell_length_a 29.173783
_cell_length_b 29.173783
_cell_length_c 14.571778
_cell_angle_alpha 90.000000
_cell_angle_beta 90.000000
_cell_angle_gamma 120.000000
_cell_volume 10740.603251
_symmetry_space_group_name_H-M "P 6/M C C"
_symmetry_group_IT_number 192
_symmetry_cell_setting 'hexagonal'
loop_
_space_group_symop_operation_xyz
x,y,z
x-y,x,z
-y,x-y,z
-x,-y,z
-x+y,-x,z
y,-x+y,z
x-y,-y,1/2-z
-x,-x+y,1/2-z
y,x,1/2-z
-y,-x,1/2-z
-x+y,y,1/2-z
x,x-y,1/2-z
-x,-y,-z
-x+y,-x,-z
y,-x+y,-z
x,y,-z
x-y,x,-z
-y,x-y,-z
-x+y,y,1/2+z
x,x-y,1/2+z
-y,-x,1/2+z
y,x,1/2+z
x-y,-y,1/2+z
-x,-x+y,1/2+z
loop_
_atom_site_type_symbol
_atom_site_label
_atom_site_fract_x
_atom_site_fract_y
_atom_site_fract_z
Si Si1 0.617296 0.679436 0.249470
Si Si2 0.457442 0.136893 0.602852
Si Si3 0.141360 0.279239 0.396076
Si Si4 0.767526 0.328109 0.890595
Si Si5 0.316611 0.452982 0.101941
Si Si6 0.772131 0.338580 0.390954
Si Si7 0.397938 0.200455 0.859581
Si Si8 0.062543 0.787216 0.751193
O O1 0.643024 0.643024 0.250000
O O2 0.579573 0.664755 0.161632
O O3 0.578951 0.663058 0.337112
O O4 0.662597 0.741522 0.247191
O O5 0.456088 0.116600 0.500000
O O6 0.517901 0.170654 0.639654
O O7 0.436953 0.178272 0.605501
O O8 0.128951 0.255245 0.500000
O O9 0.180786 0.341239 0.403150
O O10 0.173396 0.257637 0.336240
O O11 0.086907 0.266330 0.344719
O O12 0.821667 0.331575 0.854518
O O13 0.766446 0.379303 0.852596
O O14 0.716277 0.275883 0.850949
O O15 0.767345 0.326491 0.000000
O O16 0.254019 0.418304 0.096973
O O17 0.340672 0.459171 0.000000
O O18 0.768171 0.336468 0.500000
O O19 0.394447 0.197224 0.750000
O O20 0.000000 0.762136 0.750000
#
# Coordination Sequence:
#
# PCOD8329625 Si02
#       8
#    24  24  24  24  24  24  24  24
#     4  11  23  37  52  74 103 132 169 221 271 309
#     4  11  20  33  54  76 101 135 173 212 254 306
#     4  11  19  32  53  75 104 143 179 220 265 310
#     4   9  17  29  49  78 109 136 162 198 251 316
#     4  11  20  33  54  76 101 135 173 212 254 306
#     4   9  17  29  49  78 109 136 162 198 251 316
#     4  12  18  31  51  76 105 137 176 217 253 300
#     4  10  21  35  48  74 109 140 177 222 269 315
#
# _framework density 17.876090999999999
#
# number of rings (size 3 to 8) (size 9 to 14) (size 15 to 20)
#    0.000    1.500    6.250    1.375    0.000    2.000 
#    0.000    3.125    0.000    1.500    0.000    5.250 
#    0.000    0.000    0.000   12.000    0.000   26.000 
#
# Total GULP energy -2380082.320596 kJ/mol
# GULP energy per Si atom -12396.262086 kJ/mol
# Density = 1.783540 g / cm^3
# Si number density = 17.876091 Si / 1000 Ang^3
#
#
#
# Elastic Constant Matrix: (Units=GPa)
#
#
# Indices 1 2 3 4 5 6 
#
# 1 94.4328 43.5750 34.5978 0.0000 0.0000 0.0000
# 2 43.5750 94.4328 34.5978 0.0000 0.0000 0.0000
# 3 34.5978 34.5978 107.2288 0.0000 0.0000 0.0000
# 4 0.0000 0.0000 0.0000 252.2126 0.0000 0.0000
# 5 0.0000 0.0000 0.0000 0.0000 252.2126 0.0000
# 6 0.0000 0.0000 0.0000 0.0000 0.0000 25.4289
#
#
#
# Elastic Compliance Matrix: (Units=1/GPa)
#
#
# Indices 1 2 3 4 5 6 
#
# 1 0.014154 -0.005509 -0.002789 0.000000 0.000000 0.000000
# 2 -0.005509 0.014154 -0.002789 0.000000 0.000000 0.000000
# 3 -0.002789 -0.002789 0.011126 0.000000 0.000000 0.000000
# 4 0.000000 0.000000 0.000000 0.003965 0.000000 0.000000
# 5 0.000000 0.000000 0.000000 0.000000 0.003965 0.000000
# 6 0.000000 0.000000 0.000000 0.000000 0.000000 0.039325
#
#
# Mechanical properties :
#
#
# Convention : Reuss Voigt Hill
#
# Bulk Modulus (GPa) = 57.94437 57.95950 57.95193
# Shear Modulus (GPa) = 43.62411 118.19241 80.90826
#
# Velocity S-wave (km/s) = 4.94536 8.14009 6.73490
# Velocity P-wave (km/s) = 8.06806 10.99279 9.64197
#
# Compressibility (1/GPa) = 0.01725793
#
# Stress axis : x y z
#
# Youngs Moduli (GPa) = 70.65365 70.65365 89.88179
#
# Poissons Ratio (x) = 0.38924 0.25069
# Poissons Ratio (y) = 0.38924 0.25069
# Poissons Ratio (z) = 0.19706 0.19706
#
# Static dielectric constant tensor:
#      x y z
#    x 3.176920 0.000000 0.000000 
#    y 0.000000 3.176920 0.000000 
#    z 0.000000 0.000000 6.357000 
# 
# 
# High freq. dielectric constant tensor:
#      x y z
#    x 1.668170 0.000000 0.000000 
#    y 0.000000 1.668170 0.000000 
#    z 0.000000 0.000000 1.697560 
# 
# From -- ./inp_files/3582.got.cif
#   From: 2010.03.12/outbox.cif.g09.slc.cpg/sg192_2_cif.got.tgz:3582.got - 2010.04.01 12:16:15.
