data_PCOD8329412
_publ_section_title
;
Structure prediction by ZEFSAII (Michael W. Deem and Ramdas Pophale) SiO2 
 PCOD8329412
Probable space group: P 6/M C C
;
_chemical_formula_sum "Si O2"
_cell_formula_units_Z 104
_cell_length_a 26.596553
_cell_length_b 26.596553
_cell_length_c 15.333816
_cell_angle_alpha 90.000000
_cell_angle_beta 90.000000
_cell_angle_gamma 120.000000
_cell_volume 9393.589722
_symmetry_space_group_name_H-M "P 6/M C C"
_symmetry_group_IT_number 192
_symmetry_cell_setting 'hexagonal'
loop_
_space_group_symop_operation_xyz
x,y,z
x-y,x,z
-y,x-y,z
-x,-y,z
-x+y,-x,z
y,-x+y,z
x-y,-y,1/2-z
-x,-x+y,1/2-z
y,x,1/2-z
-y,-x,1/2-z
-x+y,y,1/2-z
x,x-y,1/2-z
-x,-y,-z
-x+y,-x,-z
y,-x+y,-z
x,y,-z
x-y,x,-z
-y,x-y,-z
-x+y,y,1/2+z
x,x-y,1/2+z
-y,-x,1/2+z
y,x,1/2+z
x-y,-y,1/2+z
-x,-x+y,1/2+z
loop_
_atom_site_type_symbol
_atom_site_label
_atom_site_fract_x
_atom_site_fract_y
_atom_site_fract_z
Si Si1 0.064331 0.591545 0.000000
Si Si2 0.463055 0.731529 0.396500
Si Si3 0.527215 0.935673 0.500000
Si Si4 0.516420 0.367770 0.848588
Si Si5 0.666668 0.333334 0.896323
Si Si6 0.632230 0.483577 0.848585
O O1 0.058231 0.529116 0.000000
O O2 0.098270 0.626040 0.086764
O O3 0.000002 0.583917 0.000000
O O4 0.464934 0.732461 0.500000
O O5 0.493534 0.796825 0.360444
O O6 0.398044 0.699033 0.359328
O O7 0.493526 0.696708 0.360430
O O8 0.527772 0.901736 0.586764
O O9 0.583165 0.416834 0.871260
O O10 0.500666 0.375526 0.750001
O O11 0.666667 0.333334 0.000000
#
# Coordination Sequence:
#
# PCOD8329412 Si02
#       6
#    12  24  12  24   8  24
#     4   9  18  31  42  50  62  81 107 137 160 178
#     4  11  17  27  39  52  73  91 105 124 153 193
#     4   9  18  31  42  50  62  81 107 137 160 178
#     4  10  19  28  39  54  69  86 106 127 155 190
#     4   9  18  21  37  53  64  94 110 118 148 191
#     4  10  19  28  39  54  69  86 106 127 155 190
#
# _framework density 11.07138
#
# number of rings (size 3 to 8) (size 9 to 14) (size 15 to 20)
#    0.000    2.077    4.615    0.692    0.000    0.923 
#    0.000    4.615    0.000    0.000    0.000    0.000 
#    0.000    0.000    0.000    0.000    0.000    0.000 
#
# Total GULP energy -1289398.766448 kJ/mol
# GULP energy per Si atom -12398.065062 kJ/mol
# Density = 1.104618 g / cm^3
# Si number density = 11.071380 Si / 1000 Ang^3
#
#
#
# Elastic Constant Matrix: (Units=GPa)
#
#
# Indices 1 2 3 4 5 6 
#
# 1 49.1622 30.9615 27.9354 0.0000 0.0000 0.0000
# 2 30.9615 49.1624 27.9353 0.0000 0.0000 0.0000
# 3 27.9354 27.9353 84.2762 -0.0001 0.0000 0.0000
# 4 0.0000 0.0000 -0.0001 9.1880 0.0000 0.0000
# 5 0.0000 0.0000 0.0000 0.0000 9.1879 0.0000
# 6 0.0000 0.0000 0.0000 0.0000 0.0000 9.1004
#
#
#
# Elastic Compliance Matrix: (Units=1/GPa)
#
#
# Indices 1 2 3 4 5 6 
#
# 1 0.035588 -0.019355 -0.005381 0.000000 0.000000 0.000000
# 2 -0.019355 0.035588 -0.005381 0.000000 0.000000 0.000000
# 3 -0.005381 -0.005381 0.015433 0.000000 0.000000 0.000000
# 4 0.000000 0.000000 0.000000 0.108838 0.000000 0.000000
# 5 0.000000 0.000000 0.000000 0.000000 0.108838 0.000000
# 6 0.000000 0.000000 0.000000 0.000000 0.000000 0.109885
#
#
# Mechanical properties :
#
#
# Convention : Reuss Voigt Hill
#
# Bulk Modulus (GPa) = 37.91410 39.58501 38.74956
# Shear Modulus (GPa) = 10.34780 11.87983 11.11382
#
# Velocity S-wave (km/s) = 3.06051 3.27925 3.17177
# Velocity P-wave (km/s) = 6.84167 7.08308 6.96342
#
# Compressibility (1/GPa) = 0.02637541
#
# Stress axis : x y z
#
# Youngs Moduli (GPa) = 28.09952 28.09968 64.79670
#
# Poissons Ratio (x) = 0.54387 0.34865
# Poissons Ratio (y) = 0.54387 0.34865
# Poissons Ratio (z) = 0.15120 0.15120
#
# Static dielectric constant tensor:
#      x y z
#    x 2.182860 0.000000 0.000000 
#    y 0.000000 2.182860 0.000000 
#    z 0.000000 0.000000 2.469930 
# 
# 
# High freq. dielectric constant tensor:
#      x y z
#    x 1.376430 0.000000 0.000000 
#    y 0.000000 1.376430 0.000000 
#    z 0.000000 0.000000 1.438000 
# 
# From -- ./inp_files/3096.got.cif
#   From: 2010.03.12/outbox.cif.g09.slc.cpg/sg192_2_cif.got.tgz:3096.got - 2010.04.01 12:16:15.
