data_PCOD8329960
_publ_section_title
;
Structure prediction by ZEFSAII (Michael W. Deem and Ramdas Pophale) SiO2 
 PCOD8329960
Probable space group: P 63/M C M
;
_chemical_formula_sum "Si O2"
_cell_formula_units_Z 96
_cell_length_a 28.172402
_cell_length_b 28.172402
_cell_length_c 8.803192
_cell_angle_alpha 90.000000
_cell_angle_beta 90.000000
_cell_angle_gamma 120.000000
_cell_volume 6050.880268
_symmetry_space_group_name_H-M "P 63/M C M"
_symmetry_group_IT_number 193
_symmetry_cell_setting 'hexagonal'
loop_
_space_group_symop_operation_xyz
x,y,z
x-y,x,1/2+z
-y,x-y,z
-x,-y,1/2+z
-x+y,-x,z
y,-x+y,1/2+z
x-y,-y,1/2-z
-x,-x+y,1/2-z
y,x,1/2-z
-y,-x,-z
-x+y,y,-z
x,x-y,-z
-x,-y,-z
-x+y,-x,1/2-z
y,-x+y,-z
x,y,1/2-z
x-y,x,-z
-y,x-y,1/2-z
-x+y,y,1/2+z
x,x-y,1/2+z
-y,-x,1/2+z
y,x,z
x-y,-y,z
-x,-x+y,z
loop_
_atom_site_type_symbol
_atom_site_label
_atom_site_fract_x
_atom_site_fract_y
_atom_site_fract_z
Si Si1 0.396225 0.396225 0.070120
Si Si2 0.822198 0.548581 0.428207
Si Si3 0.891376 0.395114 0.571287
Si Si4 0.787273 0.674327 0.569350
Si Si5 0.707742 0.707742 0.069060
O O1 0.385102 0.385102 0.250000
O O2 0.402001 0.453216 0.017828
O O3 0.346576 0.346576 0.984350
O O4 0.762642 0.525284 0.500000
O O5 0.815689 0.546468 0.250000
O O6 0.844654 0.509237 0.484564
O O7 0.863520 0.611015 0.478510
O O8 0.879710 0.439855 0.500000
O O9 0.890993 0.400973 0.750000
O O10 0.847645 0.695290 0.500000
O O11 0.791449 0.682282 0.750000
O O12 0.761745 0.708782 0.495909
O O13 0.710073 0.710073 0.250000
#
# Coordination Sequence:
#
# PCOD8329960 Si02
#       5
#    12  24  24  24  12
#     4  10  19  35  49  64  98 134 160 197 247 291
#     4   9  18  32  50  69  91 118 151 192 242 293
#     4  10  20  33  49  69  94 125 156 194 247 298
#     4  10  19  34  52  72 100 132 167 207 247 289
#     4  12  22  31  49  76 103 136 175 207 244 291
#
# _framework density 15.865460000000001
#
# number of rings (size 3 to 8) (size 9 to 14) (size 15 to 20)
#    0.000    2.000    2.500    2.250    0.000    3.000 
#    0.000    0.000    0.000    0.500    0.000    0.000 
#    0.000    0.000    0.000    0.375    0.000    5.250 
#
# Total GULP energy -1190450.409669 kJ/mol
# GULP energy per Si atom -12400.525101 kJ/mol
# Density = 1.582935 g / cm^3
# Si number density = 15.865460 Si / 1000 Ang^3
#
#
#
# Elastic Constant Matrix: (Units=GPa)
#
#
# Indices 1 2 3 4 5 6 
#
# 1 144.4882 50.8528 41.1899 0.0000 0.0000 0.0000
# 2 50.8528 144.4882 41.1899 0.0000 0.0000 0.0000
# 3 41.1899 41.1899 57.4356 0.0000 0.0000 0.0000
# 4 0.0000 0.0000 0.0000 26.8495 0.0000 0.0000
# 5 0.0000 0.0000 0.0000 0.0000 26.8495 0.0000
# 6 0.0000 0.0000 0.0000 0.0000 0.0000 46.8177
#
#
#
# Elastic Compliance Matrix: (Units=1/GPa)
#
#
# Indices 1 2 3 4 5 6 
#
# 1 0.009009 -0.001670 -0.005263 0.000000 0.000000 0.000000
# 2 -0.001670 0.009009 -0.005263 0.000000 0.000000 0.000000
# 3 -0.005263 -0.005263 0.024960 0.000000 0.000000 0.000000
# 4 0.000000 0.000000 0.000000 0.037245 0.000000 0.000000
# 5 0.000000 0.000000 0.000000 0.000000 0.037245 0.000000
# 6 0.000000 0.000000 0.000000 0.000000 0.000000 0.021359
#
#
# Mechanical properties :
#
#
# Convention : Reuss Voigt Hill
#
# Bulk Modulus (GPa) = 53.80659 68.09745 60.95202
# Shear Modulus (GPa) = 29.51336 34.31530 31.91433
#
# Velocity S-wave (km/s) = 4.31771 4.65574 4.48991
# Velocity P-wave (km/s) = 7.67104 8.48034 8.08582
#
# Compressibility (1/GPa) = 0.01858508
#
# Stress axis : x y z
#
# Youngs Moduli (GPa) = 110.99709 110.99709 40.06488
#
# Poissons Ratio (x) = 0.18542 0.21086
# Poissons Ratio (y) = 0.18542 0.21086
# Poissons Ratio (z) = 0.58418 0.58418
#
# Static dielectric constant tensor:
#      x y z
#    x 3.068410 0.000000 0.000000 
#    y 0.000000 3.068410 0.000000 
#    z 0.000000 0.000000 2.973700 
# 
# 
# High freq. dielectric constant tensor:
#      x y z
#    x 1.595390 0.000000 0.000000 
#    y 0.000000 1.595390 0.000000 
#    z 0.000000 0.000000 1.612180 
# 
# From -- ./inp_files/1270.got.cif
#   From: 2010.03.12/outbox.cif.g09.slc.cpg/sg193_1_cif.got.tgz:1270.got - 2010.04.01 12:20:39.
