data_PCOD8329224
_publ_section_title
;
Structure prediction by ZEFSAII (Michael W. Deem and Ramdas Pophale) SiO2 
 PCOD8329224
Probable space group: P 6/M M M
;
_chemical_formula_sum "Si O2"
_cell_formula_units_Z 144
_cell_length_a 21.305753
_cell_length_b 21.305753
_cell_length_c 19.950406
_cell_angle_alpha 90.000000
_cell_angle_beta 90.000000
_cell_angle_gamma 120.000000
_cell_volume 7842.890394
_symmetry_space_group_name_H-M "P 6/M M M"
_symmetry_group_IT_number 191
_symmetry_cell_setting 'hexagonal'
loop_
_space_group_symop_operation_xyz
x,y,z
x-y,x,z
-y,x-y,z
-x,-y,z
-x+y,-x,z
y,-x+y,z
x-y,-y,-z
-x,-x+y,-z
y,x,-z
-y,-x,-z
-x+y,y,-z
x,x-y,-z
-x,-y,-z
-x+y,-x,-z
y,-x+y,-z
x,y,-z
x-y,x,-z
-y,x-y,-z
-x+y,y,z
x,x-y,z
-y,-x,z
y,x,z
x-y,-y,z
-x,-x+y,z
loop_
_atom_site_type_symbol
_atom_site_label
_atom_site_fract_x
_atom_site_fract_y
_atom_site_fract_z
Si Si1 0.298133 0.218428 0.884392
Si Si2 0.436710 0.082160 0.924695
Si Si3 0.476687 0.812817 0.808708
Si Si4 0.078858 0.782810 0.729827
Si Si5 0.564968 0.648586 0.687866
Si Si6 0.190550 0.523674 0.576799
O O1 0.274119 0.137060 0.906725
O O2 0.229783 0.229783 0.897448
O O3 0.366747 0.274699 0.926741
O O4 0.322503 0.232360 0.806761
O O5 0.497394 0.142498 0.877732
O O6 0.412062 0.000000 0.900176
O O7 0.468186 0.094242 0.000000
O O8 0.390463 0.780926 0.802545
O O9 0.493334 0.746667 0.806925
O O10 0.515755 0.868850 0.748873
O O11 0.136661 0.863340 0.706700
O O12 0.087008 0.725371 0.685003
O O13 0.000000 0.774289 0.719628
O O14 0.583697 0.583697 0.694516
O O15 0.523719 0.641315 0.618795
O O16 0.171972 0.498573 0.500000
O O17 0.256436 0.512871 0.603075
O O18 0.216353 0.608177 0.584432
#
# Coordination Sequence:
#
# PCOD8329224 Si02
#       6
#    24  24  24  24  24  24
#     4   9  16  28  47  71  98 128 164 206 252 302
#     4  10  21  37  57  80 103 129 166 216 272 321
#     4  12  25  40  57  77 104 138 176 216 260 315
#     4   9  16  28  48  73 100 130 166 208 253 302
#     4  11  22  36  56  81 107 137 175 221 271 316
#     4  10  21  37  57  80 108 143 181 219 260 311
#
# _framework density 18.360578
#
# number of rings (size 3 to 8) (size 9 to 14) (size 15 to 20)
#    0.000    1.833    1.667    3.333    0.000    5.000 
#    0.000    3.333    0.000    1.333    0.000    2.333 
#    0.000    0.000    0.000    4.167    0.000    4.333 
#
# Total GULP energy -1785401.022670 kJ/mol
# GULP energy per Si atom -12398.618213 kJ/mol
# Density = 1.831879 g / cm^3
# Si number density = 18.360578 Si / 1000 Ang^3
#
#
#
# Elastic Constant Matrix: (Units=GPa)
#
#
# Indices 1 2 3 4 5 6 
#
# 1 100.5305 50.1091 39.8219 0.0000 0.0000 0.0000
# 2 50.1091 100.5305 39.8219 0.0000 0.0000 0.0000
# 3 39.8219 39.8219 79.6151 0.0000 0.0000 0.0000
# 4 0.0000 0.0000 0.0000 12.5783 0.0000 0.0000
# 5 0.0000 0.0000 0.0000 0.0000 12.5783 0.0000
# 6 0.0000 0.0000 0.0000 0.0000 0.0000 25.2107
#
#
#
# Elastic Compliance Matrix: (Units=1/GPa)
#
#
# Indices 1 2 3 4 5 6 
#
# 1 0.014429 -0.005404 -0.004514 0.000000 0.000000 0.000000
# 2 -0.005404 0.014429 -0.004514 0.000000 0.000000 0.000000
# 3 -0.004514 -0.004514 0.017076 0.000000 0.000000 0.000000
# 4 0.000000 0.000000 0.000000 0.079502 0.000000 0.000000
# 5 0.000000 0.000000 0.000000 0.000000 0.079502 0.000000
# 6 0.000000 0.000000 0.000000 0.000000 0.000000 0.039666
#
#
# Mechanical properties :
#
#
# Convention : Reuss Voigt Hill
#
# Bulk Modulus (GPa) = 58.58339 60.02018 59.30179
# Shear Modulus (GPa) = 17.91100 20.13500 19.02300
#
# Velocity S-wave (km/s) = 3.12671 3.31515 3.22231
# Velocity P-wave (km/s) = 6.70906 6.88581 6.79801
#
# Compressibility (1/GPa) = 0.01706968
#
# Stress axis : x y z
#
# Youngs Moduli (GPa) = 69.30522 69.30522 58.56116
#
# Poissons Ratio (x) = 0.37452 0.26435
# Poissons Ratio (y) = 0.37452 0.26435
# Poissons Ratio (z) = 0.31285 0.31285
#
# Static dielectric constant tensor:
#      x y z
#    x 3.405890 0.000000 0.000000 
#    y 0.000000 3.405890 0.000000 
#    z 0.000000 0.000000 3.288240 
# 
# 
# High freq. dielectric constant tensor:
#      x y z
#    x 1.706780 0.000000 0.000000 
#    y 0.000000 1.706780 0.000000 
#    z 0.000000 0.000000 1.696840 
# 
# From -- ./inp_files/7608.got.cif
#   From: 2010.03.12/outbox.cif.g09.slc.cpg/sg191_4_cif.got.tgz:7608.got - 2010.04.01 12:09:02.
