data_PCOD8329741
_publ_section_title
;
Structure prediction by ZEFSAII (Michael W. Deem and Ramdas Pophale) SiO2 
 PCOD8329741
Probable space group: P 6/M C C
;
_chemical_formula_sum "Si O2"
_cell_formula_units_Z 74
_cell_length_a 17.062273
_cell_length_b 17.062273
_cell_length_c 13.921445
_cell_angle_alpha 90.000000
_cell_angle_beta 90.000000
_cell_angle_gamma 120.000000
_cell_volume 3509.851326
_symmetry_space_group_name_H-M "P 6/M C C"
_symmetry_group_IT_number 192
_symmetry_cell_setting 'hexagonal'
loop_
_space_group_symop_operation_xyz
x,y,z
x-y,x,z
-y,x-y,z
-x,-y,z
-x+y,-x,z
y,-x+y,z
x-y,-y,1/2-z
-x,-x+y,1/2-z
y,x,1/2-z
-y,-x,1/2-z
-x+y,y,1/2-z
x,x-y,1/2-z
-x,-y,-z
-x+y,-x,-z
y,-x+y,-z
x,y,-z
x-y,x,-z
-y,x-y,-z
-x+y,y,1/2+z
x,x-y,1/2+z
-y,-x,1/2+z
y,x,1/2+z
x-y,-y,1/2+z
-x,-x+y,1/2+z
loop_
_atom_site_type_symbol
_atom_site_label
_atom_site_fract_x
_atom_site_fract_y
_atom_site_fract_z
Si Si1 0.351127 0.493072 0.391459
Si Si2 0.500000 0.000000 0.250000
Si Si3 0.916969 0.688864 0.187125
Si Si4 0.803242 0.835759 0.000000
Si Si5 0.333334 0.666668 0.638775
O O1 0.368226 0.471889 0.500000
O O2 0.421627 0.487368 0.321360
O O3 0.256686 0.412226 0.349889
O O4 0.350690 0.587051 0.395892
O O5 0.862765 0.725529 0.250000
O O6 0.000000 0.694850 0.250000
O O7 0.962704 0.748853 0.094560
O O8 0.892835 0.831213 0.000000
O O9 0.333334 0.666667 0.750000
#
# Coordination Sequence:
#
# PCOD8329741 Si02
#       5
#    24   6  24  12   8
#     4  12  26  46  72 105 141 191 241 295 356 426
#     4  12  26  44  68 102 148 180 240 296 352 418
#     4  12  25  44  70 101 142 184 237 300 361 425
#     4  12  25  46  72 105 141 185 241 294 363 450
#     4  12  25  50  73 103 152 193 238 290 364 433
#
# _framework density 21.083514999999998
#
# number of rings (size 3 to 8) (size 9 to 14) (size 15 to 20)
#    0.000    0.000    8.108    2.595    0.000    0.000 
#    0.000    0.000    0.000    0.000    0.000    0.000 
#    0.000    0.000    0.000    0.000    0.000    0.000 
#
# Total GULP energy -917212.572054 kJ/mol
# GULP energy per Si atom -12394.764487 kJ/mol
# Density = 2.103553 g / cm^3
# Si number density = 21.083515 Si / 1000 Ang^3
#
#
#
# Elastic Constant Matrix: (Units=GPa)
#
#
# Indices 1 2 3 4 5 6 
#
# 1 123.0585 40.5379 51.6589 -0.0001 0.0000 -0.0001
# 2 40.5379 123.0594 51.6590 -0.0001 0.0000 0.0002
# 3 51.6589 51.6590 189.6195 0.0001 0.0001 -0.0001
# 4 -0.0001 -0.0001 0.0001 30.1855 -0.0001 0.0000
# 5 0.0000 0.0000 0.0001 -0.0001 30.1856 0.0000
# 6 -0.0001 0.0002 -0.0001 0.0000 0.0000 41.2604
#
#
#
# Elastic Compliance Matrix: (Units=1/GPa)
#
#
# Indices 1 2 3 4 5 6 
#
# 1 0.009751 -0.002368 -0.002011 0.000000 0.000000 0.000000
# 2 -0.002368 0.009750 -0.002011 0.000000 0.000000 0.000000
# 3 -0.002011 -0.002011 0.006370 0.000000 0.000000 0.000000
# 4 0.000000 0.000000 0.000000 0.033129 0.000000 0.000000
# 5 0.000000 0.000000 0.000000 0.000000 0.033128 0.000000
# 6 0.000000 0.000000 0.000000 0.000000 0.000000 0.024236
#
#
# Mechanical properties :
#
#
# Convention : Reuss Voigt Hill
#
# Bulk Modulus (GPa) = 76.39457 80.38322 78.38890
# Shear Modulus (GPa) = 37.45099 39.78506 38.61802
#
# Velocity S-wave (km/s) = 4.21921 4.34870 4.28444
# Velocity P-wave (km/s) = 7.74910 7.96391 7.85724
#
# Compressibility (1/GPa) = 0.01308993
#
# Stress axis : x y z
#
# Youngs Moduli (GPa) = 102.55867 102.55951 156.99485
#
# Poissons Ratio (x) = 0.24283 0.31577
# Poissons Ratio (y) = 0.24282 0.31577
# Poissons Ratio (z) = 0.20628 0.20628
#
# Static dielectric constant tensor:
#      x y z
#    x 3.684580 0.000000 0.000000 
#    y 0.000000 3.684580 0.000010 
#    z 0.000000 0.000010 4.194330 
# 
# 
# High freq. dielectric constant tensor:
#      x y z
#    x 1.825920 0.000000 0.000000 
#    y 0.000000 1.825920 0.000000 
#    z 0.000000 0.000000 1.860840 
# 
# From -- ./inp_files/2516.got.cif
#   From: 2010.03.12/outbox.cif.g09.slc.cpg/sg192_2_cif.got.tgz:2516.got - 2010.04.01 12:16:15.
