data_PCOD8329513
_publ_section_title
;
Structure prediction by ZEFSAII (Michael W. Deem and Ramdas Pophale) SiO2 
 PCOD8329513
Probable space group: P 6/M C C
;
_chemical_formula_sum "Si O2"
_cell_formula_units_Z 108
_cell_length_a 14.969923
_cell_length_b 14.969923
_cell_length_c 28.829740
_cell_angle_alpha 90.000000
_cell_angle_beta 90.000000
_cell_angle_gamma 120.000000
_cell_volume 5595.133979
_symmetry_space_group_name_H-M "P 6/M C C"
_symmetry_group_IT_number 192
_symmetry_cell_setting 'hexagonal'
loop_
_space_group_symop_operation_xyz
x,y,z
x-y,x,z
-y,x-y,z
-x,-y,z
-x+y,-x,z
y,-x+y,z
x-y,-y,1/2-z
-x,-x+y,1/2-z
y,x,1/2-z
-y,-x,1/2-z
-x+y,y,1/2-z
x,x-y,1/2-z
-x,-y,-z
-x+y,-x,-z
y,-x+y,-z
x,y,-z
x-y,x,-z
-y,x-y,-z
-x+y,y,1/2+z
x,x-y,1/2+z
-y,-x,1/2+z
y,x,1/2+z
x-y,-y,1/2+z
-x,-x+y,1/2+z
loop_
_atom_site_type_symbol
_atom_site_label
_atom_site_fract_x
_atom_site_fract_y
_atom_site_fract_z
Si Si1 0.119646 0.239292 0.195823
Si Si2 0.790324 0.209674 0.124313
Si Si3 0.399361 0.600638 0.500000
Si Si4 0.118935 0.881062 0.554321
Si Si5 0.558820 0.117640 0.899151
O O1 0.173403 0.173403 0.181344
O O2 0.132078 0.264155 0.250000
O O3 0.174166 0.348333 0.169772
O O4 0.825911 0.174084 0.078740
O O5 0.668799 0.163704 0.124829
O O6 0.836297 0.331200 0.124828
O O7 0.450682 0.725341 0.500000
O O8 0.434243 0.565756 0.545420
O O9 0.129812 0.870185 0.500000
O O10 0.999998 0.826782 0.569635
O O11 0.500000 0.000000 0.886812
#
# Coordination Sequence:
#
# PCOD8329513 Si02
#       5
#    24  24  12  24  24
#     4  10  21  40  68 100 130 157 189 236 299 373
#     4  12  24  42  57  86 119 155 206 256 298 351
#     4  10  19  40  56  78 112 156 194 256 299 338
#     4  10  21  36  56  84 120 157 194 239 301 376
#     4  12  24  38  59  81 113 158 202 250 303 347
#
# _framework density 19.302485999999998
#
# number of rings (size 3 to 8) (size 9 to 14) (size 15 to 20)
#    0.222    0.889    2.222    5.222    3.111    1.778 
#    0.000    3.333    0.000    4.000    0.000    0.000 
#    0.000    0.000    0.000    0.000    0.000    0.000 
#
# Total GULP energy -1339458.448027 kJ/mol
# GULP energy per Si atom -12402.393037 kJ/mol
# Density = 1.925855 g / cm^3
# Si number density = 19.302486 Si / 1000 Ang^3
#
#
#
# Elastic Constant Matrix: (Units=GPa)
#
#
# Indices 1 2 3 4 5 6 
#
# 1 181.9070 90.7991 50.0822 0.0000 0.0000 0.0000
# 2 90.7991 181.9070 50.0822 0.0000 0.0000 0.0000
# 3 50.0822 50.0822 86.3139 0.0000 0.0000 0.0000
# 4 0.0000 0.0000 0.0000 22.6224 0.0000 0.0000
# 5 0.0000 0.0000 0.0000 0.0000 22.6224 0.0000
# 6 0.0000 0.0000 0.0000 0.0000 0.0000 45.5539
#
#
#
# Elastic Compliance Matrix: (Units=1/GPa)
#
#
# Indices 1 2 3 4 5 6 
#
# 1 0.007818 -0.003158 -0.002704 0.000000 0.000000 0.000000
# 2 -0.003158 0.007818 -0.002704 0.000000 0.000000 0.000000
# 3 -0.002704 -0.002704 0.014723 0.000000 0.000000 0.000000
# 4 0.000000 0.000000 0.000000 0.044204 0.000000 0.000000
# 5 0.000000 0.000000 0.000000 0.000000 0.044204 0.000000
# 6 0.000000 0.000000 0.000000 0.000000 0.000000 0.021952
#
#
# Mechanical properties :
#
#
# Convention : Reuss Voigt Hill
#
# Bulk Modulus (GPa) = 75.59793 92.45056 84.02425
# Shear Modulus (GPa) = 30.81467 35.43738 33.12602
#
# Velocity S-wave (km/s) = 3.99984 4.28939 4.14714
# Velocity P-wave (km/s) = 7.78342 8.51654 8.15822
#
# Compressibility (1/GPa) = 0.01322787
#
# Stress axis : x y z
#
# Youngs Moduli (GPa) = 127.90904 127.90904 67.91880
#
# Poissons Ratio (x) = 0.40393 0.18365
# Poissons Ratio (y) = 0.40393 0.18365
# Poissons Ratio (z) = 0.34586 0.34586
#
# Static dielectric constant tensor:
#      x y z
#    x 3.642600 0.000000 0.000000 
#    y 0.000000 3.642600 0.000000 
#    z 0.000000 0.000000 3.347880 
# 
# 
# High freq. dielectric constant tensor:
#      x y z
#    x 1.763600 0.000000 0.000000 
#    y 0.000000 1.763600 0.000000 
#    z 0.000000 0.000000 1.735420 
# 
# From -- ./inp_files/6851.got.cif
#   From: 2010.03.12/outbox.cif.g09.slc.cpg/sg192_4_cif.got.tgz:6851.got - 2010.04.01 12:16:15.
