data_PCOD8329078
_publ_section_title
;
Structure prediction by ZEFSAII (Michael W. Deem and Ramdas Pophale) SiO2 
 PCOD8329078
Probable space group: P 6/M M M
;
_chemical_formula_sum "Si O2"
_cell_formula_units_Z 72
_cell_length_a 21.649710
_cell_length_b 21.649710
_cell_length_c 10.029549
_cell_angle_alpha 90.000000
_cell_angle_beta 90.000000
_cell_angle_gamma 120.000000
_cell_volume 4071.141551
_symmetry_space_group_name_H-M "P 6/M M M"
_symmetry_group_IT_number 191
_symmetry_cell_setting 'hexagonal'
loop_
_space_group_symop_operation_xyz
x,y,z
x-y,x,z
-y,x-y,z
-x,-y,z
-x+y,-x,z
y,-x+y,z
x-y,-y,-z
-x,-x+y,-z
y,x,-z
-y,-x,-z
-x+y,y,-z
x,x-y,-z
-x,-y,-z
-x+y,-x,-z
y,-x+y,-z
x,y,-z
x-y,x,-z
-y,x-y,-z
-x+y,y,z
x,x-y,z
-y,-x,z
y,x,z
x-y,-y,z
-x,-x+y,z
loop_
_atom_site_type_symbol
_atom_site_label
_atom_site_fract_x
_atom_site_fract_y
_atom_site_fract_z
Si Si1 0.848554 0.697107 0.336892
Si Si2 0.528343 0.613344 0.000000
Si Si3 0.084590 0.687523 0.254754
Si Si4 0.167740 0.083870 0.848789
Si Si5 0.610489 0.525491 0.500000
O O1 0.851077 0.702154 0.500000
O O2 0.769887 0.656898 0.277205
O O3 0.887178 0.774356 0.269231
O O4 0.553850 0.667439 0.875894
O O5 0.567186 0.567186 0.000000
O O6 0.442658 0.557343 0.000000
O O7 0.114260 0.660346 0.372639
O O8 0.000000 0.649642 0.252070
O O9 0.118763 0.118763 0.828873
O O10 0.201062 0.100531 0.000000
O O11 0.565342 0.565342 0.500000
O O12 0.559024 0.440977 0.500000
#
# Coordination Sequence:
#
# PCOD8329078 Si02
#       5
#    12  12  24  12  12
#     4  12  24  37  53  81 122 158 190 230 292 358
#     4   9  18  33  54  80 109 136 169 214 268 324
#     4  10  20  33  51  77 112 147 181 224 272 329
#     4  10  23  42  64  84 106 146 206 266 314 360
#     4   9  16  29  50  74 103 138 175 212 258 314
#
# _framework density 17.685457
#
# number of rings (size 3 to 8) (size 9 to 14) (size 15 to 20)
#    0.000    2.000    1.667    2.167    2.333    6.667 
#    0.000    0.000    0.000    1.000    0.000    0.000 
#   33.333    0.000    0.000    0.000    0.000    0.000 
#
# Total GULP energy -892309.543439 kJ/mol
# GULP energy per Si atom -12393.188103 kJ/mol
# Density = 1.764520 g / cm^3
# Si number density = 17.685457 Si / 1000 Ang^3
#
#
#
# Elastic Constant Matrix: (Units=GPa)
#
#
# Indices 1 2 3 4 5 6 
#
# 1 66.3171 64.2339 59.7490 0.0000 0.0000 0.0000
# 2 64.2339 66.3171 59.7490 0.0000 0.0000 0.0000
# 3 59.7490 59.7490 174.2480 0.0000 0.0000 0.0000
# 4 0.0000 0.0000 0.0000 34.9438 0.0000 0.0000
# 5 0.0000 0.0000 0.0000 0.0000 34.9438 0.0000
# 6 0.0000 0.0000 0.0000 0.0000 0.0000 1.0416
#
#
#
# Elastic Compliance Matrix: (Units=1/GPa)
#
#
# Indices 1 2 3 4 5 6 
#
# 1 0.245596 -0.234432 -0.003828 0.000000 0.000000 0.000000
# 2 -0.234432 0.245596 -0.003828 0.000000 0.000000 0.000000
# 3 -0.003828 -0.003828 0.008364 0.000000 0.000000 0.000000
# 4 0.000000 0.000000 0.000000 0.028617 0.000000 0.000000
# 5 0.000000 0.000000 0.000000 0.000000 0.028617 0.000000
# 6 0.000000 0.000000 0.000000 0.000000 0.000000 0.960055
#
#
# Mechanical properties :
#
#
# Convention : Reuss Voigt Hill
#
# Bulk Modulus (GPa) = 65.02103 74.92732 69.97417
# Shear Modulus (GPa) = 2.49234 22.39588 12.44411
#
# Velocity S-wave (km/s) = 1.18841 3.56243 2.65549
# Velocity P-wave (km/s) = 6.22320 7.70583 7.00386
#
# Compressibility (1/GPa) = 0.01537964
#
# Stress axis : x y z
#
# Youngs Moduli (GPa) = 4.07173 4.07173 119.55771
#
# Poissons Ratio (x) = 0.95454 0.45767
# Poissons Ratio (y) = 0.95454 0.45767
# Poissons Ratio (z) = 0.01559 0.01559
#
# Static dielectric constant tensor:
#      x y z
#    x 3.206600 0.000000 0.000000 
#    y 0.000000 3.206600 0.000000 
#    z 0.000000 0.000000 3.652510 
# 
# 
# High freq. dielectric constant tensor:
#      x y z
#    x 1.666450 0.000000 0.000000 
#    y 0.000000 1.666450 0.000000 
#    z 0.000000 0.000000 1.704870 
# 
# From -- ./inp_files/1000.got.cif
#   From: 2010.03.12/outbox.cif.g09.slc.cpg/sg191_1_cif.got.tgz:1000.got - 2010.04.01 12:09:02.
