data_PCOD8329512
_publ_section_title
;
Structure prediction by ZEFSAII (Michael W. Deem and Ramdas Pophale) SiO2 
 PCOD8329512
Probable space group: P 6/M C C
;
_chemical_formula_sum "Si O2"
_cell_formula_units_Z 168
_cell_length_a 17.652365
_cell_length_b 17.652365
_cell_length_c 28.809077
_cell_angle_alpha 90.000000
_cell_angle_beta 90.000000
_cell_angle_gamma 120.000000
_cell_volume 7774.380165
_symmetry_space_group_name_H-M "P 6/M C C"
_symmetry_group_IT_number 192
_symmetry_cell_setting 'hexagonal'
loop_
_space_group_symop_operation_xyz
x,y,z
x-y,x,z
-y,x-y,z
-x,-y,z
-x+y,-x,z
y,-x+y,z
x-y,-y,1/2-z
-x,-x+y,1/2-z
y,x,1/2-z
-y,-x,1/2-z
-x+y,y,1/2-z
x,x-y,1/2-z
-x,-y,-z
-x+y,-x,-z
y,-x+y,-z
x,y,-z
x-y,x,-z
-y,x-y,-z
-x+y,y,1/2+z
x,x-y,1/2+z
-y,-x,1/2+z
y,x,1/2+z
x-y,-y,1/2+z
-x,-x+y,1/2+z
loop_
_atom_site_type_symbol
_atom_site_label
_atom_site_fract_x
_atom_site_fract_y
_atom_site_fract_z
Si Si1 0.170974 0.005679 0.682232
Si Si2 0.996118 0.341985 0.697240
Si Si3 0.187328 0.137368 0.925799
Si Si4 0.378598 0.096696 0.448451
Si Si5 0.517083 0.684357 0.857084
Si Si6 0.538223 0.599537 0.448474
Si Si7 0.348965 0.500876 0.142700
O O1 0.170388 0.089270 0.703831
O O2 0.250003 0.990860 0.696113
O O3 0.171244 0.025271 0.628058
O O4 0.901842 0.308612 0.675253
O O5 0.000000 0.373600 0.750000
O O6 0.068461 0.423162 0.667954
O O7 0.120457 0.164471 0.947796
O O8 0.289258 0.195483 0.936744
O O9 0.412231 0.137696 0.500000
O O10 0.454904 0.151648 0.411275
O O11 0.353477 0.995937 0.448489
O O12 0.431563 0.593570 0.845088
O O13 0.499213 0.761360 0.841961
O O14 0.500000 0.500000 0.430990
O O15 0.501799 0.600567 0.500000
O O16 0.511291 0.651767 0.413028
#
# Coordination Sequence:
#
# PCOD8329512 Si02
#       7
#    24  24  24  24  24  24  24
#     4  10  20  37  64  99 138 175 217 269 330 392
#     4  12  26  46  72  98 127 174 230 279 331 401
#     4  10  21  38  60  90 131 179 226 276 328 386
#     4  11  23  38  63  98 131 170 224 274 321 386
#     4  12  26  45  70 101 135 173 218 275 342 407
#     4  10  19  38  67  96 129 173 219 267 323 390
#     4  12  25  45  70 100 136 173 218 277 341 405
#
# _framework density 21.609438999999998
#
# number of rings (size 3 to 8) (size 9 to 14) (size 15 to 20)
#    0.000    1.000    4.286    1.857    4.000    5.714 
#    0.000    0.000    0.000    5.143    0.000    0.000 
#    0.000    0.000    0.000    0.000    0.000    0.000 
#
# Total GULP energy -2082470.235411 kJ/mol
# GULP energy per Si atom -12395.656163 kJ/mol
# Density = 2.156025 g / cm^3
# Si number density = 21.609439 Si / 1000 Ang^3
#
#
#
# Elastic Constant Matrix: (Units=GPa)
#
#
# Indices 1 2 3 4 5 6 
#
# 1 130.3198 60.0931 23.6651 0.0000 0.0000 0.0000
# 2 60.0931 130.3198 23.6651 0.0000 0.0000 0.0000
# 3 23.6651 23.6651 101.0632 0.0000 0.0000 0.0000
# 4 0.0000 0.0000 0.0000 -49.0696 0.0000 0.0000
# 5 0.0000 0.0000 0.0000 0.0000 -49.0696 0.0000
# 6 0.0000 0.0000 0.0000 0.0000 0.0000 35.1134
#
#
#
# Elastic Compliance Matrix: (Units=1/GPa)
#
#
# Indices 1 2 3 4 5 6 
#
# 1 0.009908 -0.004332 -0.001306 0.000000 0.000000 0.000000
# 2 -0.004332 0.009908 -0.001306 0.000000 0.000000 0.000000
# 3 -0.001306 -0.001306 0.010506 0.000000 0.000000 0.000000
# 4 0.000000 0.000000 0.000000 -0.020379 0.000000 0.000000
# 5 0.000000 0.000000 0.000000 0.000000 -0.020379 0.000000
# 6 0.000000 0.000000 0.000000 0.000000 0.000000 0.028479
#
#
# Mechanical properties :
#
#
# Convention : Reuss Voigt Hill
#
# Bulk Modulus (GPa) = 60.84235 64.06101 62.45168
# Shear Modulus (GPa) = 133.66143 4.34679 69.00411
#
# Velocity S-wave (km/s) = 7.87322 1.41982 5.65701
# Velocity P-wave (km/s) = 10.52932 5.69185 8.46356
#
# Compressibility (1/GPa) = 0.01643592
#
# Stress axis : x y z
#
# Youngs Moduli (GPa) = 100.92902 100.92902 95.18082
#
# Poissons Ratio (x) = 0.43719 0.12428
# Poissons Ratio (y) = 0.43719 0.12428
# Poissons Ratio (z) = 0.13179 0.13179
#
# Static dielectric constant tensor:
#      x y z
#    x 3.985980 0.000000 0.000000 
#    y 0.000000 3.985980 0.000000 
#    z 0.000000 0.000000 3.970960 
# 
# 
# High freq. dielectric constant tensor:
#      x y z
#    x 1.850240 0.000000 0.000000 
#    y 0.000000 1.850240 0.000000 
#    z 0.000000 0.000000 1.847010 
# 
# From -- ./inp_files/7196.got.cif
#   From: 2010.03.12/outbox.cif.g09.slc.cpg/sg192_4_cif.got.tgz:7196.got - 2010.04.01 12:16:15.
