data_PCOD8329592
_publ_section_title
;
Structure prediction by ZEFSAII (Michael W. Deem and Ramdas Pophale) SiO2 
 PCOD8329592
Probable space group: P 6/M C C
;
_chemical_formula_sum "Si O2"
_cell_formula_units_Z 144
_cell_length_a 31.157714
_cell_length_b 31.157714
_cell_length_c 8.609020
_cell_angle_alpha 90.000000
_cell_angle_beta 90.000000
_cell_angle_gamma 120.000000
_cell_volume 7237.949048
_symmetry_space_group_name_H-M "P 6/M C C"
_symmetry_group_IT_number 192
_symmetry_cell_setting 'hexagonal'
loop_
_space_group_symop_operation_xyz
x,y,z
x-y,x,z
-y,x-y,z
-x,-y,z
-x+y,-x,z
y,-x+y,z
x-y,-y,1/2-z
-x,-x+y,1/2-z
y,x,1/2-z
-y,-x,1/2-z
-x+y,y,1/2-z
x,x-y,1/2-z
-x,-y,-z
-x+y,-x,-z
y,-x+y,-z
x,y,-z
x-y,x,-z
-y,x-y,-z
-x+y,y,1/2+z
x,x-y,1/2+z
-y,-x,1/2+z
y,x,1/2+z
x-y,-y,1/2+z
-x,-x+y,1/2+z
loop_
_atom_site_type_symbol
_atom_site_label
_atom_site_fract_x
_atom_site_fract_y
_atom_site_fract_z
Si Si1 0.667215 0.241398 0.681344
Si Si2 0.332827 0.849484 0.179899
Si Si3 0.479591 0.428287 0.181308
Si Si4 0.709004 0.761891 0.684041
Si Si5 0.381866 0.237617 0.817380
Si Si6 0.801055 0.854530 0.815217
O O1 0.720563 0.279438 0.750000
O O2 0.625913 0.251825 0.750000
O O3 0.668305 0.249278 0.500000
O O4 0.655594 0.186262 0.718118
O O5 0.373124 0.905753 0.222509
O O6 0.278919 0.840885 0.220591
O O7 0.336723 0.838168 0.000000
O O8 0.435825 0.435825 0.250000
O O9 0.532741 0.467260 0.250000
O O10 0.481870 0.437626 0.000000
O O11 0.720535 0.720535 0.750000
O O12 0.715360 0.764939 0.500000
O O13 0.653565 0.746228 0.732515
O O14 0.746211 0.815378 0.756493
O O15 0.371458 0.185729 0.750000
O O16 0.371033 0.232843 0.000000
O O17 0.840730 0.840730 0.750000
O O18 0.816612 0.908306 0.750000
O O19 0.801824 0.854696 0.000000
#
# Coordination Sequence:
#
# PCOD8329592 Si02
#       6
#    24  24  24  24  24  24
#     4  12  25  42  65  91 121 153 191 237 289 346
#     4  10  23  41  61  87 119 154 195 239 287 342
#     4  10  20  36  58  85 115 149 189 236 285 338
#     4  11  22  38  59  85 115 150 192 240 291 343
#     4  11  23  40  59  83 116 154 194 237 284 342
#     4  11  21  36  57  84 115 150 191 238 290 344
#
# _framework density 19.895136999999998
#
# number of rings (size 3 to 8) (size 9 to 14) (size 15 to 20)
#    0.000    1.167    0.000    8.667    0.000    6.000 
#    0.000    1.667    0.000    0.167    0.000    1.167 
#    0.000    0.000    0.000    0.000    0.000    0.000 
#
# Total GULP energy -1786583.341078 kJ/mol
# GULP energy per Si atom -12406.828757 kJ/mol
# Density = 1.984986 g / cm^3
# Si number density = 19.895137 Si / 1000 Ang^3
#
#
#
# Elastic Constant Matrix: (Units=GPa)
#
#
# Indices 1 2 3 4 5 6 
#
# 1 97.3906 32.7364 46.1991 0.0000 0.0000 0.0000
# 2 32.7364 97.3906 46.1991 0.0000 0.0000 0.0000
# 3 46.1991 46.1991 162.1529 0.0000 0.0000 0.0000
# 4 0.0000 0.0000 0.0000 29.5661 0.0000 0.0000
# 5 0.0000 0.0000 0.0000 0.0000 29.5661 0.0000
# 6 0.0000 0.0000 0.0000 0.0000 0.0000 32.3271
#
#
#
# Elastic Compliance Matrix: (Units=1/GPa)
#
#
# Indices 1 2 3 4 5 6 
#
# 1 0.012550 -0.002917 -0.002745 0.000000 0.000000 0.000000
# 2 -0.002917 0.012550 -0.002745 0.000000 0.000000 0.000000
# 3 -0.002745 -0.002745 0.007731 0.000000 0.000000 0.000000
# 4 0.000000 0.000000 0.000000 0.033822 0.000000 0.000000
# 5 0.000000 0.000000 0.000000 0.000000 0.033822 0.000000
# 6 0.000000 0.000000 0.000000 0.000000 0.000000 0.030934
#
#
# Mechanical properties :
#
#
# Convention : Reuss Voigt Hill
#
# Bulk Modulus (GPa) = 62.42391 67.46702 64.94547
# Shear Modulus (GPa) = 32.56004 33.74517 33.15260
#
# Velocity S-wave (km/s) = 4.04986 4.12290 4.08654
# Velocity P-wave (km/s) = 7.30158 7.52658 7.41493
#
# Compressibility (1/GPa) = 0.01601950
#
# Stress axis : x y z
#
# Youngs Moduli (GPa) = 79.67921 79.67921 129.34870
#
# Poissons Ratio (x) = 0.23239 0.35503
# Poissons Ratio (y) = 0.23239 0.35503
# Poissons Ratio (z) = 0.21870 0.21870
#
# Static dielectric constant tensor:
#      x y z
#    x 2.886680 0.000000 0.000000 
#    y 0.000000 2.886680 0.000000 
#    z 0.000000 0.000000 3.761590 
# 
# 
# High freq. dielectric constant tensor:
#      x y z
#    x 1.779600 0.000000 0.000000 
#    y 0.000000 1.779600 0.000000 
#    z 0.000000 0.000000 1.792870 
# 
# From -- ./inp_files/1216.got.cif
#   From: 2010.03.12/outbox.cif.g09.slc.cpg/sg192_1_cif.got.tgz:1216.got - 2010.04.01 12:16:15.
