data_PCOD8329806
_publ_section_title
;
Structure prediction by ZEFSAII (Michael W. Deem and Ramdas Pophale) SiO2 
 PCOD8329806
Probable space group: P 63/M C M
;
_chemical_formula_sum "Si O2"
_cell_formula_units_Z 168
_cell_length_a 19.456726
_cell_length_b 19.456726
_cell_length_c 27.252012
_cell_angle_alpha 90.000000
_cell_angle_beta 90.000000
_cell_angle_gamma 120.000000
_cell_volume 8934.468647
_symmetry_space_group_name_H-M "P 63/M C M"
_symmetry_group_IT_number 193
_symmetry_cell_setting 'hexagonal'
loop_
_space_group_symop_operation_xyz
x,y,z
x-y,x,1/2+z
-y,x-y,z
-x,-y,1/2+z
-x+y,-x,z
y,-x+y,1/2+z
x-y,-y,1/2-z
-x,-x+y,1/2-z
y,x,1/2-z
-y,-x,-z
-x+y,y,-z
x,x-y,-z
-x,-y,-z
-x+y,-x,1/2-z
y,-x+y,-z
x,y,1/2-z
x-y,x,-z
-y,x-y,1/2-z
-x+y,y,1/2+z
x,x-y,1/2+z
-y,-x,1/2+z
y,x,z
x-y,-y,z
-x,-x+y,z
loop_
_atom_site_type_symbol
_atom_site_label
_atom_site_fract_x
_atom_site_fract_y
_atom_site_fract_z
Si Si1 0.243576 0.152386 0.550098
Si Si2 0.844693 0.084847 0.350112
Si Si3 0.307392 0.909183 0.873752
Si Si4 0.799183 0.226661 0.053814
Si Si5 0.095064 0.445129 0.125351
Si Si6 0.523699 0.430557 0.305250
Si Si7 0.762047 0.672331 0.197640
O O1 0.207685 0.103843 0.500000
O O2 0.212294 0.212294 0.560396
O O3 0.216734 0.089617 0.594058
O O4 0.337468 0.205691 0.547033
O O5 0.765559 0.090945 0.347070
O O6 0.908143 0.156226 0.316825
O O7 0.827122 0.000000 0.329040
O O8 0.276204 0.843722 0.917179
O O9 0.348202 0.882472 0.832294
O O10 0.368522 0.000000 0.893387
O O11 0.845011 0.315312 0.078621
O O12 0.767095 0.232906 0.000000
O O13 0.120911 0.521285 0.159582
O O14 0.123892 0.390961 0.154151
O O15 0.000000 0.399259 0.111920
O O16 0.546857 0.415785 0.250000
O O17 0.481946 0.481946 0.298803
O O18 0.772046 0.638526 0.250000
O O19 0.693825 0.693825 0.204588
#
# Coordination Sequence:
#
# PCOD8329806 Si02
#       7
#    24  24  24  24  24  24  24
#     4  10  18  30  49  73 102 140 183 230 277 316
#     4  10  19  31  48  72 103 138 175 218 267 320
#     4   9  18  33  50  76 111 138 169 212 260 318
#     4  10  20  32  51  79 110 142 177 217 262 312
#     4  10  18  33  54  80 106 132 171 215 260 312
#     4   9  18  33  54  78 106 137 164 203 261 320
#     4  10  19  31  49  73 101 131 170 222 270 313
#
# _framework density 18.80358
#
# number of rings (size 3 to 8) (size 9 to 14) (size 15 to 20)
#    0.000    2.286    2.857    1.714    0.000    6.571 
#    0.000    2.143    0.000    8.571    0.000    0.000 
#    0.000    0.000    0.000    0.000    0.000    0.000 
#
# Total GULP energy -2081375.997756 kJ/mol
# GULP energy per Si atom -12389.142844 kJ/mol
# Density = 1.876078 g / cm^3
# Si number density = 18.803580 Si / 1000 Ang^3
#
#
#
# Elastic Constant Matrix: (Units=GPa)
#
#
# Indices 1 2 3 4 5 6 
#
# 1 61.4537 22.4923 42.0056 0.0000 0.0000 0.0000
# 2 22.4923 61.4537 42.0056 0.0000 0.0000 0.0000
# 3 42.0056 42.0056 124.1580 0.0000 0.0000 0.0000
# 4 0.0000 0.0000 0.0000 21.7597 0.0000 0.0000
# 5 0.0000 0.0000 0.0000 0.0000 21.7597 0.0000
# 6 0.0000 0.0000 0.0000 0.0000 0.0000 19.4807
#
#
#
# Elastic Compliance Matrix: (Units=1/GPa)
#
#
# Indices 1 2 3 4 5 6 
#
# 1 0.021839 -0.003828 -0.006093 0.000000 0.000000 0.000000
# 2 -0.003828 0.021839 -0.006093 0.000000 0.000000 0.000000
# 3 -0.006093 -0.006093 0.012177 0.000000 0.000000 0.000000
# 4 0.000000 0.000000 0.000000 0.045956 0.000000 0.000000
# 5 0.000000 0.000000 0.000000 0.000000 0.045956 0.000000
# 6 0.000000 0.000000 0.000000 0.000000 0.000000 0.051333
#
#
# Mechanical properties :
#
#
# Convention : Reuss Voigt Hill
#
# Bulk Modulus (GPa) = 41.97299 51.11917 46.54608
# Shear Modulus (GPa) = 20.91426 21.97081 21.44253
#
# Velocity S-wave (km/s) = 3.33866 3.42195 3.38056
# Velocity P-wave (km/s) = 6.10184 6.54659 6.32812
#
# Compressibility (1/GPa) = 0.02382485
#
# Stress axis : x y z
#
# Youngs Moduli (GPa) = 45.79068 45.79068 82.11968
#
# Poissons Ratio (x) = 0.17528 0.50039
# Poissons Ratio (y) = 0.17528 0.50039
# Poissons Ratio (z) = 0.27902 0.27902
#
# Static dielectric constant tensor:
#      x y z
#    x 3.282500 0.000000 0.000000 
#    y 0.000000 3.282500 0.000000 
#    z 0.000000 0.000000 3.843280 
# 
# 
# High freq. dielectric constant tensor:
#      x y z
#    x 1.702600 0.000000 0.000000 
#    y 0.000000 1.702600 0.000000 
#    z 0.000000 0.000000 1.734760 
# 
# From -- ./inp_files/8525.got.cif
#   From: 2010.03.12/outbox.cif.g09.slc.cpg/sg193_5_cif.got.tgz:8525.got - 2010.04.01 12:20:39.
