data_PCOD8329959
_publ_section_title
;
Structure prediction by ZEFSAII (Michael W. Deem and Ramdas Pophale) SiO2 
 PCOD8329959
Probable space group: P 63/M C M
;
_chemical_formula_sum "Si O2"
_cell_formula_units_Z 120
_cell_length_a 23.388634
_cell_length_b 23.388634
_cell_length_c 14.673339
_cell_angle_alpha 90.000000
_cell_angle_beta 90.000000
_cell_angle_gamma 120.000000
_cell_volume 6951.352286
_symmetry_space_group_name_H-M "P 63/M C M"
_symmetry_group_IT_number 193
_symmetry_cell_setting 'hexagonal'
loop_
_space_group_symop_operation_xyz
x,y,z
x-y,x,1/2+z
-y,x-y,z
-x,-y,1/2+z
-x+y,-x,z
y,-x+y,1/2+z
x-y,-y,1/2-z
-x,-x+y,1/2-z
y,x,1/2-z
-y,-x,-z
-x+y,y,-z
x,x-y,-z
-x,-y,-z
-x+y,-x,1/2-z
y,-x+y,-z
x,y,1/2-z
x-y,x,-z
-y,x-y,1/2-z
-x+y,y,1/2+z
x,x-y,1/2+z
-y,-x,1/2+z
y,x,z
x-y,-y,z
-x,-x+y,z
loop_
_atom_site_type_symbol
_atom_site_label
_atom_site_fract_x
_atom_site_fract_y
_atom_site_fract_z
Si Si1 0.424799 0.864878 0.600502
Si Si2 0.715315 0.516989 0.849953
Si Si3 0.631187 0.880014 0.481419
Si Si4 0.690776 0.547354 0.148783
Si Si5 0.303637 0.303637 0.357638
Si Si6 0.000000 0.438926 0.646578
O O1 0.418612 0.837224 0.500000
O O2 0.357386 0.808680 0.649351
O O3 0.491621 0.877142 0.647888
O O4 0.428487 0.935169 0.596251
O O5 0.725740 0.549662 0.750000
O O6 0.713244 0.565052 0.923680
O O7 0.777436 0.507196 0.872349
O O8 0.655971 0.827986 0.500000
O O9 0.608650 0.897088 0.578418
O O10 0.687550 0.938701 0.420384
O O11 0.707330 0.578962 0.250000
O O12 0.281407 0.281407 0.250000
O O13 0.371162 0.371162 0.357102
O O14 0.000000 0.461086 0.750000
#
# Coordination Sequence:
#
# PCOD8329959 Si02
#       6
#    24  24  24  24  12  12
#     4  12  21  33  50  69  98 124 166 222 279 335
#     4  10  19  34  52  67  90 126 171 220 270 330
#     4  10  20  35  54  78 106 133 173 219 263 311
#     4  10  21  35  50  67  95 134 168 211 282 343
#     4  11  20  35  60  86 106 139 185 221 260 313
#     4  11  21  31  49  76  99 125 168 222 271 324
#
# _framework density 17.262827000000001
#
# number of rings (size 3 to 8) (size 9 to 14) (size 15 to 20)
#    0.000    1.400    4.000    2.700    0.000    1.600 
#    1.200    1.500    0.000    0.000    0.000    0.000 
#    0.000    0.000    0.000    0.300    0.000    0.300 
#
# Total GULP energy -1486593.111701 kJ/mol
# GULP energy per Si atom -12388.275931 kJ/mol
# Density = 1.722354 g / cm^3
# Si number density = 17.262827 Si / 1000 Ang^3
#
#
#
# Elastic Constant Matrix: (Units=GPa)
#
#
# Indices 1 2 3 4 5 6 
#
# 1 57.5325 22.1421 24.6038 0.0000 0.0000 0.0000
# 2 22.1421 57.5325 24.6038 0.0000 0.0000 0.0000
# 3 24.6038 24.6038 123.4418 0.0000 0.0000 0.0000
# 4 0.0000 0.0000 0.0000 20.6787 0.0000 0.0000
# 5 0.0000 0.0000 0.0000 0.0000 20.6787 0.0000
# 6 0.0000 0.0000 0.0000 0.0000 0.0000 17.6952
#
#
#
# Elastic Compliance Matrix: (Units=1/GPa)
#
#
# Indices 1 2 3 4 5 6 
#
# 1 0.021285 -0.006972 -0.002853 0.000000 0.000000 0.000000
# 2 -0.006972 0.021285 -0.002853 0.000000 0.000000 0.000000
# 3 -0.002853 -0.002853 0.009238 0.000000 0.000000 0.000000
# 4 0.000000 0.000000 0.000000 0.048359 0.000000 0.000000
# 5 0.000000 0.000000 0.000000 0.000000 0.048359 0.000000
# 6 0.000000 0.000000 0.000000 0.000000 0.000000 0.056512
#
#
# Mechanical properties :
#
#
# Convention : Reuss Voigt Hill
#
# Bulk Modulus (GPa) = 37.80297 42.35624 40.07960
# Shear Modulus (GPa) = 20.90217 22.95434 21.92826
#
# Velocity S-wave (km/s) = 3.48346 3.65046 3.56794
# Velocity P-wave (km/s) = 6.17457 6.50824 6.34360
#
# Compressibility (1/GPa) = 0.02645295
#
# Stress axis : x y z
#
# Youngs Moduli (GPa) = 46.98238 46.98238 108.24635
#
# Poissons Ratio (x) = 0.32754 0.30880
# Poissons Ratio (y) = 0.32754 0.30880
# Poissons Ratio (z) = 0.13403 0.13403
#
# Static dielectric constant tensor:
#      x y z
#    x 3.082330 0.000000 0.000000 
#    y 0.000000 3.082330 0.000000 
#    z 0.000000 0.000000 3.626660 
# 
# 
# High freq. dielectric constant tensor:
#      x y z
#    x 1.625980 0.000000 0.000000 
#    y 0.000000 1.625980 0.000000 
#    z 0.000000 0.000000 1.696770 
# 
# From -- ./inp_files/4073.got.cif
#   From: 2010.03.12/outbox.cif.g09.slc.cpg/sg193_3_cif.got.tgz:4073.got - 2010.04.01 12:20:39.
