data_PCOD8329368
_publ_section_title
;
Structure prediction by ZEFSAII (Michael W. Deem and Ramdas Pophale) SiO2 
 PCOD8329368
Probable space group: P 6/M C C
;
_chemical_formula_sum "Si O2"
_cell_formula_units_Z 168
_cell_length_a 22.532858
_cell_length_b 22.532858
_cell_length_c 25.429079
_cell_angle_alpha 90.000000
_cell_angle_beta 90.000000
_cell_angle_gamma 120.000000
_cell_volume 11181.339195
_symmetry_space_group_name_H-M "P 6/M C C"
_symmetry_group_IT_number 192
_symmetry_cell_setting 'hexagonal'
loop_
_space_group_symop_operation_xyz
x,y,z
x-y,x,z
-y,x-y,z
-x,-y,z
-x+y,-x,z
y,-x+y,z
x-y,-y,1/2-z
-x,-x+y,1/2-z
y,x,1/2-z
-y,-x,1/2-z
-x+y,y,1/2-z
x,x-y,1/2-z
-x,-y,-z
-x+y,-x,-z
y,-x+y,-z
x,y,-z
x-y,x,-z
-y,x-y,-z
-x+y,y,1/2+z
x,x-y,1/2+z
-y,-x,1/2+z
y,x,1/2+z
x-y,-y,1/2+z
-x,-x+y,1/2+z
loop_
_atom_site_type_symbol
_atom_site_label
_atom_site_fract_x
_atom_site_fract_y
_atom_site_fract_z
Si Si1 0.805936 0.751256 0.603351
Si Si2 0.992213 0.857614 0.810531
Si Si3 0.397313 0.075573 0.061458
Si Si4 0.308368 0.385064 0.437993
Si Si5 0.202484 0.528960 0.937608
Si Si6 0.917067 0.730450 0.441172
Si Si7 0.803673 0.462708 0.437180
O O1 0.808636 0.790026 0.657880
O O2 0.751474 0.670005 0.599886
O O3 0.785802 0.787976 0.557863
O O4 0.880177 0.760816 0.594046
O O5 0.928182 0.867714 0.825008
O O6 0.000000 0.843070 0.750000
O O7 0.339819 0.091908 0.084318
O O8 0.471767 0.127389 0.085409
O O9 0.376738 0.996801 0.071910
O O10 0.399462 0.089536 0.000000
O O11 0.287092 0.371989 0.500000
O O12 0.323171 0.459146 0.419091
O O13 0.271445 0.532809 0.916070
O O14 0.198693 0.593586 0.914434
O O15 0.204479 0.532522 0.000000
O O16 0.887404 0.718018 0.500000
O O17 0.803769 0.461176 0.500000
#
# Coordination Sequence:
#
# PCOD8329368 Si02
#       7
#    24  24  24  24  24  24  24
#     4  11  18  28  43  59  79 105 138 169 210 253
#     4  10  20  35  51  65  80 102 137 176 215 259
#     4   8  15  25  36  50  71 102 139 175 210 245
#     4   9  17  27  38  56  81 109 141 176 211 252
#     4   9  16  24  35  51  74 106 147 187 215 241
#     4  10  18  27  39  57  81 108 137 170 205 247
#     4   9  15  23  34  48  68 100 142 183 214 241
#
# _framework density 15.025035000000001
#
# number of rings (size 3 to 8) (size 9 to 14) (size 15 to 20)
#    0.000    2.571    1.429    3.429    0.000    4.571 
#    0.000    2.857    0.000    0.000    0.000    2.000 
#    0.000    0.000    0.000   10.286    3.429    2.286 
#
# Total GULP energy -2081655.678841 kJ/mol
# GULP energy per Si atom -12390.807612 kJ/mol
# Density = 1.499084 g / cm^3
# Si number density = 15.025035 Si / 1000 Ang^3
#
#
#
# Elastic Constant Matrix: (Units=GPa)
#
#
# Indices 1 2 3 4 5 6 
#
# 1 122.7796 68.2458 20.7902 0.0000 0.0000 0.0000
# 2 68.2458 122.7796 20.7902 0.0000 0.0000 0.0000
# 3 20.7902 20.7902 29.6636 0.0000 0.0000 0.0000
# 4 0.0000 0.0000 0.0000 9.7175 0.0000 0.0000
# 5 0.0000 0.0000 0.0000 0.0000 9.7175 0.0000
# 6 0.0000 0.0000 0.0000 0.0000 0.0000 27.2669
#
#
#
# Elastic Compliance Matrix: (Units=1/GPa)
#
#
# Indices 1 2 3 4 5 6 
#
# 1 0.012257 -0.006080 -0.004329 0.000000 0.000000 0.000000
# 2 -0.006080 0.012257 -0.004329 0.000000 0.000000 0.000000
# 3 -0.004329 -0.004329 0.039780 0.000000 0.000000 0.000000
# 4 0.000000 0.000000 0.000000 0.102908 0.000000 0.000000
# 5 0.000000 0.000000 0.000000 0.000000 0.102908 0.000000
# 6 0.000000 0.000000 0.000000 0.000000 0.000000 0.036674
#
#
# Mechanical properties :
#
#
# Convention : Reuss Voigt Hill
#
# Bulk Modulus (GPa) = 28.72175 54.98615 41.85395
# Shear Modulus (GPa) = 14.37329 20.36681 17.37005
#
# Velocity S-wave (km/s) = 3.09629 3.68574 3.40380
# Velocity P-wave (km/s) = 5.65156 7.40194 6.58516
#
# Compressibility (1/GPa) = 0.03481682
#
# Stress axis : x y z
#
# Youngs Moduli (GPa) = 81.58425 81.58425 25.13822
#
# Poissons Ratio (x) = 0.49603 0.10883
# Poissons Ratio (y) = 0.49603 0.10883
# Poissons Ratio (z) = 0.35322 0.35322
#
# Static dielectric constant tensor:
#      x y z
#    x 3.090310 0.000000 0.000000 
#    y 0.000000 3.090310 0.000000 
#    z 0.000000 0.000000 2.338800 
# 
# 
# High freq. dielectric constant tensor:
#      x y z
#    x 1.586760 0.000000 0.000000 
#    y 0.000000 1.586760 0.000000 
#    z 0.000000 0.000000 1.489330 
# 
# From -- ./inp_files/6649.got.cif
#   From: 2010.03.12/outbox.cif.g09.slc.cpg/sg192_4_cif.got.tgz:6649.got - 2010.04.01 12:16:15.
