data_PCOD8329295
_publ_section_title
;
Structure prediction by ZEFSAII (Michael W. Deem and Ramdas Pophale) SiO2 
 PCOD8329295
Probable space group: P 6/M M M
;
_chemical_formula_sum "Si O2"
_cell_formula_units_Z 192
_cell_length_a 23.207107
_cell_length_b 23.207107
_cell_length_c 29.319389
_cell_angle_alpha 90.000000
_cell_angle_beta 90.000000
_cell_angle_gamma 120.000000
_cell_volume 13675.006977
_symmetry_space_group_name_H-M "P 6/M M M"
_symmetry_group_IT_number 191
_symmetry_cell_setting 'hexagonal'
loop_
_space_group_symop_operation_xyz
x,y,z
x-y,x,z
-y,x-y,z
-x,-y,z
-x+y,-x,z
y,-x+y,z
x-y,-y,-z
-x,-x+y,-z
y,x,-z
-y,-x,-z
-x+y,y,-z
x,x-y,-z
-x,-y,-z
-x+y,-x,-z
y,-x+y,-z
x,y,-z
x-y,x,-z
-y,x-y,-z
-x+y,y,z
x,x-y,z
-y,-x,z
y,x,z
x-y,-y,z
-x,-x+y,z
loop_
_atom_site_type_symbol
_atom_site_label
_atom_site_fract_x
_atom_site_fract_y
_atom_site_fract_z
Si Si1 0.200252 0.533314 0.553480
Si Si2 0.531629 0.605202 0.609478
Si Si3 0.577728 0.722338 0.778988
Si Si4 0.926851 0.197563 0.779544
Si Si5 0.533288 0.333934 0.947753
Si Si6 0.141394 0.721996 0.118634
Si Si7 0.470796 0.395034 0.712830
Si Si8 0.727231 0.927387 0.888060
O O1 0.188525 0.520426 0.500000
O O2 0.264347 0.528694 0.569632
O O3 0.213106 0.606553 0.566242
O O4 0.133737 0.475294 0.577926
O O5 0.463850 0.536151 0.607420
O O6 0.590891 0.590891 0.593272
O O7 0.545688 0.632196 0.661172
O O8 0.554898 0.777449 0.775558
O O9 0.654173 0.753621 0.763787
O O10 0.567416 0.692344 0.830256
O O11 0.533883 0.662596 0.745121
O O12 0.876917 0.123084 0.761013
O O13 0.927241 0.195434 0.833864
O O14 0.000000 0.222950 0.759025
O O15 0.545204 0.272602 0.939024
O O16 0.600272 0.399729 0.933949
O O17 0.474775 0.329680 0.915961
O O18 0.513409 0.335775 0.000000
O O19 0.210203 0.789798 0.121236
O O20 0.087280 0.740430 0.099484
O O21 0.545858 0.454143 0.716398
O O22 0.420161 0.420161 0.728421
O O23 0.742115 0.871058 0.908549
O O24 0.780535 0.000000 0.907940
#
# Coordination Sequence:
#
# PCOD8329295 Si02
#       8
#    24  24  24  24  24  24  24  24
#     4   9  16  25  38  56  76  96 119 150 187 223
#     4   8  15  27  39  51  69  94 123 152 183 220
#     4   9  16  25  38  55  73  94 121 153 187 220
#     4   8  13  21  34  52  72  92 114 142 174 205
#     4   9  16  26  41  59  77  97 122 152 185 219
#     4   8  15  26  38  55  77  98 122 152 182 213
#     4   9  17  28  40  53  71  95 122 154 189 222
#     4   8  13  22  37  55  73  93 117 144 172 202
#
# _framework density 14.040212
#
# number of rings (size 3 to 8) (size 9 to 14) (size 15 to 20)
#    0.000    3.500    0.000    2.875    0.000    2.750 
#    0.000    1.250    0.000    1.250    0.000    2.625 
#    0.000    0.000    0.000    0.000    0.000    0.000 
#
# Total GULP energy -2379246.718526 kJ/mol
# GULP energy per Si atom -12391.909992 kJ/mol
# Density = 1.400826 g / cm^3
# Si number density = 14.040212 Si / 1000 Ang^3
#
#
#
# Elastic Constant Matrix: (Units=GPa)
#
#
# Indices 1 2 3 4 5 6 
#
# 1 80.8221 46.2846 36.7040 0.0000 0.0000 0.0000
# 2 46.2846 80.8221 36.7040 0.0000 0.0000 0.0000
# 3 36.7040 36.7040 47.1226 0.0000 0.0000 0.0000
# 4 0.0000 0.0000 0.0000 15.9109 0.0000 0.0000
# 5 0.0000 0.0000 0.0000 0.0000 15.9109 0.0000
# 6 0.0000 0.0000 0.0000 0.0000 0.0000 17.2688
#
#
#
# Elastic Compliance Matrix: (Units=1/GPa)
#
#
# Indices 1 2 3 4 5 6 
#
# 1 0.021627 -0.007327 -0.011139 0.000000 0.000000 0.000000
# 2 -0.007327 0.021627 -0.011139 0.000000 0.000000 0.000000
# 3 -0.011139 -0.011139 0.038573 0.000000 0.000000 0.000000
# 4 0.000000 0.000000 0.000000 0.062850 0.000000 0.000000
# 5 0.000000 0.000000 0.000000 0.000000 0.062850 0.000000
# 6 0.000000 0.000000 0.000000 0.000000 0.000000 0.057908
#
#
# Mechanical properties :
#
#
# Convention : Reuss Voigt Hill
#
# Bulk Modulus (GPa) = 44.21001 49.79468 47.00235
# Shear Modulus (GPa) = 15.05194 15.75639 15.40417
#
# Velocity S-wave (km/s) = 3.27778 3.35361 3.31591
# Velocity P-wave (km/s) = 6.77360 7.10903 6.94334
#
# Compressibility (1/GPa) = 0.02261931
#
# Stress axis : x y z
#
# Youngs Moduli (GPa) = 46.23817 46.23817 25.92488
#
# Poissons Ratio (x) = 0.33878 0.28877
# Poissons Ratio (y) = 0.33878 0.28877
# Poissons Ratio (z) = 0.51503 0.51503
#
# Static dielectric constant tensor:
#      x y z
#    x 2.850650 0.000000 0.000000 
#    y 0.000000 2.850650 0.000000 
#    z 0.000000 0.000000 2.604930 
# 
# 
# High freq. dielectric constant tensor:
#      x y z
#    x 1.521880 0.000000 0.000000 
#    y 0.000000 1.521880 0.000000 
#    z 0.000000 0.000000 1.507700 
# 
# From -- ./inp_files/10159.got.cif
#   From: 2010.03.12/outbox.cif.g09.slc.cpg/sg191_6_cif.got.tgz:10159.got - 2010.04.01 12:09:02.
