data_PCOD8329947
_publ_section_title
;
Structure prediction by ZEFSAII (Michael W. Deem and Ramdas Pophale) SiO2 
 PCOD8329947
Probable space group: P 63/M C M
;
_chemical_formula_sum "Si O2"
_cell_formula_units_Z 168
_cell_length_a 21.110677
_cell_length_b 21.110677
_cell_length_c 28.102802
_cell_angle_alpha 90.000000
_cell_angle_beta 90.000000
_cell_angle_gamma 120.000000
_cell_volume 10846.374041
_symmetry_space_group_name_H-M "P 63/M C M"
_symmetry_group_IT_number 193
_symmetry_cell_setting 'hexagonal'
loop_
_space_group_symop_operation_xyz
x,y,z
x-y,x,1/2+z
-y,x-y,z
-x,-y,1/2+z
-x+y,-x,z
y,-x+y,1/2+z
x-y,-y,1/2-z
-x,-x+y,1/2-z
y,x,1/2-z
-y,-x,-z
-x+y,y,-z
x,x-y,-z
-x,-y,-z
-x+y,-x,1/2-z
y,-x+y,-z
x,y,1/2-z
x-y,x,-z
-y,x-y,1/2-z
-x+y,y,1/2+z
x,x-y,1/2+z
-y,-x,1/2+z
y,x,z
x-y,-y,z
-x,-x+y,z
loop_
_atom_site_type_symbol
_atom_site_label
_atom_site_fract_x
_atom_site_fract_y
_atom_site_fract_z
Si Si1 0.692897 0.156057 0.193627
Si Si2 0.782404 0.700302 0.305602
Si Si3 0.547135 0.719644 0.350982
Si Si4 0.576328 0.164633 0.552264
Si Si5 0.755677 0.498768 0.946975
Si Si6 0.921325 0.702160 0.305871
Si Si7 0.449402 0.913567 0.355097
O O1 0.683773 0.154277 0.250000
O O2 0.750131 0.239330 0.177462
O O3 0.730220 0.109992 0.174799
O O4 0.613378 0.120359 0.170842
O O5 0.767371 0.680280 0.250000
O O6 0.758357 0.758357 0.321173
O O7 0.738191 0.626863 0.335015
O O8 0.868167 0.734488 0.317796
O O9 0.553709 0.743065 0.406864
O O10 0.498936 0.634205 0.338444
O O11 0.564519 0.129037 0.500000
O O12 0.660555 0.229730 0.553332
O O13 0.528505 0.201162 0.567158
O O14 0.552317 0.097249 0.588115
O O15 0.767377 0.534755 0.000000
O O16 0.929859 0.698988 0.250000
O O17 0.000000 0.755087 0.329768
O O18 0.485281 0.000000 0.343266
#
# Coordination Sequence:
#
# PCOD8329947 Si02
#       7
#    24  24  24  24  24  24  24
#     4  10  20  34  48  65  91 124 160 196 235 278
#     4   9  17  29  46  67  92 124 157 184 216 270
#     4  10  19  33  48  66  92 122 161 198 236 282
#     4   9  17  30  48  70  93 119 155 198 247 293
#     4   9  16  28  48  68  87 116 155 202 244 288
#     4   8  14  26  45  65  85 113 150 190 224 259
#     4  11  22  33  48  71  97 125 157 198 248 292
#
# _framework density 15.489046999999999
#
# number of rings (size 3 to 8) (size 9 to 14) (size 15 to 20)
#    0.000    2.571    1.429    2.429    0.000    3.429 
#    0.857    0.000    0.000    0.286    0.000    2.000 
#    0.000    0.000    0.000    0.000    0.000    0.714 
#
# Total GULP energy -2081369.077375 kJ/mol
# GULP energy per Si atom -12389.101651 kJ/mol
# Density = 1.545379 g / cm^3
# Si number density = 15.489047 Si / 1000 Ang^3
#
#
#
# Elastic Constant Matrix: (Units=GPa)
#
#
# Indices 1 2 3 4 5 6 
#
# 1 104.6867 66.5712 38.1207 0.0000 0.0000 0.0000
# 2 66.5712 104.6867 38.1207 0.0000 0.0000 0.0000
# 3 38.1207 38.1207 67.1636 0.0000 0.0000 0.0000
# 4 0.0000 0.0000 0.0000 15.6542 0.0000 0.0000
# 5 0.0000 0.0000 0.0000 0.0000 15.6542 0.0000
# 6 0.0000 0.0000 0.0000 0.0000 0.0000 19.0578
#
#
#
# Elastic Compliance Matrix: (Units=1/GPa)
#
#
# Indices 1 2 3 4 5 6 
#
# 1 0.017025 -0.009211 -0.004435 0.000000 0.000000 0.000000
# 2 -0.009211 0.017025 -0.004435 0.000000 0.000000 0.000000
# 3 -0.004435 -0.004435 0.019923 0.000000 0.000000 0.000000
# 4 0.000000 0.000000 0.000000 0.063880 0.000000 0.000000
# 5 0.000000 0.000000 0.000000 0.000000 0.063880 0.000000
# 6 0.000000 0.000000 0.000000 0.000000 0.000000 0.052472
#
#
# Mechanical properties :
#
#
# Convention : Reuss Voigt Hill
#
# Bulk Modulus (GPa) = 56.14497 62.46249 59.30373
# Shear Modulus (GPa) = 18.09600 18.98821 18.54211
#
# Velocity S-wave (km/s) = 3.42176 3.50510 3.46368
# Velocity P-wave (km/s) = 7.20681 7.53627 7.37338
#
# Compressibility (1/GPa) = 0.01781104
#
# Stress axis : x y z
#
# Youngs Moduli (GPa) = 58.73809 58.73809 50.19284
#
# Poissons Ratio (x) = 0.54105 0.22259
# Poissons Ratio (y) = 0.54105 0.22259
# Poissons Ratio (z) = 0.26049 0.26049
#
# Static dielectric constant tensor:
#      x y z
#    x 3.018890 0.000000 0.000000 
#    y 0.000000 3.018890 0.000000 
#    z 0.000000 0.000000 3.030060 
# 
# 
# High freq. dielectric constant tensor:
#      x y z
#    x 1.582440 0.000000 0.000000 
#    y 0.000000 1.582440 0.000000 
#    z 0.000000 0.000000 1.584850 
# 
# From -- ./inp_files/8533.got.cif
#   From: 2010.03.12/outbox.cif.g09.slc.cpg/sg193_5_cif.got.tgz:8533.got - 2010.04.01 12:20:39.
