data_PCOD8329151
_publ_section_title
;
Structure prediction by ZEFSAII (Michael W. Deem and Ramdas Pophale) SiO2 
 PCOD8329151
Probable space group: P 6/M M M
;
_chemical_formula_sum "Si O2"
_cell_formula_units_Z 102
_cell_length_a 21.633618
_cell_length_b 21.633618
_cell_length_c 14.326857
_cell_angle_alpha 90.000000
_cell_angle_beta 90.000000
_cell_angle_gamma 120.000000
_cell_volume 5806.840155
_symmetry_space_group_name_H-M "P 6/M M M"
_symmetry_group_IT_number 191
_symmetry_cell_setting 'hexagonal'
loop_
_space_group_symop_operation_xyz
x,y,z
x-y,x,z
-y,x-y,z
-x,-y,z
-x+y,-x,z
y,-x+y,z
x-y,-y,-z
-x,-x+y,-z
y,x,-z
-y,-x,-z
-x+y,y,-z
x,x-y,-z
-x,-y,-z
-x+y,-x,-z
y,-x+y,-z
x,y,-z
x-y,x,-z
-y,x-y,-z
-x+y,y,z
x,x-y,z
-y,-x,z
y,x,z
x-y,-y,z
-x,-x+y,z
loop_
_atom_site_type_symbol
_atom_site_label
_atom_site_fract_x
_atom_site_fract_y
_atom_site_fract_z
Si Si1 0.476249 0.809380 0.798863
Si Si2 0.878135 0.612914 0.692449
Si Si3 0.734276 0.734276 0.807450
Si Si4 0.700634 0.542206 0.000000
Si Si5 0.315481 0.231882 0.500000
Si Si6 0.329489 0.329489 0.000000
Si Si7 0.857528 0.857528 0.895392
O O1 0.406990 0.813980 0.774493
O O2 0.460832 0.730416 0.774432
O O3 0.538798 0.869244 0.731886
O O4 0.494459 0.825268 0.908016
O O5 0.801998 0.603996 0.705508
O O6 0.905619 0.632728 0.586670
O O7 0.929934 0.676792 0.757379
O O8 0.713323 0.713323 0.912148
O O9 0.807828 0.807828 0.812378
O O10 0.788313 0.576626 0.000000
O O11 0.669404 0.595683 0.000000
O O12 0.248278 0.248278 0.500000
O O13 0.290862 0.145431 0.500000
O O14 0.866508 0.933254 0.878864
O O15 0.828652 0.828652 0.000000
#
# Coordination Sequence:
#
# PCOD8329151 Si02
#       7
#    24  24  12  12  12   6  12
#     4  10  20  36  57  81 110 146 187 229 276 329
#     4  10  21  36  57  82 108 139 180 232 276 325
#     4  12  20  34  54  77 105 144 184 223 272 326
#     4  10  21  35  52  77 113 152 191 233 271 324
#     4  10  20  38  63  86 111 143 187 233 281 332
#     4  12  22  32  53  80 111 150 184 222 272 316
#     4  10  21  34  49  71 104 144 185 226 269 319
#
# _framework density 17.565491999999999
#
# number of rings (size 3 to 8) (size 9 to 14) (size 15 to 20)
#    0.000    1.647    4.118    1.412    0.000    1.412 
#    0.000    4.706    0.000    0.824    0.000    1.647 
#    0.000    0.000    0.000    0.000    0.000    0.000 
#
# Total GULP energy -1263832.360353 kJ/mol
# GULP energy per Si atom -12390.513337 kJ/mol
# Density = 1.752551 g / cm^3
# Si number density = 17.565492 Si / 1000 Ang^3
#
#
#
# Elastic Constant Matrix: (Units=GPa)
#
#
# Indices 1 2 3 4 5 6 
#
# 1 114.8704 52.2504 48.8271 0.0000 0.0000 0.0000
# 2 52.2504 114.8704 48.8271 0.0000 0.0000 0.0000
# 3 48.8271 48.8271 122.3391 0.0000 0.0000 0.0000
# 4 0.0000 0.0000 0.0000 21.9618 0.0000 0.0000
# 5 0.0000 0.0000 0.0000 0.0000 21.9618 0.0000
# 6 0.0000 0.0000 0.0000 0.0000 0.0000 31.3100
#
#
#
# Elastic Compliance Matrix: (Units=1/GPa)
#
#
# Indices 1 2 3 4 5 6 
#
# 1 0.011886 -0.004083 -0.003115 0.000000 0.000000 0.000000
# 2 -0.004083 0.011886 -0.003115 0.000000 0.000000 0.000000
# 3 -0.003115 -0.003115 0.010660 0.000000 0.000000 0.000000
# 4 0.000000 0.000000 0.000000 0.045534 0.000000 0.000000
# 5 0.000000 0.000000 0.000000 0.000000 0.045534 0.000000
# 6 0.000000 0.000000 0.000000 0.000000 0.000000 0.031939
#
#
# Mechanical properties :
#
#
# Convention : Reuss Voigt Hill
#
# Bulk Modulus (GPa) = 72.41534 72.43213 72.42373
# Shear Modulus (GPa) = 27.37236 28.52505 27.94870
#
# Velocity S-wave (km/s) = 3.95182 4.03417 3.99320
# Velocity P-wave (km/s) = 7.88276 7.93879 7.91082
#
# Compressibility (1/GPa) = 0.01380923
#
# Stress axis : x y z
#
# Youngs Moduli (GPa) = 84.12915 84.12915 93.80772
#
# Poissons Ratio (x) = 0.34349 0.29217
# Poissons Ratio (y) = 0.34349 0.29217
# Poissons Ratio (z) = 0.26202 0.26202
#
# Static dielectric constant tensor:
#      x y z
#    x 3.274400 0.000000 0.000000 
#    y 0.000000 3.274400 0.000000 
#    z 0.000000 0.000000 3.285590 
# 
# 
# High freq. dielectric constant tensor:
#      x y z
#    x 1.675220 0.000000 0.000000 
#    y 0.000000 1.675220 0.000000 
#    z 0.000000 0.000000 1.681250 
# 
# From -- ./inp_files/4386.got.cif
#   From: 2010.03.12/outbox.cif.g09.slc.cpg/sg191_3_cif.got.tgz:4386.got - 2010.04.01 12:09:02.
