data_PCOD8329338
_publ_section_title
;
Structure prediction by ZEFSAII (Michael W. Deem and Ramdas Pophale) SiO2 
 PCOD8329338
Probable space group: P 6/M M M
;
_chemical_formula_sum "Si O2"
_cell_formula_units_Z 120
_cell_length_a 23.326995
_cell_length_b 23.326995
_cell_length_c 15.737551
_cell_angle_alpha 90.000000
_cell_angle_beta 90.000000
_cell_angle_gamma 120.000000
_cell_volume 7416.267306
_symmetry_space_group_name_H-M "P 6/M M M"
_symmetry_group_IT_number 191
_symmetry_cell_setting 'hexagonal'
loop_
_space_group_symop_operation_xyz
x,y,z
x-y,x,z
-y,x-y,z
-x,-y,z
-x+y,-x,z
y,-x+y,z
x-y,-y,-z
-x,-x+y,-z
y,x,-z
-y,-x,-z
-x+y,y,-z
x,x-y,-z
-x,-y,-z
-x+y,-x,-z
y,-x+y,-z
x,y,-z
x-y,x,-z
-y,x-y,-z
-x+y,y,z
x,x-y,z
-y,-x,z
y,x,z
x-y,-y,z
-x,-x+y,z
loop_
_atom_site_type_symbol
_atom_site_label
_atom_site_fract_x
_atom_site_fract_y
_atom_site_fract_z
Si Si1 0.921531 0.598908 0.656444
Si Si2 0.604434 0.525288 0.500000
Si Si3 0.078469 0.677376 0.843556
Si Si4 0.920854 0.525288 0.000000
Si Si5 0.201033 0.274836 0.599935
Si Si6 0.201034 0.274836 0.900065
O O1 0.892071 0.542432 0.584010
O O2 0.896759 0.566633 0.750000
O O3 0.899828 0.653632 0.642130
O O4 0.000000 0.635179 0.650930
O O5 0.566354 0.566354 0.500000
O O6 0.552828 0.447173 0.500000
O O7 0.107929 0.650360 0.915990
O O8 0.100171 0.753804 0.857870
O O9 0.000000 0.635178 0.849070
O O10 0.894345 0.447173 0.000000
O O11 0.000000 0.566355 0.000000
O O12 0.212666 0.284974 0.500000
O O13 0.124622 0.249244 0.624451
O O14 0.221146 0.221146 0.632425
O O15 0.124622 0.249244 0.875550
O O16 0.221146 0.221146 0.867576
O O17 0.212667 0.284975 0.000000
#
# Coordination Sequence:
#
# PCOD8329338 Si02
#       6
#    24  12  24  12  24  24
#     4   9  16  26  40  58  81 109 141 175 212 257
#     4   9  16  26  39  56  81 110 138 165 192 230
#     4   9  16  26  40  58  81 109 141 175 212 257
#     4   9  16  26  39  56  81 110 138 165 192 230
#     4   9  16  27  43  61  83 113 151 195 242 291
#     4   9  16  27  43  61  83 113 151 195 242 291
#
# _framework density 16.180647
#
# number of rings (size 3 to 8) (size 9 to 14) (size 15 to 20)
#    0.000    3.000    2.000    0.000    0.000    1.600 
#    0.000    4.000    0.000    0.400    0.000    2.800 
#    0.000    0.000    0.000   14.800    0.000   24.000 
#
# Total GULP energy -1487067.148162 kJ/mol
# GULP energy per Si atom -12392.226235 kJ/mol
# Density = 1.614382 g / cm^3
# Si number density = 16.180647 Si / 1000 Ang^3
#
#
#
# Elastic Constant Matrix: (Units=GPa)
#
#
# Indices 1 2 3 4 5 6 
#
# 1 72.9507 40.6044 40.5224 0.0000 0.0000 0.0000
# 2 40.6044 72.9507 40.5224 0.0000 0.0000 0.0000
# 3 40.5224 40.5224 101.5065 0.0000 0.0000 0.0000
# 4 0.0000 0.0000 0.0000 8.8223 0.0000 0.0000
# 5 0.0000 0.0000 0.0000 0.0000 8.8223 0.0000
# 6 0.0000 0.0000 0.0000 0.0000 0.0000 16.1731
#
#
#
# Elastic Compliance Matrix: (Units=1/GPa)
#
#
# Indices 1 2 3 4 5 6 
#
# 1 0.021615 -0.009300 -0.004916 0.000000 0.000000 0.000000
# 2 -0.009300 0.021615 -0.004916 0.000000 0.000000 0.000000
# 3 -0.004916 -0.004916 0.013777 0.000000 0.000000 0.000000
# 4 0.000000 0.000000 0.000000 0.113349 0.000000 0.000000
# 5 0.000000 0.000000 0.000000 0.000000 0.113349 0.000000
# 6 0.000000 0.000000 0.000000 0.000000 0.000000 0.061831
#
#
# Mechanical properties :
#
#
# Convention : Reuss Voigt Hill
#
# Bulk Modulus (GPa) = 53.35666 54.52295 53.93981
# Shear Modulus (GPa) = 12.81887 15.14745 13.98316
#
# Velocity S-wave (km/s) = 2.81772 3.06297 2.94290
# Velocity P-wave (km/s) = 6.60555 6.80284 6.70492
#
# Compressibility (1/GPa) = 0.01874180
#
# Stress axis : x y z
#
# Youngs Moduli (GPa) = 46.26359 46.26359 72.58541
#
# Poissons Ratio (x) = 0.43026 0.35685
# Poissons Ratio (y) = 0.43026 0.35685
# Poissons Ratio (z) = 0.22745 0.22745
#
# Static dielectric constant tensor:
#      x y z
#    x 2.846520 0.000000 0.000000 
#    y 0.000000 2.846520 0.000000 
#    z 0.000000 0.000000 3.332470 
# 
# 
# High freq. dielectric constant tensor:
#      x y z
#    x 1.577470 0.000000 0.000000 
#    y 0.000000 1.577470 0.000000 
#    z 0.000000 0.000000 1.637640 
# 
# From -- ./inp_files/4812.got.cif
#   From: 2010.03.12/outbox.cif.g09.slc.cpg/sg191_3_cif.got.tgz:4812.got - 2010.04.01 12:09:02.
