data_PCOD8329136
_publ_section_title
;
Structure prediction by ZEFSAII (Michael W. Deem and Ramdas Pophale) SiO2 
 PCOD8329136
Probable space group: P 6/M M M
;
_chemical_formula_sum "Si O2"
_cell_formula_units_Z 120
_cell_length_a 17.518695
_cell_length_b 17.518695
_cell_length_c 25.074256
_cell_angle_alpha 90.000000
_cell_angle_beta 90.000000
_cell_angle_gamma 120.000000
_cell_volume 6664.417414
_symmetry_space_group_name_H-M "P 6/M M M"
_symmetry_group_IT_number 191
_symmetry_cell_setting 'hexagonal'
loop_
_space_group_symop_operation_xyz
x,y,z
x-y,x,z
-y,x-y,z
-x,-y,z
-x+y,-x,z
y,-x+y,z
x-y,-y,-z
-x,-x+y,-z
y,x,-z
-y,-x,-z
-x+y,y,-z
x,x-y,-z
-x,-y,-z
-x+y,-x,-z
y,-x+y,-z
x,y,-z
x-y,x,-z
-y,x-y,-z
-x+y,y,z
x,x-y,z
-y,-x,z
y,x,z
x-y,-y,z
-x,-x+y,z
loop_
_atom_site_type_symbol
_atom_site_label
_atom_site_fract_x
_atom_site_fract_y
_atom_site_fract_z
Si Si1 0.159937 0.491102 0.557202
Si Si2 0.652831 0.652831 0.936859
Si Si3 0.898754 0.533765 0.331336
Si Si4 0.370951 0.101212 0.232065
Si Si5 0.173360 0.173360 0.063519
Si Si6 0.486890 0.333102 0.130299
O O1 0.124064 0.439414 0.500000
O O2 0.263865 0.527730 0.561586
O O3 0.141128 0.570564 0.556766
O O4 0.113536 0.433559 0.610001
O O5 0.739982 0.739982 0.914799
O O6 0.653830 0.566242 0.917532
O O7 0.651698 0.651698 0.000000
O O8 0.852827 0.426414 0.329148
O O9 0.861866 0.570577 0.285772
O O10 0.000000 0.573211 0.318829
O O11 0.329771 0.164886 0.221655
O O12 0.436591 0.110026 0.184998
O O13 0.292085 0.000000 0.236632
O O14 0.173585 0.086793 0.085357
O O15 0.172935 0.172935 0.000000
O O16 0.493813 0.246907 0.118827
O O17 0.584173 0.415828 0.133750
#
# Coordination Sequence:
#
# PCOD8329136 Si02
#       6
#    24  12  24  24  12  24
#     4   9  16  25  37  55  83 121 163 204 245 290
#     4  11  23  39  59  81 109 145 182 215 257 317
#     4   9  17  28  44  67  94 125 163 206 251 300
#     4  10  20  35  56  79 103 132 168 210 257 308
#     4   9  17  31  53  81 111 141 175 216 259 303
#     4  11  23  39  59  83 110 141 177 220 265 310
#
# _framework density 18.006074999999999
#
# number of rings (size 3 to 8) (size 9 to 14) (size 15 to 20)
#    0.000    2.200    1.000    2.600    0.000    4.400 
#    0.000    2.000    0.000    7.800    0.000    0.000 
#    0.000    0.000    0.000    0.000    0.000    0.000 
#
# Total GULP energy -1487090.715732 kJ/mol
# GULP energy per Si atom -12392.422631 kJ/mol
# Density = 1.796509 g / cm^3
# Si number density = 18.006075 Si / 1000 Ang^3
#
#
#
# Elastic Constant Matrix: (Units=GPa)
#
#
# Indices 1 2 3 4 5 6 
#
# 1 88.8842 41.9931 30.9430 0.0000 0.0000 0.0000
# 2 41.9931 88.8842 30.9430 0.0000 0.0000 0.0000
# 3 30.9430 30.9430 105.9050 0.0000 0.0000 0.0000
# 4 0.0000 0.0000 0.0000 18.7423 0.0000 0.0000
# 5 0.0000 0.0000 0.0000 0.0000 18.7423 0.0000
# 6 0.0000 0.0000 0.0000 0.0000 0.0000 23.4456
#
#
#
# Elastic Compliance Matrix: (Units=1/GPa)
#
#
# Indices 1 2 3 4 5 6 
#
# 1 0.015096 -0.006230 -0.002590 0.000000 0.000000 0.000000
# 2 -0.006230 0.015096 -0.002590 0.000000 0.000000 0.000000
# 3 -0.002590 -0.002590 0.010956 0.000000 0.000000 0.000000
# 4 0.000000 0.000000 0.000000 0.053355 0.000000 0.000000
# 5 0.000000 0.000000 0.000000 0.000000 0.053355 0.000000
# 6 0.000000 0.000000 0.000000 0.000000 0.000000 0.042652
#
#
# Mechanical properties :
#
#
# Convention : Reuss Voigt Hill
#
# Bulk Modulus (GPa) = 54.56732 54.60351 54.58541
# Shear Modulus (GPa) = 22.78525 24.17235 23.47880
#
# Velocity S-wave (km/s) = 3.56113 3.66793 3.61493
# Velocity P-wave (km/s) = 6.87602 6.95192 6.91407
#
# Compressibility (1/GPa) = 0.01832599
#
# Stress axis : x y z
#
# Youngs Moduli (GPa) = 66.24366 66.24366 91.27349
#
# Poissons Ratio (x) = 0.41271 0.23643
# Poissons Ratio (y) = 0.41271 0.23643
# Poissons Ratio (z) = 0.17159 0.17159
#
# Static dielectric constant tensor:
#      x y z
#    x 3.238150 0.000000 0.000000 
#    y 0.000000 3.238150 0.000000 
#    z 0.000000 0.000000 3.634070 
# 
# 
# High freq. dielectric constant tensor:
#      x y z
#    x 1.678210 0.000000 0.000000 
#    y 0.000000 1.678210 0.000000 
#    z 0.000000 0.000000 1.709400 
# 
# From -- ./inp_files/8541.got.cif
#   From: 2010.03.12/outbox.cif.g09.slc.cpg/sg191_5_cif.got.tgz:8541.got - 2010.04.01 12:09:02.
