data_PCOD8329436
_publ_section_title
;
Structure prediction by ZEFSAII (Michael W. Deem and Ramdas Pophale) SiO2 
 PCOD8329436
Probable space group: P 6/M C C
;
_chemical_formula_sum "Si O2"
_cell_formula_units_Z 128
_cell_length_a 20.860688
_cell_length_b 20.860688
_cell_length_c 17.763948
_cell_angle_alpha 90.000000
_cell_angle_beta 90.000000
_cell_angle_gamma 120.000000
_cell_volume 6694.642345
_symmetry_space_group_name_H-M "P 6/M C C"
_symmetry_group_IT_number 192
_symmetry_cell_setting 'hexagonal'
loop_
_space_group_symop_operation_xyz
x,y,z
x-y,x,z
-y,x-y,z
-x,-y,z
-x+y,-x,z
y,-x+y,z
x-y,-y,1/2-z
-x,-x+y,1/2-z
y,x,1/2-z
-y,-x,1/2-z
-x+y,y,1/2-z
x,x-y,1/2-z
-x,-y,-z
-x+y,-x,-z
y,-x+y,-z
x,y,-z
x-y,x,-z
-y,x-y,-z
-x+y,y,1/2+z
x,x-y,1/2+z
-y,-x,1/2+z
y,x,1/2+z
x-y,-y,1/2+z
-x,-x+y,1/2+z
loop_
_atom_site_type_symbol
_atom_site_label
_atom_site_fract_x
_atom_site_fract_y
_atom_site_fract_z
Si Si1 0.834953 0.165047 0.160560
Si Si2 0.415988 0.083486 0.339708
Si Si3 0.333334 0.666668 0.839748
Si Si4 0.083480 0.667498 0.160291
Si Si5 0.085327 0.170646 0.411825
Si Si6 0.583159 0.416848 0.839808
O O1 0.835761 0.164240 0.250000
O O2 0.751198 0.124308 0.129663
O O3 0.875703 0.248802 0.129662
O O4 0.876464 0.123522 0.131994
O O5 0.416833 0.083928 0.250000
O O6 0.499553 0.125110 0.370998
O O7 0.374436 0.000003 0.370870
O O8 0.333334 0.666667 0.750000
O O9 0.249840 0.624927 0.870765
O O10 0.125107 0.625560 0.129001
O O11 0.123902 0.123898 0.387622
O O12 0.093683 0.187357 0.500000
O O13 0.582921 0.417080 0.750000
#
# Coordination Sequence:
#
# PCOD8329436 Si02
#       6
#    24  24   8  24  24  24
#     4  10  19  31  48  72 100 126 155 196 244 287
#     4   9  16  25  38  58  86 119 151 184 225 272
#     4   9  15  21  30  45  69 105 145 182 217 252
#     4   9  16  25  38  58  86 119 151 184 225 272
#     4  10  21  37  55  73  94 123 159 197 238 289
#     4   9  15  23  35  54  84 121 157 189 223 266
#
# _framework density 19.119767
#
# number of rings (size 3 to 8) (size 9 to 14) (size 15 to 20)
#    0.000    2.625    0.000    3.000    0.000    9.750 
#    0.000    0.000    0.000    1.125    0.000    1.312 
#    0.000    6.000    0.000    0.000    0.000    0.000 
#
# Total GULP energy -1587234.533340 kJ/mol
# GULP energy per Si atom -12400.269792 kJ/mol
# Density = 1.907625 g / cm^3
# Si number density = 19.119767 Si / 1000 Ang^3
#
#
#
# Elastic Constant Matrix: (Units=GPa)
#
#
# Indices 1 2 3 4 5 6 
#
# 1 208.0378 110.3917 13.4750 0.0000 0.0000 0.0001
# 2 110.3917 208.0385 13.4749 0.0001 0.0000 0.0000
# 3 13.4750 13.4749 5.5638 0.0000 0.0000 0.0000
# 4 0.0000 0.0001 0.0000 8.9405 0.0000 0.0000
# 5 0.0000 0.0000 0.0000 0.0000 8.9406 0.0000
# 6 0.0001 0.0000 0.0000 0.0000 0.0000 48.8229
#
#
#
# Elastic Compliance Matrix: (Units=1/GPa)
#
#
# Indices 1 2 3 4 5 6 
#
# 1 0.007096 -0.003145 -0.009567 0.000000 0.000000 0.000000
# 2 -0.003145 0.007096 -0.009567 0.000000 0.000000 0.000000
# 3 -0.009567 -0.009567 0.226071 0.000000 0.000000 0.000000
# 4 0.000000 0.000000 0.000000 0.111850 0.000000 0.000000
# 5 0.000000 0.000000 0.000000 0.000000 0.111849 0.000000
# 6 0.000000 0.000000 0.000000 0.000000 0.000000 0.020482
#
#
# Mechanical properties :
#
#
# Convention : Reuss Voigt Hill
#
# Bulk Modulus (GPa) = 5.10973 77.36924 41.23948
# Shear Modulus (GPa) = 8.41415 32.29403 20.35409
#
# Velocity S-wave (km/s) = 2.10007 4.11425 3.26630
# Velocity P-wave (km/s) = 2.92553 7.94499 5.98672
#
# Compressibility (1/GPa) = 0.19570510
#
# Stress axis : x y z
#
# Youngs Moduli (GPa) = 140.93313 140.93380 4.42338
#
# Poissons Ratio (x) = 0.44330 0.04232
# Poissons Ratio (y) = 0.44330 0.04232
# Poissons Ratio (z) = 1.34826 1.34825
#
# Static dielectric constant tensor:
#      x y z
#    x 3.770120 0.000000 0.000000 
#    y 0.000000 3.770120 0.000000 
#    z 0.000000 0.000000 2.692840 
# 
# 
# High freq. dielectric constant tensor:
#      x y z
#    x 1.765950 0.000000 0.000000 
#    y 0.000000 1.765950 0.000000 
#    z 0.000000 0.000000 1.658900 
# 
# From -- ./inp_files/5004.got.cif
#   From: 2010.03.12/outbox.cif.g09.slc.cpg/sg192_3_cif.got.tgz:5004.got - 2010.04.01 12:16:15.
