data_PCOD8329331
_publ_section_title
;
Structure prediction by ZEFSAII (Michael W. Deem and Ramdas Pophale) SiO2 
 PCOD8329331
Probable space group: P 6/M M M
;
_chemical_formula_sum "Si O2"
_cell_formula_units_Z 96
_cell_length_a 30.868723
_cell_length_b 30.868723
_cell_length_c 7.721652
_cell_angle_alpha 90.000000
_cell_angle_beta 90.000000
_cell_angle_gamma 120.000000
_cell_volume 6372.035459
_symmetry_space_group_name_H-M "P 6/M M M"
_symmetry_group_IT_number 191
_symmetry_cell_setting 'hexagonal'
loop_
_space_group_symop_operation_xyz
x,y,z
x-y,x,z
-y,x-y,z
-x,-y,z
-x+y,-x,z
y,-x+y,z
x-y,-y,-z
-x,-x+y,-z
y,x,-z
-y,-x,-z
-x+y,y,-z
x,x-y,-z
-x,-y,-z
-x+y,-x,-z
y,-x+y,-z
x,y,-z
x-y,x,-z
-y,x-y,-z
-x+y,y,z
x,x-y,z
-y,-x,z
y,x,z
x-y,-y,z
-x,-x+y,z
loop_
_atom_site_type_symbol
_atom_site_label
_atom_site_fract_x
_atom_site_fract_y
_atom_site_fract_z
Si Si1 0.090099 0.281973 0.000000
Si Si2 0.055708 0.846175 0.696380
Si Si3 0.820563 0.538575 0.307960
Si Si4 0.248528 0.393325 0.000000
Si Si5 0.666483 0.235615 0.794498
O O1 0.061231 0.252773 0.826441
O O2 0.144155 0.288310 0.000000
O O3 0.096940 0.337294 0.000000
O O4 0.063760 0.833136 0.500000
O O5 0.096019 0.903982 0.740751
O O6 0.000000 0.838171 0.718149
O O7 0.842932 0.556700 0.500000
O O8 0.767972 0.535944 0.284642
O O9 0.859013 0.578088 0.169638
O O10 0.810653 0.482713 0.275200
O O11 0.195996 0.391992 0.000000
O O12 0.614444 0.228888 0.723725
O O13 0.711530 0.288471 0.725559
O O14 0.667298 0.234905 0.000000
#
# Coordination Sequence:
#
# PCOD8329331 Si02
#       5
#    12  24  24  12  24
#     4   9  17  27  42  61  81 106 139 176 210 242
#     4   9  17  29  45  66  92 120 149 179 208 235
#     4   9  16  25  36  48  64  89 120 156 201 250
#     4   9  16  27  38  51  71  93 122 163 204 242
#     4   9  15  23  34  47  64  87 120 163 208 250
#
# _framework density 15.065829000000001
#
# number of rings (size 3 to 8) (size 9 to 14) (size 15 to 20)
#    0.000    3.000    1.250    0.625    0.000    2.500 
#    0.000    5.000    0.000    1.750    0.000    1.750 
#    0.000    3.000    0.000    0.250    0.000   10.000 
#
# Total GULP energy -1189754.430918 kJ/mol
# GULP energy per Si atom -12393.275322 kJ/mol
# Density = 1.503154 g / cm^3
# Si number density = 15.065829 Si / 1000 Ang^3
#
#
#
# Elastic Constant Matrix: (Units=GPa)
#
#
# Indices 1 2 3 4 5 6 
#
# 1 68.4272 43.8099 41.4310 0.0000 0.0000 0.0000
# 2 43.8099 68.4272 41.4310 0.0000 0.0000 0.0000
# 3 41.4310 41.4310 100.8501 0.0000 0.0000 0.0000
# 4 0.0000 0.0000 0.0000 12.0204 0.0000 0.0000
# 5 0.0000 0.0000 0.0000 0.0000 12.0204 0.0000
# 6 0.0000 0.0000 0.0000 0.0000 0.0000 12.3086
#
#
#
# Elastic Compliance Matrix: (Units=1/GPa)
#
#
# Indices 1 2 3 4 5 6 
#
# 1 0.026705 -0.013917 -0.005254 0.000000 0.000000 0.000000
# 2 -0.013917 0.026705 -0.005254 0.000000 0.000000 0.000000
# 3 -0.005254 -0.005254 0.014232 0.000000 0.000000 0.000000
# 4 0.000000 0.000000 0.000000 0.083192 0.000000 0.000000
# 5 0.000000 0.000000 0.000000 0.000000 0.083192 0.000000
# 6 0.000000 0.000000 0.000000 0.000000 0.000000 0.081244
#
#
# Mechanical properties :
#
#
# Convention : Reuss Voigt Hill
#
# Bulk Modulus (GPa) = 53.20754 54.56092 53.88423
# Shear Modulus (GPa) = 13.49954 14.67206 14.08580
#
# Velocity S-wave (km/s) = 2.99664 3.12406 3.06101
# Velocity P-wave (km/s) = 6.88233 7.02187 6.95245
#
# Compressibility (1/GPa) = 0.01879433
#
# Stress axis : x y z
#
# Youngs Moduli (GPa) = 37.44597 37.44597 70.26245
#
# Poissons Ratio (x) = 0.52113 0.36914
# Poissons Ratio (y) = 0.52113 0.36914
# Poissons Ratio (z) = 0.19673 0.19673
#
# Static dielectric constant tensor:
#      x y z
#    x 2.747840 0.000000 0.000000 
#    y 0.000000 2.747840 0.000000 
#    z 0.000000 0.000000 3.072190 
# 
# 
# High freq. dielectric constant tensor:
#      x y z
#    x 1.536180 0.000000 0.000000 
#    y 0.000000 1.536180 0.000000 
#    z 0.000000 0.000000 1.594530 
# 
# From -- ./inp_files/1530.got.cif
#   From: 2010.03.12/outbox.cif.g09.slc.cpg/sg191_1_cif.got.tgz:1530.got - 2010.04.01 12:09:02.
