data_PCOD8329184
_publ_section_title
;
Structure prediction by ZEFSAII (Michael W. Deem and Ramdas Pophale) SiO2 
 PCOD8329184
Probable space group: P 6/M M M
;
_chemical_formula_sum "Si O2"
_cell_formula_units_Z 168
_cell_length_a 18.323383
_cell_length_b 18.323383
_cell_length_c 34.627796
_cell_angle_alpha 90.000000
_cell_angle_beta 90.000000
_cell_angle_gamma 120.000000
_cell_volume 10068.546981
_symmetry_space_group_name_H-M "P 6/M M M"
_symmetry_group_IT_number 191
_symmetry_cell_setting 'hexagonal'
loop_
_space_group_symop_operation_xyz
x,y,z
x-y,x,z
-y,x-y,z
-x,-y,z
-x+y,-x,z
y,-x+y,z
x-y,-y,-z
-x,-x+y,-z
y,x,-z
-y,-x,-z
-x+y,y,-z
x,x-y,-z
-x,-y,-z
-x+y,-x,-z
y,-x+y,-z
x,y,-z
x-y,x,-z
-y,x-y,-z
-x+y,y,z
x,x-y,z
-y,-x,z
y,x,z
x-y,-y,z
-x,-x+y,z
loop_
_atom_site_type_symbol
_atom_site_label
_atom_site_fract_x
_atom_site_fract_y
_atom_site_fract_z
Si Si1 0.255904 0.907007 0.543974
Si Si2 0.907006 0.255905 0.956026
Si Si3 0.166077 0.666824 0.187168
Si Si4 0.638904 0.903999 0.749999
Si Si5 0.500748 0.666824 0.687167
Si Si6 0.666259 0.165587 0.098598
Si Si7 0.165587 0.666259 0.401403
O O1 0.275478 0.893328 0.500000
O O2 0.159570 0.840431 0.555156
O O3 0.320464 0.897406 0.571607
O O4 0.268972 0.000000 0.549726
O O5 0.840431 0.159570 0.944845
O O6 0.897405 0.320463 0.928392
O O7 0.000000 0.268973 0.950274
O O8 0.893328 0.275480 0.000000
O O9 0.153692 0.576846 0.199967
O O10 0.264015 0.735985 0.193316
O O11 0.107621 0.690155 0.212465
O O12 0.138717 0.664656 0.142931
O O13 0.671260 0.835630 0.749999
O O14 0.582535 0.892382 0.712464
O O15 0.718102 0.000000 0.750000
O O16 0.471972 0.735986 0.693316
O O17 0.423154 0.576847 0.699966
O O18 0.525939 0.664657 0.642930
O O19 0.579049 0.158097 0.086309
O O20 0.738813 0.261188 0.091605
O O21 0.158097 0.579049 0.413692
O O22 0.261188 0.738813 0.408397
#
# Coordination Sequence:
#
# PCOD8329184 Si02
#       7
#    24  24  24  24  24  24  24
#     4   9  18  32  48  65  86 113 145 182 226 274
#     4   9  18  32  48  65  86 113 145 182 226 274
#     4   9  17  29  46  68  95 126 156 183 211 248
#     4  10  21  35  49  66  89 117 148 184 227 271
#     4   9  17  29  46  68  95 126 156 183 211 248
#     4   9  17  29  45  66  93 125 158 187 213 244
#     4   9  17  29  45  66  93 125 158 187 213 244
#
# _framework density 16.685625999999999
#
# number of rings (size 3 to 8) (size 9 to 14) (size 15 to 20)
#    0.000    2.857    0.000    1.000    0.000    5.714 
#    0.000    5.714    0.000    2.143    0.000    2.000 
#    0.000    0.000    0.000   14.286    0.000    7.429 
#
# Total GULP energy -2082876.563793 kJ/mol
# GULP energy per Si atom -12398.074784 kJ/mol
# Density = 1.664765 g / cm^3
# Si number density = 16.685626 Si / 1000 Ang^3
#
#
#
# Elastic Constant Matrix: (Units=GPa)
#
#
# Indices 1 2 3 4 5 6 
#
# 1 92.6949 63.8676 42.7015 0.0000 0.0000 0.0000
# 2 63.8676 92.6949 42.7015 0.0000 0.0000 0.0000
# 3 42.7015 42.7015 69.7529 0.0000 0.0000 0.0000
# 4 0.0000 0.0000 0.0000 20.0960 0.0000 0.0000
# 5 0.0000 0.0000 0.0000 0.0000 20.0960 0.0000
# 6 0.0000 0.0000 0.0000 0.0000 0.0000 14.4136
#
#
#
# Elastic Compliance Matrix: (Units=1/GPa)
#
#
# Indices 1 2 3 4 5 6 
#
# 1 0.022139 -0.012550 -0.005871 0.000000 0.000000 0.000000
# 2 -0.012550 0.022139 -0.005871 0.000000 0.000000 0.000000
# 3 -0.005871 -0.005871 0.021524 0.000000 0.000000 0.000000
# 4 0.000000 0.000000 0.000000 0.049761 0.000000 0.000000
# 5 0.000000 0.000000 0.000000 0.000000 0.049761 0.000000
# 6 0.000000 0.000000 0.000000 0.000000 0.000000 0.069379
#
#
# Mechanical properties :
#
#
# Convention : Reuss Voigt Hill
#
# Bulk Modulus (GPa) = 58.06895 61.52042 59.79468
# Shear Modulus (GPa) = 17.29945 17.97925 17.63935
#
# Velocity S-wave (km/s) = 3.22341 3.28614 3.25492
# Velocity P-wave (km/s) = 6.98077 7.16579 7.07389
#
# Compressibility (1/GPa) = 0.01722091
#
# Stress axis : x y z
#
# Youngs Moduli (GPa) = 45.16818 45.16818 46.45974
#
# Poissons Ratio (x) = 0.56686 0.27274
# Poissons Ratio (y) = 0.56686 0.27274
# Poissons Ratio (z) = 0.26516 0.26516
#
# Static dielectric constant tensor:
#      x y z
#    x 3.015170 0.000000 0.000000 
#    y 0.000000 3.015170 0.000000 
#    z 0.000000 0.000000 3.319620 
# 
# 
# High freq. dielectric constant tensor:
#      x y z
#    x 1.623100 0.000000 0.000000 
#    y 0.000000 1.623100 0.000000 
#    z 0.000000 0.000000 1.653680 
# 
# From -- ./inp_files/10735.got.cif
#   From: 2010.03.12/outbox.cif.g09.slc.cpg/sg191_6_cif.got.tgz:10735.got - 2010.04.01 12:09:02.
