data_PCOD8329938
_publ_section_title
;
Structure prediction by ZEFSAII (Michael W. Deem and Ramdas Pophale) SiO2 
 PCOD8329938
Probable space group: P 63/M C M
;
_chemical_formula_sum "Si O2"
_cell_formula_units_Z 96
_cell_length_a 15.244932
_cell_length_b 15.244932
_cell_length_c 25.448232
_cell_angle_alpha 90.000000
_cell_angle_beta 90.000000
_cell_angle_gamma 120.000000
_cell_volume 5121.995943
_symmetry_space_group_name_H-M "P 63/M C M"
_symmetry_group_IT_number 193
_symmetry_cell_setting 'hexagonal'
loop_
_space_group_symop_operation_xyz
x,y,z
x-y,x,1/2+z
-y,x-y,z
-x,-y,1/2+z
-x+y,-x,z
y,-x+y,1/2+z
x-y,-y,1/2-z
-x,-x+y,1/2-z
y,x,1/2-z
-y,-x,-z
-x+y,y,-z
x,x-y,-z
-x,-y,-z
-x+y,-x,1/2-z
y,-x+y,-z
x,y,1/2-z
x-y,x,-z
-y,x-y,1/2-z
-x+y,y,1/2+z
x,x-y,1/2+z
-y,-x,1/2+z
y,x,z
x-y,-y,z
-x,-x+y,z
loop_
_atom_site_type_symbol
_atom_site_label
_atom_site_fract_x
_atom_site_fract_y
_atom_site_fract_z
Si Si1 0.768441 0.884221 0.500000
Si Si2 0.356879 0.114287 0.901645
Si Si3 0.442226 0.782632 0.750000
Si Si4 0.432879 0.551124 0.442049
Si Si5 0.119973 0.683697 0.646805
O O1 0.838796 0.838796 0.482783
O O2 0.697645 0.873169 0.451921
O O3 0.468762 0.141247 0.917650
O O4 0.366605 0.194297 0.857320
O O5 0.292700 0.000000 0.878787
O O6 0.326997 0.763304 0.750000
O O7 0.499479 0.847605 0.699600
O O8 0.415448 0.584553 0.500000
O O9 0.508439 0.508439 0.448255
O O10 0.486560 0.646535 0.402726
O O11 0.000000 0.635795 0.646977
#
# Coordination Sequence:
#
# PCOD8329938 Si02
#       5
#    12  24  12  24  24
#     4  10  19  32  52  80 116 156 197 236 282 340
#     4  10  20  34  53  80 114 152 191 236 287 342
#     4  10  23  40  60  82 111 140 180 234 286 338
#     4   9  18  32  52  79 112 150 191 233 282 337
#     4  11  21  37  60  84 113 148 189 235 286 344
#
# _framework density 18.742692999999999
#
# number of rings (size 3 to 8) (size 9 to 14) (size 15 to 20)
#    0.250    1.750    0.000    4.250    0.000    4.000 
#    1.500    1.875    2.750    0.500    0.000    0.000 
#    0.000    0.000    0.000    0.000    0.000    0.000 
#
# Total GULP energy -1190242.805623 kJ/mol
# GULP energy per Si atom -12398.362559 kJ/mol
# Density = 1.870003 g / cm^3
# Si number density = 18.742693 Si / 1000 Ang^3
#
#
#
# Elastic Constant Matrix: (Units=GPa)
#
#
# Indices 1 2 3 4 5 6 
#
# 1 101.3093 45.3933 38.2195 0.0000 0.0000 0.0000
# 2 45.3933 101.3093 38.2195 0.0000 0.0000 0.0000
# 3 38.2195 38.2195 106.6099 0.0000 0.0000 0.0000
# 4 0.0000 0.0000 0.0000 24.0697 0.0000 0.0000
# 5 0.0000 0.0000 0.0000 0.0000 24.0697 0.0000
# 6 0.0000 0.0000 0.0000 0.0000 0.0000 27.9580
#
#
#
# Elastic Compliance Matrix: (Units=1/GPa)
#
#
# Indices 1 2 3 4 5 6 
#
# 1 0.013133 -0.004751 -0.003005 0.000000 0.000000 0.000000
# 2 -0.004751 0.013133 -0.003005 0.000000 0.000000 0.000000
# 3 -0.003005 -0.003005 0.011535 0.000000 0.000000 0.000000
# 4 0.000000 0.000000 0.000000 0.041546 0.000000 0.000000
# 5 0.000000 0.000000 0.000000 0.000000 0.041546 0.000000
# 6 0.000000 0.000000 0.000000 0.000000 0.000000 0.035768
#
#
# Mechanical properties :
#
#
# Convention : Reuss Voigt Hill
#
# Bulk Modulus (GPa) = 61.42882 61.43258 61.43070
# Shear Modulus (GPa) = 27.23180 27.71257 27.47218
#
# Velocity S-wave (km/s) = 3.81587 3.84940 3.83267
# Velocity P-wave (km/s) = 7.22914 7.25294 7.24105
#
# Compressibility (1/GPa) = 0.01627900
#
# Stress axis : x y z
#
# Youngs Moduli (GPa) = 76.14339 76.14339 86.69571
#
# Poissons Ratio (x) = 0.36174 0.26052
# Poissons Ratio (y) = 0.36174 0.26052
# Poissons Ratio (z) = 0.22881 0.22881
#
# Static dielectric constant tensor:
#      x y z
#    x 3.564470 0.000000 0.000000 
#    y 0.000000 3.564470 0.000000 
#    z 0.000000 0.000000 3.064260 
# 
# 
# High freq. dielectric constant tensor:
#      x y z
#    x 1.730210 0.000000 0.000000 
#    y 0.000000 1.730210 0.000000 
#    z 0.000000 0.000000 1.710150 
# 
# From -- ./inp_files/8147.got.cif
#   From: 2010.03.12/outbox.cif.g09.slc.cpg/sg193_5_cif.got.tgz:8147.got - 2010.04.01 12:20:39.
