data_PCOD8329403
_publ_section_title
;
Structure prediction by ZEFSAII (Michael W. Deem and Ramdas Pophale) SiO2 
 PCOD8329403
Probable space group: P 6/M C C
;
_chemical_formula_sum "Si O2"
_cell_formula_units_Z 152
_cell_length_a 18.161658
_cell_length_b 18.161658
_cell_length_c 28.101688
_cell_angle_alpha 90.000000
_cell_angle_beta 90.000000
_cell_angle_gamma 120.000000
_cell_volume 8027.383768
_symmetry_space_group_name_H-M "P 6/M C C"
_symmetry_group_IT_number 192
_symmetry_cell_setting 'hexagonal'
loop_
_space_group_symop_operation_xyz
x,y,z
x-y,x,z
-y,x-y,z
-x,-y,z
-x+y,-x,z
y,-x+y,z
x-y,-y,1/2-z
-x,-x+y,1/2-z
y,x,1/2-z
-y,-x,1/2-z
-x+y,y,1/2-z
x,x-y,1/2-z
-x,-y,-z
-x+y,-x,-z
y,-x+y,-z
x,y,-z
x-y,x,-z
-y,x-y,-z
-x+y,y,1/2+z
x,x-y,1/2+z
-y,-x,1/2+z
y,x,1/2+z
x-y,-y,1/2+z
-x,-x+y,1/2+z
loop_
_atom_site_type_symbol
_atom_site_label
_atom_site_fract_x
_atom_site_fract_y
_atom_site_fract_z
Si Si1 0.666667 0.333334 0.443516
Si Si2 0.118876 0.930201 0.600403
Si Si3 0.407146 0.987142 0.106382
Si Si4 0.323956 0.318237 0.696907
Si Si5 0.815379 0.509913 0.054077
Si Si6 0.251092 0.361362 0.053544
Si Si7 0.870140 0.740116 0.303394
O O1 0.666667 0.333334 0.500000
O O2 0.583784 0.248396 0.425419
O O3 0.181105 0.896240 0.584863
O O4 0.111593 0.924778 0.657979
O O5 0.024516 0.870361 0.579955
O O6 0.339523 0.893385 0.089742
O O7 0.500000 0.000000 0.101888
O O8 0.389362 0.001380 0.160677
O O9 0.397475 0.051966 0.072472
O O10 0.353905 0.353905 0.750000
O O11 0.229616 0.302278 0.685199
O O12 0.327655 0.231012 0.692726
O O13 0.765541 0.561039 0.054971
O O14 0.845303 0.506666 0.000000
O O15 0.245868 0.327570 0.000000
O O16 0.889910 0.779820 0.250000
#
# Coordination Sequence:
#
# PCOD8329403 Si02
#       7
#     8  24  24  24  24  24  24
#     4   9  18  36  57  81 117 157 188 229 294 363
#     4  12  23  37  55  83 122 161 204 247 295 352
#     4  12  24  37  59  90 119 147 189 246 301 359
#     4  10  21  37  59  87 118 156 196 243 294 355
#     4  10  21  37  58  84 115 151 191 236 292 353
#     4  11  23  40  62  84 114 156 203 250 294 352
#     4  10  18  33  59  85 113 153 199 241 291 344
#
# _framework density 18.935185000000001
#
# number of rings (size 3 to 8) (size 9 to 14) (size 15 to 20)
#    0.000    1.263    3.158    3.474    0.000    4.737 
#    0.000    0.000    0.000    1.895    0.000    0.000 
#    0.000    0.000    0.000    0.000    0.000    0.000 
#
# Total GULP energy -1884700.386521 kJ/mol
# GULP energy per Si atom -12399.344648 kJ/mol
# Density = 1.889209 g / cm^3
# Si number density = 18.935185 Si / 1000 Ang^3
#
#
#
# Elastic Constant Matrix: (Units=GPa)
#
#
# Indices 1 2 3 4 5 6 
#
# 1 94.5592 31.6376 38.1917 0.0001 0.0000 0.0000
# 2 31.6376 94.5579 38.1916 0.0001 -0.0001 -0.0002
# 3 38.1917 38.1916 91.9801 0.0000 0.0000 0.0000
# 4 0.0001 0.0001 0.0000 18.2845 0.0001 0.0000
# 5 0.0000 -0.0001 0.0000 0.0001 18.2846 0.0000
# 6 0.0000 -0.0002 0.0000 0.0000 0.0000 31.4602
#
#
#
# Elastic Compliance Matrix: (Units=1/GPa)
#
#
# Indices 1 2 3 4 5 6 
#
# 1 0.013238 -0.002654 -0.004395 0.000000 0.000000 0.000000
# 2 -0.002654 0.013239 -0.004395 0.000000 0.000000 0.000000
# 3 -0.004395 -0.004395 0.014521 0.000000 0.000000 0.000000
# 4 0.000000 0.000000 0.000000 0.054691 0.000000 0.000000
# 5 0.000000 0.000000 0.000000 0.000000 0.054691 0.000000
# 6 0.000000 0.000000 0.000000 0.000000 0.000000 0.031786
#
#
# Mechanical properties :
#
#
# Convention : Reuss Voigt Hill
#
# Bulk Modulus (GPa) = 55.21536 55.23767 55.22651
# Shear Modulus (GPa) = 23.68642 25.14427 24.41534
#
# Velocity S-wave (km/s) = 3.54067 3.64801 3.59474
# Velocity P-wave (km/s) = 6.77781 6.85414 6.81608
#
# Compressibility (1/GPa) = 0.01811090
#
# Stress axis : x y z
#
# Youngs Moduli (GPa) = 75.53748 75.53617 68.86364
#
# Poissons Ratio (x) = 0.20050 0.30263
# Poissons Ratio (y) = 0.20051 0.30264
# Poissons Ratio (z) = 0.33196 0.33196
#
# Static dielectric constant tensor:
#      x y z
#    x 3.494950 0.000000 0.000000 
#    y 0.000000 3.494960 0.000000 
#    z 0.000000 0.000000 3.597760 
# 
# 
# High freq. dielectric constant tensor:
#      x y z
#    x 1.731740 0.000000 0.000000 
#    y 0.000000 1.731740 0.000000 
#    z 0.000000 0.000000 1.734120 
# 
# From -- ./inp_files/7119.got.cif
#   From: 2010.03.12/outbox.cif.g09.slc.cpg/sg192_4_cif.got.tgz:7119.got - 2010.04.01 12:16:15.
