data_PCOD8329263
_publ_section_title
;
Structure prediction by ZEFSAII (Michael W. Deem and Ramdas Pophale) SiO2 
 PCOD8329263
Probable space group: P 6/M M M
;
_chemical_formula_sum "Si O2"
_cell_formula_units_Z 84
_cell_length_a 20.919632
_cell_length_b 20.919632
_cell_length_c 14.084760
_cell_angle_alpha 90.000000
_cell_angle_beta 90.000000
_cell_angle_gamma 120.000000
_cell_volume 5338.117929
_symmetry_space_group_name_H-M "P 6/M M M"
_symmetry_group_IT_number 191
_symmetry_cell_setting 'hexagonal'
loop_
_space_group_symop_operation_xyz
x,y,z
x-y,x,z
-y,x-y,z
-x,-y,z
-x+y,-x,z
y,-x+y,z
x-y,-y,-z
-x,-x+y,-z
y,x,-z
-y,-x,-z
-x+y,y,-z
x,x-y,-z
-x,-y,-z
-x+y,-x,-z
y,-x+y,-z
x,y,-z
x-y,x,-z
-y,x-y,-z
-x+y,y,z
x,x-y,z
-y,-x,z
y,x,z
x-y,-y,z
-x,-x+y,z
loop_
_atom_site_type_symbol
_atom_site_label
_atom_site_fract_x
_atom_site_fract_y
_atom_site_fract_z
Si Si1 0.222416 0.918261 0.607898
Si Si2 0.544999 0.845850 0.289542
Si Si3 0.467376 0.382808 0.107370
Si Si4 0.457045 0.542956 0.612654
O O1 0.245648 0.912909 0.500000
O O2 0.135208 0.864793 0.623047
O O3 0.268347 0.896569 0.677090
O O4 0.239317 0.000000 0.632648
O O5 0.518181 0.759091 0.304603
O O6 0.542937 0.861313 0.178003
O O7 0.495533 0.869555 0.349592
O O8 0.546895 0.453106 0.126193
O O9 0.404995 0.404995 0.126109
O O10 0.461540 0.353888 0.000000
O O11 0.500000 0.500000 0.648132
O O12 0.455945 0.544056 0.500000
#
# Coordination Sequence:
#
# PCOD8329263 Si02
#       4
#    24  24  24  12
#     4   9  17  29  46  68  94 122 151 187 231 278
#     4  11  21  32  48  71  98 125 157 198 246 295
#     4   9  17  31  52  72  89 116 158 204 242 280
#     4  11  22  36  55  73  91 125 172 214 247 291
#
# _framework density 15.735882999999999
#
# number of rings (size 3 to 8) (size 9 to 14) (size 15 to 20)
#    0.000    2.143    1.429    4.286    0.000    4.571 
#    0.857    0.000    0.000    0.286    0.000    2.000 
#    0.000    0.000    0.000    0.000    0.000    0.000 
#
# Total GULP energy -1041405.972835 kJ/mol
# GULP energy per Si atom -12397.690153 kJ/mol
# Density = 1.570007 g / cm^3
# Si number density = 15.735883 Si / 1000 Ang^3
#
#
#
# Elastic Constant Matrix: (Units=GPa)
#
#
# Indices 1 2 3 4 5 6 
#
# 1 104.5724 65.4520 47.3118 0.0000 0.0000 0.0000
# 2 65.4520 104.5724 47.3118 0.0000 0.0000 0.0000
# 3 47.3118 47.3118 91.6720 0.0000 0.0000 0.0000
# 4 0.0000 0.0000 0.0000 20.6389 0.0000 0.0000
# 5 0.0000 0.0000 0.0000 0.0000 20.6389 0.0000
# 6 0.0000 0.0000 0.0000 0.0000 0.0000 19.5602
#
#
#
# Elastic Compliance Matrix: (Units=1/GPa)
#
#
# Indices 1 2 3 4 5 6 
#
# 1 0.016907 -0.008655 -0.004259 0.000000 0.000000 0.000000
# 2 -0.008655 0.016907 -0.004259 0.000000 0.000000 0.000000
# 3 -0.004259 -0.004259 0.015304 0.000000 0.000000 0.000000
# 4 0.000000 0.000000 0.000000 0.048452 0.000000 0.000000
# 5 0.000000 0.000000 0.000000 0.000000 0.048452 0.000000
# 6 0.000000 0.000000 0.000000 0.000000 0.000000 0.051124
#
#
# Mechanical properties :
#
#
# Convention : Reuss Voigt Hill
#
# Bulk Modulus (GPa) = 67.69183 68.99645 68.34414
# Shear Modulus (GPa) = 21.14921 21.55037 21.34979
#
# Velocity S-wave (km/s) = 3.67005 3.70470 3.68742
# Velocity P-wave (km/s) = 7.81473 7.88933 7.85211
#
# Compressibility (1/GPa) = 0.01477283
#
# Stress axis : x y z
#
# Youngs Moduli (GPa) = 59.14772 59.14772 65.34157
#
# Poissons Ratio (x) = 0.51194 0.27826
# Poissons Ratio (y) = 0.51194 0.27826
# Poissons Ratio (z) = 0.25189 0.25189
#
# Static dielectric constant tensor:
#      x y z
#    x 2.997460 0.000000 0.000000 
#    y 0.000000 2.997460 0.000000 
#    z 0.000000 0.000000 3.132990 
# 
# 
# High freq. dielectric constant tensor:
#      x y z
#    x 1.590040 0.000000 0.000000 
#    y 0.000000 1.590040 0.000000 
#    z 0.000000 0.000000 1.613330 
# 
# From -- ./inp_files/3982.got.cif
#   From: 2010.03.12/outbox.cif.g09.slc.cpg/sg191_2_cif.got.tgz:3982.got - 2010.04.01 12:09:02.
