data_PCOD8329410
_publ_section_title
;
Structure prediction by ZEFSAII (Michael W. Deem and Ramdas Pophale) SiO2 
 PCOD8329410
Probable space group: P 6/M C C
;
_chemical_formula_sum "Si O2"
_cell_formula_units_Z 168
_cell_length_a 18.061290
_cell_length_b 18.061290
_cell_length_c 30.599099
_cell_angle_alpha 90.000000
_cell_angle_beta 90.000000
_cell_angle_gamma 120.000000
_cell_volume 8644.438765
_symmetry_space_group_name_H-M "P 6/M C C"
_symmetry_group_IT_number 192
_symmetry_cell_setting 'hexagonal'
loop_
_space_group_symop_operation_xyz
x,y,z
x-y,x,z
-y,x-y,z
-x,-y,z
-x+y,-x,z
y,-x+y,z
x-y,-y,1/2-z
-x,-x+y,1/2-z
y,x,1/2-z
-y,-x,1/2-z
-x+y,y,1/2-z
x,x-y,1/2-z
-x,-y,-z
-x+y,-x,-z
y,-x+y,-z
x,y,-z
x-y,x,-z
-y,x-y,-z
-x+y,y,1/2+z
x,x-y,1/2+z
-y,-x,1/2+z
y,x,1/2+z
x-y,-y,1/2+z
-x,-x+y,1/2+z
loop_
_atom_site_type_symbol
_atom_site_label
_atom_site_fract_x
_atom_site_fract_y
_atom_site_fract_z
Si Si1 0.000000 0.635079 0.250000
Si Si2 0.814393 0.492574 0.905347
Si Si3 0.487652 0.652973 0.633340
Si Si4 0.176185 0.665564 0.236075
Si Si5 0.939329 0.270966 0.158184
Si Si6 0.429648 0.668430 0.000000
Si Si7 0.207422 0.887429 0.878272
Si Si8 0.802376 0.907493 0.549703
O O1 0.916251 0.543686 0.239744
O O2 0.970885 0.667201 0.292512
O O3 0.854404 0.439538 0.882683
O O4 0.718802 0.464010 0.889533
O O5 0.813644 0.481977 0.957614
O O6 0.876346 0.588849 0.890572
O O7 0.489875 0.663097 0.684713
O O8 0.585006 0.671056 0.626469
O O9 0.236632 0.763369 0.250000
O O10 0.217271 0.608636 0.250000
O O11 0.853128 0.177486 0.159706
O O12 0.015207 0.261851 0.136660
O O13 0.416726 0.751609 0.000000
O O14 0.149277 0.867199 0.921042
O O15 0.856570 0.862657 0.560693
O O16 0.770438 0.892162 0.500000
#
# Coordination Sequence:
#
# PCOD8329410 Si02
#       8
#    12  24  24  24  24  12  24  24
#     4  10  25  40  60  86 122 161 200 250 307 360
#     4  11  21  36  60  83 122 152 210 242 292 346
#     4  10  21  38  57  87 113 164 194 251 290 346
#     4  11  23  38  59  89 121 158 203 253 305 356
#     4  10  24  40  63  86 119 157 199 243 304 359
#     4  10  18  36  58  83 113 157 207 252 284 341
#     4  11  23  39  61  90 117 159 193 245 300 364
#     4  10  20  38  63  92 120 148 191 243 303 366
#
# _framework density 19.434460000000001
#
# number of rings (size 3 to 8) (size 9 to 14) (size 15 to 20)
#    0.143    1.429    2.857    1.643    9.000    1.143 
#    0.000    0.000    1.571    0.857    0.000    0.000 
#    0.000    2.286    0.000    0.000    0.000    0.071 
#
# Total GULP energy -2082160.700834 kJ/mol
# GULP energy per Si atom -12393.813695 kJ/mol
# Density = 1.939023 g / cm^3
# Si number density = 19.434460 Si / 1000 Ang^3
#
#
#
# Elastic Constant Matrix: (Units=GPa)
#
#
# Indices 1 2 3 4 5 6 
#
# 1 99.6720 43.0867 37.9011 0.0000 0.0000 0.0000
# 2 43.0867 99.6720 37.9011 0.0000 0.0000 0.0000
# 3 37.9011 37.9011 104.7166 0.0000 0.0000 0.0000
# 4 0.0000 0.0000 0.0000 28.6069 0.0000 0.0000
# 5 0.0000 0.0000 0.0000 0.0000 28.6069 0.0000
# 6 0.0000 0.0000 0.0000 0.0000 0.0000 28.2926
#
#
#
# Elastic Compliance Matrix: (Units=1/GPa)
#
#
# Indices 1 2 3 4 5 6 
#
# 1 0.013172 -0.004501 -0.003138 0.000000 0.000000 0.000000
# 2 -0.004501 0.013172 -0.003138 0.000000 0.000000 0.000000
# 3 -0.003138 -0.003138 0.011821 0.000000 0.000000 0.000000
# 4 0.000000 0.000000 0.000000 0.034957 0.000000 0.000000
# 5 0.000000 0.000000 0.000000 0.000000 0.034957 0.000000
# 6 0.000000 0.000000 0.000000 0.000000 0.000000 0.035345
#
#
# Mechanical properties :
#
#
# Convention : Reuss Voigt Hill
#
# Bulk Modulus (GPa) = 60.20423 60.20425 60.20424
# Shear Modulus (GPa) = 29.32293 29.44608 29.38451
#
# Velocity S-wave (km/s) = 3.88856 3.89671 3.89264
# Velocity P-wave (km/s) = 7.15587 7.16179 7.15883
#
# Compressibility (1/GPa) = 0.01661013
#
# Stress axis : x y z
#
# Youngs Moduli (GPa) = 75.91932 75.91932 84.59187
#
# Poissons Ratio (x) = 0.34168 0.26549
# Poissons Ratio (y) = 0.34168 0.26549
# Poissons Ratio (z) = 0.23827 0.23827
#
# Static dielectric constant tensor:
#      x y z
#    x 3.152920 0.000000 0.000000 
#    y 0.000000 3.152920 0.000000 
#    z 0.000000 0.000000 3.485350 
# 
# 
# High freq. dielectric constant tensor:
#      x y z
#    x 1.754480 0.000000 0.000000 
#    y 0.000000 1.754480 0.000000 
#    z 0.000000 0.000000 1.754550 
# 
# From -- ./inp_files/7238.got.cif
#   From: 2010.03.12/outbox.cif.g09.slc.cpg/sg192_4_cif.got.tgz:7238.got - 2010.04.01 12:16:15.
