data_PCOD8329278
_publ_section_title
;
Structure prediction by ZEFSAII (Michael W. Deem and Ramdas Pophale) SiO2 
 PCOD8329278
Probable space group: P 6/M M M
;
_chemical_formula_sum "Si O2"
_cell_formula_units_Z 72
_cell_length_a 17.560839
_cell_length_b 17.560839
_cell_length_c 14.316275
_cell_angle_alpha 90.000000
_cell_angle_beta 90.000000
_cell_angle_gamma 120.000000
_cell_volume 3823.412770
_symmetry_space_group_name_H-M "P 6/M M M"
_symmetry_group_IT_number 191
_symmetry_cell_setting 'hexagonal'
loop_
_space_group_symop_operation_xyz
x,y,z
x-y,x,z
-y,x-y,z
-x,-y,z
-x+y,-x,z
y,-x+y,z
x-y,-y,-z
-x,-x+y,-z
y,x,-z
-y,-x,-z
-x+y,y,-z
x,x-y,-z
-x,-y,-z
-x+y,-x,-z
y,-x+y,-z
x,y,-z
x-y,x,-z
-y,x-y,-z
-x+y,y,z
x,x-y,z
-y,-x,z
y,x,z
x-y,-y,z
-x,-x+y,z
loop_
_atom_site_type_symbol
_atom_site_label
_atom_site_fract_x
_atom_site_fract_y
_atom_site_fract_z
Si Si1 0.098366 0.366570 0.894078
Si Si2 0.489027 0.156288 0.275220
Si Si3 0.653822 0.653822 0.610571
Si Si4 0.000000 0.827343 0.388734
O O1 0.164593 0.329185 0.875911
O O2 0.121643 0.448437 0.827133
O O3 0.000000 0.287485 0.873511
O O4 0.107136 0.401362 0.000000
O O5 0.586501 0.173002 0.275398
O O6 0.492495 0.246248 0.301433
O O7 0.431901 0.086129 0.353598
O O8 0.650788 0.650788 0.500000
O O9 0.740699 0.740699 0.648163
O O10 0.913429 0.826858 0.350260
O O11 0.000000 0.828214 0.500000
#
# Coordination Sequence:
#
# PCOD8329278 Si02
#       4
#    24  24  12  12
#     4   9  18  34  58  87 117 149 185 226 275 333
#     4  11  23  39  58  83 113 147 186 232 285 339
#     4  11  23  39  58  79 107 147 195 239 281 335
#     4   9  17  31  53  80 107 135 170 218 276 333
#
# _framework density 18.831344000000001
#
# number of rings (size 3 to 8) (size 9 to 14) (size 15 to 20)
#    0.000    2.000    1.667    2.000    0.000    4.667 
#    0.000    1.667    0.000    4.333    0.000    2.333 
#    0.000    0.000    0.000    0.000    0.000    0.000 
#
# Total GULP energy -892895.331039 kJ/mol
# GULP energy per Si atom -12401.324042 kJ/mol
# Density = 1.878848 g / cm^3
# Si number density = 18.831344 Si / 1000 Ang^3
#
#
#
# Elastic Constant Matrix: (Units=GPa)
#
#
# Indices 1 2 3 4 5 6 
#
# 1 131.8177 70.1558 47.4178 0.0000 0.0000 0.0000
# 2 70.1558 131.8177 47.4178 0.0000 0.0000 0.0000
# 3 47.4178 47.4178 83.9634 0.0000 0.0000 0.0000
# 4 0.0000 0.0000 0.0000 23.8774 0.0000 0.0000
# 5 0.0000 0.0000 0.0000 0.0000 23.8774 0.0000
# 6 0.0000 0.0000 0.0000 0.0000 0.0000 30.8309
#
#
#
# Elastic Compliance Matrix: (Units=1/GPa)
#
#
# Indices 1 2 3 4 5 6 
#
# 1 0.011478 -0.004740 -0.003805 0.000000 0.000000 0.000000
# 2 -0.004740 0.011478 -0.003805 0.000000 0.000000 0.000000
# 3 -0.003805 -0.003805 0.016208 0.000000 0.000000 0.000000
# 4 0.000000 0.000000 0.000000 0.041881 0.000000 0.000000
# 5 0.000000 0.000000 0.000000 0.000000 0.041881 0.000000
# 6 0.000000 0.000000 0.000000 0.000000 0.000000 0.032435
#
#
# Mechanical properties :
#
#
# Convention : Reuss Voigt Hill
#
# Bulk Modulus (GPa) = 69.14248 75.28686 72.21467
# Shear Modulus (GPa) = 27.04449 27.89096 27.46773
#
# Velocity S-wave (km/s) = 3.79376 3.85267 3.82333
# Velocity P-wave (km/s) = 7.48242 7.73674 7.61064
#
# Compressibility (1/GPa) = 0.01446289
#
# Stress axis : x y z
#
# Youngs Moduli (GPa) = 87.12580 87.12580 61.69854
#
# Poissons Ratio (x) = 0.41296 0.23477
# Poissons Ratio (y) = 0.41296 0.23477
# Poissons Ratio (z) = 0.33153 0.33153
#
# Static dielectric constant tensor:
#      x y z
#    x 3.530220 0.000000 0.000000 
#    y 0.000000 3.530220 0.000000 
#    z 0.000000 0.000000 3.418380 
# 
# 
# High freq. dielectric constant tensor:
#      x y z
#    x 1.733640 0.000000 0.000000 
#    y 0.000000 1.733640 0.000000 
#    z 0.000000 0.000000 1.727370 
# 
# From -- ./inp_files/3923.got.cif
#   From: 2010.03.12/outbox.cif.g09.slc.cpg/sg191_2_cif.got.tgz:3923.got - 2010.04.01 12:09:02.
