data_PCOD8329698
_publ_section_title
;
Structure prediction by ZEFSAII (Michael W. Deem and Ramdas Pophale) SiO2 
 PCOD8329698
Probable space group: P 6/M C C
;
_chemical_formula_sum "Si O2"
_cell_formula_units_Z 132
_cell_length_a 16.897201
_cell_length_b 16.897201
_cell_length_c 24.896130
_cell_angle_alpha 90.000000
_cell_angle_beta 90.000000
_cell_angle_gamma 120.000000
_cell_volume 6155.906505
_symmetry_space_group_name_H-M "P 6/M C C"
_symmetry_group_IT_number 192
_symmetry_cell_setting 'hexagonal'
loop_
_space_group_symop_operation_xyz
x,y,z
x-y,x,z
-y,x-y,z
-x,-y,z
-x+y,-x,z
y,-x+y,z
x-y,-y,1/2-z
-x,-x+y,1/2-z
y,x,1/2-z
-y,-x,1/2-z
-x+y,y,1/2-z
x,x-y,1/2-z
-x,-y,-z
-x+y,-x,-z
y,-x+y,-z
x,y,-z
x-y,x,-z
-y,x-y,-z
-x+y,y,1/2+z
x,x-y,1/2+z
-y,-x,1/2+z
y,x,1/2+z
x-y,-y,1/2+z
-x,-x+y,1/2+z
loop_
_atom_site_type_symbol
_atom_site_label
_atom_site_fract_x
_atom_site_fract_y
_atom_site_fract_z
Si Si1 0.790648 0.268326 0.660869
Si Si2 0.000000 0.500000 0.395053
Si Si3 0.833220 0.798466 0.397021
Si Si4 0.400937 0.861308 0.307736
Si Si5 0.221555 0.924150 0.788111
Si Si6 0.598514 0.895422 0.561201
O O1 0.708422 0.187554 0.693687
O O2 0.787252 0.360043 0.670936
O O3 0.882566 0.278955 0.685802
O O4 0.802043 0.254655 0.597198
O O5 0.933404 0.510655 0.354106
O O6 0.955766 0.407079 0.429795
O O7 0.820433 0.884631 0.412695
O O8 0.817388 0.781136 0.333384
O O9 0.756216 0.707656 0.427679
O O10 0.449621 0.899242 0.250000
O O11 0.139291 0.860710 0.750000
O O12 0.296865 0.000000 0.750000
O O13 0.582406 0.862587 0.500000
#
# Coordination Sequence:
#
# PCOD8329698 Si02
#       6
#    24  12  24  24  24  24
#     4  10  24  38  62  92 131 173 221 270 328 412
#     4  10  24  40  68 100 130 168 224 276 334 412
#     4  11  24  41  65  99 135 177 231 291 352 419
#     4  11  21  38  60  94 133 171 206 260 332 405
#     4  11  21  36  61  93 130 175 223 269 331 407
#     4  10  24  46  68  94 127 174 229 290 346 392
#
# _framework density 21.442820000000001
#
# number of rings (size 3 to 8) (size 9 to 14) (size 15 to 20)
#    0.000    1.455    1.818    2.727    5.091    6.545 
#    0.000    3.636    0.000    1.091    0.000    0.000 
#    0.000    0.000    0.000    0.000    0.000    0.000 
#
# Total GULP energy -1635545.566261 kJ/mol
# GULP energy per Si atom -12390.496714 kJ/mol
# Density = 2.139402 g / cm^3
# Si number density = 21.442820 Si / 1000 Ang^3
#
#
#
# Elastic Constant Matrix: (Units=GPa)
#
#
# Indices 1 2 3 4 5 6 
#
# 1 84.1532 32.8204 21.8087 0.0000 0.0000 0.0000
# 2 32.8204 84.1532 21.8087 0.0000 0.0000 0.0000
# 3 21.8087 21.8087 136.3880 0.0000 0.0000 0.0000
# 4 0.0000 0.0000 0.0000 43.9040 0.0000 0.0000
# 5 0.0000 0.0000 0.0000 0.0000 43.9040 0.0000
# 6 0.0000 0.0000 0.0000 0.0000 0.0000 25.6664
#
#
#
# Elastic Compliance Matrix: (Units=1/GPa)
#
#
# Indices 1 2 3 4 5 6 
#
# 1 0.014286 -0.005195 -0.001454 0.000000 0.000000 0.000000
# 2 -0.005195 0.014286 -0.001454 0.000000 0.000000 0.000000
# 3 -0.001454 -0.001454 0.007797 0.000000 0.000000 0.000000
# 4 0.000000 0.000000 0.000000 0.022777 0.000000 0.000000
# 5 0.000000 0.000000 0.000000 0.000000 0.022777 0.000000
# 6 0.000000 0.000000 0.000000 0.000000 0.000000 0.038961
#
#
# Mechanical properties :
#
#
# Convention : Reuss Voigt Hill
#
# Bulk Modulus (GPa) = 49.59278 50.84110 50.21694
# Shear Modulus (GPa) = 34.76814 37.91198 36.34006
#
# Velocity S-wave (km/s) = 4.03107 4.20938 4.12119
# Velocity P-wave (km/s) = 6.69658 6.88380 6.79084
#
# Compressibility (1/GPa) = 0.02016422
#
# Stress axis : x y z
#
# Youngs Moduli (GPa) = 69.99929 69.99929 128.25593
#
# Poissons Ratio (x) = 0.36364 0.18644
# Poissons Ratio (y) = 0.36364 0.18644
# Poissons Ratio (z) = 0.10176 0.10176
#
# Static dielectric constant tensor:
#      x y z
#    x 3.739010 0.000000 0.000000 
#    y 0.000000 3.739010 0.000000 
#    z 0.000000 0.000000 3.857080 
# 
# 
# High freq. dielectric constant tensor:
#      x y z
#    x 1.839980 0.000000 0.000000 
#    y 0.000000 1.839980 0.000000 
#    z 0.000000 0.000000 1.839410 
# 
# From -- ./inp_files/5843.got.cif
#   From: 2010.03.12/outbox.cif.g09.slc.cpg/sg192_3_cif.got.tgz:5843.got - 2010.04.01 12:16:15.
