data_PCOD8329090
_publ_section_title
;
Structure prediction by ZEFSAII (Michael W. Deem and Ramdas Pophale) SiO2 
 PCOD8329090
Probable space group: P 6/M M M
;
_chemical_formula_sum "Si O2"
_cell_formula_units_Z 144
_cell_length_a 22.013923
_cell_length_b 22.013923
_cell_length_c 20.096034
_cell_angle_alpha 90.000000
_cell_angle_beta 90.000000
_cell_angle_gamma 120.000000
_cell_volume 8434.044239
_symmetry_space_group_name_H-M "P 6/M M M"
_symmetry_group_IT_number 191
_symmetry_cell_setting 'hexagonal'
loop_
_space_group_symop_operation_xyz
x,y,z
x-y,x,z
-y,x-y,z
-x,-y,z
-x+y,-x,z
y,-x+y,z
x-y,-y,-z
-x,-x+y,-z
y,x,-z
-y,-x,-z
-x+y,y,-z
x,x-y,-z
-x,-y,-z
-x+y,-x,-z
y,-x+y,-z
x,y,-z
x-y,x,-z
-y,x-y,-z
-x+y,y,z
x,x-y,z
-y,-x,z
y,x,z
x-y,-y,z
-x,-x+y,z
loop_
_atom_site_type_symbol
_atom_site_label
_atom_site_fract_x
_atom_site_fract_y
_atom_site_fract_z
Si Si1 0.849441 0.293835 0.072916
Si Si2 0.920807 0.389762 0.309535
Si Si3 0.076064 0.282066 0.420953
Si Si4 0.710196 0.152341 0.576964
Si Si5 0.922945 0.711666 0.079027
Si Si6 0.810291 0.334490 0.201590
O O1 0.777281 0.222720 0.065075
O O2 0.906732 0.273267 0.097720
O O3 0.841078 0.342879 0.127010
O O4 0.869704 0.331532 0.000000
O O5 0.930008 0.465004 0.298676
O O6 0.878823 0.359338 0.378792
O O7 0.870718 0.339200 0.250953
O O8 0.000000 0.400270 0.309036
O O9 0.071201 0.278725 0.500000
O O10 0.126389 0.252777 0.395981
O O11 0.108776 0.361972 0.399118
O O12 0.000000 0.235146 0.387919
O O13 0.687403 0.138802 0.500000
O O14 0.764536 0.235465 0.588572
O O15 0.863944 0.727888 0.109298
O O16 0.000000 0.767380 0.107468
O O17 0.921873 0.716958 0.000000
O O18 0.792885 0.396443 0.214347
O O19 0.739898 0.260103 0.212764
#
# Coordination Sequence:
#
# PCOD8329090 Si02
#       6
#    24  24  24  24  24  24
#     4   8  15  28  45  66  90 115 148 191 236 282
#     4  10  21  34  47  66  93 124 155 187 225 271
#     4   8  13  21  35  56  80 105 133 167 206 245
#     4   9  17  30  49  70  89 111 144 186 228 270
#     4   8  13  22  38  60  85 114 149 188 229 273
#     4  10  20  34  51  69  92 123 157 192 233 285
#
# _framework density 17.07366
#
# number of rings (size 3 to 8) (size 9 to 14) (size 15 to 20)
#    0.000    3.167    0.000    3.167    0.000    2.333 
#    0.000    0.833    0.000    1.667    0.000    7.000 
#    0.000    0.000    0.000    0.000    0.000    0.000 
#
# Total GULP energy -1783946.290243 kJ/mol
# GULP energy per Si atom -12388.515904 kJ/mol
# Density = 1.703480 g / cm^3
# Si number density = 17.073660 Si / 1000 Ang^3
#
#
#
# Elastic Constant Matrix: (Units=GPa)
#
#
# Indices 1 2 3 4 5 6 
#
# 1 65.2250 24.9778 29.8772 0.0000 0.0000 0.0000
# 2 24.9778 65.2250 29.8772 0.0000 0.0000 0.0000
# 3 29.8772 29.8772 75.2324 0.0000 0.0000 0.0000
# 4 0.0000 0.0000 0.0000 17.2173 0.0000 0.0000
# 5 0.0000 0.0000 0.0000 0.0000 17.2173 0.0000
# 6 0.0000 0.0000 0.0000 0.0000 0.0000 20.1236
#
#
#
# Elastic Compliance Matrix: (Units=1/GPa)
#
#
# Indices 1 2 3 4 5 6 
#
# 1 0.019945 -0.004901 -0.005974 0.000000 0.000000 0.000000
# 2 -0.004901 0.019945 -0.005974 0.000000 0.000000 0.000000
# 3 -0.005974 -0.005974 0.018037 0.000000 0.000000 0.000000
# 4 0.000000 0.000000 0.000000 0.058081 0.000000 0.000000
# 5 0.000000 0.000000 0.000000 0.000000 0.058081 0.000000
# 6 0.000000 0.000000 0.000000 0.000000 0.000000 0.049693
#
#
# Mechanical properties :
#
#
# Convention : Reuss Voigt Hill
#
# Bulk Modulus (GPa) = 41.27541 41.68299 41.47920
# Shear Modulus (GPa) = 18.82822 18.97498 18.90160
#
# Velocity S-wave (km/s) = 3.32439 3.33732 3.33086
# Velocity P-wave (km/s) = 6.24202 6.27032 6.25619
#
# Compressibility (1/GPa) = 0.02422750
#
# Stress axis : x y z
#
# Youngs Moduli (GPa) = 50.13748 50.13748 55.44042
#
# Poissons Ratio (x) = 0.24574 0.33122
# Poissons Ratio (y) = 0.24574 0.33122
# Poissons Ratio (z) = 0.29954 0.29954
#
# Static dielectric constant tensor:
#      x y z
#    x 3.331320 0.000000 0.000000 
#    y 0.000000 3.331320 0.000000 
#    z 0.000000 0.000000 3.163740 
# 
# 
# High freq. dielectric constant tensor:
#      x y z
#    x 1.647010 0.000000 0.000000 
#    y 0.000000 1.647010 0.000000 
#    z 0.000000 0.000000 1.629030 
# 
# From -- ./inp_files/7622.got.cif
#   From: 2010.03.12/outbox.cif.g09.slc.cpg/sg191_4_cif.got.tgz:7622.got - 2010.04.01 12:09:02.
