data_PCOD8329096
_publ_section_title
;
Structure prediction by ZEFSAII (Michael W. Deem and Ramdas Pophale) SiO2 
 PCOD8329096
Probable space group: P 6/M M M
;
_chemical_formula_sum "Si O2"
_cell_formula_units_Z 168
_cell_length_a 28.548612
_cell_length_b 28.548612
_cell_length_c 14.194366
_cell_angle_alpha 90.000000
_cell_angle_beta 90.000000
_cell_angle_gamma 120.000000
_cell_volume 10018.821230
_symmetry_space_group_name_H-M "P 6/M M M"
_symmetry_group_IT_number 191
_symmetry_cell_setting 'hexagonal'
loop_
_space_group_symop_operation_xyz
x,y,z
x-y,x,z
-y,x-y,z
-x,-y,z
-x+y,-x,z
y,-x+y,z
x-y,-y,-z
-x,-x+y,-z
y,x,-z
-y,-x,-z
-x+y,y,-z
x,x-y,-z
-x,-y,-z
-x+y,-x,-z
y,-x+y,-z
x,y,-z
x-y,x,-z
-y,x-y,-z
-x+y,y,z
x,x-y,z
-y,-x,z
y,x,z
x-y,-y,z
-x,-x+y,z
loop_
_atom_site_type_symbol
_atom_site_label
_atom_site_fract_x
_atom_site_fract_y
_atom_site_fract_z
Si Si1 0.744239 0.062616 0.217959
Si Si2 0.333361 0.556238 0.278714
Si Si3 0.230474 0.875211 0.604476
Si Si4 0.150377 0.630121 0.105763
Si Si5 0.227619 0.166173 0.889825
Si Si6 0.335440 0.465513 0.606797
Si Si7 0.063996 0.640102 0.786750
O O1 0.757326 0.075129 0.328137
O O2 0.798778 0.086073 0.156678
O O3 0.703198 0.083875 0.189900
O O4 0.713993 0.000000 0.201182
O O5 0.279126 0.558252 0.292785
O O6 0.383282 0.616719 0.283353
O O7 0.330809 0.528351 0.177864
O O8 0.339315 0.521484 0.362235
O O9 0.227302 0.894846 0.500000
O O10 0.174443 0.825558 0.638314
O O11 0.273340 0.854607 0.608969
O O12 0.141806 0.570903 0.110897
O O13 0.092993 0.623334 0.134996
O O14 0.166241 0.654077 0.000000
O O15 0.205502 0.102751 0.865286
O O16 0.184526 0.184526 0.854799
O O17 0.236866 0.176296 0.000000
O O18 0.359016 0.471993 0.500000
O O19 0.367777 0.448774 0.680900
O O20 0.000000 0.602065 0.795582
#
# Coordination Sequence:
#
# PCOD8329096 Si02
#       7
#    24  24  24  24  24  24  24
#     4   9  17  28  42  62  89 118 146 180 221 261
#     4  10  20  34  52  72  93 117 148 187 231 280
#     4   9  16  26  42  62  83 112 149 182 213 254
#     4   9  19  35  52  70  93 120 149 185 232 280
#     4   9  17  29  45  64  87 117 151 185 223 269
#     4   9  18  32  48  66  92 123 151 185 228 269
#     4   9  18  31  48  71  95 121 156 193 225 264
#
# _framework density 16.768439999999998
#
# number of rings (size 3 to 8) (size 9 to 14) (size 15 to 20)
#    0.000    2.857    0.000    1.000    0.000    3.143 
#    0.000    5.714    0.000    1.857    0.000    5.000 
#    0.000    0.000    0.000    0.000    0.000    0.000 
#
# Total GULP energy -2082000.245330 kJ/mol
# GULP energy per Si atom -12392.858603 kJ/mol
# Density = 1.673027 g / cm^3
# Si number density = 16.768440 Si / 1000 Ang^3
#
#
#
# Elastic Constant Matrix: (Units=GPa)
#
#
# Indices 1 2 3 4 5 6 
#
# 1 51.2435 23.5874 13.6871 0.0000 0.0000 0.0000
# 2 23.5874 51.2435 13.6871 0.0000 0.0000 0.0000
# 3 13.6871 13.6871 55.0651 0.0000 0.0000 0.0000
# 4 0.0000 0.0000 0.0000 21.0625 0.0000 0.0000
# 5 0.0000 0.0000 0.0000 0.0000 21.0625 0.0000
# 6 0.0000 0.0000 0.0000 0.0000 0.0000 13.8280
#
#
#
# Elastic Compliance Matrix: (Units=1/GPa)
#
#
# Indices 1 2 3 4 5 6 
#
# 1 0.025429 -0.010729 -0.003654 0.000000 0.000000 0.000000
# 2 -0.010729 0.025429 -0.003654 0.000000 0.000000 0.000000
# 3 -0.003654 -0.003654 0.019977 0.000000 0.000000 0.000000
# 4 0.000000 0.000000 0.000000 0.047478 0.000000 0.000000
# 5 0.000000 0.000000 0.000000 0.000000 0.047478 0.000000
# 6 0.000000 0.000000 0.000000 0.000000 0.000000 0.072317
#
#
# Mechanical properties :
#
#
# Convention : Reuss Voigt Hill
#
# Bulk Modulus (GPa) = 28.76753 28.83059 28.79906
# Shear Modulus (GPa) = 17.49666 18.29662 17.89664
#
# Velocity S-wave (km/s) = 3.23372 3.30682 3.27047
# Velocity P-wave (km/s) = 5.57993 5.64010 5.61009
#
# Compressibility (1/GPa) = 0.03476141
#
# Stress axis : x y z
#
# Youngs Moduli (GPa) = 39.32477 39.32477 50.05816
#
# Poissons Ratio (x) = 0.42192 0.18291
# Poissons Ratio (y) = 0.42192 0.18291
# Poissons Ratio (z) = 0.14369 0.14369
#
# Static dielectric constant tensor:
#      x y z
#    x 3.164290 0.000000 0.000000 
#    y 0.000000 3.164290 0.000000 
#    z 0.000000 0.000000 3.354500 
# 
# 
# High freq. dielectric constant tensor:
#      x y z
#    x 1.635340 0.000000 0.000000 
#    y 0.000000 1.635340 0.000000 
#    z 0.000000 0.000000 1.647520 
# 
# From -- ./inp_files/3625.got.cif
#   From: 2010.03.12/outbox.cif.g09.slc.cpg/sg191_2_cif.got.tgz:3625.got - 2010.04.01 12:09:02.
