data_PCOD8329009
_publ_section_title
;
Structure prediction by ZEFSAII (Michael W. Deem and Ramdas Pophale) SiO2 
 PCOD8329009
Probable space group: P 6/M M M
;
_chemical_formula_sum "Si O2"
_cell_formula_units_Z 132
_cell_length_a 17.586677
_cell_length_b 17.586677
_cell_length_c 28.668087
_cell_angle_alpha 90.000000
_cell_angle_beta 90.000000
_cell_angle_gamma 120.000000
_cell_volume 7678.863014
_symmetry_space_group_name_H-M "P 6/M M M"
_symmetry_group_IT_number 191
_symmetry_cell_setting 'hexagonal'
loop_
_space_group_symop_operation_xyz
x,y,z
x-y,x,z
-y,x-y,z
-x,-y,z
-x+y,-x,z
y,-x+y,z
x-y,-y,-z
-x,-x+y,-z
y,x,-z
-y,-x,-z
-x+y,y,-z
x,x-y,-z
-x,-y,-z
-x+y,-x,-z
y,-x+y,-z
x,y,-z
x-y,x,-z
-y,x-y,-z
-x+y,y,z
x,x-y,z
-y,-x,z
y,x,z
x-y,-y,z
-x,-x+y,z
loop_
_atom_site_type_symbol
_atom_site_label
_atom_site_fract_x
_atom_site_fract_y
_atom_site_fract_z
Si Si1 0.269140 0.369500 0.766419
Si Si2 0.533671 0.899021 0.852555
Si Si3 0.668814 0.160459 0.050055
Si Si4 0.489289 0.331499 0.500000
Si Si5 0.511264 0.843013 0.679587
Si Si6 0.628328 0.727381 0.410534
O O1 0.164791 0.329581 0.757096
O O2 0.290083 0.290083 0.771821
O O3 0.291719 0.429592 0.812777
O O4 0.326140 0.431627 0.724323
O O5 0.426772 0.853544 0.850334
O O6 0.565746 0.886313 0.903884
O O7 0.573386 0.000000 0.841850
O O8 0.571131 0.142262 0.049626
O O9 0.736131 0.263870 0.054092
O O10 0.684530 0.124802 0.000000
O O11 0.572040 0.427961 0.500000
O O12 0.522746 0.261373 0.500000
O O13 0.431276 0.319734 0.454996
O O14 0.427119 0.854238 0.677486
O O15 0.480487 0.740244 0.682255
O O16 0.569421 0.887030 0.634368
O O17 0.664396 0.832198 0.411238
O O18 0.711258 0.711258 0.410317
#
# Coordination Sequence:
#
# PCOD8329009 Si02
#       6
#    24  24  24  12  24  24
#     4  10  20  33  49  68  90 117 149 186 228 272
#     4   9  17  28  42  61  84 110 141 176 215 262
#     4   9  16  25  37  53  75 105 141 178 212 246
#     4  10  20  33  50  73 102 134 165 196 232 277
#     4  10  20  33  50  73 101 131 160 189 222 262
#     4  10  21  35  51  72  97 127 162 201 244 285
#
# _framework density 17.190045999999999
#
# number of rings (size 3 to 8) (size 9 to 14) (size 15 to 20)
#    0.000    2.364    0.000    2.909    0.000    4.727 
#    0.000    3.636    0.000    6.182    0.000    0.000 
#    0.000    6.545    0.000    0.000    0.000    0.727 
#
# Total GULP energy -1635824.475226 kJ/mol
# GULP energy per Si atom -12392.609661 kJ/mol
# Density = 1.715092 g / cm^3
# Si number density = 17.190046 Si / 1000 Ang^3
#
#
#
# Elastic Constant Matrix: (Units=GPa)
#
#
# Indices 1 2 3 4 5 6 
#
# 1 81.1254 52.6326 34.0470 0.0000 0.0000 0.0000
# 2 52.6326 81.1254 34.0470 0.0000 0.0000 0.0000
# 3 34.0470 34.0470 146.6587 0.0000 0.0000 0.0000
# 4 0.0000 0.0000 0.0000 18.7622 0.0000 0.0000
# 5 0.0000 0.0000 0.0000 0.0000 18.7622 0.0000
# 6 0.0000 0.0000 0.0000 0.0000 0.0000 14.2464
#
#
#
# Elastic Compliance Matrix: (Units=1/GPa)
#
#
# Indices 1 2 3 4 5 6 
#
# 1 0.021787 -0.013309 -0.001968 0.000000 0.000000 0.000000
# 2 -0.013309 0.021787 -0.001968 0.000000 0.000000 0.000000
# 3 -0.001968 -0.001968 0.007732 0.000000 0.000000 0.000000
# 4 0.000000 0.000000 0.000000 0.053299 0.000000 0.000000
# 5 0.000000 0.000000 0.000000 0.000000 0.053299 0.000000
# 6 0.000000 0.000000 0.000000 0.000000 0.000000 0.070193
#
#
# Mechanical properties :
#
#
# Convention : Reuss Voigt Hill
#
# Bulk Modulus (GPa) = 59.46761 61.15141 60.30951
# Shear Modulus (GPa) = 18.64323 22.89971 20.77147
#
# Velocity S-wave (km/s) = 3.29680 3.65382 3.47989
# Velocity P-wave (km/s) = 7.01150 7.31105 7.16285
#
# Compressibility (1/GPa) = 0.01681588
#
# Stress axis : x y z
#
# Youngs Moduli (GPa) = 45.89820 45.89820 129.32593
#
# Poissons Ratio (x) = 0.61087 0.25454
# Poissons Ratio (y) = 0.61087 0.25454
# Poissons Ratio (z) = 0.09034 0.09034
#
# Static dielectric constant tensor:
#      x y z
#    x 3.022420 0.000000 0.000000 
#    y 0.000000 3.022420 0.000000 
#    z 0.000000 0.000000 3.676600 
# 
# 
# High freq. dielectric constant tensor:
#      x y z
#    x 1.635060 0.000000 0.000000 
#    y 0.000000 1.635060 0.000000 
#    z 0.000000 0.000000 1.695700 
# 
# From -- ./inp_files/9704.got.cif
#   From: 2010.03.12/outbox.cif.g09.slc.cpg/sg191_5_cif.got.tgz:9704.got - 2010.04.01 12:09:02.
