data_PCOD8329321
_publ_section_title
;
Structure prediction by ZEFSAII (Michael W. Deem and Ramdas Pophale) SiO2 
 PCOD8329321
Probable space group: P 6/M M M
;
_chemical_formula_sum "Si O2"
_cell_formula_units_Z 108
_cell_length_a 17.935046
_cell_length_b 17.935046
_cell_length_c 26.582620
_cell_angle_alpha 90.000000
_cell_angle_beta 90.000000
_cell_angle_gamma 120.000000
_cell_volume 7405.142233
_symmetry_space_group_name_H-M "P 6/M M M"
_symmetry_group_IT_number 191
_symmetry_cell_setting 'hexagonal'
loop_
_space_group_symop_operation_xyz
x,y,z
x-y,x,z
-y,x-y,z
-x,-y,z
-x+y,-x,z
y,-x+y,z
x-y,-y,-z
-x,-x+y,-z
y,x,-z
-y,-x,-z
-x+y,y,-z
x,x-y,-z
-x,-y,-z
-x+y,-x,-z
y,-x+y,-z
x,y,-z
x-y,x,-z
-y,x-y,-z
-x+y,y,z
x,x-y,z
-y,-x,z
y,x,z
x-y,-y,z
-x,-x+y,z
loop_
_atom_site_type_symbol
_atom_site_label
_atom_site_fract_x
_atom_site_fract_y
_atom_site_fract_z
Si Si1 0.666670 0.162207 0.634756
Si Si2 0.000000 0.588735 0.186612
Si Si3 0.411872 0.000000 0.926160
Si Si4 0.646621 0.905986 0.443534
Si Si5 0.665119 0.513608 0.000000
Si Si6 0.506956 0.839452 0.749248
O O1 0.576655 0.153310 0.621681
O O2 0.739305 0.260695 0.626492
O O3 0.676978 0.100200 0.595989
O O4 0.669602 0.133216 0.691724
O O5 0.084551 0.659873 0.215390
O O6 0.000000 0.500000 0.186655
O O7 0.000000 0.621335 0.130126
O O8 0.432802 0.090061 0.952820
O O9 0.500000 0.000000 0.925756
O O10 0.607257 0.889610 0.500000
O O11 0.678031 0.839016 0.429754
O O12 0.729990 0.000000 0.439262
O O13 0.586597 0.413404 0.000000
O O14 0.757999 0.515998 0.000000
O O15 0.410513 0.821026 0.757286
O O16 0.507961 0.753980 0.764799
#
# Coordination Sequence:
#
# PCOD8329321 Si02
#       6
#    24  12  12  24  12  24
#     4   9  17  28  42  59  81 108 139 173 208 245
#     4   9  17  28  41  58  81 110 140 171 213 252
#     4   8  16  29  40  56  86 113 134 172 219 249
#     4   9  18  31  45  61  81 105 133 167 210 258
#     4   9  16  27  44  63  83 111 146 177 204 241
#     4   9  17  28  42  59  80 109 144 180 213 247
#
# _framework density 14.584459000000001
#
# number of rings (size 3 to 8) (size 9 to 14) (size 15 to 20)
#    0.000    3.111    0.000    1.222    1.556    3.556 
#    0.000    1.111    0.000    4.222    0.000    1.556 
#    0.000    0.000    0.000   11.000    0.000   12.222 
#
# Total GULP energy -1338358.681304 kJ/mol
# GULP energy per Si atom -12392.210012 kJ/mol
# Density = 1.455126 g / cm^3
# Si number density = 14.584459 Si / 1000 Ang^3
#
#
#
# Elastic Constant Matrix: (Units=GPa)
#
#
# Indices 1 2 3 4 5 6 
#
# 1 78.2045 48.4383 50.3603 0.0000 0.0000 0.0000
# 2 48.4383 78.2045 50.3603 0.0000 0.0000 0.0000
# 3 50.3603 50.3603 100.1504 0.0000 0.0000 0.0000
# 4 0.0000 0.0000 0.0000 17.7052 0.0000 0.0000
# 5 0.0000 0.0000 0.0000 0.0000 17.7052 0.0000
# 6 0.0000 0.0000 0.0000 0.0000 0.0000 14.8831
#
#
#
# Elastic Compliance Matrix: (Units=1/GPa)
#
#
# Indices 1 2 3 4 5 6 
#
# 1 0.023377 -0.010218 -0.006617 0.000000 0.000000 0.000000
# 2 -0.010218 0.023377 -0.006617 0.000000 0.000000 0.000000
# 3 -0.006617 -0.006617 0.016639 0.000000 0.000000 0.000000
# 4 0.000000 0.000000 0.000000 0.056480 0.000000 0.000000
# 5 0.000000 0.000000 0.000000 0.000000 0.056480 0.000000
# 6 0.000000 0.000000 0.000000 0.000000 0.000000 0.067190
#
#
# Mechanical properties :
#
#
# Convention : Reuss Voigt Hill
#
# Bulk Modulus (GPa) = 60.64433 61.65303 61.14868
# Shear Modulus (GPa) = 16.89504 17.21873 17.05689
#
# Velocity S-wave (km/s) = 3.40726 3.43975 3.42354
# Velocity P-wave (km/s) = 7.55983 7.62500 7.59248
#
# Compressibility (1/GPa) = 0.01648959
#
# Stress axis : x y z
#
# Youngs Moduli (GPa) = 42.77725 42.77725 60.09814
#
# Poissons Ratio (x) = 0.43711 0.39766
# Poissons Ratio (y) = 0.43711 0.39766
# Poissons Ratio (z) = 0.28305 0.28305
#
# Static dielectric constant tensor:
#      x y z
#    x 2.721960 0.000000 0.000000 
#    y 0.000000 2.721960 0.000000 
#    z 0.000000 0.000000 3.145900 
# 
# 
# High freq. dielectric constant tensor:
#      x y z
#    x 1.536120 0.000000 0.000000 
#    y 0.000000 1.536120 0.000000 
#    z 0.000000 0.000000 1.565750 
# 
# From -- ./inp_files/8483.got.cif
#   From: 2010.03.12/outbox.cif.g09.slc.cpg/sg191_5_cif.got.tgz:8483.got - 2010.04.01 12:09:02.
