data_PCOD8329921
_publ_section_title
;
Structure prediction by ZEFSAII (Michael W. Deem and Ramdas Pophale) SiO2 
 PCOD8329921
Probable space group: P 63/M C M
;
_chemical_formula_sum "Si O2"
_cell_formula_units_Z 144
_cell_length_a 32.433328
_cell_length_b 32.433328
_cell_length_c 8.530849
_cell_angle_alpha 90.000000
_cell_angle_beta 90.000000
_cell_angle_gamma 120.000000
_cell_volume 7771.519030
_symmetry_space_group_name_H-M "P 63/M C M"
_symmetry_group_IT_number 193
_symmetry_cell_setting 'hexagonal'
loop_
_space_group_symop_operation_xyz
x,y,z
x-y,x,1/2+z
-y,x-y,z
-x,-y,1/2+z
-x+y,-x,z
y,-x+y,1/2+z
x-y,-y,1/2-z
-x,-x+y,1/2-z
y,x,1/2-z
-y,-x,-z
-x+y,y,-z
x,x-y,-z
-x,-y,-z
-x+y,-x,1/2-z
y,-x+y,-z
x,y,1/2-z
x-y,x,-z
-y,x-y,1/2-z
-x+y,y,1/2+z
x,x-y,1/2+z
-y,-x,1/2+z
y,x,z
x-y,-y,z
-x,-x+y,z
loop_
_atom_site_type_symbol
_atom_site_label
_atom_site_fract_x
_atom_site_fract_y
_atom_site_fract_z
Si Si1 0.808566 0.947078 0.564883
Si Si2 0.564652 0.618486 0.068916
Si Si3 0.242172 0.575168 0.064355
Si Si4 0.858371 0.384640 0.566630
Si Si5 0.806895 0.106742 0.564415
Si Si6 0.705004 0.053198 0.428137
O O1 0.829293 0.914647 0.500000
O O2 0.811013 0.947349 0.750000
O O3 0.754479 0.926843 0.508786
O O4 0.840428 0.000000 0.495948
O O5 0.549511 0.612294 0.250000
O O6 0.577377 0.577377 0.019055
O O7 0.523617 0.618063 0.964802
O O8 0.610741 0.669531 0.043940
O O9 0.245301 0.577916 0.250000
O O10 0.281978 0.563956 0.000000
O O11 0.251182 0.625591 0.000000
O O12 0.189834 0.532512 0.013036
O O13 0.869757 0.434879 0.500000
O O14 0.848446 0.382061 0.750000
O O15 0.840475 0.159526 0.500000
O O16 0.801332 0.106348 0.750000
O O17 0.757442 0.090021 0.481463
O O18 0.696633 0.064113 0.250000
O O19 0.696683 0.000000 0.442141
#
# Coordination Sequence:
#
# PCOD8329921 Si02
#       6
#    24  24  24  24  24  24
#     4   9  18  31  47  69  96 125 159 200 247 299
#     4  10  21  38  59  82 108 141 181 223 269 320
#     4  11  21  36  57  84 116 150 188 227 271 321
#     4  11  22  38  59  84 114 147 183 226 275 322
#     4  10  19  32  50  73 102 134 168 207 253 304
#     4  10  20  34  53  77 104 135 172 213 256 305
#
# _framework density 18.529195999999999
#
# number of rings (size 3 to 8) (size 9 to 14) (size 15 to 20)
#    0.000    1.833    0.000    6.167    0.000    4.000 
#    0.000    0.833    0.000    0.167    0.000    0.000 
#    0.000    0.000    0.000    0.000    0.000    0.000 
#
# Total GULP energy -1785686.752961 kJ/mol
# GULP energy per Si atom -12400.602451 kJ/mol
# Density = 1.848702 g / cm^3
# Si number density = 18.529196 Si / 1000 Ang^3
#
#
#
# Elastic Constant Matrix: (Units=GPa)
#
#
# Indices 1 2 3 4 5 6 
#
# 1 107.0160 50.1170 30.7822 0.0000 0.0000 0.0000
# 2 50.1170 107.0160 30.7822 0.0000 0.0000 0.0000
# 3 30.7822 30.7822 96.3369 0.0000 0.0000 0.0000
# 4 0.0000 0.0000 0.0000 30.8402 0.0000 0.0000
# 5 0.0000 0.0000 0.0000 0.0000 30.8402 0.0000
# 6 0.0000 0.0000 0.0000 0.0000 0.0000 28.4495
#
#
#
# Elastic Compliance Matrix: (Units=1/GPa)
#
#
# Indices 1 2 3 4 5 6 
#
# 1 0.012425 -0.005150 -0.002324 0.000000 0.000000 0.000000
# 2 -0.005150 0.012425 -0.002324 0.000000 0.000000 0.000000
# 3 -0.002324 -0.002324 0.011866 0.000000 0.000000 0.000000
# 4 0.000000 0.000000 0.000000 0.032425 0.000000 0.000000
# 5 0.000000 0.000000 0.000000 0.000000 0.032425 0.000000
# 6 0.000000 0.000000 0.000000 0.000000 0.000000 0.035150
#
#
# Mechanical properties :
#
#
# Convention : Reuss Voigt Hill
#
# Bulk Modulus (GPa) = 58.42039 59.30352 58.86195
# Shear Modulus (GPa) = 30.86040 31.27180 31.06610
#
# Velocity S-wave (km/s) = 4.08548 4.11262 4.09908
# Velocity P-wave (km/s) = 7.33840 7.39097 7.36474
#
# Compressibility (1/GPa) = 0.01711731
#
# Stress axis : x y z
#
# Youngs Moduli (GPa) = 80.48362 80.48362 84.27657
#
# Poissons Ratio (x) = 0.41450 0.19590
# Poissons Ratio (y) = 0.41450 0.19590
# Poissons Ratio (z) = 0.18708 0.18708
#
# Static dielectric constant tensor:
#      x y z
#    x 3.430080 0.000000 0.000000 
#    y 0.000000 3.430080 0.000000 
#    z 0.000000 0.000000 3.507860 
# 
# 
# High freq. dielectric constant tensor:
#      x y z
#    x 1.712950 0.000000 0.000000 
#    y 0.000000 1.712950 0.000000 
#    z 0.000000 0.000000 1.732640 
# 
# From -- ./inp_files/1538.got.cif
#   From: 2010.03.12/outbox.cif.g09.slc.cpg/sg193_1_cif.got.tgz:1538.got - 2010.04.01 12:20:39.
