data_PCOD8329796
_publ_section_title
;
Structure prediction by ZEFSAII (Michael W. Deem and Ramdas Pophale) SiO2 
 PCOD8329796
Probable space group: P 63/M C M
;
_chemical_formula_sum "Si O2"
_cell_formula_units_Z 132
_cell_length_a 18.485388
_cell_length_b 18.485388
_cell_length_c 23.912064
_cell_angle_alpha 90.000000
_cell_angle_beta 90.000000
_cell_angle_gamma 120.000000
_cell_volume 7076.277203
_symmetry_space_group_name_H-M "P 63/M C M"
_symmetry_group_IT_number 193
_symmetry_cell_setting 'hexagonal'
loop_
_space_group_symop_operation_xyz
x,y,z
x-y,x,1/2+z
-y,x-y,z
-x,-y,1/2+z
-x+y,-x,z
y,-x+y,1/2+z
x-y,-y,1/2-z
-x,-x+y,1/2-z
y,x,1/2-z
-y,-x,-z
-x+y,y,-z
x,x-y,-z
-x,-y,-z
-x+y,-x,1/2-z
y,-x+y,-z
x,y,1/2-z
x-y,x,-z
-y,x-y,1/2-z
-x+y,y,1/2+z
x,x-y,1/2+z
-y,-x,1/2+z
y,x,z
x-y,-y,z
-x,-x+y,z
loop_
_atom_site_type_symbol
_atom_site_label
_atom_site_fract_x
_atom_site_fract_y
_atom_site_fract_z
Si Si1 0.313072 0.093305 0.457048
Si Si2 0.754913 0.905482 0.364284
Si Si3 0.095461 0.675142 0.860094
Si Si4 0.905170 0.428757 0.686400
Si Si5 0.836498 0.244305 0.813770
Si Si6 0.905484 0.815269 0.250000
O O1 0.339512 0.169756 0.500000
O O2 0.245373 0.094263 0.414827
O O3 0.395361 0.107940 0.423168
O O4 0.267014 0.000000 0.485182
O O5 0.664761 0.898875 0.356629
O O6 0.764938 0.864288 0.306861
O O7 0.828221 0.000000 0.374758
O O8 0.110258 0.596319 0.857500
O O9 0.165029 0.743973 0.819747
O O10 0.000000 0.644890 0.839991
O O11 0.888842 0.447980 0.750000
O O12 0.841777 0.331962 0.670906
O O13 0.000000 0.447391 0.681046
O O14 0.867148 0.248825 0.750000
O O15 0.898103 0.898103 0.250000
O O16 0.000000 0.836584 0.250000
#
# Coordination Sequence:
#
# PCOD8329796 Si02
#       6
#    24  24  24  24  24  12
#     4  10  20  35  55  77 102 136 184 236 284 332
#     4  10  19  31  48  71 101 134 174 223 269 320
#     4   9  19  34  51  75 105 143 182 226 277 325
#     4   9  17  30  49  72 107 146 178 213 263 325
#     4  10  18  29  47  76 106 140 178 215 261 319
#     4  10  19  30  44  66  98 134 168 208 262 322
#
# _framework density 18.653876
#
# number of rings (size 3 to 8) (size 9 to 14) (size 15 to 20)
#    0.000    2.364    0.909    2.273    0.000    2.545 
#    1.091    0.000    0.000    8.727    0.000   16.545 
#    0.000    0.000    0.000    0.000    0.000    0.000 
#
# Total GULP energy -1635412.080684 kJ/mol
# GULP energy per Si atom -12389.485460 kJ/mol
# Density = 1.861142 g / cm^3
# Si number density = 18.653876 Si / 1000 Ang^3
#
#
#
# Elastic Constant Matrix: (Units=GPa)
#
#
# Indices 1 2 3 4 5 6 
#
# 1 100.7624 41.7375 28.8521 0.0000 0.0000 0.0000
# 2 41.7375 100.7624 28.8521 0.0000 0.0000 0.0000
# 3 28.8521 28.8521 63.8088 0.0000 0.0000 0.0000
# 4 0.0000 0.0000 0.0000 26.0951 0.0000 0.0000
# 5 0.0000 0.0000 0.0000 0.0000 26.0951 0.0000
# 6 0.0000 0.0000 0.0000 0.0000 0.0000 29.5124
#
#
#
# Elastic Compliance Matrix: (Units=1/GPa)
#
#
# Indices 1 2 3 4 5 6 
#
# 1 0.012766 -0.004176 -0.003884 0.000000 0.000000 0.000000
# 2 -0.004176 0.012766 -0.003884 0.000000 0.000000 0.000000
# 3 -0.003884 -0.003884 0.019184 0.000000 0.000000 0.000000
# 4 0.000000 0.000000 0.000000 0.038321 0.000000 0.000000
# 5 0.000000 0.000000 0.000000 0.000000 0.038321 0.000000
# 6 0.000000 0.000000 0.000000 0.000000 0.000000 0.033884
#
#
# Mechanical properties :
#
#
# Convention : Reuss Voigt Hill
#
# Bulk Modulus (GPa) = 48.01179 51.57965 49.79572
# Shear Modulus (GPa) = 26.87086 27.39999 27.13543
#
# Velocity S-wave (km/s) = 3.79951 3.83673 3.81816
# Velocity P-wave (km/s) = 6.71137 6.88028 6.79635
#
# Compressibility (1/GPa) = 0.02082822
#
# Stress axis : x y z
#
# Youngs Moduli (GPa) = 78.33162 78.33162 52.12543
#
# Poissons Ratio (x) = 0.32709 0.20247
# Poissons Ratio (y) = 0.32709 0.20247
# Poissons Ratio (z) = 0.30426 0.30426
#
# Static dielectric constant tensor:
#      x y z
#    x 3.376150 0.000000 0.000000 
#    y 0.000000 3.376150 0.000000 
#    z 0.000000 0.000000 3.235770 
# 
# 
# High freq. dielectric constant tensor:
#      x y z
#    x 1.716040 0.000000 0.000000 
#    y 0.000000 1.716040 0.000000 
#    z 0.000000 0.000000 1.693470 
# 
# From -- ./inp_files/7463.got.cif
#   From: 2010.03.12/outbox.cif.g09.slc.cpg/sg193_4_cif.got.tgz:7463.got - 2010.04.01 12:20:39.
