data_PCOD8329594
_publ_section_title
;
Structure prediction by ZEFSAII (Michael W. Deem and Ramdas Pophale) SiO2 
 PCOD8329594
Probable space group: P 6/M C C
;
_chemical_formula_sum "Si O2"
_cell_formula_units_Z 144
_cell_length_a 22.289982
_cell_length_b 22.289982
_cell_length_c 18.431153
_cell_angle_alpha 90.000000
_cell_angle_beta 90.000000
_cell_angle_gamma 120.000000
_cell_volume 7930.536559
_symmetry_space_group_name_H-M "P 6/M C C"
_symmetry_group_IT_number 192
_symmetry_cell_setting 'hexagonal'
loop_
_space_group_symop_operation_xyz
x,y,z
x-y,x,z
-y,x-y,z
-x,-y,z
-x+y,-x,z
y,-x+y,z
x-y,-y,1/2-z
-x,-x+y,1/2-z
y,x,1/2-z
-y,-x,1/2-z
-x+y,y,1/2-z
x,x-y,1/2-z
-x,-y,-z
-x+y,-x,-z
y,-x+y,-z
x,y,-z
x-y,x,-z
-y,x-y,-z
-x+y,y,1/2+z
x,x-y,1/2+z
-y,-x,1/2+z
y,x,1/2+z
x-y,-y,1/2+z
-x,-x+y,1/2+z
loop_
_atom_site_type_symbol
_atom_site_label
_atom_site_fract_x
_atom_site_fract_y
_atom_site_fract_z
Si Si1 0.032873 0.881297 0.583017
Si Si2 0.921713 0.519004 0.282319
Si Si3 0.849060 0.262689 0.704833
Si Si4 0.374511 0.828048 0.415423
Si Si5 0.252734 0.068291 0.706725
Si Si6 0.221292 0.705110 0.583350
O O1 0.037635 0.863707 0.500000
O O2 0.045966 0.828637 0.628910
O O3 0.959265 0.871670 0.603118
O O4 0.881798 0.440899 0.250000
O O5 0.897963 0.570301 0.253232
O O6 0.898719 0.503279 0.368212
O O7 0.000000 0.553339 0.250000
O O8 0.778897 0.221104 0.750000
O O9 0.885003 0.217889 0.690345
O O10 0.834469 0.284320 0.627319
O O11 0.379630 0.849943 0.500000
O O12 0.421955 0.793813 0.399204
O O13 0.298343 0.765209 0.395202
O O14 0.224577 0.112289 0.750000
O O15 0.237524 0.000000 0.750000
O O16 0.207069 0.712036 0.500000
#
# Coordination Sequence:
#
# PCOD8329594 Si02
#       6
#    24  24  24  24  24  24
#     4  10  20  36  59  87 118 148 183 230 288 348
#     4  11  22  38  59  84 114 155 199 243 286 344
#     4  11  22  37  58  82 114 153 198 244 289 339
#     4  10  20  37  61  91 123 153 189 240 301 359
#     4  11  22  37  58  82 110 149 194 238 284 336
#     4  10  20  36  60  90 121 151 188 238 298 357
#
# _framework density 18.157661999999998
#
# number of rings (size 3 to 8) (size 9 to 14) (size 15 to 20)
#    0.000    1.500    5.000    1.000    0.000    2.667 
#    0.000    2.500    0.000    3.000    0.000    0.000 
#    0.000    0.000    0.000    0.000    0.000    0.000 
#
# Total GULP energy -1784228.134094 kJ/mol
# GULP energy per Si atom -12390.473153 kJ/mol
# Density = 1.811633 g / cm^3
# Si number density = 18.157662 Si / 1000 Ang^3
#
#
#
# Elastic Constant Matrix: (Units=GPa)
#
#
# Indices 1 2 3 4 5 6 
#
# 1 79.3607 33.2935 55.2075 0.0000 0.0000 0.0000
# 2 33.2935 79.3607 55.2075 0.0000 0.0000 0.0000
# 3 55.2075 55.2075 115.3877 0.0000 0.0000 0.0000
# 4 0.0000 0.0000 0.0000 52.2532 0.0000 0.0000
# 5 0.0000 0.0000 0.0000 0.0000 52.2532 0.0000
# 6 0.0000 0.0000 0.0000 0.0000 0.0000 23.0336
#
#
#
# Elastic Compliance Matrix: (Units=1/GPa)
#
#
# Indices 1 2 3 4 5 6 
#
# 1 0.019211 -0.002496 -0.007997 0.000000 0.000000 0.000000
# 2 -0.002496 0.019211 -0.007997 0.000000 0.000000 0.000000
# 3 -0.007997 -0.007997 0.016319 0.000000 0.000000 0.000000
# 4 0.000000 0.000000 0.000000 0.019138 0.000000 0.000000
# 5 0.000000 0.000000 0.000000 0.000000 0.019138 0.000000
# 6 0.000000 0.000000 0.000000 0.000000 0.000000 0.043415
#
#
# Mechanical properties :
#
#
# Convention : Reuss Voigt Hill
#
# Bulk Modulus (GPa) = 56.30663 62.39178 59.34920
# Shear Modulus (GPa) = 27.88097 34.20137 31.04117
#
# Velocity S-wave (km/s) = 3.92279 4.34473 4.13914
# Velocity P-wave (km/s) = 7.18296 7.72040 7.45652
#
# Compressibility (1/GPa) = 0.01775990
#
# Stress axis : x y z
#
# Youngs Moduli (GPa) = 52.05266 52.05266 61.27749
#
# Poissons Ratio (x) = 0.12993 0.49006
# Poissons Ratio (y) = 0.12993 0.49006
# Poissons Ratio (z) = 0.41629 0.41629
#
# Static dielectric constant tensor:
#      x y z
#    x 3.808650 0.000000 0.000000 
#    y 0.000000 3.808650 0.000000 
#    z 0.000000 0.000000 3.430080 
# 
# 
# High freq. dielectric constant tensor:
#      x y z
#    x 1.705920 0.000000 0.000000 
#    y 0.000000 1.705920 0.000000 
#    z 0.000000 0.000000 1.706270 
# 
# From -- ./inp_files/4340.got.cif
#   From: 2010.03.12/outbox.cif.g09.slc.cpg/sg192_3_cif.got.tgz:4340.got - 2010.04.01 12:16:15.
