data_PCOD8329323
_publ_section_title
;
Structure prediction by ZEFSAII (Michael W. Deem and Ramdas Pophale) SiO2 
 PCOD8329323
Probable space group: P 6/M M M
;
_chemical_formula_sum "Si O2"
_cell_formula_units_Z 88
_cell_length_a 25.990026
_cell_length_b 25.990026
_cell_length_c 9.310390
_cell_angle_alpha 90.000000
_cell_angle_beta 90.000000
_cell_angle_gamma 120.000000
_cell_volume 5446.430085
_symmetry_space_group_name_H-M "P 6/M M M"
_symmetry_group_IT_number 191
_symmetry_cell_setting 'hexagonal'
loop_
_space_group_symop_operation_xyz
x,y,z
x-y,x,z
-y,x-y,z
-x,-y,z
-x+y,-x,z
y,-x+y,z
x-y,-y,-z
-x,-x+y,-z
y,x,-z
-y,-x,-z
-x+y,y,-z
x,x-y,-z
-x,-y,-z
-x+y,-x,-z
y,-x+y,-z
x,y,-z
x-y,x,-z
-y,x-y,-z
-x+y,y,z
x,x-y,z
-y,-x,z
y,x,z
x-y,-y,z
-x,-x+y,z
loop_
_atom_site_type_symbol
_atom_site_label
_atom_site_fract_x
_atom_site_fract_y
_atom_site_fract_z
Si Si1 0.797860 0.398930 0.669752
Si Si2 0.666667 0.333334 0.327490
Si Si3 0.247870 0.181827 0.334247
Si Si4 0.298414 0.476488 0.332722
Si Si5 0.637701 0.757814 0.161333
O O1 0.791152 0.395576 0.500000
O O2 0.732498 0.366249 0.737130
O O3 0.830064 0.468001 0.716935
O O4 0.666667 0.333334 0.500000
O O5 0.267520 0.192225 0.500000
O O6 0.228920 0.114460 0.287738
O O7 0.192155 0.192155 0.307218
O O8 0.303243 0.230805 0.243240
O O9 0.298671 0.462028 0.500000
O O10 0.245361 0.490722 0.301731
O O11 0.291512 0.420584 0.243259
O O12 0.636145 0.818073 0.160604
O O13 0.638390 0.735787 0.000000
#
# Coordination Sequence:
#
# PCOD8329323 Si02
#       5
#    12   4  24  24  24
#     4   9  14  20  33  55  80 108 145 189 231 272
#     4   9  12  18  30  51  79 104 142 189 229 269
#     4   9  17  30  49  72  96 120 145 172 202 238
#     4   9  15  23  37  56  79 109 146 187 228 269
#     4   9  17  28  41  59  85 115 146 181 219 257
#
# _framework density 16.157373
#
# number of rings (size 3 to 8) (size 9 to 14) (size 15 to 20)
#    0.000    3.000    1.364    0.818    0.000    3.818 
#    0.000    0.682    0.000    0.273    0.000    2.864 
#    0.000    7.636    0.000    6.818    0.000    7.091 
#
# Total GULP energy -1090595.225113 kJ/mol
# GULP energy per Si atom -12393.127558 kJ/mol
# Density = 1.612060 g / cm^3
# Si number density = 16.157373 Si / 1000 Ang^3
#
#
#
# Elastic Constant Matrix: (Units=GPa)
#
#
# Indices 1 2 3 4 5 6 
#
# 1 89.8917 50.1954 37.7471 0.0000 0.0000 0.0000
# 2 50.1954 89.8916 37.7471 0.0000 0.0000 0.0000
# 3 37.7471 37.7471 66.7525 0.0000 0.0000 0.0000
# 4 0.0000 0.0000 0.0000 10.9829 0.0000 0.0000
# 5 0.0000 0.0000 0.0000 0.0000 10.9829 0.0000
# 6 0.0000 0.0000 0.0000 0.0000 0.0000 19.8481
#
#
#
# Elastic Compliance Matrix: (Units=1/GPa)
#
#
# Indices 1 2 3 4 5 6 
#
# 1 0.017729 -0.007462 -0.005806 0.000000 0.000000 0.000000
# 2 -0.007462 0.017729 -0.005806 0.000000 0.000000 0.000000
# 3 -0.005806 -0.005806 0.021547 0.000000 0.000000 0.000000
# 4 0.000000 0.000000 0.000000 0.091051 0.000000 0.000000
# 5 0.000000 0.000000 0.000000 0.000000 0.091051 0.000000
# 6 0.000000 0.000000 0.000000 0.000000 0.000000 0.050383
#
#
# Mechanical properties :
#
#
# Convention : Reuss Voigt Hill
#
# Bulk Modulus (GPa) = 53.02838 55.32388 54.17613
# Shear Modulus (GPa) = 14.97351 16.41920 15.69635
#
# Velocity S-wave (km/s) = 3.04753 3.19125 3.12022
# Velocity P-wave (km/s) = 6.72862 6.92053 6.82525
#
# Compressibility (1/GPa) = 0.01885783
#
# Stress axis : x y z
#
# Youngs Moduli (GPa) = 56.40384 56.40374 46.41034
#
# Poissons Ratio (x) = 0.42089 0.26945
# Poissons Ratio (y) = 0.42089 0.26945
# Poissons Ratio (z) = 0.32748 0.32748
#
# Static dielectric constant tensor:
#      x y z
#    x 2.947270 0.000000 0.000000 
#    y 0.000000 2.947270 0.000000 
#    z 0.000000 0.000000 3.012840 
# 
# 
# High freq. dielectric constant tensor:
#      x y z
#    x 1.596650 0.000000 0.000000 
#    y 0.000000 1.596650 0.000000 
#    z 0.000000 0.000000 1.604760 
# 
# From -- ./inp_files/1278.got.cif
#   From: 2010.03.12/outbox.cif.g09.slc.cpg/sg191_1_cif.got.tgz:1278.got - 2010.04.01 12:09:02.
