data_PCOD8329981
_publ_section_title
;
Structure prediction by ZEFSAII (Michael W. Deem and Ramdas Pophale) SiO2 
 PCOD8329981
Probable space group: P 63/M C M
;
_chemical_formula_sum "Si O2"
_cell_formula_units_Z 132
_cell_length_a 17.636296
_cell_length_b 17.636296
_cell_length_c 24.407985
_cell_angle_alpha 90.000000
_cell_angle_beta 90.000000
_cell_angle_gamma 120.000000
_cell_volume 6574.720845
_symmetry_space_group_name_H-M "P 63/M C M"
_symmetry_group_IT_number 193
_symmetry_cell_setting 'hexagonal'
loop_
_space_group_symop_operation_xyz
x,y,z
x-y,x,1/2+z
-y,x-y,z
-x,-y,1/2+z
-x+y,-x,z
y,-x+y,1/2+z
x-y,-y,1/2-z
-x,-x+y,1/2-z
y,x,1/2-z
-y,-x,-z
-x+y,y,-z
x,x-y,-z
-x,-y,-z
-x+y,-x,1/2-z
y,-x+y,-z
x,y,1/2-z
x-y,x,-z
-y,x-y,1/2-z
-x+y,y,1/2+z
x,x-y,1/2+z
-y,-x,1/2+z
y,x,z
x-y,-y,z
-x,-x+y,z
loop_
_atom_site_type_symbol
_atom_site_label
_atom_site_fract_x
_atom_site_fract_y
_atom_site_fract_z
Si Si1 0.591757 0.000000 0.503277
Si Si2 0.654048 0.000000 0.874548
Si Si3 0.656883 0.000000 0.315465
Si Si4 0.181290 0.181290 0.816072
Si Si5 0.830428 0.830428 0.685567
Si Si6 0.488409 0.818268 0.031150
Si Si7 0.822132 0.491646 0.155498
Si Si8 0.664820 0.508947 0.190064
O O1 0.500000 0.000000 0.500000
O O2 0.574112 0.914168 0.470672
O O3 0.637270 0.000000 0.560846
O O4 0.567950 0.913967 0.854683
O O5 0.741214 0.000000 0.852579
O O6 0.744033 0.000000 0.335153
O O7 0.655042 0.081589 0.341480
O O8 0.649768 0.000000 0.250000
O O9 0.199489 0.199489 0.750000
O O10 0.089273 0.173227 0.834268
O O11 0.833598 0.833598 0.750000
O O12 0.463826 0.789177 0.093502
O O13 0.406066 0.812131 0.000000
O O14 0.518491 0.759246 0.000000
O O15 0.759320 0.518183 0.186218
O O16 0.817195 0.408630 0.184532
O O17 0.657452 0.542939 0.250000
#
# Coordination Sequence:
#
# PCOD8329981 Si02
#       8
#    12  12  12  12  12  24  24  24
#     4  10  21  39  58  82 112 145 190 246 298 346
#     4  12  23  38  61  88 119 159 205 254 306 359
#     4  11  22  38  57  83 116 155 191 229 285 355
#     4  10  19  35  58  90 125 164 205 248 299 365
#     4   9  19  34  57  85 122 161 199 241 290 353
#     4  11  22  39  60  83 108 142 189 242 292 343
#     4  12  24  40  59  82 114 154 194 241 297 355
#     4  12  24  39  57  84 118 156 196 239 290 360
#
# _framework density 20.076898
#
# number of rings (size 3 to 8) (size 9 to 14) (size 15 to 20)
#    0.000    0.909    0.000    9.727    0.000    2.182 
#    0.000    0.000    0.000    0.000    0.000    0.000 
#    0.000    0.000    0.000    9.091    0.000    1.091 
#
# Total GULP energy -1636601.609153 kJ/mol
# GULP energy per Si atom -12398.497039 kJ/mol
# Density = 2.003120 g / cm^3
# Si number density = 20.076898 Si / 1000 Ang^3
#
#
#
# Elastic Constant Matrix: (Units=GPa)
#
#
# Indices 1 2 3 4 5 6 
#
# 1 99.2433 35.8240 6.7286 0.0000 0.0000 0.0000
# 2 35.8240 99.2433 6.7286 0.0000 0.0000 0.0000
# 3 6.7286 6.7286 84.3384 0.0000 0.0000 0.0000
# 4 0.0000 0.0000 0.0000 25.9072 0.0000 0.0000
# 5 0.0000 0.0000 0.0000 0.0000 25.9072 0.0000
# 6 0.0000 0.0000 0.0000 0.0000 0.0000 31.7096
#
#
#
# Elastic Compliance Matrix: (Units=1/GPa)
#
#
# Indices 1 2 3 4 5 6 
#
# 1 0.011616 -0.004153 -0.000595 0.000000 0.000000 0.000000
# 2 -0.004153 0.011616 -0.000595 0.000000 0.000000 0.000000
# 3 -0.000595 -0.000595 0.011952 0.000000 0.000000 0.000000
# 4 0.000000 0.000000 0.000000 0.038599 0.000000 0.000000
# 5 0.000000 0.000000 0.000000 0.000000 0.038599 0.000000
# 6 0.000000 0.000000 0.000000 0.000000 0.000000 0.031536
#
#
# Mechanical properties :
#
#
# Convention : Reuss Voigt Hill
#
# Bulk Modulus (GPa) = 40.82222 42.37635 41.59929
# Shear Modulus (GPa) = 30.71816 32.27438 31.49627
#
# Velocity S-wave (km/s) = 3.91580 4.01376 3.96508
# Velocity P-wave (km/s) = 6.38919 6.52941 6.45968
#
# Compressibility (1/GPa) = 0.02449646
#
# Stress axis : x y z
#
# Youngs Moduli (GPa) = 86.09141 86.09141 83.66802
#
# Poissons Ratio (x) = 0.35750 0.04982
# Poissons Ratio (y) = 0.35750 0.04982
# Poissons Ratio (z) = 0.05126 0.05126
#
# Static dielectric constant tensor:
#      x y z
#    x 3.881810 0.000000 0.000000 
#    y 0.000000 3.881810 0.000000 
#    z 0.000000 0.000000 3.562770 
# 
# 
# High freq. dielectric constant tensor:
#      x y z
#    x 1.793040 0.000000 0.000000 
#    y 0.000000 1.793040 0.000000 
#    z 0.000000 0.000000 1.775110 
# 
# From -- ./inp_files/7527.got.cif
#   From: 2010.03.12/outbox.cif.g09.slc.cpg/sg193_4_cif.got.tgz:7527.got - 2010.04.01 12:20:39.
