data_PCOD8329762
_publ_section_title
;
Structure prediction by ZEFSAII (Michael W. Deem and Ramdas Pophale) SiO2 
 PCOD8329762
Probable space group: P 63/M C M
;
_chemical_formula_sum "Si O2"
_cell_formula_units_Z 144
_cell_length_a 22.159278
_cell_length_b 22.159278
_cell_length_c 18.890948
_cell_angle_alpha 90.000000
_cell_angle_beta 90.000000
_cell_angle_gamma 120.000000
_cell_volume 8033.329789
_symmetry_space_group_name_H-M "P 63/M C M"
_symmetry_group_IT_number 193
_symmetry_cell_setting 'hexagonal'
loop_
_space_group_symop_operation_xyz
x,y,z
x-y,x,1/2+z
-y,x-y,z
-x,-y,1/2+z
-x+y,-x,z
y,-x+y,1/2+z
x-y,-y,1/2-z
-x,-x+y,1/2-z
y,x,1/2-z
-y,-x,-z
-x+y,y,-z
x,x-y,-z
-x,-y,-z
-x+y,-x,1/2-z
y,-x+y,-z
x,y,1/2-z
x-y,x,-z
-y,x-y,1/2-z
-x+y,y,1/2+z
x,x-y,1/2+z
-y,-x,1/2+z
y,x,z
x-y,-y,z
-x,-x+y,z
loop_
_atom_site_type_symbol
_atom_site_label
_atom_site_fract_x
_atom_site_fract_y
_atom_site_fract_z
Si Si1 0.917221 0.440302 0.828510
Si Si2 0.594000 0.920116 0.404467
Si Si3 0.286551 0.204096 0.331121
Si Si4 0.575518 0.657619 0.167571
Si Si5 0.078254 0.225735 0.066158
Si Si6 0.620567 0.749327 0.037609
O O1 0.889660 0.412845 0.750000
O O2 0.885282 0.371226 0.877567
O O3 0.893666 0.495398 0.851982
O O4 0.000000 0.481627 0.829689
O O5 0.637817 0.886676 0.369127
O O6 0.592378 0.911856 0.488993
O O7 0.632244 0.000000 0.380961
O O8 0.299237 0.192779 0.250000
O O9 0.242600 0.242600 0.338730
O O10 0.242515 0.129114 0.367463
O O11 0.581979 0.679781 0.250000
O O12 0.626824 0.626824 0.152314
O O13 0.595669 0.724801 0.118172
O O14 0.084910 0.296116 0.034465
O O15 0.000000 0.174343 0.092972
O O16 0.094865 0.189730 0.000000
O O17 0.591431 0.795716 0.000000
#
# Coordination Sequence:
#
# PCOD8329762 Si02
#       6
#    24  24  24  24  24  24
#     4   8  15  28  48  75 105 136 166 196 241 306
#     4  10  17  30  51  75 106 137 165 206 259 315
#     4  10  20  34  53  76 101 131 169 218 276 332
#     4   9  18  33  51  73 105 141 175 214 262 316
#     4  11  21  35  53  72  99 137 179 221 267 324
#     4  11  21  33  47  71 105 143 177 216 264 315
#
# _framework density 17.925318999999998
#
# number of rings (size 3 to 8) (size 9 to 14) (size 15 to 20)
#    0.000    2.167    3.333    3.500    0.000    3.667 
#    0.000    2.500    0.000    3.000    0.000    0.000 
#    6.667    0.000    0.000    0.000    0.000    0.000 
#
# Total GULP energy -1784749.641330 kJ/mol
# GULP energy per Si atom -12394.094731 kJ/mol
# Density = 1.788452 g / cm^3
# Si number density = 17.925319 Si / 1000 Ang^3
#
#
#
# Elastic Constant Matrix: (Units=GPa)
#
#
# Indices 1 2 3 4 5 6 
#
# 1 63.0913 23.5338 39.0042 0.0000 0.0000 0.0000
# 2 23.5338 63.0913 39.0042 0.0000 0.0000 0.0000
# 3 39.0042 39.0042 119.2439 0.0000 0.0000 0.0000
# 4 0.0000 0.0000 0.0000 32.2740 0.0000 0.0000
# 5 0.0000 0.0000 0.0000 0.0000 32.2740 0.0000
# 6 0.0000 0.0000 0.0000 0.0000 0.0000 19.7787
#
#
#
# Elastic Compliance Matrix: (Units=1/GPa)
#
#
# Indices 1 2 3 4 5 6 
#
# 1 0.020822 -0.004458 -0.005353 0.000000 0.000000 0.000000
# 2 -0.004458 0.020822 -0.005353 0.000000 0.000000 0.000000
# 3 -0.005353 -0.005353 0.011888 0.000000 0.000000 0.000000
# 4 0.000000 0.000000 0.000000 0.030985 0.000000 0.000000
# 5 0.000000 0.000000 0.000000 0.000000 0.030985 0.000000
# 6 0.000000 0.000000 0.000000 0.000000 0.000000 0.050559
#
#
# Mechanical properties :
#
#
# Convention : Reuss Voigt Hill
#
# Bulk Modulus (GPa) = 43.09302 49.83456 46.46379
# Shear Modulus (GPa) = 24.49516 26.45762 25.47639
#
# Velocity S-wave (km/s) = 3.70065 3.84603 3.77404
# Velocity P-wave (km/s) = 6.50786 6.89813 6.70583
#
# Compressibility (1/GPa) = 0.02320561
#
# Stress axis : x y z
#
# Youngs Moduli (GPa) = 48.02622 48.02622 84.11953
#
# Poissons Ratio (x) = 0.21409 0.45026
# Poissons Ratio (y) = 0.21409 0.45026
# Poissons Ratio (z) = 0.25707 0.25707
#
# Static dielectric constant tensor:
#      x y z
#    x 3.190430 0.000000 0.000000 
#    y 0.000000 3.190430 0.000000 
#    z 0.000000 0.000000 3.393570 
# 
# 
# High freq. dielectric constant tensor:
#      x y z
#    x 1.664000 0.000000 0.000000 
#    y 0.000000 1.664000 0.000000 
#    z 0.000000 0.000000 1.704650 
# 
# From -- ./inp_files/6604.got.cif
#   From: 2010.03.12/outbox.cif.g09.slc.cpg/sg193_4_cif.got.tgz:6604.got - 2010.04.01 12:20:39.
