data_PCOD8329166
_publ_section_title
;
Structure prediction by ZEFSAII (Michael W. Deem and Ramdas Pophale) SiO2 
 PCOD8329166
Probable space group: P 6/M M M
;
_chemical_formula_sum "Si O2"
_cell_formula_units_Z 84
_cell_length_a 21.091286
_cell_length_b 21.091286
_cell_length_c 11.055658
_cell_angle_alpha 90.000000
_cell_angle_beta 90.000000
_cell_angle_gamma 120.000000
_cell_volume 4259.134441
_symmetry_space_group_name_H-M "P 6/M M M"
_symmetry_group_IT_number 191
_symmetry_cell_setting 'hexagonal'
loop_
_space_group_symop_operation_xyz
x,y,z
x-y,x,z
-y,x-y,z
-x,-y,z
-x+y,-x,z
y,-x+y,z
x-y,-y,-z
-x,-x+y,-z
y,x,-z
-y,-x,-z
-x+y,y,-z
x,x-y,-z
-x,-y,-z
-x+y,-x,-z
y,-x+y,-z
x,y,-z
x-y,x,-z
-y,x-y,-z
-x+y,y,z
x,x-y,z
-y,-x,z
y,x,z
x-y,-y,z
-x,-x+y,z
loop_
_atom_site_type_symbol
_atom_site_label
_atom_site_fract_x
_atom_site_fract_y
_atom_site_fract_z
Si Si1 0.517306 0.333234 0.784036
Si Si2 0.714096 0.857048 0.355135
Si Si3 0.828082 0.914041 0.864157
Si Si4 0.079589 0.389793 0.360114
Si Si5 0.616145 0.081892 0.000000
O O1 0.524872 0.262436 0.802815
O O2 0.598358 0.401643 0.782933
O O3 0.473415 0.330629 0.664348
O O4 0.465141 0.337204 0.885927
O O5 0.738255 0.869128 0.500000
O O6 0.777804 0.888902 0.255978
O O7 0.666533 0.772129 0.321660
O O8 0.878839 0.878839 0.853800
O O9 0.789385 0.894693 0.000000
O O10 0.067025 0.385534 0.500000
O O11 0.000000 0.365233 0.298419
O O12 0.538214 0.076428 0.000000
O O13 0.604735 0.000000 0.000000
#
# Coordination Sequence:
#
# PCOD8329166 Si02
#       5
#    24  12  12  24  12
#     4  11  22  38  59  85 118 156 198 244 298 361
#     4  10  20  39  63  87 120 160 208 262 316 375
#     4  10  21  38  60  90 128 168 208 256 316 382
#     4  10  21  38  60  85 115 153 197 249 305 359
#     4   9  19  36  58  84 114 149 192 243 292 345
#
# _framework density 19.722317
#
# number of rings (size 3 to 8) (size 9 to 14) (size 15 to 20)
#    0.000    1.857    1.429    2.571    0.000    4.571 
#    2.571    2.857    0.000    2.571    0.000    0.000 
#    0.000    0.000    0.000    0.000    0.000    0.000 
#
# Total GULP energy -1040676.106163 kJ/mol
# GULP energy per Si atom -12389.001264 kJ/mol
# Density = 1.967743 g / cm^3
# Si number density = 19.722317 Si / 1000 Ang^3
#
#
#
# Elastic Constant Matrix: (Units=GPa)
#
#
# Indices 1 2 3 4 5 6 
#
# 1 106.8419 104.8748 46.3888 0.0000 0.0000 0.0000
# 2 104.8748 106.8419 46.3888 0.0000 0.0000 0.0000
# 3 46.3888 46.3888 56.9157 0.0000 0.0000 0.0000
# 4 0.0000 0.0000 0.0000 24.7811 0.0000 0.0000
# 5 0.0000 0.0000 0.0000 0.0000 24.7811 0.0000
# 6 0.0000 0.0000 0.0000 0.0000 0.0000 0.9836
#
#
#
# Elastic Compliance Matrix: (Units=1/GPa)
#
#
# Indices 1 2 3 4 5 6 
#
# 1 0.257852 -0.250504 -0.005989 0.000000 0.000000 0.000000
# 2 -0.250504 0.257852 -0.005989 0.000000 0.000000 0.000000
# 3 -0.005989 -0.005989 0.027332 0.000000 0.000000 0.000000
# 4 0.000000 0.000000 0.000000 0.040353 0.000000 0.000000
# 5 0.000000 0.000000 0.000000 0.000000 0.040353 0.000000
# 6 0.000000 0.000000 0.000000 0.000000 0.000000 1.016712
#
#
# Mechanical properties :
#
#
# Convention : Reuss Voigt Hill
#
# Bulk Modulus (GPa) = 55.33255 73.98937 64.66096
# Shear Modulus (GPa) = 2.30262 14.97228 8.63745
#
# Velocity S-wave (km/s) = 1.08169 2.75826 2.09500
# Velocity P-wave (km/s) = 5.44764 6.90949 6.22165
#
# Compressibility (1/GPa) = 0.01807255
#
# Stress axis : x y z
#
# Youngs Moduli (GPa) = 3.87820 3.87820 36.58739
#
# Poissons Ratio (x) = 0.97150 0.21911
# Poissons Ratio (y) = 0.97150 0.21911
# Poissons Ratio (z) = 0.02323 0.02323
#
# Static dielectric constant tensor:
#      x y z
#    x 3.902550 0.000000 0.000000 
#    y 0.000000 3.902550 0.000000 
#    z 0.000000 0.000000 3.749630 
# 
# 
# High freq. dielectric constant tensor:
#      x y z
#    x 1.773410 0.000000 0.000000 
#    y 0.000000 1.773410 0.000000 
#    z 0.000000 0.000000 1.769530 
# 
# From -- ./inp_files/2456.got.cif
#   From: 2010.03.12/outbox.cif.g09.slc.cpg/sg191_2_cif.got.tgz:2456.got - 2010.04.01 12:09:02.
