data_PCOD8329437
_publ_section_title
;
Structure prediction by ZEFSAII (Michael W. Deem and Ramdas Pophale) SiO2 
 PCOD8329437
Probable space group: P 6/M C C
;
_chemical_formula_sum "Si O2"
_cell_formula_units_Z 120
_cell_length_a 21.706092
_cell_length_b 21.706092
_cell_length_c 15.452588
_cell_angle_alpha 90.000000
_cell_angle_beta 90.000000
_cell_angle_gamma 120.000000
_cell_volume 6305.145835
_symmetry_space_group_name_H-M "P 6/M C C"
_symmetry_group_IT_number 192
_symmetry_cell_setting 'hexagonal'
loop_
_space_group_symop_operation_xyz
x,y,z
x-y,x,z
-y,x-y,z
-x,-y,z
-x+y,-x,z
y,-x+y,z
x-y,-y,1/2-z
-x,-x+y,1/2-z
y,x,1/2-z
-y,-x,1/2-z
-x+y,y,1/2-z
x,x-y,1/2-z
-x,-y,-z
-x+y,-x,-z
y,-x+y,-z
x,y,-z
x-y,x,-z
-y,x-y,-z
-x+y,y,1/2+z
x,x-y,1/2+z
-y,-x,1/2+z
y,x,1/2+z
x-y,-y,1/2+z
-x,-x+y,1/2+z
loop_
_atom_site_type_symbol
_atom_site_label
_atom_site_fract_x
_atom_site_fract_y
_atom_site_fract_z
Si Si1 0.724751 0.823398 0.161927
Si Si2 0.265315 0.218862 0.404093
Si Si3 0.296357 0.427547 0.904077
Si Si4 0.150885 0.425729 0.903871
Si Si5 0.522196 0.334687 0.752174
O O1 0.721182 0.860591 0.250000
O O2 0.747387 0.886131 0.091981
O O3 0.778719 0.792261 0.160866
O O4 0.650777 0.753063 0.139593
O O5 0.252700 0.239277 0.500000
O O6 0.346915 0.272033 0.374760
O O7 0.229506 0.438760 0.911809
O O8 0.345876 0.481309 0.829338
O O9 0.333157 0.443900 0.000000
O O10 0.148011 0.484169 0.841736
O O11 0.122800 0.429819 0.000000
O O12 0.602648 0.397353 0.750000
O O13 0.520904 0.260452 0.750000
#
# Coordination Sequence:
#
# PCOD8329437 Si02
#       5
#    24  24  24  24  24
#     4  11  20  32  53  81 108 134 171 218 265 309
#     4  10  19  33  53  78 105 135 170 213 261 312
#     4   8  16  31  50  70  97 134 177 219 260 304
#     4   9  17  31  49  70  97 134 175 215 258 308
#     4  10  19  31  48  72 101 132 169 217 269 322
#
# _framework density 19.032073
#
# number of rings (size 3 to 8) (size 9 to 14) (size 15 to 20)
#    0.000    2.400    0.000    6.800    0.000    0.800 
#    0.000    0.000    0.000    5.200    0.000    7.000 
#    0.000    0.000    0.000    0.000    0.000    0.000 
#
# Total GULP energy -1486633.503532 kJ/mol
# GULP energy per Si atom -12388.612529 kJ/mol
# Density = 1.898876 g / cm^3
# Si number density = 19.032073 Si / 1000 Ang^3
#
#
#
# Elastic Constant Matrix: (Units=GPa)
#
#
# Indices 1 2 3 4 5 6 
#
# 1 75.2466 29.9535 41.4953 0.0000 0.0000 0.0000
# 2 29.9535 75.2466 41.4953 0.0000 0.0000 0.0000
# 3 41.4953 41.4953 135.9919 0.0000 0.0000 0.0000
# 4 0.0000 0.0000 0.0000 19.0120 0.0000 0.0000
# 5 0.0000 0.0000 0.0000 0.0000 19.0120 0.0000
# 6 0.0000 0.0000 0.0000 0.0000 0.0000 22.6465
#
#
#
# Elastic Compliance Matrix: (Units=1/GPa)
#
#
# Indices 1 2 3 4 5 6 
#
# 1 0.017299 -0.004780 -0.003820 0.000000 0.000000 0.000000
# 2 -0.004780 0.017299 -0.003820 0.000000 0.000000 0.000000
# 3 -0.003820 -0.003820 0.009685 0.000000 0.000000 0.000000
# 4 0.000000 0.000000 0.000000 0.052598 0.000000 0.000000
# 5 0.000000 0.000000 0.000000 0.000000 0.052598 0.000000
# 6 0.000000 0.000000 0.000000 0.000000 0.000000 0.044157
#
#
# Mechanical properties :
#
#
# Convention : Reuss Voigt Hill
#
# Bulk Modulus (GPa) = 51.43231 56.93037 54.18134
# Shear Modulus (GPa) = 22.22656 23.70349 22.96503
#
# Velocity S-wave (km/s) = 3.42109 3.53292 3.47745
# Velocity P-wave (km/s) = 6.53359 6.82787 6.68235
#
# Compressibility (1/GPa) = 0.01944303
#
# Stress axis : x y z
#
# Youngs Moduli (GPa) = 57.80735 57.80735 103.25690
#
# Poissons Ratio (x) = 0.27630 0.39444
# Poissons Ratio (y) = 0.27630 0.39444
# Poissons Ratio (z) = 0.22082 0.22082
#
# Static dielectric constant tensor:
#      x y z
#    x 3.236930 0.000000 0.000000 
#    y 0.000000 3.236930 0.000000 
#    z 0.000000 0.000000 4.226640 
# 
# 
# High freq. dielectric constant tensor:
#      x y z
#    x 1.703820 0.000000 0.000000 
#    y 0.000000 1.703820 0.000000 
#    z 0.000000 0.000000 1.764220 
# 
# From -- ./inp_files/3164.got.cif
#   From: 2010.03.12/outbox.cif.g09.slc.cpg/sg192_2_cif.got.tgz:3164.got - 2010.04.01 12:16:15.
