data_PCOD8329967
_publ_section_title
;
Structure prediction by ZEFSAII (Michael W. Deem and Ramdas Pophale) SiO2 
 PCOD8329967
Probable space group: P 63/M C M
;
_chemical_formula_sum "Si O2"
_cell_formula_units_Z 56
_cell_length_a 12.888060
_cell_length_b 12.888060
_cell_length_c 20.309362
_cell_angle_alpha 90.000000
_cell_angle_beta 90.000000
_cell_angle_gamma 120.000000
_cell_volume 2921.473901
_symmetry_space_group_name_H-M "P 63/M C M"
_symmetry_group_IT_number 193
_symmetry_cell_setting 'hexagonal'
loop_
_space_group_symop_operation_xyz
x,y,z
x-y,x,1/2+z
-y,x-y,z
-x,-y,1/2+z
-x+y,-x,z
y,-x+y,1/2+z
x-y,-y,1/2-z
-x,-x+y,1/2-z
y,x,1/2-z
-y,-x,-z
-x+y,y,-z
x,x-y,-z
-x,-y,-z
-x+y,-x,1/2-z
y,-x+y,-z
x,y,1/2-z
x-y,x,-z
-y,x-y,1/2-z
-x+y,y,1/2+z
x,x-y,1/2+z
-y,-x,1/2+z
y,x,z
x-y,-y,z
-x,-x+y,z
loop_
_atom_site_type_symbol
_atom_site_label
_atom_site_fract_x
_atom_site_fract_y
_atom_site_fract_z
Si Si1 0.416640 0.279566 0.873434
Si Si2 0.333334 0.666668 0.670283
Si Si3 0.137782 0.865610 0.250000
Si Si4 0.857487 0.142514 0.000000
O O1 0.385201 0.385201 0.877864
O O2 0.557576 0.343975 0.860201
O O3 0.351694 0.191874 0.813620
O O4 0.373599 0.198375 0.938404
O O5 0.333334 0.666668 0.750000
O O6 0.000000 0.772498 0.250000
O O7 0.160322 0.000000 0.250000
O O8 0.000000 0.199781 0.991395
#
# Coordination Sequence:
#
# PCOD8329967 Si02
#       4
#    24   8  12  12
#     4  10  23  40  60  89 121 156 206 253 297 365
#     4  12  24  43  65  88 117 169 206 253 321 361
#     4  10  19  34  56  86 119 154 198 250 302 354
#     4  10  21  40  64  94 129 164 200 248 308 366
#
# _framework density 19.168407999999999
#
# number of rings (size 3 to 8) (size 9 to 14) (size 15 to 20)
#    0.000    1.714    2.143    1.714    0.000    5.143 
#    0.000    8.571    0.000    0.000    0.000    0.000 
#    0.000    0.000    0.000    0.000    0.000    0.000 
#
# Total GULP energy -694492.659160 kJ/mol
# GULP energy per Si atom -12401.654628 kJ/mol
# Density = 1.912478 g / cm^3
# Si number density = 19.168408 Si / 1000 Ang^3
#
#
#
# Elastic Constant Matrix: (Units=GPa)
#
#
# Indices 1 2 3 4 5 6 
#
# 1 99.8299 59.1483 54.2555 -0.0003 0.0003 0.0003
# 2 59.1483 99.8322 54.2566 -0.0002 0.0001 0.0006
# 3 54.2555 54.2566 164.4293 0.0001 0.0000 0.0002
# 4 -0.0003 -0.0002 0.0001 47.7220 0.0002 0.0001
# 5 0.0003 0.0001 0.0000 0.0002 47.7214 0.0001
# 6 0.0003 0.0006 0.0002 0.0001 0.0001 20.3417
#
#
#
# Elastic Compliance Matrix: (Units=1/GPa)
#
#
# Indices 1 2 3 4 5 6 
#
# 1 0.016350 -0.008231 -0.002679 0.000000 0.000000 0.000000
# 2 -0.008231 0.016349 -0.002679 0.000000 0.000000 0.000000
# 3 -0.002679 -0.002679 0.007850 0.000000 0.000000 0.000000
# 4 0.000000 0.000000 0.000000 0.020955 0.000000 0.000000
# 5 0.000000 0.000000 0.000000 0.000000 0.020955 0.000000
# 6 0.000000 0.000000 0.000000 0.000000 0.000000 0.049160
#
#
# Mechanical properties :
#
#
# Convention : Reuss Voigt Hill
#
# Bulk Modulus (GPa) = 74.78729 77.71247 76.24988
# Shear Modulus (GPa) = 30.62735 36.25241 33.43988
#
# Velocity S-wave (km/s) = 4.00159 4.35358 4.18129
# Velocity P-wave (km/s) = 7.77502 8.11797 7.94835
#
# Compressibility (1/GPa) = 0.01337126
#
# Stress axis : x y z
#
# Youngs Moduli (GPa) = 61.16326 61.16442 127.39658
#
# Poissons Ratio (x) = 0.50344 0.34127
# Poissons Ratio (y) = 0.50343 0.34128
# Poissons Ratio (z) = 0.16385 0.16385
#
# Static dielectric constant tensor:
#      x y z
#    x 3.460350 -0.000010 0.000000 
#    y -0.000010 3.460340 0.000010 
#    z 0.000000 0.000010 3.686030 
# 
# 
# High freq. dielectric constant tensor:
#      x y z
#    x 1.746930 0.000000 0.000000 
#    y 0.000000 1.746930 0.000000 
#    z 0.000000 0.000000 1.764820 
# 
# From -- ./inp_files/7014.got.cif
#   From: 2010.03.12/outbox.cif.g09.slc.cpg/sg193_4_cif.got.tgz:7014.got - 2010.04.01 12:20:39.
