data_PCOD8329953
_publ_section_title
;
Structure prediction by ZEFSAII (Michael W. Deem and Ramdas Pophale) SiO2 
 PCOD8329953
Probable space group: P 63/M C M
;
_chemical_formula_sum "Si O2"
_cell_formula_units_Z 144
_cell_length_a 22.696561
_cell_length_b 22.696561
_cell_length_c 18.548786
_cell_angle_alpha 90.000000
_cell_angle_beta 90.000000
_cell_angle_gamma 120.000000
_cell_volume 8274.966371
_symmetry_space_group_name_H-M "P 63/M C M"
_symmetry_group_IT_number 193
_symmetry_cell_setting 'hexagonal'
loop_
_space_group_symop_operation_xyz
x,y,z
x-y,x,1/2+z
-y,x-y,z
-x,-y,1/2+z
-x+y,-x,z
y,-x+y,1/2+z
x-y,-y,1/2-z
-x,-x+y,1/2-z
y,x,1/2-z
-y,-x,-z
-x+y,y,-z
x,x-y,-z
-x,-y,-z
-x+y,-x,1/2-z
y,-x+y,-z
x,y,1/2-z
x-y,x,-z
-y,x-y,1/2-z
-x+y,y,1/2+z
x,x-y,1/2+z
-y,-x,1/2+z
y,x,z
x-y,-y,z
-x,-x+y,z
loop_
_atom_site_type_symbol
_atom_site_label
_atom_site_fract_x
_atom_site_fract_y
_atom_site_fract_z
Si Si1 0.633884 0.792721 0.329733
Si Si2 0.305631 0.922056 0.050884
Si Si3 0.456709 0.840050 0.929588
Si Si4 0.923216 0.645085 0.110487
Si Si5 0.497375 0.871382 0.333691
Si Si6 0.272530 0.746172 0.170738
O O1 0.662209 0.790452 0.250000
O O2 0.652653 0.752063 0.387655
O O3 0.664325 0.871564 0.351464
O O4 0.553400 0.755740 0.327038
O O5 0.344170 0.879471 0.049861
O O6 0.361681 0.000000 0.063193
O O7 0.267956 0.909982 0.974767
O O8 0.442326 0.889599 0.878010
O O9 0.438218 0.769976 0.888257
O O10 0.409907 0.819813 0.000000
O O11 0.914073 0.573725 0.137757
O O12 0.000000 0.703265 0.129339
O O13 0.496740 0.888275 0.250000
O O14 0.463997 0.790778 0.348897
O O15 0.302091 0.744797 0.250000
#
# Coordination Sequence:
#
# PCOD8329953 Si02
#       6
#    24  24  24  24  24  24
#     4   9  18  33  53  74  97 126 161 201 241 292
#     4  10  21  35  52  73 102 137 170 202 247 307
#     4  11  20  32  49  70  92 125 163 214 261 311
#     4  10  19  33  54  77 100 127 159 200 254 308
#     4  10  20  34  50  68  91 121 158 208 263 313
#     4   8  17  33  49  63  85 118 156 199 255 313
#
# _framework density 17.401883000000002
#
# number of rings (size 3 to 8) (size 9 to 14) (size 15 to 20)
#    0.000    2.333    1.667    2.500    0.000    4.000 
#    1.000    0.000    0.000    0.000    0.000    0.000 
#    0.000    0.000    0.000    0.500    0.000    9.667 
#
# Total GULP energy -1785153.740520 kJ/mol
# GULP energy per Si atom -12396.900976 kJ/mol
# Density = 1.736228 g / cm^3
# Si number density = 17.401883 Si / 1000 Ang^3
#
#
#
# Elastic Constant Matrix: (Units=GPa)
#
#
# Indices 1 2 3 4 5 6 
#
# 1 43.4689 17.0621 32.7295 0.0000 0.0000 0.0000
# 2 17.0621 43.4689 32.7295 0.0000 0.0000 0.0000
# 3 32.7295 32.7295 132.0994 0.0000 0.0000 0.0000
# 4 0.0000 0.0000 0.0000 19.8804 0.0000 0.0000
# 5 0.0000 0.0000 0.0000 0.0000 19.8804 0.0000
# 6 0.0000 0.0000 0.0000 0.0000 0.0000 13.2034
#
#
#
# Elastic Compliance Matrix: (Units=1/GPa)
#
#
# Indices 1 2 3 4 5 6 
#
# 1 0.030218 -0.007651 -0.005591 0.000000 0.000000 0.000000
# 2 -0.007651 0.030218 -0.005591 0.000000 0.000000 0.000000
# 3 -0.005591 -0.005591 0.010341 0.000000 0.000000 0.000000
# 4 0.000000 0.000000 0.000000 0.050301 0.000000 0.000000
# 5 0.000000 0.000000 0.000000 0.000000 0.050301 0.000000
# 6 0.000000 0.000000 0.000000 0.000000 0.000000 0.075738
#
#
# Mechanical properties :
#
#
# Convention : Reuss Voigt Hill
#
# Bulk Modulus (GPa) = 30.20283 42.67549 36.43916
# Shear Modulus (GPa) = 16.90218 19.69393 18.29805
#
# Velocity S-wave (km/s) = 3.11993 3.36774 3.24620
# Velocity P-wave (km/s) = 5.51111 6.30071 5.91909
#
# Compressibility (1/GPa) = 0.03310947
#
# Stress axis : x y z
#
# Youngs Moduli (GPa) = 33.09288 33.09288 96.70524
#
# Poissons Ratio (x) = 0.25319 0.54071
# Poissons Ratio (y) = 0.25319 0.54071
# Poissons Ratio (z) = 0.18503 0.18503
#
# Static dielectric constant tensor:
#      x y z
#    x 3.006680 0.000000 0.000000 
#    y 0.000000 3.006680 0.000000 
#    z 0.000000 0.000000 3.644240 
# 
# 
# High freq. dielectric constant tensor:
#      x y z
#    x 1.636450 0.000000 0.000000 
#    y 0.000000 1.636450 0.000000 
#    z 0.000000 0.000000 1.697520 
# 
# From -- ./inp_files/5535.got.cif
#   From: 2010.03.12/outbox.cif.g09.slc.cpg/sg193_3_cif.got.tgz:5535.got - 2010.04.01 12:20:39.
