data_PCOD8329388
_publ_section_title
;
Structure prediction by ZEFSAII (Michael W. Deem and Ramdas Pophale) SiO2 
 PCOD8329388
Probable space group: P 6/M C C
;
_chemical_formula_sum "Si O2"
_cell_formula_units_Z 164
_cell_length_a 21.229873
_cell_length_b 21.229873
_cell_length_c 24.865163
_cell_angle_alpha 90.000000
_cell_angle_beta 90.000000
_cell_angle_gamma 120.000000
_cell_volume 9705.473644
_symmetry_space_group_name_H-M "P 6/M C C"
_symmetry_group_IT_number 192
_symmetry_cell_setting 'hexagonal'
loop_
_space_group_symop_operation_xyz
x,y,z
x-y,x,z
-y,x-y,z
-x,-y,z
-x+y,-x,z
y,-x+y,z
x-y,-y,1/2-z
-x,-x+y,1/2-z
y,x,1/2-z
-y,-x,1/2-z
-x+y,y,1/2-z
x,x-y,1/2-z
-x,-y,-z
-x+y,-x,-z
y,-x+y,-z
x,y,-z
x-y,x,-z
-y,x-y,-z
-x+y,y,1/2+z
x,x-y,1/2+z
-y,-x,1/2+z
y,x,1/2+z
x-y,-y,1/2+z
-x,-x+y,1/2+z
loop_
_atom_site_type_symbol
_atom_site_label
_atom_site_fract_x
_atom_site_fract_y
_atom_site_fract_z
Si Si1 0.374913 0.385427 0.438073
Si Si2 0.076281 0.771750 0.938702
Si Si3 0.735429 0.267600 0.365840
Si Si4 0.166960 0.761866 0.560147
Si Si5 0.149429 0.128530 0.435561
Si Si6 0.500000 0.500000 0.364121
Si Si7 0.575884 0.161699 0.186685
Si Si8 0.333334 0.666667 0.063226
O O1 0.401334 0.399471 0.500000
O O2 0.360278 0.307702 0.414739
O O3 0.301249 0.387186 0.429904
O O4 0.436508 0.445198 0.402008
O O5 0.161363 0.829998 0.934834
O O6 0.032847 0.807567 0.911568
O O7 0.049600 0.754284 0.000000
O O8 0.781299 0.235626 0.392622
O O9 0.790912 0.341355 0.334563
O O10 0.671731 0.205329 0.329007
O O11 0.697462 0.283183 0.415578
O O12 0.193017 0.754130 0.500000
O O13 0.085199 0.138480 0.412583
O O14 0.151032 0.127007 0.500000
O O15 0.467312 0.543646 0.331259
O O16 0.580258 0.160515 0.250000
O O17 0.333334 0.666668 0.000000
#
# Coordination Sequence:
#
# PCOD8329388 Si02
#       8
#    24  24  24  24  24  12  24   8
#     4  10  20  33  50  74 105 139 169 208 258 316
#     4   9  17  28  43  64  93 133 172 201 239 291
#     4  10  20  36  54  76 101 130 169 208 259 320
#     4  10  18  31  49  73 104 136 170 208 249 306
#     4   9  15  23  36  57  86 122 165 209 241 268
#     4  12  22  38  54  80 106 130 172 214 270 322
#     4  11  23  39  59  78 101 132 172 223 272 317
#     4   9  18  30  49  77 103 129 156 201 256 311
#
# _framework density 16.897682
#
# number of rings (size 3 to 8) (size 9 to 14) (size 15 to 20)
#    0.000    2.049    1.463    3.512    0.000    4.098 
#    0.000    1.463    0.000    0.000    0.000    0.000 
#    0.000    0.000    0.000    0.000    0.000    0.000 
#
# Total GULP energy -2032053.197590 kJ/mol
# GULP energy per Si atom -12390.568278 kJ/mol
# Density = 1.685922 g / cm^3
# Si number density = 16.897682 Si / 1000 Ang^3
#
#
#
# Elastic Constant Matrix: (Units=GPa)
#
#
# Indices 1 2 3 4 5 6 
#
# 1 94.5498 34.2665 35.3549 0.0000 0.0000 0.0000
# 2 34.2665 94.5498 35.3549 0.0000 0.0000 0.0000
# 3 35.3549 35.3549 79.1243 0.0001 0.0001 0.0001
# 4 0.0000 0.0000 0.0001 15.3419 0.0000 0.0000
# 5 0.0000 0.0000 0.0001 0.0000 15.3420 0.0000
# 6 0.0000 0.0000 0.0001 0.0000 0.0000 30.1413
#
#
#
# Elastic Compliance Matrix: (Units=1/GPa)
#
#
# Indices 1 2 3 4 5 6 
#
# 1 0.013437 -0.003151 -0.004596 0.000000 0.000000 0.000000
# 2 -0.003151 0.013437 -0.004596 0.000000 0.000000 0.000000
# 3 -0.004596 -0.004596 0.016746 0.000000 0.000000 0.000000
# 4 0.000000 0.000000 0.000000 0.065181 0.000000 0.000000
# 5 0.000000 0.000000 0.000000 0.000000 0.065181 0.000000
# 6 0.000000 0.000000 0.000000 0.000000 0.000000 0.033177
#
#
# Mechanical properties :
#
#
# Convention : Reuss Voigt Hill
#
# Bulk Modulus (GPa) = 52.81709 53.13072 52.97390
# Shear Modulus (GPa) = 20.99464 23.04821 22.02143
#
# Velocity S-wave (km/s) = 3.52867 3.69723 3.61393
# Velocity P-wave (km/s) = 6.92293 7.05243 6.98798
#
# Compressibility (1/GPa) = 0.01893327
#
# Stress axis : x y z
#
# Youngs Moduli (GPa) = 74.42090 74.42096 59.71724
#
# Poissons Ratio (x) = 0.23452 0.27446
# Poissons Ratio (y) = 0.23452 0.27446
# Poissons Ratio (z) = 0.34204 0.34204
#
# Static dielectric constant tensor:
#      x y z
#    x 3.410510 0.000000 0.000000 
#    y 0.000000 3.410510 0.000000 
#    z 0.000000 0.000000 2.788190 
# 
# 
# High freq. dielectric constant tensor:
#      x y z
#    x 1.667100 0.000000 0.000000 
#    y 0.000000 1.667100 0.000000 
#    z 0.000000 0.000000 1.596410 
# 
# From -- ./inp_files/6074.got.cif
#   From: 2010.03.12/outbox.cif.g09.slc.cpg/sg192_4_cif.got.tgz:6074.got - 2010.04.01 12:16:15.
