data_PCOD8329438
_publ_section_title
;
Structure prediction by ZEFSAII (Michael W. Deem and Ramdas Pophale) SiO2 
 PCOD8329438
Probable space group: P 6/M C C
;
_chemical_formula_sum "Si O2"
_cell_formula_units_Z 168
_cell_length_a 21.113473
_cell_length_b 21.113473
_cell_length_c 23.979539
_cell_angle_alpha 90.000000
_cell_angle_beta 90.000000
_cell_angle_gamma 120.000000
_cell_volume 9257.438077
_symmetry_space_group_name_H-M "P 6/M C C"
_symmetry_group_IT_number 192
_symmetry_cell_setting 'hexagonal'
loop_
_space_group_symop_operation_xyz
x,y,z
x-y,x,z
-y,x-y,z
-x,-y,z
-x+y,-x,z
y,-x+y,z
x-y,-y,1/2-z
-x,-x+y,1/2-z
y,x,1/2-z
-y,-x,1/2-z
-x+y,y,1/2-z
x,x-y,1/2-z
-x,-y,-z
-x+y,-x,-z
y,-x+y,-z
x,y,-z
x-y,x,-z
-y,x-y,-z
-x+y,y,1/2+z
x,x-y,1/2+z
-y,-x,1/2+z
y,x,1/2+z
x-y,-y,1/2+z
-x,-x+y,1/2+z
loop_
_atom_site_type_symbol
_atom_site_label
_atom_site_fract_x
_atom_site_fract_y
_atom_site_fract_z
Si Si1 0.070377 0.909255 0.434190
Si Si2 0.526877 0.444235 0.185376
Si Si3 0.353486 0.536268 0.899018
Si Si4 0.221301 0.685096 0.561883
Si Si5 0.157110 0.828498 0.566073
Si Si6 0.416118 0.326179 0.113197
Si Si7 0.677172 0.065230 0.562288
O O1 0.067727 0.916976 0.500000
O O2 0.105133 0.860140 0.419058
O O3 0.989651 0.871374 0.407824
O O4 0.500000 0.500000 0.163872
O O5 0.544722 0.455279 0.250000
O O6 0.602960 0.457648 0.157849
O O7 0.459740 0.361972 0.171439
O O8 0.385084 0.614149 0.929704
O O9 0.268219 0.516500 0.893896
O O10 0.358450 0.475368 0.935921
O O11 0.246490 0.717658 0.500000
O O12 0.134124 0.653580 0.568406
O O13 0.151980 0.806165 0.500000
O O14 0.129802 0.761513 0.609428
O O15 0.239127 0.888895 0.582307
O O16 0.366421 0.361952 0.101225
O O17 0.673546 0.036033 0.500000
#
# Coordination Sequence:
#
# PCOD8329438 Si02
#       7
#    24  24  24  24  24  24  24
#     4   9  16  26  41  65 101 153 204 237 262 301
#     4  10  22  43  63  80 104 138 184 240 284 319
#     4  11  22  37  56  82 106 146 183 215 273 332
#     4  11  21  34  53  79 116 144 170 213 265 327
#     4  10  19  31  48  74 115 152 182 229 281 329
#     4  11  21  34  54  81 104 143 186 223 274 331
#     4  11  20  32  51  79 115 148 184 222 270 335
#
# _framework density 18.147570000000002
#
# number of rings (size 3 to 8) (size 9 to 14) (size 15 to 20)
#    0.000    1.571    2.857    3.857    0.000    2.857 
#    0.000    5.000    0.000    0.000    0.000    0.000 
#    0.000    0.000    0.000    0.000    0.000    0.143 
#
# Total GULP energy -2081245.990891 kJ/mol
# GULP energy per Si atom -12388.368993 kJ/mol
# Density = 1.810627 g / cm^3
# Si number density = 18.147570 Si / 1000 Ang^3
#
#
#
# Elastic Constant Matrix: (Units=GPa)
#
#
# Indices 1 2 3 4 5 6 
#
# 1 106.9151 43.5867 40.1962 0.0000 0.0000 0.0000
# 2 43.5867 106.9151 40.1962 0.0000 0.0000 0.0000
# 3 40.1962 40.1962 65.8002 0.0000 0.0000 0.0000
# 4 0.0000 0.0000 0.0000 19.7793 0.0000 0.0000
# 5 0.0000 0.0000 0.0000 0.0000 19.7793 0.0000
# 6 0.0000 0.0000 0.0000 0.0000 0.0000 31.6642
#
#
#
# Elastic Compliance Matrix: (Units=1/GPa)
#
#
# Indices 1 2 3 4 5 6 
#
# 1 0.012827 -0.002964 -0.006025 0.000000 0.000000 0.000000
# 2 -0.002964 0.012827 -0.006025 0.000000 0.000000 0.000000
# 3 -0.006025 -0.006025 0.022559 0.000000 0.000000 0.000000
# 4 0.000000 0.000000 0.000000 0.050558 0.000000 0.000000
# 5 0.000000 0.000000 0.000000 0.000000 0.050558 0.000000
# 6 0.000000 0.000000 0.000000 0.000000 0.000000 0.031581
#
#
# Mechanical properties :
#
#
# Convention : Reuss Voigt Hill
#
# Bulk Modulus (GPa) = 54.99280 58.62098 56.80689
# Shear Modulus (GPa) = 23.04162 24.62131 23.83146
#
# Velocity S-wave (km/s) = 3.56712 3.68737 3.62775
# Velocity P-wave (km/s) = 6.88002 7.10644 6.99415
#
# Compressibility (1/GPa) = 0.01818420
#
# Stress axis : x y z
#
# Youngs Moduli (GPa) = 77.96215 77.96215 44.32890
#
# Poissons Ratio (x) = 0.23108 0.26708
# Poissons Ratio (y) = 0.23108 0.26708
# Poissons Ratio (z) = 0.46972 0.46972
#
# Static dielectric constant tensor:
#      x y z
#    x 3.642060 0.000000 0.000000 
#    y 0.000000 3.642060 0.000000 
#    z 0.000000 0.000000 2.775800 
# 
# 
# High freq. dielectric constant tensor:
#      x y z
#    x 1.725140 0.000000 0.000000 
#    y 0.000000 1.725140 0.000000 
#    z 0.000000 0.000000 1.624360 
# 
# From -- ./inp_files/6026.got.cif
#   From: 2010.03.12/outbox.cif.g09.slc.cpg/sg192_4_cif.got.tgz:6026.got - 2010.04.01 12:16:15.
