data_PCOD8329195
_publ_section_title
;
Structure prediction by ZEFSAII (Michael W. Deem and Ramdas Pophale) SiO2 
 PCOD8329195
Probable space group: P 6/M M M
;
_chemical_formula_sum "Si O2"
_cell_formula_units_Z 60
_cell_length_a 22.005742
_cell_length_b 22.005742
_cell_length_c 9.247114
_cell_angle_alpha 90.000000
_cell_angle_beta 90.000000
_cell_angle_gamma 120.000000
_cell_volume 3878.009576
_symmetry_space_group_name_H-M "P 6/M M M"
_symmetry_group_IT_number 191
_symmetry_cell_setting 'hexagonal'
loop_
_space_group_symop_operation_xyz
x,y,z
x-y,x,z
-y,x-y,z
-x,-y,z
-x+y,-x,z
y,-x+y,z
x-y,-y,-z
-x,-x+y,-z
y,x,-z
-y,-x,-z
-x+y,y,-z
x,x-y,-z
-x,-y,-z
-x+y,-x,-z
y,-x+y,-z
x,y,-z
x-y,x,-z
-y,x-y,-z
-x+y,y,z
x,x-y,z
-y,-x,z
y,x,z
x-y,-y,z
-x,-x+y,z
loop_
_atom_site_type_symbol
_atom_site_label
_atom_site_fract_x
_atom_site_fract_y
_atom_site_fract_z
Si Si1 0.000000 0.264462 0.670674
Si Si2 0.610815 0.083929 0.000000
Si Si3 0.140998 0.140998 0.835307
Si Si4 0.384286 0.260701 0.159714
O O1 0.000000 0.196351 0.725921
O O2 0.069859 0.333056 0.722814
O O3 0.000000 0.264698 0.500000
O O4 0.661226 0.114351 0.857337
O O5 0.555775 0.111549 0.000000
O O6 0.571829 0.000000 0.000000
O O7 0.066860 0.133720 0.802244
O O8 0.164901 0.164901 0.000000
O O9 0.405818 0.202909 0.206078
O O10 0.347098 0.240905 0.000000
#
# Coordination Sequence:
#
# PCOD8329195 Si02
#       4
#    12  12  12  24
#     4  12  22  31  45  72 104 134 168 207 252 292
#     4   9  15  28  54  77  93 117 154 199 244 289
#     4  10  21  36  52  66  85 121 171 219 260 304
#     4   9  17  32  51  72  99 132 167 201 242 295
#
# _framework density 15.471855
#
# number of rings (size 3 to 8) (size 9 to 14) (size 15 to 20)
#    1.200    1.000    2.000    3.200    0.000    7.200 
#    0.000    0.000    0.000    6.800    0.000    0.000 
#    0.000    0.000    0.000    0.000    0.000    0.000 
#
# Total GULP energy -743325.845208 kJ/mol
# GULP energy per Si atom -12388.764087 kJ/mol
# Density = 1.543664 g / cm^3
# Si number density = 15.471855 Si / 1000 Ang^3
#
#
#
# Elastic Constant Matrix: (Units=GPa)
#
#
# Indices 1 2 3 4 5 6 
#
# 1 162.9937 30.6501 46.0125 0.0000 0.0000 0.0000
# 2 30.6501 162.9937 46.0125 0.0000 0.0000 0.0000
# 3 46.0125 46.0125 89.6238 0.0000 0.0000 0.0000
# 4 0.0000 0.0000 0.0000 -1.9154 0.0000 0.0000
# 5 0.0000 0.0000 0.0000 0.0000 -1.9154 0.0000
# 6 0.0000 0.0000 0.0000 0.0000 0.0000 66.1718
#
#
#
# Elastic Compliance Matrix: (Units=1/GPa)
#
#
# Indices 1 2 3 4 5 6 
#
# 1 0.007193 -0.000363 -0.003507 0.000000 0.000000 0.000000
# 2 -0.000363 0.007193 -0.003507 0.000000 0.000000 0.000000
# 3 -0.003507 -0.003507 0.014759 0.000000 0.000000 0.000000
# 4 0.000000 0.000000 0.000000 -0.522087 0.000000 0.000000
# 5 0.000000 0.000000 0.000000 0.000000 -0.522087 0.000000
# 6 0.000000 0.000000 0.000000 0.000000 0.000000 0.015112
#
#
# Mechanical properties :
#
#
# Convention : Reuss Voigt Hill
#
# Bulk Modulus (GPa) = 69.48046 73.44014 71.46030
# Shear Modulus (GPa) = -5.10013 31.99728 13.44857
#
# Velocity S-wave (km/s) = -1.81757 4.55257 2.95147
# Velocity P-wave (km/s) = 6.37184 8.67205 7.60936
#
# Compressibility (1/GPa) = 0.01439253
#
# Stress axis : x y z
#
# Youngs Moduli (GPa) = 139.01677 139.01677 67.75739
#
# Poissons Ratio (x) = 0.05042 0.23761
# Poissons Ratio (y) = 0.05042 0.23761
# Poissons Ratio (z) = 0.48751 0.48751
#
# Static dielectric constant tensor:
#      x y z
#    x 2.962530 0.000000 0.000000 
#    y 0.000000 2.962530 0.000000 
#    z 0.000000 0.000000 2.679110 
# 
# 
# High freq. dielectric constant tensor:
#      x y z
#    x 1.586940 0.000000 0.000000 
#    y 0.000000 1.586940 0.000000 
#    z 0.000000 0.000000 1.560610 
# 
# From -- ./inp_files/826.got.cif
#   From: 2010.03.12/outbox.cif.g09.slc.cpg/sg191_1_cif.got.tgz:826.got - 2010.04.01 12:09:02.
