data_PCOD8329483
_publ_section_title
;
Structure prediction by ZEFSAII (Michael W. Deem and Ramdas Pophale) SiO2 
 PCOD8329483
Probable space group: P 6/M C C
;
_chemical_formula_sum "Si O2"
_cell_formula_units_Z 144
_cell_length_a 32.023247
_cell_length_b 32.023247
_cell_length_c 8.642045
_cell_angle_alpha 90.000000
_cell_angle_beta 90.000000
_cell_angle_gamma 120.000000
_cell_volume 7674.991186
_symmetry_space_group_name_H-M "P 6/M C C"
_symmetry_group_IT_number 192
_symmetry_cell_setting 'hexagonal'
loop_
_space_group_symop_operation_xyz
x,y,z
x-y,x,z
-y,x-y,z
-x,-y,z
-x+y,-x,z
y,-x+y,z
x-y,-y,1/2-z
-x,-x+y,1/2-z
y,x,1/2-z
-y,-x,1/2-z
-x+y,y,1/2-z
x,x-y,1/2-z
-x,-y,-z
-x+y,-x,-z
y,-x+y,-z
x,y,-z
x-y,x,-z
-y,x-y,-z
-x+y,y,1/2+z
x,x-y,1/2+z
-y,-x,1/2+z
y,x,1/2+z
x-y,-y,1/2+z
-x,-x+y,1/2+z
loop_
_atom_site_type_symbol
_atom_site_label
_atom_site_fract_x
_atom_site_fract_y
_atom_site_fract_z
Si Si1 0.951365 0.521416 0.682460
Si Si2 0.424440 0.757558 0.683225
Si Si3 0.193068 0.142452 0.817279
Si Si4 0.401334 0.154549 0.317741
Si Si5 0.488107 0.339802 0.681388
Si Si6 0.104259 0.297402 0.821314
O O1 0.946359 0.473180 0.750000
O O2 0.955996 0.521630 0.500000
O O3 0.904067 0.522557 0.735204
O O4 0.000000 0.567374 0.750000
O O5 0.373463 0.746926 0.750000
O O6 0.437845 0.718923 0.750000
O O7 0.420510 0.752645 0.500000
O O8 0.466028 0.810967 0.727680
O O9 0.152691 0.152691 0.750000
O O10 0.184635 0.092318 0.750000
O O11 0.246377 0.187153 0.764317
O O12 0.187164 0.137640 0.000000
O O13 0.402150 0.201075 0.250000
O O14 0.414001 0.161588 0.500000
O O15 0.440043 0.148668 0.221876
O O16 0.348307 0.105973 0.288643
O O17 0.499435 0.342251 0.500000
O O18 0.152283 0.304565 0.750000
O O19 0.109217 0.291147 0.000000
#
# Coordination Sequence:
#
# PCOD8329483 Si02
#       6
#    24  24  24  24  24  24
#     4  10  21  37  59  81 104 132 168 213 263 318
#     4  12  25  42  62  85 114 150 190 236 285 338
#     4  10  19  33  53  79 109 143 183 229 276 327
#     4  10  19  33  53  77 107 144 181 223 270 321
#     4  11  23  38  56  83 113 145 184 226 272 328
#     4   8  16  30  49  72  99 132 172 212 256 306
#
# _framework density 18.762236999999999
#
# number of rings (size 3 to 8) (size 9 to 14) (size 15 to 20)
#    0.000    1.833    0.000    5.167    0.000    5.333 
#    0.000    0.833    0.000    4.167    0.000    1.167 
#    0.000    0.000    0.000    0.000    0.000    0.000 
#
# Total GULP energy -1784377.030803 kJ/mol
# GULP energy per Si atom -12391.507158 kJ/mol
# Density = 1.871953 g / cm^3
# Si number density = 18.762237 Si / 1000 Ang^3
#
#
#
# Elastic Constant Matrix: (Units=GPa)
#
#
# Indices 1 2 3 4 5 6 
#
# 1 109.7266 56.2879 39.5999 0.0000 0.0000 0.0000
# 2 56.2879 109.7266 39.5999 0.0000 0.0000 0.0000
# 3 39.5999 39.5999 86.3306 0.0000 0.0000 0.0000
# 4 0.0000 0.0000 0.0000 25.6845 0.0000 0.0000
# 5 0.0000 0.0000 0.0000 0.0000 25.6845 0.0000
# 6 0.0000 0.0000 0.0000 0.0000 0.0000 26.7193
#
#
#
# Elastic Compliance Matrix: (Units=1/GPa)
#
#
# Indices 1 2 3 4 5 6 
#
# 1 0.013212 -0.005501 -0.003537 0.000000 0.000000 0.000000
# 2 -0.005501 0.013212 -0.003537 0.000000 0.000000 0.000000
# 3 -0.003537 -0.003537 0.014828 0.000000 0.000000 0.000000
# 4 0.000000 0.000000 0.000000 0.038934 0.000000 0.000000
# 5 0.000000 0.000000 0.000000 0.000000 0.038934 0.000000
# 6 0.000000 0.000000 0.000000 0.000000 0.000000 0.037426
#
#
# Mechanical properties :
#
#
# Convention : Reuss Voigt Hill
#
# Bulk Modulus (GPa) = 62.10379 64.08437 63.09408
# Shear Modulus (GPa) = 26.72886 26.97075 26.84980
#
# Velocity S-wave (km/s) = 3.77849 3.79555 3.78703
# Velocity P-wave (km/s) = 7.22553 7.31016 7.26797
#
# Compressibility (1/GPa) = 0.01610208
#
# Stress axis : x y z
#
# Youngs Moduli (GPa) = 75.68877 75.68877 67.43884
#
# Poissons Ratio (x) = 0.41637 0.23853
# Poissons Ratio (y) = 0.41637 0.23853
# Poissons Ratio (z) = 0.26771 0.26771
#
# Static dielectric constant tensor:
#      x y z
#    x 3.581840 0.000000 0.000000 
#    y 0.000000 3.581840 0.000000 
#    z 0.000000 0.000000 3.538440 
# 
# 
# High freq. dielectric constant tensor:
#      x y z
#    x 1.724300 0.000000 0.000000 
#    y 0.000000 1.724300 0.000000 
#    z 0.000000 0.000000 1.743850 
# 
# From -- ./inp_files/1193.got.cif
#   From: 2010.03.12/outbox.cif.g09.slc.cpg/sg192_1_cif.got.tgz:1193.got - 2010.04.01 12:16:15.
