data_PCOD8329676
_publ_section_title
;
Structure prediction by ZEFSAII (Michael W. Deem and Ramdas Pophale) SiO2 
 PCOD8329676
Probable space group: P 6/M C C
;
_chemical_formula_sum "Si O2"
_cell_formula_units_Z 104
_cell_length_a 19.322395
_cell_length_b 19.322395
_cell_length_c 17.897417
_cell_angle_alpha 90.000000
_cell_angle_beta 90.000000
_cell_angle_gamma 120.000000
_cell_volume 5786.859000
_symmetry_space_group_name_H-M "P 6/M C C"
_symmetry_group_IT_number 192
_symmetry_cell_setting 'hexagonal'
loop_
_space_group_symop_operation_xyz
x,y,z
x-y,x,z
-y,x-y,z
-x,-y,z
-x+y,-x,z
y,-x+y,z
x-y,-y,1/2-z
-x,-x+y,1/2-z
y,x,1/2-z
-y,-x,1/2-z
-x+y,y,1/2-z
x,x-y,1/2-z
-x,-y,-z
-x+y,-x,-z
y,-x+y,-z
x,y,-z
x-y,x,-z
-y,x-y,-z
-x+y,y,1/2+z
x,x-y,1/2+z
-y,-x,1/2+z
y,x,1/2+z
x-y,-y,1/2+z
-x,-x+y,1/2+z
loop_
_atom_site_type_symbol
_atom_site_label
_atom_site_fract_x
_atom_site_fract_y
_atom_site_fract_z
Si Si1 0.666667 0.333334 0.088785
Si Si2 0.712951 0.218045 0.330167
Si Si3 0.035915 0.591284 0.171486
Si Si4 0.001231 0.293079 0.412563
Si Si5 0.171173 0.826866 0.588984
O O1 0.730534 0.310084 0.117128
O O2 0.666667 0.333334 0.000000
O O3 0.740216 0.259785 0.250000
O O4 0.634619 0.131362 0.321617
O O5 0.785218 0.213567 0.368988
O O6 0.000000 0.500000 0.146657
O O7 0.000000 0.597576 0.250000
O O8 0.007812 0.631819 0.110369
O O9 0.995284 0.289476 0.500000
O O10 0.920340 0.217170 0.381788
O O11 0.080161 0.290799 0.386304
O O12 0.178851 0.819091 0.500000
#
# Coordination Sequence:
#
# PCOD8329676 Si02
#       5
#     8  24  24  24  24
#     4  12  28  41  55  78 109 146 184 222 265 317
#     4  11  23  38  58  80 106 143 182 221 271 316
#     4  10  22  35  55  78 106 135 175 219 268 315
#     4   9  18  33  53  77 104 139 177 219 266 317
#     4   9  18  34  55  79 109 141 180 222 268 320
#
# _framework density 17.971751999999999
#
# number of rings (size 3 to 8) (size 9 to 14) (size 15 to 20)
#    0.000    2.077    0.000    2.769    9.692    1.385 
#    0.000    0.000    0.000    0.462    0.000    3.231 
#    0.000    0.000    0.000    7.385    0.000   10.154 
#
# Total GULP energy -1289458.585841 kJ/mol
# GULP energy per Si atom -12398.640248 kJ/mol
# Density = 1.793085 g / cm^3
# Si number density = 17.971752 Si / 1000 Ang^3
#
#
#
# Elastic Constant Matrix: (Units=GPa)
#
#
# Indices 1 2 3 4 5 6 
#
# 1 142.1345 93.6158 39.7452 0.0001 0.0001 0.0001
# 2 93.6158 142.1346 39.7447 0.0000 0.0000 -0.0002
# 3 39.7452 39.7447 47.9836 0.0000 0.0001 -0.0002
# 4 0.0001 0.0000 0.0000 23.9977 0.0000 0.0000
# 5 0.0001 0.0000 0.0001 0.0000 23.9978 -0.0001
# 6 0.0001 -0.0002 -0.0002 0.0000 -0.0001 24.2588
#
#
#
# Elastic Compliance Matrix: (Units=1/GPa)
#
#
# Indices 1 2 3 4 5 6 
#
# 1 0.013248 -0.007363 -0.004875 0.000000 0.000000 0.000000
# 2 -0.007363 0.013248 -0.004875 0.000000 0.000000 0.000000
# 3 -0.004875 -0.004875 0.028916 0.000000 0.000000 0.000000
# 4 0.000000 0.000000 0.000000 0.041671 0.000000 0.000000
# 5 0.000000 0.000000 0.000000 0.000000 0.041671 0.000000
# 6 0.000000 0.000000 0.000000 0.000000 0.000000 0.041222
#
#
# Mechanical properties :
#
#
# Convention : Reuss Voigt Hill
#
# Bulk Modulus (GPa) = 47.19773 75.38491 61.29132
# Shear Modulus (GPa) = 22.59751 25.06066 23.82908
#
# Velocity S-wave (km/s) = 3.54982 3.73828 3.64527
# Velocity P-wave (km/s) = 6.56664 7.78912 7.20386
#
# Compressibility (1/GPa) = 0.02118746
#
# Stress axis : x y z
#
# Youngs Moduli (GPa) = 75.48238 75.48303 34.58246
#
# Poissons Ratio (x) = 0.55575 0.16859
# Poissons Ratio (y) = 0.55574 0.16858
# Poissons Ratio (z) = 0.36799 0.36797
#
# Static dielectric constant tensor:
#      x y z
#    x 3.634790 0.000000 -0.000060 
#    y 0.000000 3.634800 0.000000 
#    z -0.000060 0.000000 3.467270 
# 
# 
# High freq. dielectric constant tensor:
#      x y z
#    x 1.699060 0.000000 0.000000 
#    y 0.000000 1.699060 0.000000 
#    z 0.000000 0.000000 1.694440 
# 
# From -- ./inp_files/2876.got.cif
#   From: 2010.03.12/outbox.cif.g09.slc.cpg/sg192_2_cif.got.tgz:2876.got - 2010.04.01 12:16:15.
