data_PCOD8329515
_publ_section_title
;
Structure prediction by ZEFSAII (Michael W. Deem and Ramdas Pophale) SiO2 
 PCOD8329515
Probable space group: P 6/M C C
;
_chemical_formula_sum "Si O2"
_cell_formula_units_Z 128
_cell_length_a 20.828406
_cell_length_b 20.828406
_cell_length_c 18.010507
_cell_angle_alpha 90.000000
_cell_angle_beta 90.000000
_cell_angle_gamma 120.000000
_cell_volume 6766.570942
_symmetry_space_group_name_H-M "P 6/M C C"
_symmetry_group_IT_number 192
_symmetry_cell_setting 'hexagonal'
loop_
_space_group_symop_operation_xyz
x,y,z
x-y,x,z
-y,x-y,z
-x,-y,z
-x+y,-x,z
y,-x+y,z
x-y,-y,1/2-z
-x,-x+y,1/2-z
y,x,1/2-z
-y,-x,1/2-z
-x+y,y,1/2-z
x,x-y,1/2-z
-x,-y,-z
-x+y,-x,-z
y,-x+y,-z
x,y,-z
x-y,x,-z
-y,x-y,-z
-x+y,y,1/2+z
x,x-y,1/2+z
-y,-x,1/2+z
y,x,1/2+z
x-y,-y,1/2+z
-x,-x+y,1/2+z
loop_
_atom_site_type_symbol
_atom_site_label
_atom_site_fract_x
_atom_site_fract_y
_atom_site_fract_z
Si Si1 0.415875 0.584128 0.911758
Si Si2 0.000002 0.283692 0.911806
Si Si3 0.666668 0.333334 0.588554
Si Si4 0.851367 0.851366 0.835761
Si Si5 0.142192 0.430800 0.088492
Si Si6 0.711383 0.142184 0.588492
O O1 0.374535 0.625463 0.879969
O O2 0.501029 0.631824 0.883597
O O3 0.368184 0.498973 0.883597
O O4 0.415684 0.584320 0.000000
O O5 0.999998 0.211091 0.885957
O O6 0.926903 0.282538 0.880309
O O7 0.073106 0.355633 0.880310
O O8 0.000002 0.285139 0.000000
O O9 0.666667 0.333334 0.500000
O O10 0.857916 0.928958 0.856097
O O11 0.830763 0.830763 0.750000
O O12 0.219308 0.438608 0.118402
O O13 0.143484 0.429884 0.000000
O O14 0.713593 0.143476 0.500000
#
# Coordination Sequence:
#
# PCOD8329515 Si02
#       6
#    24  24   8  24  24  24
#     4   9  14  21  36  57  84 124 170 208 241 279
#     4  10  20  32  47  71 106 137 154 182 238 301
#     4   9  12  18  33  54  81 120 166 209 247 276
#     4  10  21  38  59  79  97 121 158 200 234 268
#     4   9  16  25  38  59  89 126 165 201 239 285
#     4   9  16  25  38  59  89 126 165 201 239 285
#
# _framework density 18.916523999999999
#
# number of rings (size 3 to 8) (size 9 to 14) (size 15 to 20)
#    0.000    2.625    1.875    1.312    0.000    3.750 
#    0.000    3.750    0.000    1.125    0.000    2.625 
#    0.000    0.000    0.000    0.750    0.000    0.000 
#
# Total GULP energy -1586358.523604 kJ/mol
# GULP energy per Si atom -12393.425966 kJ/mol
# Density = 1.887347 g / cm^3
# Si number density = 18.916524 Si / 1000 Ang^3
#
#
#
# Elastic Constant Matrix: (Units=GPa)
#
#
# Indices 1 2 3 4 5 6 
#
# 1 152.0057 75.8637 11.7291 0.0000 0.0000 0.0000
# 2 75.8637 152.0056 11.7291 0.0000 0.0000 0.0000
# 3 11.7291 11.7291 4.7963 0.0000 0.0000 0.0000
# 4 0.0000 0.0000 0.0000 8.6108 0.0000 0.0000
# 5 0.0000 0.0000 0.0000 0.0000 8.6108 0.0000
# 6 0.0000 0.0000 0.0000 0.0000 0.0000 38.0711
#
#
#
# Elastic Compliance Matrix: (Units=1/GPa)
#
#
# Indices 1 2 3 4 5 6 
#
# 1 0.009499 -0.003634 -0.014342 0.000000 0.000000 0.000000
# 2 -0.003634 0.009499 -0.014343 0.000000 0.000000 0.000000
# 3 -0.014342 -0.014343 0.278641 -0.000001 0.000000 0.000000
# 4 0.000000 0.000000 -0.000001 0.116133 0.000000 0.000000
# 5 0.000000 0.000000 0.000000 0.000000 0.116134 0.000000
# 6 0.000000 0.000000 0.000000 0.000000 0.000000 0.026267
#
#
# Mechanical properties :
#
#
# Convention : Reuss Voigt Hill
#
# Bulk Modulus (GPa) = 4.29183 56.38349 30.33766
# Shear Modulus (GPa) = 7.15842 25.02424 16.09133
#
# Velocity S-wave (km/s) = 1.94742 3.64108 2.91975
# Velocity P-wave (km/s) = 2.70746 6.89549 5.23823
#
# Compressibility (1/GPa) = 0.23300095
#
# Stress axis : x y z
#
# Youngs Moduli (GPa) = 105.27256 105.27227 3.58885
#
# Poissons Ratio (x) = 0.38258 0.05147
# Poissons Ratio (y) = 0.38258 0.05147
# Poissons Ratio (z) = 1.50986 1.50987
#
# Static dielectric constant tensor:
#      x y z
#    x 3.756440 0.000000 0.000000 
#    y 0.000000 3.756440 0.000000 
#    z 0.000000 0.000000 2.690970 
# 
# 
# High freq. dielectric constant tensor:
#      x y z
#    x 1.750720 0.000000 0.000000 
#    y 0.000000 1.750720 0.000000 
#    z 0.000000 0.000000 1.647420 
# 
# From -- ./inp_files/5009.got.cif
#   From: 2010.03.12/outbox.cif.g09.slc.cpg/sg192_3_cif.got.tgz:5009.got - 2010.04.01 12:16:15.
