data_PCOD8329753
_publ_section_title
;
Structure prediction by ZEFSAII (Michael W. Deem and Ramdas Pophale) SiO2 
 PCOD8329753
Probable space group: P 63/M C M
;
_chemical_formula_sum "Si O2"
_cell_formula_units_Z 68
_cell_length_a 12.805296
_cell_length_b 12.805296
_cell_length_c 30.845763
_cell_angle_alpha 90.000000
_cell_angle_beta 90.000000
_cell_angle_gamma 120.000000
_cell_volume 4380.315503
_symmetry_space_group_name_H-M "P 63/M C M"
_symmetry_group_IT_number 193
_symmetry_cell_setting 'hexagonal'
loop_
_space_group_symop_operation_xyz
x,y,z
x-y,x,1/2+z
-y,x-y,z
-x,-y,1/2+z
-x+y,-x,z
y,-x+y,1/2+z
x-y,-y,1/2-z
-x,-x+y,1/2-z
y,x,1/2-z
-y,-x,-z
-x+y,y,-z
x,x-y,-z
-x,-y,-z
-x+y,-x,1/2-z
y,-x+y,-z
x,y,1/2-z
x-y,x,-z
-y,x-y,1/2-z
-x+y,y,1/2+z
x,x-y,1/2+z
-y,-x,1/2+z
y,x,z
x-y,-y,z
-x,-x+y,z
loop_
_atom_site_type_symbol
_atom_site_label
_atom_site_fract_x
_atom_site_fract_y
_atom_site_fract_z
Si Si1 0.333334 0.666667 0.698826
Si Si2 0.357896 0.494913 0.138245
Si Si3 0.703404 0.564425 0.088042
Si Si4 0.743796 0.487591 0.500000
O O1 0.333334 0.666668 0.750000
O O2 0.201250 0.570224 0.681281
O O3 0.406727 0.406727 0.150921
O O4 0.434088 0.585906 0.098663
O O5 0.218789 0.414083 0.123531
O O6 0.670061 0.670061 0.090910
O O7 0.766108 0.570379 0.041902
O O8 0.597837 0.402164 0.500000
#
# Coordination Sequence:
#
# PCOD8329753 Si02
#       4
#     8  24  24  12
#     4   9  18  30  45  73  98 112 138 174 219 276
#     4   9  17  31  47  64  91 122 149 181 222 269
#     4  10  18  28  44  65  89 121 157 191 228 270
#     4  10  16  26  37  60  91 114 148 194 236 262
#
# _framework density 15.523994999999999
#
# number of rings (size 3 to 8) (size 9 to 14) (size 15 to 20)
#    0.353    2.118    3.529    0.706    0.000    2.824 
#    0.000    0.000    0.000    0.706    0.000    1.235 
#    0.000    0.000    0.000    1.059    0.000    0.000 
#
# Total GULP energy -842554.048473 kJ/mol
# GULP energy per Si atom -12390.500713 kJ/mol
# Density = 1.548866 g / cm^3
# Si number density = 15.523995 Si / 1000 Ang^3
#
#
#
# Elastic Constant Matrix: (Units=GPa)
#
#
# Indices 1 2 3 4 5 6 
#
# 1 88.7595 55.4683 41.7809 0.0000 0.0000 0.0000
# 2 55.4683 88.7597 41.7810 0.0000 0.0000 0.0000
# 3 41.7809 41.7810 111.5749 -0.0001 0.0000 0.0000
# 4 0.0000 0.0000 -0.0001 12.4839 0.0000 0.0000
# 5 0.0000 0.0000 0.0000 0.0000 12.4839 0.0000
# 6 0.0000 0.0000 0.0000 0.0000 0.0000 16.6456
#
#
#
# Elastic Compliance Matrix: (Units=1/GPa)
#
#
# Indices 1 2 3 4 5 6 
#
# 1 0.019446 -0.010592 -0.003316 0.000000 0.000000 0.000000
# 2 -0.010592 0.019446 -0.003316 0.000000 0.000000 0.000000
# 3 -0.003316 -0.003316 0.011446 0.000000 0.000000 0.000000
# 4 0.000000 0.000000 0.000000 0.080103 0.000000 0.000000
# 5 0.000000 0.000000 0.000000 0.000000 0.080103 0.000000
# 6 0.000000 0.000000 0.000000 0.000000 0.000000 0.060076
#
#
# Mechanical properties :
#
#
# Convention : Reuss Voigt Hill
#
# Bulk Modulus (GPa) = 62.92468 63.01715 62.97091
# Shear Modulus (GPa) = 16.11013 18.32696 17.21854
#
# Velocity S-wave (km/s) = 3.22492 3.43965 3.33401
# Velocity P-wave (km/s) = 7.38164 7.51375 7.44799
#
# Compressibility (1/GPa) = 0.01589201
#
# Stress axis : x y z
#
# Youngs Moduli (GPa) = 51.42398 51.42404 87.36817
#
# Poissons Ratio (x) = 0.54467 0.28969
# Poissons Ratio (y) = 0.54467 0.28969
# Poissons Ratio (z) = 0.17051 0.17051
#
# Static dielectric constant tensor:
#      x y z
#    x 2.797230 0.000000 0.000000 
#    y 0.000000 2.797230 0.000000 
#    z 0.000000 0.000000 2.722040 
# 
# 
# High freq. dielectric constant tensor:
#      x y z
#    x 1.568790 0.000000 0.000000 
#    y 0.000000 1.568790 0.000000 
#    z 0.000000 0.000000 1.581910 
# 
# From -- ./inp_files/8664.got.cif
#   From: 2010.03.12/outbox.cif.g09.slc.cpg/sg193_5_cif.got.tgz:8664.got - 2010.04.01 12:20:39.
