data_PCOD8329146
_publ_section_title
;
Structure prediction by ZEFSAII (Michael W. Deem and Ramdas Pophale) SiO2 
 PCOD8329146
Probable space group: P 6/M M M
;
_chemical_formula_sum "Si O2"
_cell_formula_units_Z 60
_cell_length_a 20.488998
_cell_length_b 20.488998
_cell_length_c 8.611965
_cell_angle_alpha 90.000000
_cell_angle_beta 90.000000
_cell_angle_gamma 120.000000
_cell_volume 3130.936993
_symmetry_space_group_name_H-M "P 6/M M M"
_symmetry_group_IT_number 191
_symmetry_cell_setting 'hexagonal'
loop_
_space_group_symop_operation_xyz
x,y,z
x-y,x,z
-y,x-y,z
-x,-y,z
-x+y,-x,z
y,-x+y,z
x-y,-y,-z
-x,-x+y,-z
y,x,-z
-y,-x,-z
-x+y,y,-z
x,x-y,-z
-x,-y,-z
-x+y,-x,-z
y,-x+y,-z
x,y,-z
x-y,x,-z
-y,x-y,-z
-x+y,y,z
x,x-y,z
-y,-x,z
y,x,z
x-y,-y,z
-x,-x+y,z
loop_
_atom_site_type_symbol
_atom_site_label
_atom_site_fract_x
_atom_site_fract_y
_atom_site_fract_z
Si Si1 0.543380 0.456621 0.183538
Si Si2 0.145403 0.704289 0.315494
Si Si3 0.709066 0.000000 0.315473
Si Si4 0.000000 0.145734 0.685515
O O1 0.500000 0.500000 0.248917
O O2 0.628451 0.493101 0.242522
O O3 0.542011 0.457990 0.000000
O O4 0.144168 0.697857 0.500000
O O5 0.223654 0.776347 0.259262
O O6 0.075216 0.711787 0.253868
O O7 0.781569 0.000000 0.247088
O O8 0.710325 0.000000 0.500000
O O9 0.072774 0.145548 0.751072
O O10 0.000000 0.146192 0.500000
#
# Coordination Sequence:
#
# PCOD8329146 Si02
#       4
#    12  24  12  12
#     4  11  23  39  59  83 113 151 191 229 283 347
#     4  10  20  35  58  85 110 142 185 232 282 333
#     4   9  16  28  48  74 104 135 175 224 270 315
#     4   9  15  22  34  58  97 141 177 208 250 308
#
# _framework density 19.163592000000001
#
# number of rings (size 3 to 8) (size 9 to 14) (size 15 to 20)
#    0.000    2.200    2.000    2.000    0.000    7.200 
#    1.200    0.000    0.000    0.000    0.000    0.000 
#    0.000    0.000    0.000    0.000    0.000   14.200 
#
# Total GULP energy -743943.825306 kJ/mol
# GULP energy per Si atom -12399.063755 kJ/mol
# Density = 1.911997 g / cm^3
# Si number density = 19.163592 Si / 1000 Ang^3
#
#
#
# Elastic Constant Matrix: (Units=GPa)
#
#
# Indices 1 2 3 4 5 6 
#
# 1 204.1935 103.1536 24.8251 0.0000 0.0000 0.0000
# 2 103.1536 204.1935 24.8251 0.0000 0.0000 0.0000
# 3 24.8251 24.8251 19.2537 0.0000 0.0000 0.0000
# 4 0.0000 0.0000 0.0000 10.4848 0.0000 0.0000
# 5 0.0000 0.0000 0.0000 0.0000 10.4848 0.0000
# 6 0.0000 0.0000 0.0000 0.0000 0.0000 50.5200
#
#
#
# Elastic Compliance Matrix: (Units=1/GPa)
#
#
# Indices 1 2 3 4 5 6 
#
# 1 0.007003 -0.002894 -0.005299 0.000000 0.000000 0.000000
# 2 -0.002894 0.007003 -0.005299 0.000000 0.000000 0.000000
# 3 -0.005299 -0.005299 0.065602 0.000000 0.000000 0.000000
# 4 0.000000 0.000000 0.000000 0.095376 0.000000 0.000000
# 5 0.000000 0.000000 0.000000 0.000000 0.095376 0.000000
# 6 0.000000 0.000000 0.000000 0.000000 0.000000 0.019794
#
#
# Mechanical properties :
#
#
# Convention : Reuss Voigt Hill
#
# Bulk Modulus (GPa) = 19.00195 81.47204 50.23700
# Shear Modulus (GPa) = 14.93965 32.62039 23.78002
#
# Velocity S-wave (km/s) = 2.79513 4.13026 3.52646
# Velocity P-wave (km/s) = 4.51156 8.08404 6.54621
#
# Compressibility (1/GPa) = 0.05262617
#
# Stress axis : x y z
#
# Youngs Moduli (GPa) = 142.78858 142.78858 15.24339
#
# Poissons Ratio (x) = 0.41319 0.08077
# Poissons Ratio (y) = 0.41319 0.08077
# Poissons Ratio (z) = 0.75661 0.75661
#
# Static dielectric constant tensor:
#      x y z
#    x 3.706200 0.000000 0.000000 
#    y 0.000000 3.706200 0.000000 
#    z 0.000000 0.000000 2.930750 
# 
# 
# High freq. dielectric constant tensor:
#      x y z
#    x 1.758240 0.000000 0.000000 
#    y 0.000000 1.758240 0.000000 
#    z 0.000000 0.000000 1.692380 
# 
# From -- ./inp_files/611.got.cif
#   From: 2010.03.12/outbox.cif.g09.slc.cpg/sg191_1_cif.got.tgz:611.got - 2010.04.01 12:09:02.
