data_PCOD8329485
_publ_section_title
;
Structure prediction by ZEFSAII (Michael W. Deem and Ramdas Pophale) SiO2 
 PCOD8329485
Probable space group: P 6/M C C
;
_chemical_formula_sum "Si O2"
_cell_formula_units_Z 144
_cell_length_a 31.260863
_cell_length_b 31.260863
_cell_length_c 8.866405
_cell_angle_alpha 90.000000
_cell_angle_beta 90.000000
_cell_angle_gamma 120.000000
_cell_volume 7503.780527
_symmetry_space_group_name_H-M "P 6/M C C"
_symmetry_group_IT_number 192
_symmetry_cell_setting 'hexagonal'
loop_
_space_group_symop_operation_xyz
x,y,z
x-y,x,z
-y,x-y,z
-x,-y,z
-x+y,-x,z
y,-x+y,z
x-y,-y,1/2-z
-x,-x+y,1/2-z
y,x,1/2-z
-y,-x,1/2-z
-x+y,y,1/2-z
x,x-y,1/2-z
-x,-y,-z
-x+y,-x,-z
y,-x+y,-z
x,y,-z
x-y,x,-z
-y,x-y,-z
-x+y,y,1/2+z
x,x-y,1/2+z
-y,-x,1/2+z
y,x,1/2+z
x-y,-y,1/2+z
-x,-x+y,1/2+z
loop_
_atom_site_type_symbol
_atom_site_label
_atom_site_fract_x
_atom_site_fract_y
_atom_site_fract_z
Si Si1 0.292360 0.242081 0.823277
Si Si2 0.429365 0.479790 0.822065
Si Si3 0.851823 0.239009 0.677627
Si Si4 0.243194 0.667416 0.823879
Si Si5 0.856507 0.805133 0.678637
Si Si6 0.146569 0.475848 0.326167
O O1 0.284502 0.284502 0.750000
O O2 0.344345 0.249513 0.765095
O O3 0.248992 0.187832 0.775559
O O4 0.292774 0.249320 0.000000
O O5 0.436263 0.436263 0.750000
O O6 0.468080 0.531921 0.750000
O O7 0.374913 0.468589 0.781886
O O8 0.438590 0.482461 0.000000
O O9 0.811571 0.188430 0.750000
O O10 0.847009 0.232421 0.500000
O O11 0.842933 0.283239 0.724021
O O12 0.280198 0.719803 0.750000
O O13 0.250914 0.625457 0.750000
O O14 0.187779 0.655697 0.792617
O O15 0.254729 0.669544 0.000000
O O16 0.846464 0.846464 0.750000
O O17 0.906282 0.812564 0.750000
O O18 0.862195 0.812143 0.500000
O O19 0.148249 0.462387 0.500000
#
# Coordination Sequence:
#
# PCOD8329485 Si02
#       6
#    24  24  24  24  24  24
#     4   9  20  36  55  81 110 143 183 227 274 322
#     4  10  20  36  58  84 113 145 184 229 278 329
#     4  11  23  38  57  81 111 148 187 226 272 325
#     4  11  23  40  61  85 112 142 178 221 271 325
#     4  10  19  33  53  78 108 141 180 225 273 323
#     4  10  23  40  58  82 112 147 186 227 271 323
#
# _framework density 19.190325999999999
#
# number of rings (size 3 to 8) (size 9 to 14) (size 15 to 20)
#    0.000    1.833    0.000    4.167    0.000    6.667 
#    0.000    3.333    0.000    0.167    0.000    1.167 
#    0.000    0.000    0.000    0.000    0.000    0.000 
#
# Total GULP energy -1786322.746529 kJ/mol
# GULP energy per Si atom -12405.019073 kJ/mol
# Density = 1.914665 g / cm^3
# Si number density = 19.190326 Si / 1000 Ang^3
#
#
#
# Elastic Constant Matrix: (Units=GPa)
#
#
# Indices 1 2 3 4 5 6 
#
# 1 105.1694 41.3458 46.0138 0.0000 0.0000 0.0000
# 2 41.3458 105.1694 46.0138 0.0000 0.0000 0.0000
# 3 46.0138 46.0138 89.4093 0.0000 0.0000 0.0000
# 4 0.0000 0.0000 0.0000 32.1051 0.0000 0.0000
# 5 0.0000 0.0000 0.0000 0.0000 32.1051 0.0000
# 6 0.0000 0.0000 0.0000 0.0000 0.0000 31.9118
#
#
#
# Elastic Compliance Matrix: (Units=1/GPa)
#
#
# Indices 1 2 3 4 5 6 
#
# 1 0.012877 -0.002791 -0.005190 0.000000 0.000000 0.000000
# 2 -0.002791 0.012877 -0.005190 0.000000 0.000000 0.000000
# 3 -0.005190 -0.005190 0.016527 0.000000 0.000000 0.000000
# 4 0.000000 0.000000 0.000000 0.031148 0.000000 0.000000
# 5 0.000000 0.000000 0.000000 0.000000 0.031148 0.000000
# 6 0.000000 0.000000 0.000000 0.000000 0.000000 0.031336
#
#
# Mechanical properties :
#
#
# Convention : Reuss Voigt Hill
#
# Bulk Modulus (GPa) = 62.75035 62.94388 62.84712
# Shear Modulus (GPa) = 29.83859 30.31607 30.07733
#
# Velocity S-wave (km/s) = 3.94747 3.97893 3.96323
# Velocity P-wave (km/s) = 7.31756 7.34712 7.33235
#
# Compressibility (1/GPa) = 0.01593617
#
# Stress axis : x y z
#
# Youngs Moduli (GPa) = 77.65938 77.65938 60.50769
#
# Poissons Ratio (x) = 0.21678 0.31405
# Poissons Ratio (y) = 0.21678 0.31405
# Poissons Ratio (z) = 0.40308 0.40308
#
# Static dielectric constant tensor:
#      x y z
#    x 3.617440 0.000000 0.000000 
#    y 0.000000 3.617440 0.000000 
#    z 0.000000 0.000000 3.558980 
# 
# 
# High freq. dielectric constant tensor:
#      x y z
#    x 1.750820 0.000000 0.000000 
#    y 0.000000 1.750820 0.000000 
#    z 0.000000 0.000000 1.754970 
# 
# From -- ./inp_files/1210.got.cif
#   From: 2010.03.12/outbox.cif.g09.slc.cpg/sg192_1_cif.got.tgz:1210.got - 2010.04.01 12:16:15.
