data_PCOD8329991
_publ_section_title
;
Structure prediction by ZEFSAII (Michael W. Deem and Ramdas Pophale) SiO2 
 PCOD8329991
Probable space group: P 63/M C M
;
_chemical_formula_sum "Si O2"
_cell_formula_units_Z 168
_cell_length_a 29.803230
_cell_length_b 29.803230
_cell_length_c 14.954523
_cell_angle_alpha 90.000000
_cell_angle_beta 90.000000
_cell_angle_gamma 120.000000
_cell_volume 11503.496521
_symmetry_space_group_name_H-M "P 63/M C M"
_symmetry_group_IT_number 193
_symmetry_cell_setting 'hexagonal'
loop_
_space_group_symop_operation_xyz
x,y,z
x-y,x,1/2+z
-y,x-y,z
-x,-y,1/2+z
-x+y,-x,z
y,-x+y,1/2+z
x-y,-y,1/2-z
-x,-x+y,1/2-z
y,x,1/2-z
-y,-x,-z
-x+y,y,-z
x,x-y,-z
-x,-y,-z
-x+y,-x,1/2-z
y,-x+y,-z
x,y,1/2-z
x-y,x,-z
-y,x-y,1/2-z
-x+y,y,1/2+z
x,x-y,1/2+z
-y,-x,1/2+z
y,x,z
x-y,-y,z
-x,-x+y,z
loop_
_atom_site_type_symbol
_atom_site_label
_atom_site_fract_x
_atom_site_fract_y
_atom_site_fract_z
Si Si1 0.294986 0.236124 0.350117
Si Si2 0.469242 0.938483 0.851770
Si Si3 0.234988 0.117494 0.894258
Si Si4 0.362308 0.061587 0.999999
Si Si5 0.941322 0.058678 0.606409
Si Si6 0.400727 0.462412 0.499999
Si Si7 0.294987 0.058862 0.149883
O O1 0.315657 0.253282 0.250000
O O2 0.254760 0.254760 0.378444
O O3 0.264620 0.174927 0.357139
O O4 0.345295 0.263534 0.413416
O O5 0.457597 0.915193 0.750000
O O6 0.503225 0.919683 0.909018
O O7 0.500000 0.000000 0.844628
O O8 0.416459 0.919683 0.909018
O O9 0.176223 0.088112 0.857743
O O10 0.264621 0.174928 0.857139
O O11 0.235647 0.117824 0.000000
O O12 0.424271 0.085609 0.999999
O O13 0.345296 0.081762 0.086584
O O14 0.335725 0.000000 0.999999
O O15 0.941600 0.058401 0.500000
O O16 0.000000 0.088141 0.643403
O O17 0.911860 0.000000 0.643403
O O18 0.430764 0.430764 0.499999
O O19 0.315658 0.062376 0.250000
O O20 0.254761 0.000000 0.121557
#
# Coordination Sequence:
#
# PCOD8329991 Si02
#       7
#    24  24  24  24  24  24  24
#     4  10  20  32  45  61  79  99 126 161 203 254
#     4   8  13  21  34  53  77 104 133 159 182 211
#     4  11  19  30  47  61  78 102 127 159 200 253
#     4   9  17  29  42  57  79 102 127 159 195 234
#     4   9  17  27  42  63  83 100 118 146 192 258
#     4   8  14  23  35  53  76 102 130 159 187 216
#     4  10  20  32  45  61  79  99 126 161 203 254
#
# _framework density 14.604255999999999
#
# number of rings (size 3 to 8) (size 9 to 14) (size 15 to 20)
#    0.000    2.714    1.429    2.286    0.000    2.857 
#    0.000    5.714    0.000    0.000    0.000    0.000 
#    0.000    6.857    0.000    0.000    0.000    0.000 
#
# Total GULP energy -2082327.701496 kJ/mol
# GULP energy per Si atom -12394.807747 kJ/mol
# Density = 1.457102 g / cm^3
# Si number density = 14.604256 Si / 1000 Ang^3
#
#
#
# Elastic Constant Matrix: (Units=GPa)
#
#
# Indices 1 2 3 4 5 6 
#
# 1 85.2658 38.4765 36.4288 0.0000 0.0000 0.0000
# 2 38.4765 85.2658 36.4288 0.0000 0.0000 0.0000
# 3 36.4288 36.4288 105.9806 0.0000 0.0000 0.0000
# 4 0.0000 0.0000 0.0000 4.4997 0.0000 0.0000
# 5 0.0000 0.0000 0.0000 0.0000 4.4997 0.0000
# 6 0.0000 0.0000 0.0000 0.0000 0.0000 23.3946
#
#
#
# Elastic Compliance Matrix: (Units=1/GPa)
#
#
# Indices 1 2 3 4 5 6 
#
# 1 0.015752 -0.005620 -0.003483 0.000000 0.000000 0.000000
# 2 -0.005620 0.015752 -0.003483 0.000000 0.000000 0.000000
# 3 -0.003483 -0.003483 0.011830 0.000000 0.000000 0.000000
# 4 0.000000 0.000000 0.000000 0.222239 0.000000 0.000000
# 5 0.000000 0.000000 0.000000 0.000000 0.222239 0.000000
# 6 0.000000 0.000000 0.000000 0.000000 0.000000 0.042745
#
#
# Mechanical properties :
#
#
# Convention : Reuss Voigt Hill
#
# Bulk Modulus (GPa) = 55.05689 55.46448 55.26068
# Shear Modulus (GPa) = 8.90025 17.49067 13.19546
#
# Velocity S-wave (km/s) = 2.47134 3.46445 3.00915
# Velocity P-wave (km/s) = 6.77676 7.35282 7.07066
#
# Compressibility (1/GPa) = 0.01816303
#
# Stress axis : x y z
#
# Youngs Moduli (GPa) = 63.48352 63.48352 84.53185
#
# Poissons Ratio (x) = 0.35680 0.29439
# Poissons Ratio (y) = 0.35680 0.29439
# Poissons Ratio (z) = 0.22109 0.22109
#
# Static dielectric constant tensor:
#      x y z
#    x 2.717720 0.000000 0.000000 
#    y 0.000000 2.717720 0.000000 
#    z 0.000000 0.000000 3.065210 
# 
# 
# High freq. dielectric constant tensor:
#      x y z
#    x 1.520500 0.000000 0.000000 
#    y 0.000000 1.520500 0.000000 
#    z 0.000000 0.000000 1.574240 
# 
# From -- ./inp_files/4406.got.cif
#   From: 2010.03.12/outbox.cif.g09.slc.cpg/sg193_3_cif.got.tgz:4406.got - 2010.04.01 12:20:39.
