data_PCOD8329309
_publ_section_title
;
Structure prediction by ZEFSAII (Michael W. Deem and Ramdas Pophale) SiO2 
 PCOD8329309
Probable space group: P 6/M M M
;
_chemical_formula_sum "Si O2"
_cell_formula_units_Z 96
_cell_length_a 27.416019
_cell_length_b 27.416019
_cell_length_c 9.943773
_cell_angle_alpha 90.000000
_cell_angle_beta 90.000000
_cell_angle_gamma 120.000000
_cell_volume 6472.776598
_symmetry_space_group_name_H-M "P 6/M M M"
_symmetry_group_IT_number 191
_symmetry_cell_setting 'hexagonal'
loop_
_space_group_symop_operation_xyz
x,y,z
x-y,x,z
-y,x-y,z
-x,-y,z
-x+y,-x,z
y,-x+y,z
x-y,-y,-z
-x,-x+y,-z
y,x,-z
-y,-x,-z
-x+y,y,-z
x,x-y,-z
-x,-y,-z
-x+y,-x,-z
y,-x+y,-z
x,y,-z
x-y,x,-z
-y,x-y,-z
-x+y,y,z
x,x-y,z
-y,-x,z
y,x,z
x-y,-y,z
-x,-x+y,z
loop_
_atom_site_type_symbol
_atom_site_label
_atom_site_fract_x
_atom_site_fract_y
_atom_site_fract_z
Si Si1 0.667615 0.775952 0.649921
Si Si2 0.542853 0.829317 0.651015
Si Si3 0.937495 0.764769 0.154159
Si Si4 0.666351 0.446310 0.845173
O O1 0.684352 0.766239 0.500000
O O2 0.665708 0.832854 0.652452
O O3 0.605334 0.724749 0.687979
O O4 0.713413 0.780593 0.757130
O O5 0.526554 0.837740 0.500000
O O6 0.543580 0.771790 0.660356
O O7 0.497168 0.827184 0.755773
O O8 0.891249 0.782497 0.196242
O O9 0.000000 0.818419 0.175699
O O10 0.928397 0.744451 0.000000
O O11 0.717816 0.435632 0.815394
O O12 0.609966 0.390035 0.804563
O O13 0.665879 0.462438 0.000000
#
# Coordination Sequence:
#
# PCOD8329309 Si02
#       4
#    24  24  24  24
#     4   8  14  25  40  57  77 100 126 158 196 235
#     4   8  14  24  36  50  69  93 122 158 199 239
#     4   9  17  28  42  61  85 111 136 161 188 218
#     4   9  16  24  33  46  67  97 132 167 200 234
#
# _framework density 14.831348
#
# number of rings (size 3 to 8) (size 9 to 14) (size 15 to 20)
#    0.000    3.500    0.000    1.750    0.000    3.000 
#    0.000    5.000    0.000    1.750    0.000    1.750 
#    0.000    1.000    0.000   17.250    0.000   15.500 
#
# Total GULP energy -1189588.108557 kJ/mol
# GULP energy per Si atom -12391.542797 kJ/mol
# Density = 1.479759 g / cm^3
# Si number density = 14.831348 Si / 1000 Ang^3
#
#
#
# Elastic Constant Matrix: (Units=GPa)
#
#
# Indices 1 2 3 4 5 6 
#
# 1 68.8750 39.8861 47.2651 0.0000 0.0000 0.0000
# 2 39.8861 68.8750 47.2651 0.0000 0.0000 0.0000
# 3 47.2651 47.2651 78.1352 0.0000 0.0000 0.0000
# 4 0.0000 0.0000 0.0000 18.2890 0.0000 0.0000
# 5 0.0000 0.0000 0.0000 0.0000 18.2890 0.0000
# 6 0.0000 0.0000 0.0000 0.0000 0.0000 14.4945
#
#
#
# Elastic Compliance Matrix: (Units=1/GPa)
#
#
# Indices 1 2 3 4 5 6 
#
# 1 0.026942 -0.007554 -0.011728 0.000000 0.000000 0.000000
# 2 -0.007554 0.026942 -0.011728 0.000000 0.000000 0.000000
# 3 -0.011728 -0.011728 0.026987 0.000000 0.000000 0.000000
# 4 0.000000 0.000000 0.000000 0.054678 0.000000 0.000000
# 5 0.000000 0.000000 0.000000 0.000000 0.054678 0.000000
# 6 0.000000 0.000000 0.000000 0.000000 0.000000 0.068992
#
#
# Mechanical properties :
#
#
# Convention : Reuss Voigt Hill
#
# Bulk Modulus (GPa) = 53.04769 53.85754 53.45262
# Shear Modulus (GPa) = 15.26614 15.64575 15.45594
#
# Velocity S-wave (km/s) = 3.21178 3.25146 3.23168
# Velocity P-wave (km/s) = 7.04265 7.10550 7.07415
#
# Compressibility (1/GPa) = 0.01885096
#
# Stress axis : x y z
#
# Youngs Moduli (GPa) = 37.11685 37.11685 37.05458
#
# Poissons Ratio (x) = 0.28038 0.43458
# Poissons Ratio (y) = 0.28038 0.43458
# Poissons Ratio (z) = 0.43531 0.43531
#
# Static dielectric constant tensor:
#      x y z
#    x 2.791700 0.000000 0.000000 
#    y 0.000000 2.791700 0.000000 
#    z 0.000000 0.000000 3.078500 
# 
# 
# High freq. dielectric constant tensor:
#      x y z
#    x 1.536690 0.000000 0.000000 
#    y 0.000000 1.536690 0.000000 
#    z 0.000000 0.000000 1.575340 
# 
# From -- ./inp_files/2735.got.cif
#   From: 2010.03.12/outbox.cif.g09.slc.cpg/sg191_2_cif.got.tgz:2735.got - 2010.04.01 12:09:02.
