data_PCOD8329000
_publ_section_title
;
Structure prediction by ZEFSAII (Michael W. Deem and Ramdas Pophale) SiO2 
 PCOD8329000
Probable space group: P 6/M M M
;
_chemical_formula_sum "Si O2"
_cell_formula_units_Z 168
_cell_length_a 18.284883
_cell_length_b 18.284883
_cell_length_c 34.672459
_cell_angle_alpha 90.000000
_cell_angle_beta 90.000000
_cell_angle_gamma 120.000000
_cell_volume 10039.212487
_symmetry_space_group_name_H-M "P 6/M M M"
_symmetry_group_IT_number 191
_symmetry_cell_setting 'hexagonal'
loop_
_space_group_symop_operation_xyz
x,y,z
x-y,x,z
-y,x-y,z
-x,-y,z
-x+y,-x,z
y,-x+y,z
x-y,-y,-z
-x,-x+y,-z
y,x,-z
-y,-x,-z
-x+y,y,-z
x,x-y,-z
-x,-y,-z
-x+y,-x,-z
y,-x+y,-z
x,y,-z
x-y,x,-z
-y,x-y,-z
-x+y,y,z
x,x-y,z
-y,-x,z
y,x,z
x-y,-y,z
-x,-x+y,z
loop_
_atom_site_type_symbol
_atom_site_label
_atom_site_fract_x
_atom_site_fract_y
_atom_site_fract_z
Si Si1 0.260526 0.904153 0.331569
Si Si2 0.256369 0.349525 0.956128
Si Si3 0.164966 0.666568 0.187559
Si Si4 0.836282 0.331628 0.606401
Si Si5 0.644231 0.739685 0.455548
Si Si6 0.164989 0.498449 0.099480
Si Si7 0.092939 0.349425 0.243326
O O1 0.161753 0.838248 0.341834
O O2 0.320953 0.881171 0.355814
O O3 0.278276 0.894785 0.286959
O O4 0.282318 0.000000 0.340969
O O5 0.159826 0.319652 0.945021
O O6 0.269360 0.269360 0.950538
O O7 0.320886 0.423584 0.928377
O O8 0.276252 0.383247 0.000000
O O9 0.157261 0.578631 0.198875
O O10 0.261224 0.738777 0.194244
O O11 0.137076 0.666599 0.143516
O O12 0.102771 0.679595 0.215271
O O13 0.849169 0.424585 0.606190
O O14 0.736902 0.263099 0.606405
O O15 0.881270 0.320356 0.568827
O O16 0.617399 0.720204 0.500000
O O17 0.677034 0.838517 0.445793
O O18 0.718535 0.718535 0.445721
O O19 0.261141 0.522282 0.092780
O O20 0.157486 0.578743 0.088195
O O21 0.159771 0.319542 0.232791
O O22 0.000000 0.268963 0.237569
#
# Coordination Sequence:
#
# PCOD8329000 Si02
#       7
#    24  24  24  24  24  24  24
#     4   9  18  32  49  68  90 117 148 182 222 267
#     4   9  18  32  48  65  86 113 144 178 218 263
#     4   9  17  29  45  65  90 120 152 184 217 254
#     4  10  20  33  48  67  92 122 155 189 224 261
#     4   9  18  32  49  69  93 121 152 186 226 271
#     4   9  17  29  45  65  90 120 152 183 214 250
#     4   9  18  32  48  66  89 117 148 182 222 267
#
# _framework density 16.734380000000002
#
# number of rings (size 3 to 8) (size 9 to 14) (size 15 to 20)
#    0.000    2.857    0.000    0.857    0.000    4.571 
#    0.000    4.286    0.000    4.000    0.000    4.000 
#    0.000    3.429    0.000    7.429    0.000    7.429 
#
# Total GULP energy -2082709.432097 kJ/mol
# GULP energy per Si atom -12397.079953 kJ/mol
# Density = 1.669629 g / cm^3
# Si number density = 16.734380 Si / 1000 Ang^3
#
#
#
# Elastic Constant Matrix: (Units=GPa)
#
#
# Indices 1 2 3 4 5 6 
#
# 1 108.6936 79.0001 51.0777 0.0000 0.0000 0.0000
# 2 79.0001 108.6936 51.0777 0.0000 0.0000 0.0000
# 3 51.0777 51.0777 75.9122 0.0000 0.0000 0.0000
# 4 0.0000 0.0000 0.0000 23.1699 0.0000 0.0000
# 5 0.0000 0.0000 0.0000 0.0000 23.1699 0.0000
# 6 0.0000 0.0000 0.0000 0.0000 0.0000 14.8467
#
#
#
# Elastic Compliance Matrix: (Units=1/GPa)
#
#
# Indices 1 2 3 4 5 6 
#
# 1 0.021042 -0.012636 -0.005656 0.000000 0.000000 0.000000
# 2 -0.012636 0.021042 -0.005656 0.000000 0.000000 0.000000
# 3 -0.005656 -0.005656 0.020785 0.000000 0.000000 0.000000
# 4 0.000000 0.000000 0.000000 0.043159 0.000000 0.000000
# 5 0.000000 0.000000 0.000000 0.000000 0.043159 0.000000
# 6 0.000000 0.000000 0.000000 0.000000 0.000000 0.067355
#
#
# Mechanical properties :
#
#
# Convention : Reuss Voigt Hill
#
# Bulk Modulus (GPa) = 66.78914 72.84559 69.81736
# Shear Modulus (GPa) = 18.55778 19.71359 19.13569
#
# Velocity S-wave (km/s) = 3.33372 3.43597 3.38523
# Velocity P-wave (km/s) = 7.40380 7.70494 7.55587
#
# Compressibility (1/GPa) = 0.01497249
#
# Stress axis : x y z
#
# Youngs Moduli (GPa) = 47.52429 47.52429 48.11238
#
# Poissons Ratio (x) = 0.60050 0.27213
# Poissons Ratio (y) = 0.60050 0.27213
# Poissons Ratio (z) = 0.26881 0.26881
#
# Static dielectric constant tensor:
#      x y z
#    x 3.122020 0.000000 0.000000 
#    y 0.000000 3.122020 0.000000 
#    z 0.000000 0.000000 3.316230 
# 
# 
# High freq. dielectric constant tensor:
#      x y z
#    x 1.632660 0.000000 0.000000 
#    y 0.000000 1.632660 0.000000 
#    z 0.000000 0.000000 1.657020 
# 
# From -- ./inp_files/10765.got.cif
#   From: 2010.03.12/outbox.cif.g09.slc.cpg/sg191_6_cif.got.tgz:10765.got - 2010.04.01 12:09:02.
