data_PCOD8329761
_publ_section_title
;
Structure prediction by ZEFSAII (Michael W. Deem and Ramdas Pophale) SiO2 
 PCOD8329761
Probable space group: P 63/M C M
;
_chemical_formula_sum "Si O2"
_cell_formula_units_Z 168
_cell_length_a 24.838032
_cell_length_b 24.838032
_cell_length_c 19.574138
_cell_angle_alpha 90.000000
_cell_angle_beta 90.000000
_cell_angle_gamma 120.000000
_cell_volume 10457.976029
_symmetry_space_group_name_H-M "P 63/M C M"
_symmetry_group_IT_number 193
_symmetry_cell_setting 'hexagonal'
loop_
_space_group_symop_operation_xyz
x,y,z
x-y,x,1/2+z
-y,x-y,z
-x,-y,1/2+z
-x+y,-x,z
y,-x+y,1/2+z
x-y,-y,1/2-z
-x,-x+y,1/2-z
y,x,1/2-z
-y,-x,-z
-x+y,y,-z
x,x-y,-z
-x,-y,-z
-x+y,-x,1/2-z
y,-x+y,-z
x,y,1/2-z
x-y,x,-z
-y,x-y,1/2-z
-x+y,y,1/2+z
x,x-y,1/2+z
-y,-x,1/2+z
y,x,z
x-y,-y,z
-x,-x+y,z
loop_
_atom_site_type_symbol
_atom_site_label
_atom_site_fract_x
_atom_site_fract_y
_atom_site_fract_z
Si Si1 0.884505 0.073018 0.577469
Si Si2 0.073452 0.679246 0.959968
Si Si3 0.859257 0.859257 0.829522
Si Si4 0.000000 0.731609 0.328325
Si Si5 0.612536 0.889268 0.389237
Si Si6 0.669524 0.814377 0.076983
Si Si7 0.071530 0.472793 0.672398
Si Si8 0.511816 0.073742 0.430862
O O1 0.908972 0.091029 0.500000
O O2 0.939969 0.088199 0.630455
O O3 0.850067 0.109889 0.604300
O O4 0.835727 0.000000 0.579974
O O5 0.098464 0.741054 0.915134
O O6 0.095490 0.634713 0.923980
O O7 0.000000 0.646458 0.964695
O O8 0.101266 0.694633 0.035625
O O9 0.878592 0.878592 0.750000
O O10 0.795240 0.795240 0.833159
O O11 0.942004 0.680695 0.369157
O O12 0.000000 0.711028 0.250000
O O13 0.620513 0.828627 0.383159
O O14 0.559753 0.886881 0.339558
O O15 0.671813 0.835907 0.000000
O O16 0.076204 0.492836 0.750000
O O17 0.098129 0.537246 0.631157
O O18 0.000000 0.423159 0.651427
O O19 0.550729 0.101458 0.500000
O O20 0.476861 0.000000 0.432594
#
# Coordination Sequence:
#
# PCOD8329761 Si02
#       8
#    24  24  12  12  24  24  24  24
#     4  11  21  37  59  76  97 129 174 220 264 326
#     4  10  17  28  47  69 100 134 161 199 240 285
#     4  11  24  40  55  77 103 131 166 219 288 333
#     4  11  20  30  48  70 102 137 159 202 270 319
#     4  11  17  28  45  71 103 126 162 205 248 299
#     4   9  20  29  46  74 101 130 165 207 250 299
#     4  10  18  27  44  70  98 128 159 192 235 290
#     4   9  16  27  43  66  97 130 158 187 226 271
#
# _framework density 16.064294
#
# number of rings (size 3 to 8) (size 9 to 14) (size 15 to 20)
#    0.000    1.857    5.000    0.857    0.000    0.286 
#    0.429    0.357    0.000    2.571    0.000    2.000 
#    1.429    1.429    0.000    0.000    0.000    0.000 
#
# Total GULP energy -2082330.634859 kJ/mol
# GULP energy per Si atom -12394.825207 kJ/mol
# Density = 1.602773 g / cm^3
# Si number density = 16.064294 Si / 1000 Ang^3
#
#
#
# Elastic Constant Matrix: (Units=GPa)
#
#
# Indices 1 2 3 4 5 6 
#
# 1 84.2363 28.1213 23.8714 0.0000 0.0000 0.0000
# 2 28.1213 84.2363 23.8714 0.0000 0.0000 0.0000
# 3 23.8714 23.8714 68.5470 0.0000 0.0000 0.0000
# 4 0.0000 0.0000 0.0000 23.1513 0.0000 0.0000
# 5 0.0000 0.0000 0.0000 0.0000 23.1513 0.0000
# 6 0.0000 0.0000 0.0000 0.0000 0.0000 28.0575
#
#
#
# Elastic Compliance Matrix: (Units=1/GPa)
#
#
# Indices 1 2 3 4 5 6 
#
# 1 0.014133 -0.003687 -0.003638 0.000000 0.000000 0.000000
# 2 -0.003687 0.014133 -0.003638 0.000000 0.000000 0.000000
# 3 -0.003638 -0.003638 0.017122 0.000000 0.000000 0.000000
# 4 0.000000 0.000000 0.000000 0.043194 0.000000 0.000000
# 5 0.000000 0.000000 0.000000 0.000000 0.043194 0.000000
# 6 0.000000 0.000000 0.000000 0.000000 0.000000 0.035641
#
#
# Mechanical properties :
#
#
# Convention : Reuss Voigt Hill
#
# Bulk Modulus (GPa) = 42.62036 43.19419 42.90728
# Shear Modulus (GPa) = 25.35951 25.61572 25.48762
#
# Velocity S-wave (km/s) = 3.97750 3.99755 3.98754
# Velocity P-wave (km/s) = 6.90527 6.94650 6.92592
#
# Compressibility (1/GPa) = 0.02346296
#
# Stress axis : x y z
#
# Youngs Moduli (GPa) = 70.75524 70.75524 58.40363
#
# Poissons Ratio (x) = 0.26090 0.21246
# Poissons Ratio (y) = 0.26090 0.21246
# Poissons Ratio (z) = 0.25739 0.25739
#
# Static dielectric constant tensor:
#      x y z
#    x 3.036570 0.000000 0.000000 
#    y 0.000000 3.036570 0.000000 
#    z 0.000000 0.000000 3.008270 
# 
# 
# High freq. dielectric constant tensor:
#      x y z
#    x 1.601380 0.000000 0.000000 
#    y 0.000000 1.601380 0.000000 
#    z 0.000000 0.000000 1.602040 
# 
# From -- ./inp_files/6874.got.cif
#   From: 2010.03.12/outbox.cif.g09.slc.cpg/sg193_4_cif.got.tgz:6874.got - 2010.04.01 12:20:39.
