data_PCOD8329104
_publ_section_title
;
Structure prediction by ZEFSAII (Michael W. Deem and Ramdas Pophale) SiO2 
 PCOD8329104
Probable space group: P 6/M M M
;
_chemical_formula_sum "Si O2"
_cell_formula_units_Z 132
_cell_length_a 17.284877
_cell_length_b 17.284877
_cell_length_c 29.565454
_cell_angle_alpha 90.000000
_cell_angle_beta 90.000000
_cell_angle_gamma 120.000000
_cell_volume 7649.759310
_symmetry_space_group_name_H-M "P 6/M M M"
_symmetry_group_IT_number 191
_symmetry_cell_setting 'hexagonal'
loop_
_space_group_symop_operation_xyz
x,y,z
x-y,x,z
-y,x-y,z
-x,-y,z
-x+y,-x,z
y,-x+y,z
x-y,-y,-z
-x,-x+y,-z
y,x,-z
-y,-x,-z
-x+y,y,-z
x,x-y,-z
-x,-y,-z
-x+y,-x,-z
y,-x+y,-z
x,y,-z
x-y,x,-z
-y,x-y,-z
-x+y,y,z
x,x-y,z
-y,-x,z
y,x,z
x-y,-y,z
-x,-x+y,z
loop_
_atom_site_type_symbol
_atom_site_label
_atom_site_fract_x
_atom_site_fract_y
_atom_site_fract_z
Si Si1 0.905485 0.638108 0.368404
Si Si2 0.155983 0.488144 0.449554
Si Si3 0.157400 0.667096 0.713143
Si Si4 0.609224 0.895643 0.097501
Si Si5 0.552707 0.447294 0.949280
Si Si6 0.667592 0.510200 0.814784
O O1 0.835551 0.671102 0.371994
O O2 0.903516 0.582577 0.412113
O O3 0.897997 0.586721 0.322269
O O4 0.000000 0.727849 0.367707
O O5 0.124308 0.447779 0.500000
O O6 0.259456 0.518911 0.442080
O O7 0.144299 0.572150 0.442189
O O8 0.142553 0.571277 0.700579
O O9 0.262154 0.737847 0.708675
O O10 0.123050 0.667857 0.763975
O O11 0.637579 0.818790 0.086123
O O12 0.512475 0.863963 0.074338
O O13 0.593079 0.896255 0.151232
O O14 0.685268 0.000000 0.083995
O O15 0.500000 0.500000 0.949998
O O16 0.572477 0.427524 0.000000
O O17 0.736752 0.473503 0.818363
O O18 0.569749 0.430252 0.827877
#
# Coordination Sequence:
#
# PCOD8329104 Si02
#       6
#    24  24  24  24  12  24
#     4  10  21  35  48  64  87 114 147 188 236 283
#     4   9  17  29  46  68  95 127 158 183 207 243
#     4   9  17  28  44  68  98 131 161 189 222 267
#     4  10  20  34  52  74 102 136 174 215 258 303
#     4   9  18  34  54  76 104 134 164 202 247 297
#     4   9  16  27  45  69  98 131 166 200 235 279
#
# _framework density 17.255445000000002
#
# number of rings (size 3 to 8) (size 9 to 14) (size 15 to 20)
#    0.000    2.636    0.909    1.091    0.000    5.091 
#    0.545    4.545    0.000    0.364    0.000    0.000 
#    0.000    0.000    0.000   18.182    0.000    0.000 
#
# Total GULP energy -1635421.422703 kJ/mol
# GULP energy per Si atom -12389.556233 kJ/mol
# Density = 1.721617 g / cm^3
# Si number density = 17.255445 Si / 1000 Ang^3
#
#
#
# Elastic Constant Matrix: (Units=GPa)
#
#
# Indices 1 2 3 4 5 6 
#
# 1 66.3853 43.5293 25.0918 0.0000 0.0000 0.0000
# 2 43.5293 66.3853 25.0918 0.0000 0.0000 0.0000
# 3 25.0918 25.0918 84.5279 0.0000 0.0000 0.0000
# 4 0.0000 0.0000 0.0000 10.3042 0.0000 0.0000
# 5 0.0000 0.0000 0.0000 0.0000 10.3042 0.0000
# 6 0.0000 0.0000 0.0000 0.0000 0.0000 11.4280
#
#
#
# Elastic Compliance Matrix: (Units=1/GPa)
#
#
# Indices 1 2 3 4 5 6 
#
# 1 0.027138 -0.016614 -0.003124 0.000000 0.000000 0.000000
# 2 -0.016614 0.027138 -0.003124 0.000000 0.000000 0.000000
# 3 -0.003124 -0.003124 0.013685 0.000000 0.000000 0.000000
# 4 0.000000 0.000000 0.000000 0.097047 0.000000 0.000000
# 5 0.000000 0.000000 0.000000 0.000000 0.097047 0.000000
# 6 0.000000 0.000000 0.000000 0.000000 0.000000 0.087504
#
#
# Mechanical properties :
#
#
# Convention : Reuss Voigt Hill
#
# Bulk Modulus (GPa) = 44.96927 44.96937 44.96932
# Shear Modulus (GPa) = 12.41625 14.64632 13.53129
#
# Velocity S-wave (km/s) = 2.68536 2.91657 2.80335
# Velocity P-wave (km/s) = 5.97766 6.12041 6.04945
#
# Compressibility (1/GPa) = 0.02223741
#
# Stress axis : x y z
#
# Youngs Moduli (GPa) = 36.84830 36.84830 73.07172
#
# Poissons Ratio (x) = 0.61220 0.22828
# Poissons Ratio (y) = 0.61220 0.22828
# Poissons Ratio (z) = 0.11512 0.11512
#
# Static dielectric constant tensor:
#      x y z
#    x 3.092470 0.000000 0.000000 
#    y 0.000000 3.092470 0.000000 
#    z 0.000000 0.000000 3.662360 
# 
# 
# High freq. dielectric constant tensor:
#      x y z
#    x 1.636590 0.000000 0.000000 
#    y 0.000000 1.636590 0.000000 
#    z 0.000000 0.000000 1.684120 
# 
# From -- ./inp_files/10515.got.cif
#   From: 2010.03.12/outbox.cif.g09.slc.cpg/sg191_6_cif.got.tgz:10515.got - 2010.04.01 12:09:02.
