data_PCOD8329085
_publ_section_title
;
Structure prediction by ZEFSAII (Michael W. Deem and Ramdas Pophale) SiO2 
 PCOD8329085
Probable space group: P 6/M M M
;
_chemical_formula_sum "Si O2"
_cell_formula_units_Z 78
_cell_length_a 26.788813
_cell_length_b 26.788813
_cell_length_c 7.858724
_cell_angle_alpha 90.000000
_cell_angle_beta 90.000000
_cell_angle_gamma 120.000000
_cell_volume 4884.156930
_symmetry_space_group_name_H-M "P 6/M M M"
_symmetry_group_IT_number 191
_symmetry_cell_setting 'hexagonal'
loop_
_space_group_symop_operation_xyz
x,y,z
x-y,x,z
-y,x-y,z
-x,-y,z
-x+y,-x,z
y,-x+y,z
x-y,-y,-z
-x,-x+y,-z
y,x,-z
-y,-x,-z
-x+y,y,-z
x,x-y,-z
-x,-y,-z
-x+y,-x,-z
y,-x+y,-z
x,y,-z
x-y,x,-z
-y,x-y,-z
-x+y,y,z
x,x-y,z
-y,-x,z
y,x,z
x-y,-y,z
-x,-x+y,z
loop_
_atom_site_type_symbol
_atom_site_label
_atom_site_fract_x
_atom_site_fract_y
_atom_site_fract_z
Si Si1 0.864966 0.932483 0.805538
Si Si2 0.068625 0.692600 0.185711
Si Si3 0.931572 0.519700 0.306682
Si Si4 0.111950 0.888051 0.500000
Si Si5 0.067947 0.312902 0.500000
O O1 0.904208 0.904208 0.771907
O O2 0.812997 0.906499 0.672401
O O3 0.840901 0.920451 0.000000
O O4 0.092754 0.647954 0.204323
O O5 0.094167 0.741515 0.331742
O O6 0.000000 0.657527 0.200631
O O7 0.087900 0.722334 0.000000
O O8 0.910743 0.515121 0.500000
O O9 0.909539 0.454770 0.233693
O O10 0.000000 0.554382 0.298435
O O11 0.179981 0.917282 0.500000
O O12 0.000000 0.285395 0.500000
#
# Coordination Sequence:
#
# PCOD8329085 Si02
#       5
#    12  24  24   6  12
#     4  10  21  38  60  84 104 116 128 156 214 298
#     4   9  16  26  41  58  78 109 143 174 212 251
#     4   8  12  19  33  54  81 109 137 173 211 241
#     4  12  24  36  53  72  92 120 150 182 218 264
#     4  10  20  34  46  60  83 107 140 184 222 255
#
# _framework density 15.970003999999999
#
# number of rings (size 3 to 8) (size 9 to 14) (size 15 to 20)
#    0.000    2.769    1.538    2.462    0.000    2.462 
#    0.000    6.923    0.000    0.000    0.000    0.000 
#    0.000    0.000    0.000    0.000    0.000    0.000 
#
# Total GULP energy -966278.508030 kJ/mol
# GULP energy per Si atom -12388.186000 kJ/mol
# Density = 1.593366 g / cm^3
# Si number density = 15.970004 Si / 1000 Ang^3
#
#
#
# Elastic Constant Matrix: (Units=GPa)
#
#
# Indices 1 2 3 4 5 6 
#
# 1 87.5611 5.1378 51.5163 0.0000 0.0000 0.0000
# 2 5.1378 87.5611 51.5163 0.0000 0.0000 0.0000
# 3 51.5163 51.5163 138.3610 0.0000 0.0000 0.0000
# 4 0.0000 0.0000 0.0000 11.3636 0.0000 0.0000
# 5 0.0000 0.0000 0.0000 0.0000 11.3636 0.0000
# 6 0.0000 0.0000 0.0000 0.0000 0.0000 41.2116
#
#
#
# Elastic Compliance Matrix: (Units=1/GPa)
#
#
# Indices 1 2 3 4 5 6 
#
# 1 0.015268 0.003136 -0.006852 0.000000 0.000000 0.000000
# 2 0.003136 0.015268 -0.006852 0.000000 0.000000 0.000000
# 3 -0.006852 -0.006852 0.012330 0.000000 0.000000 0.000000
# 4 0.000000 0.000000 0.000000 0.088000 0.000000 0.000000
# 5 0.000000 0.000000 0.000000 0.000000 0.088000 0.000000
# 6 0.000000 0.000000 0.000000 0.000000 0.000000 0.024265
#
#
# Mechanical properties :
#
#
# Convention : Reuss Voigt Hill
#
# Bulk Modulus (GPa) = 46.02260 58.86932 52.44596
# Shear Modulus (GPa) = 18.41536 26.47528 22.44532
#
# Velocity S-wave (km/s) = 3.39945 4.07604 3.75302
# Velocity P-wave (km/s) = 6.65500 7.68730 7.18970
#
# Compressibility (1/GPa) = 0.02172845
#
# Stress axis : x y z
#
# Youngs Moduli (GPa) = 65.49575 65.49575 81.10187
#
# Poissons Ratio (x) = -0.20537 0.55574
# Poissons Ratio (y) = -0.20537 0.55574
# Poissons Ratio (z) = 0.44880 0.44880
#
# Static dielectric constant tensor:
#      x y z
#    x 2.760400 0.000000 0.000000 
#    y 0.000000 2.760400 0.000000 
#    z 0.000000 0.000000 3.324860 
# 
# 
# High freq. dielectric constant tensor:
#      x y z
#    x 1.570700 0.000000 0.000000 
#    y 0.000000 1.570700 0.000000 
#    z 0.000000 0.000000 1.629810 
# 
# From -- ./inp_files/1061.got.cif
#   From: 2010.03.12/outbox.cif.g09.slc.cpg/sg191_1_cif.got.tgz:1061.got - 2010.04.01 12:09:02.
