data_PCOD8329221
_publ_section_title
;
Structure prediction by ZEFSAII (Michael W. Deem and Ramdas Pophale) SiO2 
 PCOD8329221
Probable space group: P 6/M M M
;
_chemical_formula_sum "Si O2"
_cell_formula_units_Z 120
_cell_length_a 17.478076
_cell_length_b 17.478076
_cell_length_c 25.210087
_cell_angle_alpha 90.000000
_cell_angle_beta 90.000000
_cell_angle_gamma 120.000000
_cell_volume 6669.483816
_symmetry_space_group_name_H-M "P 6/M M M"
_symmetry_group_IT_number 191
_symmetry_cell_setting 'hexagonal'
loop_
_space_group_symop_operation_xyz
x,y,z
x-y,x,z
-y,x-y,z
-x,-y,z
-x+y,-x,z
y,-x+y,z
x-y,-y,-z
-x,-x+y,-z
y,x,-z
-y,-x,-z
-x+y,y,-z
x,x-y,-z
-x,-y,-z
-x+y,-x,-z
y,-x+y,-z
x,y,-z
x-y,x,-z
-y,x-y,-z
-x+y,y,z
x,x-y,z
-y,-x,z
y,x,z
x-y,-y,z
-x,-x+y,z
loop_
_atom_site_type_symbol
_atom_site_label
_atom_site_fract_x
_atom_site_fract_y
_atom_site_fract_z
Si Si1 0.157864 0.489471 0.555998
Si Si2 0.652369 0.652369 0.937182
Si Si3 0.844853 0.513066 0.329078
Si Si4 0.369573 0.098038 0.230518
Si Si5 0.173306 0.173306 0.063169
Si Si6 0.488219 0.332147 0.128763
O O1 0.115893 0.435024 0.500000
O O2 0.261367 0.522734 0.556633
O O3 0.145936 0.572968 0.554492
O O4 0.117762 0.441265 0.612467
O O5 0.739772 0.739772 0.915860
O O6 0.652705 0.566130 0.916949
O O7 0.649751 0.649751 0.000000
O O8 0.742300 0.484600 0.321884
O O9 0.853717 0.426858 0.321379
O O10 0.902931 0.585585 0.285850
O O11 0.333231 0.166616 0.230992
O O12 0.441837 0.122163 0.185161
O O13 0.287047 0.000000 0.220853
O O14 0.173958 0.086979 0.085218
O O15 0.171866 0.171866 0.000000
O O16 0.495974 0.247987 0.112392
O O17 0.584946 0.415055 0.133086
#
# Coordination Sequence:
#
# PCOD8329221 Si02
#       6
#    24  12  24  24  12  24
#     4   8  12  18  30  52  86 129 174 215 252 290
#     4  11  23  39  59  81 109 145 182 219 263 317
#     4   9  16  25  41  67 100 137 176 216 254 293
#     4  10  21  37  57  79 102 130 166 209 258 309
#     4   9  17  31  53  81 111 141 175 216 261 309
#     4  11  23  39  59  83 111 143 179 220 263 309
#
# _framework density 17.992397
#
# number of rings (size 3 to 8) (size 9 to 14) (size 15 to 20)
#    0.000    2.400    1.000    2.200    0.000    6.000 
#    0.000    2.000    0.000    2.000    0.000    2.800 
#    0.000    0.000    0.000    0.000    0.000    0.000 
#
# Total GULP energy -1486777.606641 kJ/mol
# GULP energy per Si atom -12389.813389 kJ/mol
# Density = 1.795145 g / cm^3
# Si number density = 17.992397 Si / 1000 Ang^3
#
#
#
# Elastic Constant Matrix: (Units=GPa)
#
#
# Indices 1 2 3 4 5 6 
#
# 1 93.4957 57.1704 35.6846 0.0000 0.0000 0.0000
# 2 57.1704 93.4957 35.6846 0.0000 0.0000 0.0000
# 3 35.6846 35.6846 107.9427 0.0000 0.0000 0.0000
# 4 0.0000 0.0000 0.0000 15.0047 0.0000 0.0000
# 5 0.0000 0.0000 0.0000 0.0000 15.0047 0.0000
# 6 0.0000 0.0000 0.0000 0.0000 0.0000 18.1626
#
#
#
# Elastic Compliance Matrix: (Units=1/GPa)
#
#
# Indices 1 2 3 4 5 6 
#
# 1 0.017699 -0.009830 -0.002602 0.000000 0.000000 0.000000
# 2 -0.009830 0.017699 -0.002602 0.000000 0.000000 0.000000
# 3 -0.002602 -0.002602 0.010984 0.000000 0.000000 0.000000
# 4 0.000000 0.000000 0.000000 0.066646 0.000000 0.000000
# 5 0.000000 0.000000 0.000000 0.000000 0.066646 0.000000
# 6 0.000000 0.000000 0.000000 0.000000 0.000000 0.055058
#
#
# Mechanical properties :
#
#
# Convention : Reuss Voigt Hill
#
# Bulk Modulus (GPa) = 61.28564 61.33483 61.31024
# Shear Modulus (GPa) = 18.50227 20.72738 19.61483
#
# Velocity S-wave (km/s) = 3.21025 3.39781 3.30536
# Velocity P-wave (km/s) = 6.91931 7.03966 6.97974
#
# Compressibility (1/GPa) = 0.01631704
#
# Stress axis : x y z
#
# Youngs Moduli (GPa) = 56.49944 56.49944 91.03919
#
# Poissons Ratio (x) = 0.55538 0.23685
# Poissons Ratio (y) = 0.55538 0.23685
# Poissons Ratio (z) = 0.14699 0.14699
#
# Static dielectric constant tensor:
#      x y z
#    x 3.203710 0.000000 0.000000 
#    y 0.000000 3.203710 0.000000 
#    z 0.000000 0.000000 3.832160 
# 
# 
# High freq. dielectric constant tensor:
#      x y z
#    x 1.672230 0.000000 0.000000 
#    y 0.000000 1.672230 0.000000 
#    z 0.000000 0.000000 1.715350 
# 
# From -- ./inp_files/8540.got.cif
#   From: 2010.03.12/outbox.cif.g09.slc.cpg/sg191_5_cif.got.tgz:8540.got - 2010.04.01 12:09:02.
