data_PCOD8329084
_publ_section_title
;
Structure prediction by ZEFSAII (Michael W. Deem and Ramdas Pophale) SiO2 
 PCOD8329084
Probable space group: P 6/M M M
;
_chemical_formula_sum "Si O2"
_cell_formula_units_Z 84
_cell_length_a 17.501213
_cell_length_b 17.501213
_cell_length_c 17.134663
_cell_angle_alpha 90.000000
_cell_angle_beta 90.000000
_cell_angle_gamma 120.000000
_cell_volume 4545.090131
_symmetry_space_group_name_H-M "P 6/M M M"
_symmetry_group_IT_number 191
_symmetry_cell_setting 'hexagonal'
loop_
_space_group_symop_operation_xyz
x,y,z
x-y,x,z
-y,x-y,z
-x,-y,z
-x+y,-x,z
y,-x+y,z
x-y,-y,-z
-x,-x+y,-z
y,x,-z
-y,-x,-z
-x+y,y,-z
x,x-y,-z
-x,-y,-z
-x+y,-x,-z
y,-x+y,-z
x,y,-z
x-y,x,-z
-y,x-y,-z
-x+y,y,z
x,x-y,z
-y,-x,z
y,x,z
x-y,-y,z
-x,-x+y,z
loop_
_atom_site_type_symbol
_atom_site_label
_atom_site_fract_x
_atom_site_fract_y
_atom_site_fract_z
Si Si1 0.799574 0.200426 0.907554
Si Si2 0.199548 0.099774 0.907110
Si Si3 0.465068 0.362046 0.196723
Si Si4 0.667984 0.155727 0.500000
Si Si5 0.728591 0.628801 0.648909
O O1 0.850105 0.149896 0.876713
O O2 0.849620 0.299793 0.876675
O O3 0.797435 0.202566 0.000000
O O4 0.150215 0.150215 0.874324
O O5 0.197313 0.098657 0.000000
O O6 0.568845 0.431156 0.204592
O O7 0.411612 0.411612 0.179687
O O8 0.433304 0.305996 0.275654
O O9 0.741411 0.258590 0.500000
O O10 0.572726 0.145453 0.500000
O O11 0.676405 0.106801 0.424594
O O12 0.833695 0.667389 0.640493
O O13 0.710481 0.710481 0.655202
#
# Coordination Sequence:
#
# PCOD8329084 Si02
#       5
#    12  12  24  12  24
#     4  11  22  37  56  78 105 141 186 237 283 332
#     4   9  17  30  51  80 111 139 169 213 275 343
#     4  10  21  38  58  79 106 142 184 228 277 333
#     4  10  20  33  54  87 122 154 187 226 270 319
#     4  10  20  36  58  84 114 148 184 223 271 329
#
# _framework density 18.481483000000001
#
# number of rings (size 3 to 8) (size 9 to 14) (size 15 to 20)
#    0.000    2.000    1.429    2.429    0.000    5.143 
#    0.857    1.429    0.000    0.286    0.000    0.000 
#    0.000    3.429    0.000    0.000    0.000    0.000 
#
# Total GULP energy -1041851.784156 kJ/mol
# GULP energy per Si atom -12402.997430 kJ/mol
# Density = 1.843942 g / cm^3
# Si number density = 18.481483 Si / 1000 Ang^3
#
#
#
# Elastic Constant Matrix: (Units=GPa)
#
#
# Indices 1 2 3 4 5 6 
#
# 1 107.8824 71.9462 36.0984 0.0000 0.0000 0.0000
# 2 71.9462 107.8824 36.0984 0.0000 0.0000 0.0000
# 3 36.0984 36.0984 98.8774 0.0000 0.0000 0.0000
# 4 0.0000 0.0000 0.0000 18.6732 0.0000 0.0000
# 5 0.0000 0.0000 0.0000 0.0000 18.6732 0.0000
# 6 0.0000 0.0000 0.0000 0.0000 0.0000 17.9681
#
#
#
# Elastic Compliance Matrix: (Units=1/GPa)
#
#
# Indices 1 2 3 4 5 6 
#
# 1 0.017171 -0.010656 -0.002379 0.000000 0.000000 0.000000
# 2 -0.010656 0.017171 -0.002379 0.000000 0.000000 0.000000
# 3 -0.002379 -0.002379 0.011850 0.000000 0.000000 0.000000
# 4 0.000000 0.000000 0.000000 0.053553 0.000000 0.000000
# 5 0.000000 0.000000 0.000000 0.000000 0.053553 0.000000
# 6 0.000000 0.000000 0.000000 0.000000 0.000000 0.055654
#
#
# Mechanical properties :
#
#
# Convention : Reuss Voigt Hill
#
# Bulk Modulus (GPa) = 65.07485 66.99200 66.03342
# Shear Modulus (GPa) = 20.41636 22.42954 21.42295
#
# Velocity S-wave (km/s) = 3.32730 3.48749 3.40833
# Velocity P-wave (km/s) = 7.07450 7.24870 7.16213
#
# Compressibility (1/GPa) = 0.01536692
#
# Stress axis : x y z
#
# Youngs Moduli (GPa) = 58.23615 58.23615 84.38480
#
# Poissons Ratio (x) = 0.62054 0.20074
# Poissons Ratio (y) = 0.62054 0.20074
# Poissons Ratio (z) = 0.13853 0.13853
#
# Static dielectric constant tensor:
#      x y z
#    x 3.437550 0.000000 0.000000 
#    y 0.000000 3.437550 0.000000 
#    z 0.000000 0.000000 3.329520 
# 
# 
# High freq. dielectric constant tensor:
#      x y z
#    x 1.715710 0.000000 0.000000 
#    y 0.000000 1.715710 0.000000 
#    z 0.000000 0.000000 1.714240 
# 
# From -- ./inp_files/4004.got.cif
#   From: 2010.03.12/outbox.cif.g09.slc.cpg/sg191_3_cif.got.tgz:4004.got - 2010.04.01 12:09:02.
