data_PCOD8329373
_publ_section_title
;
Structure prediction by ZEFSAII (Michael W. Deem and Ramdas Pophale) SiO2 
 PCOD8329373
Probable space group: P 6/M C C
;
_chemical_formula_sum "Si O2"
_cell_formula_units_Z 164
_cell_length_a 22.013627
_cell_length_b 22.013627
_cell_length_c 23.874057
_cell_angle_alpha 90.000000
_cell_angle_beta 90.000000
_cell_angle_gamma 120.000000
_cell_volume 10019.361934
_symmetry_space_group_name_H-M "P 6/M C C"
_symmetry_group_IT_number 192
_symmetry_cell_setting 'hexagonal'
loop_
_space_group_symop_operation_xyz
x,y,z
x-y,x,z
-y,x-y,z
-x,-y,z
-x+y,-x,z
y,-x+y,z
x-y,-y,1/2-z
-x,-x+y,1/2-z
y,x,1/2-z
-y,-x,1/2-z
-x+y,y,1/2-z
x,x-y,1/2-z
-x,-y,-z
-x+y,-x,-z
y,-x+y,-z
x,y,-z
x-y,x,-z
-y,x-y,-z
-x+y,y,1/2+z
x,x-y,1/2+z
-y,-x,1/2+z
y,x,1/2+z
x-y,-y,1/2+z
-x,-x+y,1/2+z
loop_
_atom_site_type_symbol
_atom_site_label
_atom_site_fract_x
_atom_site_fract_y
_atom_site_fract_z
Si Si1 0.744423 0.802590 0.405631
Si Si2 0.690273 0.040906 0.936668
Si Si3 0.199558 0.672717 0.934049
Si Si4 0.666668 0.333334 0.067129
Si Si5 0.010865 0.865224 0.185265
Si Si6 0.579452 0.044028 0.566885
Si Si7 0.613923 0.810322 0.433276
Si Si8 0.162021 0.103795 0.500000
O O1 0.733998 0.732964 0.435157
O O2 0.784177 0.809226 0.347093
O O3 0.669342 0.797733 0.398134
O O4 0.791146 0.868934 0.444576
O O5 0.737057 0.118222 0.910559
O O6 0.614343 0.995010 0.907369
O O7 0.675612 0.052942 0.000000
O O8 0.262457 0.662992 0.909209
O O9 0.123567 0.614698 0.909577
O O10 0.213269 0.749460 0.918554
O O11 0.198807 0.663327 0.000000
O O12 0.666667 0.333334 0.000000
O O13 0.940768 0.865579 0.168132
O O14 0.000000 0.843110 0.250000
O O15 0.585766 0.047449 0.500000
O O16 0.500000 0.000000 0.587693
O O17 0.630218 0.812206 0.500000
O O18 0.103240 0.124726 0.500000
#
# Coordination Sequence:
#
# PCOD8329373 Si02
#       8
#    24  24  24   8  24  24  24  12
#     4  12  20  32  46  66  89 118 151 191 228 274
#     4  10  18  28  42  61  86 119 153 186 226 270
#     4   9  17  28  39  56  80 115 157 198 229 272
#     4   9  18  27  39  54  81 117 162 202 236 268
#     4  10  21  36  52  67  85 114 153 196 238 278
#     4   9  17  27  39  56  81 113 154 195 228 264
#     4  10  18  28  42  60  85 116 152 188 230 279
#     4  12  23  32  44  62  89 118 150 188 230 272
#
# _framework density 16.368307999999999
#
# number of rings (size 3 to 8) (size 9 to 14) (size 15 to 20)
#    0.000    1.902    2.927    2.854    2.049    0.585 
#    0.000    1.463    0.000    0.000    0.000    0.000 
#    0.000    0.585    0.000    0.146    0.000    1.171 
#
# Total GULP energy -2032902.667039 kJ/mol
# GULP energy per Si atom -12395.747970 kJ/mol
# Density = 1.633105 g / cm^3
# Si number density = 16.368308 Si / 1000 Ang^3
#
#
#
# Elastic Constant Matrix: (Units=GPa)
#
#
# Indices 1 2 3 4 5 6 
#
# 1 123.7059 63.3305 12.2719 0.0000 -0.0001 0.0000
# 2 63.3305 123.7049 12.2718 0.0001 0.0000 -0.0002
# 3 12.2719 12.2718 25.8608 0.0000 0.0000 0.0000
# 4 0.0000 0.0001 0.0000 8.7351 0.0000 0.0000
# 5 -0.0001 0.0000 0.0000 0.0000 8.7350 0.0000
# 6 0.0000 -0.0002 0.0000 0.0000 0.0000 30.1871
#
#
#
# Elastic Compliance Matrix: (Units=1/GPa)
#
#
# Indices 1 2 3 4 5 6 
#
# 1 0.011132 -0.005431 -0.002706 0.000000 0.000000 0.000000
# 2 -0.005431 0.011132 -0.002706 0.000000 0.000000 0.000000
# 3 -0.002706 -0.002706 0.041236 0.000000 0.000000 0.000000
# 4 0.000000 0.000000 0.000000 0.114480 -0.000001 0.000000
# 5 0.000000 0.000000 0.000000 -0.000001 0.114482 0.000000
# 6 0.000000 0.000000 0.000000 0.000000 0.000000 0.033127
#
#
# Mechanical properties :
#
#
# Convention : Reuss Voigt Hill
#
# Bulk Modulus (GPa) = 23.91365 49.89110 36.90237
# Shear Modulus (GPa) = 13.84225 21.89128 17.86677
#
# Velocity S-wave (km/s) = 2.91120 3.66104 3.30744
# Velocity P-wave (km/s) = 5.09329 6.95826 6.09750
#
# Compressibility (1/GPa) = 0.04181713
#
# Stress axis : x y z
#
# Youngs Moduli (GPa) = 89.82832 89.82764 24.25047
#
# Poissons Ratio (x) = 0.48783 0.06561
# Poissons Ratio (y) = 0.48784 0.06561
# Poissons Ratio (z) = 0.24304 0.24304
#
# Static dielectric constant tensor:
#      x y z
#    x 3.293620 0.000000 0.000000 
#    y 0.000000 3.293630 0.000000 
#    z 0.000000 0.000000 2.463630 
# 
# 
# High freq. dielectric constant tensor:
#      x y z
#    x 1.645130 0.000000 0.000000 
#    y 0.000000 1.645130 0.000000 
#    z 0.000000 0.000000 1.535620 
# 
# From -- ./inp_files/6671.got.cif
#   From: 2010.03.12/outbox.cif.g09.slc.cpg/sg192_4_cif.got.tgz:6671.got - 2010.04.01 12:16:15.
