data_PCOD8329607
_publ_section_title
;
Structure prediction by ZEFSAII (Michael W. Deem and Ramdas Pophale) SiO2 
 PCOD8329607
Probable space group: P 6/M C C
;
_chemical_formula_sum "Si O2"
_cell_formula_units_Z 152
_cell_length_a 17.635793
_cell_length_b 17.635793
_cell_length_c 27.280716
_cell_angle_alpha 90.000000
_cell_angle_beta 90.000000
_cell_angle_gamma 120.000000
_cell_volume 7348.122393
_symmetry_space_group_name_H-M "P 6/M C C"
_symmetry_group_IT_number 192
_symmetry_cell_setting 'hexagonal'
loop_
_space_group_symop_operation_xyz
x,y,z
x-y,x,z
-y,x-y,z
-x,-y,z
-x+y,-x,z
y,-x+y,z
x-y,-y,1/2-z
-x,-x+y,1/2-z
y,x,1/2-z
-y,-x,1/2-z
-x+y,y,1/2-z
x,x-y,1/2-z
-x,-y,-z
-x+y,-x,-z
y,-x+y,-z
x,y,-z
x-y,x,-z
-y,x-y,-z
-x+y,y,1/2+z
x,x-y,1/2+z
-y,-x,1/2+z
y,x,1/2+z
x-y,-y,1/2+z
-x,-x+y,1/2+z
loop_
_atom_site_type_symbol
_atom_site_label
_atom_site_fract_x
_atom_site_fract_y
_atom_site_fract_z
Si Si1 0.100841 0.525793 0.698869
Si Si2 0.779907 0.253161 0.058159
Si Si3 0.995710 0.824870 0.942546
Si Si4 0.220441 0.834448 0.303124
Si Si5 0.333443 0.879688 0.866795
Si Si6 0.949788 0.286107 0.885211
Si Si7 0.666668 0.333334 0.557496
O O1 0.146763 0.573382 0.750000
O O2 0.125511 0.450478 0.694187
O O3 0.137761 0.589143 0.651089
O O4 0.000000 0.500000 0.703001
O O5 0.705679 0.159764 0.079894
O O6 0.874888 0.286114 0.081019
O O7 0.747612 0.320898 0.074194
O O8 0.784566 0.242352 0.000000
O O9 0.991395 0.742460 0.915870
O O10 0.912699 0.831365 0.925880
O O11 0.995057 0.809400 0.000000
O O12 0.175517 0.824484 0.250000
O O13 0.167648 0.739053 0.325254
O O14 0.216730 0.905443 0.339583
O O15 0.369105 0.984121 0.867296
O O16 0.666667 0.333334 0.500000
#
# Coordination Sequence:
#
# PCOD8329607 Si02
#       7
#    24  24  24  24  24  24   8
#     4  11  22  41  64  90 131 173 212 277 342 400
#     4  10  23  41  63  91 127 173 224 279 341 408
#     4  10  20  37  63  95 131 170 215 273 338 402
#     4  11  23  41  61  92 124 169 218 266 333 409
#     4  11  24  39  65  96 127 171 221 275 339 397
#     4  11  23  39  60  94 132 169 219 275 333 409
#     4   9  21  42  60  81 118 164 217 279 324 384
#
# _framework density 20.685556999999999
#
# number of rings (size 3 to 8) (size 9 to 14) (size 15 to 20)
#    0.000    1.421    3.158    2.526    4.421    3.789 
#    0.947    0.789    0.000    3.316    0.000    0.000 
#    0.000    1.263    0.000    0.000    0.000    0.000 
#
# Total GULP energy -1883273.715644 kJ/mol
# GULP energy per Si atom -12389.958656 kJ/mol
# Density = 2.063848 g / cm^3
# Si number density = 20.685557 Si / 1000 Ang^3
#
#
#
# Elastic Constant Matrix: (Units=GPa)
#
#
# Indices 1 2 3 4 5 6 
#
# 1 79.0727 14.9378 37.2978 0.0001 0.0000 -0.0001
# 2 14.9378 79.0731 37.2979 -0.0001 0.0000 0.0002
# 3 37.2978 37.2979 104.1565 0.0000 0.0000 0.0001
# 4 0.0001 -0.0001 0.0000 21.4281 0.0000 0.0000
# 5 0.0000 0.0000 0.0000 0.0000 21.4280 -0.0001
# 6 -0.0001 0.0002 0.0001 0.0000 -0.0001 32.0676
#
#
#
# Elastic Compliance Matrix: (Units=1/GPa)
#
#
# Indices 1 2 3 4 5 6 
#
# 1 0.015226 -0.000366 -0.005321 0.000000 0.000000 0.000000
# 2 -0.000366 0.015226 -0.005321 0.000000 0.000000 0.000000
# 3 -0.005321 -0.005321 0.013412 0.000000 0.000000 0.000000
# 4 0.000000 0.000000 0.000000 0.046668 0.000000 0.000000
# 5 0.000000 0.000000 0.000000 0.000000 0.046668 0.000000
# 6 0.000000 0.000000 0.000000 0.000000 0.000000 0.031184
#
#
# Mechanical properties :
#
#
# Convention : Reuss Voigt Hill
#
# Bulk Modulus (GPa) = 45.77459 49.04105 47.40782
# Shear Modulus (GPa) = 25.29317 26.50265 25.89791
#
# Velocity S-wave (km/s) = 3.50057 3.58329 3.54217
# Velocity P-wave (km/s) = 6.20608 6.39369 6.30059
#
# Compressibility (1/GPa) = 0.02184618
#
# Stress axis : x y z
#
# Youngs Moduli (GPa) = 65.67852 65.67887 74.56134
#
# Poissons Ratio (x) = 0.02407 0.39674
# Poissons Ratio (y) = 0.02407 0.39674
# Poissons Ratio (z) = 0.34948 0.34948
#
# Static dielectric constant tensor:
#      x y z
#    x 3.894880 0.000000 0.000000 
#    y 0.000000 3.894900 0.000000 
#    z 0.000000 0.000000 4.221260 
# 
# 
# High freq. dielectric constant tensor:
#      x y z
#    x 1.804410 0.000000 0.000000 
#    y 0.000000 1.804410 0.000000 
#    z 0.000000 0.000000 1.820160 
# 
# From -- ./inp_files/7152.got.cif
#   From: 2010.03.12/outbox.cif.g09.slc.cpg/sg192_4_cif.got.tgz:7152.got - 2010.04.01 12:16:15.
