data_PCOD8329007
_publ_section_title
;
Structure prediction by ZEFSAII (Michael W. Deem and Ramdas Pophale) SiO2 
 PCOD8329007
Probable space group: P 6/M M M
;
_chemical_formula_sum "Si O2"
_cell_formula_units_Z 132
_cell_length_a 17.591924
_cell_length_b 17.591924
_cell_length_c 28.651486
_cell_angle_alpha 90.000000
_cell_angle_beta 90.000000
_cell_angle_gamma 120.000000
_cell_volume 7678.996389
_symmetry_space_group_name_H-M "P 6/M M M"
_symmetry_group_IT_number 191
_symmetry_cell_setting 'hexagonal'
loop_
_space_group_symop_operation_xyz
x,y,z
x-y,x,z
-y,x-y,z
-x,-y,z
-x+y,-x,z
y,-x+y,z
x-y,-y,-z
-x,-x+y,-z
y,x,-z
-y,-x,-z
-x+y,y,-z
x,x-y,-z
-x,-y,-z
-x+y,-x,-z
y,-x+y,-z
x,y,-z
x-y,x,-z
-y,x-y,-z
-x+y,y,z
x,x-y,z
-y,-x,z
y,x,z
x-y,-y,z
-x,-x+y,z
loop_
_atom_site_type_symbol
_atom_site_label
_atom_site_fract_x
_atom_site_fract_y
_atom_site_fract_z
Si Si1 0.269321 0.369915 0.766120
Si Si2 0.533666 0.899066 0.852473
Si Si3 0.668810 0.160491 0.050086
Si Si4 0.467239 0.363867 0.500000
Si Si5 0.511941 0.843998 0.678561
Si Si6 0.628516 0.728928 0.410275
O O1 0.164885 0.329770 0.756893
O O2 0.290709 0.290709 0.770953
O O3 0.291668 0.429315 0.812742
O O4 0.326125 0.433256 0.724375
O O5 0.426776 0.853552 0.850199
O O6 0.565683 0.886338 0.903838
O O7 0.573250 0.000000 0.841794
O O8 0.571189 0.142377 0.049640
O O9 0.736146 0.263855 0.054157
O O10 0.684528 0.124858 0.000000
O O11 0.424593 0.424593 0.500000
O O12 0.573276 0.426725 0.500000
O O13 0.436682 0.303338 0.454335
O O14 0.426410 0.852819 0.676869
O O15 0.483826 0.741913 0.678601
O O16 0.571940 0.894070 0.634490
O O17 0.668375 0.834188 0.405089
O O18 0.708099 0.708099 0.416151
#
# Coordination Sequence:
#
# PCOD8329007 Si02
#       6
#    24  24  24  12  24  24
#     4  10  20  33  49  68  90 117 149 185 225 269
#     4   9  17  28  42  61  84 110 141 176 215 262
#     4   9  16  25  37  53  75 105 141 178 212 246
#     4   9  17  30  49  72  96 122 154 191 231 280
#     4  10  20  33  50  73 100 128 156 187 224 266
#     4  10  20  33  50  72  97 127 163 202 242 282
#
# _framework density 17.189746
#
# number of rings (size 3 to 8) (size 9 to 14) (size 15 to 20)
#    0.000    2.455    0.000    2.818    0.000    4.000 
#    0.000    1.818    0.000    8.727    0.000    0.000 
#    0.000    6.545    0.000    0.000    0.000    0.727 
#
# Total GULP energy -1635708.595837 kJ/mol
# GULP energy per Si atom -12391.731787 kJ/mol
# Density = 1.715062 g / cm^3
# Si number density = 17.189746 Si / 1000 Ang^3
#
#
#
# Elastic Constant Matrix: (Units=GPa)
#
#
# Indices 1 2 3 4 5 6 
#
# 1 72.6517 42.9202 28.5218 0.0000 0.0000 0.0000
# 2 42.9202 72.6517 28.5218 0.0000 0.0000 0.0000
# 3 28.5218 28.5218 142.5145 0.0000 0.0000 0.0000
# 4 0.0000 0.0000 0.0000 -13.4498 0.0000 0.0000
# 5 0.0000 0.0000 0.0000 0.0000 -13.4498 0.0000
# 6 0.0000 0.0000 0.0000 0.0000 0.0000 14.8657
#
#
#
# Elastic Compliance Matrix: (Units=1/GPa)
#
#
# Indices 1 2 3 4 5 6 
#
# 1 0.021618 -0.012017 -0.001921 0.000000 0.000000 0.000000
# 2 -0.012017 0.021618 -0.001921 0.000000 0.000000 0.000000
# 3 -0.001921 -0.001921 0.007786 0.000000 0.000000 0.000000
# 4 0.000000 0.000000 0.000000 -0.074351 0.000000 0.000000
# 5 0.000000 0.000000 0.000000 0.000000 -0.074351 0.000000
# 6 0.000000 0.000000 0.000000 0.000000 0.000000 0.067269
#
#
# Mechanical properties :
#
#
# Convention : Reuss Voigt Hill
#
# Bulk Modulus (GPa) = 51.80795 54.19394 53.00095
# Shear Modulus (GPa) = 645.82403 10.11685 327.97044
#
# Velocity S-wave (km/s) = 19.40409 2.42862 13.82781
# Velocity P-wave (km/s) = 23.07009 6.28169 16.90693
#
# Compressibility (1/GPa) = 0.01930206
#
# Stress axis : x y z
#
# Youngs Moduli (GPa) = 46.25839 46.25839 128.43683
#
# Poissons Ratio (x) = 0.55587 0.24679
# Poissons Ratio (y) = 0.55587 0.24679
# Poissons Ratio (z) = 0.08888 0.08888
#
# Static dielectric constant tensor:
#      x y z
#    x 2.993880 0.000000 0.000000 
#    y 0.000000 2.993880 0.000000 
#    z 0.000000 0.000000 3.684110 
# 
# 
# High freq. dielectric constant tensor:
#      x y z
#    x 1.633530 0.000000 0.000000 
#    y 0.000000 1.633530 0.000000 
#    z 0.000000 0.000000 1.693960 
# 
# From -- ./inp_files/9809.got.cif
#   From: 2010.03.12/outbox.cif.g09.slc.cpg/sg191_5_cif.got.tgz:9809.got - 2010.04.01 12:09:02.
