data_PCOD8329912
_publ_section_title
;
Structure prediction by ZEFSAII (Michael W. Deem and Ramdas Pophale) SiO2 
 PCOD8329912
Probable space group: P 63/M C M
;
_chemical_formula_sum "Si O2"
_cell_formula_units_Z 152
_cell_length_a 18.166964
_cell_length_b 18.166964
_cell_length_c 30.033025
_cell_angle_alpha 90.000000
_cell_angle_beta 90.000000
_cell_angle_gamma 120.000000
_cell_volume 8584.093125
_symmetry_space_group_name_H-M "P 63/M C M"
_symmetry_group_IT_number 193
_symmetry_cell_setting 'hexagonal'
loop_
_space_group_symop_operation_xyz
x,y,z
x-y,x,1/2+z
-y,x-y,z
-x,-y,1/2+z
-x+y,-x,z
y,-x+y,1/2+z
x-y,-y,1/2-z
-x,-x+y,1/2-z
y,x,1/2-z
-y,-x,-z
-x+y,y,-z
x,x-y,-z
-x,-y,-z
-x+y,-x,1/2-z
y,-x+y,-z
x,y,1/2-z
x-y,x,-z
-y,x-y,1/2-z
-x+y,y,1/2+z
x,x-y,1/2+z
-y,-x,1/2+z
y,x,z
x-y,-y,z
-x,-x+y,z
loop_
_atom_site_type_symbol
_atom_site_label
_atom_site_fract_x
_atom_site_fract_y
_atom_site_fract_z
Si Si1 0.677131 0.901093 0.198817
Si Si2 0.901237 0.229824 0.133323
Si Si3 0.332545 0.232701 0.531336
Si Si4 0.666668 0.333334 0.948044
Si Si5 0.523733 0.367611 0.958688
Si Si6 0.101202 0.489642 0.700781
Si Si7 0.904145 0.395081 0.134230
O O1 0.689865 0.882845 0.250000
O O2 0.704909 0.850225 0.165803
O O3 0.578073 0.869053 0.189679
O O4 0.735989 0.000000 0.187796
O O5 0.886925 0.199796 0.082046
O O6 0.863867 0.293808 0.140366
O O7 0.000000 0.276335 0.145423
O O8 0.300652 0.150326 0.500000
O O9 0.283090 0.283090 0.518682
O O10 0.433289 0.294129 0.523737
O O11 0.578982 0.330001 0.934876
O O12 0.666668 0.333334 0.000000
O O13 0.512332 0.418608 0.917957
O O14 0.570682 0.429319 0.000000
O O15 0.132673 0.528744 0.750000
O O16 0.142223 0.566911 0.665037
O O17 0.000000 0.438849 0.699233
O O18 0.000000 0.438980 0.151188
#
# Coordination Sequence:
#
# PCOD8329912 Si02
#       7
#    24  24  24   8  24  24  24
#     4   9  18  32  51  76 102 128 163 207 252 299
#     4   9  19  34  50  72 102 132 164 204 248 298
#     4  10  21  36  53  75 102 129 163 208 252 297
#     4   9  18  30  45  63  91 134 172 192 222 279
#     4  10  19  32  47  68 100 134 167 203 242 284
#     4   8  15  29  47  67  93 123 157 200 244 286
#     4   9  18  30  45  68  95 124 162 204 244 287
#
# _framework density 17.707170999999999
#
# number of rings (size 3 to 8) (size 9 to 14) (size 15 to 20)
#    0.000    2.842    0.000    3.789    0.000    6.632 
#    0.000    3.158    0.000    1.105    0.000    0.000 
#    0.000    0.000    0.000    0.000    0.000    0.000 
#
# Total GULP energy -1883538.955657 kJ/mol
# GULP energy per Si atom -12391.703656 kJ/mol
# Density = 1.766687 g / cm^3
# Si number density = 17.707171 Si / 1000 Ang^3
#
#
#
# Elastic Constant Matrix: (Units=GPa)
#
#
# Indices 1 2 3 4 5 6 
#
# 1 78.8271 42.7843 49.9381 0.0000 0.0000 0.0001
# 2 42.7843 78.8273 49.9382 0.0000 0.0000 0.0000
# 3 49.9381 49.9382 106.7159 0.0000 0.0000 0.0000
# 4 0.0000 0.0000 0.0000 32.0362 0.0000 0.0000
# 5 0.0000 0.0000 0.0000 0.0000 32.0362 0.0000
# 6 0.0001 0.0000 0.0000 0.0000 0.0000 18.0215
#
#
#
# Elastic Compliance Matrix: (Units=1/GPa)
#
#
# Indices 1 2 3 4 5 6 
#
# 1 0.020550 -0.007194 -0.006250 0.000000 0.000000 0.000000
# 2 -0.007194 0.020550 -0.006250 0.000000 0.000000 0.000000
# 3 -0.006250 -0.006250 0.015220 0.000000 0.000000 0.000000
# 4 0.000000 0.000000 0.000000 0.031215 0.000000 0.000000
# 5 0.000000 0.000000 0.000000 0.000000 0.031215 0.000000
# 6 0.000000 0.000000 0.000000 0.000000 0.000000 0.055489
#
#
# Mechanical properties :
#
#
# Convention : Reuss Voigt Hill
#
# Bulk Modulus (GPa) = 59.05981 61.07683 60.06832
# Shear Modulus (GPa) = 22.80277 24.53276 23.66776
#
# Velocity S-wave (km/s) = 3.59244 3.72623 3.65995
# Velocity P-wave (km/s) = 7.11573 7.28565 7.20119
#
# Compressibility (1/GPa) = 0.01693199
#
# Stress axis : x y z
#
# Youngs Moduli (GPa) = 48.66118 48.66121 65.70310
#
# Poissons Ratio (x) = 0.35009 0.41064
# Poissons Ratio (y) = 0.35009 0.41064
# Poissons Ratio (z) = 0.30413 0.30413
#
# Static dielectric constant tensor:
#      x y z
#    x 2.879730 -0.000010 0.000000 
#    y -0.000010 2.879750 0.000000 
#    z 0.000000 0.000000 3.326220 
# 
# 
# High freq. dielectric constant tensor:
#      x y z
#    x 1.665280 0.000000 0.000000 
#    y 0.000000 1.665280 0.000000 
#    z 0.000000 0.000000 1.686690 
# 
# From -- ./inp_files/9232.got.cif
#   From: 2010.03.12/outbox.cif.g09.slc.cpg/sg193_5_cif.got.tgz:9232.got - 2010.04.01 12:20:39.
