data_PCOD8329509
_publ_section_title
;
Structure prediction by ZEFSAII (Michael W. Deem and Ramdas Pophale) SiO2 
 PCOD8329509
Probable space group: P 6/M C C
;
_chemical_formula_sum "Si O2"
_cell_formula_units_Z 132
_cell_length_a 16.968614
_cell_length_b 16.968614
_cell_length_c 28.652617
_cell_angle_alpha 90.000000
_cell_angle_beta 90.000000
_cell_angle_gamma 120.000000
_cell_volume 7144.760367
_symmetry_space_group_name_H-M "P 6/M C C"
_symmetry_group_IT_number 192
_symmetry_cell_setting 'hexagonal'
loop_
_space_group_symop_operation_xyz
x,y,z
x-y,x,z
-y,x-y,z
-x,-y,z
-x+y,-x,z
y,-x+y,z
x-y,-y,1/2-z
-x,-x+y,1/2-z
y,x,1/2-z
-y,-x,1/2-z
-x+y,y,1/2-z
x,x-y,1/2-z
-x,-y,-z
-x+y,-x,-z
y,-x+y,-z
x,y,-z
x-y,x,-z
-y,x-y,-z
-x+y,y,1/2+z
x,x-y,1/2+z
-y,-x,1/2+z
y,x,1/2+z
x-y,-y,1/2+z
-x,-x+y,1/2+z
loop_
_atom_site_type_symbol
_atom_site_label
_atom_site_fract_x
_atom_site_fract_y
_atom_site_fract_z
Si Si1 0.360878 0.459008 0.149544
Si Si2 0.261595 0.711955 0.500000
Si Si3 0.113268 0.208352 0.444635
Si Si4 0.897961 0.274930 0.754898
Si Si5 0.205826 0.416293 0.914058
Si Si6 0.639057 0.111682 0.838047
O O1 0.298860 0.423470 0.195049
O O2 0.303508 0.432402 0.101766
O O3 0.420903 0.411958 0.144691
O O4 0.420533 0.568354 0.154963
O O5 0.230906 0.603921 0.500000
O O6 0.219178 0.734720 0.544260
O O7 0.160336 0.151289 0.426097
O O8 0.112838 0.209296 0.500000
O O9 0.171391 0.311500 0.427113
O O10 0.832909 0.167092 0.750000
O O11 0.880030 0.333167 0.716175
O O12 0.000000 0.293430 0.750000
O O13 0.167948 0.441275 0.869137
#
# Coordination Sequence:
#
# PCOD8329509 Si02
#       6
#    24  12  24  24  24  24
#     4  10  21  36  57  84 114 148 187 235 285 334
#     4  10  24  40  54  78 114 158 192 240 296 324
#     4  10  21  38  61  87 114 145 188 244 297 341
#     4  10  19  37  59  84 115 147 188 235 289 349
#     4  12  20  38  60  81 116 152 198 231 277 357
#     4  10  21  36  57  84 114 148 187 235 285 334
#
# _framework density 18.475076000000001
#
# number of rings (size 3 to 8) (size 9 to 14) (size 15 to 20)
#    0.182    1.455    2.727    2.909    0.000    2.909 
#    1.091    0.000    0.000    4.545    0.000    0.000 
#    0.000    0.000    0.000    0.000    0.000    0.000 
#
# Total GULP energy -1636539.113216 kJ/mol
# GULP energy per Si atom -12398.023585 kJ/mol
# Density = 1.843303 g / cm^3
# Si number density = 18.475076 Si / 1000 Ang^3
#
#
#
# Elastic Constant Matrix: (Units=GPa)
#
#
# Indices 1 2 3 4 5 6 
#
# 1 91.1987 48.9940 14.4602 0.0000 0.0000 0.0000
# 2 48.9940 91.1987 14.4602 0.0000 0.0000 0.0000
# 3 14.4602 14.4602 58.0929 0.0000 0.0000 0.0000
# 4 0.0000 0.0000 0.0000 23.1174 0.0000 0.0000
# 5 0.0000 0.0000 0.0000 0.0000 23.1174 0.0000
# 6 0.0000 0.0000 0.0000 0.0000 0.0000 21.1023
#
#
#
# Elastic Compliance Matrix: (Units=1/GPa)
#
#
# Indices 1 2 3 4 5 6 
#
# 1 0.015607 -0.008087 -0.001872 0.000000 0.000000 0.000000
# 2 -0.008087 0.015607 -0.001872 0.000000 0.000000 0.000000
# 3 -0.001872 -0.001872 0.018146 0.000000 0.000000 0.000000
# 4 0.000000 0.000000 0.000000 0.043257 0.000000 0.000000
# 5 0.000000 0.000000 0.000000 0.000000 0.043257 0.000000
# 6 0.000000 0.000000 0.000000 0.000000 0.000000 0.047388
#
#
# Mechanical properties :
#
#
# Convention : Reuss Voigt Hill
#
# Bulk Modulus (GPa) = 38.91457 44.03546 41.47502
# Shear Modulus (GPa) = 23.20304 24.30582 23.75443
#
# Velocity S-wave (km/s) = 3.54773 3.63106 3.58963
# Velocity P-wave (km/s) = 6.15555 6.43943 6.29909
#
# Compressibility (1/GPa) = 0.02569731
#
# Stress axis : x y z
#
# Youngs Moduli (GPa) = 64.07543 64.07543 55.10991
#
# Poissons Ratio (x) = 0.51821 0.10315
# Poissons Ratio (y) = 0.51821 0.10315
# Poissons Ratio (z) = 0.11993 0.11993
#
# Static dielectric constant tensor:
#      x y z
#    x 3.579690 0.000000 0.000000 
#    y 0.000000 3.579690 0.000000 
#    z 0.000000 0.000000 3.313440 
# 
# 
# High freq. dielectric constant tensor:
#      x y z
#    x 1.718510 0.000000 0.000000 
#    y 0.000000 1.718510 0.000000 
#    z 0.000000 0.000000 1.715490 
# 
# From -- ./inp_files/5836.got.cif
#   From: 2010.03.12/outbox.cif.g09.slc.cpg/sg192_3_cif.got.tgz:5836.got - 2010.04.01 12:16:15.
