data_PCOD8329501
_publ_section_title
;
Structure prediction by ZEFSAII (Michael W. Deem and Ramdas Pophale) SiO2 
 PCOD8329501
Probable space group: P 6/M C C
;
_chemical_formula_sum "Si O2"
_cell_formula_units_Z 144
_cell_length_a 31.599020
_cell_length_b 31.599020
_cell_length_c 8.516607
_cell_angle_alpha 90.000000
_cell_angle_beta 90.000000
_cell_angle_gamma 120.000000
_cell_volume 7364.520347
_symmetry_space_group_name_H-M "P 6/M C C"
_symmetry_group_IT_number 192
_symmetry_cell_setting 'hexagonal'
loop_
_space_group_symop_operation_xyz
x,y,z
x-y,x,z
-y,x-y,z
-x,-y,z
-x+y,-x,z
y,-x+y,z
x-y,-y,1/2-z
-x,-x+y,1/2-z
y,x,1/2-z
-y,-x,1/2-z
-x+y,y,1/2-z
x,x-y,1/2-z
-x,-y,-z
-x+y,-x,-z
y,-x+y,-z
x,y,-z
x-y,x,-z
-y,x-y,-z
-x+y,y,1/2+z
x,x-y,1/2+z
-y,-x,1/2+z
y,x,1/2+z
x-y,-y,1/2+z
-x,-x+y,1/2+z
loop_
_atom_site_type_symbol
_atom_site_label
_atom_site_fract_x
_atom_site_fract_y
_atom_site_fract_z
Si Si1 0.666793 0.426904 0.186212
Si Si2 0.143291 0.947312 0.314011
Si Si3 0.572263 0.520812 0.186253
Si Si4 0.619973 0.856727 0.186406
Si Si5 0.765276 0.052659 0.185932
Si Si6 0.145423 0.668627 0.813942
O O1 0.622669 0.377332 0.250000
O O2 0.716915 0.433830 0.250000
O O3 0.661910 0.472334 0.250268
O O4 0.666844 0.425076 0.000000
O O5 0.090024 0.909977 0.250000
O O6 0.143970 0.947801 0.500000
O O7 0.181492 0.931621 0.253200
O O8 0.156514 0.000000 0.250000
O O9 0.564263 0.564263 0.250000
O O10 0.531124 0.468877 0.250000
O O11 0.624390 0.530216 0.248960
O O12 0.569448 0.519968 0.000000
O O13 0.629029 0.814515 0.250000
O O14 0.658852 0.908338 0.258879
O O15 0.567340 0.847040 0.244905
O O16 0.624766 0.859134 0.000000
O O17 0.724756 0.000000 0.250000
O O18 0.767150 0.050506 0.000000
O O19 0.145249 0.667509 0.000000
#
# Coordination Sequence:
#
# PCOD8329501 Si02
#       6
#    24  24  24  24  24  24
#     4  11  22  39  60  85 112 144 181 226 277 332
#     4  11  21  36  57  84 114 149 189 235 284 336
#     4  10  19  35  56  82 110 142 179 224 274 326
#     4  11  22  39  58  81 112 149 187 229 275 330
#     4  11  22  38  58  84 113 147 187 233 281 331
#     4   9  21  38  58  81 111 145 185 230 274 322
#
# _framework density 19.553207
#
# number of rings (size 3 to 8) (size 9 to 14) (size 15 to 20)
#    0.000    1.500    0.000    7.667    0.000    0.667 
#    0.000   10.000    0.000    0.167    0.000    1.167 
#    0.000    0.000    0.000    0.000    0.000    0.000 
#
# Total GULP energy -1786200.357938 kJ/mol
# GULP energy per Si atom -12404.169152 kJ/mol
# Density = 1.950870 g / cm^3
# Si number density = 19.553207 Si / 1000 Ang^3
#
#
#
# Elastic Constant Matrix: (Units=GPa)
#
#
# Indices 1 2 3 4 5 6 
#
# 1 128.8000 55.5632 36.3399 0.0000 0.0000 0.0000
# 2 55.5632 128.8000 36.3399 0.0000 0.0000 0.0000
# 3 36.3399 36.3399 125.4419 0.0000 0.0000 0.0000
# 4 0.0000 0.0000 0.0000 26.4333 0.0000 0.0000
# 5 0.0000 0.0000 0.0000 0.0000 26.4333 0.0000
# 6 0.0000 0.0000 0.0000 0.0000 0.0000 36.6184
#
#
#
# Elastic Compliance Matrix: (Units=1/GPa)
#
#
# Indices 1 2 3 4 5 6 
#
# 1 0.009889 -0.003765 -0.001774 0.000000 0.000000 0.000000
# 2 -0.003765 0.009889 -0.001774 0.000000 0.000000 0.000000
# 3 -0.001774 -0.001774 0.009000 0.000000 0.000000 0.000000
# 4 0.000000 0.000000 0.000000 0.037831 0.000000 0.000000
# 5 0.000000 0.000000 0.000000 0.000000 0.037831 0.000000
# 6 0.000000 0.000000 0.000000 0.000000 0.000000 0.027309
#
#
# Mechanical properties :
#
#
# Convention : Reuss Voigt Hill
#
# Bulk Modulus (GPa) = 70.66775 71.05864 70.86320
# Shear Modulus (GPa) = 33.09252 34.88361 33.98806
#
# Velocity S-wave (km/s) = 4.11838 4.22837 4.17374
# Velocity P-wave (km/s) = 7.67036 7.76266 7.71665
#
# Compressibility (1/GPa) = 0.01415073
#
# Stress axis : x y z
#
# Youngs Moduli (GPa) = 101.12382 101.12382 111.11599
#
# Poissons Ratio (x) = 0.38078 0.19711
# Poissons Ratio (y) = 0.38078 0.19711
# Poissons Ratio (z) = 0.17939 0.17939
#
# Static dielectric constant tensor:
#      x y z
#    x 3.715610 0.000000 0.000000 
#    y 0.000000 3.715610 0.000000 
#    z 0.000000 0.000000 3.582640 
# 
# 
# High freq. dielectric constant tensor:
#      x y z
#    x 1.769330 0.000000 0.000000 
#    y 0.000000 1.769330 0.000000 
#    z 0.000000 0.000000 1.766180 
# 
# From -- ./inp_files/1205.got.cif
#   From: 2010.03.12/outbox.cif.g09.slc.cpg/sg192_1_cif.got.tgz:1205.got - 2010.04.01 12:16:15.
