data_PCOD8329802
_publ_section_title
;
Structure prediction by ZEFSAII (Michael W. Deem and Ramdas Pophale) SiO2 
 PCOD8329802
Probable space group: P 63/M C M
;
_chemical_formula_sum "Si O2"
_cell_formula_units_Z 120
_cell_length_a 23.260382
_cell_length_b 23.260382
_cell_length_c 14.052146
_cell_angle_alpha 90.000000
_cell_angle_beta 90.000000
_cell_angle_gamma 120.000000
_cell_volume 6584.259979
_symmetry_space_group_name_H-M "P 63/M C M"
_symmetry_group_IT_number 193
_symmetry_cell_setting 'hexagonal'
loop_
_space_group_symop_operation_xyz
x,y,z
x-y,x,1/2+z
-y,x-y,z
-x,-y,1/2+z
-x+y,-x,z
y,-x+y,1/2+z
x-y,-y,1/2-z
-x,-x+y,1/2-z
y,x,1/2-z
-y,-x,-z
-x+y,y,-z
x,x-y,-z
-x,-y,-z
-x+y,-x,1/2-z
y,-x+y,-z
x,y,1/2-z
x-y,x,-z
-y,x-y,1/2-z
-x+y,y,1/2+z
x,x-y,1/2+z
-y,-x,1/2+z
y,x,z
x-y,-y,z
-x,-x+y,z
loop_
_atom_site_type_symbol
_atom_site_label
_atom_site_fract_x
_atom_site_fract_y
_atom_site_fract_z
Si Si1 0.178159 0.370440 0.862858
Si Si2 0.764529 0.480214 0.363634
Si Si3 0.927526 0.404583 0.442334
Si Si4 0.726142 0.649062 0.492131
Si Si5 0.802382 0.379085 0.142334
O O1 0.169733 0.359256 0.750000
O O2 0.203692 0.445145 0.899539
O O3 0.106042 0.332641 0.914232
O O4 0.229780 0.348177 0.900539
O O5 0.764721 0.483244 0.250000
O O6 0.803401 0.443466 0.405264
O O7 0.689840 0.438004 0.405205
O O8 0.920822 0.460411 0.500000
O O9 0.916736 0.340466 0.502687
O O10 0.873073 0.382385 0.359851
O O11 0.000000 0.437971 0.394010
O O12 0.705455 0.705455 0.480141
O O13 0.780844 0.378551 0.250000
#
# Coordination Sequence:
#
# PCOD8329802 Si02
#       5
#    24  24  24  24  24
#     4  10  20  36  56  78 106 139 178 222 269 322
#     4   9  17  29  46  68  94 128 167 217 276 330
#     4  10  20  33  47  66  96 129 166 215 266 321
#     4  10  21  36  55  78 107 140 177 222 270 321
#     4  10  18  30  47  67  92 123 164 213 270 330
#
# _framework density 18.225283000000001
#
# number of rings (size 3 to 8) (size 9 to 14) (size 15 to 20)
#    0.000    2.200    2.000    1.600    0.000    2.800 
#    0.000    2.000    0.000    7.200    0.000    0.000 
#    0.000    0.000    0.000   19.200    0.000   41.600 
#
# Total GULP energy -1486566.143383 kJ/mol
# GULP energy per Si atom -12388.051195 kJ/mol
# Density = 1.818380 g / cm^3
# Si number density = 18.225283 Si / 1000 Ang^3
#
#
#
# Elastic Constant Matrix: (Units=GPa)
#
#
# Indices 1 2 3 4 5 6 
#
# 1 107.8083 55.7316 28.7935 0.0000 0.0000 0.0000
# 2 55.7316 107.8083 28.7935 0.0000 0.0000 0.0000
# 3 28.7935 28.7935 62.9772 0.0000 0.0000 0.0000
# 4 0.0000 0.0000 0.0000 18.2415 0.0000 0.0000
# 5 0.0000 0.0000 0.0000 0.0000 18.2415 0.0000
# 6 0.0000 0.0000 0.0000 0.0000 0.0000 26.0383
#
#
#
# Elastic Compliance Matrix: (Units=1/GPa)
#
#
# Indices 1 2 3 4 5 6 
#
# 1 0.013245 -0.005957 -0.003332 0.000000 0.000000 0.000000
# 2 -0.005957 0.013245 -0.003332 0.000000 0.000000 0.000000
# 3 -0.003332 -0.003332 0.018926 0.000000 0.000000 0.000000
# 4 0.000000 0.000000 0.000000 0.054820 0.000000 0.000000
# 5 0.000000 0.000000 0.000000 0.000000 0.054820 0.000000
# 6 0.000000 0.000000 0.000000 0.000000 0.000000 0.038405
#
#
# Mechanical properties :
#
#
# Convention : Reuss Voigt Hill
#
# Bulk Modulus (GPa) = 49.57056 56.13679 52.85367
# Shear Modulus (GPa) = 22.17997 23.52261 22.85129
#
# Velocity S-wave (km/s) = 3.49232 3.59647 3.54478
# Velocity P-wave (km/s) = 6.59694 6.93647 6.76883
#
# Compressibility (1/GPa) = 0.02017327
#
# Stress axis : x y z
#
# Youngs Moduli (GPa) = 75.49874 75.49874 52.83812
#
# Poissons Ratio (x) = 0.44976 0.17606
# Poissons Ratio (y) = 0.44976 0.17606
# Poissons Ratio (z) = 0.25157 0.25157
#
# Static dielectric constant tensor:
#      x y z
#    x 3.404410 0.000000 0.000000 
#    y 0.000000 3.404410 0.000000 
#    z 0.000000 0.000000 3.079980 
# 
# 
# High freq. dielectric constant tensor:
#      x y z
#    x 1.689880 0.000000 0.000000 
#    y 0.000000 1.689880 0.000000 
#    z 0.000000 0.000000 1.694820 
# 
# From -- ./inp_files/4000.got.cif
#   From: 2010.03.12/outbox.cif.g09.slc.cpg/sg193_2_cif.got.tgz:4000.got - 2010.04.01 12:20:39.
