data_PCOD8329036
_publ_section_title
;
Structure prediction by ZEFSAII (Michael W. Deem and Ramdas Pophale) SiO2 
 PCOD8329036
Probable space group: P 6/M M M
;
_chemical_formula_sum "Si O2"
_cell_formula_units_Z 168
_cell_length_a 17.876146
_cell_length_b 17.876146
_cell_length_c 35.297366
_cell_angle_alpha 90.000000
_cell_angle_beta 90.000000
_cell_angle_gamma 120.000000
_cell_volume 9768.338842
_symmetry_space_group_name_H-M "P 6/M M M"
_symmetry_group_IT_number 191
_symmetry_cell_setting 'hexagonal'
loop_
_space_group_symop_operation_xyz
x,y,z
x-y,x,z
-y,x-y,z
-x,-y,z
-x+y,-x,z
y,-x+y,z
x-y,-y,-z
-x,-x+y,-z
y,x,-z
-y,-x,-z
-x+y,y,-z
x,x-y,-z
-x,-y,-z
-x+y,-x,-z
y,-x+y,-z
x,y,-z
x-y,x,-z
-y,x-y,-z
-x+y,y,z
x,x-y,z
-y,-x,z
y,x,z
x-y,-y,z
-x,-x+y,z
loop_
_atom_site_type_symbol
_atom_site_label
_atom_site_fract_x
_atom_site_fract_y
_atom_site_fract_z
Si Si1 0.506421 0.667131 0.957328
Si Si2 0.638000 0.735119 0.456512
Si Si3 0.507241 0.839029 0.608028
Si Si4 0.353913 0.093810 0.897362
Si Si5 0.838942 0.331850 0.253286
Si Si6 0.265574 0.363390 0.188448
Si Si7 0.902245 0.633123 0.677410
O O1 0.482155 0.741078 0.950657
O O2 0.422682 0.577319 0.949323
O O3 0.576878 0.675273 0.927343
O O4 0.541296 0.671598 0.000000
O O5 0.608558 0.713894 0.500000
O O6 0.672676 0.836338 0.447250
O O7 0.714750 0.714750 0.447377
O O8 0.553453 0.674780 0.431894
O O9 0.426707 0.853413 0.612677
O O10 0.474451 0.737226 0.610254
O O11 0.575125 0.889758 0.640948
O O12 0.323454 0.161727 0.907693
O O13 0.393914 0.108985 0.855209
O O14 0.269170 0.000000 0.900189
O O15 0.853372 0.426686 0.258501
O O16 0.737141 0.262859 0.255554
O O17 0.878342 0.326101 0.213140
O O18 0.889942 0.313870 0.285805
O O19 0.164237 0.328474 0.198118
O O20 0.287107 0.287107 0.196920
O O21 0.833929 0.667858 0.677223
O O22 0.000000 0.714389 0.677297
#
# Coordination Sequence:
#
# PCOD8329036 Si02
#       7
#    24  24  24  24  24  24  24
#     4   9  17  29  45  65  90 120 152 184 218 258
#     4   9  18  32  49  69  93 122 156 194 237 282
#     4  10  20  33  49  70  97 128 160 193 230 272
#     4   9  18  32  48  66  89 117 149 185 227 273
#     4  10  20  33  49  70  97 128 160 192 226 264
#     4   9  18  32  49  68  90 118 151 187 228 272
#     4  10  21  35  51  72  97 125 156 192 235 279
#
# _framework density 17.198419999999999
#
# number of rings (size 3 to 8) (size 9 to 14) (size 15 to 20)
#    0.000    2.571    0.000    1.714    0.000    4.857 
#    0.000    4.286    0.000    3.143    0.000    3.000 
#    0.000    6.857    0.000    3.857    0.000    4.286 
#
# Total GULP energy -2082805.428587 kJ/mol
# GULP energy per Si atom -12397.651361 kJ/mol
# Density = 1.715928 g / cm^3
# Si number density = 17.198420 Si / 1000 Ang^3
#
#
#
# Elastic Constant Matrix: (Units=GPa)
#
#
# Indices 1 2 3 4 5 6 
#
# 1 98.3113 71.4523 43.8771 0.0000 0.0000 0.0000
# 2 71.4523 98.3113 43.8771 0.0000 0.0000 0.0000
# 3 43.8771 43.8771 88.7839 0.0000 0.0000 0.0000
# 4 0.0000 0.0000 0.0000 21.2543 0.0000 0.0000
# 5 0.0000 0.0000 0.0000 0.0000 21.2543 0.0000
# 6 0.0000 0.0000 0.0000 0.0000 0.0000 13.4295
#
#
#
# Elastic Compliance Matrix: (Units=1/GPa)
#
#
# Indices 1 2 3 4 5 6 
#
# 1 0.022572 -0.014660 -0.003910 0.000000 0.000000 0.000000
# 2 -0.014660 0.022572 -0.003910 0.000000 0.000000 0.000000
# 3 -0.003910 -0.003910 0.015128 0.000000 0.000000 0.000000
# 4 0.000000 0.000000 0.000000 0.047049 0.000000 0.000000
# 5 0.000000 0.000000 0.000000 0.000000 0.047049 0.000000
# 6 0.000000 0.000000 0.000000 0.000000 0.000000 0.074463
#
#
# Mechanical properties :
#
#
# Convention : Reuss Voigt Hill
#
# Bulk Modulus (GPa) = 65.31063 67.09103 66.20083
# Shear Modulus (GPa) = 17.92784 19.60096 18.76440
#
# Velocity S-wave (km/s) = 3.23214 3.37960 3.30669
# Velocity P-wave (km/s) = 7.21015 7.37046 7.29074
#
# Compressibility (1/GPa) = 0.01531144
#
# Stress axis : x y z
#
# Youngs Moduli (GPa) = 44.30359 44.30359 66.10296
#
# Poissons Ratio (x) = 0.64948 0.25846
# Poissons Ratio (y) = 0.64948 0.25846
# Poissons Ratio (z) = 0.17323 0.17323
#
# Static dielectric constant tensor:
#      x y z
#    x 3.162380 0.000000 0.000000 
#    y 0.000000 3.162380 0.000000 
#    z 0.000000 0.000000 3.479700 
# 
# 
# High freq. dielectric constant tensor:
#      x y z
#    x 1.649560 0.000000 0.000000 
#    y 0.000000 1.649560 0.000000 
#    z 0.000000 0.000000 1.683160 
# 
# From -- ./inp_files/10740.got.cif
#   From: 2010.03.12/outbox.cif.g09.slc.cpg/sg191_6_cif.got.tgz:10740.got - 2010.04.01 12:09:02.
