data_PCOD8329955
_publ_section_title
;
Structure prediction by ZEFSAII (Michael W. Deem and Ramdas Pophale) SiO2 
 PCOD8329955
Probable space group: P 63/M C M
;
_chemical_formula_sum "Si O2"
_cell_formula_units_Z 132
_cell_length_a 22.957617
_cell_length_b 22.957617
_cell_length_c 14.707115
_cell_angle_alpha 90.000000
_cell_angle_beta 90.000000
_cell_angle_gamma 120.000000
_cell_volume 6712.924035
_symmetry_space_group_name_H-M "P 63/M C M"
_symmetry_group_IT_number 193
_symmetry_cell_setting 'hexagonal'
loop_
_space_group_symop_operation_xyz
x,y,z
x-y,x,1/2+z
-y,x-y,z
-x,-y,1/2+z
-x+y,-x,z
y,-x+y,1/2+z
x-y,-y,1/2-z
-x,-x+y,1/2-z
y,x,1/2-z
-y,-x,-z
-x+y,y,-z
x,x-y,-z
-x,-y,-z
-x+y,-x,1/2-z
y,-x+y,-z
x,y,1/2-z
x-y,x,-z
-y,x-y,1/2-z
-x+y,y,1/2+z
x,x-y,1/2+z
-y,-x,1/2+z
y,x,z
x-y,-y,z
-x,-x+y,z
loop_
_atom_site_type_symbol
_atom_site_label
_atom_site_fract_x
_atom_site_fract_y
_atom_site_fract_z
Si Si1 0.572045 0.497977 0.354747
Si Si2 0.826747 0.479325 0.146146
Si Si3 0.714716 0.601513 0.416714
Si Si4 0.497808 0.248904 0.000000
Si Si5 0.732590 0.923871 0.250000
Si Si6 0.292109 0.925489 0.887677
Si Si7 0.298843 0.079001 0.250000
O O1 0.592118 0.506122 0.250000
O O2 0.507938 0.507938 0.372324
O O3 0.554313 0.424275 0.387539
O O4 0.634730 0.557176 0.405974
O O5 0.798734 0.456877 0.250000
O O6 0.873096 0.559346 0.146132
O O7 0.768896 0.457350 0.068290
O O8 0.740971 0.549137 0.428271
O O9 0.727508 0.645120 0.506863
O O10 0.753242 0.652484 0.336323
O O11 0.687956 0.913119 0.161590
O O12 0.747498 0.861880 0.250000
O O13 0.798812 0.000000 0.250000
O O14 0.352937 0.000000 0.864964
O O15 0.247546 0.000000 0.250000
#
# Coordination Sequence:
#
# PCOD8329955 Si02
#       7
#    24  24  24  12  12  24  12
#     4  10  20  35  57  90 122 148 184 236 303 371
#     4  10  20  35  56  80 113 151 190 243 296 345
#     4  11  22  36  57  86 121 153 185 234 295 355
#     4  10  24  36  54  80 106 156 207 240 285 342
#     4  10  22  38  57  82 115 151 195 237 269 321
#     4  10  19  33  54  81 111 150 192 230 280 343
#     4  12  22  36  59  86 121 155 181 221 287 351
#
# _framework density 19.663561000000001
#
# number of rings (size 3 to 8) (size 9 to 14) (size 15 to 20)
#    0.000    1.636    1.818    4.364    1.273    3.636 
#    0.000    4.545    0.000    3.091    0.000    0.000 
#    0.000    0.000    0.000    7.364    0.000    0.000 
#
# Total GULP energy -1636127.663677 kJ/mol
# GULP energy per Si atom -12394.906543 kJ/mol
# Density = 1.961881 g / cm^3
# Si number density = 19.663561 Si / 1000 Ang^3
#
#
#
# Elastic Constant Matrix: (Units=GPa)
#
#
# Indices 1 2 3 4 5 6 
#
# 1 84.9954 43.5398 45.2978 0.0000 0.0000 0.0000
# 2 43.5398 84.9954 45.2978 0.0000 0.0000 0.0000
# 3 45.2978 45.2978 133.2077 0.0000 0.0000 0.0000
# 4 0.0000 0.0000 0.0000 2.6469 0.0000 0.0000
# 5 0.0000 0.0000 0.0000 0.0000 2.6469 0.0000
# 6 0.0000 0.0000 0.0000 0.0000 0.0000 20.7278
#
#
#
# Elastic Compliance Matrix: (Units=1/GPa)
#
#
# Indices 1 2 3 4 5 6 
#
# 1 0.017177 -0.006945 -0.003480 0.000000 0.000000 0.000000
# 2 -0.006945 0.017177 -0.003480 0.000000 0.000000 0.000000
# 3 -0.003480 -0.003480 0.009874 0.000000 0.000000 0.000000
# 4 0.000000 0.000000 0.000000 0.377806 0.000000 0.000000
# 5 0.000000 0.000000 0.000000 0.000000 0.377806 0.000000
# 6 0.000000 0.000000 0.000000 0.000000 0.000000 0.048244
#
#
# Mechanical properties :
#
#
# Convention : Reuss Voigt Hill
#
# Bulk Modulus (GPa) = 60.90070 63.49658 62.19864
# Shear Modulus (GPa) = 5.67301 16.47518 11.07409
#
# Velocity S-wave (km/s) = 1.70038 2.89771 2.37571
# Velocity P-wave (km/s) = 5.90708 6.59979 6.26302
#
# Compressibility (1/GPa) = 0.01642017
#
# Stress axis : x y z
#
# Youngs Moduli (GPa) = 58.21620 58.21620 101.28051
#
# Poissons Ratio (x) = 0.40430 0.35242
# Poissons Ratio (y) = 0.40430 0.35242
# Poissons Ratio (z) = 0.20257 0.20257
#
# Static dielectric constant tensor:
#      x y z
#    x 3.610710 0.000000 0.000000 
#    y 0.000000 3.610710 0.000000 
#    z 0.000000 0.000000 3.928260 
# 
# 
# High freq. dielectric constant tensor:
#      x y z
#    x 1.742060 0.000000 0.000000 
#    y 0.000000 1.742060 0.000000 
#    z 0.000000 0.000000 1.787400 
# 
# From -- ./inp_files/4208.got.cif
#   From: 2010.03.12/outbox.cif.g09.slc.cpg/sg193_3_cif.got.tgz:4208.got - 2010.04.01 12:20:39.
