data_PCOD8329749
_publ_section_title
;
Structure prediction by ZEFSAII (Michael W. Deem and Ramdas Pophale) SiO2 
 PCOD8329749
Probable space group: P 6/M C C
;
_chemical_formula_sum "Si O2"
_cell_formula_units_Z 168
_cell_length_a 29.838502
_cell_length_b 29.838502
_cell_length_c 15.155037
_cell_angle_alpha 90.000000
_cell_angle_beta 90.000000
_cell_angle_gamma 120.000000
_cell_volume 11685.348391
_symmetry_space_group_name_H-M "P 6/M C C"
_symmetry_group_IT_number 192
_symmetry_cell_setting 'hexagonal'
loop_
_space_group_symop_operation_xyz
x,y,z
x-y,x,z
-y,x-y,z
-x,-y,z
-x+y,-x,z
y,-x+y,z
x-y,-y,1/2-z
-x,-x+y,1/2-z
y,x,1/2-z
-y,-x,1/2-z
-x+y,y,1/2-z
x,x-y,1/2-z
-x,-y,-z
-x+y,-x,-z
y,-x+y,-z
x,y,-z
x-y,x,-z
-y,x-y,-z
-x+y,y,1/2+z
x,x-y,1/2+z
-y,-x,1/2+z
y,x,1/2+z
x-y,-y,1/2+z
-x,-x+y,1/2+z
loop_
_atom_site_type_symbol
_atom_site_label
_atom_site_fract_x
_atom_site_fract_y
_atom_site_fract_z
Si Si1 0.881346 0.528069 0.898434
Si Si2 0.291172 0.940148 0.899966
Si Si3 0.649714 0.874522 0.250000
Si Si4 0.186537 0.472879 0.250000
Si Si5 0.708828 0.059851 0.600034
Si Si6 0.646724 0.528070 0.101567
Si Si7 0.471116 0.528884 0.604409
O O1 0.920574 0.588746 0.885935
O O2 0.830451 0.508985 0.838173
O O3 0.911399 0.499436 0.863823
O O4 0.863189 0.514320 0.000000
O O5 0.241473 0.909966 0.837296
O O6 0.320374 1.000000 0.874316
O O7 0.270570 0.930724 0.000000
O O8 0.674560 0.837280 0.250000
O O9 0.588418 0.840071 0.249999
O O10 0.668493 0.909966 0.162704
O O11 0.248783 0.497566 0.250000
O O12 0.169549 0.491015 0.338173
O O13 0.729430 0.069276 0.500000
O O14 0.668172 0.079425 0.614066
O O15 0.588037 0.499436 0.136176
O O16 0.651131 0.514320 0.000000
O O17 0.500000 0.500000 0.645722
O O18 0.473457 0.526542 0.500000
#
# Coordination Sequence:
#
# PCOD8329749 Si02
#       7
#    24  24  24  24  24  24  24
#     4   9  17  28  42  60  82 106 130 156 188 230
#     4   9  16  26  40  56  75 102 133 160 188 226
#     4   9  17  27  38  53  73  97 125 160 196 225
#     4   9  18  30  41  55  75  98 128 162 193 226
#     4   9  16  26  40  56  75 102 133 160 188 226
#     4   9  17  28  42  60  82 106 130 156 188 230
#     4   9  16  27  43  63  90 117 133 150 183 233
#
# _framework density 14.376977
#
# number of rings (size 3 to 8) (size 9 to 14) (size 15 to 20)
#    0.000    3.000    0.000    1.286    0.000    5.143 
#    0.000    8.571    0.000    0.000    0.000    0.000 
#    5.714    0.000    1.714    0.000    0.000    0.000 
#
# Total GULP energy -2082763.621926 kJ/mol
# GULP energy per Si atom -12397.402511 kJ/mol
# Density = 1.434425 g / cm^3
# Si number density = 14.376977 Si / 1000 Ang^3
#
#
#
# Elastic Constant Matrix: (Units=GPa)
#
#
# Indices 1 2 3 4 5 6 
#
# 1 84.1514 44.7777 48.5733 0.0000 0.0000 0.0000
# 2 44.7777 84.1514 48.5733 0.0000 0.0000 0.0000
# 3 48.5733 48.5733 93.0535 0.0000 0.0000 0.0000
# 4 0.0000 0.0000 0.0000 18.1892 0.0000 0.0000
# 5 0.0000 0.0000 0.0000 0.0000 18.1892 0.0000
# 6 0.0000 0.0000 0.0000 0.0000 0.0000 19.6869
#
#
#
# Elastic Compliance Matrix: (Units=1/GPa)
#
#
# Indices 1 2 3 4 5 6 
#
# 1 0.019091 -0.006307 -0.006673 0.000000 0.000000 0.000000
# 2 -0.006307 0.019091 -0.006673 0.000000 0.000000 0.000000
# 3 -0.006673 -0.006673 0.017714 0.000000 0.000000 0.000000
# 4 0.000000 0.000000 0.000000 0.054978 0.000000 0.000000
# 5 0.000000 0.000000 0.000000 0.000000 0.054978 0.000000
# 6 0.000000 0.000000 0.000000 0.000000 0.000000 0.050795
#
#
# Mechanical properties :
#
#
# Convention : Reuss Voigt Hill
#
# Bulk Modulus (GPa) = 60.28157 60.57831 60.42994
# Shear Modulus (GPa) = 19.12173 19.17521 19.14847
#
# Velocity S-wave (km/s) = 3.65091 3.65601 3.65346
# Velocity P-wave (km/s) = 7.73256 7.74913 7.74085
#
# Compressibility (1/GPa) = 0.01658882
#
# Stress axis : x y z
#
# Youngs Moduli (GPa) = 52.38045 52.38045 56.45411
#
# Poissons Ratio (x) = 0.33034 0.37674
# Poissons Ratio (y) = 0.33034 0.37674
# Poissons Ratio (z) = 0.34956 0.34956
#
# Static dielectric constant tensor:
#      x y z
#    x 2.725400 0.000000 0.000000 
#    y 0.000000 2.725400 0.000000 
#    z 0.000000 0.000000 2.954050 
# 
# 
# High freq. dielectric constant tensor:
#      x y z
#    x 1.516160 0.000000 0.000000 
#    y 0.000000 1.516160 0.000000 
#    z 0.000000 0.000000 1.563410 
# 
# From -- ./inp_files/3517.got.cif
#   From: 2010.03.12/outbox.cif.g09.slc.cpg/sg192_2_cif.got.tgz:3517.got - 2010.04.01 12:16:15.
