data_PCOD8329116
_publ_section_title
;
Structure prediction by ZEFSAII (Michael W. Deem and Ramdas Pophale) SiO2 
 PCOD8329116
Probable space group: P 6/M M M
;
_chemical_formula_sum "Si O2"
_cell_formula_units_Z 108
_cell_length_a 29.003366
_cell_length_b 29.003366
_cell_length_c 7.430342
_cell_angle_alpha 90.000000
_cell_angle_beta 90.000000
_cell_angle_gamma 120.000000
_cell_volume 5412.977746
_symmetry_space_group_name_H-M "P 6/M M M"
_symmetry_group_IT_number 191
_symmetry_cell_setting 'hexagonal'
loop_
_space_group_symop_operation_xyz
x,y,z
x-y,x,z
-y,x-y,z
-x,-y,z
-x+y,-x,z
y,-x+y,z
x-y,-y,-z
-x,-x+y,-z
y,x,-z
-y,-x,-z
-x+y,y,-z
x,x-y,-z
-x,-y,-z
-x+y,-x,-z
y,-x+y,-z
x,y,-z
x-y,x,-z
-y,x-y,-z
-x+y,y,z
x,x-y,z
-y,-x,z
y,x,z
x-y,-y,z
-x,-x+y,z
loop_
_atom_site_type_symbol
_atom_site_label
_atom_site_fract_x
_atom_site_fract_y
_atom_site_fract_z
Si Si1 0.059132 0.388001 0.713109
Si Si2 0.939049 0.166467 0.000000
Si Si3 0.493950 0.885580 0.714506
Si Si4 0.767436 0.434839 0.286579
Si Si5 0.894468 0.210134 0.707971
O O1 0.059546 0.392208 0.500000
O O2 0.078706 0.446759 0.794448
O O3 0.095902 0.363393 0.773482
O O4 0.000000 0.349149 0.786910
O O5 0.930113 0.192951 0.822959
O O6 0.897423 0.102578 0.000000
O O7 0.000000 0.178445 0.000000
O O8 0.494784 0.886453 0.500000
O O9 0.452349 0.904698 0.780433
O O10 0.474496 0.826279 0.787733
O O11 0.768372 0.439011 0.500000
O O12 0.725014 0.450028 0.205445
O O13 0.749669 0.374835 0.228062
O O14 0.911515 0.212371 0.500000
O O15 0.832022 0.167979 0.736705
#
# Coordination Sequence:
#
# PCOD8329116 Si02
#       5
#    24  12  24  24  24
#     4   9  16  25  38  56  80 113 151 189 231 281
#     4  10  20  34  54  79 107 139 171 203 241 285
#     4   8  14  22  30  45  71 103 143 190 236 283
#     4   8  12  17  25  37  55  82 118 161 210 264
#     4   9  18  32  50  74 103 132 164 205 251 297
#
# _framework density 19.95205
#
# number of rings (size 3 to 8) (size 9 to 14) (size 15 to 20)
#    0.000    3.333    0.000    2.222    0.000    3.556 
#    0.000    6.667    0.000    0.111    0.000    0.778 
#    0.000    2.667    0.000    5.778    0.000    0.000 
#
# Total GULP energy -1338083.637633 kJ/mol
# GULP energy per Si atom -12389.663311 kJ/mol
# Density = 1.990664 g / cm^3
# Si number density = 19.952050 Si / 1000 Ang^3
#
#
#
# Elastic Constant Matrix: (Units=GPa)
#
#
# Indices 1 2 3 4 5 6 
#
# 1 150.2029 92.2727 15.3653 0.0000 0.0000 0.0000
# 2 92.2727 150.2029 15.3653 0.0000 0.0000 0.0000
# 3 15.3653 15.3653 45.9408 0.0000 0.0000 0.0000
# 4 0.0000 0.0000 0.0000 -3.0191 0.0000 0.0000
# 5 0.0000 0.0000 0.0000 0.0000 -3.0191 0.0000
# 6 0.0000 0.0000 0.0000 0.0000 0.0000 28.9651
#
#
#
# Elastic Compliance Matrix: (Units=1/GPa)
#
#
# Indices 1 2 3 4 5 6 
#
# 1 0.010784 -0.006478 -0.001440 0.000000 0.000000 0.000000
# 2 -0.006478 0.010784 -0.001440 0.000000 0.000000 0.000000
# 3 -0.001440 -0.001440 0.022731 0.000000 0.000000 0.000000
# 4 0.000000 0.000000 0.000000 -0.331227 0.000000 0.000000
# 5 0.000000 0.000000 0.000000 0.000000 -0.331227 0.000000
# 6 0.000000 0.000000 0.000000 0.000000 0.000000 0.034524
#
#
# Mechanical properties :
#
#
# Convention : Reuss Voigt Hill
#
# Bulk Modulus (GPa) = 39.08938 65.81704 52.45321
# Shear Modulus (GPa) = -8.98658 19.47494 5.24418
#
# Velocity S-wave (km/s) = -2.12459 3.12763 1.62299
# Velocity P-wave (km/s) = 3.68995 6.78984 5.46432
#
# Compressibility (1/GPa) = 0.02558240
#
# Stress axis : x y z
#
# Youngs Moduli (GPa) = 92.72646 92.72646 43.99339
#
# Poissons Ratio (x) = 0.60066 0.06337
# Poissons Ratio (y) = 0.60066 0.06337
# Poissons Ratio (z) = 0.13356 0.13356
#
# Static dielectric constant tensor:
#      x y z
#    x 3.788290 0.000000 0.000000 
#    y 0.000000 3.788290 0.000000 
#    z 0.000000 0.000000 3.239120 
# 
# 
# High freq. dielectric constant tensor:
#      x y z
#    x 1.766040 0.000000 0.000000 
#    y 0.000000 1.766040 0.000000 
#    z 0.000000 0.000000 1.752160 
# 
# From -- ./inp_files/1745.got.cif
#   From: 2010.03.12/outbox.cif.g09.slc.cpg/sg191_1_cif.got.tgz:1745.got - 2010.04.01 12:09:02.
