data_PCOD8329255
_publ_section_title
;
Structure prediction by ZEFSAII (Michael W. Deem and Ramdas Pophale) SiO2 
 PCOD8329255
Probable space group: P 6/M M M
;
_chemical_formula_sum "Si O2"
_cell_formula_units_Z 108
_cell_length_a 25.371752
_cell_length_b 25.371752
_cell_length_c 12.190084
_cell_angle_alpha 90.000000
_cell_angle_beta 90.000000
_cell_angle_gamma 120.000000
_cell_volume 6795.763324
_symmetry_space_group_name_H-M "P 6/M M M"
_symmetry_group_IT_number 191
_symmetry_cell_setting 'hexagonal'
loop_
_space_group_symop_operation_xyz
x,y,z
x-y,x,z
-y,x-y,z
-x,-y,z
-x+y,-x,z
y,-x+y,z
x-y,-y,-z
-x,-x+y,-z
y,x,-z
-y,-x,-z
-x+y,y,-z
x,x-y,-z
-x,-y,-z
-x+y,-x,-z
y,-x+y,-z
x,y,-z
x-y,x,-z
-y,x-y,-z
-x+y,y,z
x,x-y,z
-y,-x,z
y,x,z
x-y,-y,z
-x,-x+y,z
loop_
_atom_site_type_symbol
_atom_site_label
_atom_site_fract_x
_atom_site_fract_y
_atom_site_fract_z
Si Si1 0.927742 0.463871 0.878330
Si Si2 0.117334 0.000000 0.130047
Si Si3 0.440436 0.073511 0.266779
Si Si4 0.377710 0.934164 0.500000
Si Si5 0.341848 0.231086 0.261383
Si Si6 0.000000 0.762005 0.130842
Si Si7 0.319521 0.066820 0.500000
O O1 0.904891 0.505778 0.820847
O O2 0.000000 0.500000 0.878142
O O3 0.900569 0.450285 0.000000
O O4 0.177472 0.000000 0.165988
O O5 0.059438 0.940563 0.179849
O O6 0.112384 0.000000 0.000000
O O7 0.475060 0.097461 0.385131
O O8 0.403226 0.107887 0.242673
O O9 0.394518 0.000000 0.268628
O O10 0.318747 0.941206 0.500000
O O11 0.438192 0.000000 0.500000
O O12 0.353886 0.176943 0.224922
O O13 0.292949 0.232585 0.181347
O O14 0.319818 0.218843 0.388352
O O15 0.000000 0.753333 0.000000
O O16 0.259482 0.000000 0.500000
#
# Coordination Sequence:
#
# PCOD8329255 Si02
#       7
#    12  12  24  12  24  12  12
#     4   9  18  29  45  65  89 124 159 187 225 275
#     4   9  17  30  46  61  78 104 145 196 246 297
#     4   9  16  30  45  67  94 122 155 192 234 282
#     4   7  12  22  43  63  88 117 146 183 225 270
#     4  11  20  32  51  73  98 130 165 206 254 304
#     4  11  22  34  45  63  95 129 161 198 249 310
#     4   9  15  31  50  69  94 126 164 205 250 295
#
# _framework density 15.892255
#
# number of rings (size 3 to 8) (size 9 to 14) (size 15 to 20)
#    0.000    2.556    2.222    2.444    0.000    3.111 
#    0.000    2.222    0.000    0.000    0.000    0.000 
#    1.111    0.000    0.000    4.778    9.111    2.111 
#
# Total GULP energy -1338058.873870 kJ/mol
# GULP energy per Si atom -12389.434017 kJ/mol
# Density = 1.585608 g / cm^3
# Si number density = 15.892255 Si / 1000 Ang^3
#
#
#
# Elastic Constant Matrix: (Units=GPa)
#
#
# Indices 1 2 3 4 5 6 
#
# 1 80.6367 52.5180 49.4130 0.0000 0.0000 0.0000
# 2 52.5180 80.6367 49.4130 0.0000 0.0000 0.0000
# 3 49.4130 49.4130 119.4430 0.0000 0.0000 0.0000
# 4 0.0000 0.0000 0.0000 13.4747 0.0000 0.0000
# 5 0.0000 0.0000 0.0000 0.0000 13.4747 0.0000
# 6 0.0000 0.0000 0.0000 0.0000 0.0000 14.0594
#
#
#
# Elastic Compliance Matrix: (Units=1/GPa)
#
#
# Indices 1 2 3 4 5 6 
#
# 1 0.023201 -0.012363 -0.004483 0.000000 0.000000 0.000000
# 2 -0.012363 0.023201 -0.004483 0.000000 0.000000 0.000000
# 3 -0.004483 -0.004483 0.012082 0.000000 0.000000 0.000000
# 4 0.000000 0.000000 0.000000 0.074213 0.000000 0.000000
# 5 0.000000 0.000000 0.000000 0.000000 0.074213 0.000000
# 6 0.000000 0.000000 0.000000 0.000000 0.000000 0.071127
#
#
# Mechanical properties :
#
#
# Convention : Reuss Voigt Hill
#
# Bulk Modulus (GPa) = 63.19853 64.82272 64.01062
# Shear Modulus (GPa) = 15.33883 16.82659 16.08271
#
# Velocity S-wave (km/s) = 3.11010 3.25744 3.18462
# Velocity P-wave (km/s) = 7.26293 7.41790 7.34083
#
# Compressibility (1/GPa) = 0.01582315
#
# Stress axis : x y z
#
# Youngs Moduli (GPa) = 43.10235 43.10235 82.76911
#
# Poissons Ratio (x) = 0.53287 0.37109
# Poissons Ratio (y) = 0.53287 0.37109
# Poissons Ratio (z) = 0.19325 0.19325
#
# Static dielectric constant tensor:
#      x y z
#    x 2.813490 0.000000 0.000000 
#    y 0.000000 2.813490 0.000000 
#    z 0.000000 0.000000 3.291900 
# 
# 
# High freq. dielectric constant tensor:
#      x y z
#    x 1.581790 0.000000 0.000000 
#    y 0.000000 1.581790 0.000000 
#    z 0.000000 0.000000 1.615980 
# 
# From -- ./inp_files/3190.got.cif
#   From: 2010.03.12/outbox.cif.g09.slc.cpg/sg191_2_cif.got.tgz:3190.got - 2010.04.01 12:09:02.
