data_PCOD8329990
_publ_section_title
;
Structure prediction by ZEFSAII (Michael W. Deem and Ramdas Pophale) SiO2 
 PCOD8329990
Probable space group: P 63/M C M
;
_chemical_formula_sum "Si O2"
_cell_formula_units_Z 92
_cell_length_a 17.310286
_cell_length_b 17.310286
_cell_length_c 22.276992
_cell_angle_alpha 90.000000
_cell_angle_beta 90.000000
_cell_angle_gamma 120.000000
_cell_volume 5780.902801
_symmetry_space_group_name_H-M "P 63/M C M"
_symmetry_group_IT_number 193
_symmetry_cell_setting 'hexagonal'
loop_
_space_group_symop_operation_xyz
x,y,z
x-y,x,1/2+z
-y,x-y,z
-x,-y,1/2+z
-x+y,-x,z
y,-x+y,1/2+z
x-y,-y,1/2-z
-x,-x+y,1/2-z
y,x,1/2-z
-y,-x,-z
-x+y,y,-z
x,x-y,-z
-x,-y,-z
-x+y,-x,1/2-z
y,-x+y,-z
x,y,1/2-z
x-y,x,-z
-y,x-y,1/2-z
-x+y,y,1/2+z
x,x-y,1/2+z
-y,-x,1/2+z
y,x,z
x-y,-y,z
-x,-x+y,z
loop_
_atom_site_type_symbol
_atom_site_label
_atom_site_fract_x
_atom_site_fract_y
_atom_site_fract_z
Si Si1 0.276219 0.551290 0.250000
Si Si2 0.615189 0.098025 0.958775
Si Si3 0.516994 0.761696 0.621492
Si Si4 0.333334 0.666668 0.070433
Si Si5 0.763620 0.663848 0.958976
O O1 0.384310 0.616704 0.250000
O O2 0.243739 0.485141 0.306708
O O3 0.662954 0.152792 0.899484
O O4 0.537539 0.000000 0.938357
O O5 0.572153 0.144305 0.000000
O O6 0.686882 0.091457 0.998759
O O7 0.426816 0.677757 0.594902
O O8 0.608449 0.767373 0.598616
O O9 0.333334 0.666667 0.000000
O O10 0.740838 0.740838 0.938573
O O11 0.853547 0.707094 0.000000
#
# Coordination Sequence:
#
# PCOD8329990 Si02
#       5
#    12  24  24   8  24
#     4  10  20  32  42  58  89 130 171 204 228 264
#     4   9  17  27  43  68  93 113 146 202 250 286
#     4  11  18  30  45  62  87 123 164 196 232 284
#     4  12  18  25  44  64  81 114 163 209 241 267
#     4   9  18  31  49  72  95 118 148 193 251 301
#
# _framework density 15.914469
#
# number of rings (size 3 to 8) (size 9 to 14) (size 15 to 20)
#    0.261    1.826    2.609    4.696    0.000    0.000 
#    0.000    1.304    0.000    1.826    0.000    0.000 
#    0.000    0.000    0.000    0.000    0.000    3.130 
#
# Total GULP energy -1139735.250454 kJ/mol
# GULP energy per Si atom -12388.426635 kJ/mol
# Density = 1.587825 g / cm^3
# Si number density = 15.914469 Si / 1000 Ang^3
#
#
#
# Elastic Constant Matrix: (Units=GPa)
#
#
# Indices 1 2 3 4 5 6 
#
# 1 72.0573 37.6401 38.5534 -0.0001 0.0001 0.0000
# 2 37.6401 72.0572 38.5536 0.0002 -0.0001 0.0000
# 3 38.5534 38.5536 136.7884 0.0000 0.0002 0.0000
# 4 -0.0001 0.0002 0.0000 9.1844 0.0003 0.0001
# 5 0.0001 -0.0001 0.0002 0.0003 9.1843 0.0001
# 6 0.0000 0.0000 0.0000 0.0001 0.0001 17.2084
#
#
#
# Elastic Compliance Matrix: (Units=1/GPa)
#
#
# Indices 1 2 3 4 5 6 
#
# 1 0.020212 -0.008844 -0.003204 0.000000 0.000000 0.000000
# 2 -0.008844 0.020212 -0.003204 0.000000 0.000000 0.000000
# 3 -0.003204 -0.003204 0.009117 0.000000 0.000000 0.000000
# 4 0.000000 0.000000 0.000000 0.108880 -0.000004 0.000000
# 5 0.000000 0.000000 0.000000 -0.000004 0.108881 -0.000001
# 6 0.000000 0.000000 0.000000 0.000000 -0.000001 0.058111
#
#
# Mechanical properties :
#
#
# Convention : Reuss Voigt Hill
#
# Bulk Modulus (GPa) = 52.53022 56.71080 54.62051
# Shear Modulus (GPa) = 13.80218 18.19247 15.99733
#
# Velocity S-wave (km/s) = 2.94814 3.38470 3.17394
# Velocity P-wave (km/s) = 6.68343 7.14052 6.91575
#
# Compressibility (1/GPa) = 0.01903666
#
# Stress axis : x y z
#
# Youngs Moduli (GPa) = 49.47627 49.47612 109.68885
#
# Poissons Ratio (x) = 0.43755 0.35145
# Poissons Ratio (y) = 0.43755 0.35146
# Poissons Ratio (z) = 0.15853 0.15853
#
# Static dielectric constant tensor:
#      x y z
#    x 3.470220 0.000000 0.000000 
#    y 0.000000 3.470220 0.000000 
#    z 0.000000 0.000000 2.812230 
# 
# 
# High freq. dielectric constant tensor:
#      x y z
#    x 1.590910 0.000000 0.000000 
#    y 0.000000 1.590910 0.000000 
#    z 0.000000 0.000000 1.589530 
# 
# From -- ./inp_files/6192.got.cif
#   From: 2010.03.12/outbox.cif.g09.slc.cpg/sg193_4_cif.got.tgz:6192.got - 2010.04.01 12:20:39.
