data_PCOD8329124
_publ_section_title
;
Structure prediction by ZEFSAII (Michael W. Deem and Ramdas Pophale) SiO2 
 PCOD8329124
Probable space group: P 6/M M M
;
_chemical_formula_sum "Si O2"
_cell_formula_units_Z 156
_cell_length_a 21.116397
_cell_length_b 21.116397
_cell_length_c 24.014305
_cell_angle_alpha 90.000000
_cell_angle_beta 90.000000
_cell_angle_gamma 120.000000
_cell_volume 9273.427707
_symmetry_space_group_name_H-M "P 6/M M M"
_symmetry_group_IT_number 191
_symmetry_cell_setting 'hexagonal'
loop_
_space_group_symop_operation_xyz
x,y,z
x-y,x,z
-y,x-y,z
-x,-y,z
-x+y,-x,z
y,-x+y,z
x-y,-y,-z
-x,-x+y,-z
y,x,-z
-y,-x,-z
-x+y,y,-z
x,x-y,-z
-x,-y,-z
-x+y,-x,-z
y,-x+y,-z
x,y,-z
x-y,x,-z
-y,x-y,-z
-x+y,y,z
x,x-y,z
-y,-x,z
y,x,z
x-y,-y,z
-x,-x+y,z
loop_
_atom_site_type_symbol
_atom_site_label
_atom_site_fract_x
_atom_site_fract_y
_atom_site_fract_z
Si Si1 0.465844 0.305731 0.373617
Si Si2 0.650127 0.566306 0.840679
Si Si3 0.475020 0.665430 0.747557
Si Si4 0.920285 0.219610 0.211537
Si Si5 0.457939 0.915878 0.565803
Si Si6 0.223373 0.917250 0.660776
Si Si7 0.812150 0.332977 0.064086
O O1 0.487116 0.243558 0.389483
O O2 0.492942 0.336015 0.312211
O O3 0.501730 0.373481 0.415537
O O4 0.378265 0.270517 0.376068
O O5 0.585444 0.585444 0.839989
O O6 0.634139 0.507696 0.792804
O O7 0.728167 0.637655 0.830460
O O8 0.651774 0.534430 0.900733
O O9 0.493472 0.746736 0.764191
O O10 0.387844 0.612157 0.745945
O O11 0.863503 0.136498 0.196365
O O12 0.910119 0.240077 0.274506
O O13 0.000000 0.228574 0.204450
O O14 0.458598 0.917196 0.500000
O O15 0.500000 0.000000 0.588727
O O16 0.136752 0.863249 0.649013
O O17 0.245095 0.000000 0.644977
O O18 0.792647 0.396324 0.073930
O O19 0.742201 0.257800 0.083847
O O20 0.831287 0.329070 0.000000
#
# Coordination Sequence:
#
# PCOD8329124 Si02
#       7
#    24  24  24  24  12  24  24
#     4  10  20  35  54  76 100 131 172 219 263 309
#     4  11  22  33  48  72 100 129 162 198 247 304
#     4  11  21  34  51  73  99 128 158 206 258 306
#     4   9  16  27  44  67  95 124 155 193 236 287
#     4  11  24  40  56  76 104 140 179 219 267 321
#     4   9  16  28  48  73 100 130 164 203 250 298
#     4  10  21  37  55  71  91 124 166 209 249 295
#
# _framework density 16.822258999999999
#
# number of rings (size 3 to 8) (size 9 to 14) (size 15 to 20)
#    0.000    1.923    2.308    2.615    0.000    3.077 
#    0.462    2.308    0.000    0.308    0.000    2.154 
#    0.000    0.000    0.000    0.000    0.000    0.000 
#
# Total GULP energy -1934350.915211 kJ/mol
# GULP energy per Si atom -12399.685354 kJ/mol
# Density = 1.678397 g / cm^3
# Si number density = 16.822259 Si / 1000 Ang^3
#
#
#
# Elastic Constant Matrix: (Units=GPa)
#
#
# Indices 1 2 3 4 5 6 
#
# 1 106.2690 56.8645 37.9270 0.0000 0.0000 0.0000
# 2 56.8645 106.2690 37.9270 0.0000 0.0000 0.0000
# 3 37.9270 37.9270 60.0518 0.0000 0.0000 0.0000
# 4 0.0000 0.0000 0.0000 21.5476 0.0000 0.0000
# 5 0.0000 0.0000 0.0000 0.0000 21.5476 0.0000
# 6 0.0000 0.0000 0.0000 0.0000 0.0000 24.7022
#
#
#
# Elastic Compliance Matrix: (Units=1/GPa)
#
#
# Indices 1 2 3 4 5 6 
#
# 1 0.014460 -0.005781 -0.005481 0.000000 0.000000 0.000000
# 2 -0.005781 0.014460 -0.005481 0.000000 0.000000 0.000000
# 3 -0.005481 -0.005481 0.023576 0.000000 0.000000 0.000000
# 4 0.000000 0.000000 0.000000 0.046409 0.000000 0.000000
# 5 0.000000 0.000000 0.000000 0.000000 0.046409 0.000000
# 6 0.000000 0.000000 0.000000 0.000000 0.000000 0.040482
#
#
# Mechanical properties :
#
#
# Convention : Reuss Voigt Hill
#
# Bulk Modulus (GPa) = 52.60844 59.78074 56.19459
# Shear Modulus (GPa) = 22.16131 22.88425 22.52278
#
# Velocity S-wave (km/s) = 3.63351 3.69230 3.66302
# Velocity P-wave (km/s) = 6.99601 7.33425 7.16713
#
# Compressibility (1/GPa) = 0.01900836
#
# Stress axis : x y z
#
# Youngs Moduli (GPa) = 69.15709 69.15709 42.41645
#
# Poissons Ratio (x) = 0.39982 0.23249
# Poissons Ratio (y) = 0.39982 0.23249
# Poissons Ratio (z) = 0.37906 0.37906
#
# Static dielectric constant tensor:
#      x y z
#    x 3.201460 0.000000 0.000000 
#    y 0.000000 3.201460 0.000000 
#    z 0.000000 0.000000 2.939180 
# 
# 
# High freq. dielectric constant tensor:
#      x y z
#    x 1.647550 0.000000 0.000000 
#    y 0.000000 1.647550 0.000000 
#    z 0.000000 0.000000 1.623700 
# 
# From -- ./inp_files/7755.got.cif
#   From: 2010.03.12/outbox.cif.g09.slc.cpg/sg191_4_cif.got.tgz:7755.got - 2010.04.01 12:09:02.
