data_PCOD8329186
_publ_section_title
;
Structure prediction by ZEFSAII (Michael W. Deem and Ramdas Pophale) SiO2 
 PCOD8329186
Probable space group: P 6/M M M
;
_chemical_formula_sum "Si O2"
_cell_formula_units_Z 168
_cell_length_a 18.319870
_cell_length_b 18.319870
_cell_length_c 34.644318
_cell_angle_alpha 90.000000
_cell_angle_beta 90.000000
_cell_angle_gamma 120.000000
_cell_volume 10069.488798
_symmetry_space_group_name_H-M "P 6/M M M"
_symmetry_group_IT_number 191
_symmetry_cell_setting 'hexagonal'
loop_
_space_group_symop_operation_xyz
x,y,z
x-y,x,z
-y,x-y,z
-x,-y,z
-x+y,-x,z
y,-x+y,z
x-y,-y,-z
-x,-x+y,-z
y,x,-z
-y,-x,-z
-x+y,y,-z
x,x-y,-z
-x,-y,-z
-x+y,-x,-z
y,-x+y,-z
x,y,-z
x-y,x,-z
-y,x-y,-z
-x+y,y,z
x,x-y,z
-y,-x,z
y,x,z
x-y,-y,z
-x,-x+y,z
loop_
_atom_site_type_symbol
_atom_site_label
_atom_site_fract_x
_atom_site_fract_y
_atom_site_fract_z
Si Si1 0.500728 0.834457 0.258123
Si Si2 0.666673 0.500369 0.044369
Si Si3 0.255944 0.907004 0.312792
Si Si4 0.095963 0.360998 0.106793
Si Si5 0.166047 0.666831 0.169616
Si Si6 0.165315 0.498788 0.544100
Si Si7 0.743927 0.650838 0.400706
O O1 0.420964 0.841927 0.270368
O O2 0.477665 0.738833 0.265110
O O3 0.576942 0.897434 0.285140
O O4 0.526111 0.861380 0.213821
O O5 0.735953 0.471906 0.050840
O O6 0.576853 0.423148 0.057626
O O7 0.690305 0.582883 0.069182
O O8 0.663713 0.523947 0.000000
O O9 0.159589 0.840412 0.301633
O O10 0.275606 0.893341 0.356731
O O11 0.268971 0.000000 0.307058
O O12 0.164298 0.328596 0.106820
O O13 0.107641 0.417511 0.144264
O O14 0.000000 0.281722 0.106852
O O15 0.153632 0.576816 0.156871
O O16 0.264013 0.735988 0.163503
O O17 0.137564 0.471165 0.500000
O O18 0.261321 0.522642 0.550803
O O19 0.157667 0.578834 0.555524
O O20 0.103091 0.423667 0.571797
O O21 0.840313 0.680626 0.411861
O O22 0.730606 0.730606 0.406553
#
# Coordination Sequence:
#
# PCOD8329186 Si02
#       7
#    24  24  24  24  24  24  24
#     4   9  17  29  45  66  93 125 158 187 213 244
#     4   9  17  29  46  69  98 131 162 187 211 246
#     4   9  18  32  48  65  86 113 145 181 223 269
#     4  10  21  35  49  66  89 117 149 187 232 277
#     4   9  17  29  46  68  95 126 156 183 211 248
#     4   9  17  29  45  65  90 120 152 183 213 246
#     4   9  18  32  48  65  86 113 144 179 221 268
#
# _framework density 16.684065
#
# number of rings (size 3 to 8) (size 9 to 14) (size 15 to 20)
#    0.000    2.857    0.000    1.000    0.000    5.714 
#    0.000    5.714    0.000    2.143    0.000    2.000 
#    0.000    0.000    0.000   14.286    0.000    7.429 
#
# Total GULP energy -2082877.737419 kJ/mol
# GULP energy per Si atom -12398.081770 kJ/mol
# Density = 1.664609 g / cm^3
# Si number density = 16.684065 Si / 1000 Ang^3
#
#
#
# Elastic Constant Matrix: (Units=GPa)
#
#
# Indices 1 2 3 4 5 6 
#
# 1 92.3876 63.7926 43.2249 0.0000 0.0000 0.0000
# 2 63.7926 92.3876 43.2249 0.0000 0.0000 0.0000
# 3 43.2249 43.2249 70.8663 0.0000 0.0000 0.0000
# 4 0.0000 0.0000 0.0000 20.0696 0.0000 0.0000
# 5 0.0000 0.0000 0.0000 0.0000 20.0696 0.0000
# 6 0.0000 0.0000 0.0000 0.0000 0.0000 14.2975
#
#
#
# Elastic Compliance Matrix: (Units=1/GPa)
#
#
# Indices 1 2 3 4 5 6 
#
# 1 0.022319 -0.012652 -0.005896 0.000000 0.000000 0.000000
# 2 -0.012652 0.022319 -0.005896 0.000000 0.000000 0.000000
# 3 -0.005896 -0.005896 0.021304 0.000000 0.000000 0.000000
# 4 0.000000 0.000000 0.000000 0.049827 0.000000 0.000000
# 5 0.000000 0.000000 0.000000 0.000000 0.049827 0.000000
# 6 0.000000 0.000000 0.000000 0.000000 0.000000 0.069942
#
#
# Mechanical properties :
#
#
# Convention : Reuss Voigt Hill
#
# Bulk Modulus (GPa) = 58.64286 61.79182 60.21734
# Shear Modulus (GPa) = 17.23483 17.91392 17.57437
#
# Velocity S-wave (km/s) = 3.21754 3.28031 3.24908
# Velocity P-wave (km/s) = 7.00205 7.17385 7.08847
#
# Compressibility (1/GPa) = 0.01705238
#
# Stress axis : x y z
#
# Youngs Moduli (GPa) = 44.80521 44.80521 46.94015
#
# Poissons Ratio (x) = 0.56689 0.27676
# Poissons Ratio (y) = 0.56689 0.27676
# Poissons Ratio (z) = 0.26418 0.26418
#
# Static dielectric constant tensor:
#      x y z
#    x 3.012930 0.000000 0.000000 
#    y 0.000000 3.012930 0.000000 
#    z 0.000000 0.000000 3.322820 
# 
# 
# High freq. dielectric constant tensor:
#      x y z
#    x 1.622730 0.000000 0.000000 
#    y 0.000000 1.622730 0.000000 
#    z 0.000000 0.000000 1.654070 
# 
# From -- ./inp_files/10756.got.cif
#   From: 2010.03.12/outbox.cif.g09.slc.cpg/sg191_6_cif.got.tgz:10756.got - 2010.04.01 12:09:02.
