data_PCOD8329433
_publ_section_title
;
Structure prediction by ZEFSAII (Michael W. Deem and Ramdas Pophale) SiO2 
 PCOD8329433
Probable space group: P 6/M C C
;
_chemical_formula_sum "Si O2"
_cell_formula_units_Z 120
_cell_length_a 16.886007
_cell_length_b 16.886007
_cell_length_c 31.235080
_cell_angle_alpha 90.000000
_cell_angle_beta 90.000000
_cell_angle_gamma 120.000000
_cell_volume 7713.068427
_symmetry_space_group_name_H-M "P 6/M C C"
_symmetry_group_IT_number 192
_symmetry_cell_setting 'hexagonal'
loop_
_space_group_symop_operation_xyz
x,y,z
x-y,x,z
-y,x-y,z
-x,-y,z
-x+y,-x,z
y,-x+y,z
x-y,-y,1/2-z
-x,-x+y,1/2-z
y,x,1/2-z
-y,-x,1/2-z
-x+y,y,1/2-z
x,x-y,1/2-z
-x,-y,-z
-x+y,-x,-z
y,-x+y,-z
x,y,-z
x-y,x,-z
-y,x-y,-z
-x+y,y,1/2+z
x,x-y,1/2+z
-y,-x,1/2+z
y,x,1/2+z
x-y,-y,1/2+z
-x,-x+y,1/2+z
loop_
_atom_site_type_symbol
_atom_site_label
_atom_site_fract_x
_atom_site_fract_y
_atom_site_fract_z
Si Si1 0.995948 0.810208 0.842855
Si Si2 0.016321 0.821684 0.500000
Si Si3 0.000974 0.699131 0.420984
Si Si4 0.161883 0.682618 0.950394
Si Si5 0.855915 0.350275 0.549787
Si Si6 0.816748 0.000000 0.250000
O O1 0.991385 0.735776 0.875466
O O2 0.908375 0.822550 0.850006
O O3 0.997725 0.768726 0.795411
O O4 0.923961 0.824753 0.500000
O O5 0.025135 0.772883 0.458048
O O6 0.898654 0.614240 0.424878
O O7 0.071698 0.661914 0.422318
O O8 0.141231 0.583538 0.934693
O O9 0.267644 0.754031 0.942185
O O10 0.136073 0.678862 0.000000
O O11 0.883097 0.356685 0.500000
O O12 0.916225 0.083776 0.250000
#
# Coordination Sequence:
#
# PCOD8329433 Si02
#       6
#    24  12  24  24  24  12
#     4  10  19  31  47  67  91 121 155 193 232 274
#     4  12  23  34  43  58  88 128 162 184 207 256
#     4  12  21  31  47  66  94 123 153 187 226 273
#     4  10  19  32  48  67  90 120 157 196 233 269
#     4  10  19  32  48  67  90 120 157 196 233 269
#     4   8  15  28  46  66  87 112 148 192 238 276
#
# _framework density 15.558011
#
# number of rings (size 3 to 8) (size 9 to 14) (size 15 to 20)
#    0.000    1.600    2.000    5.000    0.000    4.800 
#    0.000    2.000    0.000    0.000    0.000    2.800 
#    0.000    0.000    0.000    4.000    0.000    0.000 
#
# Total GULP energy -1487721.578361 kJ/mol
# GULP energy per Si atom -12397.679820 kJ/mol
# Density = 1.552260 g / cm^3
# Si number density = 15.558011 Si / 1000 Ang^3
#
#
#
# Elastic Constant Matrix: (Units=GPa)
#
#
# Indices 1 2 3 4 5 6 
#
# 1 65.4143 4.7404 26.5894 0.0000 0.0000 0.0000
# 2 4.7404 65.4143 26.5894 0.0000 0.0000 0.0000
# 3 26.5894 26.5894 98.8915 0.0000 0.0000 0.0000
# 4 0.0000 0.0000 0.0000 16.4743 0.0000 0.0000
# 5 0.0000 0.0000 0.0000 0.0000 16.4743 0.0000
# 6 0.0000 0.0000 0.0000 0.0000 0.0000 30.3370
#
#
#
# Elastic Compliance Matrix: (Units=1/GPa)
#
#
# Indices 1 2 3 4 5 6 
#
# 1 0.017192 0.000711 -0.004814 0.000000 0.000000 0.000000
# 2 0.000711 0.017192 -0.004814 0.000000 0.000000 0.000000
# 3 -0.004814 -0.004814 0.012701 0.000000 0.000000 0.000000
# 4 0.000000 0.000000 0.000000 0.060701 0.000000 0.000000
# 5 0.000000 0.000000 0.000000 0.000000 0.060701 0.000000
# 6 0.000000 0.000000 0.000000 0.000000 0.000000 0.032963
#
#
# Mechanical properties :
#
#
# Convention : Reuss Voigt Hill
#
# Bulk Modulus (GPa) = 34.18560 38.39540 36.29050
# Shear Modulus (GPa) = 21.83086 24.11051 22.97069
#
# Velocity S-wave (km/s) = 3.74998 3.94091 3.84663
# Velocity P-wave (km/s) = 6.38518 6.74093 6.56547
#
# Compressibility (1/GPa) = 0.02925208
#
# Stress axis : x y z
#
# Youngs Moduli (GPa) = 58.16554 58.16554 78.73612
#
# Poissons Ratio (x) = -0.04134 0.37901
# Poissons Ratio (y) = -0.04134 0.37901
# Poissons Ratio (z) = 0.27999 0.27999
#
# Static dielectric constant tensor:
#      x y z
#    x 3.014980 0.000000 0.000000 
#    y 0.000000 3.014980 0.000000 
#    z 0.000000 0.000000 3.084070 
# 
# 
# High freq. dielectric constant tensor:
#      x y z
#    x 1.600500 0.000000 0.000000 
#    y 0.000000 1.600500 0.000000 
#    z 0.000000 0.000000 1.563460 
# 
# From -- ./inp_files/6469.got.cif
#   From: 2010.03.12/outbox.cif.g09.slc.cpg/sg192_4_cif.got.tgz:6469.got - 2010.04.01 12:16:15.
