data_PCOD8329204
_publ_section_title
;
Structure prediction by ZEFSAII (Michael W. Deem and Ramdas Pophale) SiO2 
 PCOD8329204
Probable space group: P 6/M M M
;
_chemical_formula_sum "Si O2"
_cell_formula_units_Z 72
_cell_length_a 22.574812
_cell_length_b 22.574812
_cell_length_c 8.959160
_cell_angle_alpha 90.000000
_cell_angle_beta 90.000000
_cell_angle_gamma 120.000000
_cell_volume 3954.086892
_symmetry_space_group_name_H-M "P 6/M M M"
_symmetry_group_IT_number 191
_symmetry_cell_setting 'hexagonal'
loop_
_space_group_symop_operation_xyz
x,y,z
x-y,x,z
-y,x-y,z
-x,-y,z
-x+y,-x,z
y,-x+y,z
x-y,-y,-z
-x,-x+y,-z
y,x,-z
-y,-x,-z
-x+y,y,-z
x,x-y,-z
-x,-y,-z
-x+y,-x,-z
y,-x+y,-z
x,y,-z
x-y,x,-z
-y,x-y,-z
-x+y,y,z
x,x-y,z
-y,-x,z
y,x,z
x-y,-y,z
-x,-x+y,z
loop_
_atom_site_type_symbol
_atom_site_label
_atom_site_fract_x
_atom_site_fract_y
_atom_site_fract_z
Si Si1 0.469172 0.802772 0.173525
Si Si2 0.873332 0.265901 0.328477
Si Si3 0.865953 0.000000 0.822204
Si Si4 0.000000 0.731554 0.176874
O O1 0.404698 0.809395 0.223907
O O2 0.451715 0.725858 0.208093
O O3 0.533745 0.857165 0.268590
O O4 0.486153 0.820201 0.000000
O O5 0.895623 0.281523 0.500000
O O6 0.808198 0.191803 0.305588
O O7 0.933559 0.268592 0.233076
O O8 0.865770 0.932885 0.760144
O O9 0.798817 0.000000 0.761799
O O10 0.866765 0.000000 0.000000
O O11 0.000000 0.731152 0.000000
#
# Coordination Sequence:
#
# PCOD8329204 Si02
#       4
#    24  24  12  12
#     4   9  17  31  53  80 108 137 170 210 257 309
#     4  10  21  36  53  75 105 139 174 214 260 310
#     4   9  17  29  48  76 107 134 161 200 252 305
#     4  11  21  34  54  77 102 136 179 221 258 303
#
# _framework density 18.209008000000001
#
# number of rings (size 3 to 8) (size 9 to 14) (size 15 to 20)
#    0.000    2.333    0.000    3.000    0.000    6.000 
#    0.000    0.833    0.000    7.000    0.000    0.000 
#    0.000    8.000    0.000    0.000    0.000    0.000 
#
# Total GULP energy -893008.471929 kJ/mol
# GULP energy per Si atom -12402.895443 kJ/mol
# Density = 1.816756 g / cm^3
# Si number density = 18.209008 Si / 1000 Ang^3
#
#
#
# Elastic Constant Matrix: (Units=GPa)
#
#
# Indices 1 2 3 4 5 6 
#
# 1 124.9562 85.1322 48.3854 0.0000 0.0000 0.0000
# 2 85.1322 124.9562 48.3854 0.0000 0.0000 0.0000
# 3 48.3854 48.3854 70.7691 0.0000 0.0000 0.0000
# 4 0.0000 0.0000 0.0000 21.3436 0.0000 0.0000
# 5 0.0000 0.0000 0.0000 0.0000 21.3436 0.0000
# 6 0.0000 0.0000 0.0000 0.0000 0.0000 19.9120
#
#
#
# Elastic Compliance Matrix: (Units=1/GPa)
#
#
# Indices 1 2 3 4 5 6 
#
# 1 0.016029 -0.009081 -0.004750 0.000000 0.000000 0.000000
# 2 -0.009081 0.016029 -0.004750 0.000000 0.000000 0.000000
# 3 -0.004750 -0.004750 0.020626 0.000000 0.000000 0.000000
# 4 0.000000 0.000000 0.000000 0.046852 0.000000 0.000000
# 5 0.000000 0.000000 0.000000 0.000000 0.046852 0.000000
# 6 0.000000 0.000000 0.000000 0.000000 0.000000 0.050221
#
#
# Mechanical properties :
#
#
# Convention : Reuss Voigt Hill
#
# Bulk Modulus (GPa) = 64.43035 76.05415 70.24225
# Shear Modulus (GPa) = 20.92503 21.77175 21.34839
#
# Velocity S-wave (km/s) = 3.39360 3.46158 3.42776
# Velocity P-wave (km/s) = 7.12853 7.60491 7.37057
#
# Compressibility (1/GPa) = 0.01552064
#
# Stress axis : x y z
#
# Youngs Moduli (GPa) = 62.38597 62.38597 48.48187
#
# Poissons Ratio (x) = 0.56654 0.23031
# Poissons Ratio (y) = 0.56654 0.23031
# Poissons Ratio (z) = 0.29636 0.29636
#
# Static dielectric constant tensor:
#      x y z
#    x 3.424080 0.000000 0.000000 
#    y 0.000000 3.424080 0.000000 
#    z 0.000000 0.000000 3.236890 
# 
# 
# High freq. dielectric constant tensor:
#      x y z
#    x 1.708760 0.000000 0.000000 
#    y 0.000000 1.708760 0.000000 
#    z 0.000000 0.000000 1.692800 
# 
# From -- ./inp_files/922.got.cif
#   From: 2010.03.12/outbox.cif.g09.slc.cpg/sg191_1_cif.got.tgz:922.got - 2010.04.01 12:09:02.
