data_PCOD8329934
_publ_section_title
;
Structure prediction by ZEFSAII (Michael W. Deem and Ramdas Pophale) SiO2 
 PCOD8329934
Probable space group: P 63/M C M
;
_chemical_formula_sum "Si O2"
_cell_formula_units_Z 132
_cell_length_a 24.875878
_cell_length_b 24.875878
_cell_length_c 13.797482
_cell_angle_alpha 90.000000
_cell_angle_beta 90.000000
_cell_angle_gamma 120.000000
_cell_volume 7394.133787
_symmetry_space_group_name_H-M "P 63/M C M"
_symmetry_group_IT_number 193
_symmetry_cell_setting 'hexagonal'
loop_
_space_group_symop_operation_xyz
x,y,z
x-y,x,1/2+z
-y,x-y,z
-x,-y,1/2+z
-x+y,-x,z
y,-x+y,1/2+z
x-y,-y,1/2-z
-x,-x+y,1/2-z
y,x,1/2-z
-y,-x,-z
-x+y,y,-z
x,x-y,-z
-x,-y,-z
-x+y,-x,1/2-z
y,-x+y,-z
x,y,1/2-z
x-y,x,-z
-y,x-y,1/2-z
-x+y,y,1/2+z
x,x-y,1/2+z
-y,-x,1/2+z
y,x,z
x-y,-y,z
-x,-x+y,z
loop_
_atom_site_type_symbol
_atom_site_label
_atom_site_fract_x
_atom_site_fract_y
_atom_site_fract_z
Si Si1 0.571987 0.837120 0.639336
Si Si2 0.559050 0.705339 0.642184
Si Si3 0.927171 0.761210 0.141162
Si Si4 0.072125 0.336950 0.989111
Si Si5 0.854331 0.927166 0.000000
Si Si6 0.209521 0.667746 0.499950
O O1 0.568727 0.855764 0.750000
O O2 0.580383 0.777645 0.632962
O O3 0.633859 0.891415 0.588977
O O4 0.508319 0.824131 0.586453
O O5 0.558339 0.682770 0.750000
O O6 0.606584 0.691813 0.582709
O O7 0.489977 0.667445 0.600985
O O8 0.897344 0.741429 0.250000
O O9 0.902972 0.703790 0.066591
O O10 0.911782 0.811733 0.095805
O O11 0.000000 0.789615 0.151973
O O12 0.000000 0.296934 0.015123
O O13 0.897173 0.897173 0.017550
O O14 0.282664 0.717337 0.500000
O O15 0.199234 0.599617 0.500000
#
# Coordination Sequence:
#
# PCOD8329934 Si02
#       6
#    24  24  24  24  12  24
#     4   9  19  34  51  73 103 138 171 205 253 314
#     4   9  18  32  50  72  99 133 171 206 248 305
#     4   9  19  34  51  73  99 127 165 215 264 309
#     4  10  19  32  52  75  98 126 167 216 264 311
#     4  10  21  36  54  76 106 142 180 218 266 330
#     4   9  17  30  50  77 108 138 170 206 246 292
#
# _framework density 17.851989
#
# number of rings (size 3 to 8) (size 9 to 14) (size 15 to 20)
#    0.000    2.727    0.000    2.455    2.545    2.545 
#    0.000    0.000    0.000   15.273    0.000   10.182 
#    0.000    0.000    0.000    0.000    0.000    0.000 
#
# Total GULP energy -1635885.337072 kJ/mol
# GULP energy per Si atom -12393.070735 kJ/mol
# Density = 1.781136 g / cm^3
# Si number density = 17.851989 Si / 1000 Ang^3
#
#
#
# Elastic Constant Matrix: (Units=GPa)
#
#
# Indices 1 2 3 4 5 6 
#
# 1 81.7096 40.8167 40.0286 0.0000 0.0000 0.0000
# 2 40.8167 81.7096 40.0286 0.0000 0.0000 0.0000
# 3 40.0286 40.0286 134.5927 0.0000 0.0000 0.0000
# 4 0.0000 0.0000 0.0000 16.3123 0.0000 0.0000
# 5 0.0000 0.0000 0.0000 0.0000 16.3123 0.0000
# 6 0.0000 0.0000 0.0000 0.0000 0.0000 20.4465
#
#
#
# Elastic Compliance Matrix: (Units=1/GPa)
#
#
# Indices 1 2 3 4 5 6 
#
# 1 0.017292 -0.007162 -0.003013 0.000000 0.000000 0.000000
# 2 -0.007162 0.017292 -0.003013 0.000000 0.000000 0.000000
# 3 -0.003013 -0.003013 0.009222 0.000000 0.000000 0.000000
# 4 0.000000 0.000000 0.000000 0.061303 0.000000 0.000000
# 5 0.000000 0.000000 0.000000 0.000000 0.061303 0.000000
# 6 0.000000 0.000000 0.000000 0.000000 0.000000 0.048908
#
#
# Mechanical properties :
#
#
# Convention : Reuss Voigt Hill
#
# Bulk Modulus (GPa) = 57.36924 59.97327 58.67126
# Shear Modulus (GPa) = 20.20153 22.42343 21.31248
#
# Velocity S-wave (km/s) = 3.36759 3.54796 3.45895
# Velocity P-wave (km/s) = 6.87944 7.10293 6.99208
#
# Compressibility (1/GPa) = 0.01743094
#
# Stress axis : x y z
#
# Youngs Moduli (GPa) = 57.83009 57.83009 108.43857
#
# Poissons Ratio (x) = 0.41418 0.32669
# Poissons Ratio (y) = 0.41418 0.32669
# Poissons Ratio (z) = 0.17423 0.17423
#
# Static dielectric constant tensor:
#      x y z
#    x 3.122490 0.000000 0.000000 
#    y 0.000000 3.122490 0.000000 
#    z 0.000000 0.000000 3.675240 
# 
# 
# High freq. dielectric constant tensor:
#      x y z
#    x 1.674380 0.000000 0.000000 
#    y 0.000000 1.674380 0.000000 
#    z 0.000000 0.000000 1.698620 
# 
# From -- ./inp_files/4184.got.cif
#   From: 2010.03.12/outbox.cif.g09.slc.cpg/sg193_3_cif.got.tgz:4184.got - 2010.04.01 12:20:39.
