data_PCOD8329624
_publ_section_title
;
Structure prediction by ZEFSAII (Michael W. Deem and Ramdas Pophale) SiO2 
 PCOD8329624
Probable space group: P 6/M C C
;
_chemical_formula_sum "Si O2"
_cell_formula_units_Z 168
_cell_length_a 28.533432
_cell_length_b 28.533432
_cell_length_c 14.534854
_cell_angle_alpha 90.000000
_cell_angle_beta 90.000000
_cell_angle_gamma 120.000000
_cell_volume 10248.240977
_symmetry_space_group_name_H-M "P 6/M C C"
_symmetry_group_IT_number 192
_symmetry_cell_setting 'hexagonal'
loop_
_space_group_symop_operation_xyz
x,y,z
x-y,x,z
-y,x-y,z
-x,-y,z
-x+y,-x,z
y,-x+y,z
x-y,-y,1/2-z
-x,-x+y,1/2-z
y,x,1/2-z
-y,-x,1/2-z
-x+y,y,1/2-z
x,x-y,1/2-z
-x,-y,-z
-x+y,-x,-z
y,-x+y,-z
x,y,-z
x-y,x,-z
-y,x-y,-z
-x+y,y,1/2+z
x,x-y,1/2+z
-y,-x,1/2+z
y,x,1/2+z
x-y,-y,1/2+z
-x,-x+y,1/2+z
loop_
_atom_site_type_symbol
_atom_site_label
_atom_site_fract_x
_atom_site_fract_y
_atom_site_fract_z
Si Si1 0.652600 0.545225 0.397780
Si Si2 0.800526 0.711698 0.250717
Si Si3 0.061392 0.532832 0.609471
Si Si4 0.648790 0.648013 0.140041
Si Si5 0.847410 0.262808 0.751283
Si Si6 0.106415 0.458811 0.602979
Si Si7 0.247348 0.001585 0.896188
O O1 0.659354 0.527477 0.500000
O O2 0.594543 0.502470 0.353829
O O3 0.656470 0.602548 0.401895
O O4 0.702537 0.552326 0.337267
O O5 0.859331 0.718661 0.250000
O O6 0.754038 0.648077 0.246547
O O7 0.798200 0.745440 0.163158
O O8 0.792293 0.737443 0.344180
O O9 0.057593 0.532295 0.500000
O O10 0.098346 0.507517 0.642217
O O11 0.000000 0.500000 0.650003
O O12 0.651498 0.651498 0.250000
O O13 0.637996 0.591432 0.102919
O O14 0.703599 0.693392 0.095688
O O15 0.789229 0.210772 0.750000
O O16 0.853430 0.300019 0.838309
O O17 0.130193 0.471694 0.500000
O O18 0.225428 0.001098 0.000000
#
# Coordination Sequence:
#
# PCOD8329624 Si02
#       7
#    24  24  24  24  24  24  24
#     4  11  20  33  50  70 100 133 161 197 245 298
#     4  10  21  35  47  69 101 127 166 217 247 276
#     4   9  18  29  47  77 106 129 155 188 235 305
#     4  12  18  30  46  70 102 134 169 197 236 293
#     4  11  23  36  47  66  95 129 171 210 245 285
#     4  11  20  33  50  70 100 133 161 197 245 298
#     4  11  19  32  52  70  92 135 176 205 244 286
#
# _framework density 16.393056999999999
#
# number of rings (size 3 to 8) (size 9 to 14) (size 15 to 20)
#    0.000    1.286    7.143    1.286    0.000    1.714 
#    0.000    4.286    0.000    0.000    0.000    0.000 
#    5.714    0.000    1.714   13.714    0.000   29.714 
#
# Total GULP energy -2082427.376712 kJ/mol
# GULP energy per Si atom -12395.401052 kJ/mol
# Density = 1.635575 g / cm^3
# Si number density = 16.393057 Si / 1000 Ang^3
#
#
#
# Elastic Constant Matrix: (Units=GPa)
#
#
# Indices 1 2 3 4 5 6 
#
# 1 80.4573 36.8461 34.1193 0.0000 0.0000 0.0000
# 2 36.8461 80.4573 34.1193 0.0000 0.0000 0.0000
# 3 34.1193 34.1193 111.3958 0.0000 0.0000 0.0000
# 4 0.0000 0.0000 0.0000 10.7579 0.0000 0.0000
# 5 0.0000 0.0000 0.0000 0.0000 10.7579 0.0000
# 6 0.0000 0.0000 0.0000 0.0000 0.0000 21.8056
#
#
#
# Elastic Compliance Matrix: (Units=1/GPa)
#
#
# Indices 1 2 3 4 5 6 
#
# 1 0.016652 -0.006278 -0.003177 0.000000 0.000000 0.000000
# 2 -0.006278 0.016652 -0.003177 0.000000 0.000000 0.000000
# 3 -0.003177 -0.003177 0.010923 0.000000 0.000000 0.000000
# 4 0.000000 0.000000 0.000000 0.092955 0.000000 0.000000
# 5 0.000000 0.000000 0.000000 0.000000 0.092955 0.000000
# 6 0.000000 0.000000 0.000000 0.000000 0.000000 0.045860
#
#
# Mechanical properties :
#
#
# Convention : Reuss Voigt Hill
#
# Bulk Modulus (GPa) = 52.74023 53.60886 53.17454
# Shear Modulus (GPa) = 16.25584 19.81266 18.03425
#
# Velocity S-wave (km/s) = 3.15243 3.48026 3.32040
# Velocity P-wave (km/s) = 6.74482 6.99449 6.87079
#
# Compressibility (1/GPa) = 0.01896086
#
# Stress axis : x y z
#
# Youngs Moduli (GPa) = 60.05456 60.05456 91.54769
#
# Poissons Ratio (x) = 0.37704 0.29086
# Poissons Ratio (y) = 0.37704 0.29086
# Poissons Ratio (z) = 0.19080 0.19080
#
# Static dielectric constant tensor:
#      x y z
#    x 2.925960 0.000000 0.000000 
#    y 0.000000 2.925960 0.000000 
#    z 0.000000 0.000000 2.498640 
# 
# 
# High freq. dielectric constant tensor:
#      x y z
#    x 1.602360 0.000000 0.000000 
#    y 0.000000 1.602360 0.000000 
#    z 0.000000 0.000000 1.643380 
# 
# From -- ./inp_files/3507.got.cif
#   From: 2010.03.12/outbox.cif.g09.slc.cpg/sg192_2_cif.got.tgz:3507.got - 2010.04.01 12:16:15.
