data_PCOD8329198
_publ_section_title
;
Structure prediction by ZEFSAII (Michael W. Deem and Ramdas Pophale) SiO2 
 PCOD8329198
Probable space group: P 6/M M M
;
_chemical_formula_sum "Si O2"
_cell_formula_units_Z 144
_cell_length_a 21.965216
_cell_length_b 21.965216
_cell_length_c 20.438312
_cell_angle_alpha 90.000000
_cell_angle_beta 90.000000
_cell_angle_gamma 120.000000
_cell_volume 8539.778630
_symmetry_space_group_name_H-M "P 6/M M M"
_symmetry_group_IT_number 191
_symmetry_cell_setting 'hexagonal'
loop_
_space_group_symop_operation_xyz
x,y,z
x-y,x,z
-y,x-y,z
-x,-y,z
-x+y,-x,z
y,-x+y,z
x-y,-y,-z
-x,-x+y,-z
y,x,-z
-y,-x,-z
-x+y,y,-z
x,x-y,-z
-x,-y,-z
-x+y,-x,-z
y,-x+y,-z
x,y,-z
x-y,x,-z
-y,x-y,-z
-x+y,y,z
x,x-y,z
-y,-x,z
y,x,z
x-y,-y,z
-x,-x+y,z
loop_
_atom_site_type_symbol
_atom_site_label
_atom_site_fract_x
_atom_site_fract_y
_atom_site_fract_z
Si Si1 0.190500 0.525428 0.822535
Si Si2 0.077219 0.786970 0.263746
Si Si3 0.921934 0.709025 0.110215
Si Si4 0.292298 0.440540 0.304107
Si Si5 0.652632 0.572562 0.074102
Si Si6 0.808979 0.333388 0.427058
O O1 0.258440 0.516880 0.833999
O O2 0.215353 0.607677 0.819113
O O3 0.149570 0.488828 0.755575
O O4 0.135596 0.490481 0.881463
O O5 0.135071 0.864930 0.288172
O O6 0.085490 0.779221 0.187107
O O7 0.085849 0.725447 0.297602
O O8 0.000000 0.774080 0.281477
O O9 0.865611 0.731222 0.086387
O O10 0.905483 0.637460 0.075206
O O11 0.000000 0.771989 0.092091
O O12 0.220071 0.440142 0.302430
O O13 0.331377 0.469677 0.373456
O O14 0.599310 0.599310 0.097906
O O15 0.634716 0.544374 0.000000
O O16 0.837359 0.332366 0.500000
O O17 0.804181 0.402091 0.415027
O O18 0.731169 0.268832 0.416884
#
# Coordination Sequence:
#
# PCOD8329198 Si02
#       6
#    24  24  24  24  24  24
#     4  11  22  35  50  69  95 127 161 197 239 290
#     4   9  16  28  48  72  96 121 153 193 234 278
#     4   9  16  28  47  70  94 119 149 186 228 274
#     4   9  17  29  46  69  94 122 159 200 235 269
#     4  10  21  36  53  71  90 115 152 201 250 289
#     4   9  16  26  42  65  94 127 162 200 242 286
#
# _framework density 16.862264
#
# number of rings (size 3 to 8) (size 9 to 14) (size 15 to 20)
#    0.000    2.500    1.667    1.333    0.000    2.667 
#    0.000    2.500    0.000    3.333    0.000    3.500 
#    0.000    0.000    0.000    4.167    0.000    4.333 
#
# Total GULP energy -1785095.890099 kJ/mol
# GULP energy per Si atom -12396.499237 kJ/mol
# Density = 1.682388 g / cm^3
# Si number density = 16.862264 Si / 1000 Ang^3
#
#
#
# Elastic Constant Matrix: (Units=GPa)
#
#
# Indices 1 2 3 4 5 6 
#
# 1 80.1305 34.5290 36.2997 0.0000 0.0000 0.0000
# 2 34.5290 80.1305 36.2997 0.0000 0.0000 0.0000
# 3 36.2997 36.2997 82.3894 0.0000 0.0000 0.0000
# 4 0.0000 0.0000 0.0000 17.1723 0.0000 0.0000
# 5 0.0000 0.0000 0.0000 0.0000 17.1723 0.0000
# 6 0.0000 0.0000 0.0000 0.0000 0.0000 22.8007
#
#
#
# Elastic Compliance Matrix: (Units=1/GPa)
#
#
# Indices 1 2 3 4 5 6 
#
# 1 0.017012 -0.004917 -0.005329 0.000000 0.000000 0.000000
# 2 -0.004917 0.017012 -0.005329 0.000000 0.000000 0.000000
# 3 -0.005329 -0.005329 0.016833 0.000000 0.000000 0.000000
# 4 0.000000 0.000000 0.000000 0.058233 0.000000 0.000000
# 5 0.000000 0.000000 0.000000 0.000000 0.058233 0.000000
# 6 0.000000 0.000000 0.000000 0.000000 0.000000 0.043858
#
#
# Mechanical properties :
#
#
# Convention : Reuss Voigt Hill
#
# Bulk Modulus (GPa) = 50.74057 50.76745 50.75401
# Shear Modulus (GPa) = 20.08816 20.46387 20.27602
#
# Velocity S-wave (km/s) = 3.45528 3.48744 3.47140
# Velocity P-wave (km/s) = 6.78787 6.81093 6.79941
#
# Compressibility (1/GPa) = 0.01970810
#
# Stress axis : x y z
#
# Youngs Moduli (GPa) = 58.78040 58.78040 59.40539
#
# Poissons Ratio (x) = 0.28900 0.31659
# Poissons Ratio (y) = 0.28900 0.31659
# Poissons Ratio (z) = 0.31326 0.31326
#
# Static dielectric constant tensor:
#      x y z
#    x 3.147980 0.000000 0.000000 
#    y 0.000000 3.147980 0.000000 
#    z 0.000000 0.000000 3.297030 
# 
# 
# High freq. dielectric constant tensor:
#      x y z
#    x 1.634700 0.000000 0.000000 
#    y 0.000000 1.634700 0.000000 
#    z 0.000000 0.000000 1.641090 
# 
# From -- ./inp_files/7598.got.cif
#   From: 2010.03.12/outbox.cif.g09.slc.cpg/sg191_4_cif.got.tgz:7598.got - 2010.04.01 12:09:02.
