data_PCOD8329284
_publ_section_title
;
Structure prediction by ZEFSAII (Michael W. Deem and Ramdas Pophale) SiO2 
 PCOD8329284
Probable space group: P 6/M M M
;
_chemical_formula_sum "Si O2"
_cell_formula_units_Z 96
_cell_length_a 31.071701
_cell_length_b 31.071701
_cell_length_c 7.643862
_cell_angle_alpha 90.000000
_cell_angle_beta 90.000000
_cell_angle_gamma 120.000000
_cell_volume 6391.069314
_symmetry_space_group_name_H-M "P 6/M M M"
_symmetry_group_IT_number 191
_symmetry_cell_setting 'hexagonal'
loop_
_space_group_symop_operation_xyz
x,y,z
x-y,x,z
-y,x-y,z
-x,-y,z
-x+y,-x,z
y,-x+y,z
x-y,-y,-z
-x,-x+y,-z
y,x,-z
-y,-x,-z
-x+y,y,-z
x,x-y,-z
-x,-y,-z
-x+y,-x,-z
y,-x+y,-z
x,y,-z
x-y,x,-z
-y,x-y,-z
-x+y,y,z
x,x-y,z
-y,-x,z
y,x,z
x-y,-y,z
-x,-x+y,z
loop_
_atom_site_type_symbol
_atom_site_label
_atom_site_fract_x
_atom_site_fract_y
_atom_site_fract_z
Si Si1 0.090149 0.281377 0.000000
Si Si2 0.055350 0.847314 0.698687
Si Si3 0.820471 0.538372 0.305577
Si Si4 0.144491 0.391959 0.000000
Si Si5 0.666494 0.237568 0.707817
O O1 0.061303 0.251975 0.174346
O O2 0.096892 0.336308 0.000000
O O3 0.144064 0.288127 0.000000
O O4 0.063224 0.834944 0.500000
O O5 0.095375 0.904626 0.745614
O O6 0.000000 0.839176 0.723150
O O7 0.844535 0.550113 0.500000
O O8 0.769360 0.538719 0.311617
O O9 0.858834 0.579800 0.172169
O O10 0.807606 0.483504 0.239716
O O11 0.195698 0.391396 0.000000
O O12 0.667292 0.241469 0.500000
O O13 0.613572 0.227144 0.783895
O O14 0.710230 0.289771 0.784789
#
# Coordination Sequence:
#
# PCOD8329284 Si02
#       5
#    12  24  24  12  24
#     4   9  17  27  40  59  79 102 135 170 200 228
#     4   9  17  29  45  65  89 115 141 168 195 220
#     4   8  14  23  33  45  62  86 116 151 193 238
#     4   9  16  25  36  49  67  91 120 157 196 230
#     4   8  12  18  29  44  61  83 115 156 199 239
#
# _framework density 15.020960000000001
#
# number of rings (size 3 to 8) (size 9 to 14) (size 15 to 20)
#    0.000    3.500    0.000    2.125    0.000    2.000 
#    0.000    5.625    0.000    0.250    0.000    3.500 
#    0.000    3.000    0.000    0.250    0.000   10.000 
#
# Total GULP energy -1189444.850442 kJ/mol
# GULP energy per Si atom -12390.050525 kJ/mol
# Density = 1.498677 g / cm^3
# Si number density = 15.020960 Si / 1000 Ang^3
#
#
#
# Elastic Constant Matrix: (Units=GPa)
#
#
# Indices 1 2 3 4 5 6 
#
# 1 71.9585 46.5865 39.7988 0.0000 0.0000 0.0000
# 2 46.5865 71.9585 39.7988 0.0000 0.0000 0.0000
# 3 39.7988 39.7988 84.6201 0.0000 0.0000 0.0000
# 4 0.0000 0.0000 0.0000 13.5497 0.0000 0.0000
# 5 0.0000 0.0000 0.0000 0.0000 13.5497 0.0000
# 6 0.0000 0.0000 0.0000 0.0000 0.0000 12.6860
#
#
#
# Elastic Compliance Matrix: (Units=1/GPa)
#
#
# Indices 1 2 3 4 5 6 
#
# 1 0.025871 -0.013542 -0.005799 0.000000 0.000000 0.000000
# 2 -0.013542 0.025871 -0.005799 0.000000 0.000000 0.000000
# 3 -0.005799 -0.005799 0.017272 0.000000 0.000000 0.000000
# 4 0.000000 0.000000 0.000000 0.073802 0.000000 0.000000
# 5 0.000000 0.000000 0.000000 0.000000 0.073802 0.000000
# 6 0.000000 0.000000 0.000000 0.000000 0.000000 0.078827
#
#
# Mechanical properties :
#
#
# Convention : Reuss Voigt Hill
#
# Bulk Modulus (GPa) = 53.37432 53.43395 53.40414
# Shear Modulus (GPa) = 14.20570 14.78060 14.49315
#
# Velocity S-wave (km/s) = 3.07860 3.14028 3.10959
# Velocity P-wave (km/s) = 6.94604 6.98560 6.96585
#
# Compressibility (1/GPa) = 0.01873560
#
# Stress axis : x y z
#
# Youngs Moduli (GPa) = 38.65273 38.65273 57.89693
#
# Poissons Ratio (x) = 0.52344 0.33573
# Poissons Ratio (y) = 0.52344 0.33573
# Poissons Ratio (z) = 0.22414 0.22414
#
# Static dielectric constant tensor:
#      x y z
#    x 2.808680 0.000000 0.000000 
#    y 0.000000 2.808680 0.000000 
#    z 0.000000 0.000000 3.042460 
# 
# 
# High freq. dielectric constant tensor:
#      x y z
#    x 1.535250 0.000000 0.000000 
#    y 0.000000 1.535250 0.000000 
#    z 0.000000 0.000000 1.582970 
# 
# From -- ./inp_files/1531.got.cif
#   From: 2010.03.12/outbox.cif.g09.slc.cpg/sg191_1_cif.got.tgz:1531.got - 2010.04.01 12:09:02.
