data_PCOD8329091
_publ_section_title
;
Structure prediction by ZEFSAII (Michael W. Deem and Ramdas Pophale) SiO2 
 PCOD8329091
Probable space group: P 6/M M M
;
_chemical_formula_sum "Si O2"
_cell_formula_units_Z 168
_cell_length_a 22.490460
_cell_length_b 22.490460
_cell_length_c 23.734882
_cell_angle_alpha 90.000000
_cell_angle_beta 90.000000
_cell_angle_gamma 120.000000
_cell_volume 10397.151806
_symmetry_space_group_name_H-M "P 6/M M M"
_symmetry_group_IT_number 191
_symmetry_cell_setting 'hexagonal'
loop_
_space_group_symop_operation_xyz
x,y,z
x-y,x,z
-y,x-y,z
-x,-y,z
-x+y,-x,z
y,-x+y,z
x-y,-y,-z
-x,-x+y,-z
y,x,-z
-y,-x,-z
-x+y,y,-z
x,x-y,-z
-x,-y,-z
-x+y,-x,-z
y,-x+y,-z
x,y,-z
x-y,x,-z
-y,x-y,-z
-x+y,y,z
x,x-y,z
-y,-x,z
y,x,z
x-y,-y,z
-x,-x+y,z
loop_
_atom_site_type_symbol
_atom_site_label
_atom_site_fract_x
_atom_site_fract_y
_atom_site_fract_z
Si Si1 0.534108 0.201443 0.177415
Si Si2 0.332905 0.802960 0.435036
Si Si3 0.920692 0.646910 0.061110
Si Si4 0.470566 0.392640 0.649733
Si Si5 0.788643 0.709116 0.825667
Si Si6 0.492243 0.638108 0.062057
Si Si7 0.411067 0.077757 0.234022
O O1 0.606968 0.213935 0.199524
O O2 0.522435 0.261218 0.202881
O O3 0.532552 0.204811 0.109418
O O4 0.475209 0.127054 0.196048
O O5 0.329053 0.820224 0.500000
O O6 0.391448 0.782896 0.425577
O O7 0.261191 0.738810 0.414607
O O8 0.349056 0.870502 0.400092
O O9 0.893283 0.670802 0.113968
O O10 0.909750 0.571524 0.072127
O O11 0.000000 0.698953 0.057898
O O12 0.887707 0.649219 0.000000
O O13 0.544787 0.455214 0.669281
O O14 0.423335 0.423335 0.627696
O O15 0.433113 0.340056 0.700879
O O16 0.869106 0.738211 0.810421
O O17 0.770882 0.770882 0.827427
O O18 0.742017 0.653441 0.778474
O O19 0.445077 0.554924 0.067219
O O20 0.482345 0.662225 0.000000
O O21 0.390570 0.000000 0.218264
#
# Coordination Sequence:
#
# PCOD8329091 Si02
#       7
#    24  24  24  24  24  24  24
#     4  11  22  34  47  63  86 116 151 189 229 275
#     4   9  17  29  46  69  96 125 156 190 228 267
#     4   9  17  29  45  67  92 115 142 179 224 272
#     4   9  18  32  48  67  92 121 155 193 229 268
#     4  10  20  34  51  72  95 119 147 180 223 274
#     4   9  18  30  43  61  84 113 149 187 228 271
#     4  10  20  34  51  70  90 116 150 189 233 275
#
# _framework density 16.158270999999999
#
# number of rings (size 3 to 8) (size 9 to 14) (size 15 to 20)
#    0.000    2.429    1.429    1.143    0.000    3.714 
#    0.000    5.714    0.000    2.714    0.000    0.000 
#    0.000    0.000    0.000    3.571    0.000    0.000 
#
# Total GULP energy -2081690.128776 kJ/mol
# GULP energy per Si atom -12391.012671 kJ/mol
# Density = 1.612149 g / cm^3
# Si number density = 16.158271 Si / 1000 Ang^3
#
#
#
# Elastic Constant Matrix: (Units=GPa)
#
#
# Indices 1 2 3 4 5 6 
#
# 1 90.1323 49.4768 43.7410 0.0000 0.0000 0.0000
# 2 49.4768 90.1323 43.7410 0.0000 0.0000 0.0000
# 3 43.7410 43.7410 74.8007 0.0000 0.0000 0.0000
# 4 0.0000 0.0000 0.0000 12.1503 0.0000 0.0000
# 5 0.0000 0.0000 0.0000 0.0000 12.1503 0.0000
# 6 0.0000 0.0000 0.0000 0.0000 0.0000 20.3278
#
#
#
# Elastic Compliance Matrix: (Units=1/GPa)
#
#
# Indices 1 2 3 4 5 6 
#
# 1 0.017951 -0.006646 -0.006611 0.000000 0.000000 0.000000
# 2 -0.006646 0.017951 -0.006611 0.000000 0.000000 0.000000
# 3 -0.006611 -0.006611 0.021101 0.000000 0.000000 0.000000
# 4 0.000000 0.000000 0.000000 0.082303 0.000000 0.000000
# 5 0.000000 0.000000 0.000000 0.000000 0.082303 0.000000
# 6 0.000000 0.000000 0.000000 0.000000 0.000000 0.049194
#
#
# Mechanical properties :
#
#
# Convention : Reuss Voigt Hill
#
# Bulk Modulus (GPa) = 57.91256 58.77588 58.34422
# Shear Modulus (GPa) = 15.80807 16.79942 16.30375
#
# Velocity S-wave (km/s) = 3.13122 3.22790 3.17993
# Velocity P-wave (km/s) = 6.99938 7.09553 7.04762
#
# Compressibility (1/GPa) = 0.01726741
#
# Stress axis : x y z
#
# Youngs Moduli (GPa) = 55.70657 55.70657 47.39168
#
# Poissons Ratio (x) = 0.37021 0.31331
# Poissons Ratio (y) = 0.37021 0.31331
# Poissons Ratio (z) = 0.36828 0.36828
#
# Static dielectric constant tensor:
#      x y z
#    x 2.887360 0.000000 0.000000 
#    y 0.000000 2.887360 0.000000 
#    z 0.000000 0.000000 3.124760 
# 
# 
# High freq. dielectric constant tensor:
#      x y z
#    x 1.602600 0.000000 0.000000 
#    y 0.000000 1.602600 0.000000 
#    z 0.000000 0.000000 1.611280 
# 
# From -- ./inp_files/10032.got.cif
#   From: 2010.03.12/outbox.cif.g09.slc.cpg/sg191_6_cif.got.tgz:10032.got - 2010.04.01 12:09:02.
