data_PCOD8329602
_publ_section_title
;
Structure prediction by ZEFSAII (Michael W. Deem and Ramdas Pophale) SiO2 
 PCOD8329602
Probable space group: P 6/M C C
;
_chemical_formula_sum "Si O2"
_cell_formula_units_Z 104
_cell_length_a 19.535629
_cell_length_b 19.535629
_cell_length_c 17.185324
_cell_angle_alpha 90.000000
_cell_angle_beta 90.000000
_cell_angle_gamma 120.000000
_cell_volume 5679.932233
_symmetry_space_group_name_H-M "P 6/M C C"
_symmetry_group_IT_number 192
_symmetry_cell_setting 'hexagonal'
loop_
_space_group_symop_operation_xyz
x,y,z
x-y,x,z
-y,x-y,z
-x,-y,z
-x+y,-x,z
y,-x+y,z
x-y,-y,1/2-z
-x,-x+y,1/2-z
y,x,1/2-z
-y,-x,1/2-z
-x+y,y,1/2-z
x,x-y,1/2-z
-x,-y,-z
-x+y,-x,-z
y,-x+y,-z
x,y,-z
x-y,x,-z
-y,x-y,-z
-x+y,y,1/2+z
x,x-y,1/2+z
-y,-x,1/2+z
y,x,1/2+z
x-y,-y,1/2+z
-x,-x+y,1/2+z
loop_
_atom_site_type_symbol
_atom_site_label
_atom_site_fract_x
_atom_site_fract_y
_atom_site_fract_z
Si Si1 0.666668 0.333334 0.906445
Si Si2 0.287444 0.285198 0.841754
Si Si3 0.288568 0.790942 0.408455
Si Si4 0.588948 0.554159 0.908285
Si Si5 0.835356 0.163410 0.407474
O O1 0.719415 0.297268 0.872712
O O2 0.666667 0.333334 0.000000
O O3 0.281129 0.281129 0.750000
O O4 0.370270 0.360812 0.867074
O O5 0.283656 0.205755 0.871796
O O6 0.212650 0.286226 0.878427
O O7 0.282628 0.780868 0.500000
O O8 0.365512 0.873231 0.385826
O O9 0.210155 0.790521 0.378144
O O10 0.500000 0.500000 0.877841
O O11 0.591333 0.570144 0.000000
O O12 0.839355 0.162730 0.500000
#
# Coordination Sequence:
#
# PCOD8329602 Si02
#       5
#     8  24  24  24  24
#     4   9  15  24  42  72 103 131 172 234 286 314
#     4  11  22  36  56  83 114 146 180 230 291 344
#     4   8  16  27  44  73 104 134 178 229 280 320
#     4   9  18  32  51  75 103 143 193 238 278 327
#     4  10  20  37  58  82 109 145 188 229 273 336
#
# _framework density 18.310079000000002
#
# number of rings (size 3 to 8) (size 9 to 14) (size 15 to 20)
#    0.000    2.538    0.000    4.154    3.231    0.462 
#    0.000    0.000    0.000    0.462    0.000    3.231 
#    0.000    0.000    0.000    0.000    0.000    0.000 
#
# Total GULP energy -1289407.434097 kJ/mol
# GULP energy per Si atom -12398.148405 kJ/mol
# Density = 1.826840 g / cm^3
# Si number density = 18.310079 Si / 1000 Ang^3
#
#
#
# Elastic Constant Matrix: (Units=GPa)
#
#
# Indices 1 2 3 4 5 6 
#
# 1 123.7188 86.4928 40.2464 0.0000 0.0000 -0.0003
# 2 86.4928 123.7184 40.2464 0.0000 0.0000 0.0003
# 3 40.2464 40.2464 78.3427 0.0000 0.0000 0.0000
# 4 0.0000 0.0000 0.0000 16.7063 0.0000 0.0000
# 5 0.0000 0.0000 0.0000 0.0000 16.7063 0.0000
# 6 -0.0003 0.0003 0.0000 0.0000 0.0000 18.6136
#
#
#
# Elastic Compliance Matrix: (Units=1/GPa)
#
#
# Indices 1 2 3 4 5 6 
#
# 1 0.016393 -0.010471 -0.003042 0.000000 0.000000 0.000000
# 2 -0.010471 0.016393 -0.003042 0.000000 0.000000 0.000000
# 3 -0.003042 -0.003042 0.015890 0.000000 0.000000 0.000000
# 4 0.000000 0.000000 0.000000 0.059858 0.000000 0.000000
# 5 0.000000 0.000000 0.000000 0.000000 0.059858 0.000000
# 6 0.000000 0.000000 0.000000 0.000000 0.000000 0.053724
#
#
# Mechanical properties :
#
#
# Convention : Reuss Voigt Hill
#
# Bulk Modulus (GPa) = 64.24606 73.30566 68.77586
# Shear Modulus (GPa) = 19.20025 20.99153 20.09589
#
# Velocity S-wave (km/s) = 3.24175 3.38960 3.31650
# Velocity P-wave (km/s) = 7.01255 7.44592 7.23248
#
# Compressibility (1/GPa) = 0.01556516
#
# Stress axis : x y z
#
# Youngs Moduli (GPa) = 61.00342 61.00319 62.93182
#
# Poissons Ratio (x) = 0.63873 0.19146
# Poissons Ratio (y) = 0.63874 0.19146
# Poissons Ratio (z) = 0.18559 0.18559
#
# Static dielectric constant tensor:
#      x y z
#    x 3.751320 0.000000 0.000000 
#    y 0.000000 3.751290 0.000000 
#    z 0.000000 0.000000 3.071020 
# 
# 
# High freq. dielectric constant tensor:
#      x y z
#    x 1.708930 0.000000 0.000000 
#    y 0.000000 1.708930 0.000000 
#    z 0.000000 0.000000 1.681130 
# 
# From -- ./inp_files/2857.got.cif
#   From: 2010.03.12/outbox.cif.g09.slc.cpg/sg192_2_cif.got.tgz:2857.got - 2010.04.01 12:16:15.
