data_PCOD8329129
_publ_section_title
;
Structure prediction by ZEFSAII (Michael W. Deem and Ramdas Pophale) SiO2 
 PCOD8329129
Probable space group: P 6/M M M
;
_chemical_formula_sum "Si O2"
_cell_formula_units_Z 132
_cell_length_a 17.763041
_cell_length_b 17.763041
_cell_length_c 28.925483
_cell_angle_alpha 90.000000
_cell_angle_beta 90.000000
_cell_angle_gamma 120.000000
_cell_volume 7903.981002
_symmetry_space_group_name_H-M "P 6/M M M"
_symmetry_group_IT_number 191
_symmetry_cell_setting 'hexagonal'
loop_
_space_group_symop_operation_xyz
x,y,z
x-y,x,z
-y,x-y,z
-x,-y,z
-x+y,-x,z
y,-x+y,z
x-y,-y,-z
-x,-x+y,-z
y,x,-z
-y,-x,-z
-x+y,y,-z
x,x-y,-z
-x,-y,-z
-x+y,-x,-z
y,-x+y,-z
x,y,-z
x-y,x,-z
-y,x-y,-z
-x+y,y,z
x,x-y,z
-y,-x,z
y,x,z
x-y,-y,z
-x,-x+y,z
loop_
_atom_site_type_symbol
_atom_site_label
_atom_site_fract_x
_atom_site_fract_y
_atom_site_fract_z
Si Si1 0.198224 0.396448 0.554726
Si Si2 0.267849 0.365666 0.297935
Si Si3 0.492452 0.159532 0.111980
Si Si4 0.901069 0.802137 0.555046
Si Si5 0.101393 0.464970 0.386566
Si Si6 0.505320 0.838660 0.217395
Si Si7 0.589592 0.000000 0.947963
O O1 0.199052 0.398103 0.500000
O O2 0.148441 0.296882 0.573547
O O3 0.296782 0.446366 0.572133
O O4 0.164290 0.328579 0.299138
O O5 0.285328 0.285328 0.304043
O O6 0.313397 0.436725 0.338052
O O7 0.309195 0.412615 0.249650
O O8 0.589544 0.179087 0.102892
O O9 0.489715 0.244858 0.098823
O O10 0.465474 0.130530 0.164959
O O11 0.423054 0.084505 0.078888
O O12 0.851315 0.851315 0.573902
O O13 0.901436 0.802872 0.500000
O O14 0.135283 0.567642 0.384401
O O15 0.000000 0.411619 0.397627
O O16 0.426612 0.853224 0.232349
O O17 0.473563 0.736782 0.222578
O O18 0.500000 0.000000 0.947708
O O19 0.621690 0.000000 0.000000
#
# Coordination Sequence:
#
# PCOD8329129 Si02
#       7
#    12  24  24  12  24  24  12
#     4  11  22  37  56  77 102 136 175 214 254 297
#     4  10  20  35  55  78 103 132 164 199 246 303
#     4   9  17  29  45  66  94 128 167 209 251 296
#     4   9  17  30  51  80 110 136 162 199 250 308
#     4  10  21  38  57  77 102 132 168 208 250 298
#     4   9  17  28  46  73 102 131 163 202 246 293
#     4   9  18  30  42  60  90 128 169 211 252 290
#
# _framework density 16.700444999999998
#
# number of rings (size 3 to 8) (size 9 to 14) (size 15 to 20)
#    0.000    2.455    0.909    1.545    1.273    4.727 
#    0.545    0.909    0.000    1.273    0.000    0.000 
#    0.000    0.000    0.000    0.273    0.000    1.182 
#
# Total GULP energy -1636965.841168 kJ/mol
# GULP energy per Si atom -12401.256372 kJ/mol
# Density = 1.666243 g / cm^3
# Si number density = 16.700445 Si / 1000 Ang^3
#
#
#
# Elastic Constant Matrix: (Units=GPa)
#
#
# Indices 1 2 3 4 5 6 
#
# 1 98.5617 58.8815 44.0314 0.0000 0.0000 0.0000
# 2 58.8815 98.5617 44.0314 0.0000 0.0000 0.0000
# 3 44.0314 44.0314 89.0971 0.0000 0.0000 0.0000
# 4 0.0000 0.0000 0.0000 21.9556 0.0000 0.0000
# 5 0.0000 0.0000 0.0000 0.0000 21.9556 0.0000
# 6 0.0000 0.0000 0.0000 0.0000 0.0000 19.8401
#
#
#
# Elastic Compliance Matrix: (Units=1/GPa)
#
#
# Indices 1 2 3 4 5 6 
#
# 1 0.016990 -0.008212 -0.004338 0.000000 0.000000 0.000000
# 2 -0.008212 0.016990 -0.004338 0.000000 0.000000 0.000000
# 3 -0.004338 -0.004338 0.015511 0.000000 0.000000 0.000000
# 4 0.000000 0.000000 0.000000 0.045547 0.000000 0.000000
# 5 0.000000 0.000000 0.000000 0.000000 0.045547 0.000000
# 6 0.000000 0.000000 0.000000 0.000000 0.000000 0.050403
#
#
# Mechanical properties :
#
#
# Convention : Reuss Voigt Hill
#
# Bulk Modulus (GPa) = 63.63295 64.45658 64.04476
# Shear Modulus (GPa) = 21.73905 22.03531 21.88718
#
# Velocity S-wave (km/s) = 3.61183 3.63636 3.62411
# Velocity P-wave (km/s) = 7.45513 7.50402 7.47962
#
# Compressibility (1/GPa) = 0.01571513
#
# Stress axis : x y z
#
# Youngs Moduli (GPa) = 58.85923 58.85923 64.46891
#
# Poissons Ratio (x) = 0.48334 0.27967
# Poissons Ratio (y) = 0.48334 0.27967
# Poissons Ratio (z) = 0.25533 0.25533
#
# Static dielectric constant tensor:
#      x y z
#    x 3.075690 0.000000 0.000000 
#    y 0.000000 3.075690 0.000000 
#    z 0.000000 0.000000 3.154170 
# 
# 
# High freq. dielectric constant tensor:
#      x y z
#    x 1.631100 0.000000 0.000000 
#    y 0.000000 1.631100 0.000000 
#    z 0.000000 0.000000 1.641260 
# 
# From -- ./inp_files/10589.got.cif
#   From: 2010.03.12/outbox.cif.g09.slc.cpg/sg191_6_cif.got.tgz:10589.got - 2010.04.01 12:09:02.
