data_PCOD8329571
_publ_section_title
;
Structure prediction by ZEFSAII (Michael W. Deem and Ramdas Pophale) SiO2 
 PCOD8329571
Probable space group: P 6/M C C
;
_chemical_formula_sum "Si O2"
_cell_formula_units_Z 144
_cell_length_a 32.426158
_cell_length_b 32.426158
_cell_length_c 8.544240
_cell_angle_alpha 90.000000
_cell_angle_beta 90.000000
_cell_angle_gamma 120.000000
_cell_volume 7780.277003
_symmetry_space_group_name_H-M "P 6/M C C"
_symmetry_group_IT_number 192
_symmetry_cell_setting 'hexagonal'
loop_
_space_group_symop_operation_xyz
x,y,z
x-y,x,z
-y,x-y,z
-x,-y,z
-x+y,-x,z
y,-x+y,z
x-y,-y,1/2-z
-x,-x+y,1/2-z
y,x,1/2-z
-y,-x,1/2-z
-x+y,y,1/2-z
x,x-y,1/2-z
-x,-y,-z
-x+y,-x,-z
y,-x+y,-z
x,y,-z
x-y,x,-z
-y,x-y,-z
-x+y,y,1/2+z
x,x-y,1/2+z
-y,-x,1/2+z
y,x,1/2+z
x-y,-y,1/2+z
-x,-x+y,1/2+z
loop_
_atom_site_type_symbol
_atom_site_label
_atom_site_fract_x
_atom_site_fract_y
_atom_site_fract_z
Si Si1 0.618914 0.719434 0.314797
Si Si2 0.948371 0.808353 0.314849
Si Si3 0.949473 0.383590 0.314839
Si Si4 0.228692 0.279692 0.684294
Si Si5 0.862734 0.475133 0.685275
Si Si6 0.473771 0.280615 0.682896
O O1 0.626821 0.724279 0.500000
O O2 0.603380 0.665939 0.265708
O O3 0.666781 0.756871 0.227608
O O4 0.578402 0.731297 0.258099
O O5 0.911799 0.823598 0.250000
O O6 0.949256 0.809939 0.500000
O O7 0.932698 0.755173 0.259020
O O8 0.000000 0.845947 0.250000
O O9 0.950642 0.378441 0.500000
O O10 0.911934 0.399943 0.267923
O O11 0.000000 0.424005 0.250000
O O12 0.268513 0.268513 0.750000
O O13 0.224823 0.271997 0.500000
O O14 0.845327 0.422664 0.750000
O O15 0.870948 0.478406 0.500000
O O16 0.821862 0.487533 0.732167
O O17 0.489381 0.244691 0.750000
O O18 0.471904 0.275186 0.500000
#
# Coordination Sequence:
#
# PCOD8329571 Si02
#       6
#    24  24  24  24  24  24
#     4  10  20  35  51  74 108 146 186 229 268 312
#     4  11  22  39  60  84 111 143 180 223 272 326
#     4  11  21  34  52  76 106 144 184 225 266 311
#     4  11  21  34  52  77 108 147 189 230 272 317
#     4  10  21  38  57  81 107 136 172 215 263 317
#     4   9  20  36  56  79 106 135 170 212 260 313
#
# _framework density 18.508337999999998
#
# number of rings (size 3 to 8) (size 9 to 14) (size 15 to 20)
#    0.000    1.667    0.000    8.000    0.000    5.000 
#    0.000    3.333    0.000    0.500    0.000    1.167 
#    0.000    0.000    0.000    0.000    0.000    0.000 
#
# Total GULP energy -1786130.972811 kJ/mol
# GULP energy per Si atom -12403.687311 kJ/mol
# Density = 1.846621 g / cm^3
# Si number density = 18.508338 Si / 1000 Ang^3
#
#
#
# Elastic Constant Matrix: (Units=GPa)
#
#
# Indices 1 2 3 4 5 6 
#
# 1 116.5139 74.7595 38.2183 0.0000 0.0000 0.0000
# 2 74.7595 116.5139 38.2183 0.0000 0.0000 0.0000
# 3 38.2183 38.2183 111.3652 0.0000 0.0000 0.0000
# 4 0.0000 0.0000 0.0000 32.2208 0.0000 0.0000
# 5 0.0000 0.0000 0.0000 0.0000 32.2208 0.0000
# 6 0.0000 0.0000 0.0000 0.0000 0.0000 20.8772
#
#
#
# Elastic Compliance Matrix: (Units=1/GPa)
#
#
# Indices 1 2 3 4 5 6 
#
# 1 0.015004 -0.008945 -0.002079 0.000000 0.000000 0.000000
# 2 -0.008945 0.015004 -0.002079 0.000000 0.000000 0.000000
# 3 -0.002079 -0.002079 0.010407 0.000000 0.000000 0.000000
# 4 0.000000 0.000000 0.000000 0.031036 0.000000 0.000000
# 5 0.000000 0.000000 0.000000 0.000000 0.031036 0.000000
# 6 0.000000 0.000000 0.000000 0.000000 0.000000 0.047899
#
#
# Mechanical properties :
#
#
# Convention : Reuss Voigt Hill
#
# Bulk Modulus (GPa) = 70.38593 71.86501 71.12547
# Shear Modulus (GPa) = 27.57404 29.94353 28.75878
#
# Velocity S-wave (km/s) = 3.86400 4.02660 3.94614
# Velocity P-wave (km/s) = 7.61703 7.78015 7.69903
#
# Compressibility (1/GPa) = 0.01420739
#
# Stress axis : x y z
#
# Youngs Moduli (GPa) = 66.64742 66.64742 96.09241
#
# Poissons Ratio (x) = 0.59618 0.19981
# Poissons Ratio (y) = 0.59618 0.19981
# Poissons Ratio (z) = 0.13858 0.13858
#
# Static dielectric constant tensor:
#      x y z
#    x 2.708180 0.000000 0.000000 
#    y 0.000000 2.708180 0.000000 
#    z 0.000000 0.000000 3.487180 
# 
# 
# High freq. dielectric constant tensor:
#      x y z
#    x 1.708310 0.000000 0.000000 
#    y 0.000000 1.708310 0.000000 
#    z 0.000000 0.000000 1.735610 
# 
# From -- ./inp_files/1213.got.cif
#   From: 2010.03.12/outbox.cif.g09.slc.cpg/sg192_1_cif.got.tgz:1213.got - 2010.04.01 12:16:15.
