data_PCOD8329427
_publ_section_title
;
Structure prediction by ZEFSAII (Michael W. Deem and Ramdas Pophale) SiO2 
 PCOD8329427
Probable space group: P 6/M C C
;
_chemical_formula_sum "Si O2"
_cell_formula_units_Z 144
_cell_length_a 33.478753
_cell_length_b 33.478753
_cell_length_c 9.090023
_cell_angle_alpha 90.000000
_cell_angle_beta 90.000000
_cell_angle_gamma 120.000000
_cell_volume 8823.363273
_symmetry_space_group_name_H-M "P 6/M C C"
_symmetry_group_IT_number 192
_symmetry_cell_setting 'hexagonal'
loop_
_space_group_symop_operation_xyz
x,y,z
x-y,x,z
-y,x-y,z
-x,-y,z
-x+y,-x,z
y,-x+y,z
x-y,-y,1/2-z
-x,-x+y,1/2-z
y,x,1/2-z
-y,-x,1/2-z
-x+y,y,1/2-z
x,x-y,1/2-z
-x,-y,-z
-x+y,-x,-z
y,-x+y,-z
x,y,-z
x-y,x,-z
-y,x-y,-z
-x+y,y,1/2+z
x,x-y,1/2+z
-y,-x,1/2+z
y,x,1/2+z
x-y,-y,1/2+z
-x,-x+y,1/2+z
loop_
_atom_site_type_symbol
_atom_site_label
_atom_site_fract_x
_atom_site_fract_y
_atom_site_fract_z
Si Si1 0.370399 0.812387 0.841156
Si Si2 0.368103 0.141377 0.675329
Si Si3 0.045746 0.420424 0.330559
Si Si4 0.280334 0.952571 0.672275
Si Si5 0.277742 0.805184 0.826321
Si Si6 0.083290 0.577236 0.340205
O O1 0.393761 0.787521 0.750000
O O2 0.326643 0.812998 0.766225
O O3 0.410067 0.864574 0.866545
O O4 0.355497 0.787264 0.000000
O O5 0.358267 0.179134 0.750000
O O6 0.359995 0.140082 0.500000
O O7 0.331396 0.091883 0.745790
O O8 0.420646 0.153561 0.712701
O O9 0.043753 0.431000 0.500000
O O10 0.053058 0.377580 0.306310
O O11 0.085351 0.465466 0.250067
O O12 0.000000 0.412752 0.250000
O O13 0.268770 0.953599 0.500000
O O14 0.289235 0.000000 0.750000
O O15 0.240873 0.759128 0.750000
O O16 0.274388 0.798472 0.000000
O O17 0.057782 0.528891 0.250000
O O18 0.059322 0.571092 0.500000
#
# Coordination Sequence:
#
# PCOD8329427 Si02
#       6
#    24  24  24  24  24  24
#     4   9  18  31  46  64  84 105 129 159 197 243
#     4  10  19  32  50  72  98 125 154 190 232 276
#     4  10  20  32  45  61  81 107 140 175 211 252
#     4  10  20  33  49  69  93 122 155 189 227 272
#     4   9  18  31  47  68  91 113 138 171 214 262
#     4  10  19  31  45  60  79 102 130 164 203 245
#
# _framework density 16.320307
#
# number of rings (size 3 to 8) (size 9 to 14) (size 15 to 20)
#    0.000    2.333    0.000    3.000    0.000    5.667 
#    0.000    1.667    0.000    0.333    0.000    0.000 
#    0.000    0.000    0.000    0.000    0.000    0.000 
#
# Total GULP energy -1784188.656878 kJ/mol
# GULP energy per Si atom -12390.199006 kJ/mol
# Density = 1.628316 g / cm^3
# Si number density = 16.320307 Si / 1000 Ang^3
#
#
#
# Elastic Constant Matrix: (Units=GPa)
#
#
# Indices 1 2 3 4 5 6 
#
# 1 64.4178 31.5756 36.9566 0.0000 0.0000 0.0000
# 2 31.5756 64.4178 36.9566 0.0000 0.0000 0.0000
# 3 36.9566 36.9566 98.6673 0.0000 0.0000 0.0000
# 4 0.0000 0.0000 0.0000 22.1866 0.0000 0.0000
# 5 0.0000 0.0000 0.0000 0.0000 22.1866 0.0000
# 6 0.0000 0.0000 0.0000 0.0000 0.0000 16.4211
#
#
#
# Elastic Compliance Matrix: (Units=1/GPa)
#
#
# Indices 1 2 3 4 5 6 
#
# 1 0.022544 -0.007905 -0.005483 0.000000 0.000000 0.000000
# 2 -0.007905 0.022544 -0.005483 0.000000 0.000000 0.000000
# 3 -0.005483 -0.005483 0.014243 0.000000 0.000000 0.000000
# 4 0.000000 0.000000 0.000000 0.045072 0.000000 0.000000
# 5 0.000000 0.000000 0.000000 0.000000 0.045072 0.000000
# 6 0.000000 0.000000 0.000000 0.000000 0.000000 0.060897
#
#
# Mechanical properties :
#
#
# Convention : Reuss Voigt Hill
#
# Bulk Modulus (GPa) = 46.32135 48.72006 47.52070
# Shear Modulus (GPa) = 19.58394 20.29313 19.93854
#
# Velocity S-wave (km/s) = 3.46782 3.53005 3.49908
# Velocity P-wave (km/s) = 6.66923 6.82146 6.74577
#
# Compressibility (1/GPa) = 0.02158832
#
# Stress axis : x y z
#
# Youngs Moduli (GPa) = 44.35760 44.35760 70.21133
#
# Poissons Ratio (x) = 0.35063 0.38499
# Poissons Ratio (y) = 0.35063 0.38499
# Poissons Ratio (z) = 0.24323 0.24323
#
# Static dielectric constant tensor:
#      x y z
#    x 2.826210 0.000000 0.000000 
#    y 0.000000 2.826210 0.000000 
#    z 0.000000 0.000000 3.497160 
# 
# 
# High freq. dielectric constant tensor:
#      x y z
#    x 1.591040 0.000000 0.000000 
#    y 0.000000 1.591040 0.000000 
#    z 0.000000 0.000000 1.645920 
# 
# From -- ./inp_files/1142.got.cif
#   From: 2010.03.12/outbox.cif.g09.slc.cpg/sg192_1_cif.got.tgz:1142.got - 2010.04.01 12:16:15.
