data_PCOD8329082
_publ_section_title
;
Structure prediction by ZEFSAII (Michael W. Deem and Ramdas Pophale) SiO2 
 PCOD8329082
Probable space group: P 6/M M M
;
_chemical_formula_sum "Si O2"
_cell_formula_units_Z 108
_cell_length_a 17.374230
_cell_length_b 17.374230
_cell_length_c 22.214427
_cell_angle_alpha 90.000000
_cell_angle_beta 90.000000
_cell_angle_gamma 120.000000
_cell_volume 5807.335009
_symmetry_space_group_name_H-M "P 6/M M M"
_symmetry_group_IT_number 191
_symmetry_cell_setting 'hexagonal'
loop_
_space_group_symop_operation_xyz
x,y,z
x-y,x,z
-y,x-y,z
-x,-y,z
-x+y,-x,z
y,-x+y,z
x-y,-y,-z
-x,-x+y,-z
y,x,-z
-y,-x,-z
-x+y,y,-z
x,x-y,-z
-x,-y,-z
-x+y,-x,-z
y,-x+y,-z
x,y,-z
x-y,x,-z
-y,x-y,-z
-x+y,y,z
x,x-y,z
-y,-x,z
y,x,z
x-y,-y,z
-x,-x+y,z
loop_
_atom_site_type_symbol
_atom_site_label
_atom_site_fract_x
_atom_site_fract_y
_atom_site_fract_z
Si Si1 0.726681 0.627504 0.765284
Si Si2 0.000000 0.825825 0.428317
Si Si3 0.512337 0.845015 0.647999
Si Si4 0.000000 0.349491 0.571300
Si Si5 0.331611 0.843698 0.118047
Si Si6 0.900332 0.274879 0.000000
O O1 0.832267 0.664533 0.763841
O O2 0.711477 0.711477 0.760145
O O3 0.677177 0.560414 0.711066
O O4 0.683203 0.576029 0.826416
O O5 0.000000 0.738441 0.404534
O O6 0.912597 0.825194 0.403210
O O7 0.000000 0.827320 0.500000
O O8 0.413840 0.827679 0.653718
O O9 0.507139 0.753570 0.630777
O O10 0.563780 0.913120 0.594528
O O11 0.000000 0.352415 0.500000
O O12 0.429439 0.858878 0.121660
O O13 0.261249 0.738752 0.119682
O O14 0.321890 0.887210 0.057545
O O15 0.830988 0.169013 0.000000
O O16 0.000000 0.290157 0.000000
#
# Coordination Sequence:
#
# PCOD8329082 Si02
#       6
#    24  12  24  12  24  12
#     4  10  21  37  58  83 110 144 185 230 276 323
#     4   9  17  31  53  81 111 141 174 213 259 312
#     4  11  23  39  59  83 111 143 182 227 275 325
#     4  11  23  39  59  81 109 144 181 221 269 331
#     4  10  20  33  52  79 114 152 189 227 270 320
#     4  10  21  35  51  76 109 147 186 228 279 331
#
# _framework density 18.597170999999999
#
# number of rings (size 3 to 8) (size 9 to 14) (size 15 to 20)
#    0.000    1.778    1.111    3.222    0.000    5.778 
#    0.000    3.333    0.000    1.667    0.000    0.000 
#    0.000    5.333    0.000    0.000    0.000    0.444 
#
# Total GULP energy -1339584.964240 kJ/mol
# GULP energy per Si atom -12403.564484 kJ/mol
# Density = 1.855484 g / cm^3
# Si number density = 18.597171 Si / 1000 Ang^3
#
#
#
# Elastic Constant Matrix: (Units=GPa)
#
#
# Indices 1 2 3 4 5 6 
#
# 1 120.0681 80.1781 37.4129 0.0000 0.0000 0.0000
# 2 80.1781 120.0681 37.4129 0.0000 0.0000 0.0000
# 3 37.4129 37.4129 102.4181 0.0000 0.0000 0.0000
# 4 0.0000 0.0000 0.0000 71.2363 0.0000 0.0000
# 5 0.0000 0.0000 0.0000 0.0000 71.2363 0.0000
# 6 0.0000 0.0000 0.0000 0.0000 0.0000 19.9450
#
#
#
# Elastic Compliance Matrix: (Units=1/GPa)
#
#
# Indices 1 2 3 4 5 6 
#
# 1 0.015426 -0.009643 -0.002113 0.000000 0.000000 0.000000
# 2 -0.009643 0.015426 -0.002113 0.000000 0.000000 0.000000
# 3 -0.002113 -0.002113 0.011307 0.000000 0.000000 0.000000
# 4 0.000000 0.000000 0.000000 0.014038 0.000000 0.000000
# 5 0.000000 0.000000 0.000000 0.000000 0.014038 0.000000
# 6 0.000000 0.000000 0.000000 0.000000 0.000000 0.050138
#
#
# Mechanical properties :
#
#
# Convention : Reuss Voigt Hill
#
# Bulk Modulus (GPa) = 69.33145 72.50691 70.91918
# Shear Modulus (GPa) = 32.69752 44.98689 38.84221
#
# Velocity S-wave (km/s) = 4.19764 4.92369 4.57509
# Velocity P-wave (km/s) = 7.80097 8.44964 8.13177
#
# Compressibility (1/GPa) = 0.01442347
#
# Stress axis : x y z
#
# Youngs Moduli (GPa) = 64.82524 64.82524 88.43806
#
# Poissons Ratio (x) = 0.62510 0.18683
# Poissons Ratio (y) = 0.62510 0.18683
# Poissons Ratio (z) = 0.13695 0.13695
#
# Static dielectric constant tensor:
#      x y z
#    x 3.476880 0.000000 0.000000 
#    y 0.000000 3.476880 0.000000 
#    z 0.000000 0.000000 3.460430 
# 
# 
# High freq. dielectric constant tensor:
#      x y z
#    x 1.721460 0.000000 0.000000 
#    y 0.000000 1.721460 0.000000 
#    z 0.000000 0.000000 1.727820 
# 
# From -- ./inp_files/7366.got.cif
#   From: 2010.03.12/outbox.cif.g09.slc.cpg/sg191_4_cif.got.tgz:7366.got - 2010.04.01 12:09:02.
