data_PCOD8329650
_publ_section_title
;
Structure prediction by ZEFSAII (Michael W. Deem and Ramdas Pophale) SiO2 
 PCOD8329650
Probable space group: P 6/M C C
;
_chemical_formula_sum "Si O2"
_cell_formula_units_Z 72
_cell_length_a 16.777811
_cell_length_b 16.777811
_cell_length_c 14.787713
_cell_angle_alpha 90.000000
_cell_angle_beta 90.000000
_cell_angle_gamma 120.000000
_cell_volume 3604.974861
_symmetry_space_group_name_H-M "P 6/M C C"
_symmetry_group_IT_number 192
_symmetry_cell_setting 'hexagonal'
loop_
_space_group_symop_operation_xyz
x,y,z
x-y,x,z
-y,x-y,z
-x,-y,z
-x+y,-x,z
y,-x+y,z
x-y,-y,1/2-z
-x,-x+y,1/2-z
y,x,1/2-z
-y,-x,1/2-z
-x+y,y,1/2-z
x,x-y,1/2-z
-x,-y,-z
-x+y,-x,-z
y,-x+y,-z
x,y,-z
x-y,x,-z
-y,x-y,-z
-x+y,y,1/2+z
x,x-y,1/2+z
-y,-x,1/2+z
y,x,1/2+z
x-y,-y,1/2+z
-x,-x+y,1/2+z
loop_
_atom_site_type_symbol
_atom_site_label
_atom_site_fract_x
_atom_site_fract_y
_atom_site_fract_z
Si Si1 0.406140 0.498941 0.666817
Si Si2 0.692570 0.692570 0.750000
Si Si3 0.421983 0.777528 0.500000
Si Si4 0.797738 0.834290 0.602988
O O1 0.500000 0.500000 0.637768
O O2 0.430357 0.569644 0.750000
O O3 0.325815 0.398834 0.697309
O O4 0.364726 0.528523 0.586829
O O5 0.718807 0.771061 0.674214
O O6 0.313419 0.746126 0.500000
O O7 0.825517 0.938600 0.621398
O O8 0.761797 0.804776 0.500000
#
# Coordination Sequence:
#
# PCOD8329650 Si02
#       4
#    24  12  12  24
#     4   9  21  44  64  88 124 169 202 255 326 380
#     4  10  21  38  59  92 122 164 214 252 313 376
#     4  10  23  42  64 100 120 160 215 259 319 378
#     4  10  21  39  59  89 126 166 209 257 311 374
#
# _framework density 19.9724
#
# number of rings (size 3 to 8) (size 9 to 14) (size 15 to 20)
#    0.333    2.333    0.000    1.833    2.333    2.667 
#   27.000    1.667    0.000    0.000    0.000    0.000 
#    0.000    0.000    0.000    0.000    0.000    0.000 
#
# Total GULP energy -892607.802170 kJ/mol
# GULP energy per Si atom -12397.330586 kJ/mol
# Density = 1.992694 g / cm^3
# Si number density = 19.972400 Si / 1000 Ang^3
#
#
#
# Elastic Constant Matrix: (Units=GPa)
#
#
# Indices 1 2 3 4 5 6 
#
# 1 103.2122 55.7304 72.7768 0.0000 0.0000 0.0000
# 2 55.7304 103.2122 72.7768 0.0000 0.0000 0.0000
# 3 72.7768 72.7768 149.1022 0.0000 0.0000 0.0000
# 4 0.0000 0.0000 0.0000 49.4331 0.0000 0.0000
# 5 0.0000 0.0000 0.0000 0.0000 49.4331 0.0000
# 6 0.0000 0.0000 0.0000 0.0000 0.0000 23.7409
#
#
#
# Elastic Compliance Matrix: (Units=1/GPa)
#
#
# Indices 1 2 3 4 5 6 
#
# 1 0.016219 -0.004842 -0.005553 0.000000 0.000000 0.000000
# 2 -0.004842 0.016219 -0.005553 0.000000 0.000000 0.000000
# 3 -0.005553 -0.005553 0.012128 0.000000 0.000000 0.000000
# 4 0.000000 0.000000 0.000000 0.020229 0.000000 0.000000
# 5 0.000000 0.000000 0.000000 0.000000 0.020229 0.000000
# 6 0.000000 0.000000 0.000000 0.000000 0.000000 0.042121
#
#
# Mechanical properties :
#
#
# Convention : Reuss Voigt Hill
#
# Bulk Modulus (GPa) = 78.93147 84.23275 81.58211
# Shear Modulus (GPa) = 30.62516 34.80425 32.71471
#
# Velocity S-wave (km/s) = 3.92008 4.17900 4.05161
# Velocity P-wave (km/s) = 7.75212 8.09639 7.92612
#
# Compressibility (1/GPa) = 0.01266922
#
# Stress axis : x y z
#
# Youngs Moduli (GPa) = 61.65696 61.65696 82.45592
#
# Poissons Ratio (x) = 0.29854 0.45788
# Poissons Ratio (y) = 0.29854 0.45788
# Poissons Ratio (z) = 0.34238 0.34238
#
# Static dielectric constant tensor:
#      x y z
#    x 3.538370 0.000000 0.000000 
#    y 0.000000 3.538370 0.000000 
#    z 0.000000 0.000000 3.860890 
# 
# 
# High freq. dielectric constant tensor:
#      x y z
#    x 1.770030 0.000000 0.000000 
#    y 0.000000 1.770030 0.000000 
#    z 0.000000 0.000000 1.796750 
# 
# From -- ./inp_files/2426.got.cif
#   From: 2010.03.12/outbox.cif.g09.slc.cpg/sg192_2_cif.got.tgz:2426.got - 2010.04.01 12:16:15.
