data_PCOD8329380
_publ_section_title
;
Structure prediction by ZEFSAII (Michael W. Deem and Ramdas Pophale) SiO2 
 PCOD8329380
Probable space group: P 6/M C C
;
_chemical_formula_sum "Si O2"
_cell_formula_units_Z 144
_cell_length_a 25.034050
_cell_length_b 25.034050
_cell_length_c 17.155934
_cell_angle_alpha 90.000000
_cell_angle_beta 90.000000
_cell_angle_gamma 120.000000
_cell_volume 9311.233745
_symmetry_space_group_name_H-M "P 6/M C C"
_symmetry_group_IT_number 192
_symmetry_cell_setting 'hexagonal'
loop_
_space_group_symop_operation_xyz
x,y,z
x-y,x,z
-y,x-y,z
-x,-y,z
-x+y,-x,z
y,-x+y,z
x-y,-y,1/2-z
-x,-x+y,1/2-z
y,x,1/2-z
-y,-x,1/2-z
-x+y,y,1/2-z
x,x-y,1/2-z
-x,-y,-z
-x+y,-x,-z
y,-x+y,-z
x,y,-z
x-y,x,-z
-y,x-y,-z
-x+y,y,1/2+z
x,x-y,1/2+z
-y,-x,1/2+z
y,x,1/2+z
x-y,-y,1/2+z
-x,-x+y,1/2+z
loop_
_atom_site_type_symbol
_atom_site_label
_atom_site_fract_x
_atom_site_fract_y
_atom_site_fract_z
Si Si1 0.772179 0.620574 0.181556
Si Si2 0.440259 0.088569 0.908627
Si Si3 0.779015 0.668563 0.589216
Si Si4 0.185971 0.255250 0.732855
Si Si5 0.531899 0.458812 0.162808
Si Si6 0.584679 0.947183 0.410074
O O1 0.795907 0.591814 0.250000
O O2 0.704903 0.573198 0.148549
O O3 0.817277 0.638200 0.107441
O O4 0.774983 0.682133 0.216539
O O5 0.509636 0.102907 0.890646
O O6 0.391725 0.018363 0.884146
O O7 0.434723 0.101308 0.000000
O O8 0.786439 0.689488 0.500000
O O9 0.800868 0.729115 0.641438
O O10 0.708902 0.619685 0.610554
O O11 0.203813 0.203813 0.750000
O O12 0.113293 0.226586 0.750000
O O13 0.500000 0.500000 0.159438
O O14 0.549481 0.450520 0.250000
O O15 0.481378 0.391580 0.132422
O O16 0.569341 0.946004 0.500000
#
# Coordination Sequence:
#
# PCOD8329380 Si02
#       6
#    24  24  24  24  24  24
#     4   9  19  29  43  64  89 119 150 187 220 266
#     4  10  18  29  44  62  88 120 152 183 220 264
#     4   9  17  29  45  65  91 119 151 184 222 265
#     4   9  18  31  46  65  89 119 150 186 225 269
#     4   9  18  27  40  62  87 117 148 181 216 261
#     4   9  17  28  43  63  88 118 148 183 221 261
#
# _framework density 15.465191000000001
#
# number of rings (size 3 to 8) (size 9 to 14) (size 15 to 20)
#    0.000    3.167    0.000    2.000    4.667    2.000 
#    0.000    3.333    0.000    0.167    0.000    0.000 
#    1.667    1.333    2.000    6.000    0.000    0.000 
#
# Total GULP energy -1784773.868809 kJ/mol
# GULP energy per Si atom -12394.262978 kJ/mol
# Density = 1.542999 g / cm^3
# Si number density = 15.465191 Si / 1000 Ang^3
#
#
#
# Elastic Constant Matrix: (Units=GPa)
#
#
# Indices 1 2 3 4 5 6 
#
# 1 78.2147 41.7650 49.4175 0.0000 0.0000 0.0000
# 2 41.7650 78.2147 49.4175 0.0000 0.0000 0.0000
# 3 49.4175 49.4175 86.6231 0.0000 0.0000 0.0000
# 4 0.0000 0.0000 0.0000 21.8436 0.0000 0.0000
# 5 0.0000 0.0000 0.0000 0.0000 21.8436 0.0000
# 6 0.0000 0.0000 0.0000 0.0000 0.0000 18.2249
#
#
#
# Elastic Compliance Matrix: (Units=1/GPa)
#
#
# Indices 1 2 3 4 5 6 
#
# 1 0.021580 -0.005855 -0.008971 0.000000 0.000000 0.000000
# 2 -0.005855 0.021580 -0.008971 0.000000 0.000000 0.000000
# 3 -0.008971 -0.008971 0.021780 0.000000 0.000000 0.000000
# 4 0.000000 0.000000 0.000000 0.045780 0.000000 0.000000
# 5 0.000000 0.000000 0.000000 0.000000 0.045780 0.000000
# 6 0.000000 0.000000 0.000000 0.000000 0.000000 0.054870
#
#
# Mechanical properties :
#
#
# Convention : Reuss Voigt Hill
#
# Bulk Modulus (GPa) = 57.65040 58.25029 57.95034
# Shear Modulus (GPa) = 18.88616 19.21258 19.04937
#
# Velocity S-wave (km/s) = 3.49836 3.52847 3.51345
# Velocity P-wave (km/s) = 7.32643 7.37206 7.34928
#
# Compressibility (1/GPa) = 0.01734593
#
# Stress axis : x y z
#
# Youngs Moduli (GPa) = 46.33977 46.33977 45.91467
#
# Poissons Ratio (x) = 0.27133 0.41188
# Poissons Ratio (y) = 0.27133 0.41188
# Poissons Ratio (z) = 0.41570 0.41570
#
# Static dielectric constant tensor:
#      x y z
#    x 2.795160 0.000000 0.000000 
#    y 0.000000 2.795160 0.000000 
#    z 0.000000 0.000000 3.060120 
# 
# 
# High freq. dielectric constant tensor:
#      x y z
#    x 1.565840 0.000000 0.000000 
#    y 0.000000 1.565840 0.000000 
#    z 0.000000 0.000000 1.608820 
# 
# From -- ./inp_files/4333.got.cif
#   From: 2010.03.12/outbox.cif.g09.slc.cpg/sg192_3_cif.got.tgz:4333.got - 2010.04.01 12:16:15.
