data_PCOD8329329
_publ_section_title
;
Structure prediction by ZEFSAII (Michael W. Deem and Ramdas Pophale) SiO2 
 PCOD8329329
Probable space group: P 6/M M M
;
_chemical_formula_sum "Si O2"
_cell_formula_units_Z 108
_cell_length_a 32.028313
_cell_length_b 32.028313
_cell_length_c 9.119670
_cell_angle_alpha 90.000000
_cell_angle_beta 90.000000
_cell_angle_gamma 120.000000
_cell_volume 8101.732192
_symmetry_space_group_name_H-M "P 6/M M M"
_symmetry_group_IT_number 191
_symmetry_cell_setting 'hexagonal'
loop_
_space_group_symop_operation_xyz
x,y,z
x-y,x,z
-y,x-y,z
-x,-y,z
-x+y,-x,z
y,-x+y,z
x-y,-y,-z
-x,-x+y,-z
y,x,-z
-y,-x,-z
-x+y,y,-z
x,x-y,-z
-x,-y,-z
-x+y,-x,-z
y,-x+y,-z
x,y,-z
x-y,x,-z
-y,x-y,-z
-x+y,y,z
x,x-y,z
-y,-x,z
y,x,z
x-y,-y,z
-x,-x+y,z
loop_
_atom_site_type_symbol
_atom_site_label
_atom_site_fract_x
_atom_site_fract_y
_atom_site_fract_z
Si Si1 0.528737 0.471264 0.665940
Si Si2 0.365910 0.308392 0.665726
Si Si3 0.054099 0.201104 0.330216
Si Si4 0.771984 0.057251 0.164625
Si Si5 0.447325 0.057458 0.834126
O O1 0.500000 0.500000 0.665301
O O2 0.538650 0.461351 0.500000
O O3 0.579401 0.502193 0.749491
O O4 0.376947 0.299647 0.500000
O O5 0.336782 0.336782 0.665778
O O6 0.334989 0.256860 0.745488
O O7 0.416096 0.339046 0.751815
O O8 0.054451 0.214172 0.500000
O O9 0.090242 0.180483 0.299612
O O10 0.073334 0.250451 0.240900
O O11 0.000000 0.160622 0.281614
O O12 0.740643 0.000000 0.162358
O O13 0.781253 0.078157 0.000000
O O14 0.418710 0.000000 0.834813
O O15 0.457558 0.077330 0.000000
#
# Coordination Sequence:
#
# PCOD8329329 Si02
#       5
#    12  24  24  24  24
#     4   9  15  21  27  35  49  71 101 135 169 203
#     4   9  15  22  32  45  61  81 104 129 158 192
#     4   9  17  29  44  60  77  96 115 133 155 187
#     4   9  16  25  37  53  71  88 106 129 156 186
#     4   9  15  21  28  38  53  74 101 133 167 199
#
# _framework density 13.330484
#
# number of rings (size 3 to 8) (size 9 to 14) (size 15 to 20)
#    0.000    3.000    0.000    2.333    0.000    9.778 
#    0.000    0.000    0.000    0.222    0.000    1.556 
#    0.000    0.000    0.000    5.556    0.000    5.778 
#
# Total GULP energy -1338802.955016 kJ/mol
# GULP energy per Si atom -12396.323658 kJ/mol
# Density = 1.330014 g / cm^3
# Si number density = 13.330484 Si / 1000 Ang^3
#
#
#
# Elastic Constant Matrix: (Units=GPa)
#
#
# Indices 1 2 3 4 5 6 
#
# 1 58.2779 32.5728 37.6173 0.0000 0.0000 0.0000
# 2 32.5728 58.2779 37.6173 0.0000 0.0000 0.0000
# 3 37.6173 37.6173 115.0173 0.0000 0.0000 0.0000
# 4 0.0000 0.0000 0.0000 13.1009 0.0000 0.0000
# 5 0.0000 0.0000 0.0000 0.0000 13.1009 0.0000
# 6 0.0000 0.0000 0.0000 0.0000 0.0000 12.8526
#
#
#
# Elastic Compliance Matrix: (Units=1/GPa)
#
#
# Indices 1 2 3 4 5 6 
#
# 1 0.026999 -0.011904 -0.004937 0.000000 0.000000 0.000000
# 2 -0.011904 0.026999 -0.004937 0.000000 0.000000 0.000000
# 3 -0.004937 -0.004937 0.011924 0.000000 0.000000 0.000000
# 4 0.000000 0.000000 0.000000 0.076331 0.000000 0.000000
# 5 0.000000 0.000000 0.000000 0.000000 0.076331 0.000000
# 6 0.000000 0.000000 0.000000 0.000000 0.000000 0.077806
#
#
# Mechanical properties :
#
#
# Convention : Reuss Voigt Hill
#
# Bulk Modulus (GPa) = 44.70984 49.68754 47.19869
# Shear Modulus (GPa) = 14.39263 16.06192 15.22727
#
# Velocity S-wave (km/s) = 3.28941 3.47493 3.38344
# Velocity P-wave (km/s) = 6.93104 7.31128 7.12370
#
# Compressibility (1/GPa) = 0.02236644
#
# Stress axis : x y z
#
# Youngs Moduli (GPa) = 37.03818 37.03818 83.86587
#
# Poissons Ratio (x) = 0.44089 0.41406
# Poissons Ratio (y) = 0.44089 0.41406
# Poissons Ratio (z) = 0.18286 0.18286
#
# Static dielectric constant tensor:
#      x y z
#    x 2.401290 0.000000 0.000000 
#    y 0.000000 2.401290 0.000000 
#    z 0.000000 0.000000 2.913860 
# 
# 
# High freq. dielectric constant tensor:
#      x y z
#    x 1.461170 0.000000 0.000000 
#    y 0.000000 1.461170 0.000000 
#    z 0.000000 0.000000 1.528910 
# 
# From -- ./inp_files/1734.got.cif
#   From: 2010.03.12/outbox.cif.g09.slc.cpg/sg191_1_cif.got.tgz:1734.got - 2010.04.01 12:09:02.
