data_PCOD8329915
_publ_section_title
;
Structure prediction by ZEFSAII (Michael W. Deem and Ramdas Pophale) SiO2 
 PCOD8329915
Probable space group: P 63/M C M
;
_chemical_formula_sum "Si O2"
_cell_formula_units_Z 156
_cell_length_a 22.137433
_cell_length_b 22.137433
_cell_length_c 20.634677
_cell_angle_alpha 90.000000
_cell_angle_beta 90.000000
_cell_angle_gamma 120.000000
_cell_volume 8757.554051
_symmetry_space_group_name_H-M "P 63/M C M"
_symmetry_group_IT_number 193
_symmetry_cell_setting 'hexagonal'
loop_
_space_group_symop_operation_xyz
x,y,z
x-y,x,1/2+z
-y,x-y,z
-x,-y,1/2+z
-x+y,-x,z
y,-x+y,1/2+z
x-y,-y,1/2-z
-x,-x+y,1/2-z
y,x,1/2-z
-y,-x,-z
-x+y,y,-z
x,x-y,-z
-x,-y,-z
-x+y,-x,1/2-z
y,-x+y,-z
x,y,1/2-z
x-y,x,-z
-y,x-y,1/2-z
-x+y,y,1/2+z
x,x-y,1/2+z
-y,-x,1/2+z
y,x,z
x-y,-y,z
-x,-x+y,z
loop_
_atom_site_type_symbol
_atom_site_label
_atom_site_fract_x
_atom_site_fract_y
_atom_site_fract_z
Si Si1 0.582043 0.751020 0.063166
Si Si2 0.166251 0.735018 0.174630
Si Si3 0.919634 0.412865 0.055912
Si Si4 0.799797 0.724422 0.675292
Si Si5 0.922824 0.183050 0.398085
Si Si6 0.495191 0.921126 0.176644
Si Si7 0.845351 0.922676 0.000000
O O1 0.550552 0.768874 0.126985
O O2 0.540759 0.669226 0.050675
O O3 0.663332 0.776492 0.071092
O O4 0.570597 0.785298 0.000000
O O5 0.189015 0.755618 0.250000
O O6 0.103922 0.748781 0.154237
O O7 0.136236 0.653688 0.162521
O O8 0.907400 0.434370 0.127051
O O9 0.000000 0.433965 0.046149
O O10 0.897346 0.448673 0.000000
O O11 0.794225 0.733493 0.750000
O O12 0.772841 0.772841 0.639913
O O13 0.878789 0.745039 0.660891
O O14 0.927780 0.131632 0.447804
O O15 0.000000 0.239984 0.373512
O O16 0.466031 0.912028 0.250000
O O17 0.560348 0.000000 0.167334
O O18 0.894712 0.894712 0.970287
#
# Coordination Sequence:
#
# PCOD8329915 Si02
#       7
#    24  24  24  24  24  24  12
#     4  11  21  35  53  77 104 138 172 210 262 318
#     4   9  18  32  53  80 107 135 170 211 253 302
#     4  10  21  36  54  78 106 135 169 213 262 315
#     4   9  17  30  49  74 102 132 168 210 255 303
#     4  10  20  33  48  70 100 132 169 214 259 308
#     4   9  17  32  55  81 106 134 169 210 256 304
#     4  10  19  32  48  68  96 132 174 214 254 296
#
# _framework density 17.813192999999998
#
# number of rings (size 3 to 8) (size 9 to 14) (size 15 to 20)
#    0.000    2.308    0.769    2.385    0.000    2.769 
#    0.000    1.538    0.000    8.615    0.000    0.000 
#    0.000    0.000    0.000    0.000    0.000    0.000 
#
# Total GULP energy -1933527.525819 kJ/mol
# GULP energy per Si atom -12394.407217 kJ/mol
# Density = 1.777265 g / cm^3
# Si number density = 17.813193 Si / 1000 Ang^3
#
#
#
# Elastic Constant Matrix: (Units=GPa)
#
#
# Indices 1 2 3 4 5 6 
#
# 1 122.8165 46.7020 34.9946 0.0000 0.0000 0.0000
# 2 46.7020 122.8165 34.9946 0.0000 0.0000 0.0000
# 3 34.9946 34.9946 52.6380 0.0000 0.0000 0.0000
# 4 0.0000 0.0000 0.0000 25.7098 0.0000 0.0000
# 5 0.0000 0.0000 0.0000 0.0000 25.7098 0.0000
# 6 0.0000 0.0000 0.0000 0.0000 0.0000 38.0572
#
#
#
# Elastic Compliance Matrix: (Units=1/GPa)
#
#
# Indices 1 2 3 4 5 6 
#
# 1 0.010634 -0.002504 -0.005406 0.000000 0.000000 0.000000
# 2 -0.002504 0.010634 -0.005406 0.000000 0.000000 0.000000
# 3 -0.005406 -0.005406 0.026185 0.000000 0.000000 0.000000
# 4 0.000000 0.000000 0.000000 0.038896 0.000000 0.000000
# 5 0.000000 0.000000 0.000000 0.000000 0.038896 0.000000
# 6 0.000000 0.000000 0.000000 0.000000 0.000000 0.026276
#
#
# Mechanical properties :
#
#
# Convention : Reuss Voigt Hill
#
# Bulk Modulus (GPa) = 48.01999 59.07261 53.54630
# Shear Modulus (GPa) = 27.01352 30.00068 28.50710
#
# Velocity S-wave (km/s) = 3.89844 4.10833 4.00476
# Velocity P-wave (km/s) = 6.87603 7.46584 7.17700
#
# Compressibility (1/GPa) = 0.02082466
#
# Stress axis : x y z
#
# Youngs Moduli (GPa) = 94.03382 94.03382 38.18972
#
# Poissons Ratio (x) = 0.23543 0.20644
# Poissons Ratio (y) = 0.23543 0.20644
# Poissons Ratio (z) = 0.50830 0.50830
#
# Static dielectric constant tensor:
#      x y z
#    x 3.179110 0.000000 0.000000 
#    y 0.000000 3.179110 0.000000 
#    z 0.000000 0.000000 2.876690 
# 
# 
# High freq. dielectric constant tensor:
#      x y z
#    x 1.683260 0.000000 0.000000 
#    y 0.000000 1.683260 0.000000 
#    z 0.000000 0.000000 1.689100 
# 
# From -- ./inp_files/6709.got.cif
#   From: 2010.03.12/outbox.cif.g09.slc.cpg/sg193_4_cif.got.tgz:6709.got - 2010.04.01 12:20:39.
