data_PCOD8329583
_publ_section_title
;
Structure prediction by ZEFSAII (Michael W. Deem and Ramdas Pophale) SiO2 
 PCOD8329583
Probable space group: P 6/M C C
;
_chemical_formula_sum "Si O2"
_cell_formula_units_Z 104
_cell_length_a 19.492006
_cell_length_b 19.492006
_cell_length_c 16.577720
_cell_angle_alpha 90.000000
_cell_angle_beta 90.000000
_cell_angle_gamma 120.000000
_cell_volume 5454.670289
_symmetry_space_group_name_H-M "P 6/M C C"
_symmetry_group_IT_number 192
_symmetry_cell_setting 'hexagonal'
loop_
_space_group_symop_operation_xyz
x,y,z
x-y,x,z
-y,x-y,z
-x,-y,z
-x+y,-x,z
y,-x+y,z
x-y,-y,1/2-z
-x,-x+y,1/2-z
y,x,1/2-z
-y,-x,1/2-z
-x+y,y,1/2-z
x,x-y,1/2-z
-x,-y,-z
-x+y,-x,-z
y,-x+y,-z
x,y,-z
x-y,x,-z
-y,x-y,-z
-x+y,y,1/2+z
x,x-y,1/2+z
-y,-x,1/2+z
y,x,1/2+z
x-y,-y,1/2+z
-x,-x+y,1/2+z
loop_
_atom_site_type_symbol
_atom_site_label
_atom_site_fract_x
_atom_site_fract_y
_atom_site_fract_z
Si Si1 0.197294 0.695252 0.405154
Si Si2 0.711534 0.716377 0.344523
Si Si3 0.032143 0.583953 0.658941
Si Si4 0.840451 0.169627 0.593213
Si Si5 0.666668 0.333334 0.346004
O O1 0.180315 0.673838 0.500000
O O2 0.127498 0.629318 0.349406
O O3 0.201053 0.778451 0.386532
O O4 0.279646 0.701930 0.379217
O O5 0.705503 0.705503 0.250000
O O6 0.637037 0.637435 0.383611
O O7 0.708687 0.794277 0.364060
O O8 0.791393 0.721938 0.376938
O O9 0.000000 0.500000 0.613373
O O10 0.000000 0.565566 0.750000
O O11 0.838372 0.153046 0.500000
O O12 0.666668 0.333334 0.250000
#
# Coordination Sequence:
#
# PCOD8329583 Si02
#       5
#    24  24  24  24   8
#     4  10  23  41  58  85 117 153 200 247 298 361
#     4  10  20  35  58  87 117 153 191 244 289 348
#     4   9  20  35  59  83 114 148 194 243 294 351
#     4  10  21  38  60  85 118 153 195 239 296 353
#     4  12  28  38  61  81 115 161 205 252 307 356
#
# _framework density 19.066230999999998
#
# number of rings (size 3 to 8) (size 9 to 14) (size 15 to 20)
#    0.000    2.077    0.000    2.077    6.462    5.077 
#    0.000    0.000    0.000    0.462    0.000    3.231 
#    0.000    0.000    0.000    0.000    0.000    0.000 
#
# Total GULP energy -1289236.140112 kJ/mol
# GULP energy per Si atom -12396.501347 kJ/mol
# Density = 1.902284 g / cm^3
# Si number density = 19.066231 Si / 1000 Ang^3
#
#
#
# Elastic Constant Matrix: (Units=GPa)
#
#
# Indices 1 2 3 4 5 6 
#
# 1 132.9966 81.8508 35.8164 0.0001 0.0000 0.0000
# 2 81.8508 132.9972 35.8163 0.0002 0.0000 0.0000
# 3 35.8164 35.8163 76.4214 0.0000 0.0000 -0.0001
# 4 0.0001 0.0002 0.0000 29.0180 0.0000 0.0000
# 5 0.0000 0.0000 0.0000 0.0000 29.0178 0.0001
# 6 0.0000 0.0000 -0.0001 0.0000 0.0001 25.5727
#
#
#
# Elastic Compliance Matrix: (Units=1/GPa)
#
#
# Indices 1 2 3 4 5 6 
#
# 1 0.012534 -0.007018 -0.002585 0.000000 0.000000 0.000000
# 2 -0.007018 0.012534 -0.002585 0.000000 0.000000 0.000000
# 3 -0.002585 -0.002585 0.015509 0.000000 0.000000 0.000000
# 4 0.000000 0.000000 0.000000 0.034461 0.000000 0.000000
# 5 0.000000 0.000000 0.000000 0.000000 0.034462 0.000000
# 6 0.000000 0.000000 0.000000 0.000000 0.000000 0.039104
#
#
# Mechanical properties :
#
#
# Convention : Reuss Voigt Hill
#
# Bulk Modulus (GPa) = 61.72813 72.15359 66.94086
# Shear Modulus (GPa) = 28.02988 29.31717 28.67352
#
# Velocity S-wave (km/s) = 3.83839 3.92554 3.88221
# Velocity P-wave (km/s) = 7.21736 7.64672 7.43514
#
# Compressibility (1/GPa) = 0.01620007
#
# Stress axis : x y z
#
# Youngs Moduli (GPa) = 79.78183 79.78224 64.47985
#
# Poissons Ratio (x) = 0.55989 0.16671
# Poissons Ratio (y) = 0.55988 0.16670
# Poissons Ratio (z) = 0.20627 0.20627
#
# Static dielectric constant tensor:
#      x y z
#    x 3.521620 0.000000 0.000000 
#    y 0.000000 3.521620 0.000000 
#    z 0.000000 0.000000 3.422470 
# 
# 
# High freq. dielectric constant tensor:
#      x y z
#    x 1.739190 0.000000 0.000000 
#    y 0.000000 1.739190 0.000000 
#    z 0.000000 0.000000 1.737960 
# 
# From -- ./inp_files/2859.got.cif
#   From: 2010.03.12/outbox.cif.g09.slc.cpg/sg192_2_cif.got.tgz:2859.got - 2010.04.01 12:16:15.
