data_PCOD8329786
_publ_section_title
;
Structure prediction by ZEFSAII (Michael W. Deem and Ramdas Pophale) SiO2 
 PCOD8329786
Probable space group: P 63/M C M
;
_chemical_formula_sum "Si O2"
_cell_formula_units_Z 144
_cell_length_a 25.337346
_cell_length_b 25.337346
_cell_length_c 15.898999
_cell_angle_alpha 90.000000
_cell_angle_beta 90.000000
_cell_angle_gamma 120.000000
_cell_volume 8839.397372
_symmetry_space_group_name_H-M "P 63/M C M"
_symmetry_group_IT_number 193
_symmetry_cell_setting 'hexagonal'
loop_
_space_group_symop_operation_xyz
x,y,z
x-y,x,1/2+z
-y,x-y,z
-x,-y,1/2+z
-x+y,-x,z
y,-x+y,1/2+z
x-y,-y,1/2-z
-x,-x+y,1/2-z
y,x,1/2-z
-y,-x,-z
-x+y,y,-z
x,x-y,-z
-x,-y,-z
-x+y,-x,1/2-z
y,-x+y,-z
x,y,1/2-z
x-y,x,-z
-y,x-y,1/2-z
-x+y,y,1/2+z
x,x-y,1/2+z
-y,-x,1/2+z
y,x,z
x-y,-y,z
-x,-x+y,z
loop_
_atom_site_type_symbol
_atom_site_label
_atom_site_fract_x
_atom_site_fract_y
_atom_site_fract_z
Si Si1 0.707928 0.168076 0.498194
Si Si2 0.743582 0.068734 0.991040
Si Si3 0.668058 0.458091 0.345163
Si Si4 0.789168 0.455343 0.154952
Si Si5 0.782951 0.852501 0.923934
Si Si6 0.068813 0.254203 0.157344
O O1 0.775304 0.224697 0.500000
O O2 0.712173 0.107762 0.487258
O O3 0.673886 0.166645 0.585241
O O4 0.671232 0.168222 0.415536
O O5 0.781619 0.093602 0.904258
O O6 0.688864 0.000000 0.980651
O O7 0.790998 0.072605 0.061665
O O8 0.670816 0.483295 0.250000
O O9 0.720483 0.440972 0.358159
O O10 0.605491 0.396797 0.360866
O O11 0.811856 0.480483 0.250000
O O12 0.836160 0.836160 0.908636
O O13 0.775642 0.887661 0.844198
O O14 0.800831 0.900416 0.000000
O O15 0.069043 0.278372 0.250000
O O16 0.000000 0.203856 0.128745
#
# Coordination Sequence:
#
# PCOD8329786 Si02
#       6
#    24  24  24  24  24  24
#     4  10  18  28  45  69  92 114 145 186 228 265
#     4   9  18  32  47  63  86 116 149 185 224 263
#     4   9  17  28  44  67  93 120 148 178 217 269
#     4   9  17  29  45  66  93 122 148 177 218 269
#     4   9  16  28  46  65  86 114 146 179 216 261
#     4   9  17  29  46  67  89 114 143 177 221 269
#
# _framework density 16.290703000000001
#
# number of rings (size 3 to 8) (size 9 to 14) (size 15 to 20)
#    0.000    2.833    0.000    3.833    0.000    2.333 
#    0.000    5.833    0.000    6.500    0.000    2.333 
#    0.000    0.000    0.000    0.000    0.000    0.000 
#
# Total GULP energy -1784708.687882 kJ/mol
# GULP energy per Si atom -12393.810333 kJ/mol
# Density = 1.625362 g / cm^3
# Si number density = 16.290703 Si / 1000 Ang^3
#
#
#
# Elastic Constant Matrix: (Units=GPa)
#
#
# Indices 1 2 3 4 5 6 
#
# 1 83.7589 36.7303 37.6051 0.0000 0.0000 0.0000
# 2 36.7303 83.7589 37.6051 0.0000 0.0000 0.0000
# 3 37.6051 37.6051 90.4490 0.0000 0.0000 0.0000
# 4 0.0000 0.0000 0.0000 16.8218 0.0000 0.0000
# 5 0.0000 0.0000 0.0000 0.0000 16.8218 0.0000
# 6 0.0000 0.0000 0.0000 0.0000 0.0000 23.5143
#
#
#
# Elastic Compliance Matrix: (Units=1/GPa)
#
#
# Indices 1 2 3 4 5 6 
#
# 1 0.016236 -0.005028 -0.004660 0.000000 0.000000 0.000000
# 2 -0.005028 0.016236 -0.004660 0.000000 0.000000 0.000000
# 3 -0.004660 -0.004660 0.014931 0.000000 0.000000 0.000000
# 4 0.000000 0.000000 0.000000 0.059447 0.000000 0.000000
# 5 0.000000 0.000000 0.000000 0.000000 0.059447 0.000000
# 6 0.000000 0.000000 0.000000 0.000000 0.000000 0.042527
#
#
# Mechanical properties :
#
#
# Convention : Reuss Voigt Hill
#
# Bulk Modulus (GPa) = 53.45439 53.53863 53.49651
# Shear Modulus (GPa) = 20.51244 21.16666 20.83955
#
# Velocity S-wave (km/s) = 3.55230 3.60850 3.58051
# Velocity P-wave (km/s) = 7.05047 7.09208 7.07131
#
# Compressibility (1/GPa) = 0.01870754
#
# Stress axis : x y z
#
# Youngs Moduli (GPa) = 61.59163 61.59163 66.97564
#
# Poissons Ratio (x) = 0.30966 0.31210
# Poissons Ratio (y) = 0.30966 0.31210
# Poissons Ratio (z) = 0.28701 0.28701
#
# Static dielectric constant tensor:
#      x y z
#    x 2.947260 0.000000 0.000000 
#    y 0.000000 2.947260 0.000000 
#    z 0.000000 0.000000 3.263070 
# 
# 
# High freq. dielectric constant tensor:
#      x y z
#    x 1.607370 0.000000 0.000000 
#    y 0.000000 1.607370 0.000000 
#    z 0.000000 0.000000 1.630930 
# 
# From -- ./inp_files/5545.got.cif
#   From: 2010.03.12/outbox.cif.g09.slc.cpg/sg193_3_cif.got.tgz:5545.got - 2010.04.01 12:20:39.
