data_PCOD8329606
_publ_section_title
;
Structure prediction by ZEFSAII (Michael W. Deem and Ramdas Pophale) SiO2 
 PCOD8329606
Probable space group: P 6/M C C
;
_chemical_formula_sum "Si O2"
_cell_formula_units_Z 168
_cell_length_a 16.908865
_cell_length_b 16.908865
_cell_length_c 33.541609
_cell_angle_alpha 90.000000
_cell_angle_beta 90.000000
_cell_angle_gamma 120.000000
_cell_volume 8305.072675
_symmetry_space_group_name_H-M "P 6/M C C"
_symmetry_group_IT_number 192
_symmetry_cell_setting 'hexagonal'
loop_
_space_group_symop_operation_xyz
x,y,z
x-y,x,z
-y,x-y,z
-x,-y,z
-x+y,-x,z
y,-x+y,z
x-y,-y,1/2-z
-x,-x+y,1/2-z
y,x,1/2-z
-y,-x,1/2-z
-x+y,y,1/2-z
x,x-y,1/2-z
-x,-y,-z
-x+y,-x,-z
y,-x+y,-z
x,y,-z
x-y,x,-z
-y,x-y,-z
-x+y,y,1/2+z
x,x-y,1/2+z
-y,-x,1/2+z
y,x,1/2+z
x-y,-y,1/2+z
-x,-x+y,1/2+z
loop_
_atom_site_type_symbol
_atom_site_label
_atom_site_fract_x
_atom_site_fract_y
_atom_site_fract_z
Si Si1 0.348001 0.493711 0.117363
Si Si2 0.000010 0.412686 0.684610
Si Si3 0.518885 0.837992 0.630364
Si Si4 0.786386 0.885935 0.354815
Si Si5 0.225154 0.899839 0.924882
Si Si6 0.302856 0.082074 0.775957
Si Si7 0.911103 0.275770 0.955800
O O1 0.385895 0.441846 0.143787
O O2 0.420200 0.600710 0.116996
O O3 0.256736 0.482938 0.137293
O O4 0.333030 0.450943 0.073178
O O5 0.045185 0.372326 0.714411
O O6 0.000000 0.500000 0.704777
O O7 0.896578 0.338933 0.671384
O O8 0.583780 0.892674 0.593433
O O9 0.853169 0.846550 0.357650
O O10 0.716589 0.861819 0.391041
O O11 0.731054 0.843813 0.314421
O O12 0.174153 0.827326 0.960042
O O13 0.269134 0.002508 0.940609
O O14 0.350761 0.175381 0.750000
O O15 0.220441 0.000000 0.750000
O O16 0.931462 0.320246 0.000000
#
# Coordination Sequence:
#
# PCOD8329606 Si02
#       7
#    24  24  24  24  24  24  24
#     4  10  21  38  63  90 125 160 213 269 310 386
#     4  10  22  41  65  94 123 167 221 267 312 379
#     4  10  20  37  63  91 121 158 217 262 313 372
#     4  12  23  40  62  92 125 174 216 268 317 388
#     4  11  21  38  62  84 122 161 221 260 305 385
#     4  12  25  39  63  95 132 165 213 261 332 390
#     4  11  22  37  58  89 123 163 207 265 330 375
#
# _framework density 20.228601000000001
#
# number of rings (size 3 to 8) (size 9 to 14) (size 15 to 20)
#    0.000    1.143    4.286    3.429    2.000    0.286 
#    0.000    4.286    0.000    0.000    0.000    2.000 
#    0.000    0.000    0.000    0.000    0.000    0.000 
#
# Total GULP energy -2081885.953126 kJ/mol
# GULP energy per Si atom -12392.178292 kJ/mol
# Density = 2.018256 g / cm^3
# Si number density = 20.228601 Si / 1000 Ang^3
#
#
#
# Elastic Constant Matrix: (Units=GPa)
#
#
# Indices 1 2 3 4 5 6 
#
# 1 111.3084 38.1145 35.5563 0.0000 0.0000 0.0000
# 2 38.1145 111.3084 35.5563 0.0000 0.0000 0.0000
# 3 35.5563 35.5563 93.1190 0.0000 0.0000 0.0000
# 4 0.0000 0.0000 0.0000 42.8879 0.0000 0.0000
# 5 0.0000 0.0000 0.0000 0.0000 42.8879 0.0000
# 6 0.0000 0.0000 0.0000 0.0000 0.0000 36.5969
#
#
#
# Elastic Compliance Matrix: (Units=1/GPa)
#
#
# Indices 1 2 3 4 5 6 
#
# 1 0.010920 -0.002742 -0.003123 0.000000 0.000000 0.000000
# 2 -0.002742 0.010920 -0.003123 0.000000 0.000000 0.000000
# 3 -0.003123 -0.003123 0.013124 0.000000 0.000000 0.000000
# 4 0.000000 0.000000 0.000000 0.023317 0.000000 0.000000
# 5 0.000000 0.000000 0.000000 0.000000 0.023317 0.000000
# 6 0.000000 0.000000 0.000000 0.000000 0.000000 0.027325
#
#
# Mechanical properties :
#
#
# Convention : Reuss Voigt Hill
#
# Bulk Modulus (GPa) = 58.85993 59.35446 59.10719
# Shear Modulus (GPa) = 37.71842 38.24180 37.98011
#
# Velocity S-wave (km/s) = 4.32280 4.35268 4.33777
# Velocity P-wave (km/s) = 7.35364 7.39369 7.37369
#
# Compressibility (1/GPa) = 0.01698949
#
# Stress axis : x y z
#
# Youngs Moduli (GPa) = 91.57090 91.57090 76.19719
#
# Poissons Ratio (x) = 0.25107 0.23796
# Poissons Ratio (y) = 0.25107 0.23796
# Poissons Ratio (z) = 0.28597 0.28597
#
# Static dielectric constant tensor:
#      x y z
#    x 4.699400 0.000000 0.000000 
#    y 0.000000 4.699400 0.000000 
#    z 0.000000 0.000000 3.586720 
# 
# 
# High freq. dielectric constant tensor:
#      x y z
#    x 1.795750 0.000000 0.000000 
#    y 0.000000 1.795750 0.000000 
#    z 0.000000 0.000000 1.776980 
# 
# From -- ./inp_files/7187.got.cif
#   From: 2010.03.12/outbox.cif.g09.slc.cpg/sg192_4_cif.got.tgz:7187.got - 2010.04.01 12:16:15.
