data_PCOD8329530
_publ_section_title
;
Structure prediction by ZEFSAII (Michael W. Deem and Ramdas Pophale) SiO2 
 PCOD8329530
Probable space group: P 6/M C C
;
_chemical_formula_sum "Si O2"
_cell_formula_units_Z 144
_cell_length_a 32.308781
_cell_length_b 32.308781
_cell_length_c 8.727930
_cell_angle_alpha 90.000000
_cell_angle_beta 90.000000
_cell_angle_gamma 120.000000
_cell_volume 7890.109514
_symmetry_space_group_name_H-M "P 6/M C C"
_symmetry_group_IT_number 192
_symmetry_cell_setting 'hexagonal'
loop_
_space_group_symop_operation_xyz
x,y,z
x-y,x,z
-y,x-y,z
-x,-y,z
-x+y,-x,z
y,-x+y,z
x-y,-y,1/2-z
-x,-x+y,1/2-z
y,x,1/2-z
-y,-x,1/2-z
-x+y,y,1/2-z
x,x-y,1/2-z
-x,-y,-z
-x+y,-x,-z
y,-x+y,-z
x,y,-z
x-y,x,-z
-y,x-y,-z
-x+y,y,1/2+z
x,x-y,1/2+z
-y,-x,1/2+z
y,x,1/2+z
x-y,-y,1/2+z
-x,-x+y,1/2+z
loop_
_atom_site_type_symbol
_atom_site_label
_atom_site_fract_x
_atom_site_fract_y
_atom_site_fract_z
Si Si1 0.473666 0.280792 0.817816
Si Si2 0.145294 0.616790 0.818254
Si Si3 0.104847 0.719990 0.181589
Si Si4 0.861236 0.809775 0.679966
Si Si5 0.562673 0.950202 0.821658
Si Si6 0.700258 0.806353 0.180352
O O1 0.488725 0.244363 0.750000
O O2 0.512896 0.332516 0.757154
O O3 0.420817 0.265619 0.759069
O O4 0.473867 0.279839 0.000000
O O5 0.158920 0.579460 0.750000
O O6 0.090709 0.600471 0.772675
O O7 0.152361 0.621202 0.000000
O O8 0.065494 0.666334 0.231069
O O9 0.086274 0.754724 0.242579
O O10 0.112257 0.724189 0.000000
O O11 0.843405 0.843405 0.750000
O O12 0.912776 0.825551 0.750000
O O13 0.866876 0.817319 0.500000
O O14 0.823803 0.754957 0.722997
O O15 0.573858 0.000000 0.750000
O O16 0.565898 0.958064 0.000000
O O17 0.684442 0.842221 0.250000
O O18 0.691674 0.803087 0.000000
#
# Coordination Sequence:
#
# PCOD8329530 Si02
#       6
#    24  24  24  24  24  24
#     4  11  21  35  56  81 108 140 175 217 265 317
#     4  10  21  38  57  81 108 138 176 219 266 318
#     4  10  20  34  50  73 106 143 181 223 265 311
#     4  10  21  37  57  80 107 138 175 216 261 311
#     4   9  20  35  51  72 102 138 179 223 266 310
#     4  10  20  33  50  74 103 138 176 215 257 306
#
# _framework density 18.250698
#
# number of rings (size 3 to 8) (size 9 to 14) (size 15 to 20)
#    0.000    2.000    0.000    5.000    0.000    7.000 
#    0.000    5.000    0.000    0.500    0.000    3.500 
#    0.000    0.000    0.000    0.000    0.000    0.000 
#
# Total GULP energy -1786067.568796 kJ/mol
# GULP energy per Si atom -12403.247006 kJ/mol
# Density = 1.820916 g / cm^3
# Si number density = 18.250698 Si / 1000 Ang^3
#
#
#
# Elastic Constant Matrix: (Units=GPa)
#
#
# Indices 1 2 3 4 5 6 
#
# 1 125.6457 33.1315 47.5395 0.0000 0.0000 0.0000
# 2 33.1315 125.6457 47.5395 0.0000 0.0000 0.0000
# 3 47.5395 47.5395 104.1596 0.0000 0.0000 0.0000
# 4 0.0000 0.0000 0.0000 28.6781 0.0000 0.0000
# 5 0.0000 0.0000 0.0000 0.0000 28.6781 0.0000
# 6 0.0000 0.0000 0.0000 0.0000 0.0000 46.2571
#
#
#
# Elastic Compliance Matrix: (Units=1/GPa)
#
#
# Indices 1 2 3 4 5 6 
#
# 1 0.009738 -0.001071 -0.003956 0.000000 0.000000 0.000000
# 2 -0.001071 0.009738 -0.003956 0.000000 0.000000 0.000000
# 3 -0.003956 -0.003956 0.013211 0.000000 0.000000 0.000000
# 4 0.000000 0.000000 0.000000 0.034870 0.000000 0.000000
# 5 0.000000 0.000000 0.000000 0.000000 0.034870 0.000000
# 6 0.000000 0.000000 0.000000 0.000000 0.000000 0.021618
#
#
# Mechanical properties :
#
#
# Convention : Reuss Voigt Hill
#
# Bulk Modulus (GPa) = 67.92286 67.98579 67.95432
# Shear Modulus (GPa) = 34.03263 35.87201 34.95232
#
# Velocity S-wave (km/s) = 4.32294 4.43822 4.38096
# Velocity P-wave (km/s) = 7.88761 7.97469 7.93127
#
# Compressibility (1/GPa) = 0.01472258
#
# Stress axis : x y z
#
# Youngs Moduli (GPa) = 102.69047 102.69047 75.69195
#
# Poissons Ratio (x) = 0.11000 0.29941
# Poissons Ratio (y) = 0.11000 0.29941
# Poissons Ratio (z) = 0.40621 0.40621
#
# Static dielectric constant tensor:
#      x y z
#    x 3.501750 0.000000 0.000000 
#    y 0.000000 3.501750 0.000000 
#    z 0.000000 0.000000 3.429270 
# 
# 
# High freq. dielectric constant tensor:
#      x y z
#    x 1.699510 0.000000 0.000000 
#    y 0.000000 1.699510 0.000000 
#    z 0.000000 0.000000 1.722880 
# 
# From -- ./inp_files/1190.got.cif
#   From: 2010.03.12/outbox.cif.g09.slc.cpg/sg192_1_cif.got.tgz:1190.got - 2010.04.01 12:16:15.
