data_PCOD8329815
_publ_section_title
;
Structure prediction by ZEFSAII (Michael W. Deem and Ramdas Pophale) SiO2 
 PCOD8329815
Probable space group: P 63/M C M
;
_chemical_formula_sum "Si O2"
_cell_formula_units_Z 132
_cell_length_a 17.431794
_cell_length_b 17.431794
_cell_length_c 28.355098
_cell_angle_alpha 90.000000
_cell_angle_beta 90.000000
_cell_angle_gamma 120.000000
_cell_volume 7461.840375
_symmetry_space_group_name_H-M "P 63/M C M"
_symmetry_group_IT_number 193
_symmetry_cell_setting 'hexagonal'
loop_
_space_group_symop_operation_xyz
x,y,z
x-y,x,1/2+z
-y,x-y,z
-x,-y,1/2+z
-x+y,-x,z
y,-x+y,1/2+z
x-y,-y,1/2-z
-x,-x+y,1/2-z
y,x,1/2-z
-y,-x,-z
-x+y,y,-z
x,x-y,-z
-x,-y,-z
-x+y,-x,1/2-z
y,-x+y,-z
x,y,1/2-z
x-y,x,-z
-y,x-y,1/2-z
-x+y,y,1/2+z
x,x-y,1/2+z
-y,-x,1/2+z
y,x,z
x-y,-y,z
-x,-x+y,z
loop_
_atom_site_type_symbol
_atom_site_label
_atom_site_fract_x
_atom_site_fract_y
_atom_site_fract_z
Si Si1 0.102786 0.897215 0.000000
Si Si2 0.428346 0.000000 0.303383
Si Si3 0.389348 0.000000 0.697799
Si Si4 0.644227 0.744477 0.949287
Si Si5 0.373808 0.897151 0.027674
Si Si6 0.842148 0.350550 0.131898
Si Si7 0.473639 0.306621 0.361913
O O1 0.158322 0.889080 0.956256
O O2 0.000000 0.855853 0.984795
O O3 0.519523 0.000000 0.300561
O O4 0.356368 0.916915 0.333035
O O5 0.394459 0.000000 0.250000
O O6 0.314566 0.909459 0.673239
O O7 0.354108 0.000000 0.750000
O O8 0.673732 0.673732 0.934624
O O9 0.579666 0.741634 0.908976
O O10 0.590632 0.712676 0.998355
O O11 0.332712 0.851751 0.077333
O O12 0.440866 0.000000 0.037542
O O13 0.429045 0.858089 0.000000
O O14 0.844343 0.442792 0.130139
O O15 0.754778 0.268384 0.154915
#
# Coordination Sequence:
#
# PCOD8329815 Si02
#       7
#    12  12  12  24  24  24  24
#     4  10  21  36  54  78 112 152 194 245 294 340
#     4   9  20  38  56  74  98 130 174 227 281 329
#     4   9  20  38  59  77  99 140 182 226 291 350
#     4  10  19  33  53  78 108 148 189 226 271 337
#     4  10  18  30  53  77 106 148 186 217 259 322
#     4  11  21  34  53  79 106 143 182 221 273 331
#     4  11  21  35  54  78 112 143 183 231 276 333
#
# _framework density 17.690006
#
# number of rings (size 3 to 8) (size 9 to 14) (size 15 to 20)
#    0.000    1.818    3.636    1.545    0.000    0.727 
#    1.636    0.000    0.000    2.182    0.000    0.000 
#    0.000    0.000    0.000    0.000    0.000    3.636 
#
# Total GULP energy -1635970.627588 kJ/mol
# GULP energy per Si atom -12393.716876 kJ/mol
# Density = 1.764974 g / cm^3
# Si number density = 17.690006 Si / 1000 Ang^3
#
#
#
# Elastic Constant Matrix: (Units=GPa)
#
#
# Indices 1 2 3 4 5 6 
#
# 1 88.9598 27.8336 34.2847 0.0000 0.0000 0.0000
# 2 27.8336 88.9598 34.2847 0.0000 0.0000 0.0000
# 3 34.2847 34.2847 107.6913 0.0000 0.0000 0.0000
# 4 0.0000 0.0000 0.0000 8.5771 0.0000 0.0000
# 5 0.0000 0.0000 0.0000 0.0000 8.5771 0.0000
# 6 0.0000 0.0000 0.0000 0.0000 0.0000 30.5631
#
#
#
# Elastic Compliance Matrix: (Units=1/GPa)
#
#
# Indices 1 2 3 4 5 6 
#
# 1 0.013445 -0.002915 -0.003352 0.000000 0.000000 0.000000
# 2 -0.002915 0.013445 -0.003352 0.000000 0.000000 0.000000
# 3 -0.003352 -0.003352 0.011420 0.000000 0.000000 0.000000
# 4 0.000000 0.000000 0.000000 0.116589 0.000000 0.000000
# 5 0.000000 0.000000 0.000000 0.000000 0.116589 0.000000
# 6 0.000000 0.000000 0.000000 0.000000 0.000000 0.032719
#
#
# Mechanical properties :
#
#
# Convention : Reuss Voigt Hill
#
# Bulk Modulus (GPa) = 52.43488 53.15743 52.79615
# Shear Modulus (GPa) = 15.16053 22.15733 18.65893
#
# Velocity S-wave (km/s) = 2.93065 3.54295 3.25125
# Velocity P-wave (km/s) = 6.41537 6.84480 6.63356
#
# Compressibility (1/GPa) = 0.01907128
#
# Stress axis : x y z
#
# Youngs Moduli (GPa) = 74.37721 74.37721 87.56271
#
# Poissons Ratio (x) = 0.21678 0.29355
# Poissons Ratio (y) = 0.21678 0.29355
# Poissons Ratio (z) = 0.24935 0.24935
#
# Static dielectric constant tensor:
#      x y z
#    x 3.266410 0.000000 0.000000 
#    y 0.000000 3.266410 0.000000 
#    z 0.000000 0.000000 3.245970 
# 
# 
# High freq. dielectric constant tensor:
#      x y z
#    x 1.678600 0.000000 0.000000 
#    y 0.000000 1.678600 0.000000 
#    z 0.000000 0.000000 1.665650 
# 
# From -- ./inp_files/8376.got.cif
#   From: 2010.03.12/outbox.cif.g09.slc.cpg/sg193_5_cif.got.tgz:8376.got - 2010.04.01 12:20:39.
