data_PCOD8329863
_publ_section_title
;
Structure prediction by ZEFSAII (Michael W. Deem and Ramdas Pophale) SiO2 
 PCOD8329863
Probable space group: P 63/M C M
;
_chemical_formula_sum "Si O2"
_cell_formula_units_Z 96
_cell_length_a 27.571034
_cell_length_b 27.571034
_cell_length_c 9.058347
_cell_angle_alpha 90.000000
_cell_angle_beta 90.000000
_cell_angle_gamma 120.000000
_cell_volume 5963.286741
_symmetry_space_group_name_H-M "P 63/M C M"
_symmetry_group_IT_number 193
_symmetry_cell_setting 'hexagonal'
loop_
_space_group_symop_operation_xyz
x,y,z
x-y,x,1/2+z
-y,x-y,z
-x,-y,1/2+z
-x+y,-x,z
y,-x+y,1/2+z
x-y,-y,1/2-z
-x,-x+y,1/2-z
y,x,1/2-z
-y,-x,-z
-x+y,y,-z
x,x-y,-z
-x,-y,-z
-x+y,-x,1/2-z
y,-x+y,-z
x,y,1/2-z
x-y,x,-z
-y,x-y,1/2-z
-x+y,y,1/2+z
x,x-y,1/2+z
-y,-x,1/2+z
y,x,z
x-y,-y,z
-x,-x+y,z
loop_
_atom_site_type_symbol
_atom_site_label
_atom_site_fract_x
_atom_site_fract_y
_atom_site_fract_z
Si Si1 0.226974 0.063795 0.577290
Si Si2 0.440319 0.170234 0.577798
Si Si3 0.665253 0.726488 0.925400
Si Si4 0.665297 0.232484 0.075849
O O1 0.209616 0.104808 0.500000
O O2 0.229452 0.074849 0.750000
O O3 0.287715 0.075792 0.519600
O O4 0.180498 0.000000 0.539192
O O5 0.425801 0.212901 0.500000
O O6 0.432375 0.175525 0.750000
O O7 0.396419 0.107958 0.518949
O O8 0.503399 0.184630 0.542667
O O9 0.667187 0.725891 0.750000
O O10 0.679946 0.679946 0.986924
O O11 0.663118 0.242429 0.250000
O O12 0.709481 0.290520 0.000000
O O13 0.605407 0.210813 0.000000
#
# Coordination Sequence:
#
# PCOD8329863 Si02
#       4
#    24  24  24  24
#     4   9  17  28  43  64  88 113 140 171 208 248
#     4   9  17  28  44  65  86 111 141 172 208 248
#     4   8  14  26  44  65  88 112 139 171 205 245
#     4  10  19  30  44  63  86 111 140 173 210 250
#
# _framework density 16.098504999999999
#
# number of rings (size 3 to 8) (size 9 to 14) (size 15 to 20)
#    0.000    3.000    0.000    3.250    0.000    1.500 
#    0.000    0.000    0.000    3.250    0.000    0.000 
#    0.000    0.000    0.000    0.000    0.000    0.750 
#
# Total GULP energy -1189921.316807 kJ/mol
# GULP energy per Si atom -12395.013717 kJ/mol
# Density = 1.606186 g / cm^3
# Si number density = 16.098505 Si / 1000 Ang^3
#
#
#
# Elastic Constant Matrix: (Units=GPa)
#
#
# Indices 1 2 3 4 5 6 
#
# 1 129.8051 78.1472 40.5265 0.0000 0.0000 0.0000
# 2 78.1472 129.8051 40.5265 0.0000 0.0000 0.0000
# 3 40.5265 40.5265 43.1076 0.0000 0.0000 0.0000
# 4 0.0000 0.0000 0.0000 19.3982 0.0000 0.0000
# 5 0.0000 0.0000 0.0000 0.0000 19.3982 0.0000
# 6 0.0000 0.0000 0.0000 0.0000 0.0000 25.8290
#
#
#
# Elastic Compliance Matrix: (Units=1/GPa)
#
#
# Indices 1 2 3 4 5 6 
#
# 1 0.013474 -0.005884 -0.007136 0.000000 0.000000 0.000000
# 2 -0.005884 0.013474 -0.007136 0.000000 0.000000 0.000000
# 3 -0.007136 -0.007136 0.036614 0.000000 0.000000 0.000000
# 4 0.000000 0.000000 0.000000 0.051551 0.000000 0.000000
# 5 0.000000 0.000000 0.000000 0.000000 0.051551 0.000000
# 6 0.000000 0.000000 0.000000 0.000000 0.000000 0.038716
#
#
# Mechanical properties :
#
#
# Convention : Reuss Voigt Hill
#
# Bulk Modulus (GPa) = 43.00673 69.01313 56.00993
# Shear Modulus (GPa) = 19.72838 22.49292 21.11065
#
# Velocity S-wave (km/s) = 3.50448 3.74198 3.62517
# Velocity P-wave (km/s) = 6.56871 7.85062 7.23810
#
# Compressibility (1/GPa) = 0.02325218
#
# Stress axis : x y z
#
# Youngs Moduli (GPa) = 74.21679 74.21679 27.31173
#
# Poissons Ratio (x) = 0.43670 0.19488
# Poissons Ratio (y) = 0.43670 0.19488
# Poissons Ratio (z) = 0.52958 0.52958
#
# Static dielectric constant tensor:
#      x y z
#    x 3.201870 0.000000 0.000000 
#    y 0.000000 3.201870 0.000000 
#    z 0.000000 0.000000 2.851290 
# 
# 
# High freq. dielectric constant tensor:
#      x y z
#    x 1.611850 0.000000 0.000000 
#    y 0.000000 1.611850 0.000000 
#    z 0.000000 0.000000 1.600960 
# 
# From -- ./inp_files/2264.got.cif
#   From: 2010.03.12/outbox.cif.g09.slc.cpg/sg193_2_cif.got.tgz:2264.got - 2010.04.01 12:20:39.
