data_PCOD8329265
_publ_section_title
;
Structure prediction by ZEFSAII (Michael W. Deem and Ramdas Pophale) SiO2 
 PCOD8329265
Probable space group: P 6/M M M
;
_chemical_formula_sum "Si O2"
_cell_formula_units_Z 156
_cell_length_a 21.523486
_cell_length_b 21.523486
_cell_length_c 21.186888
_cell_angle_alpha 90.000000
_cell_angle_beta 90.000000
_cell_angle_gamma 120.000000
_cell_volume 8500.080267
_symmetry_space_group_name_H-M "P 6/M M M"
_symmetry_group_IT_number 191
_symmetry_cell_setting 'hexagonal'
loop_
_space_group_symop_operation_xyz
x,y,z
x-y,x,z
-y,x-y,z
-x,-y,z
-x+y,-x,z
y,-x+y,z
x-y,-y,-z
-x,-x+y,-z
y,x,-z
-y,-x,-z
-x+y,y,-z
x,x-y,-z
-x,-y,-z
-x+y,-x,-z
y,-x+y,-z
x,y,-z
x-y,x,-z
-y,x-y,-z
-x+y,y,z
x,x-y,z
-y,-x,z
y,x,z
x-y,-y,z
-x,-x+y,z
loop_
_atom_site_type_symbol
_atom_site_label
_atom_site_fract_x
_atom_site_fract_y
_atom_site_fract_z
Si Si1 0.189538 0.523427 0.363871
Si Si2 0.921081 0.700850 0.690866
Si Si3 0.446168 0.293402 0.763607
Si Si4 0.186169 0.664004 0.000000
Si Si5 0.292687 0.214572 0.072906
Si Si6 0.383094 0.264735 0.430496
Si Si7 0.917351 0.568011 0.111970
O O1 0.268537 0.537074 0.377999
O O2 0.186940 0.593470 0.382380
O O3 0.170426 0.504531 0.290456
O O4 0.129689 0.459212 0.406568
O O5 0.864821 0.729642 0.695097
O O6 0.896916 0.633314 0.736312
O O7 0.928399 0.679173 0.619235
O O8 0.000000 0.764089 0.711599
O O9 0.453511 0.226756 0.789915
O O10 0.463715 0.352008 0.818611
O O11 0.135551 0.648012 0.060594
O O12 0.254872 0.745129 0.000000
O O13 0.214549 0.607275 0.000000
O O14 0.271308 0.135654 0.096797
O O15 0.223581 0.223581 0.083866
O O16 0.359677 0.272946 0.111472
O O17 0.316374 0.226542 0.000000
O O18 0.364298 0.282410 0.500000
O O19 0.392406 0.196203 0.432952
O O20 0.000000 0.586580 0.101506
#
# Coordination Sequence:
#
# PCOD8329265 Si02
#       7
#    24  24  24  12  24  24  24
#     4   9  17  29  46  69  97 130 167 204 242 284
#     4   9  17  30  49  73  99 127 161 200 241 288
#     4   9  18  32  50  73 101 133 166 201 242 288
#     4  12  26  43  59  75 100 133 167 199 237 294
#     4   9  16  27  45  70  97 124 154 189 233 281
#     4   8  15  28  45  66  93 125 161 201 244 285
#     4  11  21  35  57  81 101 123 155 204 260 301
#
# _framework density 18.352767
#
# number of rings (size 3 to 8) (size 9 to 14) (size 15 to 20)
#    0.000    2.615    0.769    4.154    0.000    1.846 
#    0.000    0.000    0.000   14.154    0.000    5.385 
#    0.000    0.000    0.000    8.769    0.000    3.385 
#
# Total GULP energy -1933500.397169 kJ/mol
# GULP energy per Si atom -12394.233315 kJ/mol
# Density = 1.831100 g / cm^3
# Si number density = 18.352767 Si / 1000 Ang^3
#
#
#
# Elastic Constant Matrix: (Units=GPa)
#
#
# Indices 1 2 3 4 5 6 
#
# 1 60.5528 23.2786 1.8861 0.0000 0.0000 0.0000
# 2 23.2786 60.5528 1.8861 0.0000 0.0000 0.0000
# 3 1.8861 1.8861 75.1126 0.0000 0.0000 0.0000
# 4 0.0000 0.0000 0.0000 11.9261 0.0000 0.0000
# 5 0.0000 0.0000 0.0000 0.0000 11.9261 0.0000
# 6 0.0000 0.0000 0.0000 0.0000 0.0000 18.6371
#
#
#
# Elastic Compliance Matrix: (Units=1/GPa)
#
#
# Indices 1 2 3 4 5 6 
#
# 1 0.019385 -0.007443 -0.000300 0.000000 0.000000 0.000000
# 2 -0.007443 0.019385 -0.000300 0.000000 0.000000 0.000000
# 3 -0.000300 -0.000300 0.013328 0.000000 0.000000 0.000000
# 4 0.000000 0.000000 0.000000 0.083850 0.000000 0.000000
# 5 0.000000 0.000000 0.000000 0.000000 0.083850 0.000000
# 6 0.000000 0.000000 0.000000 0.000000 0.000000 0.053656
#
#
# Mechanical properties :
#
#
# Convention : Reuss Voigt Hill
#
# Bulk Modulus (GPa) = 27.76750 27.81330 27.79040
# Shear Modulus (GPa) = 16.58130 19.77568 18.17849
#
# Velocity S-wave (km/s) = 3.00905 3.28614 3.15064
# Velocity P-wave (km/s) = 5.21874 5.43930 5.33016
#
# Compressibility (1/GPa) = 0.03601333
#
# Stress axis : x y z
#
# Youngs Moduli (GPa) = 51.58569 51.58569 75.02776
#
# Poissons Ratio (x) = 0.38395 0.02250
# Poissons Ratio (y) = 0.38395 0.02250
# Poissons Ratio (z) = 0.01547 0.01547
#
# Static dielectric constant tensor:
#      x y z
#    x 3.208020 0.000000 0.000000 
#    y 0.000000 3.208020 0.000000 
#    z 0.000000 0.000000 3.593420 
# 
# 
# High freq. dielectric constant tensor:
#      x y z
#    x 1.690060 0.000000 0.000000 
#    y 0.000000 1.690060 0.000000 
#    z 0.000000 0.000000 1.716540 
# 
# From -- ./inp_files/7747.got.cif
#   From: 2010.03.12/outbox.cif.g09.slc.cpg/sg191_4_cif.got.tgz:7747.got - 2010.04.01 12:09:02.
