data_PCOD8329020
_publ_section_title
;
Structure prediction by ZEFSAII (Michael W. Deem and Ramdas Pophale) SiO2 
 PCOD8329020
Probable space group: P 6/M M M
;
_chemical_formula_sum "Si O2"
_cell_formula_units_Z 120
_cell_length_a 17.731662
_cell_length_b 17.731662
_cell_length_c 25.277816
_cell_angle_alpha 90.000000
_cell_angle_beta 90.000000
_cell_angle_gamma 120.000000
_cell_volume 6882.862099
_symmetry_space_group_name_H-M "P 6/M M M"
_symmetry_group_IT_number 191
_symmetry_cell_setting 'hexagonal'
loop_
_space_group_symop_operation_xyz
x,y,z
x-y,x,z
-y,x-y,z
-x,-y,z
-x+y,-x,z
y,-x+y,z
x-y,-y,-z
-x,-x+y,-z
y,x,-z
-y,-x,-z
-x+y,y,-z
x,x-y,-z
-x,-y,-z
-x+y,-x,-z
y,-x+y,-z
x,y,-z
x-y,x,-z
-y,x-y,-z
-x+y,y,z
x,x-y,z
-y,-x,z
y,x,z
x-y,-y,z
-x,-x+y,z
loop_
_atom_site_type_symbol
_atom_site_label
_atom_site_fract_x
_atom_site_fract_y
_atom_site_fract_z
Si Si1 0.634489 0.732897 0.401825
Si Si2 0.508726 0.668387 0.000000
Si Si3 0.493946 0.160558 0.310314
Si Si4 0.838778 0.505567 0.189708
Si Si5 0.897283 0.532406 0.500000
Si Si6 0.731340 0.634176 0.097297
O O1 0.674554 0.837277 0.399530
O O2 0.712699 0.712699 0.412063
O O3 0.588081 0.688155 0.346899
O O4 0.562363 0.694958 0.448002
O O5 0.565295 0.679802 0.051574
O O6 0.427534 0.572467 0.000000
O O7 0.475370 0.737685 0.000000
O O8 0.574007 0.148014 0.327236
O O9 0.523058 0.261529 0.317877
O O10 0.466166 0.130732 0.249929
O O11 0.736906 0.473811 0.182796
O O12 0.852506 0.426253 0.172373
O O13 0.896368 0.588308 0.153187
O O14 0.854695 0.427348 0.500000
O O15 0.000000 0.575473 0.500000
O O16 0.834620 0.669240 0.093602
O O17 0.716390 0.716390 0.091696
#
# Coordination Sequence:
#
# PCOD8329020 Si02
#       6
#    24  12  24  24  12  24
#     4  10  20  33  49  69  93 122 157 197 240 282
#     4  10  20  33  50  73 102 134 163 188 216 257
#     4   9  17  29  46  69  97 128 159 190 225 268
#     4   9  17  29  46  69  98 130 160 188 221 266
#     4   9  17  30  49  72  96 120 146 177 215 264
#     4  10  21  35  50  69  93 122 156 196 241 282
#
# _framework density 17.434607
#
# number of rings (size 3 to 8) (size 9 to 14) (size 15 to 20)
#    0.000    2.500    0.000    2.300    0.000    5.600 
#    0.000    4.000    0.000    3.200    0.000    0.000 
#    0.000    4.800    0.000   10.000    0.000    0.000 
#
# Total GULP energy -1487980.290462 kJ/mol
# GULP energy per Si atom -12399.835754 kJ/mol
# Density = 1.739492 g / cm^3
# Si number density = 17.434607 Si / 1000 Ang^3
#
#
#
# Elastic Constant Matrix: (Units=GPa)
#
#
# Indices 1 2 3 4 5 6 
#
# 1 93.0570 63.8715 35.6272 0.0000 0.0000 0.0000
# 2 63.8715 93.0570 35.6272 0.0000 0.0000 0.0000
# 3 35.6272 35.6272 90.6908 0.0000 0.0000 0.0000
# 4 0.0000 0.0000 0.0000 17.0621 0.0000 0.0000
# 5 0.0000 0.0000 0.0000 0.0000 17.0621 0.0000
# 6 0.0000 0.0000 0.0000 0.0000 0.0000 14.5927
#
#
#
# Elastic Compliance Matrix: (Units=1/GPa)
#
#
# Indices 1 2 3 4 5 6 
#
# 1 0.021010 -0.013254 -0.003047 0.000000 0.000000 0.000000
# 2 -0.013254 0.021010 -0.003047 0.000000 0.000000 0.000000
# 3 -0.003047 -0.003047 0.013420 0.000000 0.000000 0.000000
# 4 0.000000 0.000000 0.000000 0.058609 0.000000 0.000000
# 5 0.000000 0.000000 0.000000 0.000000 0.058609 0.000000
# 6 0.000000 0.000000 0.000000 0.000000 0.000000 0.068527
#
#
# Mechanical properties :
#
#
# Convention : Reuss Voigt Hill
#
# Bulk Modulus (GPa) = 59.72060 60.78404 60.25232
# Shear Modulus (GPa) = 17.51547 19.18867 18.35207
#
# Velocity S-wave (km/s) = 3.17304 3.32114 3.24793
# Velocity P-wave (km/s) = 6.91033 7.04602 6.97850
#
# Compressibility (1/GPa) = 0.01674464
#
# Stress axis : x y z
#
# Youngs Moduli (GPa) = 47.59713 47.59713 74.51403
#
# Poissons Ratio (x) = 0.63085 0.22703
# Poissons Ratio (y) = 0.63085 0.22703
# Poissons Ratio (z) = 0.14502 0.14502
#
# Static dielectric constant tensor:
#      x y z
#    x 3.051520 0.000000 0.000000 
#    y 0.000000 3.051520 0.000000 
#    z 0.000000 0.000000 3.488710 
# 
# 
# High freq. dielectric constant tensor:
#      x y z
#    x 1.649150 0.000000 0.000000 
#    y 0.000000 1.649150 0.000000 
#    z 0.000000 0.000000 1.693360 
# 
# From -- ./inp_files/8505.got.cif
#   From: 2010.03.12/outbox.cif.g09.slc.cpg/sg191_5_cif.got.tgz:8505.got - 2010.04.01 12:09:02.
