data_PCOD8329285
_publ_section_title
;
Structure prediction by ZEFSAII (Michael W. Deem and Ramdas Pophale) SiO2 
 PCOD8329285
Probable space group: P 6/M M M
;
_chemical_formula_sum "Si O2"
_cell_formula_units_Z 96
_cell_length_a 28.951578
_cell_length_b 28.951578
_cell_length_c 10.067614
_cell_angle_alpha 90.000000
_cell_angle_beta 90.000000
_cell_angle_gamma 120.000000
_cell_volume 7308.052648
_symmetry_space_group_name_H-M "P 6/M M M"
_symmetry_group_IT_number 191
_symmetry_cell_setting 'hexagonal'
loop_
_space_group_symop_operation_xyz
x,y,z
x-y,x,z
-y,x-y,z
-x,-y,z
-x+y,-x,z
y,-x+y,z
x-y,-y,-z
-x,-x+y,-z
y,x,-z
-y,-x,-z
-x+y,y,-z
x,x-y,-z
-x,-y,-z
-x+y,-x,-z
y,-x+y,-z
x,y,-z
x-y,x,-z
-y,x-y,-z
-x+y,y,z
x,x-y,z
-y,-x,z
y,x,z
x-y,-y,z
-x,-x+y,z
loop_
_atom_site_type_symbol
_atom_site_label
_atom_site_fract_x
_atom_site_fract_y
_atom_site_fract_z
Si Si1 0.239442 0.936757 0.147947
Si Si2 0.063442 0.405429 0.148901
Si Si3 0.162908 0.223275 0.651803
Si Si4 0.583188 0.063471 0.648703
O O1 0.280029 0.915502 0.185426
O O2 0.192735 0.916979 0.256306
O O3 0.272270 0.000000 0.148468
O O4 0.215430 0.916524 0.000000
O O5 0.088444 0.455253 0.250339
O O6 0.000000 0.374516 0.158083
O O7 0.081705 0.427676 0.000000
O O8 0.179712 0.241760 0.500000
O O9 0.099274 0.198547 0.670967
O O10 0.178261 0.178261 0.691154
O O11 0.604955 0.083147 0.500000
O O12 0.541435 0.082869 0.689295
O O13 0.553156 0.000000 0.653841
#
# Coordination Sequence:
#
# PCOD8329285 Si02
#       4
#    24  24  24  24
#     4   8  14  24  36  50  67  84 103 128 157 190
#     4   8  13  20  29  41  57  77 101 129 159 188
#     4   9  17  28  41  56  72  88 105 126 155 195
#     4   8  13  19  25  35  53  77 105 135 163 188
#
# _framework density 13.136194
#
# number of rings (size 3 to 8) (size 9 to 14) (size 15 to 20)
#    0.000    3.750    0.000    2.250    0.000    2.000 
#    0.000    7.500    0.000    0.250    0.000    1.750 
#    0.000    0.000    0.000    6.250    0.000    6.500 
#
# Total GULP energy -1189281.735786 kJ/mol
# GULP energy per Si atom -12388.351414 kJ/mol
# Density = 1.310630 g / cm^3
# Si number density = 13.136194 Si / 1000 Ang^3
#
#
#
# Elastic Constant Matrix: (Units=GPa)
#
#
# Indices 1 2 3 4 5 6 
#
# 1 52.4843 28.6178 42.1071 0.0000 0.0000 0.0000
# 2 28.6178 52.4843 42.1071 0.0000 0.0000 0.0000
# 3 42.1071 42.1071 82.9576 0.0000 0.0000 0.0000
# 4 0.0000 0.0000 0.0000 14.6742 0.0000 0.0000
# 5 0.0000 0.0000 0.0000 0.0000 14.6742 0.0000
# 6 0.0000 0.0000 0.0000 0.0000 0.0000 11.9332
#
#
#
# Elastic Compliance Matrix: (Units=1/GPa)
#
#
# Indices 1 2 3 4 5 6 
#
# 1 0.033985 -0.007915 -0.013233 0.000000 0.000000 0.000000
# 2 -0.007915 0.033985 -0.013233 0.000000 0.000000 0.000000
# 3 -0.013233 -0.013233 0.025488 0.000000 0.000000 0.000000
# 4 0.000000 0.000000 0.000000 0.068147 0.000000 0.000000
# 5 0.000000 0.000000 0.000000 0.000000 0.068147 0.000000
# 6 0.000000 0.000000 0.000000 0.000000 0.000000 0.083800
#
#
# Mechanical properties :
#
#
# Convention : Reuss Voigt Hill
#
# Bulk Modulus (GPa) = 40.48945 45.95447 43.22196
# Shear Modulus (GPa) = 12.80264 13.26260 13.03262
#
# Velocity S-wave (km/s) = 3.12526 3.18090 3.15320
# Velocity P-wave (km/s) = 6.62667 6.96778 6.79936
#
# Compressibility (1/GPa) = 0.02469779
#
# Stress axis : x y z
#
# Youngs Moduli (GPa) = 29.42451 29.42451 39.23477
#
# Poissons Ratio (x) = 0.23288 0.51919
# Poissons Ratio (y) = 0.23288 0.51919
# Poissons Ratio (z) = 0.38937 0.38937
#
# Static dielectric constant tensor:
#      x y z
#    x 2.475340 0.000000 0.000000 
#    y 0.000000 2.475340 0.000000 
#    z 0.000000 0.000000 2.937350 
# 
# 
# High freq. dielectric constant tensor:
#      x y z
#    x 1.457450 0.000000 0.000000 
#    y 0.000000 1.457450 0.000000 
#    z 0.000000 0.000000 1.512390 
# 
# From -- ./inp_files/2721.got.cif
#   From: 2010.03.12/outbox.cif.g09.slc.cpg/sg191_2_cif.got.tgz:2721.got - 2010.04.01 12:09:02.
