data_PCOD8329181
_publ_section_title
;
Structure prediction by ZEFSAII (Michael W. Deem and Ramdas Pophale) SiO2 
 PCOD8329181
Probable space group: P 6/M M M
;
_chemical_formula_sum "Si O2"
_cell_formula_units_Z 192
_cell_length_a 23.297061
_cell_length_b 23.297061
_cell_length_c 24.174259
_cell_angle_alpha 90.000000
_cell_angle_beta 90.000000
_cell_angle_gamma 120.000000
_cell_volume 11362.818668
_symmetry_space_group_name_H-M "P 6/M M M"
_symmetry_group_IT_number 191
_symmetry_cell_setting 'hexagonal'
loop_
_space_group_symop_operation_xyz
x,y,z
x-y,x,z
-y,x-y,z
-x,-y,z
-x+y,-x,z
y,-x+y,z
x-y,-y,-z
-x,-x+y,-z
y,x,-z
-y,-x,-z
-x+y,y,-z
x,x-y,-z
-x,-y,-z
-x+y,-x,-z
y,-x+y,-z
x,y,-z
x-y,x,-z
-y,x-y,-z
-x+y,y,z
x,x-y,z
-y,-x,z
y,x,z
x-y,-y,z
-x,-x+y,z
loop_
_atom_site_type_symbol
_atom_site_label
_atom_site_fract_x
_atom_site_fract_y
_atom_site_fract_z
Si Si1 0.690042 0.078744 0.561559
Si Si2 0.610052 0.871905 0.168640
Si Si3 0.597007 0.673188 0.937379
Si Si4 0.199260 0.926179 0.378478
Si Si5 0.666075 0.460990 0.935475
Si Si6 0.921255 0.397310 0.349283
Si Si7 0.273932 0.200969 0.747501
Si Si8 0.077743 0.605337 0.775555
O O1 0.693178 0.107186 0.500000
O O2 0.763346 0.098813 0.581164
O O3 0.660476 0.110070 0.604741
O O4 0.644848 0.000000 0.561676
O O5 0.590867 0.795433 0.167524
O O6 0.636970 0.905946 0.108109
O O7 0.665374 0.913346 0.213730
O O8 0.545823 0.878235 0.184451
O O9 0.612989 0.612989 0.929412
O O10 0.520338 0.650311 0.925154
O O11 0.616801 0.701816 0.000000
O O12 0.120849 0.879152 0.386983
O O13 0.220418 0.921857 0.315610
O O14 0.215754 0.000000 0.393391
O O15 0.737839 0.475678 0.910905
O O16 0.606078 0.393923 0.908690
O O17 0.667377 0.449803 0.000000
O O18 0.893684 0.446842 0.362471
O O19 0.901119 0.369014 0.287337
O O20 0.000000 0.436643 0.353116
O O21 0.248142 0.124071 0.759841
O O22 0.212741 0.212741 0.759680
O O23 0.093559 0.546780 0.788794
O O24 0.000000 0.579011 0.785182
#
# Coordination Sequence:
#
# PCOD8329181 Si02
#       8
#    24  24  24  24  24  24  24  24
#     4   9  16  24  36  57  85 116 148 182 220 264
#     4  11  21  32  49  70  92 118 148 185 229 277
#     4  10  21  35  49  65  88 119 153 191 234 279
#     4   9  17  29  44  62  86 116 150 188 231 278
#     4   9  17  30  48  68  90 117 149 183 219 261
#     4   8  14  25  41  61  86 117 149 180 218 260
#     4   9  17  29  47  69  90 114 145 184 227 271
#     4   9  17  30  49  70  92 120 154 193 231 267
#
# _framework density 16.897217000000001
#
# number of rings (size 3 to 8) (size 9 to 14) (size 15 to 20)
#    0.000    2.750    0.000    3.125    0.000    4.500 
#    0.000    2.500    0.000    0.500    0.000    1.750 
#    0.000    0.000    0.000    3.500    0.000    5.500 
#
# Total GULP energy -2379111.412552 kJ/mol
# GULP energy per Si atom -12391.205274 kJ/mol
# Density = 1.685876 g / cm^3
# Si number density = 16.897217 Si / 1000 Ang^3
#
#
#
# Elastic Constant Matrix: (Units=GPa)
#
#
# Indices 1 2 3 4 5 6 
#
# 1 84.9772 45.0474 37.4087 0.0000 0.0000 0.0000
# 2 45.0474 84.9772 37.4087 0.0000 0.0000 0.0000
# 3 37.4087 37.4087 95.4111 0.0000 0.0000 0.0000
# 4 0.0000 0.0000 0.0000 16.6434 0.0000 0.0000
# 5 0.0000 0.0000 0.0000 0.0000 16.6434 0.0000
# 6 0.0000 0.0000 0.0000 0.0000 0.0000 19.9649
#
#
#
# Elastic Compliance Matrix: (Units=1/GPa)
#
#
# Indices 1 2 3 4 5 6 
#
# 1 0.017488 -0.007556 -0.003894 0.000000 0.000000 0.000000
# 2 -0.007556 0.017488 -0.003894 0.000000 0.000000 0.000000
# 3 -0.003894 -0.003894 0.013534 0.000000 0.000000 0.000000
# 4 0.000000 0.000000 0.000000 0.060084 0.000000 0.000000
# 5 0.000000 0.000000 0.000000 0.000000 0.060084 0.000000
# 6 0.000000 0.000000 0.000000 0.000000 0.000000 0.050088
#
#
# Mechanical properties :
#
#
# Convention : Reuss Voigt Hill
#
# Bulk Modulus (GPa) = 56.11158 56.12172 56.11665
# Shear Modulus (GPa) = 19.57756 20.35037 19.96397
#
# Velocity S-wave (km/s) = 3.40755 3.47416 3.44102
# Velocity P-wave (km/s) = 6.98295 7.02700 7.00501
#
# Compressibility (1/GPa) = 0.01782163
#
# Stress axis : x y z
#
# Youngs Moduli (GPa) = 57.18305 57.18305 73.88580
#
# Poissons Ratio (x) = 0.43209 0.28770
# Poissons Ratio (y) = 0.43209 0.28770
# Poissons Ratio (z) = 0.22267 0.22267
#
# Static dielectric constant tensor:
#      x y z
#    x 3.057010 0.000000 0.000000 
#    y 0.000000 3.057010 0.000000 
#    z 0.000000 0.000000 3.428820 
# 
# 
# High freq. dielectric constant tensor:
#      x y z
#    x 1.625110 0.000000 0.000000 
#    y 0.000000 1.625110 0.000000 
#    z 0.000000 0.000000 1.660110 
# 
# From -- ./inp_files/9329.got.cif
#   From: 2010.03.12/outbox.cif.g09.slc.cpg/sg191_5_cif.got.tgz:9329.got - 2010.04.01 12:09:02.
