data_PCOD8329684
_publ_section_title
;
Structure prediction by ZEFSAII (Michael W. Deem and Ramdas Pophale) SiO2 
 PCOD8329684
Probable space group: P 6/M C C
;
_chemical_formula_sum "Si O2"
_cell_formula_units_Z 104
_cell_length_a 18.656421
_cell_length_b 18.656421
_cell_length_c 16.599540
_cell_angle_alpha 90.000000
_cell_angle_beta 90.000000
_cell_angle_gamma 120.000000
_cell_volume 5003.608848
_symmetry_space_group_name_H-M "P 6/M C C"
_symmetry_group_IT_number 192
_symmetry_cell_setting 'hexagonal'
loop_
_space_group_symop_operation_xyz
x,y,z
x-y,x,z
-y,x-y,z
-x,-y,z
-x+y,-x,z
y,-x+y,z
x-y,-y,1/2-z
-x,-x+y,1/2-z
y,x,1/2-z
-y,-x,1/2-z
-x+y,y,1/2-z
x,x-y,1/2-z
-x,-y,-z
-x+y,-x,-z
y,-x+y,-z
x,y,-z
x-y,x,-z
-y,x-y,-z
-x+y,y,1/2+z
x,x-y,1/2+z
-y,-x,1/2+z
y,x,1/2+z
x-y,-y,1/2+z
-x,-x+y,1/2+z
loop_
_atom_site_type_symbol
_atom_site_label
_atom_site_fract_x
_atom_site_fract_y
_atom_site_fract_z
Si Si1 0.333334 0.666667 0.654424
Si Si2 0.488418 0.290746 0.407923
Si Si3 0.355468 0.220769 0.829612
Si Si4 0.860500 0.043060 0.904569
Si Si5 0.527862 0.620788 0.264886
O O1 0.333334 0.666667 0.750000
O O2 0.427771 0.705638 0.622988
O O3 0.499678 0.319537 0.500000
O O4 0.406694 0.200944 0.398910
O O5 0.462752 0.347134 0.355856
O O6 0.330136 0.165068 0.750000
O O7 0.270065 0.208320 0.866669
O O8 0.420457 0.312008 0.801713
O O9 0.952518 0.111614 0.875308
O O10 0.854265 0.044665 0.000000
O O11 0.554259 0.554259 0.250000
O O12 0.427839 0.572162 0.250000
#
# Coordination Sequence:
#
# PCOD8329684 Si02
#       5
#     8  24  24  24  24
#     4  12  22  38  67  96 130 170 208 264 331 401
#     4  11  22  38  61  93 125 159 212 270 322 387
#     4  10  22  37  61  89 123 166 212 269 329 401
#     4  10  22  40  63  92 128 172 222 280 345 409
#     4  10  22  41  62  86 123 172 213 257 324 397
#
# _framework density 20.784998999999999
#
# number of rings (size 3 to 8) (size 9 to 14) (size 15 to 20)
#    0.000    1.615    0.000    5.769    6.462    0.923 
#    0.000    4.615    0.000    1.385    0.000    0.000 
#    0.000    0.000    0.000    0.000    0.000    0.000 
#
# Total GULP energy -1288396.657240 kJ/mol
# GULP energy per Si atom -12388.429397 kJ/mol
# Density = 2.073769 g / cm^3
# Si number density = 20.784999 Si / 1000 Ang^3
#
#
#
# Elastic Constant Matrix: (Units=GPa)
#
#
# Indices 1 2 3 4 5 6 
#
# 1 110.9845 34.2145 49.6300 0.0005 -0.0012 0.0001
# 2 34.2145 110.9847 49.6300 0.0006 -0.0008 0.0001
# 3 49.6300 49.6300 116.5650 0.0006 -0.0018 0.0001
# 4 0.0005 0.0006 0.0006 -0.5253 -0.0181 -0.0002
# 5 -0.0012 -0.0008 -0.0018 -0.0181 -0.4865 0.0001
# 6 0.0001 0.0001 0.0001 -0.0002 0.0001 38.3850
#
#
#
# Elastic Compliance Matrix: (Units=1/GPa)
#
#
# Indices 1 2 3 4 5 6 
#
# 1 0.011370 -0.001656 -0.004136 0.000004 -0.000010 0.000000
# 2 -0.001656 0.011370 -0.004136 0.000007 0.000000 0.000000
# 3 -0.004136 -0.004136 0.012101 0.000006 -0.000028 0.000000
# 4 0.000004 0.000007 0.000006 -1.906000 0.070915 -0.000010
# 5 -0.000010 0.000000 -0.000028 0.070915 -2.058097 0.000004
# 6 0.000000 0.000000 0.000000 -0.000010 0.000004 0.026052
#
#
# Mechanical properties :
#
#
# Convention : Reuss Voigt Hill
#
# Bulk Modulus (GPa) = 66.73111 67.27592 67.00352
# Shear Modulus (GPa) = -1.28921 21.14527 9.92803
#
# Velocity S-wave (km/s) = -0.78842 3.19303 2.18790
# Velocity P-wave (km/s) = 5.59878 6.78467 6.22005
#
# Compressibility (1/GPa) = 0.01498551
#
# Stress axis : x y z
#
# Youngs Moduli (GPa) = 87.94839 87.94860 82.63723
#
# Poissons Ratio (x) = 0.14561 0.34181
# Poissons Ratio (y) = 0.14561 0.34181
# Poissons Ratio (z) = 0.36378 0.36378
#
# Static dielectric constant tensor:
#      x y z
#    x 4.166610 0.000000 0.000000 
#    y 0.000000 4.166610 0.000000 
#    z 0.000000 0.000000 3.609340 
# 
# 
# High freq. dielectric constant tensor:
#      x y z
#    x 1.822820 0.000000 0.000000 
#    y 0.000000 1.822820 0.000000 
#    z 0.000000 0.000000 1.803840 
# 
# From -- ./inp_files/2895.got.cif
#   From: 2010.03.12/outbox.cif.g09.slc.cpg/sg192_2_cif.got.tgz:2895.got - 2010.04.01 12:16:15.
