data_PCOD8329988
_publ_section_title
;
Structure prediction by ZEFSAII (Michael W. Deem and Ramdas Pophale) SiO2 
 PCOD8329988
Probable space group: P 63/M C M
;
_chemical_formula_sum "Si O2"
_cell_formula_units_Z 168
_cell_length_a 29.949831
_cell_length_b 29.949831
_cell_length_c 14.860141
_cell_angle_alpha 90.000000
_cell_angle_beta 90.000000
_cell_angle_gamma 120.000000
_cell_volume 11543.627767
_symmetry_space_group_name_H-M "P 63/M C M"
_symmetry_group_IT_number 193
_symmetry_cell_setting 'hexagonal'
loop_
_space_group_symop_operation_xyz
x,y,z
x-y,x,1/2+z
-y,x-y,z
-x,-y,1/2+z
-x+y,-x,z
y,-x+y,1/2+z
x-y,-y,1/2-z
-x,-x+y,1/2-z
y,x,1/2-z
-y,-x,-z
-x+y,y,-z
x,x-y,-z
-x,-y,-z
-x+y,-x,1/2-z
y,-x+y,-z
x,y,1/2-z
x-y,x,-z
-y,x-y,1/2-z
-x+y,y,1/2+z
x,x-y,1/2+z
-y,-x,1/2+z
y,x,z
x-y,-y,z
-x,-x+y,z
loop_
_atom_site_type_symbol
_atom_site_label
_atom_site_fract_x
_atom_site_fract_y
_atom_site_fract_z
Si Si1 0.478786 0.854944 0.498177
Si Si2 0.264728 0.875386 0.851098
Si Si3 0.705361 0.510461 0.145665
Si Si4 0.711631 0.655680 0.352904
Si Si5 0.786351 0.164041 0.644924
Si Si6 0.696214 0.205904 0.348759
Si Si7 0.941746 0.592750 0.483759
O O1 0.435474 0.870948 0.500000
O O2 0.482491 0.830707 0.592313
O O3 0.462701 0.811154 0.421912
O O4 0.531546 0.906915 0.474167
O O5 0.267063 0.897071 0.750000
O O6 0.205509 0.843544 0.891886
O O7 0.282720 0.833582 0.850291
O O8 0.299951 0.922461 0.916775
O O9 0.691948 0.511049 0.250000
O O10 0.740081 0.568477 0.105320
O O11 0.736886 0.480291 0.130193
O O12 0.697187 0.636322 0.250000
O O13 0.707493 0.707493 0.368412
O O14 0.769536 0.665616 0.373163
O O15 0.669743 0.609927 0.414374
O O16 0.790003 0.177855 0.750000
O O17 0.673291 0.205273 0.250000
O O18 0.000000 0.609156 0.456049
#
# Coordination Sequence:
#
# PCOD8329988 Si02
#       7
#    24  24  24  24  24  24  24
#     4  11  21  30  44  64  83 106 135 164 191 230
#     4   8  15  27  44  64  80  96 126 168 201 230
#     4   9  16  29  49  67  80  95 117 153 199 240
#     4   9  16  26  40  59  85 110 128 153 193 241
#     4   8  13  24  43  65  82  96 123 161 199 232
#     4   8  16  31  48  65  82  95 115 153 200 241
#     4  10  20  31  42  57  80 113 143 165 201 241
#
# _framework density 14.553483999999999
#
# number of rings (size 3 to 8) (size 9 to 14) (size 15 to 20)
#    0.000    3.000    1.429    2.143    0.000    1.714 
#    0.000    0.000    0.000    2.286    0.000    4.000 
#    0.000    0.000    0.000    0.000    0.000    0.000 
#
# Total GULP energy -2081406.991549 kJ/mol
# GULP energy per Si atom -12389.327331 kJ/mol
# Density = 1.452036 g / cm^3
# Si number density = 14.553484 Si / 1000 Ang^3
#
#
#
# Elastic Constant Matrix: (Units=GPa)
#
#
# Indices 1 2 3 4 5 6 
#
# 1 72.8284 45.7113 32.8090 0.0000 0.0000 0.0000
# 2 45.7113 72.8284 32.8090 0.0000 0.0000 0.0000
# 3 32.8090 32.8090 63.2689 0.0000 0.0000 0.0000
# 4 0.0000 0.0000 0.0000 15.6187 0.0000 0.0000
# 5 0.0000 0.0000 0.0000 0.0000 15.6187 0.0000
# 6 0.0000 0.0000 0.0000 0.0000 0.0000 13.5585
#
#
#
# Elastic Compliance Matrix: (Units=1/GPa)
#
#
# Indices 1 2 3 4 5 6 
#
# 1 0.024355 -0.012522 -0.006136 0.000000 0.000000 0.000000
# 2 -0.012522 0.024355 -0.006136 0.000000 0.000000 0.000000
# 3 -0.006136 -0.006136 0.022169 0.000000 0.000000 0.000000
# 4 0.000000 0.000000 0.000000 0.064026 0.000000 0.000000
# 5 0.000000 0.000000 0.000000 0.000000 0.064026 0.000000
# 6 0.000000 0.000000 0.000000 0.000000 0.000000 0.073754
#
#
# Mechanical properties :
#
#
# Convention : Reuss Voigt Hill
#
# Bulk Modulus (GPa) = 46.96893 47.95381 47.46137
# Shear Modulus (GPa) = 15.18049 15.46561 15.32305
#
# Velocity S-wave (km/s) = 3.23318 3.26341 3.24833
# Velocity P-wave (km/s) = 6.80304 6.87178 6.83750
#
# Compressibility (1/GPa) = 0.02129067
#
# Stress axis : x y z
#
# Youngs Moduli (GPa) = 41.05960 41.05960 45.10743
#
# Poissons Ratio (x) = 0.51416 0.27678
# Poissons Ratio (y) = 0.51416 0.27678
# Poissons Ratio (z) = 0.25194 0.25194
#
# Static dielectric constant tensor:
#      x y z
#    x 2.734420 0.000000 0.000000 
#    y 0.000000 2.734420 0.000000 
#    z 0.000000 0.000000 3.009950 
# 
# 
# High freq. dielectric constant tensor:
#      x y z
#    x 1.520660 0.000000 0.000000 
#    y 0.000000 1.520660 0.000000 
#    z 0.000000 0.000000 1.568950 
# 
# From -- ./inp_files/4403.got.cif
#   From: 2010.03.12/outbox.cif.g09.slc.cpg/sg193_3_cif.got.tgz:4403.got - 2010.04.01 12:20:39.
