data_PCOD8329774
_publ_section_title
;
Structure prediction by ZEFSAII (Michael W. Deem and Ramdas Pophale) SiO2 
 PCOD8329774
Probable space group: P 63/M C M
;
_chemical_formula_sum "Si O2"
_cell_formula_units_Z 168
_cell_length_a 19.158527
_cell_length_b 19.158527
_cell_length_c 34.958336
_cell_angle_alpha 90.000000
_cell_angle_beta 90.000000
_cell_angle_gamma 120.000000
_cell_volume 11112.342400
_symmetry_space_group_name_H-M "P 63/M C M"
_symmetry_group_IT_number 193
_symmetry_cell_setting 'hexagonal'
loop_
_space_group_symop_operation_xyz
x,y,z
x-y,x,1/2+z
-y,x-y,z
-x,-y,1/2+z
-x+y,-x,z
y,-x+y,1/2+z
x-y,-y,1/2-z
-x,-x+y,1/2-z
y,x,1/2-z
-y,-x,-z
-x+y,y,-z
x,x-y,-z
-x,-y,-z
-x+y,-x,1/2-z
y,-x+y,-z
x,y,1/2-z
x-y,x,-z
-y,x-y,1/2-z
-x+y,y,1/2+z
x,x-y,1/2+z
-y,-x,1/2+z
y,x,z
x-y,-y,z
-x,-x+y,z
loop_
_atom_site_type_symbol
_atom_site_label
_atom_site_fract_x
_atom_site_fract_y
_atom_site_fract_z
Si Si1 0.376266 0.470415 0.655645
Si Si2 0.494771 0.827770 0.423243
Si Si3 0.091929 0.751372 0.794363
Si Si4 0.494772 0.827770 0.576757
Si Si5 0.751372 0.659442 0.794363
Si Si6 0.538299 0.910125 0.500000
Si Si7 0.094149 0.623734 0.344355
O O1 0.428040 0.428040 0.661554
O O2 0.298948 0.425285 0.683112
O O3 0.349719 0.460974 0.611503
O O4 0.433955 0.566045 0.665985
O O5 0.404011 0.808023 0.428841
O O6 0.492822 0.746411 0.412963
O O7 0.544157 0.865472 0.462223
O O8 0.539025 0.888745 0.388497
O O9 0.093199 0.731758 0.750000
O O10 0.153240 0.846761 0.802545
O O11 0.000000 0.726018 0.806844
O O12 0.544157 0.865472 0.537777
O O13 0.731758 0.638559 0.750000
O O14 0.726018 0.726018 0.806844
O O15 0.701052 0.574715 0.816888
O O16 0.456615 0.913229 0.500000
O O17 0.614076 0.000000 0.500000
O O18 0.000000 0.571960 0.338445
#
# Coordination Sequence:
#
# PCOD8329774 Si02
#       7
#    24  24  24  24  24  24  24
#     4   9  17  28  42  60  81 106 136 168 200 236
#     4  10  18  27  39  55  76 100 127 159 195 235
#     4   9  17  29  45  64  85 109 138 172 209 249
#     4  10  18  27  39  55  76 100 127 159 195 235
#     4   9  17  29  45  64  85 109 138 172 209 249
#     4   9  17  28  40  52  68  93 124 158 194 230
#     4   9  17  28  42  60  81 106 136 168 200 236
#
# _framework density 15.118325
#
# number of rings (size 3 to 8) (size 9 to 14) (size 15 to 20)
#    0.000    2.714    0.000    2.429    0.000    4.000 
#    0.000    4.286    0.000    0.857    0.000    2.000 
#    0.000    0.000    0.000    0.000    0.000    0.000 
#
# Total GULP energy -2082169.272869 kJ/mol
# GULP energy per Si atom -12393.864719 kJ/mol
# Density = 1.508391 g / cm^3
# Si number density = 15.118325 Si / 1000 Ang^3
#
#
#
# Elastic Constant Matrix: (Units=GPa)
#
#
# Indices 1 2 3 4 5 6 
#
# 1 58.1679 29.6546 25.9619 0.0000 0.0000 0.0000
# 2 29.6546 58.1679 25.9619 0.0000 0.0000 0.0000
# 3 25.9619 25.9619 62.3709 0.0000 0.0000 0.0000
# 4 0.0000 0.0000 0.0000 18.0762 0.0000 0.0000
# 5 0.0000 0.0000 0.0000 0.0000 18.0762 0.0000
# 6 0.0000 0.0000 0.0000 0.0000 0.0000 14.2567
#
#
#
# Elastic Compliance Matrix: (Units=1/GPa)
#
#
# Indices 1 2 3 4 5 6 
#
# 1 0.025087 -0.009984 -0.006287 0.000000 0.000000 0.000000
# 2 -0.009984 0.025087 -0.006287 0.000000 0.000000 0.000000
# 3 -0.006287 -0.006287 0.021267 0.000000 0.000000 0.000000
# 4 0.000000 0.000000 0.000000 0.055321 0.000000 0.000000
# 5 0.000000 0.000000 0.000000 0.000000 0.055321 0.000000
# 6 0.000000 0.000000 0.000000 0.000000 0.000000 0.070143
#
#
# Mechanical properties :
#
#
# Convention : Reuss Voigt Hill
#
# Bulk Modulus (GPa) = 37.98430 37.98483 37.98456
# Shear Modulus (GPa) = 16.33355 16.55702 16.44529
#
# Velocity S-wave (km/s) = 3.29048 3.31291 3.30172
# Velocity P-wave (km/s) = 6.29409 6.30979 6.30194
#
# Compressibility (1/GPa) = 0.02632667
#
# Stress axis : x y z
#
# Youngs Moduli (GPa) = 39.86049 39.86049 47.02127
#
# Poissons Ratio (x) = 0.39796 0.29562
# Poissons Ratio (y) = 0.39796 0.29562
# Poissons Ratio (z) = 0.25060 0.25060
#
# Static dielectric constant tensor:
#      x y z
#    x 2.939730 0.000000 0.000000 
#    y 0.000000 2.939730 0.000000 
#    z 0.000000 0.000000 3.023830 
# 
# 
# High freq. dielectric constant tensor:
#      x y z
#    x 1.559550 0.000000 0.000000 
#    y 0.000000 1.559550 0.000000 
#    z 0.000000 0.000000 1.586920 
# 
# From -- ./inp_files/8495.got.cif
#   From: 2010.03.12/outbox.cif.g09.slc.cpg/sg193_5_cif.got.tgz:8495.got - 2010.04.01 12:20:39.
