data_PCOD8329987
_publ_section_title
;
Structure prediction by ZEFSAII (Michael W. Deem and Ramdas Pophale) SiO2 
 PCOD8329987
Probable space group: P 63/M C M
;
_chemical_formula_sum "Si O2"
_cell_formula_units_Z 168
_cell_length_a 31.748253
_cell_length_b 31.748253
_cell_length_c 14.510270
_cell_angle_alpha 90.000000
_cell_angle_beta 90.000000
_cell_angle_gamma 120.000000
_cell_volume 12666.183933
_symmetry_space_group_name_H-M "P 63/M C M"
_symmetry_group_IT_number 193
_symmetry_cell_setting 'hexagonal'
loop_
_space_group_symop_operation_xyz
x,y,z
x-y,x,1/2+z
-y,x-y,z
-x,-y,1/2+z
-x+y,-x,z
y,-x+y,1/2+z
x-y,-y,1/2-z
-x,-x+y,1/2-z
y,x,1/2-z
-y,-x,-z
-x+y,y,-z
x,x-y,-z
-x,-y,-z
-x+y,-x,1/2-z
y,-x+y,-z
x,y,1/2-z
x-y,x,-z
-y,x-y,1/2-z
-x+y,y,1/2+z
x,x-y,1/2+z
-y,-x,1/2+z
y,x,z
x-y,-y,z
-x,-x+y,z
loop_
_atom_site_type_symbol
_atom_site_label
_atom_site_fract_x
_atom_site_fract_y
_atom_site_fract_z
Si Si1 0.334865 0.054962 0.145448
Si Si2 0.550812 0.890920 0.356889
Si Si3 0.213680 0.334687 0.500000
Si Si4 0.109079 0.659892 0.643110
Si Si5 0.945038 0.665135 0.354552
Si Si6 0.422230 0.478975 0.000000
Si Si7 0.449717 0.177951 0.500000
O O1 0.321565 0.057999 0.250000
O O2 0.317231 0.086896 0.089675
O O3 0.391688 0.074619 0.132357
O O4 0.306924 0.000000 0.108434
O O5 0.534552 0.881062 0.250000
O O6 0.608312 0.925381 0.367642
O O7 0.526609 0.918558 0.407258
O O8 0.534049 0.839447 0.408099
O O9 0.155269 0.310538 0.500000
O O10 0.230335 0.317231 0.410325
O O11 0.238086 0.392258 0.499999
O O12 0.118938 0.653491 0.750000
O O13 0.081442 0.608051 0.592742
O O14 0.160553 0.694602 0.591901
O O15 0.942001 0.678435 0.250000
O O16 0.000000 0.693075 0.391567
O O17 0.439104 0.439104 0.000000
O O18 0.467182 0.532819 0.000000
O O19 0.473548 0.236774 0.500000
#
# Coordination Sequence:
#
# PCOD8329987 Si02
#       7
#    24  24  24  24  24  24  24
#     4   9  16  25  38  53  67  88 119 151 181 213
#     4   9  17  28  41  56  74  96 122 154 189 222
#     4   9  16  24  34  49  70  92 111 139 179 216
#     4   9  17  28  41  56  74  96 122 154 189 222
#     4   9  16  25  38  53  67  88 119 151 181 213
#     4  10  20  30  39  53  73  99 133 169 198 221
#     4   8  15  26  39  57  77  95 116 141 174 219
#
# _framework density 13.263662999999999
#
# number of rings (size 3 to 8) (size 9 to 14) (size 15 to 20)
#    0.000    3.000    0.000    2.143    0.000    3.429 
#    0.000    7.143    0.000    0.000    0.000    0.000 
#    0.000    0.000    0.000   27.429    0.000   59.429 
#
# Total GULP energy -2082341.495909 kJ/mol
# GULP energy per Si atom -12394.889857 kJ/mol
# Density = 1.323347 g / cm^3
# Si number density = 13.263663 Si / 1000 Ang^3
#
#
#
# Elastic Constant Matrix: (Units=GPa)
#
#
# Indices 1 2 3 4 5 6 
#
# 1 67.1844 35.9835 43.1463 0.0000 0.0000 0.0000
# 2 35.9835 67.1844 43.1463 0.0000 0.0000 0.0000
# 3 43.1463 43.1463 114.7981 0.0000 0.0000 0.0000
# 4 0.0000 0.0000 0.0000 14.6962 0.0000 0.0000
# 5 0.0000 0.0000 0.0000 0.0000 14.6962 0.0000
# 6 0.0000 0.0000 0.0000 0.0000 0.0000 15.6004
#
#
#
# Elastic Compliance Matrix: (Units=1/GPa)
#
#
# Indices 1 2 3 4 5 6 
#
# 1 0.023094 -0.008957 -0.005313 0.000000 0.000000 0.000000
# 2 -0.008957 0.023094 -0.005313 0.000000 0.000000 0.000000
# 3 -0.005313 -0.005313 0.012705 0.000000 0.000000 0.000000
# 4 0.000000 0.000000 0.000000 0.068045 0.000000 0.000000
# 5 0.000000 0.000000 0.000000 0.000000 0.068045 0.000000
# 6 0.000000 0.000000 0.000000 0.000000 0.000000 0.064101
#
#
# Mechanical properties :
#
#
# Convention : Reuss Voigt Hill
#
# Bulk Modulus (GPa) = 50.69505 54.85769 52.77637
# Shear Modulus (GPa) = 16.40287 17.45797 16.93042
#
# Velocity S-wave (km/s) = 3.52046 3.63192 3.57662
# Velocity P-wave (km/s) = 7.40465 7.68355 7.54539
#
# Compressibility (1/GPa) = 0.01972579
#
# Stress axis : x y z
#
# Youngs Moduli (GPa) = 43.30171 43.30171 78.70939
#
# Poissons Ratio (x) = 0.38784 0.41821
# Poissons Ratio (y) = 0.38784 0.41821
# Poissons Ratio (z) = 0.23008 0.23008
#
# Static dielectric constant tensor:
#      x y z
#    x 2.566610 0.000000 0.000000 
#    y 0.000000 2.566610 0.000000 
#    z 0.000000 0.000000 2.869940 
# 
# 
# High freq. dielectric constant tensor:
#      x y z
#    x 1.473500 0.000000 0.000000 
#    y 0.000000 1.473500 0.000000 
#    z 0.000000 0.000000 1.521210 
# 
# From -- ./inp_files/4435.got.cif
#   From: 2010.03.12/outbox.cif.g09.slc.cpg/sg193_3_cif.got.tgz:4435.got - 2010.04.01 12:20:39.
