data_PCOD8329728
_publ_section_title
;
Structure prediction by ZEFSAII (Michael W. Deem and Ramdas Pophale) SiO2 
 PCOD8329728
Probable space group: P 6/M C C
;
_chemical_formula_sum "Si O2"
_cell_formula_units_Z 54
_cell_length_a 14.272887
_cell_length_b 14.272887
_cell_length_c 13.858063
_cell_angle_alpha 90.000000
_cell_angle_beta 90.000000
_cell_angle_gamma 120.000000
_cell_volume 2444.875891
_symmetry_space_group_name_H-M "P 6/M C C"
_symmetry_group_IT_number 192
_symmetry_cell_setting 'hexagonal'
loop_
_space_group_symop_operation_xyz
x,y,z
x-y,x,z
-y,x-y,z
-x,-y,z
-x+y,-x,z
y,-x+y,z
x-y,-y,1/2-z
-x,-x+y,1/2-z
y,x,1/2-z
-y,-x,1/2-z
-x+y,y,1/2-z
x,x-y,1/2-z
-x,-y,-z
-x+y,-x,-z
y,-x+y,-z
x,y,-z
x-y,x,-z
-y,x-y,-z
-x+y,y,1/2+z
x,x-y,1/2+z
-y,-x,1/2+z
y,x,1/2+z
x-y,-y,1/2+z
-x,-x+y,1/2+z
loop_
_atom_site_type_symbol
_atom_site_label
_atom_site_fract_x
_atom_site_fract_y
_atom_site_fract_z
Si Si1 0.000000 0.500000 0.750000
Si Si2 0.131714 0.734731 0.837456
Si Si3 0.259557 0.531010 0.000000
Si Si4 0.800594 0.034980 0.500000
O O1 0.920668 0.391407 0.809822
O O2 0.178596 0.821405 0.750000
O O3 0.041865 0.743241 0.901448
O O4 0.237695 0.776645 0.903676
O O5 0.391345 0.600013 0.000000
O O6 0.923159 0.126995 0.500000
#
# Coordination Sequence:
#
# PCOD8329728 Si02
#       4
#     6  24  12  12
#     4  12  24  38  68  96 134 182 216 266 344 394
#     4  11  23  41  65  96 135 171 223 271 335 403
#     4   9  20  35  57  90 127 173 211 263 321 400
#     4  11  25  45  69  94 128 173 227 286 332 385
#
# _framework density 22.087012000000001
#
# number of rings (size 3 to 8) (size 9 to 14) (size 15 to 20)
#    0.444    0.889    0.000    5.556    0.000    7.111 
#    1.333    0.000    0.000    2.667    0.000    0.000 
#    0.000    0.000    0.000    0.000    0.000    0.000 
#
# Total GULP energy -669078.716195 kJ/mol
# GULP energy per Si atom -12390.346596 kJ/mol
# Density = 2.203674 g / cm^3
# Si number density = 22.087012 Si / 1000 Ang^3
#
#
#
# Elastic Constant Matrix: (Units=GPa)
#
#
# Indices 1 2 3 4 5 6 
#
# 1 106.6012 18.8650 42.9069 0.0000 0.0000 0.0000
# 2 18.8650 106.6012 42.9069 0.0000 0.0000 0.0000
# 3 42.9069 42.9069 148.7649 0.0000 0.0000 0.0000
# 4 0.0000 0.0000 0.0000 -1.0085 0.0000 0.0000
# 5 0.0000 0.0000 0.0000 0.0000 -1.0085 0.0000
# 6 0.0000 0.0000 0.0000 0.0000 0.0000 43.8681
#
#
#
# Elastic Compliance Matrix: (Units=1/GPa)
#
#
# Indices 1 2 3 4 5 6 
#
# 1 0.010663 -0.000734 -0.002864 0.000000 0.000000 0.000000
# 2 -0.000734 0.010663 -0.002864 0.000000 0.000000 0.000000
# 3 -0.002864 -0.002864 0.008374 0.000000 0.000000 0.000000
# 4 0.000000 0.000000 0.000000 -0.991617 0.000000 0.000000
# 5 0.000000 0.000000 0.000000 0.000000 -0.991617 0.000000
# 6 0.000000 0.000000 0.000000 0.000000 0.000000 0.022796
#
#
# Mechanical properties :
#
#
# Convention : Reuss Voigt Hill
#
# Bulk Modulus (GPa) = 59.60559 63.48053 61.54306
# Shear Modulus (GPa) = -2.61476 25.52280 11.45402
#
# Velocity S-wave (km/s) = -1.08923 3.40304 2.27972
# Velocity P-wave (km/s) = 5.04613 6.65164 5.90372
#
# Compressibility (1/GPa) = 0.01677695
#
# Stress axis : x y z
#
# Youngs Moduli (GPa) = 93.77898 93.77898 119.41836
#
# Poissons Ratio (x) = 0.06887 0.34198
# Poissons Ratio (y) = 0.06887 0.34198
# Poissons Ratio (z) = 0.26856 0.26856
#
# Static dielectric constant tensor:
#      x y z
#    x 3.907030 0.000000 0.000000 
#    y 0.000000 3.907030 0.000000 
#    z 0.000000 0.000000 4.962440 
# 
# 
# High freq. dielectric constant tensor:
#      x y z
#    x 1.867660 0.000000 0.000000 
#    y 0.000000 1.867660 0.000000 
#    z 0.000000 0.000000 1.881790 
# 
# From -- ./inp_files/2172.got.cif
#   From: 2010.03.12/outbox.cif.g09.slc.cpg/sg192_2_cif.got.tgz:2172.got - 2010.04.01 12:16:15.
