data_PCOD8329165
_publ_section_title
;
Structure prediction by ZEFSAII (Michael W. Deem and Ramdas Pophale) SiO2 
 PCOD8329165
Probable space group: P 6/M M M
;
_chemical_formula_sum "Si O2"
_cell_formula_units_Z 102
_cell_length_a 28.045810
_cell_length_b 28.045810
_cell_length_c 7.444617
_cell_angle_alpha 90.000000
_cell_angle_beta 90.000000
_cell_angle_gamma 120.000000
_cell_volume 5071.179305
_symmetry_space_group_name_H-M "P 6/M M M"
_symmetry_group_IT_number 191
_symmetry_cell_setting 'hexagonal'
loop_
_space_group_symop_operation_xyz
x,y,z
x-y,x,z
-y,x-y,z
-x,-y,z
-x+y,-x,z
y,-x+y,z
x-y,-y,-z
-x,-x+y,-z
y,x,-z
-y,-x,-z
-x+y,y,-z
x,x-y,-z
-x,-y,-z
-x+y,-x,-z
y,-x+y,-z
x,y,-z
x-y,x,-z
-y,x-y,-z
-x+y,y,z
x,x-y,z
-y,-x,z
y,x,z
x-y,-y,z
-x,-x+y,z
loop_
_atom_site_type_symbol
_atom_site_label
_atom_site_fract_x
_atom_site_fract_y
_atom_site_fract_z
Si Si1 0.061289 0.390530 0.713269
Si Si2 0.485956 0.621483 0.707179
Si Si3 0.805590 0.805590 0.287328
Si Si4 0.897776 0.208376 0.712873
Si Si5 0.334311 0.775044 0.000000
Si Si6 0.886754 0.886754 0.000000
O O1 0.058631 0.386805 0.500000
O O2 0.090847 0.453722 0.776709
O O3 0.092539 0.359215 0.788273
O O4 0.000000 0.360586 0.794091
O O5 0.487252 0.638132 0.500000
O O6 0.443945 0.556056 0.736307
O O7 0.466362 0.656639 0.820342
O O8 0.816871 0.816871 0.500000
O O9 0.748719 0.801814 0.227802
O O10 0.854917 0.854917 0.180075
O O11 0.895275 0.208737 0.500000
O O12 0.840438 0.159563 0.792462
O O13 0.272210 0.727791 0.000000
O O14 0.375186 0.750372 0.000000
O O15 0.893382 0.946691 0.000000
#
# Coordination Sequence:
#
# PCOD8329165 Si02
#       6
#    24  24  12  24  12   6
#     4   9  16  29  51  80 113 149 189 228 273 330
#     4   9  19  35  55  81 113 148 187 232 279 330
#     4  10  20  39  63  85 111 146 186 228 275 331
#     4   9  16  28  51  82 112 144 184 228 275 328
#     4  10  21  38  58  80 108 144 187 234 284 336
#     4  12  27  44  62  86 114 144 181 228 280 332
#
# _framework density 20.113665000000001
#
# number of rings (size 3 to 8) (size 9 to 14) (size 15 to 20)
#    0.000    2.588    1.176    0.882    0.000    3.294 
#    0.000    6.471    0.000    5.647    0.000    0.000 
#    0.000    0.000    0.000    0.000    0.000    0.000 
#
# Total GULP energy -1264555.680042 kJ/mol
# GULP energy per Si atom -12397.604706 kJ/mol
# Density = 2.006788 g / cm^3
# Si number density = 20.113665 Si / 1000 Ang^3
#
#
#
# Elastic Constant Matrix: (Units=GPa)
#
#
# Indices 1 2 3 4 5 6 
#
# 1 175.9709 120.1126 31.3927 0.0000 0.0000 0.0000
# 2 120.1126 175.9709 31.3927 0.0000 0.0000 0.0000
# 3 31.3927 31.3927 59.1212 0.0000 0.0000 0.0000
# 4 0.0000 0.0000 0.0000 7.5351 0.0000 0.0000
# 5 0.0000 0.0000 0.0000 0.0000 7.5351 0.0000
# 6 0.0000 0.0000 0.0000 0.0000 0.0000 27.9292
#
#
#
# Elastic Compliance Matrix: (Units=1/GPa)
#
#
# Indices 1 2 3 4 5 6 
#
# 1 0.010854 -0.007048 -0.002021 0.000000 0.000000 0.000000
# 2 -0.007048 0.010854 -0.002021 0.000000 0.000000 0.000000
# 3 -0.002021 -0.002021 0.019061 0.000000 0.000000 0.000000
# 4 0.000000 0.000000 0.000000 0.132712 0.000000 0.000000
# 5 0.000000 0.000000 0.000000 0.000000 0.132712 0.000000
# 6 0.000000 0.000000 0.000000 0.000000 0.000000 0.035805
#
#
# Mechanical properties :
#
#
# Convention : Reuss Voigt Hill
#
# Bulk Modulus (GPa) = 53.79576 86.31764 70.05670
# Shear Modulus (GPa) = 13.49986 23.81089 18.65538
#
# Velocity S-wave (km/s) = 2.59352 3.44440 3.04879
# Velocity P-wave (km/s) = 5.98100 7.66985 6.87746
#
# Compressibility (1/GPa) = 0.01858883
#
# Stress axis : x y z
#
# Youngs Moduli (GPa) = 92.13024 92.13024 52.46427
#
# Poissons Ratio (x) = 0.64936 0.10603
# Poissons Ratio (y) = 0.64936 0.10603
# Poissons Ratio (z) = 0.18619 0.18619
#
# Static dielectric constant tensor:
#      x y z
#    x 3.817340 0.000000 0.000000 
#    y 0.000000 3.817340 0.000000 
#    z 0.000000 0.000000 3.377760 
# 
# 
# High freq. dielectric constant tensor:
#      x y z
#    x 1.785540 0.000000 0.000000 
#    y 0.000000 1.785540 0.000000 
#    z 0.000000 0.000000 1.772670 
# 
# From -- ./inp_files/1458.got.cif
#   From: 2010.03.12/outbox.cif.g09.slc.cpg/sg191_1_cif.got.tgz:1458.got - 2010.04.01 12:09:02.
