data_PCOD8329585
_publ_section_title
;
Structure prediction by ZEFSAII (Michael W. Deem and Ramdas Pophale) SiO2 
 PCOD8329585
Probable space group: P 6/M C C
;
_chemical_formula_sum "Si O2"
_cell_formula_units_Z 84
_cell_length_a 17.753366
_cell_length_b 17.753366
_cell_length_c 14.643927
_cell_angle_alpha 90.000000
_cell_angle_beta 90.000000
_cell_angle_gamma 120.000000
_cell_volume 3997.142211
_symmetry_space_group_name_H-M "P 6/M C C"
_symmetry_group_IT_number 192
_symmetry_cell_setting 'hexagonal'
loop_
_space_group_symop_operation_xyz
x,y,z
x-y,x,z
-y,x-y,z
-x,-y,z
-x+y,-x,z
y,-x+y,z
x-y,-y,1/2-z
-x,-x+y,1/2-z
y,x,1/2-z
-y,-x,1/2-z
-x+y,y,1/2-z
x,x-y,1/2-z
-x,-y,-z
-x+y,-x,-z
y,-x+y,-z
x,y,-z
x-y,x,-z
-y,x-y,-z
-x+y,y,1/2+z
x,x-y,1/2+z
-y,-x,1/2+z
y,x,1/2+z
x-y,-y,1/2+z
-x,-x+y,1/2+z
loop_
_atom_site_type_symbol
_atom_site_label
_atom_site_fract_x
_atom_site_fract_y
_atom_site_fract_z
Si Si1 0.907531 0.655225 0.301482
Si Si2 0.907302 0.413976 0.106855
Si Si3 0.947549 0.816628 0.394874
Si Si4 0.388778 0.611223 0.750000
O O1 0.818330 0.636660 0.250000
O O2 0.899798 0.568329 0.341293
O O3 0.916206 0.715589 0.386432
O O4 0.000000 0.707071 0.250000
O O5 0.835401 0.428386 0.158377
O O6 0.000000 0.500000 0.120750
O O7 0.884761 0.395002 0.000000
O O8 0.877028 0.836066 0.346926
O O9 0.955687 0.840481 0.500000
O O10 0.432626 0.716313 0.750000
#
# Coordination Sequence:
#
# PCOD8329585 Si02
#       4
#    24  24  24  12
#     4  12  23  39  64  93 132 177 227 285 341 411
#     4  11  25  46  70  98 134 176 220 271 341 412
#     4  10  20  36  56  86 127 173 226 278 334 397
#     4  10  23  44  72 102 132 162 212 274 329 398
#
# _framework density 21.015014000000001
#
# number of rings (size 3 to 8) (size 9 to 14) (size 15 to 20)
#    0.286    0.857    2.857    4.143    0.000    2.286 
#    0.000    2.857    0.000    0.000    0.000    0.000 
#    0.000    0.000    0.000    0.000    0.000    0.000 
#
# Total GULP energy -1040607.665141 kJ/mol
# GULP energy per Si atom -12388.186490 kJ/mol
# Density = 2.096718 g / cm^3
# Si number density = 21.015014 Si / 1000 Ang^3
#
#
#
# Elastic Constant Matrix: (Units=GPa)
#
#
# Indices 1 2 3 4 5 6 
#
# 1 140.0789 57.9398 61.9565 0.0000 0.0000 0.0000
# 2 57.9398 140.0789 61.9565 0.0000 0.0000 0.0000
# 3 61.9565 61.9565 109.7356 0.0000 0.0000 0.0000
# 4 0.0000 0.0000 0.0000 32.7893 0.0000 0.0000
# 5 0.0000 0.0000 0.0000 0.0000 32.7893 0.0000
# 6 0.0000 0.0000 0.0000 0.0000 0.0000 41.0696
#
#
#
# Elastic Compliance Matrix: (Units=1/GPa)
#
#
# Indices 1 2 3 4 5 6 
#
# 1 0.009992 -0.002183 -0.004409 0.000000 0.000000 0.000000
# 2 -0.002183 0.009992 -0.004409 0.000000 0.000000 0.000000
# 3 -0.004409 -0.004409 0.014091 0.000000 0.000000 0.000000
# 4 0.000000 0.000000 0.000000 0.030498 0.000000 0.000000
# 5 0.000000 0.000000 0.000000 0.000000 0.030498 0.000000
# 6 0.000000 0.000000 0.000000 0.000000 0.000000 0.024349
#
#
# Mechanical properties :
#
#
# Convention : Reuss Voigt Hill
#
# Bulk Modulus (GPa) = 82.82541 83.73321 83.27931
# Shear Modulus (GPa) = 34.37728 35.19903 34.78815
#
# Velocity S-wave (km/s) = 4.04894 4.09705 4.07307
# Velocity P-wave (km/s) = 7.83305 7.89380 7.86348
#
# Compressibility (1/GPa) = 0.01207359
#
# Stress axis : x y z
#
# Youngs Moduli (GPa) = 100.08286 100.08286 70.96549
#
# Poissons Ratio (x) = 0.21846 0.31288
# Poissons Ratio (y) = 0.21846 0.31288
# Poissons Ratio (z) = 0.44126 0.44126
#
# Static dielectric constant tensor:
#      x y z
#    x 3.992240 0.000000 0.000000 
#    y 0.000000 3.992240 0.000000 
#    z 0.000000 0.000000 3.649290 
# 
# 
# High freq. dielectric constant tensor:
#      x y z
#    x 1.836570 0.000000 0.000000 
#    y 0.000000 1.836570 0.000000 
#    z 0.000000 0.000000 1.814330 
# 
# From -- ./inp_files/2578.got.cif
#   From: 2010.03.12/outbox.cif.g09.slc.cpg/sg192_2_cif.got.tgz:2578.got - 2010.04.01 12:16:15.
