data_PCOD8329050
_publ_section_title
;
Structure prediction by ZEFSAII (Michael W. Deem and Ramdas Pophale) SiO2 
 PCOD8329050
Probable space group: P 6/M M M
;
_chemical_formula_sum "Si O2"
_cell_formula_units_Z 120
_cell_length_a 17.160832
_cell_length_b 17.160832
_cell_length_c 26.985406
_cell_angle_alpha 90.000000
_cell_angle_beta 90.000000
_cell_angle_gamma 120.000000
_cell_volume 6882.342280
_symmetry_space_group_name_H-M "P 6/M M M"
_symmetry_group_IT_number 191
_symmetry_cell_setting 'hexagonal'
loop_
_space_group_symop_operation_xyz
x,y,z
x-y,x,z
-y,x-y,z
-x,-y,z
-x+y,-x,z
y,-x+y,z
x-y,-y,-z
-x,-x+y,-z
y,x,-z
-y,-x,-z
-x+y,y,-z
x,x-y,-z
-x,-y,-z
-x+y,-x,-z
y,-x+y,-z
x,y,-z
x-y,x,-z
-y,x-y,-z
-x+y,y,z
x,x-y,z
-y,-x,z
y,x,z
x-y,-y,z
-x,-x+y,z
loop_
_atom_site_type_symbol
_atom_site_label
_atom_site_fract_x
_atom_site_fract_y
_atom_site_fract_z
Si Si1 0.488145 0.332846 0.315278
Si Si2 0.157040 0.667934 0.500000
Si Si3 0.893786 0.446893 0.055542
Si Si4 0.156322 0.667649 0.203972
Si Si5 0.633853 0.903496 0.406300
Si Si6 0.609425 0.895642 0.892763
O O1 0.520551 0.260276 0.321369
O O2 0.571077 0.428924 0.328297
O O3 0.452878 0.331419 0.259474
O O4 0.410388 0.313087 0.353847
O O5 0.263612 0.736388 0.500000
O O6 0.135494 0.567747 0.500000
O O7 0.113521 0.679663 0.450627
O O8 0.862831 0.511977 0.081798
O O9 0.000000 0.500000 0.054510
O O10 0.853743 0.426871 0.000000
O O11 0.137787 0.568894 0.189940
O O12 0.263099 0.736901 0.200383
O O13 0.103089 0.697006 0.166157
O O14 0.671131 0.835565 0.407630
O O15 0.721146 0.000000 0.413107
O O16 0.638904 0.819452 0.905326
O O17 0.685560 0.000000 0.908112
#
# Coordination Sequence:
#
# PCOD8329050 Si02
#       6
#    24  12  12  24  24  24
#     4   9  17  28  44  68  98 130 161 193 230 277
#     4  10  20  33  50  71  98 130 159 184 212 255
#     4   9  18  34  54  76 104 134 164 201 245 295
#     4   9  16  27  45  69  98 131 165 200 239 287
#     4  10  21  35  49  67  90 118 153 194 241 285
#     4  10  20  34  52  74 102 136 174 214 257 302
#
# _framework density 17.435925000000001
#
# number of rings (size 3 to 8) (size 9 to 14) (size 15 to 20)
#    0.000    2.500    1.000    1.400    0.000    4.800 
#    0.600    4.000    0.000    0.400    0.000    0.000 
#    0.000    2.400    0.000   15.000    0.000    0.000 
#
# Total GULP energy -1486999.800818 kJ/mol
# GULP energy per Si atom -12391.665007 kJ/mol
# Density = 1.739624 g / cm^3
# Si number density = 17.435925 Si / 1000 Ang^3
#
#
#
# Elastic Constant Matrix: (Units=GPa)
#
#
# Indices 1 2 3 4 5 6 
#
# 1 84.0950 61.1076 29.1353 0.0000 0.0000 0.0000
# 2 61.1076 84.0950 29.1353 0.0000 0.0000 0.0000
# 3 29.1353 29.1353 87.8259 0.0000 0.0000 0.0000
# 4 0.0000 0.0000 0.0000 -44.1797 0.0000 0.0000
# 5 0.0000 0.0000 0.0000 0.0000 -44.1797 0.0000
# 6 0.0000 0.0000 0.0000 0.0000 0.0000 11.4937
#
#
#
# Elastic Compliance Matrix: (Units=1/GPa)
#
#
# Indices 1 2 3 4 5 6 
#
# 1 0.025723 -0.017779 -0.002636 0.000000 0.000000 0.000000
# 2 -0.017779 0.025723 -0.002636 0.000000 0.000000 0.000000
# 3 -0.002636 -0.002636 0.013135 0.000000 0.000000 0.000000
# 4 0.000000 0.000000 0.000000 -0.022635 0.000000 0.000000
# 5 0.000000 0.000000 0.000000 0.000000 -0.022635 0.000000
# 6 0.000000 0.000000 0.000000 0.000000 0.000000 0.087004
#
#
# Mechanical properties :
#
#
# Convention : Reuss Voigt Hill
#
# Bulk Modulus (GPa) = 54.10722 54.97471 54.54097
# Shear Modulus (GPa) = 31.53060 -6.26395 12.63332
#
# Velocity S-wave (km/s) = 4.25711 -1.89746 2.69468
# Velocity P-wave (km/s) = 7.43393 5.17663 6.40550
#
# Compressibility (1/GPa) = 0.01848182
#
# Stress axis : x y z
#
# Youngs Moduli (GPa) = 38.87522 38.87522 76.13380
#
# Poissons Ratio (x) = 0.69115 0.20065
# Poissons Ratio (y) = 0.69115 0.20065
# Poissons Ratio (z) = 0.10246 0.10246
#
# Static dielectric constant tensor:
#      x y z
#    x 3.112840 0.000000 0.000000 
#    y 0.000000 3.112840 0.000000 
#    z 0.000000 0.000000 3.536170 
# 
# 
# High freq. dielectric constant tensor:
#      x y z
#    x 1.646180 0.000000 0.000000 
#    y 0.000000 1.646180 0.000000 
#    z 0.000000 0.000000 1.691050 
# 
# From -- ./inp_files/9631.got.cif
#   From: 2010.03.12/outbox.cif.g09.slc.cpg/sg191_5_cif.got.tgz:9631.got - 2010.04.01 12:09:02.
