data_PCOD8329150
_publ_section_title
;
Structure prediction by ZEFSAII (Michael W. Deem and Ramdas Pophale) SiO2 
 PCOD8329150
Probable space group: P 6/M M M
;
_chemical_formula_sum "Si O2"
_cell_formula_units_Z 192
_cell_length_a 22.828950
_cell_length_b 22.828950
_cell_length_c 24.658849
_cell_angle_alpha 90.000000
_cell_angle_beta 90.000000
_cell_angle_gamma 120.000000
_cell_volume 11129.491105
_symmetry_space_group_name_H-M "P 6/M M M"
_symmetry_group_IT_number 191
_symmetry_cell_setting 'hexagonal'
loop_
_space_group_symop_operation_xyz
x,y,z
x-y,x,z
-y,x-y,z
-x,-y,z
-x+y,-x,z
y,-x+y,z
x-y,-y,-z
-x,-x+y,-z
y,x,-z
-y,-x,-z
-x+y,y,-z
x,x-y,-z
-x,-y,-z
-x+y,-x,-z
y,-x+y,-z
x,y,-z
x-y,x,-z
-y,x-y,-z
-x+y,y,z
x,x-y,z
-y,-x,z
y,x,z
x-y,-y,z
-x,-x+y,z
loop_
_atom_site_type_symbol
_atom_site_label
_atom_site_fract_x
_atom_site_fract_y
_atom_site_fract_z
Si Si1 0.276414 0.202693 0.437560
Si Si2 0.214755 0.290310 0.842435
Si Si3 0.612493 0.737599 0.060212
Si Si4 0.463246 0.666190 0.210005
Si Si5 0.871589 0.266913 0.249349
Si Si6 0.666406 0.202147 0.082322
Si Si7 0.469454 0.803020 0.437552
Si Si8 0.729144 0.131546 0.370798
O O1 0.297726 0.211060 0.500000
O O2 0.256447 0.128224 0.416078
O O3 0.211556 0.211556 0.427962
O O4 0.339778 0.261684 0.406240
O O5 0.135190 0.270380 0.844499
O O6 0.223358 0.223358 0.842576
O O7 0.257228 0.334974 0.894218
O O8 0.252027 0.331707 0.788080
O O9 0.604060 0.802030 0.068520
O O10 0.536815 0.673553 0.067230
O O11 0.640192 0.735412 0.000000
O O12 0.456257 0.728129 0.234793
O O13 0.403610 0.596391 0.234821
O O14 0.535083 0.672982 0.224807
O O15 0.457123 0.666533 0.146163
O O16 0.799586 0.200415 0.249769
O O17 0.899506 0.289203 0.310256
O O18 0.595761 0.191521 0.058203
O O19 0.728819 0.271182 0.057827
O O20 0.490938 0.824317 0.500000
O O21 0.402234 0.804468 0.422432
O O22 0.455220 0.727610 0.427365
O O23 0.528284 0.856743 0.397904
O O24 0.797898 0.202103 0.371209
#
# Coordination Sequence:
#
# PCOD8329150 Si02
#       8
#    24  24  24  24  24  24  24  24
#     4   9  17  30  49  72  96 120 146 178 217 262
#     4  10  20  36  57  79 101 124 151 184 225 276
#     4   9  17  30  48  70  97 130 166 202 240 281
#     4   9  15  24  40  62  90 124 163 204 245 285
#     4   9  17  30  46  66  93 125 160 198 238 279
#     4   9  15  24  40  64  94 128 167 210 255 295
#     4   9  16  26  41  63  93 129 169 214 264 312
#     4   9  17  28  44  66  92 123 160 200 240 280
#
# _framework density 17.251462
#
# number of rings (size 3 to 8) (size 9 to 14) (size 15 to 20)
#    0.000    2.875    1.250    0.750    0.000    4.500 
#    0.000    0.000    0.000    4.375    0.000    5.250 
#    0.000    0.000    0.000    9.375    0.000    3.250 
#
# Total GULP energy -2379168.170318 kJ/mol
# GULP energy per Si atom -12391.500887 kJ/mol
# Density = 1.721220 g / cm^3
# Si number density = 17.251462 Si / 1000 Ang^3
#
#
#
# Elastic Constant Matrix: (Units=GPa)
#
#
# Indices 1 2 3 4 5 6 
#
# 1 80.4444 44.2210 33.1400 0.0000 0.0000 0.0000
# 2 44.2210 80.4444 33.1400 0.0000 0.0000 0.0000
# 3 33.1400 33.1400 89.1888 0.0000 0.0000 0.0000
# 4 0.0000 0.0000 0.0000 7.4719 0.0000 0.0000
# 5 0.0000 0.0000 0.0000 0.0000 7.4719 0.0000
# 6 0.0000 0.0000 0.0000 0.0000 0.0000 18.1117
#
#
#
# Elastic Compliance Matrix: (Units=1/GPa)
#
#
# Indices 1 2 3 4 5 6 
#
# 1 0.018801 -0.008805 -0.003714 0.000000 0.000000 0.000000
# 2 -0.008805 0.018801 -0.003714 0.000000 0.000000 0.000000
# 3 -0.003714 -0.003714 0.013972 0.000000 0.000000 0.000000
# 4 0.000000 0.000000 0.000000 0.133835 0.000000 0.000000
# 5 0.000000 0.000000 0.000000 0.000000 0.133835 0.000000
# 6 0.000000 0.000000 0.000000 0.000000 0.000000 0.055213
#
#
# Mechanical properties :
#
#
# Convention : Reuss Voigt Hill
#
# Bulk Modulus (GPa) = 52.33506 52.34218 52.33862
# Shear Modulus (GPa) = 12.09791 15.91621 14.00706
#
# Velocity S-wave (km/s) = 2.65102 3.04073 2.85254
# Velocity P-wave (km/s) = 6.30658 6.53717 6.42291
#
# Compressibility (1/GPa) = 0.01910765
#
# Stress axis : x y z
#
# Youngs Moduli (GPa) = 53.18770 53.18770 71.56946
#
# Poissons Ratio (x) = 0.46832 0.26583
# Poissons Ratio (y) = 0.46832 0.26583
# Poissons Ratio (z) = 0.19756 0.19756
#
# Static dielectric constant tensor:
#      x y z
#    x 3.038440 0.000000 0.000000 
#    y 0.000000 3.038440 0.000000 
#    z 0.000000 0.000000 3.363240 
# 
# 
# High freq. dielectric constant tensor:
#      x y z
#    x 1.634560 0.000000 0.000000 
#    y 0.000000 1.634560 0.000000 
#    z 0.000000 0.000000 1.671610 
# 
# From -- ./inp_files/9332.got.cif
#   From: 2010.03.12/outbox.cif.g09.slc.cpg/sg191_5_cif.got.tgz:9332.got - 2010.04.01 12:09:02.
