data_PCOD8329937
_publ_section_title
;
Structure prediction by ZEFSAII (Michael W. Deem and Ramdas Pophale) SiO2 
 PCOD8329937
Probable space group: P 63/M C M
;
_chemical_formula_sum "Si O2"
_cell_formula_units_Z 68
_cell_length_a 13.068905
_cell_length_b 13.068905
_cell_length_c 25.119905
_cell_angle_alpha 90.000000
_cell_angle_beta 90.000000
_cell_angle_gamma 120.000000
_cell_volume 3715.583506
_symmetry_space_group_name_H-M "P 63/M C M"
_symmetry_group_IT_number 193
_symmetry_cell_setting 'hexagonal'
loop_
_space_group_symop_operation_xyz
x,y,z
x-y,x,1/2+z
-y,x-y,z
-x,-y,1/2+z
-x+y,-x,z
y,-x+y,1/2+z
x-y,-y,1/2-z
-x,-x+y,1/2-z
y,x,1/2-z
-y,-x,-z
-x+y,y,-z
x,x-y,-z
-x,-y,-z
-x+y,-x,1/2-z
y,-x+y,-z
x,y,1/2-z
x-y,x,-z
-y,x-y,1/2-z
-x+y,y,1/2+z
x,x-y,1/2+z
-y,-x,1/2+z
y,x,z
x-y,-y,z
-x,-x+y,z
loop_
_atom_site_type_symbol
_atom_site_label
_atom_site_fract_x
_atom_site_fract_y
_atom_site_fract_z
Si Si1 0.728043 0.864103 0.560887
Si Si2 0.135174 0.273297 0.250000
Si Si3 0.136042 0.714914 0.653244
Si Si4 0.666667 0.333334 0.813711
O O1 0.684699 0.842350 0.500000
O O2 0.783301 0.783301 0.577530
O O3 0.613992 0.831861 0.596676
O O4 0.828960 0.000000 0.569969
O O5 0.218514 0.218514 0.250000
O O6 0.165368 0.353606 0.301735
O O7 0.000000 0.169205 0.250000
O O8 0.212434 0.652159 0.663128
O O9 0.000000 0.612031 0.655474
O O10 0.666667 0.333334 0.750000
#
# Coordination Sequence:
#
# PCOD8329937 Si02
#       4
#    24  12  24   8
#     4   9  17  32  56  86 119 153 187 225 273 330
#     4  10  19  32  52  80 113 144 176 222 278 328
#     4  10  22  38  55  81 111 140 185 234 274 327
#     4  12  24  42  61  80 103 147 192 232 281 343
#
# _framework density 18.301299
#
# number of rings (size 3 to 8) (size 9 to 14) (size 15 to 20)
#    0.000    2.118    1.765    1.588    0.000    4.235 
#    0.000    5.294    0.000    6.353    0.000    0.000 
#    0.000    0.000    0.000    0.000    0.000    0.000 
#
# Total GULP energy -843424.954333 kJ/mol
# GULP energy per Si atom -12403.308152 kJ/mol
# Density = 1.825964 g / cm^3
# Si number density = 18.301299 Si / 1000 Ang^3
#
#
#
# Elastic Constant Matrix: (Units=GPa)
#
#
# Indices 1 2 3 4 5 6 
#
# 1 96.7595 57.2147 44.7747 0.0001 -0.0002 0.0001
# 2 57.2147 96.7599 44.7744 0.0001 0.0000 0.0004
# 3 44.7747 44.7744 111.5323 0.0001 0.0000 0.0001
# 4 0.0001 0.0001 0.0001 12.1270 0.0000 -0.0001
# 5 -0.0002 0.0000 0.0000 0.0000 12.1270 0.0000
# 6 0.0001 0.0004 0.0001 -0.0001 0.0000 19.7726
#
#
#
# Elastic Compliance Matrix: (Units=1/GPa)
#
#
# Indices 1 2 3 4 5 6 
#
# 1 0.016880 -0.008407 -0.003401 0.000000 0.000000 0.000000
# 2 -0.008407 0.016880 -0.003401 0.000000 0.000000 0.000000
# 3 -0.003401 -0.003401 0.011697 0.000000 0.000000 0.000000
# 4 0.000000 0.000000 0.000000 0.082461 0.000000 0.000000
# 5 0.000000 0.000000 0.000000 0.000000 0.082460 0.000000
# 6 0.000000 0.000000 0.000000 0.000000 0.000000 0.050575
#
#
# Mechanical properties :
#
#
# Convention : Reuss Voigt Hill
#
# Bulk Modulus (GPa) = 66.50268 66.50879 66.50574
# Shear Modulus (GPa) = 16.86986 19.35784 18.11385
#
# Velocity S-wave (km/s) = 3.03939 3.25581 3.14945
# Velocity P-wave (km/s) = 6.98095 7.11011 7.04583
#
# Compressibility (1/GPa) = 0.01503699
#
# Stress axis : x y z
#
# Youngs Moduli (GPa) = 59.24068 59.24113 85.49211
#
# Poissons Ratio (x) = 0.49807 0.29080
# Poissons Ratio (y) = 0.49806 0.29079
# Poissons Ratio (z) = 0.20150 0.20150
#
# Static dielectric constant tensor:
#      x y z
#    x 3.190800 0.000000 0.000000 
#    y 0.000000 3.190790 0.000000 
#    z 0.000000 0.000000 3.749020 
# 
# 
# High freq. dielectric constant tensor:
#      x y z
#    x 1.697180 0.000000 0.000000 
#    y 0.000000 1.697180 0.000000 
#    z 0.000000 0.000000 1.722100 
# 
# From -- ./inp_files/7045.got.cif
#   From: 2010.03.12/outbox.cif.g09.slc.cpg/sg193_4_cif.got.tgz:7045.got - 2010.04.01 12:20:39.
