data_PCOD8329976
_publ_section_title
;
Structure prediction by ZEFSAII (Michael W. Deem and Ramdas Pophale) SiO2 
 PCOD8329976
Probable space group: P 63/M C M
;
_chemical_formula_sum "Si O2"
_cell_formula_units_Z 80
_cell_length_a 17.979071
_cell_length_b 17.979071
_cell_length_c 14.917205
_cell_angle_alpha 90.000000
_cell_angle_beta 90.000000
_cell_angle_gamma 120.000000
_cell_volume 4175.923987
_symmetry_space_group_name_H-M "P 63/M C M"
_symmetry_group_IT_number 193
_symmetry_cell_setting 'hexagonal'
loop_
_space_group_symop_operation_xyz
x,y,z
x-y,x,1/2+z
-y,x-y,z
-x,-y,1/2+z
-x+y,-x,z
y,-x+y,1/2+z
x-y,-y,1/2-z
-x,-x+y,1/2-z
y,x,1/2-z
-y,-x,-z
-x+y,y,-z
x,x-y,-z
-x,-y,-z
-x+y,-x,1/2-z
y,-x+y,-z
x,y,1/2-z
x-y,x,-z
-y,x-y,1/2-z
-x+y,y,1/2+z
x,x-y,1/2+z
-y,-x,1/2+z
y,x,z
x-y,-y,z
-x,-x+y,z
loop_
_atom_site_type_symbol
_atom_site_label
_atom_site_fract_x
_atom_site_fract_y
_atom_site_fract_z
Si Si1 0.666668 0.333334 0.105390
Si Si2 0.161402 0.507055 0.894515
Si Si3 0.099392 0.360529 0.250000
Si Si4 0.636684 0.735245 0.750000
Si Si5 0.463969 0.097304 0.084771
O O1 0.741090 0.426973 0.138524
O O2 0.666668 0.333334 0.000000
O O3 0.118866 0.420949 0.837886
O O4 0.105725 0.553622 0.879208
O O5 0.159742 0.482924 0.999650
O O6 0.160938 0.319032 0.250000
O O7 0.123152 0.420068 0.337502
O O8 0.000000 0.285748 0.250000
O O9 0.712149 0.712149 0.750000
O O10 0.401492 0.000000 0.053725
#
# Coordination Sequence:
#
# PCOD8329976 Si02
#       5
#     8  24  12  12  24
#     4  12  21  34  53  79 111 159 202 232 257 307
#     4  11  22  34  52  79 114 151 192 229 261 307
#     4  10  23  39  57  78 103 137 178 224 281 339
#     4  12  25  39  57  82 107 139 180 230 285 341
#     4  10  19  35  55  77 109 148 185 228 274 316
#
# _framework density 19.157437000000002
#
# number of rings (size 3 to 8) (size 9 to 14) (size 15 to 20)
#    0.000    1.200    3.000    6.300    0.000    2.400 
#    0.000    0.000    0.000    0.300    0.000    0.000 
#    0.000    0.000    0.000    9.600    0.000    0.000 
#
# Total GULP energy -992006.938524 kJ/mol
# GULP energy per Si atom -12400.086732 kJ/mol
# Density = 1.911383 g / cm^3
# Si number density = 19.157437 Si / 1000 Ang^3
#
#
#
# Elastic Constant Matrix: (Units=GPa)
#
#
# Indices 1 2 3 4 5 6 
#
# 1 112.8921 50.2438 44.3248 -0.0002 0.0000 0.0000
# 2 50.2438 112.8929 44.3247 0.0000 0.0000 0.0001
# 3 44.3248 44.3247 83.0231 0.0000 0.0001 0.0000
# 4 -0.0002 0.0000 0.0000 1.0574 0.0002 0.0000
# 5 0.0000 0.0000 0.0001 0.0002 1.0555 0.0001
# 6 0.0000 0.0001 0.0000 0.0000 0.0001 31.3245
#
#
#
# Elastic Compliance Matrix: (Units=1/GPa)
#
#
# Indices 1 2 3 4 5 6 
#
# 1 0.012299 -0.003664 -0.004610 0.000002 0.000000 0.000000
# 2 -0.003664 0.012298 -0.004610 -0.000001 0.000001 0.000000
# 3 -0.004610 -0.004610 0.016967 0.000000 -0.000001 0.000000
# 4 0.000002 -0.000001 0.000000 0.945703 -0.000189 -0.000001
# 5 0.000000 0.000001 -0.000001 -0.000189 0.947444 -0.000003
# 6 0.000000 0.000000 0.000000 -0.000001 -0.000003 0.031924
#
#
# Mechanical properties :
#
#
# Convention : Reuss Voigt Hill
#
# Bulk Modulus (GPa) = 63.30322 65.17719 64.24021
# Shear Modulus (GPa) = 2.50292 18.01512 10.25902
#
# Velocity S-wave (km/s) = 1.14426 3.06988 2.31662
# Velocity P-wave (km/s) = 5.90434 6.83090 6.38445
#
# Compressibility (1/GPa) = 0.01579698
#
# Stress axis : x y z
#
# Youngs Moduli (GPa) = 81.31020 81.31106 58.93669
#
# Poissons Ratio (x) = 0.29788 0.27171
# Poissons Ratio (y) = 0.29788 0.27170
# Poissons Ratio (z) = 0.37485 0.37485
#
# Static dielectric constant tensor:
#      x y z
#    x 3.516690 0.000000 0.000000 
#    y 0.000000 3.516670 0.000000 
#    z 0.000000 0.000000 3.525060 
# 
# 
# High freq. dielectric constant tensor:
#      x y z
#    x 1.722780 0.000000 0.000000 
#    y 0.000000 1.722780 0.000000 
#    z 0.000000 0.000000 1.752470 
# 
# From -- ./inp_files/5026.got.cif
#   From: 2010.03.12/outbox.cif.g09.slc.cpg/sg193_3_cif.got.tgz:5026.got - 2010.04.01 12:20:39.
