data_PCOD8329076
_publ_section_title
;
Structure prediction by ZEFSAII (Michael W. Deem and Ramdas Pophale) SiO2 
 PCOD8329076
Probable space group: P 6/M M M
;
_chemical_formula_sum "Si O2"
_cell_formula_units_Z 156
_cell_length_a 22.061537
_cell_length_b 22.061537
_cell_length_c 20.066054
_cell_angle_alpha 90.000000
_cell_angle_beta 90.000000
_cell_angle_gamma 120.000000
_cell_volume 8457.931046
_symmetry_space_group_name_H-M "P 6/M M M"
_symmetry_group_IT_number 191
_symmetry_cell_setting 'hexagonal'
loop_
_space_group_symop_operation_xyz
x,y,z
x-y,x,z
-y,x-y,z
-x,-y,z
-x+y,-x,z
y,-x+y,z
x-y,-y,-z
-x,-x+y,-z
y,x,-z
-y,-x,-z
-x+y,y,-z
x,x-y,-z
-x,-y,-z
-x+y,-x,-z
y,-x+y,-z
x,y,-z
x-y,x,-z
-y,x-y,-z
-x+y,y,z
x,x-y,z
-y,-x,z
y,x,z
x-y,-y,z
-x,-x+y,z
loop_
_atom_site_type_symbol
_atom_site_label
_atom_site_fract_x
_atom_site_fract_y
_atom_site_fract_z
Si Si1 0.920519 0.305304 0.124603
Si Si2 0.076991 0.287532 0.765901
Si Si3 0.666244 0.471304 0.673527
Si Si4 0.807625 0.473968 0.827139
Si Si5 0.077925 0.786833 0.388348
Si Si6 0.345589 0.425731 0.425342
Si Si7 0.780813 0.080886 0.000000
O O1 0.906914 0.262575 0.192869
O O2 0.868144 0.335873 0.125989
O O3 0.903561 0.252456 0.063896
O O4 0.000000 0.369334 0.119714
O O5 0.130448 0.260896 0.785028
O O6 0.084337 0.310227 0.689426
O O7 0.000000 0.223499 0.782863
O O8 0.742046 0.484091 0.652350
O O9 0.610534 0.389467 0.664655
O O10 0.666151 0.493588 0.749773
O O11 0.644201 0.515377 0.626461
O O12 0.734426 0.468852 0.844217
O O13 0.801143 0.400572 0.845688
O O14 0.133783 0.866218 0.409618
O O15 0.094715 0.733563 0.426743
O O16 0.000000 0.772209 0.405796
O O17 0.362763 0.457461 0.500000
O O18 0.398312 0.398312 0.404190
O O19 0.864811 0.135190 0.000000
O O20 0.764124 0.000000 0.000000
#
# Coordination Sequence:
#
# PCOD8329076 Si02
#       7
#    24  24  24  24  24  24  12
#     4  10  20  33  51  76 103 131 165 207 252 295
#     4   9  16  27  45  68  93 121 156 197 239 284
#     4  10  21  36  54  75  99 129 164 202 243 290
#     4  10  20  35  55  77 102 131 165 204 246 295
#     4   9  17  29  46  68  93 121 154 194 239 286
#     4  10  21  35  50  70  96 125 158 198 245 294
#     4  10  20  34  53  78 109 143 177 213 256 304
#
# _framework density 18.444227999999999
#
# number of rings (size 3 to 8) (size 9 to 14) (size 15 to 20)
#    0.000    2.308    0.000    3.077    0.000    7.692 
#    0.000    2.692    0.000    2.692    0.000    3.231 
#    0.000    3.692    0.000    4.000    0.000    4.308 
#
# Total GULP energy -1934350.084467 kJ/mol
# GULP energy per Si atom -12399.680029 kJ/mol
# Density = 1.840225 g / cm^3
# Si number density = 18.444228 Si / 1000 Ang^3
#
#
#
# Elastic Constant Matrix: (Units=GPa)
#
#
# Indices 1 2 3 4 5 6 
#
# 1 105.6841 57.5848 33.5406 0.0000 0.0000 0.0000
# 2 57.5848 105.6841 33.5406 0.0000 0.0000 0.0000
# 3 33.5406 33.5406 46.7405 0.0000 0.0000 0.0000
# 4 0.0000 0.0000 0.0000 19.4349 0.0000 0.0000
# 5 0.0000 0.0000 0.0000 0.0000 19.4349 0.0000
# 6 0.0000 0.0000 0.0000 0.0000 0.0000 24.0497
#
#
#
# Elastic Compliance Matrix: (Units=1/GPa)
#
#
# Indices 1 2 3 4 5 6 
#
# 1 0.014738 -0.006052 -0.006233 0.000000 0.000000 0.000000
# 2 -0.006052 0.014738 -0.006233 0.000000 0.000000 0.000000
# 3 -0.006233 -0.006233 0.030340 0.000000 0.000000 0.000000
# 4 0.000000 0.000000 0.000000 0.051454 0.000000 0.000000
# 5 0.000000 0.000000 0.000000 0.000000 0.051454 0.000000
# 6 0.000000 0.000000 0.000000 0.000000 0.000000 0.041581
#
#
# Mechanical properties :
#
#
# Convention : Reuss Voigt Hill
#
# Bulk Modulus (GPa) = 43.89783 56.38230 50.14006
# Shear Modulus (GPa) = 20.08573 21.48010 20.78291
#
# Velocity S-wave (km/s) = 3.30358 3.41632 3.36042
# Velocity P-wave (km/s) = 6.19705 6.79685 6.50387
#
# Compressibility (1/GPa) = 0.02278017
#
# Stress axis : x y z
#
# Youngs Moduli (GPa) = 67.85188 67.85188 32.95989
#
# Poissons Ratio (x) = 0.41066 0.20543
# Poissons Ratio (y) = 0.41066 0.20543
# Poissons Ratio (z) = 0.42291 0.42291
#
# Static dielectric constant tensor:
#      x y z
#    x 3.385680 0.000000 0.000000 
#    y 0.000000 3.385680 0.000000 
#    z 0.000000 0.000000 3.405210 
# 
# 
# High freq. dielectric constant tensor:
#      x y z
#    x 1.708590 0.000000 0.000000 
#    y 0.000000 1.708590 0.000000 
#    z 0.000000 0.000000 1.711150 
# 
# From -- ./inp_files/7732.got.cif
#   From: 2010.03.12/outbox.cif.g09.slc.cpg/sg191_4_cif.got.tgz:7732.got - 2010.04.01 12:09:02.
