data_PCOD8329742
_publ_section_title
;
Structure prediction by ZEFSAII (Michael W. Deem and Ramdas Pophale) SiO2 
 PCOD8329742
Probable space group: P 6/M C C
;
_chemical_formula_sum "Si O2"
_cell_formula_units_Z 44
_cell_length_a 12.611856
_cell_length_b 12.611856
_cell_length_c 13.821508
_cell_angle_alpha 90.000000
_cell_angle_beta 90.000000
_cell_angle_gamma 120.000000
_cell_volume 1903.899711
_symmetry_space_group_name_H-M "P 6/M C C"
_symmetry_group_IT_number 192
_symmetry_cell_setting 'hexagonal'
loop_
_space_group_symop_operation_xyz
x,y,z
x-y,x,z
-y,x-y,z
-x,-y,z
-x+y,-x,z
y,-x+y,z
x-y,-y,1/2-z
-x,-x+y,1/2-z
y,x,1/2-z
-y,-x,1/2-z
-x+y,y,1/2-z
x,x-y,1/2-z
-x,-y,-z
-x+y,-x,-z
y,-x+y,-z
x,y,-z
x-y,x,-z
-y,x-y,-z
-x+y,y,1/2+z
x,x-y,1/2+z
-y,-x,1/2+z
y,x,1/2+z
x-y,-y,1/2+z
-x,-x+y,1/2+z
loop_
_atom_site_type_symbol
_atom_site_label
_atom_site_fract_x
_atom_site_fract_y
_atom_site_fract_z
Si Si1 0.219011 0.948229 0.500000
Si Si2 0.570794 0.685333 0.311734
Si Si3 0.333335 0.666668 0.615151
O O1 0.286477 0.937032 0.406984
O O2 0.078377 0.848831 0.500000
O O3 0.585607 0.585607 0.250000
O O4 0.618090 0.809045 0.250000
O O5 0.428464 0.627471 0.343738
O O6 0.333334 0.666668 0.500000
#
# Coordination Sequence:
#
# PCOD8329742 Si02
#       3
#    12  24   8
#     4  12  25  48  78 116 156 207 271 330 384 465
#     4  12  26  49  78 112 158 204 261 324 396 464
#     4  12  28  50  79 121 155 202 268 326 391 475
#
# _framework density 23.110458999999999
#
# number of rings (size 3 to 8) (size 9 to 14) (size 15 to 20)
#    0.000    0.000    8.182    1.909    0.000    4.364 
#    0.000    5.455    0.000    0.000    0.000    0.000 
#    0.000    0.000    0.000    0.000    0.000    0.000 
#
# Total GULP energy -545860.830053 kJ/mol
# GULP energy per Si atom -12405.927956 kJ/mol
# Density = 2.305786 g / cm^3
# Si number density = 23.110459 Si / 1000 Ang^3
#
#
#
# Elastic Constant Matrix: (Units=GPa)
#
#
# Indices 1 2 3 4 5 6 
#
# 1 207.5929 34.2604 77.6270 0.0162 0.0175 0.0109
# 2 34.2604 207.5994 77.6229 -0.0134 -0.0178 -0.0091
# 3 77.6270 77.6229 207.9720 -0.0021 0.0075 -0.0001
# 4 0.0162 -0.0134 -0.0021 259.5349 -0.0496 0.0176
# 5 0.0175 -0.0178 0.0075 -0.0496 259.5934 -0.0148
# 6 0.0109 -0.0091 -0.0001 0.0176 -0.0148 86.6311
#
#
#
# Elastic Compliance Matrix: (Units=1/GPa)
#
#
# Indices 1 2 3 4 5 6 
#
# 1 0.005603 -0.000166 -0.002030 0.000000 0.000000 -0.000001
# 2 -0.000166 0.005603 -0.002029 0.000000 0.000000 0.000001
# 3 -0.002030 -0.002029 0.006323 0.000000 0.000000 0.000000
# 4 0.000000 0.000000 0.000000 0.003853 0.000001 -0.000001
# 5 0.000000 0.000000 0.000000 0.000001 0.003852 0.000001
# 6 -0.000001 0.000001 0.000000 -0.000001 0.000001 0.011543
#
#
# Mechanical properties :
#
#
# Convention : Reuss Voigt Hill
#
# Bulk Modulus (GPa) = 110.12967 111.35386 110.74177
# Shear Modulus (GPa) = 103.61652 150.06215 126.83934
#
# Velocity S-wave (km/s) = 6.70318 8.06682 7.41641
# Velocity P-wave (km/s) = 10.37628 11.62121 11.01635
#
# Compressibility (1/GPa) = 0.00908020
#
# Stress axis : x y z
#
# Youngs Moduli (GPa) = 178.46160 178.47110 158.14385
#
# Poissons Ratio (x) = 0.02960 0.32097
# Poissons Ratio (y) = 0.02960 0.32094
# Poissons Ratio (z) = 0.36221 0.36219
#
# Static dielectric constant tensor:
#      x y z
#    x 4.192460 0.000010 0.000000 
#    y 0.000010 4.192470 -0.000010 
#    z 0.000000 -0.000010 4.582800 
# 
# 
# High freq. dielectric constant tensor:
#      x y z
#    x 1.923170 0.000000 0.000000 
#    y 0.000000 1.923170 0.000000 
#    z 0.000000 0.000000 1.947180 
# 
# From -- ./inp_files/2126.got.cif
#   From: 2010.03.12/outbox.cif.g09.slc.cpg/sg192_2_cif.got.tgz:2126.got - 2010.04.01 12:16:15.
