data_PCOD8329027
_publ_section_title
;
Structure prediction by ZEFSAII (Michael W. Deem and Ramdas Pophale) SiO2 
 PCOD8329027
Probable space group: P 6/M M M
;
_chemical_formula_sum "Si O2"
_cell_formula_units_Z 132
_cell_length_a 17.775777
_cell_length_b 17.775777
_cell_length_c 28.200373
_cell_angle_alpha 90.000000
_cell_angle_beta 90.000000
_cell_angle_gamma 120.000000
_cell_volume 7716.896421
_symmetry_space_group_name_H-M "P 6/M M M"
_symmetry_group_IT_number 191
_symmetry_cell_setting 'hexagonal'
loop_
_space_group_symop_operation_xyz
x,y,z
x-y,x,z
-y,x-y,z
-x,-y,z
-x+y,-x,z
y,-x+y,z
x-y,-y,-z
-x,-x+y,-z
y,x,-z
-y,-x,-z
-x+y,y,-z
x,x-y,-z
-x,-y,-z
-x+y,-x,-z
y,-x+y,-z
x,y,-z
x-y,x,-z
-y,x-y,-z
-x+y,y,z
x,x-y,z
-y,-x,z
y,x,z
x-y,-y,z
-x,-x+y,z
loop_
_atom_site_type_symbol
_atom_site_label
_atom_site_fract_x
_atom_site_fract_y
_atom_site_fract_z
Si Si1 0.897793 0.531673 0.690109
Si Si2 0.259173 0.905428 0.500000
Si Si3 0.368112 0.268660 0.396979
Si Si4 0.636412 0.733971 0.054275
Si Si5 0.840559 0.332079 0.136661
Si Si6 0.099256 0.366635 0.222522
O O1 0.854450 0.427225 0.694540
O O2 0.871254 0.552714 0.639327
O O3 0.865906 0.568947 0.732464
O O4 0.000000 0.574279 0.693954
O O5 0.156619 0.843382 0.500000
O O6 0.299260 0.892245 0.450781
O O7 0.269753 0.000000 0.500000
O O8 0.329534 0.164767 0.391217
O O9 0.291904 0.291904 0.386648
O O10 0.671920 0.835960 0.065332
O O11 0.713853 0.713853 0.065434
O O12 0.552181 0.674187 0.085817
O O13 0.605589 0.711555 0.000000
O O14 0.853477 0.426739 0.142685
O O15 0.739110 0.260891 0.141281
O O16 0.896270 0.318138 0.176725
O O17 0.163390 0.326779 0.216733
O O18 0.000000 0.288522 0.229006
#
# Coordination Sequence:
#
# PCOD8329027 Si02
#       6
#    24  12  24  24  24  24
#     4   9  17  29  45  65  88 113 143 181 223 266
#     4   8  14  24  39  60  85 113 147 187 228 268
#     4   9  16  27  44  65  89 118 152 189 228 270
#     4   9  18  32  49  69  93 122 156 193 233 276
#     4  10  20  33  49  70  96 125 156 191 232 276
#     4  10  20  33  50  72  97 125 156 190 228 269
#
# _framework density 17.105322999999999
#
# number of rings (size 3 to 8) (size 9 to 14) (size 15 to 20)
#    0.000    2.727    0.000    1.818    0.000    2.545 
#    0.000    1.364    0.000    8.455    0.000    3.818 
#    0.000    8.727    0.000    0.364    0.000    1.455 
#
# Total GULP energy -1635609.447787 kJ/mol
# GULP energy per Si atom -12390.980665 kJ/mol
# Density = 1.706639 g / cm^3
# Si number density = 17.105323 Si / 1000 Ang^3
#
#
#
# Elastic Constant Matrix: (Units=GPa)
#
#
# Indices 1 2 3 4 5 6 
#
# 1 81.1181 51.0712 35.1003 0.0000 0.0000 0.0000
# 2 51.0712 81.1181 35.1003 0.0000 0.0000 0.0000
# 3 35.1003 35.1003 105.2396 0.0000 0.0000 0.0000
# 4 0.0000 0.0000 0.0000 20.2142 0.0000 0.0000
# 5 0.0000 0.0000 0.0000 0.0000 20.2142 0.0000
# 6 0.0000 0.0000 0.0000 0.0000 0.0000 15.0235
#
#
#
# Elastic Compliance Matrix: (Units=1/GPa)
#
#
# Indices 1 2 3 4 5 6 
#
# 1 0.021237 -0.012044 -0.003066 0.000000 0.000000 0.000000
# 2 -0.012044 0.021237 -0.003066 0.000000 0.000000 0.000000
# 3 -0.003066 -0.003066 0.011547 0.000000 0.000000 0.000000
# 4 0.000000 0.000000 0.000000 0.049470 0.000000 0.000000
# 5 0.000000 0.000000 0.000000 0.000000 0.049470 0.000000
# 6 0.000000 0.000000 0.000000 0.000000 0.000000 0.066563
#
#
# Mechanical properties :
#
#
# Convention : Reuss Voigt Hill
#
# Bulk Modulus (GPa) = 56.59585 56.66884 56.63234
# Shear Modulus (GPa) = 19.10092 20.83731 19.96911
#
# Velocity S-wave (km/s) = 3.34528 3.49403 3.42046
# Velocity P-wave (km/s) = 6.93395 7.03412 6.98422
#
# Compressibility (1/GPa) = 0.01766914
#
# Stress axis : x y z
#
# Youngs Moduli (GPa) = 47.08702 47.08702 86.59920
#
# Poissons Ratio (x) = 0.56712 0.26553
# Poissons Ratio (y) = 0.56712 0.26553
# Poissons Ratio (z) = 0.14438 0.14438
#
# Static dielectric constant tensor:
#      x y z
#    x 3.096700 0.000000 0.000000 
#    y 0.000000 3.096700 0.000000 
#    z 0.000000 0.000000 3.572210 
# 
# 
# High freq. dielectric constant tensor:
#      x y z
#    x 1.636170 0.000000 0.000000 
#    y 0.000000 1.636170 0.000000 
#    z 0.000000 0.000000 1.685980 
# 
# From -- ./inp_files/9817.got.cif
#   From: 2010.03.12/outbox.cif.g09.slc.cpg/sg191_5_cif.got.tgz:9817.got - 2010.04.01 12:09:02.
