data_PCOD8329731
_publ_section_title
;
Structure prediction by ZEFSAII (Michael W. Deem and Ramdas Pophale) SiO2 
 PCOD8329731
Probable space group: P 6/M C C
;
_chemical_formula_sum "Si O2"
_cell_formula_units_Z 96
_cell_length_a 14.170697
_cell_length_b 14.170697
_cell_length_c 24.927304
_cell_angle_alpha 90.000000
_cell_angle_beta 90.000000
_cell_angle_gamma 120.000000
_cell_volume 4334.992653
_symmetry_space_group_name_H-M "P 6/M C C"
_symmetry_group_IT_number 192
_symmetry_cell_setting 'hexagonal'
loop_
_space_group_symop_operation_xyz
x,y,z
x-y,x,z
-y,x-y,z
-x,-y,z
-x+y,-x,z
y,-x+y,z
x-y,-y,1/2-z
-x,-x+y,1/2-z
y,x,1/2-z
-y,-x,1/2-z
-x+y,y,1/2-z
x,x-y,1/2-z
-x,-y,-z
-x+y,-x,-z
y,-x+y,-z
x,y,-z
x-y,x,-z
-y,x-y,-z
-x+y,y,1/2+z
x,x-y,1/2+z
-y,-x,1/2+z
y,x,1/2+z
x-y,-y,1/2+z
-x,-x+y,1/2+z
loop_
_atom_site_type_symbol
_atom_site_label
_atom_site_fract_x
_atom_site_fract_y
_atom_site_fract_z
Si Si1 0.823925 0.052885 0.063376
Si Si2 0.723787 0.190256 0.938884
Si Si3 0.878656 0.543560 0.730353
Si Si4 0.114472 0.510312 0.609396
O O1 0.730882 0.082918 0.076623
O O2 0.937864 0.144661 0.089369
O O3 0.841148 0.055601 0.000000
O O4 0.844338 0.296388 0.932665
O O5 0.640702 0.197951 0.897169
O O6 0.683934 0.183680 0.000000
O O7 0.785999 0.571997 0.750000
O O8 0.847811 0.423906 0.750000
O O9 0.883126 0.538787 0.666514
O O10 0.000000 0.635346 0.750000
O O11 0.000000 0.500000 0.592984
#
# Coordination Sequence:
#
# PCOD8329731 Si02
#       4
#    24  24  24  24
#     4   9  17  32  54  80 112 157 212 268 318 367
#     4  11  24  39  58  90 135 181 219 265 326 403
#     4  11  23  45  73 106 136 173 226 301 372 423
#     4  12  24  41  66  95 131 175 229 274 339 415
#
# _framework density 22.145365999999999
#
# number of rings (size 3 to 8) (size 9 to 14) (size 15 to 20)
#    0.000    1.250    2.500    4.750    0.000    5.000 
#    0.000    0.000    0.000    0.250    0.000    0.000 
#    0.000    0.000    0.000    0.000    0.000    0.000 
#
# Total GULP energy -1189656.161904 kJ/mol
# GULP energy per Si atom -12392.251686 kJ/mol
# Density = 2.209496 g / cm^3
# Si number density = 22.145366 Si / 1000 Ang^3
#
#
#
# Elastic Constant Matrix: (Units=GPa)
#
#
# Indices 1 2 3 4 5 6 
#
# 1 95.0478 27.7678 28.4457 0.0000 0.0000 0.0000
# 2 27.7678 95.0478 28.4457 0.0000 0.0000 0.0000
# 3 28.4457 28.4457 76.6922 0.0000 0.0000 0.0000
# 4 0.0000 0.0000 0.0000 25.1917 0.0000 0.0000
# 5 0.0000 0.0000 0.0000 0.0000 25.1917 0.0000
# 6 0.0000 0.0000 0.0000 0.0000 0.0000 33.6400
#
#
#
# Elastic Compliance Matrix: (Units=1/GPa)
#
#
# Indices 1 2 3 4 5 6 
#
# 1 0.012347 -0.002516 -0.003647 0.000000 0.000000 0.000000
# 2 -0.002516 0.012347 -0.003647 0.000000 0.000000 0.000000
# 3 -0.003647 -0.003647 0.015744 0.000000 0.000000 0.000000
# 4 0.000000 0.000000 0.000000 0.039696 0.000000 0.000000
# 5 0.000000 0.000000 0.000000 0.000000 0.039696 0.000000
# 6 0.000000 0.000000 0.000000 0.000000 0.000000 0.029727
#
#
# Mechanical properties :
#
#
# Convention : Reuss Voigt Hill
#
# Bulk Modulus (GPa) = 48.02867 48.45624 48.24245
# Shear Modulus (GPa) = 28.39053 28.94658 28.66856
#
# Velocity S-wave (km/s) = 3.58440 3.61933 3.60191
# Velocity P-wave (km/s) = 6.23422 6.27651 6.25540
#
# Compressibility (1/GPa) = 0.02082090
#
# Stress axis : x y z
#
# Youngs Moduli (GPa) = 80.98892 80.98892 63.51549
#
# Poissons Ratio (x) = 0.20376 0.23161
# Poissons Ratio (y) = 0.20376 0.23161
# Poissons Ratio (z) = 0.29533 0.29533
#
# Static dielectric constant tensor:
#      x y z
#    x 4.218210 0.000000 0.000000 
#    y 0.000000 4.218210 0.000000 
#    z 0.000000 0.000000 3.606660 
# 
# 
# High freq. dielectric constant tensor:
#      x y z
#    x 1.883240 0.000000 0.000000 
#    y 0.000000 1.883240 0.000000 
#    z 0.000000 0.000000 1.830510 
# 
# From -- ./inp_files/6328.got.cif
#   From: 2010.03.12/outbox.cif.g09.slc.cpg/sg192_4_cif.got.tgz:6328.got - 2010.04.01 12:16:15.
