data_PCOD8329192
_publ_section_title
;
Structure prediction by ZEFSAII (Michael W. Deem and Ramdas Pophale) SiO2 
 PCOD8329192
Probable space group: P 6/M M M
;
_chemical_formula_sum "Si O2"
_cell_formula_units_Z 144
_cell_length_a 30.973017
_cell_length_b 30.973017
_cell_length_c 9.268552
_cell_angle_alpha 90.000000
_cell_angle_beta 90.000000
_cell_angle_gamma 120.000000
_cell_volume 7700.333669
_symmetry_space_group_name_H-M "P 6/M M M"
_symmetry_group_IT_number 191
_symmetry_cell_setting 'hexagonal'
loop_
_space_group_symop_operation_xyz
x,y,z
x-y,x,z
-y,x-y,z
-x,-y,z
-x+y,-x,z
y,-x+y,z
x-y,-y,-z
-x,-x+y,-z
y,x,-z
-y,-x,-z
-x+y,y,-z
x,x-y,-z
-x,-y,-z
-x+y,-x,-z
y,-x+y,-z
x,y,-z
x-y,x,-z
-y,x-y,-z
-x+y,y,z
x,x-y,z
-y,-x,z
y,x,z
x-y,-y,z
-x,-x+y,z
loop_
_atom_site_type_symbol
_atom_site_label
_atom_site_fract_x
_atom_site_fract_y
_atom_site_fract_z
Si Si1 0.759702 0.618310 0.333472
Si Si2 0.942802 0.705531 0.831189
Si Si3 0.944417 0.792747 0.665679
Si Si4 0.666991 0.432397 0.833454
Si Si5 0.855282 0.517554 0.667167
Si Si6 0.942777 0.521265 0.166330
O O1 0.761094 0.633246 0.500000
O O2 0.812923 0.625845 0.284447
O O3 0.744760 0.652003 0.238337
O O4 0.718745 0.561017 0.307644
O O5 0.929575 0.745141 0.764126
O O6 0.000000 0.721407 0.797977
O O7 0.932328 0.702714 0.000000
O O8 0.940498 0.775512 0.500000
O O9 0.906430 0.812860 0.697984
O O10 0.000000 0.837344 0.701884
O O11 0.718777 0.437553 0.780794
O O12 0.624361 0.375640 0.809225
O O13 0.654132 0.467700 0.741109
O O14 0.669987 0.447861 0.000000
O O15 0.856811 0.506245 0.500000
O O16 0.909120 0.534475 0.733956
O O17 0.930274 0.465137 0.196822
O O18 0.000000 0.559883 0.204695
O O19 0.932014 0.526954 0.000000
#
# Coordination Sequence:
#
# PCOD8329192 Si02
#       6
#    24  24  24  24  24  24
#     4  10  22  39  55  72 101 141 178 210 249 302
#     4  10  21  35  52  77 105 130 163 212 263 306
#     4   9  17  30  49  72  99 133 171 209 252 304
#     4  10  21  38  60  84 110 141 178 219 263 313
#     4  11  23  37  55  81 112 143 176 217 264 314
#     4   9  19  37  59  81 107 141 180 221 265 312
#
# _framework density 18.700488
#
# number of rings (size 3 to 8) (size 9 to 14) (size 15 to 20)
#    0.000    2.167    0.000    3.167    0.000   10.333 
#    0.000    4.167    0.000    1.167    0.000    1.167 
#    0.000    0.000    0.000    4.167    0.000    4.333 
#
# Total GULP energy -1786131.922310 kJ/mol
# GULP energy per Si atom -12403.693905 kJ/mol
# Density = 1.865793 g / cm^3
# Si number density = 18.700488 Si / 1000 Ang^3
#
#
#
# Elastic Constant Matrix: (Units=GPa)
#
#
# Indices 1 2 3 4 5 6 
#
# 1 93.0677 33.7954 48.4405 0.0000 0.0000 0.0000
# 2 33.7954 93.0677 48.4405 0.0000 0.0000 0.0000
# 3 48.4405 48.4405 86.7980 0.0000 0.0000 0.0000
# 4 0.0000 0.0000 0.0000 26.8665 0.0000 0.0000
# 5 0.0000 0.0000 0.0000 0.0000 26.8665 0.0000
# 6 0.0000 0.0000 0.0000 0.0000 0.0000 29.6362
#
#
#
# Elastic Compliance Matrix: (Units=1/GPa)
#
#
# Indices 1 2 3 4 5 6 
#
# 1 0.015304 -0.001567 -0.007666 0.000000 0.000000 0.000000
# 2 -0.001567 0.015304 -0.007666 0.000000 0.000000 0.000000
# 3 -0.007666 -0.007666 0.020078 0.000000 0.000000 0.000000
# 4 0.000000 0.000000 0.000000 0.037221 0.000000 0.000000
# 5 0.000000 0.000000 0.000000 0.000000 0.037221 0.000000
# 6 0.000000 0.000000 0.000000 0.000000 0.000000 0.033743
#
#
# Mechanical properties :
#
#
# Convention : Reuss Voigt Hill
#
# Bulk Modulus (GPa) = 59.21903 59.36512 59.29208
# Shear Modulus (GPa) = 25.21433 26.15763 25.68598
#
# Velocity S-wave (km/s) = 3.67594 3.74407 3.71016
# Velocity P-wave (km/s) = 7.05355 7.10668 7.08016
#
# Compressibility (1/GPa) = 0.01688646
#
# Stress axis : x y z
#
# Youngs Moduli (GPa) = 65.34160 65.34160 49.80570
#
# Poissons Ratio (x) = 0.10240 0.38183
# Poissons Ratio (y) = 0.10240 0.38183
# Poissons Ratio (z) = 0.50094 0.50094
#
# Static dielectric constant tensor:
#      x y z
#    x 3.412310 0.000000 0.000000 
#    y 0.000000 3.412310 0.000000 
#    z 0.000000 0.000000 3.433390 
# 
# 
# High freq. dielectric constant tensor:
#      x y z
#    x 1.727200 0.000000 0.000000 
#    y 0.000000 1.727200 0.000000 
#    z 0.000000 0.000000 1.724670 
# 
# From -- ./inp_files/1931.got.cif
#   From: 2010.03.12/outbox.cif.g09.slc.cpg/sg191_1_cif.got.tgz:1931.got - 2010.04.01 12:09:02.
