data_PCOD8329637
_publ_section_title
;
Structure prediction by ZEFSAII (Michael W. Deem and Ramdas Pophale) SiO2 
 PCOD8329637
Probable space group: P 6/M C C
;
_chemical_formula_sum "Si O2"
_cell_formula_units_Z 102
_cell_length_a 25.254753
_cell_length_b 25.254753
_cell_length_c 9.271444
_cell_angle_alpha 90.000000
_cell_angle_beta 90.000000
_cell_angle_gamma 120.000000
_cell_volume 5121.111856
_symmetry_space_group_name_H-M "P 6/M C C"
_symmetry_group_IT_number 192
_symmetry_cell_setting 'hexagonal'
loop_
_space_group_symop_operation_xyz
x,y,z
x-y,x,z
-y,x-y,z
-x,-y,z
-x+y,-x,z
y,-x+y,z
x-y,-y,1/2-z
-x,-x+y,1/2-z
y,x,1/2-z
-y,-x,1/2-z
-x+y,y,1/2-z
x,x-y,1/2-z
-x,-y,-z
-x+y,-x,-z
y,-x+y,-z
x,y,-z
x-y,x,-z
-y,x-y,-z
-x+y,y,1/2+z
x,x-y,1/2+z
-y,-x,1/2+z
y,x,1/2+z
x-y,-y,1/2+z
-x,-x+y,1/2+z
loop_
_atom_site_type_symbol
_atom_site_label
_atom_site_fract_x
_atom_site_fract_y
_atom_site_fract_z
Si Si1 0.938031 0.643758 0.334395
Si Si2 0.566873 0.331303 0.165851
Si Si3 0.500000 0.000000 0.250000
Si Si4 0.173667 0.935457 0.670031
Si Si5 0.469253 0.368972 0.157517
O O1 0.951223 0.638723 0.500000
O O2 0.910994 0.689259 0.312568
O O3 0.895770 0.576014 0.274020
O O4 0.000000 0.668919 0.250000
O O5 0.630473 0.369528 0.250000
O O6 0.531914 0.265957 0.250000
O O7 0.531713 0.369025 0.179103
O O8 0.577463 0.320757 0.000000
O O9 0.438597 0.956024 0.161471
O O10 0.111540 0.888461 0.750000
O O11 0.162193 0.941659 0.500000
O O12 0.198842 0.000000 0.750000
O O13 0.441151 0.343189 0.000000
#
# Coordination Sequence:
#
# PCOD8329637 Si02
#       5
#    24  24   6  24  24
#     4  10  21  36  57  84 118 156 197 243 297 354
#     4  11  24  43  63  87 114 150 195 246 302 361
#     4  12  22  40  64  94 126 160 206 248 320 372
#     4  10  21  38  61  91 125 166 210 258 310 371
#     4  11  24  39  61  91 123 158 200 249 309 374
#
# _framework density 19.917551
#
# number of rings (size 3 to 8) (size 9 to 14) (size 15 to 20)
#    0.000    1.412    2.353    2.706    0.000    6.588 
#    0.000    4.706    0.000    0.235    0.000    1.647 
#    0.000    0.000    0.000    0.000    0.000    0.000 
#
# Total GULP energy -1264120.927813 kJ/mol
# GULP energy per Si atom -12393.342430 kJ/mol
# Density = 1.987222 g / cm^3
# Si number density = 19.917551 Si / 1000 Ang^3
#
#
#
# Elastic Constant Matrix: (Units=GPa)
#
#
# Indices 1 2 3 4 5 6 
#
# 1 97.0708 43.4269 65.0485 0.0000 0.0000 0.0000
# 2 43.4269 97.0708 65.0485 0.0000 0.0000 0.0000
# 3 65.0485 65.0485 180.4563 0.0000 0.0000 0.0000
# 4 0.0000 0.0000 0.0000 32.0177 0.0000 0.0000
# 5 0.0000 0.0000 0.0000 0.0000 32.0177 0.0000
# 6 0.0000 0.0000 0.0000 0.0000 0.0000 26.8219
#
#
#
# Elastic Compliance Matrix: (Units=1/GPa)
#
#
# Indices 1 2 3 4 5 6 
#
# 1 0.014662 -0.003979 -0.003851 0.000000 0.000000 0.000000
# 2 -0.003979 0.014662 -0.003851 0.000000 0.000000 0.000000
# 3 -0.003851 -0.003851 0.008318 0.000000 0.000000 0.000000
# 4 0.000000 0.000000 0.000000 0.031233 0.000000 0.000000
# 5 0.000000 0.000000 0.000000 0.000000 0.031233 0.000000
# 6 0.000000 0.000000 0.000000 0.000000 0.000000 0.037283
#
#
# Mechanical properties :
#
#
# Convention : Reuss Voigt Hill
#
# Bulk Modulus (GPa) = 70.02466 80.18289 75.10377
# Shear Modulus (GPa) = 30.20899 31.57639 30.89269
#
# Velocity S-wave (km/s) = 3.89871 3.98597 3.94258
# Velocity P-wave (km/s) = 7.44984 7.84403 7.64947
#
# Compressibility (1/GPa) = 0.01428068
#
# Stress axis : x y z
#
# Youngs Moduli (GPa) = 68.20123 68.20123 120.22315
#
# Poissons Ratio (x) = 0.27137 0.46299
# Poissons Ratio (y) = 0.27137 0.46299
# Poissons Ratio (z) = 0.26265 0.26265
#
# Static dielectric constant tensor:
#      x y z
#    x 3.607100 0.000000 0.000000 
#    y 0.000000 3.607100 0.000000 
#    z 0.000000 0.000000 4.512130 
# 
# 
# High freq. dielectric constant tensor:
#      x y z
#    x 1.769110 0.000000 0.000000 
#    y 0.000000 1.769110 0.000000 
#    z 0.000000 0.000000 1.794570 
# 
# From -- ./inp_files/879.got.cif
#   From: 2010.03.12/outbox.cif.g09.slc.cpg/sg192_1_cif.got.tgz:879.got - 2010.04.01 12:16:15.
