data_PCOD8329353
_publ_section_title
;
Structure prediction by ZEFSAII (Michael W. Deem and Ramdas Pophale) SiO2 
 PCOD8329353
Probable space group: P 6/M C C
;
_chemical_formula_sum "Si O2"
_cell_formula_units_Z 120
_cell_length_a 17.579343
_cell_length_b 17.579343
_cell_length_c 24.075612
_cell_angle_alpha 90.000000
_cell_angle_beta 90.000000
_cell_angle_gamma 120.000000
_cell_volume 6443.372620
_symmetry_space_group_name_H-M "P 6/M C C"
_symmetry_group_IT_number 192
_symmetry_cell_setting 'hexagonal'
loop_
_space_group_symop_operation_xyz
x,y,z
x-y,x,z
-y,x-y,z
-x,-y,z
-x+y,-x,z
y,-x+y,z
x-y,-y,1/2-z
-x,-x+y,1/2-z
y,x,1/2-z
-y,-x,1/2-z
-x+y,y,1/2-z
x,x-y,1/2-z
-x,-y,-z
-x+y,-x,-z
y,-x+y,-z
x,y,-z
x-y,x,-z
-y,x-y,-z
-x+y,y,1/2+z
x,x-y,1/2+z
-y,-x,1/2+z
y,x,1/2+z
x-y,-y,1/2+z
-x,-x+y,1/2+z
loop_
_atom_site_type_symbol
_atom_site_label
_atom_site_fract_x
_atom_site_fract_y
_atom_site_fract_z
Si Si1 0.443084 0.088630 0.936123
Si Si2 0.178134 0.821867 0.750000
Si Si3 0.207029 0.814326 0.869878
Si Si4 0.192822 0.063018 0.366266
Si Si5 0.112935 0.487371 0.063243
Si Si6 0.000000 0.797203 0.750000
O O1 0.398710 0.124910 0.893574
O O2 0.547309 0.133203 0.924899
O O3 0.401702 0.986476 0.923623
O O4 0.425717 0.104636 0.000000
O O5 0.224880 0.810181 0.804068
O O6 0.077395 0.781173 0.772732
O O7 0.192802 0.897737 0.881278
O O8 0.292722 0.824114 0.898971
O O9 0.163789 0.130117 0.391409
O O10 0.178203 0.048389 0.299046
O O11 0.135485 0.479141 0.000000
#
# Coordination Sequence:
#
# PCOD8329353 Si02
#       6
#    24  12  24  24  24  12
#     4   9  19  37  58  82 108 133 173 230 289 342
#     4  10  22  30  50  79 116 154 200 230 261 330
#     4  11  20  34  55  80 111 152 184 231 279 338
#     4  11  19  29  45  73 112 156 199 239 269 305
#     4   9  19  36  58  83 107 132 174 231 285 343
#     4  10  16  30  43  68 109 158 198 238 262 289
#
# _framework density 18.623787
#
# number of rings (size 3 to 8) (size 9 to 14) (size 15 to 20)
#    0.000    2.000    4.000    3.200    2.800    0.000 
#    1.200    2.000    0.000    2.400    0.000    0.000 
#    0.000    9.600    0.000    0.000    0.000    0.000 
#
# Total GULP energy -1487127.819449 kJ/mol
# GULP energy per Si atom -12392.731829 kJ/mol
# Density = 1.858140 g / cm^3
# Si number density = 18.623787 Si / 1000 Ang^3
#
#
#
# Elastic Constant Matrix: (Units=GPa)
#
#
# Indices 1 2 3 4 5 6 
#
# 1 64.2882 14.4029 32.1867 0.0000 0.0000 0.0000
# 2 14.4029 64.2882 32.1867 0.0000 0.0000 0.0000
# 3 32.1867 32.1867 78.8651 0.0000 0.0000 0.0000
# 4 0.0000 0.0000 0.0000 26.4524 0.0000 0.0000
# 5 0.0000 0.0000 0.0000 0.0000 26.4524 0.0000
# 6 0.0000 0.0000 0.0000 0.0000 0.0000 24.9426
#
#
#
# Elastic Compliance Matrix: (Units=1/GPa)
#
#
# Indices 1 2 3 4 5 6 
#
# 1 0.019562 -0.000484 -0.007786 0.000000 0.000000 0.000000
# 2 -0.000484 0.019562 -0.007786 0.000000 0.000000 0.000000
# 3 -0.007786 -0.007786 0.019035 0.000000 0.000000 0.000000
# 4 0.000000 0.000000 0.000000 0.037804 0.000000 0.000000
# 5 0.000000 0.000000 0.000000 0.000000 0.037804 0.000000
# 6 0.000000 0.000000 0.000000 0.000000 0.000000 0.040092
#
#
# Mechanical properties :
#
#
# Convention : Reuss Voigt Hill
#
# Bulk Modulus (GPa) = 38.39363 40.55489 39.47426
# Shear Modulus (GPa) = 23.29354 24.14716 23.72035
#
# Velocity S-wave (km/s) = 3.54042 3.60471 3.57271
# Velocity P-wave (km/s) = 6.11334 6.25686 6.18552
#
# Compressibility (1/GPa) = 0.02604599
#
# Stress axis : x y z
#
# Youngs Moduli (GPa) = 51.12069 51.12069 52.53474
#
# Poissons Ratio (x) = 0.02477 0.40903
# Poissons Ratio (y) = 0.02477 0.40903
# Poissons Ratio (z) = 0.39802 0.39802
#
# Static dielectric constant tensor:
#      x y z
#    x 3.373030 0.000000 0.000000 
#    y 0.000000 3.373030 0.000000 
#    z 0.000000 0.000000 3.228400 
# 
# 
# High freq. dielectric constant tensor:
#      x y z
#    x 1.712240 0.000000 0.000000 
#    y 0.000000 1.712240 0.000000 
#    z 0.000000 0.000000 1.699360 
# 
# From -- ./inp_files/6460.got.cif
#   From: 2010.03.12/outbox.cif.g09.slc.cpg/sg192_4_cif.got.tgz:6460.got - 2010.04.01 12:16:15.
