data_PCOD8329905
_publ_section_title
;
Structure prediction by ZEFSAII (Michael W. Deem and Ramdas Pophale) SiO2 
 PCOD8329905
Probable space group: P 63/M C M
;
_chemical_formula_sum "Si O2"
_cell_formula_units_Z 96
_cell_length_a 19.580126
_cell_length_b 19.580126
_cell_length_c 16.700726
_cell_angle_alpha 90.000000
_cell_angle_beta 90.000000
_cell_angle_gamma 120.000000
_cell_volume 5544.941223
_symmetry_space_group_name_H-M "P 63/M C M"
_symmetry_group_IT_number 193
_symmetry_cell_setting 'hexagonal'
loop_
_space_group_symop_operation_xyz
x,y,z
x-y,x,1/2+z
-y,x-y,z
-x,-y,1/2+z
-x+y,-x,z
y,-x+y,1/2+z
x-y,-y,1/2-z
-x,-x+y,1/2-z
y,x,1/2-z
-y,-x,-z
-x+y,y,-z
x,x-y,-z
-x,-y,-z
-x+y,-x,1/2-z
y,-x+y,-z
x,y,1/2-z
x-y,x,-z
-y,x-y,1/2-z
-x+y,y,1/2+z
x,x-y,1/2+z
-y,-x,1/2+z
y,x,z
x-y,-y,z
-x,-x+y,z
loop_
_atom_site_type_symbol
_atom_site_label
_atom_site_fract_x
_atom_site_fract_y
_atom_site_fract_z
Si Si1 0.481914 0.285479 0.427161
Si Si2 0.321175 0.233534 0.511424
Si Si3 0.132448 0.422421 0.159529
Si Si4 0.534835 0.445026 0.342950
O O1 0.521694 0.260847 0.500000
O O2 0.398876 0.273590 0.457023
O O3 0.468536 0.226955 0.353584
O O4 0.531298 0.375401 0.397888
O O5 0.277943 0.138972 0.500000
O O6 0.261286 0.261286 0.482213
O O7 0.345904 0.257409 0.603545
O O8 0.113403 0.392145 0.250000
O O9 0.097996 0.479357 0.139269
O O10 0.527044 0.419951 0.250000
O O11 0.467564 0.467564 0.365020
#
# Coordination Sequence:
#
# PCOD8329905 Si02
#       4
#    24  24  24  24
#     4   9  19  32  46  66  95 126 158 192 236 284
#     4   9  18  31  49  70  94 122 150 187 234 281
#     4   9  18  32  49  71  95 121 160 202 242 285
#     4  10  19  31  50  72  93 122 162 206 249 289
#
# _framework density 17.313078000000001
#
# number of rings (size 3 to 8) (size 9 to 14) (size 15 to 20)
#    0.000    3.250    0.000    2.250    0.000    5.500 
#    1.500    6.250    0.000    7.000    0.000    0.000 
#    0.000    0.000    0.000    0.750    0.000    0.000 
#
# Total GULP energy -1189652.828737 kJ/mol
# GULP energy per Si atom -12392.216966 kJ/mol
# Density = 1.727367 g / cm^3
# Si number density = 17.313078 Si / 1000 Ang^3
#
#
#
# Elastic Constant Matrix: (Units=GPa)
#
#
# Indices 1 2 3 4 5 6 
#
# 1 77.5678 36.0141 43.1716 0.0000 0.0000 0.0000
# 2 36.0141 77.5678 43.1716 0.0000 0.0000 0.0000
# 3 43.1716 43.1716 71.3332 0.0000 0.0000 0.0000
# 4 0.0000 0.0000 0.0000 19.3902 0.0000 0.0000
# 5 0.0000 0.0000 0.0000 0.0000 19.3902 0.0000
# 6 0.0000 0.0000 0.0000 0.0000 0.0000 20.7769
#
#
#
# Elastic Compliance Matrix: (Units=1/GPa)
#
#
# Indices 1 2 3 4 5 6 
#
# 1 0.020186 -0.003879 -0.009869 0.000000 0.000000 0.000000
# 2 -0.003879 0.020186 -0.009869 0.000000 0.000000 0.000000
# 3 -0.009869 -0.009869 0.025964 0.000000 0.000000 0.000000
# 4 0.000000 0.000000 0.000000 0.051572 0.000000 0.000000
# 5 0.000000 0.000000 0.000000 0.000000 0.051572 0.000000
# 6 0.000000 0.000000 0.000000 0.000000 0.000000 0.048130
#
#
# Mechanical properties :
#
#
# Convention : Reuss Voigt Hill
#
# Bulk Modulus (GPa) = 52.35145 52.35372 52.35258
# Shear Modulus (GPa) = 18.43577 18.85223 18.64400
#
# Velocity S-wave (km/s) = 3.26674 3.30343 3.28514
# Velocity P-wave (km/s) = 6.67327 6.69741 6.68535
#
# Compressibility (1/GPa) = 0.01910167
#
# Stress axis : x y z
#
# Youngs Moduli (GPa) = 49.53991 49.53991 38.51475
#
# Poissons Ratio (x) = 0.19219 0.38009
# Poissons Ratio (y) = 0.19219 0.38009
# Poissons Ratio (z) = 0.48890 0.48890
#
# Static dielectric constant tensor:
#      x y z
#    x 3.143180 0.000000 0.000000 
#    y 0.000000 3.143180 0.000000 
#    z 0.000000 0.000000 3.305010 
# 
# 
# High freq. dielectric constant tensor:
#      x y z
#    x 1.648880 0.000000 0.000000 
#    y 0.000000 1.648880 0.000000 
#    z 0.000000 0.000000 1.672840 
# 
# From -- ./inp_files/5190.got.cif
#   From: 2010.03.12/outbox.cif.g09.slc.cpg/sg193_3_cif.got.tgz:5190.got - 2010.04.01 12:20:39.
