data_PCOD8329971
_publ_section_title
;
Structure prediction by ZEFSAII (Michael W. Deem and Ramdas Pophale) SiO2 
 PCOD8329971
Probable space group: P 63/M C M
;
_chemical_formula_sum "Si O2"
_cell_formula_units_Z 144
_cell_length_a 21.107710
_cell_length_b 21.107710
_cell_length_c 19.831870
_cell_angle_alpha 90.000000
_cell_angle_beta 90.000000
_cell_angle_gamma 120.000000
_cell_volume 7652.027746
_symmetry_space_group_name_H-M "P 63/M C M"
_symmetry_group_IT_number 193
_symmetry_cell_setting 'hexagonal'
loop_
_space_group_symop_operation_xyz
x,y,z
x-y,x,1/2+z
-y,x-y,z
-x,-y,1/2+z
-x+y,-x,z
y,-x+y,1/2+z
x-y,-y,1/2-z
-x,-x+y,1/2-z
y,x,1/2-z
-y,-x,-z
-x+y,y,-z
x,x-y,-z
-x,-y,-z
-x+y,-x,1/2-z
y,-x+y,-z
x,y,1/2-z
x-y,x,-z
-y,x-y,1/2-z
-x+y,y,1/2+z
x,x-y,1/2+z
-y,-x,1/2+z
y,x,z
x-y,-y,z
-x,-x+y,z
loop_
_atom_site_type_symbol
_atom_site_label
_atom_site_fract_x
_atom_site_fract_y
_atom_site_fract_z
Si Si1 0.799840 0.494176 0.872866
Si Si2 0.203669 0.647668 0.175859
Si Si3 0.917504 0.192770 0.449855
Si Si4 0.355108 0.171458 0.172843
Si Si5 0.667219 0.584850 0.632688
Si Si6 0.918100 0.337772 0.020572
O O1 0.806834 0.431252 0.836351
O O2 0.711054 0.459549 0.880150
O O3 0.831685 0.569471 0.830642
O O4 0.848803 0.514363 0.940845
O O5 0.239789 0.675595 0.250000
O O6 0.122387 0.635469 0.178524
O O7 0.875195 0.124806 0.500000
O O8 0.890228 0.181051 0.372416
O O9 0.909341 0.258290 0.480428
O O10 0.000000 0.209504 0.448490
O O11 0.328635 0.160180 0.250000
O O12 0.366368 0.246273 0.142052
O O13 0.632773 0.632773 0.657948
O O14 0.643476 0.556252 0.556472
O O15 0.000000 0.397185 0.049438
#
# Coordination Sequence:
#
# PCOD8329971 Si02
#       6
#    24  24  24  24  24  24
#     4  10  21  36  55  76 105 143 189 234 283 344
#     4  11  22  35  53  74 102 143 184 230 283 340
#     4  10  19  34  58  85 113 149 189 227 277 338
#     4  10  20  34  56  83 113 148 185 235 289 337
#     4  10  20  35  55  79 109 141 179 229 286 343
#     4   9  19  36  57  79 104 139 181 229 282 333
#
# _framework density 18.818541
#
# number of rings (size 3 to 8) (size 9 to 14) (size 15 to 20)
#    0.000    2.000    1.667    3.333    0.000    3.000 
#    0.000    1.667    0.000    9.667    0.000    0.000 
#    0.000    0.000    0.000    0.000    0.000    0.000 
#
# Total GULP energy -1784280.091657 kJ/mol
# GULP energy per Si atom -12390.833970 kJ/mol
# Density = 1.877571 g / cm^3
# Si number density = 18.818541 Si / 1000 Ang^3
#
#
#
# Elastic Constant Matrix: (Units=GPa)
#
#
# Indices 1 2 3 4 5 6 
#
# 1 94.1426 66.1143 40.3192 0.0000 0.0000 0.0000
# 2 66.1143 94.1426 40.3192 0.0000 0.0000 0.0000
# 3 40.3192 40.3192 98.1245 0.0000 0.0000 0.0000
# 4 0.0000 0.0000 0.0000 17.4196 0.0000 0.0000
# 5 0.0000 0.0000 0.0000 0.0000 17.4196 0.0000
# 6 0.0000 0.0000 0.0000 0.0000 0.0000 14.0141
#
#
#
# Elastic Compliance Matrix: (Units=1/GPa)
#
#
# Indices 1 2 3 4 5 6 
#
# 1 0.021772 -0.013906 -0.003232 0.000000 0.000000 0.000000
# 2 -0.013906 0.021772 -0.003232 0.000000 0.000000 0.000000
# 3 -0.003232 -0.003232 0.012847 0.000000 0.000000 0.000000
# 4 0.000000 0.000000 0.000000 0.057407 0.000000 0.000000
# 5 0.000000 0.000000 0.000000 0.000000 0.057407 0.000000
# 6 0.000000 0.000000 0.000000 0.000000 0.000000 0.071357
#
#
# Mechanical properties :
#
#
# Convention : Reuss Voigt Hill
#
# Bulk Modulus (GPa) = 63.89341 64.43501 64.16421
# Shear Modulus (GPa) = 17.32980 19.08110 18.20545
#
# Velocity S-wave (km/s) = 3.03791 3.18772 3.11371
# Velocity P-wave (km/s) = 6.80671 6.91832 6.86274
#
# Compressibility (1/GPa) = 0.01565107
#
# Stress axis : x y z
#
# Youngs Moduli (GPa) = 45.92981 45.92981 77.83657
#
# Poissons Ratio (x) = 0.63870 0.25159
# Poissons Ratio (y) = 0.63870 0.25159
# Poissons Ratio (z) = 0.14846 0.14846
#
# Static dielectric constant tensor:
#      x y z
#    x 3.452470 0.000000 0.000000 
#    y 0.000000 3.452470 0.000000 
#    z 0.000000 0.000000 3.452910 
# 
# 
# High freq. dielectric constant tensor:
#      x y z
#    x 1.717180 0.000000 0.000000 
#    y 0.000000 1.717180 0.000000 
#    z 0.000000 0.000000 1.725500 
# 
# From -- ./inp_files/6578.got.cif
#   From: 2010.03.12/outbox.cif.g09.slc.cpg/sg193_4_cif.got.tgz:6578.got - 2010.04.01 12:20:39.
