data_PCOD8329443
_publ_section_title
;
Structure prediction by ZEFSAII (Michael W. Deem and Ramdas Pophale) SiO2 
 PCOD8329443
Probable space group: P 6/M C C
;
_chemical_formula_sum "Si O2"
_cell_formula_units_Z 104
_cell_length_a 18.738861
_cell_length_b 18.738861
_cell_length_c 15.983736
_cell_angle_alpha 90.000000
_cell_angle_beta 90.000000
_cell_angle_gamma 120.000000
_cell_volume 4860.660732
_symmetry_space_group_name_H-M "P 6/M C C"
_symmetry_group_IT_number 192
_symmetry_cell_setting 'hexagonal'
loop_
_space_group_symop_operation_xyz
x,y,z
x-y,x,z
-y,x-y,z
-x,-y,z
-x+y,-x,z
y,-x+y,z
x-y,-y,1/2-z
-x,-x+y,1/2-z
y,x,1/2-z
-y,-x,1/2-z
-x+y,y,1/2-z
x,x-y,1/2-z
-x,-y,-z
-x+y,-x,-z
y,-x+y,-z
x,y,-z
x-y,x,-z
-y,x-y,-z
-x+y,y,1/2+z
x,x-y,1/2+z
-y,-x,1/2+z
y,x,1/2+z
x-y,-y,1/2+z
-x,-x+y,1/2+z
loop_
_atom_site_type_symbol
_atom_site_label
_atom_site_fract_x
_atom_site_fract_y
_atom_site_fract_z
Si Si1 0.589406 0.568778 0.900259
Si Si2 0.357736 0.108728 0.599195
Si Si3 0.666668 0.333334 0.100063
Si Si4 0.510085 0.711523 0.599387
Si Si5 0.927503 0.109065 0.346697
O O1 0.500000 0.500000 0.865752
O O2 0.619612 0.660904 0.866693
O O3 0.654563 0.544498 0.864978
O O4 0.586659 0.569703 0.000000
O O5 0.346498 0.102842 0.500000
O O6 0.432302 0.195560 0.629169
O O7 0.276579 0.101965 0.639141
O O8 0.679673 0.419185 0.135403
O O9 0.666667 0.333334 0.000000
O O10 0.507156 0.706130 0.500000
O O11 0.916445 0.083556 0.250000
O O12 0.019007 0.149458 0.387710
#
# Coordination Sequence:
#
# PCOD8329443 Si02
#       5
#    24  24   8  24  24
#     4   9  16  26  41  65  99 133 163 200 247 296
#     4  10  19  31  49  75 105 133 164 206 256 307
#     4   9  15  24  39  63  97 131 163 198 238 284
#     4   9  16  25  39  62  92 125 158 194 237 286
#     4  10  21  37  55  74  97 130 171 214 259 311
#
# _framework density 21.396267999999999
#
# number of rings (size 3 to 8) (size 9 to 14) (size 15 to 20)
#    0.000    2.538    0.000    3.000    0.000    9.231 
#    0.000    0.000    0.000    1.385    0.000   24.231 
#    0.000    0.000    0.000    0.000    0.000    0.000 
#
# Total GULP energy -1289042.162012 kJ/mol
# GULP energy per Si atom -12394.636173 kJ/mol
# Density = 2.134757 g / cm^3
# Si number density = 21.396268 Si / 1000 Ang^3
#
#
#
# Elastic Constant Matrix: (Units=GPa)
#
#
# Indices 1 2 3 4 5 6 
#
# 1 213.8597 107.7729 9.4801 0.0000 0.0000 -0.0002
# 2 107.7729 213.8574 9.4802 0.0001 0.0000 -0.0005
# 3 9.4801 9.4802 6.3275 0.0000 0.0000 0.0000
# 4 0.0000 0.0001 0.0000 15.0250 0.0000 0.0000
# 5 0.0000 0.0000 0.0000 0.0000 15.0250 0.0000
# 6 -0.0002 -0.0005 0.0000 0.0000 0.0000 53.0423
#
#
#
# Elastic Compliance Matrix: (Units=1/GPa)
#
#
# Indices 1 2 3 4 5 6 
#
# 1 0.006418 -0.003008 -0.005109 0.000000 0.000000 0.000000
# 2 -0.003008 0.006418 -0.005110 0.000000 0.000000 0.000000
# 3 -0.005109 -0.005110 0.173350 0.000000 0.000000 0.000000
# 4 0.000000 0.000000 0.000000 0.066556 0.000000 0.000000
# 5 0.000000 0.000000 0.000000 0.000000 0.066556 0.000000
# 6 0.000000 0.000000 0.000000 0.000000 0.000000 0.018853
#
#
# Mechanical properties :
#
#
# Convention : Reuss Voigt Hill
#
# Bulk Modulus (GPa) = 6.26046 76.39011 41.32528
# Shear Modulus (GPa) = 11.96603 37.10590 24.53596
#
# Velocity S-wave (km/s) = 2.36743 4.16892 3.39003
# Velocity P-wave (km/s) = 3.22572 7.67810 5.88891
#
# Compressibility (1/GPa) = 0.15973279
#
# Stress axis : x y z
#
# Youngs Moduli (GPa) = 155.80422 155.80233 5.76867
#
# Poissons Ratio (x) = 0.46865 0.02947
# Poissons Ratio (y) = 0.46866 0.02948
# Poissons Ratio (z) = 0.79607 0.79609
#
# Static dielectric constant tensor:
#      x y z
#    x 4.159950 0.000000 0.000000 
#    y 0.000000 4.159960 0.000000 
#    z 0.000000 0.000000 3.092300 
# 
# 
# High freq. dielectric constant tensor:
#      x y z
#    x 1.859130 0.000000 0.000000 
#    y 0.000000 1.859130 0.000000 
#    z 0.000000 0.000000 1.770260 
# 
# From -- ./inp_files/4833.got.cif
#   From: 2010.03.12/outbox.cif.g09.slc.cpg/sg192_3_cif.got.tgz:4833.got - 2010.04.01 12:16:15.
