data_PCOD8329776
_publ_section_title
;
Structure prediction by ZEFSAII (Michael W. Deem and Ramdas Pophale) SiO2 
 PCOD8329776
Probable space group: P 63/M C M
;
_chemical_formula_sum "Si O2"
_cell_formula_units_Z 192
_cell_length_a 23.518873
_cell_length_b 23.518873
_cell_length_c 24.459859
_cell_angle_alpha 90.000000
_cell_angle_beta 90.000000
_cell_angle_gamma 120.000000
_cell_volume 11717.031428
_symmetry_space_group_name_H-M "P 63/M C M"
_symmetry_group_IT_number 193
_symmetry_cell_setting 'hexagonal'
loop_
_space_group_symop_operation_xyz
x,y,z
x-y,x,1/2+z
-y,x-y,z
-x,-y,1/2+z
-x+y,-x,z
y,-x+y,1/2+z
x-y,-y,1/2-z
-x,-x+y,1/2-z
y,x,1/2-z
-y,-x,-z
-x+y,y,-z
x,x-y,-z
-x,-y,-z
-x+y,-x,1/2-z
y,-x+y,-z
x,y,1/2-z
x-y,x,-z
-y,x-y,1/2-z
-x+y,y,1/2+z
x,x-y,1/2+z
-y,-x,1/2+z
y,x,z
x-y,-y,z
-x,-x+y,z
loop_
_atom_site_type_symbol
_atom_site_label
_atom_site_fract_x
_atom_site_fract_y
_atom_site_fract_z
Si Si1 0.634352 0.077580 0.865513
Si Si2 0.873120 0.297135 0.688002
Si Si3 0.074266 0.728862 0.417640
Si Si4 0.290646 0.122203 0.406808
Si Si5 0.517616 0.074889 0.811702
Si Si6 0.926330 0.851615 0.936536
Si Si7 0.385377 0.231647 0.688617
Si Si8 0.923901 0.299904 0.467642
O O1 0.576092 0.093317 0.854801
O O2 0.691045 0.118925 0.821789
O O3 0.666907 0.104859 0.925693
O O4 0.607157 0.000000 0.856937
O O5 0.898458 0.295766 0.750000
O O6 0.921503 0.297493 0.641688
O O7 0.873365 0.365394 0.679980
O O8 0.801662 0.232802 0.678235
O O9 0.116101 0.805503 0.424201
O O10 0.096547 0.699126 0.468858
O O11 0.000000 0.710525 0.427885
O O12 0.211799 0.082450 0.403586
O O13 0.319715 0.121313 0.347579
O O14 0.321154 0.094749 0.451050
O O15 0.544665 0.080755 0.750000
O O16 0.458669 0.000000 0.821948
O O17 0.876180 0.876180 0.917071
O O18 0.000000 0.910885 0.926201
O O19 0.915989 0.831977 0.000000
O O20 0.359338 0.219001 0.750000
O O21 0.000000 0.345213 0.460273
#
# Coordination Sequence:
#
# PCOD8329776 Si02
#       8
#    24  24  24  24  24  24  24  24
#     4   9  17  29  46  68  92 116 144 180 220 262
#     4   9  18  31  45  62  86 116 148 178 210 251
#     4  10  18  27  41  61  85 113 143 175 213 259
#     4  10  18  28  44  63  85 114 145 178 220 273
#     4   9  16  27  45  66  86 113 149 182 211 248
#     4  10  19  30  44  62  84 111 146 189 234 278
#     4   9  18  31  46  67  93 117 143 181 226 265
#     4   9  17  28  41  61  88 113 138 172 217 266
#
# _framework density 16.386403999999999
#
# number of rings (size 3 to 8) (size 9 to 14) (size 15 to 20)
#    0.000    2.625    0.000    2.750    0.000    4.500 
#    0.000    0.625    0.000    4.625    0.000    1.750 
#    0.000    1.000    0.000    3.500    0.000    2.500 
#
# Total GULP energy -2378872.009511 kJ/mol
# GULP energy per Si atom -12389.958383 kJ/mol
# Density = 1.634911 g / cm^3
# Si number density = 16.386404 Si / 1000 Ang^3
#
#
#
# Elastic Constant Matrix: (Units=GPa)
#
#
# Indices 1 2 3 4 5 6 
#
# 1 47.2210 2.6933 14.3816 0.0000 0.0000 0.0000
# 2 2.6933 47.2210 14.3816 0.0000 0.0000 0.0000
# 3 14.3816 14.3816 81.3484 0.0000 0.0000 0.0000
# 4 0.0000 0.0000 0.0000 17.7411 0.0000 0.0000
# 5 0.0000 0.0000 0.0000 0.0000 17.7411 0.0000
# 6 0.0000 0.0000 0.0000 0.0000 0.0000 22.2639
#
#
#
# Elastic Compliance Matrix: (Units=1/GPa)
#
#
# Indices 1 2 3 4 5 6 
#
# 1 0.022382 -0.000076 -0.003944 0.000000 0.000000 0.000000
# 2 -0.000076 0.022382 -0.003944 0.000000 0.000000 0.000000
# 3 -0.003944 -0.003944 0.013687 0.000000 0.000000 0.000000
# 4 0.000000 0.000000 0.000000 0.056366 0.000000 0.000000
# 5 0.000000 0.000000 0.000000 0.000000 0.056366 0.000000
# 6 0.000000 0.000000 0.000000 0.000000 0.000000 0.044916
#
#
# Mechanical properties :
#
#
# Convention : Reuss Voigt Hill
#
# Bulk Modulus (GPa) = 23.51480 26.52259 25.01869
# Shear Modulus (GPa) = 20.30855 21.17146 20.74001
#
# Velocity S-wave (km/s) = 3.52426 3.59836 3.56150
# Velocity P-wave (km/s) = 5.56255 5.78663 5.67570
#
# Compressibility (1/GPa) = 0.04252642
#
# Stress axis : x y z
#
# Youngs Moduli (GPa) = 44.67795 44.67795 73.06099
#
# Poissons Ratio (x) = 0.00337 0.28813
# Poissons Ratio (y) = 0.00337 0.28813
# Poissons Ratio (z) = 0.17619 0.17619
#
# Static dielectric constant tensor:
#      x y z
#    x 2.996940 0.000000 0.000000 
#    y 0.000000 2.996940 0.000000 
#    z 0.000000 0.000000 3.278200 
# 
# 
# High freq. dielectric constant tensor:
#      x y z
#    x 1.613750 0.000000 0.000000 
#    y 0.000000 1.613750 0.000000 
#    z 0.000000 0.000000 1.632090 
# 
# From -- ./inp_files/7867.got.cif
#   From: 2010.03.12/outbox.cif.g09.slc.cpg/sg193_4_cif.got.tgz:7867.got - 2010.04.01 12:20:39.
