data_PCOD8329462
_publ_section_title
;
Structure prediction by ZEFSAII (Michael W. Deem and Ramdas Pophale) SiO2 
 PCOD8329462
Probable space group: P 6/M C C
;
_chemical_formula_sum "Si O2"
_cell_formula_units_Z 144
_cell_length_a 32.079951
_cell_length_b 32.079951
_cell_length_c 8.769415
_cell_angle_alpha 90.000000
_cell_angle_beta 90.000000
_cell_angle_gamma 120.000000
_cell_volume 7815.713789
_symmetry_space_group_name_H-M "P 6/M C C"
_symmetry_group_IT_number 192
_symmetry_cell_setting 'hexagonal'
loop_
_space_group_symop_operation_xyz
x,y,z
x-y,x,z
-y,x-y,z
-x,-y,z
-x+y,-x,z
y,-x+y,z
x-y,-y,1/2-z
-x,-x+y,1/2-z
y,x,1/2-z
-y,-x,1/2-z
-x+y,y,1/2-z
x,x-y,1/2-z
-x,-y,-z
-x+y,-x,-z
y,-x+y,-z
x,y,-z
x-y,x,-z
-y,x-y,-z
-x+y,y,1/2+z
x,x-y,1/2+z
-y,-x,1/2+z
y,x,1/2+z
x-y,-y,1/2+z
-x,-x+y,1/2+z
loop_
_atom_site_type_symbol
_atom_site_label
_atom_site_fract_x
_atom_site_fract_y
_atom_site_fract_z
Si Si1 0.951626 0.521279 0.680748
Si Si2 0.423752 0.756749 0.680338
Si Si3 0.190691 0.140843 0.180102
Si Si4 0.397954 0.153844 0.321187
Si Si5 0.484927 0.343669 0.820248
Si Si6 0.103059 0.294806 0.822805
O O1 0.947167 0.473584 0.750000
O O2 0.956222 0.521459 0.500000
O O3 0.903640 0.521071 0.726231
O O4 0.000000 0.567074 0.750000
O O5 0.373943 0.747886 0.750000
O O6 0.437009 0.718505 0.750000
O O7 0.418100 0.749186 0.500000
O O8 0.465760 0.810456 0.722390
O O9 0.150332 0.150332 0.250000
O O10 0.183683 0.091842 0.250000
O O11 0.243741 0.186545 0.227047
O O12 0.183616 0.134708 0.000000
O O13 0.403507 0.201754 0.250000
O O14 0.403664 0.162665 0.500000
O O15 0.440373 0.146228 0.259844
O O16 0.345607 0.105748 0.281243
O O17 0.482401 0.351845 0.000000
O O18 0.149509 0.299018 0.750000
O O19 0.109441 0.291777 0.000000
#
# Coordination Sequence:
#
# PCOD8329462 Si02
#       6
#    24  24  24  24  24  24
#     4  11  22  38  60  81 103 131 166 210 259 313
#     4  11  23  38  56  78 107 143 183 230 280 331
#     4  10  19  32  51  76 105 138 177 220 265 312
#     4   9  17  31  51  75 106 141 177 218 262 311
#     4  10  21  36  55  81 111 142 177 218 265 319
#     4   8  15  28  47  70  97 131 168 207 250 296
#
# _framework density 18.424420000000001
#
# number of rings (size 3 to 8) (size 9 to 14) (size 15 to 20)
#    0.000    2.167    0.000    4.167    0.000    4.000 
#    0.000    0.833    0.000    2.167    0.000    1.167 
#    0.000    0.000    0.000    0.000    0.000    0.000 
#
# Total GULP energy -1784147.072763 kJ/mol
# GULP energy per Si atom -12389.910228 kJ/mol
# Density = 1.838249 g / cm^3
# Si number density = 18.424420 Si / 1000 Ang^3
#
#
#
# Elastic Constant Matrix: (Units=GPa)
#
#
# Indices 1 2 3 4 5 6 
#
# 1 117.8309 66.3145 51.7910 0.0000 0.0000 0.0000
# 2 66.3145 117.8309 51.7910 0.0000 0.0000 0.0000
# 3 51.7910 51.7910 83.6723 0.0000 0.0000 0.0000
# 4 0.0000 0.0000 0.0000 25.4414 0.0000 0.0000
# 5 0.0000 0.0000 0.0000 0.0000 25.4414 0.0000
# 6 0.0000 0.0000 0.0000 0.0000 0.0000 25.7582
#
#
#
# Elastic Compliance Matrix: (Units=1/GPa)
#
#
# Indices 1 2 3 4 5 6 
#
# 1 0.013871 -0.005540 -0.005157 0.000000 0.000000 0.000000
# 2 -0.005540 0.013871 -0.005157 0.000000 0.000000 0.000000
# 3 -0.005157 -0.005157 0.018335 0.000000 0.000000 0.000000
# 4 0.000000 0.000000 0.000000 0.039306 0.000000 0.000000
# 5 0.000000 0.000000 0.000000 0.000000 0.039306 0.000000
# 6 0.000000 0.000000 0.000000 0.000000 0.000000 0.038823
#
#
# Mechanical properties :
#
#
# Convention : Reuss Voigt Hill
#
# Bulk Modulus (GPa) = 69.58729 73.23635 71.41182
# Shear Modulus (GPa) = 24.99879 25.29072 25.14475
#
# Velocity S-wave (km/s) = 3.68751 3.70898 3.69826
# Velocity P-wave (km/s) = 7.48207 7.62745 7.55511
#
# Compressibility (1/GPa) = 0.01437044
#
# Stress axis : x y z
#
# Youngs Moduli (GPa) = 72.09158 72.09158 54.53980
#
# Poissons Ratio (x) = 0.39939 0.28125
# Poissons Ratio (y) = 0.39939 0.28125
# Poissons Ratio (z) = 0.37176 0.37176
#
# Static dielectric constant tensor:
#      x y z
#    x 3.669880 0.000000 0.000000 
#    y 0.000000 3.669880 0.000000 
#    z 0.000000 0.000000 3.372340 
# 
# 
# High freq. dielectric constant tensor:
#      x y z
#    x 1.711270 0.000000 0.000000 
#    y 0.000000 1.711270 0.000000 
#    z 0.000000 0.000000 1.720520 
# 
# From -- ./inp_files/1195.got.cif
#   From: 2010.03.12/outbox.cif.g09.slc.cpg/sg192_1_cif.got.tgz:1195.got - 2010.04.01 12:16:15.
