data_PCOD8329231
_publ_section_title
;
Structure prediction by ZEFSAII (Michael W. Deem and Ramdas Pophale) SiO2 
 PCOD8329231
Probable space group: P 6/M M M
;
_chemical_formula_sum "Si O2"
_cell_formula_units_Z 144
_cell_length_a 31.431178
_cell_length_b 31.431178
_cell_length_c 9.178978
_cell_angle_alpha 90.000000
_cell_angle_beta 90.000000
_cell_angle_gamma 120.000000
_cell_volume 7853.193110
_symmetry_space_group_name_H-M "P 6/M M M"
_symmetry_group_IT_number 191
_symmetry_cell_setting 'hexagonal'
loop_
_space_group_symop_operation_xyz
x,y,z
x-y,x,z
-y,x-y,z
-x,-y,z
-x+y,-x,z
y,-x+y,z
x-y,-y,-z
-x,-x+y,-z
y,x,-z
-y,-x,-z
-x+y,y,-z
x,x-y,-z
-x,-y,-z
-x+y,-x,-z
y,-x+y,-z
x,y,-z
x-y,x,-z
-y,x-y,-z
-x+y,y,z
x,x-y,z
-y,-x,z
y,x,z
x-y,-y,z
-x,-x+y,z
loop_
_atom_site_type_symbol
_atom_site_label
_atom_site_fract_x
_atom_site_fract_y
_atom_site_fract_z
Si Si1 0.853498 0.611691 0.172997
Si Si2 0.710101 0.765188 0.828076
Si Si3 0.483724 0.338563 0.172824
Si Si4 0.235737 0.568911 0.331196
Si Si5 0.478131 0.055885 0.666645
Si Si6 0.203609 0.054580 0.331671
O O1 0.808826 0.617652 0.236519
O O2 0.905729 0.655919 0.229525
O O3 0.846773 0.560322 0.228091
O O4 0.852468 0.612306 0.000000
O O5 0.723479 0.723479 0.780780
O O6 0.747946 0.817326 0.760132
O O7 0.713692 0.772334 0.000000
O O8 0.534054 0.346376 0.239021
O O9 0.471443 0.379752 0.225251
O O10 0.488632 0.341419 0.000000
O O11 0.223816 0.554719 0.500000
O O12 0.281601 0.563201 0.279085
O O13 0.249770 0.624885 0.304078
O O14 0.472754 0.068576 0.500000
O O15 0.531499 0.062997 0.691947
O O16 0.436792 0.000000 0.703372
O O17 0.218284 0.057643 0.500000
O O18 0.184462 0.092231 0.294220
O O19 0.160170 0.000000 0.290536
#
# Coordination Sequence:
#
# PCOD8329231 Si02
#       6
#    24  24  24  24  24  24
#     4   9  18  32  48  67  97 136 168 194 234 291
#     4   9  17  30  50  73  93 118 158 203 240 277
#     4  11  22  34  52  79 108 136 168 208 253 302
#     4  10  21  38  59  80 103 134 173 214 255 302
#     4   9  19  37  58  77 100 133 171 209 251 300
#     4   9  17  29  45  66  93 123 154 192 240 288
#
# _framework density 18.336490000000001
#
# number of rings (size 3 to 8) (size 9 to 14) (size 15 to 20)
#    0.000    2.500    0.000    2.667    0.000    6.333 
#    0.000    4.167    0.000    7.167    0.000    1.167 
#    0.000    0.000    0.000    4.167    0.000    4.333 
#
# Total GULP energy -1785581.005769 kJ/mol
# GULP energy per Si atom -12399.868096 kJ/mol
# Density = 1.829476 g / cm^3
# Si number density = 18.336490 Si / 1000 Ang^3
#
#
#
# Elastic Constant Matrix: (Units=GPa)
#
#
# Indices 1 2 3 4 5 6 
#
# 1 112.2329 50.7083 34.5809 0.0000 0.0000 0.0000
# 2 50.7083 112.2329 34.5809 0.0000 0.0000 0.0000
# 3 34.5809 34.5809 43.6919 0.0000 0.0000 0.0000
# 4 0.0000 0.0000 0.0000 25.6669 0.0000 0.0000
# 5 0.0000 0.0000 0.0000 0.0000 25.6669 0.0000
# 6 0.0000 0.0000 0.0000 0.0000 0.0000 30.7623
#
#
#
# Elastic Compliance Matrix: (Units=1/GPa)
#
#
# Indices 1 2 3 4 5 6 
#
# 1 0.012748 -0.003506 -0.007315 0.000000 0.000000 0.000000
# 2 -0.003506 0.012748 -0.007315 0.000000 0.000000 0.000000
# 3 -0.007315 -0.007315 0.034466 0.000000 0.000000 0.000000
# 4 0.000000 0.000000 0.000000 0.038961 0.000000 0.000000
# 5 0.000000 0.000000 0.000000 0.000000 0.038961 0.000000
# 6 0.000000 0.000000 0.000000 0.000000 0.000000 0.032507
#
#
# Mechanical properties :
#
#
# Convention : Reuss Voigt Hill
#
# Bulk Modulus (GPa) = 42.20961 56.43309 49.32135
# Shear Modulus (GPa) = 23.30367 26.30507 24.80437
#
# Velocity S-wave (km/s) = 3.56882 3.79169 3.68194
# Velocity P-wave (km/s) = 6.32862 7.07194 6.71058
#
# Compressibility (1/GPa) = 0.02369129
#
# Stress axis : x y z
#
# Youngs Moduli (GPa) = 78.44468 78.44468 29.01380
#
# Poissons Ratio (x) = 0.27501 0.21223
# Poissons Ratio (y) = 0.27501 0.21223
# Poissons Ratio (z) = 0.57380 0.57380
#
# Static dielectric constant tensor:
#      x y z
#    x 3.522340 0.000000 0.000000 
#    y 0.000000 3.522340 0.000000 
#    z 0.000000 0.000000 3.169580 
# 
# 
# High freq. dielectric constant tensor:
#      x y z
#    x 1.715600 0.000000 0.000000 
#    y 0.000000 1.715600 0.000000 
#    z 0.000000 0.000000 1.690750 
# 
# From -- ./inp_files/1970.got.cif
#   From: 2010.03.12/outbox.cif.g09.slc.cpg/sg191_1_cif.got.tgz:1970.got - 2010.04.01 12:09:02.
