data_PCOD8329551
_publ_section_title
;
Structure prediction by ZEFSAII (Michael W. Deem and Ramdas Pophale) SiO2 
 PCOD8329551
Probable space group: P 6/M C C
;
_chemical_formula_sum "Si O2"
_cell_formula_units_Z 120
_cell_length_a 14.715570
_cell_length_b 14.715570
_cell_length_c 27.403085
_cell_angle_alpha 90.000000
_cell_angle_beta 90.000000
_cell_angle_gamma 120.000000
_cell_volume 5139.066853
_symmetry_space_group_name_H-M "P 6/M C C"
_symmetry_group_IT_number 192
_symmetry_cell_setting 'hexagonal'
loop_
_space_group_symop_operation_xyz
x,y,z
x-y,x,z
-y,x-y,z
-x,-y,z
-x+y,-x,z
y,-x+y,z
x-y,-y,1/2-z
-x,-x+y,1/2-z
y,x,1/2-z
-y,-x,1/2-z
-x+y,y,1/2-z
x,x-y,1/2-z
-x,-y,-z
-x+y,-x,-z
y,-x+y,-z
x,y,-z
x-y,x,-z
-y,x-y,-z
-x+y,y,1/2+z
x,x-y,1/2+z
-y,-x,1/2+z
y,x,1/2+z
x-y,-y,1/2+z
-x,-x+y,1/2+z
loop_
_atom_site_type_symbol
_atom_site_label
_atom_site_fract_x
_atom_site_fract_y
_atom_site_fract_z
Si Si1 0.512824 0.885557 0.946129
Si Si2 0.227157 0.139523 0.944249
Si Si3 0.830937 0.536542 0.922126
Si Si4 0.201313 0.990195 0.692657
Si Si5 0.391572 0.406014 0.649739
O O1 0.406655 0.892060 0.950086
O O2 0.471104 0.764460 0.930669
O O3 0.589104 0.957158 0.903075
O O4 0.567650 0.912946 0.000000
O O5 0.166243 0.193368 0.918292
O O6 0.349961 0.215200 0.942842
O O7 0.192355 0.116220 0.000000
O O8 0.862125 0.543917 0.864459
O O9 0.304609 0.979021 0.683293
O O10 0.098014 0.886791 0.670854
O O11 0.192981 0.000000 0.750000
O O12 0.500000 0.500000 0.673763
#
# Coordination Sequence:
#
# PCOD8329551 Si02
#       5
#    24  24  24  24  24
#     4  11  22  35  54  80 113 160 216 267 313 360
#     4  10  20  34  52  74 102 140 187 241 302 366
#     4  11  22  36  54  78 113 155 208 264 312 357
#     4  10  21  41  71 104 134 164 203 256 319 387
#     4  10  23  39  58  87 124 167 212 257 312 378
#
# _framework density 23.350542000000001
#
# number of rings (size 3 to 8) (size 9 to 14) (size 15 to 20)
#    0.000    1.600    0.000    5.000    0.000    8.800 
#    0.000    0.000    0.000    3.200    0.000    0.000 
#    0.000    1.600    0.000    0.000    0.000    0.000 
#
# Total GULP energy -1486627.997801 kJ/mol
# GULP energy per Si atom -12388.566648 kJ/mol
# Density = 2.329739 g / cm^3
# Si number density = 23.350542 Si / 1000 Ang^3
#
#
#
# Elastic Constant Matrix: (Units=GPa)
#
#
# Indices 1 2 3 4 5 6 
#
# 1 133.9810 51.2150 19.1369 0.0000 0.0000 0.0000
# 2 51.2150 133.9810 19.1369 0.0000 0.0000 0.0000
# 3 19.1369 19.1369 14.8341 0.0000 0.0000 0.0000
# 4 0.0000 0.0000 0.0000 25.6649 0.0000 0.0000
# 5 0.0000 0.0000 0.0000 0.0000 25.6649 0.0000
# 6 0.0000 0.0000 0.0000 0.0000 0.0000 41.3830
#
#
#
# Elastic Compliance Matrix: (Units=1/GPa)
#
#
# Indices 1 2 3 4 5 6 
#
# 1 0.009722 -0.002360 -0.009498 0.000000 0.000000 0.000000
# 2 -0.002360 0.009722 -0.009498 0.000000 0.000000 0.000000
# 3 -0.009498 -0.009498 0.091919 0.000000 0.000000 0.000000
# 4 0.000000 0.000000 0.000000 0.038964 0.000000 0.000000
# 5 0.000000 0.000000 0.000000 0.000000 0.038964 0.000000
# 6 0.000000 0.000000 0.000000 0.000000 0.000000 0.024165
#
#
# Mechanical properties :
#
#
# Convention : Reuss Voigt Hill
#
# Bulk Modulus (GPa) = 14.56634 51.30818 32.93726
# Shear Modulus (GPa) = 17.91774 31.42970 24.67372
#
# Velocity S-wave (km/s) = 2.77309 3.67276 3.25417
# Velocity P-wave (km/s) = 4.06264 6.32505 5.31560
#
# Compressibility (1/GPa) = 0.06865142
#
# Stress axis : x y z
#
# Youngs Moduli (GPa) = 102.85463 102.85463 10.87910
#
# Poissons Ratio (x) = 0.24272 0.10333
# Poissons Ratio (y) = 0.24272 0.10333
# Poissons Ratio (z) = 0.97695 0.97695
#
# Static dielectric constant tensor:
#      x y z
#    x 4.581610 0.000000 0.000000 
#    y 0.000000 4.581610 0.000000 
#    z 0.000000 0.000000 3.768860 
# 
# 
# High freq. dielectric constant tensor:
#      x y z
#    x 1.939150 0.000000 0.000000 
#    y 0.000000 1.939150 0.000000 
#    z 0.000000 0.000000 1.879730 
# 
# From -- ./inp_files/6957.got.cif
#   From: 2010.03.12/outbox.cif.g09.slc.cpg/sg192_4_cif.got.tgz:6957.got - 2010.04.01 12:16:15.
