data_PCOD8329910
_publ_section_title
;
Structure prediction by ZEFSAII (Michael W. Deem and Ramdas Pophale) SiO2 
 PCOD8329910
Probable space group: P 63/M C M
;
_chemical_formula_sum "Si O2"
_cell_formula_units_Z 144
_cell_length_a 22.157861
_cell_length_b 22.157861
_cell_length_c 19.276661
_cell_angle_alpha 90.000000
_cell_angle_beta 90.000000
_cell_angle_gamma 120.000000
_cell_volume 8196.304961
_symmetry_space_group_name_H-M "P 63/M C M"
_symmetry_group_IT_number 193
_symmetry_cell_setting 'hexagonal'
loop_
_space_group_symop_operation_xyz
x,y,z
x-y,x,1/2+z
-y,x-y,z
-x,-y,1/2+z
-x+y,-x,z
y,-x+y,1/2+z
x-y,-y,1/2-z
-x,-x+y,1/2-z
y,x,1/2-z
-y,-x,-z
-x+y,y,-z
x,x-y,-z
-x,-y,-z
-x+y,-x,1/2-z
y,-x+y,-z
x,y,1/2-z
x-y,x,-z
-y,x-y,1/2-z
-x+y,y,1/2+z
x,x-y,1/2+z
-y,-x,1/2+z
y,x,z
x-y,-y,z
-x,-x+y,z
loop_
_atom_site_type_symbol
_atom_site_label
_atom_site_fract_x
_atom_site_fract_y
_atom_site_fract_z
Si Si1 0.376720 0.918141 0.326526
Si Si2 0.081344 0.852666 0.929287
Si Si3 0.280037 0.864105 0.580312
Si Si4 0.798994 0.080510 0.173350
Si Si5 0.131808 0.743026 0.929887
Si Si6 0.516998 0.082694 0.924033
O O1 0.360788 0.883975 0.250000
O O2 0.304683 0.898887 0.363161
O O3 0.419227 0.890856 0.370711
O O4 0.421554 0.000000 0.320182
O O5 0.127813 0.897262 0.864386
O O6 0.098321 0.791399 0.937185
O O7 0.000000 0.823540 0.913760
O O8 0.102260 0.897741 0.000000
O O9 0.254172 0.905611 0.628592
O O10 0.216030 0.784836 0.578007
O O11 0.299568 0.892802 0.501430
O O12 0.354391 0.874775 0.603897
O O13 0.812284 0.116540 0.250000
O O14 0.763705 0.000000 0.185063
O O15 0.462643 0.000000 0.920253
O O16 0.551953 0.103906 0.000000
#
# Coordination Sequence:
#
# PCOD8329910 Si02
#       6
#    24  24  24  24  24  24
#     4  10  21  35  52  79 113 145 179 221 268 323
#     4  11  21  34  56  82 109 142 181 225 273 329
#     4  10  19  33  54  80 107 137 179 221 268 324
#     4  10  21  36  54  78 109 142 177 224 278 329
#     4  10  19  34  53  80 108 140 176 222 271 323
#     4  10  19  31  53  80 108 142 177 215 266 325
#
# _framework density 17.568892999999999
#
# number of rings (size 3 to 8) (size 9 to 14) (size 15 to 20)
#    0.000    1.833    5.000    1.500    0.000    5.000 
#    0.000    1.667    0.000    3.667    4.333    0.000 
#    0.000    0.000    0.000    0.000    0.000    0.000 
#
# Total GULP energy -1784410.352409 kJ/mol
# GULP energy per Si atom -12391.738558 kJ/mol
# Density = 1.752891 g / cm^3
# Si number density = 17.568893 Si / 1000 Ang^3
#
#
#
# Elastic Constant Matrix: (Units=GPa)
#
#
# Indices 1 2 3 4 5 6 
#
# 1 59.0274 14.4251 24.6407 0.0000 0.0000 0.0000
# 2 14.4251 59.0274 24.6407 0.0000 0.0000 0.0000
# 3 24.6407 24.6407 129.6149 0.0000 0.0000 0.0000
# 4 0.0000 0.0000 0.0000 41.8628 0.0000 0.0000
# 5 0.0000 0.0000 0.0000 0.0000 41.8628 0.0000
# 6 0.0000 0.0000 0.0000 0.0000 0.0000 22.3012
#
#
#
# Elastic Compliance Matrix: (Units=1/GPa)
#
#
# Indices 1 2 3 4 5 6 
#
# 1 0.019012 -0.003408 -0.002967 0.000000 0.000000 0.000000
# 2 -0.003408 0.019012 -0.002967 0.000000 0.000000 0.000000
# 3 -0.002967 -0.002967 0.008843 0.000000 0.000000 0.000000
# 4 0.000000 0.000000 0.000000 0.023888 0.000000 0.000000
# 5 0.000000 0.000000 0.000000 0.000000 0.023888 0.000000
# 6 0.000000 0.000000 0.000000 0.000000 0.000000 0.044841
#
#
# Mechanical properties :
#
#
# Convention : Reuss Voigt Hill
#
# Bulk Modulus (GPa) = 35.47850 41.67586 38.57718
# Shear Modulus (GPa) = 29.83985 33.46957 31.65471
#
# Velocity S-wave (km/s) = 4.12569 4.36942 4.24930
# Velocity P-wave (km/s) = 6.55232 7.01631 6.78828
#
# Compressibility (1/GPa) = 0.02818609
#
# Stress axis : x y z
#
# Youngs Moduli (GPa) = 52.59705 52.59705 113.08273
#
# Poissons Ratio (x) = 0.17924 0.33546
# Poissons Ratio (y) = 0.17924 0.33546
# Poissons Ratio (z) = 0.15603 0.15603
#
# Static dielectric constant tensor:
#      x y z
#    x 3.169810 0.000000 0.000000 
#    y 0.000000 3.169810 0.000000 
#    z 0.000000 0.000000 6.102190 
# 
# 
# High freq. dielectric constant tensor:
#      x y z
#    x 1.661940 0.000000 0.000000 
#    y 0.000000 1.661940 0.000000 
#    z 0.000000 0.000000 1.692480 
# 
# From -- ./inp_files/6580.got.cif
#   From: 2010.03.12/outbox.cif.g09.slc.cpg/sg193_4_cif.got.tgz:6580.got - 2010.04.01 12:20:39.
