data_PCOD8329267
_publ_section_title
;
Structure prediction by ZEFSAII (Michael W. Deem and Ramdas Pophale) SiO2 
 PCOD8329267
Probable space group: P 6/M M M
;
_chemical_formula_sum "Si O2"
_cell_formula_units_Z 144
_cell_length_a 21.612835
_cell_length_b 21.612835
_cell_length_c 25.144071
_cell_angle_alpha 90.000000
_cell_angle_beta 90.000000
_cell_angle_gamma 120.000000
_cell_volume 10171.610042
_symmetry_space_group_name_H-M "P 6/M M M"
_symmetry_group_IT_number 191
_symmetry_cell_setting 'hexagonal'
loop_
_space_group_symop_operation_xyz
x,y,z
x-y,x,z
-y,x-y,z
-x,-y,z
-x+y,-x,z
y,-x+y,z
x-y,-y,-z
-x,-x+y,-z
y,x,-z
-y,-x,-z
-x+y,y,-z
x,x-y,-z
-x,-y,-z
-x+y,-x,-z
y,-x+y,-z
x,y,-z
x-y,x,-z
-y,x-y,-z
-x+y,y,z
x,x-y,z
-y,-x,z
y,x,z
x-y,-y,z
-x,-x+y,z
loop_
_atom_site_type_symbol
_atom_site_label
_atom_site_fract_x
_atom_site_fract_y
_atom_site_fract_z
Si Si1 0.080063 0.466589 0.235701
Si Si2 0.477675 0.667110 0.560012
Si Si3 0.613114 0.533937 0.354461
Si Si4 0.077401 0.290230 0.936836
Si Si5 0.647724 0.566363 0.061951
Si Si6 0.335350 0.523771 0.852668
O O1 0.078080 0.539040 0.231930
O O2 0.102445 0.456659 0.295191
O O3 0.139482 0.471006 0.194792
O O4 0.000000 0.401422 0.221970
O O5 0.504447 0.667461 0.500000
O O6 0.471834 0.735917 0.572279
O O7 0.399783 0.600218 0.569329
O O8 0.534737 0.666972 0.601157
O O9 0.539403 0.460598 0.357732
O O10 0.598943 0.598943 0.366928
O O11 0.138742 0.277483 0.911592
O O12 0.091283 0.367633 0.920554
O O13 0.000000 0.229395 0.915256
O O14 0.078207 0.286100 0.000000
O O15 0.585196 0.585196 0.074502
O O16 0.638173 0.498523 0.094438
O O17 0.646214 0.548346 0.000000
O O18 0.258135 0.516270 0.860023
O O19 0.393689 0.606312 0.840484
#
# Coordination Sequence:
#
# PCOD8329267 Si02
#       6
#    24  24  24  24  24  24
#     4   8  15  29  46  59  71  92 124 159 190 219
#     4   9  16  24  34  50  74 103 131 158 191 233
#     4   8  14  25  40  56  72  91 120 159 198 230
#     4   8  13  22  37  56  76  96 118 145 177 211
#     4   9  18  32  49  65  76  91 122 162 196 222
#     4  11  22  33  44  59  81 105 125 147 181 230
#
# _framework density 14.15705
#
# number of rings (size 3 to 8) (size 9 to 14) (size 15 to 20)
#    0.000    3.167    0.000    3.333    0.000    4.000 
#    0.000    2.500    0.000    3.167    0.000    1.167 
#    0.000    0.000    0.000    0.000    0.000    0.000 
#
# Total GULP energy -1784491.172538 kJ/mol
# GULP energy per Si atom -12392.299809 kJ/mol
# Density = 1.412483 g / cm^3
# Si number density = 14.157050 Si / 1000 Ang^3
#
#
#
# Elastic Constant Matrix: (Units=GPa)
#
#
# Indices 1 2 3 4 5 6 
#
# 1 55.7875 29.0568 36.1948 0.0000 0.0000 0.0000
# 2 29.0568 55.7875 36.1948 0.0000 0.0000 0.0000
# 3 36.1948 36.1948 84.8527 0.0000 0.0000 0.0000
# 4 0.0000 0.0000 0.0000 17.7099 0.0000 0.0000
# 5 0.0000 0.0000 0.0000 0.0000 17.7099 0.0000
# 6 0.0000 0.0000 0.0000 0.0000 0.0000 13.3653
#
#
#
# Elastic Compliance Matrix: (Units=1/GPa)
#
#
# Indices 1 2 3 4 5 6 
#
# 1 0.027970 -0.009440 -0.007904 0.000000 0.000000 0.000000
# 2 -0.009440 0.027970 -0.007904 0.000000 0.000000 0.000000
# 3 -0.007904 -0.007904 0.018528 0.000000 0.000000 0.000000
# 4 0.000000 0.000000 0.000000 0.056466 0.000000 0.000000
# 5 0.000000 0.000000 0.000000 0.000000 0.056466 0.000000
# 6 0.000000 0.000000 0.000000 0.000000 0.000000 0.074821
#
#
# Mechanical properties :
#
#
# Convention : Reuss Voigt Hill
#
# Bulk Modulus (GPa) = 41.71558 44.36895 43.04226
# Shear Modulus (GPa) = 15.59047 16.08909 15.83978
#
# Velocity S-wave (km/s) = 3.32211 3.37482 3.34857
# Velocity P-wave (km/s) = 6.65173 6.82601 6.73943
#
# Compressibility (1/GPa) = 0.02397186
#
# Stress axis : x y z
#
# Youngs Moduli (GPa) = 35.75224 35.75224 53.97106
#
# Poissons Ratio (x) = 0.33750 0.42660
# Poissons Ratio (y) = 0.33750 0.42660
# Poissons Ratio (z) = 0.28260 0.28260
#
# Static dielectric constant tensor:
#      x y z
#    x 2.761480 0.000000 0.000000 
#    y 0.000000 2.761480 0.000000 
#    z 0.000000 0.000000 2.842790 
# 
# 
# High freq. dielectric constant tensor:
#      x y z
#    x 1.516670 0.000000 0.000000 
#    y 0.000000 1.516670 0.000000 
#    z 0.000000 0.000000 1.531620 
# 
# From -- ./inp_files/9920.got.cif
#   From: 2010.03.12/outbox.cif.g09.slc.cpg/sg191_5_cif.got.tgz:9920.got - 2010.04.01 12:09:02.
