data_PCOD8329094
_publ_section_title
;
Structure prediction by ZEFSAII (Michael W. Deem and Ramdas Pophale) SiO2 
 PCOD8329094
Probable space group: P 6/M M M
;
_chemical_formula_sum "Si O2"
_cell_formula_units_Z 160
_cell_length_a 21.312162
_cell_length_b 21.312162
_cell_length_c 23.033154
_cell_angle_alpha 90.000000
_cell_angle_beta 90.000000
_cell_angle_gamma 120.000000
_cell_volume 9060.226615
_symmetry_space_group_name_H-M "P 6/M M M"
_symmetry_group_IT_number 191
_symmetry_cell_setting 'hexagonal'
loop_
_space_group_symop_operation_xyz
x,y,z
x-y,x,z
-y,x-y,z
-x,-y,z
-x+y,-x,z
y,-x+y,z
x-y,-y,-z
-x,-x+y,-z
y,x,-z
-y,-x,-z
-x+y,y,-z
x,x-y,-z
-x,-y,-z
-x+y,-x,-z
y,-x+y,-z
x,y,-z
x-y,x,-z
-y,x-y,-z
-x+y,y,z
x,x-y,z
-y,-x,z
y,x,z
x-y,-y,z
-x,-x+y,z
loop_
_atom_site_type_symbol
_atom_site_label
_atom_site_fract_x
_atom_site_fract_y
_atom_site_fract_z
Si Si1 0.219678 0.919443 0.432958
Si Si2 0.448207 0.150297 0.369691
Si Si3 0.811478 0.334701 0.846972
Si Si4 0.666667 0.333334 0.568605
Si Si5 0.921153 0.698531 0.164789
Si Si6 0.276582 0.406643 0.936404
Si Si7 0.414929 0.829857 0.430721
Si Si8 0.915218 0.580681 0.244019
O O1 0.234976 0.912120 0.500000
O O2 0.135866 0.864135 0.417101
O O3 0.272585 0.902390 0.396426
O O4 0.235997 0.000000 0.417732
O O5 0.468362 0.234181 0.374369
O O6 0.504567 0.134978 0.404842
O O7 0.446383 0.126247 0.304211
O O8 0.784352 0.392176 0.852741
O O9 0.743667 0.256334 0.829989
O O10 0.845592 0.330539 0.908492
O O11 0.874038 0.361605 0.798652
O O12 0.666667 0.333334 0.500000
O O13 0.626128 0.252255 0.591926
O O14 0.861694 0.723388 0.162037
O O15 0.923537 0.656229 0.107299
O O16 0.906172 0.647032 0.220332
O O17 0.000000 0.770230 0.170210
O O18 0.198658 0.397315 0.944671
O O19 0.306328 0.400429 0.000000
O O20 0.419035 0.838069 0.500000
O O21 0.000000 0.604424 0.248970
#
# Coordination Sequence:
#
# PCOD8329094 Si02
#       8
#    24  24  24   4  24  24  12  24
#     4   9  18  33  53  76 101 129 161 199 246 299
#     4  11  21  34  54  78 102 131 171 216 258 304
#     4  10  20  34  51  72 100 134 168 208 257 312
#     4   9  18  36  54  69 102 141 180 213 247 308
#     4   9  17  31  52  76 103 135 171 213 260 307
#     4   8  15  29  48  70  97 129 167 208 248 290
#     4  11  22  36  53  76 105 140 177 216 260 307
#     4  10  21  37  54  72  97 129 168 215 261 304
#
# _framework density 17.659603000000001
#
# number of rings (size 3 to 8) (size 9 to 14) (size 15 to 20)
#    0.000    2.400    0.750    3.300    1.050    1.500 
#    0.000    1.125    0.000    3.900    0.000    5.250 
#    0.000    0.000    0.000    8.550    0.000    3.300 
#
# Total GULP energy -1983376.802699 kJ/mol
# GULP energy per Si atom -12396.105017 kJ/mol
# Density = 1.761941 g / cm^3
# Si number density = 17.659603 Si / 1000 Ang^3
#
#
#
# Elastic Constant Matrix: (Units=GPa)
#
#
# Indices 1 2 3 4 5 6 
#
# 1 82.0954 41.0167 30.6463 0.0000 0.0000 0.0000
# 2 41.0167 82.0953 30.6463 0.0000 0.0000 0.0000
# 3 30.6463 30.6463 99.7086 0.0000 0.0000 0.0000
# 4 0.0000 0.0000 0.0000 11.9623 0.0000 0.0000
# 5 0.0000 0.0000 0.0000 0.0000 11.9623 0.0000
# 6 0.0000 0.0000 0.0000 0.0000 0.0000 20.5393
#
#
#
# Elastic Compliance Matrix: (Units=1/GPa)
#
#
# Indices 1 2 3 4 5 6 
#
# 1 0.016967 -0.007377 -0.002948 0.000000 0.000000 0.000000
# 2 -0.007377 0.016967 -0.002948 0.000000 0.000000 0.000000
# 3 -0.002948 -0.002948 0.011841 0.000000 0.000000 0.000000
# 4 0.000000 0.000000 0.000000 0.083596 0.000000 0.000000
# 5 0.000000 0.000000 0.000000 0.000000 0.083596 0.000000
# 6 0.000000 0.000000 0.000000 0.000000 0.000000 0.048687
#
#
# Mechanical properties :
#
#
# Convention : Reuss Voigt Hill
#
# Bulk Modulus (GPa) = 51.99925 52.05755 52.02840
# Shear Modulus (GPa) = 16.97167 19.66543 18.31855
#
# Velocity S-wave (km/s) = 3.10344 3.34066 3.22423
# Velocity P-wave (km/s) = 6.50776 6.66501 6.58685
#
# Compressibility (1/GPa) = 0.01923105
#
# Stress axis : x y z
#
# Youngs Moduli (GPa) = 58.93839 58.93828 84.45101
#
# Poissons Ratio (x) = 0.43477 0.24893
# Poissons Ratio (y) = 0.43477 0.24893
# Poissons Ratio (z) = 0.17373 0.17373
#
# Static dielectric constant tensor:
#      x y z
#    x 3.163540 0.000000 0.000000 
#    y 0.000000 3.163540 0.000000 
#    z 0.000000 0.000000 3.544840 
# 
# 
# High freq. dielectric constant tensor:
#      x y z
#    x 1.668260 0.000000 0.000000 
#    y 0.000000 1.668260 0.000000 
#    z 0.000000 0.000000 1.688220 
# 
# From -- ./inp_files/7765.got.cif
#   From: 2010.03.12/outbox.cif.g09.slc.cpg/sg191_4_cif.got.tgz:7765.got - 2010.04.01 12:09:02.
