data_PCOD8329134
_publ_section_title
;
Structure prediction by ZEFSAII (Michael W. Deem and Ramdas Pophale) SiO2 
 PCOD8329134
Probable space group: P 6/M M M
;
_chemical_formula_sum "Si O2"
_cell_formula_units_Z 114
_cell_length_a 21.675285
_cell_length_b 21.675285
_cell_length_c 15.144760
_cell_angle_alpha 90.000000
_cell_angle_beta 90.000000
_cell_angle_gamma 120.000000
_cell_volume 6162.013710
_symmetry_space_group_name_H-M "P 6/M M M"
_symmetry_group_IT_number 191
_symmetry_cell_setting 'hexagonal'
loop_
_space_group_symop_operation_xyz
x,y,z
x-y,x,z
-y,x-y,z
-x,-y,z
-x+y,-x,z
y,-x+y,z
x-y,-y,-z
-x,-x+y,-z
y,x,-z
-y,-x,-z
-x+y,y,-z
x,x-y,-z
-x,-y,-z
-x+y,-x,-z
y,-x+y,-z
x,y,-z
x-y,x,-z
-y,x-y,-z
-x+y,y,z
x,x-y,z
-y,-x,z
y,x,z
x-y,-y,z
-x,-x+y,z
loop_
_atom_site_type_symbol
_atom_site_label
_atom_site_fract_x
_atom_site_fract_y
_atom_site_fract_z
Si Si1 0.000000 0.132156 0.399394
Si Si2 0.333054 0.520849 0.000000
Si Si3 0.150487 0.150487 0.000000
Si Si4 0.589462 0.722645 0.853241
Si Si5 0.720395 0.133658 0.347275
Si Si6 0.000000 0.738622 0.864399
Si Si7 0.735668 0.000000 0.659340
Si Si8 0.082826 0.613991 0.500000
O O1 0.000000 0.204702 0.399356
O O2 0.069782 0.139564 0.350860
O O3 0.000000 0.110986 0.500000
O O4 0.330769 0.476180 0.085957
O O5 0.405827 0.594174 0.000000
O O6 0.268616 0.537231 0.000000
O O7 0.071483 0.142965 0.000000
O O8 0.196197 0.196197 0.084548
O O9 0.602731 0.801366 0.859327
O O10 0.568944 0.692783 0.753621
O O11 0.662517 0.729903 0.888561
O O12 0.790132 0.209869 0.363328
O O13 0.658271 0.123967 0.412933
O O14 0.736287 0.071036 0.369038
O O15 0.000000 0.754896 0.761519
O O16 0.089921 0.544961 0.500000
O O17 0.000000 0.593143 0.500000
#
# Coordination Sequence:
#
# PCOD8329134 Si02
#       8
#    12  12   6  24  24  12  12  12
#     4  10  21  34  48  70 105 148 186 222 267 321
#     4  10  20  36  58  84 113 143 179 220 270 329
#     4  12  25  38  54  76 107 148 198 246 284 322
#     4   9  19  35  57  84 113 146 184 228 276 331
#     4  10  20  36  58  84 116 148 183 231 279 331
#     4  10  20  37  59  77 106 143 181 227 282 332
#     4  10  20  35  55  86 111 134 181 230 281 334
#     4  11  23  38  56  79 111 151 188 223 274 337
#
# _framework density 18.500444999999999
#
# number of rings (size 3 to 8) (size 9 to 14) (size 15 to 20)
#    0.000    2.000    1.053    2.474    1.474    4.632 
#    0.000    1.053    0.000    2.947    0.000    0.000 
#    0.000    0.000    0.000    0.000    0.000    0.000 
#
# Total GULP energy -1413321.064411 kJ/mol
# GULP energy per Si atom -12397.553197 kJ/mol
# Density = 1.845834 g / cm^3
# Si number density = 18.500445 Si / 1000 Ang^3
#
#
#
# Elastic Constant Matrix: (Units=GPa)
#
#
# Indices 1 2 3 4 5 6 
#
# 1 108.1355 60.6780 53.8270 0.0000 0.0000 0.0000
# 2 60.6780 108.1355 53.8270 0.0000 0.0000 0.0000
# 3 53.8270 53.8270 95.4348 0.0000 0.0000 0.0000
# 4 0.0000 0.0000 0.0000 22.1588 0.0000 0.0000
# 5 0.0000 0.0000 0.0000 0.0000 22.1588 0.0000
# 6 0.0000 0.0000 0.0000 0.0000 0.0000 23.7288
#
#
#
# Elastic Compliance Matrix: (Units=1/GPa)
#
#
# Indices 1 2 3 4 5 6 
#
# 1 0.015161 -0.005910 -0.005218 0.000000 0.000000 0.000000
# 2 -0.005910 0.015161 -0.005218 0.000000 0.000000 0.000000
# 3 -0.005218 -0.005218 0.016364 0.000000 0.000000 0.000000
# 4 0.000000 0.000000 0.000000 0.045129 0.000000 0.000000
# 5 0.000000 0.000000 0.000000 0.000000 0.045129 0.000000
# 6 0.000000 0.000000 0.000000 0.000000 0.000000 0.042143
#
#
# Mechanical properties :
#
#
# Convention : Reuss Voigt Hill
#
# Bulk Modulus (GPa) = 71.45272 72.04110 71.74691
# Shear Modulus (GPa) = 23.10064 23.16752 23.13408
#
# Velocity S-wave (km/s) = 3.53746 3.54258 3.54002
# Velocity P-wave (km/s) = 7.44250 7.46712 7.45482
#
# Compressibility (1/GPa) = 0.01399527
#
# Stress axis : x y z
#
# Youngs Moduli (GPa) = 65.95735 65.95735 61.10882
#
# Poissons Ratio (x) = 0.38982 0.31885
# Poissons Ratio (y) = 0.38982 0.31885
# Poissons Ratio (z) = 0.34415 0.34415
#
# Static dielectric constant tensor:
#      x y z
#    x 3.333380 0.000000 0.000000 
#    y 0.000000 3.333380 0.000000 
#    z 0.000000 0.000000 3.671590 
# 
# 
# High freq. dielectric constant tensor:
#      x y z
#    x 1.713110 0.000000 0.000000 
#    y 0.000000 1.713110 0.000000 
#    z 0.000000 0.000000 1.724450 
# 
# From -- ./inp_files/4468.got.cif
#   From: 2010.03.12/outbox.cif.g09.slc.cpg/sg191_3_cif.got.tgz:4468.got - 2010.04.01 12:09:02.
