data_PCOD8329878
_publ_section_title
;
Structure prediction by ZEFSAII (Michael W. Deem and Ramdas Pophale) SiO2 
 PCOD8329878
Probable space group: P 63/M C M
;
_chemical_formula_sum "Si O2"
_cell_formula_units_Z 168
_cell_length_a 20.486029
_cell_length_b 20.486029
_cell_length_c 25.003408
_cell_angle_alpha 90.000000
_cell_angle_beta 90.000000
_cell_angle_gamma 120.000000
_cell_volume 9087.520544
_symmetry_space_group_name_H-M "P 63/M C M"
_symmetry_group_IT_number 193
_symmetry_cell_setting 'hexagonal'
loop_
_space_group_symop_operation_xyz
x,y,z
x-y,x,1/2+z
-y,x-y,z
-x,-y,1/2+z
-x+y,-x,z
y,-x+y,1/2+z
x-y,-y,1/2-z
-x,-x+y,1/2-z
y,x,1/2-z
-y,-x,-z
-x+y,y,-z
x,x-y,-z
-x,-y,-z
-x+y,-x,1/2-z
y,-x+y,-z
x,y,1/2-z
x-y,x,-z
-y,x-y,1/2-z
-x+y,y,1/2+z
x,x-y,1/2+z
-y,-x,1/2+z
y,x,z
x-y,-y,z
-x,-x+y,z
loop_
_atom_site_type_symbol
_atom_site_label
_atom_site_fract_x
_atom_site_fract_y
_atom_site_fract_z
Si Si1 0.668673 0.913021 0.690492
Si Si2 0.911561 0.342780 0.101979
Si Si3 0.334763 0.913742 0.691085
Si Si4 0.271427 0.082841 0.659931
Si Si5 0.084870 0.283417 0.960418
Si Si6 0.579871 0.090427 0.403946
Si Si7 0.846319 0.294596 0.988589
O O1 0.633476 0.900079 0.750000
O O2 0.599315 0.876586 0.647705
O O3 0.725539 0.879655 0.688540
O O4 0.721106 0.000000 0.677269
O O5 0.881603 0.401867 0.106031
O O6 0.000000 0.387877 0.110230
O O7 0.890509 0.306639 0.043901
O O8 0.320250 0.874455 0.750000
O O9 0.259561 0.905676 0.666941
O O10 0.366485 0.878294 0.647988
O O11 0.397846 0.000000 0.698073
O O12 0.251400 0.084168 0.598111
O O13 0.209929 0.000000 0.684088
O O14 0.126884 0.373512 0.953582
O O15 0.000000 0.250864 0.981890
O O16 0.128256 0.256512 0.000000
O O17 0.628081 0.131466 0.457450
O O18 0.541028 0.000000 0.412240
O O19 0.755915 0.244086 0.000000
#
# Coordination Sequence:
#
# PCOD8329878 Si02
#       7
#    24  24  24  24  24  24  24
#     4  10  21  36  53  78 112 145 180 221 269 330
#     4  10  21  34  52  77 104 139 173 209 265 326
#     4   9  17  29  48  75 103 129 163 212 266 315
#     4  10  19  33  53  80 110 140 179 225 272 318
#     4  10  19  30  48  74 106 140 177 225 276 331
#     4  10  19  33  52  76 104 132 170 216 266 325
#     4  11  20  31  50  74 103 136 173 217 266 320
#
# _framework density 18.486889999999999
#
# number of rings (size 3 to 8) (size 9 to 14) (size 15 to 20)
#    0.000    2.000    1.429    3.857    0.000    4.286 
#    0.000    2.857    0.000    2.714    0.000    0.000 
#    0.000    0.000    0.000    0.000    0.000    0.000 
#
# Total GULP energy -2082040.468561 kJ/mol
# GULP energy per Si atom -12393.098027 kJ/mol
# Density = 1.844481 g / cm^3
# Si number density = 18.486890 Si / 1000 Ang^3
#
#
#
# Elastic Constant Matrix: (Units=GPa)
#
#
# Indices 1 2 3 4 5 6 
#
# 1 70.9124 31.7471 31.2287 0.0000 0.0000 0.0000
# 2 31.7471 70.9124 31.2287 0.0000 0.0000 0.0000
# 3 31.2287 31.2287 111.5954 0.0000 0.0000 0.0000
# 4 0.0000 0.0000 0.0000 18.8615 0.0000 0.0000
# 5 0.0000 0.0000 0.0000 0.0000 18.8615 0.0000
# 6 0.0000 0.0000 0.0000 0.0000 0.0000 19.5826
#
#
#
# Elastic Compliance Matrix: (Units=1/GPa)
#
#
# Indices 1 2 3 4 5 6 
#
# 1 0.018636 -0.006897 -0.003285 0.000000 0.000000 0.000000
# 2 -0.006897 0.018636 -0.003285 0.000000 0.000000 0.000000
# 3 -0.003285 -0.003285 0.010800 0.000000 0.000000 0.000000
# 4 0.000000 0.000000 0.000000 0.053018 0.000000 0.000000
# 5 0.000000 0.000000 0.000000 0.000000 0.053018 0.000000
# 6 0.000000 0.000000 0.000000 0.000000 0.000000 0.051066
#
#
# Mechanical properties :
#
#
# Convention : Reuss Voigt Hill
#
# Bulk Modulus (GPa) = 47.30803 49.09213 48.20008
# Shear Modulus (GPa) = 20.90707 22.07552 21.49130
#
# Velocity S-wave (km/s) = 3.36655 3.45935 3.41327
# Velocity P-wave (km/s) = 6.38413 6.52448 6.45469
#
# Compressibility (1/GPa) = 0.02113806
#
# Stress axis : x y z
#
# Youngs Moduli (GPa) = 53.65892 53.65892 92.59600
#
# Poissons Ratio (x) = 0.37006 0.30420
# Poissons Ratio (y) = 0.37006 0.30420
# Poissons Ratio (z) = 0.17628 0.17628
#
# Static dielectric constant tensor:
#      x y z
#    x 3.329020 0.000000 0.000000 
#    y 0.000000 3.329020 0.000000 
#    z 0.000000 0.000000 3.652180 
# 
# 
# High freq. dielectric constant tensor:
#      x y z
#    x 1.688960 0.000000 0.000000 
#    y 0.000000 1.688960 0.000000 
#    z 0.000000 0.000000 1.733840 
# 
# From -- ./inp_files/7718.got.cif
#   From: 2010.03.12/outbox.cif.g09.slc.cpg/sg193_4_cif.got.tgz:7718.got - 2010.04.01 12:20:39.
