data_PCOD8329738
_publ_section_title
;
Structure prediction by ZEFSAII (Michael W. Deem and Ramdas Pophale) SiO2 
 PCOD8329738
Probable space group: P 6/M C C
;
_chemical_formula_sum "Si O2"
_cell_formula_units_Z 74
_cell_length_a 11.168655
_cell_length_b 11.168655
_cell_length_c 27.140736
_cell_angle_alpha 90.000000
_cell_angle_beta 90.000000
_cell_angle_gamma 120.000000
_cell_volume 2931.932745
_symmetry_space_group_name_H-M "P 6/M C C"
_symmetry_group_IT_number 192
_symmetry_cell_setting 'hexagonal'
loop_
_space_group_symop_operation_xyz
x,y,z
x-y,x,z
-y,x-y,z
-x,-y,z
-x+y,-x,z
y,-x+y,z
x-y,-y,1/2-z
-x,-x+y,1/2-z
y,x,1/2-z
-y,-x,1/2-z
-x+y,y,1/2-z
x,x-y,1/2-z
-x,-y,-z
-x+y,-x,-z
y,-x+y,-z
x,y,-z
x-y,x,-z
-y,x-y,-z
-x+y,y,1/2+z
x,x-y,1/2+z
-y,-x,1/2+z
y,x,1/2+z
x-y,-y,1/2+z
-x,-x+y,1/2+z
loop_
_atom_site_type_symbol
_atom_site_label
_atom_site_fract_x
_atom_site_fract_y
_atom_site_fract_z
Si Si1 0.000000 0.500000 0.750000
Si Si2 0.348967 0.419183 0.903189
Si Si3 0.666667 0.333334 0.558712
Si Si4 0.690734 0.762505 0.303438
Si Si5 0.017622 0.731069 0.500000
O O1 0.095948 0.457481 0.716979
O O2 0.500000 0.500000 0.878120
O O3 0.290242 0.516224 0.921130
O O4 0.240070 0.315606 0.862924
O O5 0.369255 0.343525 0.950562
O O6 0.666667 0.333334 0.500000
O O7 0.809885 0.726889 0.285652
O O8 0.882669 0.741430 0.500000
#
# Coordination Sequence:
#
# PCOD8329738 Si02
#       5
#     6  24   8  24  12
#     4  12  28  52  78 118 152 188 244 312 388 458
#     4  12  25  44  69 107 147 196 251 307 375 455
#     4  12  24  42  72 106 155 205 246 306 375 463
#     4  12  27  54  83 117 153 202 257 319 389 462
#     4  12  24  40  64  96 141 186 244 300 368 442
#
# _framework density 25.239324
#
# number of rings (size 3 to 8) (size 9 to 14) (size 15 to 20)
#    0.000    0.000    3.243    7.784    0.000    0.000 
#    7.784    4.865    0.000    0.000    0.000    0.000 
#    0.000    0.000    0.000    0.000    0.000    0.000 
#
# Total GULP energy -917729.060353 kJ/mol
# GULP energy per Si atom -12401.744059 kJ/mol
# Density = 2.518188 g / cm^3
# Si number density = 25.239324 Si / 1000 Ang^3
#
#
#
# Elastic Constant Matrix: (Units=GPa)
#
#
# Indices 1 2 3 4 5 6 
#
# 1 93.0680 103.0980 45.6961 0.0007 -0.0004 0.0295
# 2 103.0980 93.0713 45.6934 -0.0006 0.0004 -0.0284
# 3 45.6961 45.6934 120.5913 0.0000 0.0000 -0.0013
# 4 0.0007 -0.0006 0.0000 48.5563 0.0000 -0.0004
# 5 -0.0004 0.0004 0.0000 0.0000 48.5562 -0.0007
# 6 0.0295 -0.0284 -0.0013 -0.0004 -0.0007 -5.0846
#
#
#
# Elastic Compliance Matrix: (Units=1/GPa)
#
#
# Indices 1 2 3 4 5 6 
#
# 1 -0.046767 0.052955 -0.002344 0.000001 -0.000001 -0.000567
# 2 0.052955 -0.046763 -0.002347 -0.000001 0.000001 0.000569
# 3 -0.002344 -0.002347 0.010070 0.000000 0.000000 -0.000003
# 4 0.000001 -0.000001 0.000000 0.020595 0.000000 -0.000002
# 5 -0.000001 0.000001 0.000000 0.000000 0.020595 -0.000003
# 6 -0.000567 0.000569 -0.000003 -0.000002 -0.000003 -0.196677
#
#
# Mechanical properties :
#
#
# Convention : Reuss Voigt Hill
#
# Bulk Modulus (GPa) = 76.52115 77.30059 76.91087
# Shear Modulus (GPa) = -15.10030 25.88845 5.39407
#
# Velocity S-wave (km/s) = -2.44864 3.20616 1.46349
# Velocity P-wave (km/s) = 4.73176 6.66329 5.77880
#
# Compressibility (1/GPa) = 0.01306828
#
# Stress axis : x y z
#
# Youngs Moduli (GPa) = -21.38281 -21.38432 99.30329
#
# Poissons Ratio (x) = 1.13241 0.23276
# Poissons Ratio (y) = 1.13233 0.23311
# Poissons Ratio (z) = -0.05012 -0.05020
#
# Static dielectric constant tensor:
#      x y z
#    x 4.076250 -0.000060 0.000040 
#    y -0.000060 4.075420 -0.000040 
#    z 0.000040 -0.000040 5.143370 
# 
# 
# High freq. dielectric constant tensor:
#      x y z
#    x 2.003740 0.000000 0.000000 
#    y 0.000000 2.003740 0.000000 
#    z 0.000000 0.000000 2.046430 
# 
# From -- ./inp_files/6773.got.cif
#   From: 2010.03.12/outbox.cif.g09.slc.cpg/sg192_4_cif.got.tgz:6773.got - 2010.04.01 12:16:15.
