data_PCOD8329533
_publ_section_title
;
Structure prediction by ZEFSAII (Michael W. Deem and Ramdas Pophale) SiO2 
 PCOD8329533
Probable space group: P 6/M C C
;
_chemical_formula_sum "Si O2"
_cell_formula_units_Z 144
_cell_length_a 32.113070
_cell_length_b 32.113070
_cell_length_c 8.861108
_cell_angle_alpha 90.000000
_cell_angle_beta 90.000000
_cell_angle_gamma 120.000000
_cell_volume 7913.749762
_symmetry_space_group_name_H-M "P 6/M C C"
_symmetry_group_IT_number 192
_symmetry_cell_setting 'hexagonal'
loop_
_space_group_symop_operation_xyz
x,y,z
x-y,x,z
-y,x-y,z
-x,-y,z
-x+y,-x,z
y,-x+y,z
x-y,-y,1/2-z
-x,-x+y,1/2-z
y,x,1/2-z
-y,-x,1/2-z
-x+y,y,1/2-z
x,x-y,1/2-z
-x,-y,-z
-x+y,-x,-z
y,-x+y,-z
x,y,-z
x-y,x,-z
-y,x-y,-z
-x+y,y,1/2+z
x,x-y,1/2+z
-y,-x,1/2+z
y,x,1/2+z
x-y,-y,1/2+z
-x,-x+y,1/2+z
loop_
_atom_site_type_symbol
_atom_site_label
_atom_site_fract_x
_atom_site_fract_y
_atom_site_fract_z
Si Si1 0.615232 0.725266 0.323620
Si Si2 0.137005 0.525932 0.822996
Si Si3 0.948507 0.385730 0.176481
Si Si4 0.285743 0.235628 0.823664
Si Si5 0.810477 0.860690 0.823403
Si Si6 0.473749 0.195027 0.323210
O O1 0.617946 0.736036 0.500000
O O2 0.599348 0.670115 0.289437
O O3 0.666694 0.759642 0.249781
O O4 0.577994 0.738455 0.249678
O O5 0.156134 0.578067 0.750000
O O6 0.086171 0.488677 0.749914
O O7 0.176589 0.510754 0.785396
O O8 0.129524 0.527745 0.000000
O O9 0.000000 0.416542 0.250000
O O10 0.951767 0.396402 0.000000
O O11 0.274494 0.274494 0.750000
O O12 0.243298 0.181979 0.789326
O O13 0.293726 0.246887 0.000000
O O14 0.848960 0.848960 0.750000
O O15 0.817752 0.908876 0.750000
O O16 0.820707 0.868425 0.000000
O O17 0.495337 0.247669 0.250000
O O18 0.466747 0.197391 0.500000
#
# Coordination Sequence:
#
# PCOD8329533 Si02
#       6
#    24  24  24  24  24  24
#     4  10  20  33  51  75 106 144 183 223 264 306
#     4  10  21  37  57  80 105 134 169 211 259 312
#     4  10  20  33  50  74 105 142 182 222 261 303
#     4  10  20  33  50  74 106 144 185 226 265 307
#     4  10  21  37  57  80 106 137 173 214 261 312
#     4  10  21  37  57  80 106 136 171 212 259 312
#
# _framework density 18.196178
#
# number of rings (size 3 to 8) (size 9 to 14) (size 15 to 20)
#    0.000    2.000    0.000    3.500    0.000    8.333 
#    0.000    3.333    0.000    0.500    0.000    1.167 
#    0.000    0.000    0.000    0.000    0.000    0.000 
#
# Total GULP energy -1786396.706914 kJ/mol
# GULP energy per Si atom -12405.532687 kJ/mol
# Density = 1.815476 g / cm^3
# Si number density = 18.196178 Si / 1000 Ang^3
#
#
#
# Elastic Constant Matrix: (Units=GPa)
#
#
# Indices 1 2 3 4 5 6 
#
# 1 105.5635 70.2840 64.6620 0.0000 0.0000 0.0000
# 2 70.2840 105.5635 64.6620 0.0000 0.0000 0.0000
# 3 64.6620 64.6620 116.5592 0.0000 0.0000 0.0000
# 4 0.0000 0.0000 0.0000 34.2945 0.0000 0.0000
# 5 0.0000 0.0000 0.0000 0.0000 34.2945 0.0000
# 6 0.0000 0.0000 0.0000 0.0000 0.0000 17.6397
#
#
#
# Elastic Compliance Matrix: (Units=1/GPa)
#
#
# Indices 1 2 3 4 5 6 
#
# 1 0.018975 -0.009370 -0.005329 0.000000 0.000000 0.000000
# 2 -0.009370 0.018975 -0.005329 0.000000 0.000000 0.000000
# 3 -0.005329 -0.005329 0.014492 0.000000 0.000000 0.000000
# 4 0.000000 0.000000 0.000000 0.029159 0.000000 0.000000
# 5 0.000000 0.000000 0.000000 0.000000 0.029159 0.000000
# 6 0.000000 0.000000 0.000000 0.000000 0.000000 0.056690
#
#
# Mechanical properties :
#
#
# Convention : Reuss Voigt Hill
#
# Bulk Modulus (GPa) = 80.72420 80.76689 80.74555
# Shear Modulus (GPa) = 23.62556 25.78431 24.70493
#
# Velocity S-wave (km/s) = 3.60721 3.76841 3.68869
# Velocity P-wave (km/s) = 7.86186 7.96352 7.91286
#
# Compressibility (1/GPa) = 0.01238786
#
# Stress axis : x y z
#
# Youngs Moduli (GPa) = 52.69973 52.69973 69.00459
#
# Poissons Ratio (x) = 0.49378 0.36772
# Poissons Ratio (y) = 0.49378 0.36772
# Poissons Ratio (z) = 0.28083 0.28083
#
# Static dielectric constant tensor:
#      x y z
#    x 3.291070 0.000000 0.000000 
#    y 0.000000 3.291070 0.000000 
#    z 0.000000 0.000000 3.509460 
# 
# 
# High freq. dielectric constant tensor:
#      x y z
#    x 1.696210 0.000000 0.000000 
#    y 0.000000 1.696210 0.000000 
#    z 0.000000 0.000000 1.726250 
# 
# From -- ./inp_files/1159.got.cif
#   From: 2010.03.12/outbox.cif.g09.slc.cpg/sg192_1_cif.got.tgz:1159.got - 2010.04.01 12:16:15.
