data_PCOD8329046
_publ_section_title
;
Structure prediction by ZEFSAII (Michael W. Deem and Ramdas Pophale) SiO2 
 PCOD8329046
Probable space group: P 6/M M M
;
_chemical_formula_sum "Si O2"
_cell_formula_units_Z 102
_cell_length_a 21.865754
_cell_length_b 21.865754
_cell_length_c 14.145988
_cell_angle_alpha 90.000000
_cell_angle_beta 90.000000
_cell_angle_gamma 120.000000
_cell_volume 5857.237478
_symmetry_space_group_name_H-M "P 6/M M M"
_symmetry_group_IT_number 191
_symmetry_cell_setting 'hexagonal'
loop_
_space_group_symop_operation_xyz
x,y,z
x-y,x,z
-y,x-y,z
-x,-y,z
-x+y,-x,z
y,-x+y,z
x-y,-y,-z
-x,-x+y,-z
y,x,-z
-y,-x,-z
-x+y,y,-z
x,x-y,-z
-x,-y,-z
-x+y,-x,-z
y,-x+y,-z
x,y,-z
x-y,x,-z
-y,x-y,-z
-x+y,y,z
x,x-y,z
-y,-x,z
y,x,z
x-y,-y,z
-x,-x+y,z
loop_
_atom_site_type_symbol
_atom_site_label
_atom_site_fract_x
_atom_site_fract_y
_atom_site_fract_z
Si Si1 0.474793 0.807473 0.794699
Si Si2 0.877620 0.613563 0.694480
Si Si3 0.728807 0.728807 0.814291
Si Si4 0.637985 0.501788 0.000000
Si Si5 0.313470 0.229924 0.500000
Si Si6 0.347650 0.347650 0.000000
Si Si7 0.859117 0.859117 0.891169
O O1 0.407099 0.814197 0.770191
O O2 0.458220 0.729110 0.768360
O O3 0.538260 0.867271 0.729572
O O4 0.493718 0.818881 0.906077
O O5 0.803173 0.606345 0.711823
O O6 0.903939 0.634435 0.587278
O O7 0.930855 0.675727 0.759730
O O8 0.697107 0.697107 0.913496
O O9 0.801320 0.801320 0.823256
O O10 0.644540 0.576782 0.000000
O O11 0.555509 0.444492 0.000000
O O12 0.248045 0.248045 0.500000
O O13 0.287754 0.143877 0.500000
O O14 0.865920 0.932960 0.866132
O O15 0.838134 0.838134 0.000000
#
# Coordination Sequence:
#
# PCOD8329046 Si02
#       7
#    24  24  12  12  12   6  12
#     4  10  20  35  54  78 108 146 189 231 276 326
#     4  10  21  36  57  82 108 139 178 229 277 327
#     4  12  20  35  54  79 108 142 180 221 273 325
#     4  10  20  33  49  74 109 150 188 224 271 326
#     4  10  20  38  63  86 111 141 181 229 277 332
#     4  12  21  32  48  80 113 150 176 224 270 320
#     4  10  21  36  52  73 104 144 185 223 264 314
#
# _framework density 17.414353999999999
#
# number of rings (size 3 to 8) (size 9 to 14) (size 15 to 20)
#    0.000    1.647    4.118    1.588    0.000    0.471 
#    0.000    2.353    0.000    0.824    0.000    1.647 
#    0.000    0.000    0.000    0.000    0.000    0.000 
#
# Total GULP energy -1264282.314932 kJ/mol
# GULP energy per Si atom -12394.924656 kJ/mol
# Density = 1.737472 g / cm^3
# Si number density = 17.414354 Si / 1000 Ang^3
#
#
#
# Elastic Constant Matrix: (Units=GPa)
#
#
# Indices 1 2 3 4 5 6 
#
# 1 117.0395 57.6331 49.5273 0.0000 0.0000 0.0000
# 2 57.6331 117.0395 49.5273 0.0000 0.0000 0.0000
# 3 49.5273 49.5273 114.5789 0.0000 0.0000 0.0000
# 4 0.0000 0.0000 0.0000 26.7741 0.0000 0.0000
# 5 0.0000 0.0000 0.0000 0.0000 26.7741 0.0000
# 6 0.0000 0.0000 0.0000 0.0000 0.0000 29.7032
#
#
#
# Elastic Compliance Matrix: (Units=1/GPa)
#
#
# Indices 1 2 3 4 5 6 
#
# 1 0.012209 -0.004625 -0.003278 0.000000 0.000000 0.000000
# 2 -0.004625 0.012209 -0.003278 0.000000 0.000000 0.000000
# 3 -0.003278 -0.003278 0.011562 0.000000 0.000000 0.000000
# 4 0.000000 0.000000 0.000000 0.037350 0.000000 0.000000
# 5 0.000000 0.000000 0.000000 0.000000 0.037350 0.000000
# 6 0.000000 0.000000 0.000000 0.000000 0.000000 0.033666
#
#
# Mechanical properties :
#
#
# Convention : Reuss Voigt Hill
#
# Bulk Modulus (GPa) = 73.43864 73.55924 73.49894
# Shear Modulus (GPa) = 29.19786 29.44830 29.32308
#
# Velocity S-wave (km/s) = 4.09914 4.11668 4.10792
# Velocity P-wave (km/s) = 8.04157 8.05781 8.04969
#
# Compressibility (1/GPa) = 0.01361681
#
# Stress axis : x y z
#
# Youngs Moduli (GPa) = 81.90935 81.90935 86.49263
#
# Poissons Ratio (x) = 0.37880 0.28354
# Poissons Ratio (y) = 0.37880 0.28354
# Poissons Ratio (z) = 0.26852 0.26852
#
# Static dielectric constant tensor:
#      x y z
#    x 3.396660 0.000000 0.000000 
#    y 0.000000 3.396660 0.000000 
#    z 0.000000 0.000000 3.361950 
# 
# 
# High freq. dielectric constant tensor:
#      x y z
#    x 1.677060 0.000000 0.000000 
#    y 0.000000 1.677060 0.000000 
#    z 0.000000 0.000000 1.669130 
# 
# From -- ./inp_files/4385.got.cif
#   From: 2010.03.12/outbox.cif.g09.slc.cpg/sg191_3_cif.got.tgz:4385.got - 2010.04.01 12:09:02.
