data_PCOD8329106
_publ_section_title
;
Structure prediction by ZEFSAII (Michael W. Deem and Ramdas Pophale) SiO2 
 PCOD8329106
Probable space group: P 6/M M M
;
_chemical_formula_sum "Si O2"
_cell_formula_units_Z 132
_cell_length_a 17.675565
_cell_length_b 17.675565
_cell_length_c 27.803195
_cell_angle_alpha 90.000000
_cell_angle_beta 90.000000
_cell_angle_gamma 120.000000
_cell_volume 7522.668898
_symmetry_space_group_name_H-M "P 6/M M M"
_symmetry_group_IT_number 191
_symmetry_cell_setting 'hexagonal'
loop_
_space_group_symop_operation_xyz
x,y,z
x-y,x,z
-y,x-y,z
-x,-y,z
-x+y,-x,z
y,-x+y,z
x-y,-y,-z
-x,-x+y,-z
y,x,-z
-y,-x,-z
-x+y,y,-z
x,x-y,-z
-x,-y,-z
-x+y,-x,-z
y,-x+y,-z
x,y,-z
x-y,x,-z
-y,x-y,-z
-x+y,y,z
x,x-y,z
-y,-x,z
y,x,z
x-y,-y,z
-x,-x+y,z
loop_
_atom_site_type_symbol
_atom_site_label
_atom_site_fract_x
_atom_site_fract_y
_atom_site_fract_z
Si Si1 0.836371 0.333631 0.557054
Si Si2 0.176495 0.000000 0.445095
Si Si3 0.666846 0.160532 0.054842
Si Si4 0.586767 0.586767 0.300067
Si Si5 0.158346 0.667453 0.770892
Si Si6 0.367289 0.269145 0.860644
Si Si7 0.333864 0.000000 0.399456
O O1 0.837356 0.335095 0.500000
O O2 0.844670 0.422335 0.577921
O O3 0.746559 0.253442 0.576589
O O4 0.915143 0.323488 0.575202
O O5 0.167041 0.083521 0.435321
O O6 0.244121 0.000000 0.406725
O O7 0.207907 0.000000 0.500000
O O8 0.573239 0.146478 0.070092
O O9 0.737471 0.262530 0.061738
O O10 0.691365 0.101844 0.087929
O O11 0.665512 0.130773 0.000000
O O12 0.500000 0.500000 0.318674
O O13 0.560203 0.646486 0.269540
O O14 0.645644 0.645644 0.343594
O O15 0.177184 0.588592 0.777903
O O16 0.246950 0.753050 0.754479
O O17 0.123474 0.681730 0.821078
O O18 0.329550 0.164775 0.858482
O O19 0.287439 0.287439 0.852375
#
# Coordination Sequence:
#
# PCOD8329106 Si02
#       7
#    24  12  24  12  24  24  12
#     4  10  20  34  52  75 105 140 175 210 251 301
#     4  10  21  38  60  85 112 141 172 209 257 313
#     4   9  17  28  44  70 106 145 180 212 251 305
#     4  10  22  38  53  72 103 140 174 214 263 308
#     4  10  20  35  55  77 101 132 172 215 257 303
#     4  10  20  34  53  75 100 133 170 214 264 315
#     4  12  22  34  54  80 105 135 174 219 261 303
#
# _framework density 17.546965
#
# number of rings (size 3 to 8) (size 9 to 14) (size 15 to 20)
#    0.000    2.000    0.909    3.364    0.000    6.909 
#    0.000    2.727    0.000    2.364    0.000    0.000 
#    0.000    0.000    0.000    4.545    0.000    0.000 
#
# Total GULP energy -1637056.147870 kJ/mol
# GULP energy per Si atom -12401.940514 kJ/mol
# Density = 1.750703 g / cm^3
# Si number density = 17.546965 Si / 1000 Ang^3
#
#
#
# Elastic Constant Matrix: (Units=GPa)
#
#
# Indices 1 2 3 4 5 6 
#
# 1 127.8701 70.1157 44.2180 0.0000 0.0000 0.0000
# 2 70.1157 127.8701 44.2180 0.0000 0.0000 0.0000
# 3 44.2180 44.2180 59.0615 0.0000 0.0000 0.0000
# 4 0.0000 0.0000 0.0000 31.1794 0.0000 0.0000
# 5 0.0000 0.0000 0.0000 0.0000 31.1794 0.0000
# 6 0.0000 0.0000 0.0000 0.0000 0.0000 28.8772
#
#
#
# Elastic Compliance Matrix: (Units=1/GPa)
#
#
# Indices 1 2 3 4 5 6 
#
# 1 0.012452 -0.004863 -0.005681 0.000000 0.000000 0.000000
# 2 -0.004863 0.012452 -0.005681 0.000000 0.000000 0.000000
# 3 -0.005681 -0.005681 0.025439 0.000000 0.000000 0.000000
# 4 0.000000 0.000000 0.000000 0.032072 0.000000 0.000000
# 5 0.000000 0.000000 0.000000 0.000000 0.032072 0.000000
# 6 0.000000 0.000000 0.000000 0.000000 0.000000 0.034629
#
#
# Mechanical properties :
#
#
# Convention : Reuss Voigt Hill
#
# Bulk Modulus (GPa) = 55.89670 70.21170 63.05420
# Shear Modulus (GPa) = 26.66218 28.66387 27.66303
#
# Velocity S-wave (km/s) = 3.90227 4.04611 3.97484
# Velocity P-wave (km/s) = 7.22691 7.86946 7.55502
#
# Compressibility (1/GPa) = 0.01789014
#
# Stress axis : x y z
#
# Youngs Moduli (GPa) = 80.31051 80.31051 39.31025
#
# Poissons Ratio (x) = 0.39055 0.22334
# Poissons Ratio (y) = 0.39055 0.22334
# Poissons Ratio (z) = 0.45628 0.45628
#
# Static dielectric constant tensor:
#      x y z
#    x 3.331540 0.000000 0.000000 
#    y 0.000000 3.331540 0.000000 
#    z 0.000000 0.000000 3.223930 
# 
# 
# High freq. dielectric constant tensor:
#      x y z
#    x 1.676470 0.000000 0.000000 
#    y 0.000000 1.676470 0.000000 
#    z 0.000000 0.000000 1.672150 
# 
# From -- ./inp_files/8721.got.cif
#   From: 2010.03.12/outbox.cif.g09.slc.cpg/sg191_5_cif.got.tgz:8721.got - 2010.04.01 12:09:02.
