data_PCOD8329274
_publ_section_title
;
Structure prediction by ZEFSAII (Michael W. Deem and Ramdas Pophale) SiO2 
 PCOD8329274
Probable space group: P 6/M M M
;
_chemical_formula_sum "Si O2"
_cell_formula_units_Z 72
_cell_length_a 20.209123
_cell_length_b 20.209123
_cell_length_c 11.473218
_cell_angle_alpha 90.000000
_cell_angle_beta 90.000000
_cell_angle_gamma 120.000000
_cell_volume 4057.988497
_symmetry_space_group_name_H-M "P 6/M M M"
_symmetry_group_IT_number 191
_symmetry_cell_setting 'hexagonal'
loop_
_space_group_symop_operation_xyz
x,y,z
x-y,x,z
-y,x-y,z
-x,-y,z
-x+y,-x,z
y,-x+y,z
x-y,-y,-z
-x,-x+y,-z
y,x,-z
-y,-x,-z
-x+y,y,-z
x,x-y,-z
-x,-y,-z
-x+y,-x,-z
y,-x+y,-z
x,y,-z
x-y,x,-z
-y,x-y,-z
-x+y,y,z
x,x-y,z
-y,-x,z
y,x,z
x-y,-y,z
-x,-x+y,z
loop_
_atom_site_type_symbol
_atom_site_label
_atom_site_fract_x
_atom_site_fract_y
_atom_site_fract_z
Si Si1 0.822836 0.331224 0.000000
Si Si2 0.420924 0.091378 0.227933
Si Si3 0.915976 0.831952 0.362741
Si Si4 0.343958 0.171979 0.360994
Si Si5 0.454932 0.909863 0.372930
O O1 0.865664 0.318046 0.106922
O O2 0.733177 0.266824 0.000000
O O3 0.831155 0.415578 0.000000
O O4 0.373551 0.121101 0.299334
O O5 0.495411 0.118149 0.305226
O O6 0.371182 0.000000 0.208702
O O7 0.870990 0.870990 0.306474
O O8 0.922192 0.844384 0.500000
O O9 0.872141 0.744282 0.331846
O O10 0.361508 0.180754 0.500000
O O11 0.435576 0.871152 0.500000
O O12 0.500000 0.000000 0.384938
#
# Coordination Sequence:
#
# PCOD8329274 Si02
#       5
#    12  24  12  12  12
#     4  12  24  43  65  86 113 149 194 246 301 353
#     4  11  22  37  60  86 115 153 198 245 293 349
#     4   9  17  30  50  77 111 153 199 243 288 344
#     4  11  22  36  55  84 126 165 195 237 299 360
#     4   9  18  33  55  83 112 143 182 229 280 340
#
# _framework density 17.742781000000001
#
# number of rings (size 3 to 8) (size 9 to 14) (size 15 to 20)
#    0.000    1.500    3.333    2.833    0.000    4.667 
#    0.000    0.000    0.000    0.000    0.000    4.667 
#    0.000    0.000    0.000    7.167    0.000    3.167 
#
# Total GULP energy -892462.576229 kJ/mol
# GULP energy per Si atom -12395.313559 kJ/mol
# Density = 1.770240 g / cm^3
# Si number density = 17.742781 Si / 1000 Ang^3
#
#
#
# Elastic Constant Matrix: (Units=GPa)
#
#
# Indices 1 2 3 4 5 6 
#
# 1 126.5726 71.8011 54.5334 0.0000 0.0000 0.0000
# 2 71.8011 126.5726 54.5334 0.0000 0.0000 0.0000
# 3 54.5334 54.5334 128.2044 0.0000 0.0000 0.0000
# 4 0.0000 0.0000 0.0000 5.0373 0.0000 0.0000
# 5 0.0000 0.0000 0.0000 0.0000 5.0373 0.0000
# 6 0.0000 0.0000 0.0000 0.0000 0.0000 27.3857
#
#
#
# Elastic Compliance Matrix: (Units=1/GPa)
#
#
# Indices 1 2 3 4 5 6 
#
# 1 0.012419 -0.005839 -0.002799 0.000000 0.000000 0.000000
# 2 -0.005839 0.012419 -0.002799 0.000000 0.000000 0.000000
# 3 -0.002799 -0.002799 0.010181 0.000000 0.000000 0.000000
# 4 0.000000 0.000000 0.000000 0.198518 0.000000 0.000000
# 5 0.000000 0.000000 0.000000 0.000000 0.198518 0.000000
# 6 0.000000 0.000000 0.000000 0.000000 0.000000 0.036515
#
#
# Mechanical properties :
#
#
# Convention : Reuss Voigt Hill
#
# Bulk Modulus (GPa) = 82.33548 82.56506 82.45027
# Shear Modulus (GPa) = 10.09099 20.85753 15.47426
#
# Velocity S-wave (km/s) = 2.38741 3.43235 2.95641
# Velocity P-wave (km/s) = 7.35564 7.89579 7.63050
#
# Compressibility (1/GPa) = 0.01214543
#
# Stress axis : x y z
#
# Youngs Moduli (GPa) = 80.52355 80.52355 98.22171
#
# Poissons Ratio (x) = 0.47017 0.27490
# Poissons Ratio (y) = 0.47017 0.27490
# Poissons Ratio (z) = 0.22537 0.22537
#
# Static dielectric constant tensor:
#      x y z
#    x 3.127340 0.000000 0.000000 
#    y 0.000000 3.127340 0.000000 
#    z 0.000000 0.000000 3.405310 
# 
# 
# High freq. dielectric constant tensor:
#      x y z
#    x 1.694620 0.000000 0.000000 
#    y 0.000000 1.694620 0.000000 
#    z 0.000000 0.000000 1.681470 
# 
# From -- ./inp_files/2365.got.cif
#   From: 2010.03.12/outbox.cif.g09.slc.cpg/sg191_2_cif.got.tgz:2365.got - 2010.04.01 12:09:02.
