data_PCOD8329118
_publ_section_title
;
Structure prediction by ZEFSAII (Michael W. Deem and Ramdas Pophale) SiO2 
 PCOD8329118
Probable space group: P 6/M M M
;
_chemical_formula_sum "Si O2"
_cell_formula_units_Z 108
_cell_length_a 16.912936
_cell_length_b 16.912936
_cell_length_c 23.774732
_cell_angle_alpha 90.000000
_cell_angle_beta 90.000000
_cell_angle_gamma 120.000000
_cell_volume 5889.579286
_symmetry_space_group_name_H-M "P 6/M M M"
_symmetry_group_IT_number 191
_symmetry_cell_setting 'hexagonal'
loop_
_space_group_symop_operation_xyz
x,y,z
x-y,x,z
-y,x-y,z
-x,-y,z
-x+y,-x,z
y,-x+y,z
x-y,-y,-z
-x,-x+y,-z
y,x,-z
-y,-x,-z
-x+y,y,-z
x,x-y,-z
-x,-y,-z
-x+y,-x,-z
y,-x+y,-z
x,y,-z
x-y,x,-z
-y,x-y,-z
-x+y,y,z
x,x-y,z
-y,-x,z
y,x,z
x-y,-y,z
-x,-x+y,z
loop_
_atom_site_type_symbol
_atom_site_label
_atom_site_fract_x
_atom_site_fract_y
_atom_site_fract_z
Si Si1 0.895516 0.609773 0.377519
Si Si2 0.822372 0.822372 0.066898
Si Si3 0.641918 0.000000 0.066600
Si Si4 0.892106 0.446053 0.563065
Si Si5 0.666334 0.510819 0.858019
Si Si6 0.153215 0.666858 0.733914
O O1 0.820931 0.641861 0.392169
O O2 0.860163 0.510877 0.406502
O O3 0.897361 0.595605 0.310501
O O4 0.000000 0.685830 0.396124
O O5 0.910653 0.821306 0.091218
O O6 0.732385 0.732385 0.087494
O O7 0.826001 0.826001 0.000000
O O8 0.553804 0.914387 0.091455
O O9 0.634296 0.000000 0.000000
O O10 0.851546 0.425773 0.500000
O O11 0.000000 0.500000 0.561901
O O12 0.765743 0.531485 0.873341
O O13 0.597274 0.402727 0.856527
O O14 0.663525 0.550950 0.796271
O O15 0.136233 0.568117 0.715679
O O16 0.261648 0.738353 0.734848
#
# Coordination Sequence:
#
# PCOD8329118 Si02
#       6
#    24  12  12  12  24  24
#     4  10  20  34  54  80 111 151 193 235 278 327
#     4   9  17  31  53  77  99 125 159 199 243 297
#     4  11  23  37  51  73 103 133 163 205 261 319
#     4   9  18  34  54  80 116 154 186 224 270 324
#     4  10  21  36  54  75  99 132 171 215 261 314
#     4   9  17  30  51  77 105 133 171 218 267 313
#
# _framework density 18.337472000000002
#
# number of rings (size 3 to 8) (size 9 to 14) (size 15 to 20)
#    0.000    2.333    1.111    1.556    1.556    4.889 
#    0.667    0.000    0.000    1.556    0.000    0.000 
#    0.000    0.000    0.000    5.556    0.000    0.000 
#
# Total GULP energy -1338588.238648 kJ/mol
# GULP energy per Si atom -12394.335543 kJ/mol
# Density = 1.829574 g / cm^3
# Si number density = 18.337472 Si / 1000 Ang^3
#
#
#
# Elastic Constant Matrix: (Units=GPa)
#
#
# Indices 1 2 3 4 5 6 
#
# 1 82.9035 31.3793 26.1059 0.0000 0.0000 0.0000
# 2 31.3793 82.9035 26.1059 0.0000 0.0000 0.0000
# 3 26.1059 26.1059 86.9150 0.0000 0.0000 0.0000
# 4 0.0000 0.0000 0.0000 17.4248 0.0000 0.0000
# 5 0.0000 0.0000 0.0000 0.0000 17.4248 0.0000
# 6 0.0000 0.0000 0.0000 0.0000 0.0000 25.7621
#
#
#
# Elastic Compliance Matrix: (Units=1/GPa)
#
#
# Indices 1 2 3 4 5 6 
#
# 1 0.014775 -0.004633 -0.003046 0.000000 0.000000 0.000000
# 2 -0.004633 0.014775 -0.003046 0.000000 0.000000 0.000000
# 3 -0.003046 -0.003046 0.013335 0.000000 0.000000 0.000000
# 4 0.000000 0.000000 0.000000 0.057390 0.000000 0.000000
# 5 0.000000 0.000000 0.000000 0.000000 0.057390 0.000000
# 6 0.000000 0.000000 0.000000 0.000000 0.000000 0.038817
#
#
# Mechanical properties :
#
#
# Convention : Reuss Voigt Hill
#
# Bulk Modulus (GPa) = 46.65410 46.65602 46.65506
# Shear Modulus (GPa) = 22.21456 23.39774 22.80615
#
# Velocity S-wave (km/s) = 3.48434 3.57592 3.53043
# Velocity P-wave (km/s) = 6.45636 6.52287 6.48970
#
# Compressibility (1/GPa) = 0.02143434
#
# Stress axis : x y z
#
# Youngs Moduli (GPa) = 67.68125 67.68125 74.98818
#
# Poissons Ratio (x) = 0.31358 0.22843
# Poissons Ratio (y) = 0.31358 0.22843
# Poissons Ratio (z) = 0.20617 0.20617
#
# Static dielectric constant tensor:
#      x y z
#    x 3.291640 0.000000 0.000000 
#    y 0.000000 3.291640 0.000000 
#    z 0.000000 0.000000 3.398510 
# 
# 
# High freq. dielectric constant tensor:
#      x y z
#    x 1.695440 0.000000 0.000000 
#    y 0.000000 1.695440 0.000000 
#    z 0.000000 0.000000 1.703400 
# 
# From -- ./inp_files/8466.got.cif
#   From: 2010.03.12/outbox.cif.g09.slc.cpg/sg191_5_cif.got.tgz:8466.got - 2010.04.01 12:09:02.
