data_PCOD8329823
_publ_section_title
;
Structure prediction by ZEFSAII (Michael W. Deem and Ramdas Pophale) SiO2 
 PCOD8329823
Probable space group: P 63/M C M
;
_chemical_formula_sum "Si O2"
_cell_formula_units_Z 144
_cell_length_a 22.488441
_cell_length_b 22.488441
_cell_length_c 19.087596
_cell_angle_alpha 90.000000
_cell_angle_beta 90.000000
_cell_angle_gamma 120.000000
_cell_volume 8359.890029
_symmetry_space_group_name_H-M "P 63/M C M"
_symmetry_group_IT_number 193
_symmetry_cell_setting 'hexagonal'
loop_
_space_group_symop_operation_xyz
x,y,z
x-y,x,1/2+z
-y,x-y,z
-x,-y,1/2+z
-x+y,-x,z
y,-x+y,1/2+z
x-y,-y,1/2-z
-x,-x+y,1/2-z
y,x,1/2-z
-y,-x,-z
-x+y,y,-z
x,x-y,-z
-x,-y,-z
-x+y,-x,1/2-z
y,-x+y,-z
x,y,1/2-z
x-y,x,-z
-y,x-y,1/2-z
-x+y,y,1/2+z
x,x-y,1/2+z
-y,-x,1/2+z
y,x,z
x-y,-y,z
-x,-x+y,z
loop_
_atom_site_type_symbol
_atom_site_label
_atom_site_fract_x
_atom_site_fract_y
_atom_site_fract_z
Si Si1 0.871693 0.271208 0.426041
Si Si2 0.859072 0.000000 0.829778
Si Si3 0.609043 0.866286 0.408873
Si Si4 0.135987 0.000000 0.670319
Si Si5 0.740094 0.000000 0.919242
Si Si6 0.392032 0.470153 0.169799
Si Si7 0.496733 0.575441 0.068267
Si Si8 0.253190 0.253190 0.414271
O O1 0.870135 0.264968 0.508772
O O2 0.805807 0.208465 0.388682
O O3 0.876877 0.344293 0.412135
O O4 0.934984 0.265916 0.394960
O O5 0.803141 0.000000 0.881233
O O6 0.933015 0.064163 0.844985
O O7 0.835395 0.000000 0.750000
O O8 0.548311 0.871399 0.371309
O O9 0.681268 0.930843 0.384514
O O10 0.187735 0.000000 0.614607
O O11 0.160296 0.000000 0.750000
O O12 0.750674 0.000000 0.002152
O O13 0.384299 0.485586 0.250000
O O14 0.408006 0.408006 0.162156
O O15 0.453756 0.538460 0.136954
O O16 0.555717 0.555717 0.052595
O O17 0.446783 0.553218 0.000000
#
# Coordination Sequence:
#
# PCOD8329823 Si02
#       8
#    24  12  24  12  12  24  24  12
#     4  10  19  32  54  84 110 142 177 223 266 327
#     4  10  21  38  54  70  96 138 190 237 278 325
#     4  10  19  32  52  81 115 141 180 221 269 321
#     4  10  21  36  54  71  93 136 192 238 277 327
#     4  10  20  35  53  78 114 142 170 218 282 331
#     4  10  20  34  54  82 112 141 180 231 273 315
#     4  10  18  31  57  81 108 142 182 224 272 326
#     4  10  20  33  54  80 110 143 176 221 278 332
#
# _framework density 17.225106
#
# number of rings (size 3 to 8) (size 9 to 14) (size 15 to 20)
#    0.000    2.000    3.333    1.167    0.000    3.333 
#    0.000    2.500    0.000    1.667    4.333    0.000 
#    0.000    0.000    0.000    0.000    0.000    0.000 
#
# Total GULP energy -1785365.038164 kJ/mol
# GULP energy per Si atom -12398.368321 kJ/mol
# Density = 1.718590 g / cm^3
# Si number density = 17.225106 Si / 1000 Ang^3
#
#
#
# Elastic Constant Matrix: (Units=GPa)
#
#
# Indices 1 2 3 4 5 6 
#
# 1 113.4133 66.5281 23.3151 0.0000 0.0000 0.0000
# 2 66.5281 113.4133 23.3151 0.0000 0.0000 0.0000
# 3 23.3151 23.3151 26.3396 0.0000 0.0000 0.0000
# 4 0.0000 0.0000 0.0000 20.3724 0.0000 0.0000
# 5 0.0000 0.0000 0.0000 0.0000 20.3724 0.0000
# 6 0.0000 0.0000 0.0000 0.0000 0.0000 23.4426
#
#
#
# Elastic Compliance Matrix: (Units=1/GPa)
#
#
# Indices 1 2 3 4 5 6 
#
# 1 0.014270 -0.007059 -0.006384 0.000000 0.000000 0.000000
# 2 -0.007059 0.014270 -0.006384 0.000000 0.000000 0.000000
# 3 -0.006384 -0.006384 0.049267 0.000000 0.000000 0.000000
# 4 0.000000 0.000000 0.000000 0.049086 0.000000 0.000000
# 5 0.000000 0.000000 0.000000 0.000000 0.049086 0.000000
# 6 0.000000 0.000000 0.000000 0.000000 0.000000 0.042657
#
#
# Mechanical properties :
#
#
# Convention : Reuss Voigt Hill
#
# Bulk Modulus (GPa) = 26.20828 53.27586 39.74207
# Shear Modulus (GPa) = 18.44975 22.17133 20.31054
#
# Velocity S-wave (km/s) = 3.27631 3.59158 3.43756
# Velocity P-wave (km/s) = 5.43696 6.94231 6.23523
#
# Compressibility (1/GPa) = 0.03815589
#
# Stress axis : x y z
#
# Youngs Moduli (GPa) = 70.07642 70.07642 20.29767
#
# Poissons Ratio (x) = 0.49464 0.12957
# Poissons Ratio (y) = 0.49464 0.12957
# Poissons Ratio (z) = 0.44733 0.44733
#
# Static dielectric constant tensor:
#      x y z
#    x 3.328960 0.000000 0.000000 
#    y 0.000000 3.328960 0.000000 
#    z 0.000000 0.000000 3.021080 
# 
# 
# High freq. dielectric constant tensor:
#      x y z
#    x 1.661540 0.000000 0.000000 
#    y 0.000000 1.661540 0.000000 
#    z 0.000000 0.000000 1.648040 
# 
# From -- ./inp_files/6669.got.cif
#   From: 2010.03.12/outbox.cif.g09.slc.cpg/sg193_4_cif.got.tgz:6669.got - 2010.04.01 12:20:39.
