data_PCOD8329829
_publ_section_title
;
Structure prediction by ZEFSAII (Michael W. Deem and Ramdas Pophale) SiO2 
 PCOD8329829
Probable space group: P 63/M C M
;
_chemical_formula_sum "Si O2"
_cell_formula_units_Z 120
_cell_length_a 20.369632
_cell_length_b 20.369632
_cell_length_c 17.687616
_cell_angle_alpha 90.000000
_cell_angle_beta 90.000000
_cell_angle_gamma 120.000000
_cell_volume 6355.742577
_symmetry_space_group_name_H-M "P 63/M C M"
_symmetry_group_IT_number 193
_symmetry_cell_setting 'hexagonal'
loop_
_space_group_symop_operation_xyz
x,y,z
x-y,x,1/2+z
-y,x-y,z
-x,-y,1/2+z
-x+y,-x,z
y,-x+y,1/2+z
x-y,-y,1/2-z
-x,-x+y,1/2-z
y,x,1/2-z
-y,-x,-z
-x+y,y,-z
x,x-y,-z
-x,-y,-z
-x+y,-x,1/2-z
y,-x+y,-z
x,y,1/2-z
x-y,x,-z
-y,x-y,1/2-z
-x+y,y,1/2+z
x,x-y,1/2+z
-y,-x,1/2+z
y,x,z
x-y,-y,z
-x,-x+y,z
loop_
_atom_site_type_symbol
_atom_site_label
_atom_site_fract_x
_atom_site_fract_y
_atom_site_fract_z
Si Si1 0.753689 0.505748 0.589565
Si Si2 0.191363 0.339728 0.663300
Si Si3 0.171851 0.085986 0.659822
Si Si4 0.516641 0.000000 0.587358
Si Si5 0.000000 0.350329 0.165119
Si Si6 0.164079 0.580563 0.909581
O O1 0.752903 0.505806 0.500000
O O2 0.785296 0.591331 0.617188
O O3 0.668503 0.453912 0.620930
O O4 0.802707 0.468987 0.621094
O O5 0.175593 0.349819 0.750000
O O6 0.125379 0.258949 0.631392
O O7 0.269258 0.341047 0.652635
O O8 0.171179 0.088524 0.750000
O O9 0.130437 0.130437 0.627777
O O10 0.127403 0.000000 0.629482
O O11 0.500000 0.000000 0.500000
O O12 0.449339 0.921752 0.622594
O O13 0.594707 0.000000 0.600578
O O14 0.000000 0.380954 0.250000
O O15 0.163657 0.581829 0.000000
#
# Coordination Sequence:
#
# PCOD8329829 Si02
#       6
#    24  24  24  12  12  24
#     4  10  19  34  53  75 101 134 171 216 258 311
#     4  10  19  33  53  78 106 137 173 215 263 314
#     4   9  16  28  49  76 105 137 175 216 257 306
#     4  10  18  32  52  78 104 135 172 216 253 306
#     4  10  18  32  56  80 104 137 179 220 262 317
#     4   9  18  31  51  73  98 129 169 210 255 297
#
# _framework density 18.880564
#
# number of rings (size 3 to 8) (size 9 to 14) (size 15 to 20)
#    0.000    2.400    3.000    0.600    0.000    2.400 
#    1.800    2.000    0.000    0.000    0.000    0.000 
#    0.000    1.600    0.000    0.000    0.000    0.000 
#
# Total GULP energy -1487413.991517 kJ/mol
# GULP energy per Si atom -12395.116596 kJ/mol
# Density = 1.883759 g / cm^3
# Si number density = 18.880564 Si / 1000 Ang^3
#
#
#
# Elastic Constant Matrix: (Units=GPa)
#
#
# Indices 1 2 3 4 5 6 
#
# 1 145.8188 78.8155 19.4715 0.0000 0.0000 0.0000
# 2 78.8155 145.8188 19.4715 0.0000 0.0000 0.0000
# 3 19.4715 19.4715 16.9219 0.0000 0.0000 0.0000
# 4 0.0000 0.0000 0.0000 16.9117 0.0000 0.0000
# 5 0.0000 0.0000 0.0000 0.0000 16.9117 0.0000
# 6 0.0000 0.0000 0.0000 0.0000 0.0000 33.5016
#
#
#
# Elastic Compliance Matrix: (Units=1/GPa)
#
#
# Indices 1 2 3 4 5 6 
#
# 1 0.010243 -0.004682 -0.006399 0.000000 0.000000 0.000000
# 2 -0.004682 0.010243 -0.006399 0.000000 0.000000 0.000000
# 3 -0.006399 -0.006399 0.073821 0.000000 0.000000 0.000000
# 4 0.000000 0.000000 0.000000 0.059130 0.000000 0.000000
# 5 0.000000 0.000000 0.000000 0.000000 0.059130 0.000000
# 6 0.000000 0.000000 0.000000 0.000000 0.000000 0.029849
#
#
# Mechanical properties :
#
#
# Convention : Reuss Voigt Hill
#
# Bulk Modulus (GPa) = 16.84995 60.45296 38.65146
# Shear Modulus (GPa) = 16.82605 26.18509 21.50557
#
# Velocity S-wave (km/s) = 2.98851 3.72812 3.37862
# Velocity P-wave (km/s) = 4.56641 7.11477 5.97797
#
# Compressibility (1/GPa) = 0.05934734
#
# Stress axis : x y z
#
# Youngs Moduli (GPa) = 97.62934 97.62934 13.54631
#
# Poissons Ratio (x) = 0.45708 0.08668
# Poissons Ratio (y) = 0.45708 0.08668
# Poissons Ratio (z) = 0.62472 0.62472
#
# Static dielectric constant tensor:
#      x y z
#    x 3.734910 0.000000 0.000000 
#    y 0.000000 3.734910 0.000000 
#    z 0.000000 0.000000 2.973870 
# 
# 
# High freq. dielectric constant tensor:
#      x y z
#    x 1.743720 0.000000 0.000000 
#    y 0.000000 1.743720 0.000000 
#    z 0.000000 0.000000 1.672840 
# 
# From -- ./inp_files/5394.got.cif
#   From: 2010.03.12/outbox.cif.g09.slc.cpg/sg193_3_cif.got.tgz:5394.got - 2010.04.01 12:20:39.
