data_PCOD8329051
_publ_section_title
;
Structure prediction by ZEFSAII (Michael W. Deem and Ramdas Pophale) SiO2 
 PCOD8329051
Probable space group: P 6/M M M
;
_chemical_formula_sum "Si O2"
_cell_formula_units_Z 144
_cell_length_a 22.207804
_cell_length_b 22.207804
_cell_length_c 19.055090
_cell_angle_alpha 90.000000
_cell_angle_beta 90.000000
_cell_angle_gamma 120.000000
_cell_volume 8138.659286
_symmetry_space_group_name_H-M "P 6/M M M"
_symmetry_group_IT_number 191
_symmetry_cell_setting 'hexagonal'
loop_
_space_group_symop_operation_xyz
x,y,z
x-y,x,z
-y,x-y,z
-x,-y,z
-x+y,-x,z
y,-x+y,z
x-y,-y,-z
-x,-x+y,-z
y,x,-z
-y,-x,-z
-x+y,y,-z
x,x-y,-z
-x,-y,-z
-x+y,-x,-z
y,-x+y,-z
x,y,-z
x-y,x,-z
-y,x-y,-z
-x+y,y,z
x,x-y,z
-y,-x,z
y,x,z
x-y,-y,z
-x,-x+y,z
loop_
_atom_site_type_symbol
_atom_site_label
_atom_site_fract_x
_atom_site_fract_y
_atom_site_fract_z
Si Si1 0.412341 0.137640 0.919124
Si Si2 0.284301 0.857175 0.577494
Si Si3 0.610090 0.531120 0.184303
Si Si4 0.666090 0.474809 0.300144
Si Si5 0.292511 0.214913 0.339445
Si Si6 0.283731 0.207407 0.180136
O O1 0.439857 0.219929 0.909968
O O2 0.465942 0.116153 0.887570
O O3 0.342386 0.091983 0.876183
O O4 0.398628 0.115711 0.000000
O O5 0.317402 0.883437 0.500000
O O6 0.210280 0.789721 0.570049
O O7 0.334261 0.838462 0.622457
O O8 0.271956 0.914755 0.615483
O O9 0.536695 0.463306 0.178785
O O10 0.597053 0.597053 0.194416
O O11 0.654770 0.524969 0.247485
O O12 0.739469 0.478938 0.283102
O O13 0.604884 0.395117 0.295354
O O14 0.270805 0.135403 0.359609
O O15 0.227257 0.227257 0.353206
O O16 0.316046 0.229690 0.258072
O O17 0.251422 0.125711 0.168439
O O18 0.219944 0.219944 0.168101
#
# Coordination Sequence:
#
# PCOD8329051 Si02
#       6
#    24  24  24  24  24  24
#     4  10  20  33  50  72  97 124 156 197 243 288
#     4   9  18  31  46  68  98 127 156 194 240 288
#     4  10  21  35  51  72  98 129 163 199 241 291
#     4  10  20  35  55  76  99 129 167 208 248 294
#     4   9  17  30  49  71  96 129 168 207 247 296
#     4   9  17  29  46  68  93 122 156 194 236 281
#
# _framework density 17.693332000000002
#
# number of rings (size 3 to 8) (size 9 to 14) (size 15 to 20)
#    0.000    2.500    0.000    2.167    0.000    7.000 
#    0.000    0.833    0.000    1.667    0.000    5.833 
#    0.000    0.000    0.000    8.333    0.000    8.667 
#
# Total GULP energy -1784695.793412 kJ/mol
# GULP energy per Si atom -12393.720788 kJ/mol
# Density = 1.765306 g / cm^3
# Si number density = 17.693332 Si / 1000 Ang^3
#
#
#
# Elastic Constant Matrix: (Units=GPa)
#
#
# Indices 1 2 3 4 5 6 
#
# 1 78.9922 38.3871 44.3187 0.0000 0.0000 0.0000
# 2 38.3871 78.9922 44.3187 0.0000 0.0000 0.0000
# 3 44.3187 44.3187 114.5319 0.0000 0.0000 0.0000
# 4 0.0000 0.0000 0.0000 16.3370 0.0000 0.0000
# 5 0.0000 0.0000 0.0000 0.0000 16.3370 0.0000
# 6 0.0000 0.0000 0.0000 0.0000 0.0000 20.3026
#
#
#
# Elastic Compliance Matrix: (Units=1/GPa)
#
#
# Indices 1 2 3 4 5 6 
#
# 1 0.018332 -0.006295 -0.004658 0.000000 0.000000 0.000000
# 2 -0.006295 0.018332 -0.004658 0.000000 0.000000 0.000000
# 3 -0.004658 -0.004658 0.012336 0.000000 0.000000 0.000000
# 4 0.000000 0.000000 0.000000 0.061211 0.000000 0.000000
# 5 0.000000 0.000000 0.000000 0.000000 0.061211 0.000000
# 6 0.000000 0.000000 0.000000 0.000000 0.000000 0.049255
#
#
# Mechanical properties :
#
#
# Convention : Reuss Voigt Hill
#
# Bulk Modulus (GPa) = 56.24800 58.50725 57.37762
# Shear Modulus (GPa) = 19.39311 20.29477 19.84394
#
# Velocity S-wave (km/s) = 3.31428 3.39046 3.35259
# Velocity P-wave (km/s) = 6.81949 6.96176 6.89099
#
# Compressibility (1/GPa) = 0.01777841
#
# Stress axis : x y z
#
# Youngs Moduli (GPa) = 54.54958 54.54958 81.06527
#
# Poissons Ratio (x) = 0.34341 0.37757
# Poissons Ratio (y) = 0.34341 0.37757
# Poissons Ratio (z) = 0.25407 0.25407
#
# Static dielectric constant tensor:
#      x y z
#    x 3.291800 0.000000 0.000000 
#    y 0.000000 3.291800 0.000000 
#    z 0.000000 0.000000 3.575700 
# 
# 
# High freq. dielectric constant tensor:
#      x y z
#    x 1.674480 0.000000 0.000000 
#    y 0.000000 1.674480 0.000000 
#    z 0.000000 0.000000 1.685430 
# 
# From -- ./inp_files/6565.got.cif
#   From: 2010.03.12/outbox.cif.g09.slc.cpg/sg191_4_cif.got.tgz:6565.got - 2010.04.01 12:09:02.
