data_PCOD8329948
_publ_section_title
;
Structure prediction by ZEFSAII (Michael W. Deem and Ramdas Pophale) SiO2 
 PCOD8329948
Probable space group: P 63/M C M
;
_chemical_formula_sum "Si O2"
_cell_formula_units_Z 132
_cell_length_a 23.401649
_cell_length_b 23.401649
_cell_length_c 15.759151
_cell_angle_alpha 90.000000
_cell_angle_beta 90.000000
_cell_angle_gamma 120.000000
_cell_volume 7474.056400
_symmetry_space_group_name_H-M "P 63/M C M"
_symmetry_group_IT_number 193
_symmetry_cell_setting 'hexagonal'
loop_
_space_group_symop_operation_xyz
x,y,z
x-y,x,1/2+z
-y,x-y,z
-x,-y,1/2+z
-x+y,-x,z
y,-x+y,1/2+z
x-y,-y,1/2-z
-x,-x+y,1/2-z
y,x,1/2-z
-y,-x,-z
-x+y,y,-z
x,x-y,-z
-x,-y,-z
-x+y,-x,1/2-z
y,-x+y,-z
x,y,1/2-z
x-y,x,-z
-y,x-y,1/2-z
-x+y,y,1/2+z
x,x-y,1/2+z
-y,-x,1/2+z
y,x,z
x-y,-y,z
-x,-x+y,z
loop_
_atom_site_type_symbol
_atom_site_label
_atom_site_fract_x
_atom_site_fract_y
_atom_site_fract_z
Si Si1 0.610330 0.758079 0.149825
Si Si2 0.240653 0.164086 0.848782
Si Si3 0.612832 0.071153 0.847904
Si Si4 0.266272 0.744077 0.847964
Si Si5 0.077358 0.154716 0.500000
Si Si6 0.599541 0.412650 0.096616
O O1 0.614796 0.754896 0.250000
O O2 0.684230 0.807850 0.117965
O O3 0.583563 0.685310 0.109884
O O4 0.555239 0.778396 0.123751
O O5 0.231043 0.139161 0.750000
O O6 0.221197 0.221197 0.856130
O O7 0.197265 0.104920 0.913586
O O8 0.620131 0.060855 0.750000
O O9 0.584020 0.120021 0.856860
O O10 0.564039 0.000000 0.890401
O O11 0.252115 0.724434 0.750000
O O12 0.342323 0.793594 0.864177
O O13 0.244478 0.675540 0.895997
O O14 0.109017 0.109017 0.485618
O O15 0.584248 0.415753 0.000000
#
# Coordination Sequence:
#
# PCOD8329948 Si02
#       6
#    24  24  24  24  12  24
#     4   8  15  29  51  75  94 119 161 213 256 290
#     4   9  17  32  54  79 106 134 167 209 254 299
#     4   9  17  31  51  71  92 124 166 206 245 295
#     4  10  19  33  51  68  91 129 173 209 251 307
#     4  10  21  36  54  80 110 142 174 204 242 292
#     4  11  21  32  45  69 101 128 159 205 259 299
#
# _framework density 17.661093000000001
#
# number of rings (size 3 to 8) (size 9 to 14) (size 15 to 20)
#    0.000    2.545    0.000    4.273    0.000    2.909 
#    6.545    0.000    0.000    2.182    0.000    2.545 
#    0.000    0.000    0.000    0.000    0.000    0.000 
#
# Total GULP energy -1635768.926198 kJ/mol
# GULP energy per Si atom -12392.188835 kJ/mol
# Density = 1.762090 g / cm^3
# Si number density = 17.661093 Si / 1000 Ang^3
#
#
#
# Elastic Constant Matrix: (Units=GPa)
#
#
# Indices 1 2 3 4 5 6 
#
# 1 127.2786 79.1171 28.2554 0.0000 0.0000 0.0000
# 2 79.1171 127.2786 28.2554 0.0000 0.0000 0.0000
# 3 28.2554 28.2554 53.0802 0.0000 0.0000 0.0000
# 4 0.0000 0.0000 0.0000 16.1436 0.0000 0.0000
# 5 0.0000 0.0000 0.0000 0.0000 16.1436 0.0000
# 6 0.0000 0.0000 0.0000 0.0000 0.0000 24.0807
#
#
#
# Elastic Compliance Matrix: (Units=1/GPa)
#
#
# Indices 1 2 3 4 5 6 
#
# 1 0.013218 -0.007546 -0.003019 0.000000 0.000000 0.000000
# 2 -0.007546 0.013218 -0.003019 0.000000 0.000000 0.000000
# 3 -0.003019 -0.003019 0.022054 0.000000 0.000000 0.000000
# 4 0.000000 0.000000 0.000000 0.061944 0.000000 0.000000
# 5 0.000000 0.000000 0.000000 0.000000 0.061944 0.000000
# 6 0.000000 0.000000 0.000000 0.000000 0.000000 0.041527
#
#
# Mechanical properties :
#
#
# Convention : Reuss Voigt Hill
#
# Bulk Modulus (GPa) = 46.90314 64.32148 55.61231
# Shear Modulus (GPa) = 20.14673 22.74087 21.44380
#
# Velocity S-wave (km/s) = 3.38115 3.59224 3.48829
# Velocity P-wave (km/s) = 6.46977 7.32834 6.91240
#
# Compressibility (1/GPa) = 0.02132053
#
# Stress axis : x y z
#
# Youngs Moduli (GPa) = 75.65670 75.65670 45.34393
#
# Poissons Ratio (x) = 0.57090 0.13690
# Poissons Ratio (y) = 0.57090 0.13690
# Poissons Ratio (z) = 0.22842 0.22842
#
# Static dielectric constant tensor:
#      x y z
#    x 3.632350 0.000000 0.000000 
#    y 0.000000 3.632350 0.000000 
#    z 0.000000 0.000000 3.131880 
# 
# 
# High freq. dielectric constant tensor:
#      x y z
#    x 1.678740 0.000000 0.000000 
#    y 0.000000 1.678740 0.000000 
#    z 0.000000 0.000000 1.664090 
# 
# From -- ./inp_files/4146.got.cif
#   From: 2010.03.12/outbox.cif.g09.slc.cpg/sg193_3_cif.got.tgz:4146.got - 2010.04.01 12:20:39.
