data_PCOD8329053
_publ_section_title
;
Structure prediction by ZEFSAII (Michael W. Deem and Ramdas Pophale) SiO2 
 PCOD8329053
Probable space group: P 6/M M M
;
_chemical_formula_sum "Si O2"
_cell_formula_units_Z 120
_cell_length_a 17.416373
_cell_length_b 17.416373
_cell_length_c 25.774886
_cell_angle_alpha 90.000000
_cell_angle_beta 90.000000
_cell_angle_gamma 120.000000
_cell_volume 6770.844180
_symmetry_space_group_name_H-M "P 6/M M M"
_symmetry_group_IT_number 191
_symmetry_cell_setting 'hexagonal'
loop_
_space_group_symop_operation_xyz
x,y,z
x-y,x,z
-y,x-y,z
-x,-y,z
-x+y,-x,z
y,-x+y,z
x-y,-y,-z
-x,-x+y,-z
y,x,-z
-y,-x,-z
-x+y,y,-z
x,x-y,-z
-x,-y,-z
-x+y,-x,-z
y,-x+y,-z
x,y,-z
x-y,x,-z
-y,x-y,-z
-x+y,y,z
x,x-y,z
-y,-x,z
y,x,z
x-y,-y,z
-x,-x+y,z
loop_
_atom_site_type_symbol
_atom_site_label
_atom_site_fract_x
_atom_site_fract_y
_atom_site_fract_z
Si Si1 0.532761 0.895451 0.300133
Si Si2 0.271589 0.899423 0.599555
Si Si3 0.372787 0.273475 0.000000
Si Si4 0.100345 0.728605 0.799935
Si Si5 0.154476 0.667819 0.500000
Si Si6 0.512503 0.668181 0.101347
O O1 0.425897 0.851794 0.300314
O O2 0.563019 0.864894 0.351014
O O3 0.562346 0.864740 0.249021
O O4 0.576410 0.000000 0.300116
O O5 0.165767 0.834234 0.592264
O O6 0.324801 0.895425 0.550153
O O7 0.291529 0.000000 0.606889
O O8 0.432439 0.319837 0.049738
O O9 0.288694 0.288694 0.000000
O O10 0.335769 0.167885 0.000000
O O11 0.165603 0.834398 0.807033
O O12 0.103037 0.675777 0.849936
O O13 0.000000 0.708915 0.791872
O O14 0.257393 0.742608 0.500000
O O15 0.145789 0.572895 0.500000
O O16 0.481190 0.740595 0.104598
O O17 0.428172 0.571829 0.101082
#
# Coordination Sequence:
#
# PCOD8329053 Si02
#       6
#    24  24  12  24  12  24
#     4   9  17  30  49  72  96 122 154 191 231 280
#     4  10  20  33  50  72  97 127 163 202 242 283
#     4  10  21  35  51  72  97 127 162 200 241 283
#     4  10  20  33  50  72  97 127 163 203 245 286
#     4  10  20  33  50  73 100 128 157 192 236 285
#     4  10  20  33  50  73 101 131 161 194 234 281
#
# _framework density 17.723050000000001
#
# number of rings (size 3 to 8) (size 9 to 14) (size 15 to 20)
#    0.000    2.200    0.000    3.300    0.000    4.400 
#    0.000    1.000    0.000    6.100    0.000    0.000 
#    0.000   12.000    0.000    0.000    0.000    2.000 
#
# Total GULP energy -1488025.758586 kJ/mol
# GULP energy per Si atom -12400.214655 kJ/mol
# Density = 1.768271 g / cm^3
# Si number density = 17.723050 Si / 1000 Ang^3
#
#
#
# Elastic Constant Matrix: (Units=GPa)
#
#
# Indices 1 2 3 4 5 6 
#
# 1 97.8424 67.2256 31.2043 0.0000 0.0000 0.0000
# 2 67.2256 97.8424 31.2043 0.0000 0.0000 0.0000
# 3 31.2043 31.2043 145.3605 0.0000 0.0000 0.0000
# 4 0.0000 0.0000 0.0000 14.2492 0.0000 0.0000
# 5 0.0000 0.0000 0.0000 0.0000 14.2492 0.0000
# 6 0.0000 0.0000 0.0000 0.0000 0.0000 15.3084
#
#
#
# Elastic Compliance Matrix: (Units=1/GPa)
#
#
# Indices 1 2 3 4 5 6 
#
# 1 0.019628 -0.013034 -0.001415 0.000000 0.000000 0.000000
# 2 -0.013034 0.019628 -0.001415 0.000000 0.000000 0.000000
# 3 -0.001415 -0.001415 0.007487 0.000000 0.000000 0.000000
# 4 0.000000 0.000000 0.000000 0.070179 0.000000 0.000000
# 5 0.000000 0.000000 0.000000 0.000000 0.070179 0.000000
# 6 0.000000 0.000000 0.000000 0.000000 0.000000 0.065324
#
#
# Mechanical properties :
#
#
# Convention : Reuss Voigt Hill
#
# Bulk Modulus (GPa) = 66.61277 66.70151 66.65714
# Shear Modulus (GPa) = 17.29157 22.85545 20.07351
#
# Velocity S-wave (km/s) = 3.12694 3.59498 3.36910
# Velocity P-wave (km/s) = 7.12067 7.41276 7.26818
#
# Compressibility (1/GPa) = 0.01501214
#
# Stress axis : x y z
#
# Youngs Moduli (GPa) = 50.94883 50.94883 133.56286
#
# Poissons Ratio (x) = 0.66408 0.18904
# Poissons Ratio (y) = 0.66408 0.18904
# Poissons Ratio (z) = 0.07211 0.07211
#
# Static dielectric constant tensor:
#      x y z
#    x 3.151700 0.000000 0.000000 
#    y 0.000000 3.151700 0.000000 
#    z 0.000000 0.000000 3.548540 
# 
# 
# High freq. dielectric constant tensor:
#      x y z
#    x 1.668420 0.000000 0.000000 
#    y 0.000000 1.668420 0.000000 
#    z 0.000000 0.000000 1.711130 
# 
# From -- ./inp_files/9624.got.cif
#   From: 2010.03.12/outbox.cif.g09.slc.cpg/sg191_5_cif.got.tgz:9624.got - 2010.04.01 12:09:02.
