data_PCOD8329463
_publ_section_title
;
Structure prediction by ZEFSAII (Michael W. Deem and Ramdas Pophale) SiO2 
 PCOD8329463
Probable space group: P 6/M C C
;
_chemical_formula_sum "Si O2"
_cell_formula_units_Z 144
_cell_length_a 31.343782
_cell_length_b 31.343782
_cell_length_c 8.795167
_cell_angle_alpha 90.000000
_cell_angle_beta 90.000000
_cell_angle_gamma 120.000000
_cell_volume 7483.030545
_symmetry_space_group_name_H-M "P 6/M C C"
_symmetry_group_IT_number 192
_symmetry_cell_setting 'hexagonal'
loop_
_space_group_symop_operation_xyz
x,y,z
x-y,x,z
-y,x-y,z
-x,-y,z
-x+y,-x,z
y,-x+y,z
x-y,-y,1/2-z
-x,-x+y,1/2-z
y,x,1/2-z
-y,-x,1/2-z
-x+y,y,1/2-z
x,x-y,1/2-z
-x,-y,-z
-x+y,-x,-z
y,-x+y,-z
x,y,-z
x-y,x,-z
-y,x-y,-z
-x+y,y,1/2+z
x,x-y,1/2+z
-y,-x,1/2+z
y,x,1/2+z
x-y,-y,1/2+z
-x,-x+y,1/2+z
loop_
_atom_site_type_symbol
_atom_site_label
_atom_site_fract_x
_atom_site_fract_y
_atom_site_fract_z
Si Si1 0.757404 0.332766 0.179028
Si Si2 0.852723 0.238779 0.178070
Si Si3 0.571227 0.050955 0.820142
Si Si4 0.660770 0.519658 0.177020
Si Si5 0.051205 0.856737 0.820314
Si Si6 0.708184 0.949535 0.178606
O O1 0.719977 0.280024 0.250000
O O2 0.747304 0.373652 0.250000
O O3 0.812620 0.345724 0.218800
O O4 0.748605 0.330464 0.000000
O O5 0.809879 0.190122 0.250000
O O6 0.845319 0.284289 0.220914
O O7 0.904994 0.248062 0.241450
O O8 0.850328 0.229956 0.000000
O O9 0.531905 0.063810 0.750000
O O10 0.624921 0.094817 0.779085
O O11 0.563468 0.000000 0.750000
O O12 0.564294 0.045419 0.000000
O O13 0.649474 0.522504 0.000000
O O14 0.093500 0.906501 0.750000
O O15 0.060597 0.812429 0.772545
O O16 0.000000 0.847251 0.750000
O O17 0.050000 0.861943 0.000000
O O18 0.715974 0.000000 0.250000
O O19 0.706615 0.955072 0.000000
#
# Coordination Sequence:
#
# PCOD8329463 Si02
#       6
#    24  24  24  24  24  24
#     4  11  23  39  60  84 112 144 180 226 277 333
#     4  10  21  37  56  80 112 148 187 229 274 327
#     4  11  22  38  61  86 114 147 185 230 279 330
#     4  10  22  39  58  83 115 149 187 230 274 326
#     4  10  19  32  51  76 105 138 177 221 269 319
#     4   9  19  34  53  78 108 142 181 227 274 322
#
# _framework density 19.243539999999999
#
# number of rings (size 3 to 8) (size 9 to 14) (size 15 to 20)
#    0.000    1.833    0.000    4.667    0.000    5.333 
#    0.000    1.667    0.000    0.167    0.000    1.167 
#    0.000    0.000    0.000    0.000    0.000    0.000 
#
# Total GULP energy -1786282.058863 kJ/mol
# GULP energy per Si atom -12404.736520 kJ/mol
# Density = 1.919974 g / cm^3
# Si number density = 19.243540 Si / 1000 Ang^3
#
#
#
# Elastic Constant Matrix: (Units=GPa)
#
#
# Indices 1 2 3 4 5 6 
#
# 1 108.3334 44.2910 45.7791 0.0000 0.0000 0.0000
# 2 44.2910 108.3334 45.7791 0.0000 0.0000 0.0000
# 3 45.7791 45.7791 87.5498 0.0000 0.0000 0.0000
# 4 0.0000 0.0000 0.0000 30.1112 0.0000 0.0000
# 5 0.0000 0.0000 0.0000 0.0000 30.1112 0.0000
# 6 0.0000 0.0000 0.0000 0.0000 0.0000 32.0212
#
#
#
# Elastic Compliance Matrix: (Units=1/GPa)
#
#
# Indices 1 2 3 4 5 6 
#
# 1 0.012581 -0.003034 -0.004992 0.000000 0.000000 0.000000
# 2 -0.003034 0.012581 -0.004992 0.000000 0.000000 0.000000
# 3 -0.004992 -0.004992 0.016642 0.000000 0.000000 0.000000
# 4 0.000000 0.000000 0.000000 0.033210 0.000000 0.000000
# 5 0.000000 0.000000 0.000000 0.000000 0.033210 0.000000
# 6 0.000000 0.000000 0.000000 0.000000 0.000000 0.031229
#
#
# Mechanical properties :
#
#
# Convention : Reuss Voigt Hill
#
# Bulk Modulus (GPa) = 63.41842 63.99056 63.70449
# Shear Modulus (GPa) = 29.28344 29.67322 29.47833
#
# Velocity S-wave (km/s) = 3.90517 3.93107 3.91814
# Velocity P-wave (km/s) = 7.30486 7.34368 7.32430
#
# Compressibility (1/GPa) = 0.01576829
#
# Stress axis : x y z
#
# Youngs Moduli (GPa) = 79.48726 79.48726 60.08729
#
# Poissons Ratio (x) = 0.24117 0.29995
# Poissons Ratio (y) = 0.24117 0.29995
# Poissons Ratio (z) = 0.39679 0.39679
#
# Static dielectric constant tensor:
#      x y z
#    x 3.601300 0.000000 0.000000 
#    y 0.000000 3.601300 0.000000 
#    z 0.000000 0.000000 3.567560 
# 
# 
# High freq. dielectric constant tensor:
#      x y z
#    x 1.753550 0.000000 0.000000 
#    y 0.000000 1.753550 0.000000 
#    z 0.000000 0.000000 1.750530 
# 
# From -- ./inp_files/1183.got.cif
#   From: 2010.03.12/outbox.cif.g09.slc.cpg/sg192_1_cif.got.tgz:1183.got - 2010.04.01 12:16:15.
