data_PCOD8329940
_publ_section_title
;
Structure prediction by ZEFSAII (Michael W. Deem and Ramdas Pophale) SiO2 
 PCOD8329940
Probable space group: P 63/M C M
;
_chemical_formula_sum "Si O2"
_cell_formula_units_Z 96
_cell_length_a 25.947125
_cell_length_b 25.947125
_cell_length_c 9.433505
_cell_angle_alpha 90.000000
_cell_angle_beta 90.000000
_cell_angle_gamma 120.000000
_cell_volume 5500.247138
_symmetry_space_group_name_H-M "P 63/M C M"
_symmetry_group_IT_number 193
_symmetry_cell_setting 'hexagonal'
loop_
_space_group_symop_operation_xyz
x,y,z
x-y,x,1/2+z
-y,x-y,z
-x,-y,1/2+z
-x+y,-x,z
y,-x+y,1/2+z
x-y,-y,1/2-z
-x,-x+y,1/2-z
y,x,1/2-z
-y,-x,-z
-x+y,y,-z
x,x-y,-z
-x,-y,-z
-x+y,-x,1/2-z
y,-x+y,-z
x,y,1/2-z
x-y,x,-z
-y,x-y,1/2-z
-x+y,y,1/2+z
x,x-y,1/2+z
-y,-x,1/2+z
y,x,z
x-y,-y,z
-x,-x+y,z
loop_
_atom_site_type_symbol
_atom_site_label
_atom_site_fract_x
_atom_site_fract_y
_atom_site_fract_z
Si Si1 0.613197 0.070262 0.750000
Si Si2 0.499191 0.069997 0.750000
Si Si3 0.000000 0.103982 0.413362
Si Si4 0.774140 0.000000 0.913523
Si Si5 0.343029 0.929795 0.960677
Si Si6 0.212552 0.323651 0.087935
O O1 0.570982 0.100175 0.750000
O O2 0.658416 0.090435 0.620501
O O3 0.569842 0.000000 0.750000
O O4 0.475882 0.089499 0.614328
O O5 0.472252 0.000000 0.750000
O O6 0.943148 0.056853 0.500000
O O7 0.000000 0.164895 0.411473
O O8 0.000000 0.083192 0.250000
O O9 0.753229 0.000000 0.750000
O O10 0.726453 0.943073 0.998782
O O11 0.367460 0.000000 0.941429
O O12 0.276920 0.894520 0.899309
O O13 0.189363 0.302308 0.250000
O O14 0.170048 0.340095 0.000000
#
# Coordination Sequence:
#
# PCOD8329940 Si02
#       6
#    12  12  12  12  24  24
#     4   9  18  28  49  80 108 143 175 218 252 310
#     4   9  16  30  49  76 110 141 181 210 256 310
#     4  11  24  42  63  87 108 131 159 214 286 356
#     4  11  25  42  64  83 106 137 188 239 285 351
#     4  10  19  32  53  75 108 146 185 226 272 320
#     4  12  25  39  57  80 110 151 196 241 289 340
#
# _framework density 17.453759999999999
#
# number of rings (size 3 to 8) (size 9 to 14) (size 15 to 20)
#    0.000    1.500    2.500    3.125    3.500    7.000 
#    0.000    0.000    0.000    0.000    0.000    0.000 
#    0.000    0.000    0.000   15.000    0.000    0.000 
#
# Total GULP energy -1189899.372020 kJ/mol
# GULP energy per Si atom -12394.785125 kJ/mol
# Density = 1.741403 g / cm^3
# Si number density = 17.453760 Si / 1000 Ang^3
#
#
#
# Elastic Constant Matrix: (Units=GPa)
#
#
# Indices 1 2 3 4 5 6 
#
# 1 69.3570 18.5532 28.3865 0.0000 0.0000 0.0000
# 2 18.5532 69.3570 28.3865 0.0000 0.0000 0.0000
# 3 28.3865 28.3865 155.0695 0.0000 0.0000 0.0000
# 4 0.0000 0.0000 0.0000 31.2552 0.0000 0.0000
# 5 0.0000 0.0000 0.0000 0.0000 31.2552 0.0000
# 6 0.0000 0.0000 0.0000 0.0000 0.0000 25.4019
#
#
#
# Elastic Compliance Matrix: (Units=1/GPa)
#
#
# Indices 1 2 3 4 5 6 
#
# 1 0.016292 -0.003392 -0.002361 0.000000 0.000000 0.000000
# 2 -0.003392 0.016292 -0.002361 0.000000 0.000000 0.000000
# 3 -0.002361 -0.002361 0.007313 0.000000 0.000000 0.000000
# 4 0.000000 0.000000 0.000000 0.031995 0.000000 0.000000
# 5 0.000000 0.000000 0.000000 0.000000 0.031995 0.000000
# 6 0.000000 0.000000 0.000000 0.000000 0.000000 0.039367
#
#
# Mechanical properties :
#
#
# Convention : Reuss Voigt Hill
#
# Bulk Modulus (GPa) = 42.25118 49.38173 45.81646
# Shear Modulus (GPa) = 29.87354 32.14628 31.00991
#
# Velocity S-wave (km/s) = 4.14162 4.29627 4.21965
# Velocity P-wave (km/s) = 6.86518 7.27770 7.07445
#
# Compressibility (1/GPa) = 0.02366798
#
# Stress axis : x y z
#
# Youngs Moduli (GPa) = 61.38006 61.38006 136.73735
#
# Poissons Ratio (x) = 0.20818 0.32290
# Poissons Ratio (y) = 0.20818 0.32290
# Poissons Ratio (z) = 0.14495 0.14495
#
# Static dielectric constant tensor:
#      x y z
#    x 3.151160 0.000000 0.000000 
#    y 0.000000 3.151160 0.000000 
#    z 0.000000 0.000000 4.482290 
# 
# 
# High freq. dielectric constant tensor:
#      x y z
#    x 1.647970 0.000000 0.000000 
#    y 0.000000 1.647970 0.000000 
#    z 0.000000 0.000000 1.705210 
# 
# From -- ./inp_files/1280.got.cif
#   From: 2010.03.12/outbox.cif.g09.slc.cpg/sg193_1_cif.got.tgz:1280.got - 2010.04.01 12:20:39.
