data_PCOD8329745
_publ_section_title
;
Structure prediction by ZEFSAII (Michael W. Deem and Ramdas Pophale) SiO2 
 PCOD8329745
Probable space group: P 6/M C C
;
_chemical_formula_sum "Si O2"
_cell_formula_units_Z 168
_cell_length_a 30.536024
_cell_length_b 30.536024
_cell_length_c 14.578728
_cell_angle_alpha 90.000000
_cell_angle_beta 90.000000
_cell_angle_gamma 120.000000
_cell_volume 11772.677347
_symmetry_space_group_name_H-M "P 6/M C C"
_symmetry_group_IT_number 192
_symmetry_cell_setting 'hexagonal'
loop_
_space_group_symop_operation_xyz
x,y,z
x-y,x,z
-y,x-y,z
-x,-y,z
-x+y,-x,z
y,-x+y,z
x-y,-y,1/2-z
-x,-x+y,1/2-z
y,x,1/2-z
-y,-x,1/2-z
-x+y,y,1/2-z
x,x-y,1/2-z
-x,-y,-z
-x+y,-x,-z
y,-x+y,-z
x,y,-z
x-y,x,-z
-y,x-y,-z
-x+y,y,1/2+z
x,x-y,1/2+z
-y,-x,1/2+z
y,x,1/2+z
x-y,-y,1/2+z
-x,-x+y,1/2+z
loop_
_atom_site_type_symbol
_atom_site_label
_atom_site_fract_x
_atom_site_fract_y
_atom_site_fract_z
Si Si1 0.563403 0.333211 0.750000
Si Si2 0.810792 0.292931 0.102681
Si Si3 0.943721 0.154679 0.394728
Si Si4 0.596282 0.850488 0.750000
Si Si5 0.094537 0.802841 0.750000
Si Si6 0.789042 0.943721 0.105272
Si Si7 0.482140 0.189208 0.397319
O O1 0.615251 0.384750 0.750000
O O2 0.574718 0.287359 0.750000
O O3 0.532343 0.331309 0.658869
O O4 0.532343 0.331309 0.841131
O O5 0.852387 0.285315 0.158616
O O6 0.760278 0.239722 0.095574
O O7 0.830906 0.314044 0.000000
O O8 0.936900 0.164097 0.500000
O O9 0.935303 0.195404 0.339550
O O10 0.902919 0.097081 0.365141
O O11 0.000000 0.164173 0.374903
O O12 0.597141 0.798571 0.750000
O O13 0.652726 0.899566 0.750000
O O14 0.567072 0.852387 0.658616
O O15 0.150173 0.849828 0.750000
O O16 0.064697 0.804596 0.839550
O O17 0.772803 0.936900 0.000000
O O18 0.483138 0.169093 0.500000
#
# Coordination Sequence:
#
# PCOD8329745 Si02
#       7
#    24  24  24  24  24  24  24
#     4   9  16  24  33  46  64  88 122 163 201 231
#     4   8  14  24  35  46  63  88 116 147 186 230
#     4   9  17  28  41  57  78 104 132 161 192 223
#     4   8  14  23  35  51  68  86 111 145 184 225
#     4   9  16  25  38  57  76  93 119 154 189 225
#     4   9  17  28  41  57  78 104 132 161 192 223
#     4   8  14  24  35  46  63  88 116 147 186 230
#
# _framework density 14.27033
#
# number of rings (size 3 to 8) (size 9 to 14) (size 15 to 20)
#    0.000    3.429    0.000    2.286    0.000    1.714 
#    0.000    5.714    0.000    2.000    0.000    2.000 
#    0.000    3.429    0.000    0.286    0.000   45.714 
#
# Total GULP energy -2081503.786680 kJ/mol
# GULP energy per Si atom -12389.903492 kJ/mol
# Density = 1.423785 g / cm^3
# Si number density = 14.270330 Si / 1000 Ang^3
#
#
#
# Elastic Constant Matrix: (Units=GPa)
#
#
# Indices 1 2 3 4 5 6 
#
# 1 70.2912 47.8217 42.5955 0.0000 0.0000 0.0000
# 2 47.8217 70.2912 42.5955 0.0000 0.0000 0.0000
# 3 42.5955 42.5955 121.2461 0.0000 0.0000 0.0000
# 4 0.0000 0.0000 0.0000 12.7418 0.0000 0.0000
# 5 0.0000 0.0000 0.0000 0.0000 12.7418 0.0000
# 6 0.0000 0.0000 0.0000 0.0000 0.0000 11.2347
#
#
#
# Elastic Compliance Matrix: (Units=1/GPa)
#
#
# Indices 1 2 3 4 5 6 
#
# 1 0.027922 -0.016582 -0.003984 0.000000 0.000000 0.000000
# 2 -0.016582 0.027922 -0.003984 0.000000 0.000000 0.000000
# 3 -0.003984 -0.003984 0.011047 0.000000 0.000000 0.000000
# 4 0.000000 0.000000 0.000000 0.078482 0.000000 0.000000
# 5 0.000000 0.000000 0.000000 0.000000 0.078482 0.000000
# 6 0.000000 0.000000 0.000000 0.000000 0.000000 0.089010
#
#
# Mechanical properties :
#
#
# Convention : Reuss Voigt Hill
#
# Bulk Modulus (GPa) = 56.20756 58.65044 57.42900
# Shear Modulus (GPa) = 13.59078 15.93136 14.76107
#
# Velocity S-wave (km/s) = 3.08941 3.34488 3.21968
# Velocity P-wave (km/s) = 7.22490 7.49042 7.35886
#
# Compressibility (1/GPa) = 0.01779120
#
# Stress axis : x y z
#
# Youngs Moduli (GPa) = 35.81355 35.81355 90.52337
#
# Poissons Ratio (x) = 0.59388 0.36063
# Poissons Ratio (y) = 0.59388 0.36063
# Poissons Ratio (z) = 0.14268 0.14268
#
# Static dielectric constant tensor:
#      x y z
#    x 2.640110 0.000000 0.000000 
#    y 0.000000 2.640110 0.000000 
#    z 0.000000 0.000000 3.198380 
# 
# 
# High freq. dielectric constant tensor:
#      x y z
#    x 1.508230 0.000000 0.000000 
#    y 0.000000 1.508230 0.000000 
#    z 0.000000 0.000000 1.562870 
# 
# From -- ./inp_files/3529.got.cif
#   From: 2010.03.12/outbox.cif.g09.slc.cpg/sg192_2_cif.got.tgz:3529.got - 2010.04.01 12:16:15.
