data_PCOD8329358
_publ_section_title
;
Structure prediction by ZEFSAII (Michael W. Deem and Ramdas Pophale) SiO2 
 PCOD8329358
Probable space group: P 6/M C C
;
_chemical_formula_sum "Si O2"
_cell_formula_units_Z 92
_cell_length_a 18.226397
_cell_length_b 18.226397
_cell_length_c 17.092688
_cell_angle_alpha 90.000000
_cell_angle_beta 90.000000
_cell_angle_gamma 120.000000
_cell_volume 4917.480522
_symmetry_space_group_name_H-M "P 6/M C C"
_symmetry_group_IT_number 192
_symmetry_cell_setting 'hexagonal'
loop_
_space_group_symop_operation_xyz
x,y,z
x-y,x,z
-y,x-y,z
-x,-y,z
-x+y,-x,z
y,-x+y,z
x-y,-y,1/2-z
-x,-x+y,1/2-z
y,x,1/2-z
-y,-x,1/2-z
-x+y,y,1/2-z
x,x-y,1/2-z
-x,-y,-z
-x+y,-x,-z
y,-x+y,-z
x,y,-z
x-y,x,-z
-y,x-y,-z
-x+y,y,1/2+z
x,x-y,1/2+z
-y,-x,1/2+z
y,x,1/2+z
x-y,-y,1/2+z
-x,-x+y,1/2+z
loop_
_atom_site_type_symbol
_atom_site_label
_atom_site_fract_x
_atom_site_fract_y
_atom_site_fract_z
Si Si1 0.730271 0.511792 0.093219
Si Si2 0.441591 0.404659 0.406655
Si Si3 0.193369 0.048686 0.500000
Si Si4 0.648251 0.739528 0.913469
Si Si5 0.333334 0.666667 0.657821
O O1 0.652499 0.520935 0.126573
O O2 0.816654 0.592895 0.126139
O O3 0.725978 0.427833 0.126218
O O4 0.727269 0.508205 0.000000
O O5 0.500000 0.500000 0.375804
O O6 0.440460 0.400333 0.500000
O O7 0.346019 0.365591 0.371804
O O8 0.159450 0.114202 0.500000
O O9 0.251882 0.063462 0.577482
O O10 0.608232 0.709887 0.000000
O O11 0.333334 0.666667 0.750000
#
# Coordination Sequence:
#
# PCOD8329358 Si02
#       5
#    24  24  12  24   8
#     4  10  18  32  52  70  92 128 171 207 242 296
#     4   9  15  24  42  69  94 116 156 216 250 272
#     4  10  17  26  39  66 108 142 162 190 250 312
#     4   8  16  26  44  69  95 122 164 210 245 280
#     4  12  25  35  46  69 103 131 157 210 268 302
#
# _framework density 18.708769
#
# number of rings (size 3 to 8) (size 9 to 14) (size 15 to 20)
#    0.783    1.826    0.000    4.043    0.000    4.174 
#    0.000    0.000    0.000    7.043    0.000    0.000 
#    0.000    0.000    0.000    0.000    0.000    7.043 
#
# Total GULP energy -1139819.537567 kJ/mol
# GULP energy per Si atom -12389.342800 kJ/mol
# Density = 1.866619 g / cm^3
# Si number density = 18.708769 Si / 1000 Ang^3
#
#
#
# Elastic Constant Matrix: (Units=GPa)
#
#
# Indices 1 2 3 4 5 6 
#
# 1 153.5892 63.0985 10.5786 0.0000 -0.0001 0.0003
# 2 63.0985 153.5907 10.5786 0.0000 0.0000 0.0002
# 3 10.5786 10.5786 11.1779 -0.0001 0.0000 0.0000
# 4 0.0000 0.0000 -0.0001 1.5618 0.0000 0.0000
# 5 -0.0001 0.0000 0.0000 0.0000 1.5619 0.0000
# 6 0.0003 0.0002 0.0000 0.0000 0.0000 45.2458
#
#
#
# Elastic Compliance Matrix: (Units=1/GPa)
#
#
# Indices 1 2 3 4 5 6 
#
# 1 0.008068 -0.002983 -0.004812 0.000000 0.000000 0.000000
# 2 -0.002983 0.008068 -0.004812 0.000000 0.000000 0.000000
# 3 -0.004812 -0.004812 0.098570 0.000007 0.000000 0.000000
# 4 0.000000 0.000000 0.000007 0.640286 0.000020 0.000001
# 5 0.000000 0.000000 0.000000 0.000020 0.640252 0.000000
# 6 0.000000 0.000000 0.000000 0.000001 0.000000 0.022101
#
#
# Mechanical properties :
#
#
# Convention : Reuss Voigt Hill
#
# Bulk Modulus (GPa) = 11.17426 54.09656 32.63541
# Shear Modulus (GPa) = 3.39584 25.28071 14.33827
#
# Velocity S-wave (km/s) = 1.34872 3.67996 2.77138
# Velocity P-wave (km/s) = 2.90019 6.85813 5.26522
#
# Compressibility (1/GPa) = 0.08949141
#
# Stress axis : x y z
#
# Youngs Moduli (GPa) = 123.94932 123.95066 10.14503
#
# Poissons Ratio (x) = 0.36974 0.04882
# Poissons Ratio (y) = 0.36974 0.04882
# Poissons Ratio (z) = 0.59647 0.59646
#
# Static dielectric constant tensor:
#      x y z
#    x 3.639560 0.000000 0.000000 
#    y 0.000000 3.639560 0.000000 
#    z 0.000000 0.000000 2.577640 
# 
# 
# High freq. dielectric constant tensor:
#      x y z
#    x 1.739890 0.000000 0.000000 
#    y 0.000000 1.739890 0.000000 
#    z 0.000000 0.000000 1.627590 
# 
# From -- ./inp_files/4025.got.cif
#   From: 2010.03.12/outbox.cif.g09.slc.cpg/sg192_3_cif.got.tgz:4025.got - 2010.04.01 12:16:15.
