data_PCOD8329152
_publ_section_title
;
Structure prediction by ZEFSAII (Michael W. Deem and Ramdas Pophale) SiO2 
 PCOD8329152
Probable space group: P 6/M M M
;
_chemical_formula_sum "Si O2"
_cell_formula_units_Z 156
_cell_length_a 21.295026
_cell_length_b 21.295026
_cell_length_c 21.244910
_cell_angle_alpha 90.000000
_cell_angle_beta 90.000000
_cell_angle_gamma 120.000000
_cell_volume 8343.377169
_symmetry_space_group_name_H-M "P 6/M M M"
_symmetry_group_IT_number 191
_symmetry_cell_setting 'hexagonal'
loop_
_space_group_symop_operation_xyz
x,y,z
x-y,x,z
-y,x-y,z
-x,-y,z
-x+y,-x,z
y,-x+y,z
x-y,-y,-z
-x,-x+y,-z
y,x,-z
-y,-x,-z
-x+y,y,-z
x,x-y,-z
-x,-y,-z
-x+y,-x,-z
y,-x+y,-z
x,y,-z
x-y,x,-z
-y,x-y,-z
-x+y,y,z
x,x-y,z
-y,-x,z
y,x,z
x-y,-y,z
-x,-x+y,z
loop_
_atom_site_type_symbol
_atom_site_label
_atom_site_fract_x
_atom_site_fract_y
_atom_site_fract_z
Si Si1 0.082328 0.696640 0.570833
Si Si2 0.647057 0.564302 0.748448
Si Si3 0.335956 0.524194 0.000000
Si Si4 0.696683 0.777817 0.689752
Si Si5 0.565629 0.917688 0.890619
Si Si6 0.783588 0.704587 0.072680
Si Si7 0.664304 0.186917 0.358246
O O1 0.096599 0.727895 0.500000
O O2 0.094994 0.760133 0.618829
O O3 0.138188 0.668603 0.585856
O O4 0.000000 0.629968 0.578455
O O5 0.587595 0.587595 0.730018
O O6 0.726813 0.633913 0.738675
O O7 0.633704 0.534957 0.819896
O O8 0.638797 0.499130 0.705488
O O9 0.354027 0.493164 0.938052
O O10 0.389264 0.610737 0.000000
O O11 0.252846 0.505691 0.000000
O O12 0.722943 0.861472 0.704839
O O13 0.765171 0.765171 0.696540
O O14 0.636059 0.908984 0.887922
O O15 0.588722 0.000000 0.911021
O O16 0.864439 0.728877 0.094517
O O17 0.773406 0.773406 0.084935
O O18 0.769557 0.680099 0.000000
O O19 0.604335 0.208669 0.376468
O O20 0.741130 0.258871 0.347750
#
# Coordination Sequence:
#
# PCOD8329152 Si02
#       7
#    24  24  12  24  24  24  24
#     4   9  18  33  55  81 103 126 163 215 269 308
#     4   9  19  35  57  81 100 122 158 210 267 310
#     4  12  26  41  55  73 102 139 173 201 235 290
#     4   9  17  30  49  75 106 137 169 207 253 303
#     4  10  20  36  58  82 102 121 156 210 267 309
#     4   9  16  27  45  70  98 126 156 193 239 289
#     4  11  23  37  52  72 102 140 176 206 239 290
#
# _framework density 18.697465000000001
#
# number of rings (size 3 to 8) (size 9 to 14) (size 15 to 20)
#    0.000    2.308    0.769    4.154    0.000    6.462 
#    0.000    2.308    0.000    3.077    0.000    1.077 
#    0.000    0.000    0.000   11.538    0.000    4.000 
#
# Total GULP energy -1933930.025467 kJ/mol
# GULP energy per Si atom -12396.987343 kJ/mol
# Density = 1.865491 g / cm^3
# Si number density = 18.697465 Si / 1000 Ang^3
#
#
#
# Elastic Constant Matrix: (Units=GPa)
#
#
# Indices 1 2 3 4 5 6 
#
# 1 83.9507 40.0842 14.6614 0.0000 0.0000 0.0000
# 2 40.0842 83.9507 14.6614 0.0000 0.0000 0.0000
# 3 14.6614 14.6614 75.2877 0.0000 0.0000 0.0000
# 4 0.0000 0.0000 0.0000 8.4849 0.0000 0.0000
# 5 0.0000 0.0000 0.0000 0.0000 8.4849 0.0000
# 6 0.0000 0.0000 0.0000 0.0000 0.0000 21.9333
#
#
#
# Elastic Compliance Matrix: (Units=1/GPa)
#
#
# Indices 1 2 3 4 5 6 
#
# 1 0.015624 -0.007173 -0.001646 0.000000 0.000000 0.000000
# 2 -0.007173 0.015624 -0.001646 0.000000 0.000000 0.000000
# 3 -0.001646 -0.001646 0.013923 0.000000 0.000000 0.000000
# 4 0.000000 0.000000 0.000000 0.117856 0.000000 0.000000
# 5 0.000000 0.000000 0.000000 0.000000 0.117856 0.000000
# 6 0.000000 0.000000 0.000000 0.000000 0.000000 0.045593
#
#
# Mechanical properties :
#
#
# Convention : Reuss Voigt Hill
#
# Bulk Modulus (GPa) = 41.24925 42.44476 41.84700
# Shear Modulus (GPa) = 14.06528 19.36610 16.71569
#
# Velocity S-wave (km/s) = 2.74570 3.22181 2.99324
# Velocity P-wave (km/s) = 5.67108 6.04898 5.86308
#
# Compressibility (1/GPa) = 0.02424286
#
# Stress axis : x y z
#
# Youngs Moduli (GPa) = 64.00458 64.00458 71.82163
#
# Poissons Ratio (x) = 0.45908 0.11820
# Poissons Ratio (y) = 0.45908 0.11820
# Poissons Ratio (z) = 0.10534 0.10534
#
# Static dielectric constant tensor:
#      x y z
#    x 3.324250 0.000000 0.000000 
#    y 0.000000 3.324250 0.000000 
#    z 0.000000 0.000000 3.504740 
# 
# 
# High freq. dielectric constant tensor:
#      x y z
#    x 1.709980 0.000000 0.000000 
#    y 0.000000 1.709980 0.000000 
#    z 0.000000 0.000000 1.726080 
# 
# From -- ./inp_files/7721.got.cif
#   From: 2010.03.12/outbox.cif.g09.slc.cpg/sg191_4_cif.got.tgz:7721.got - 2010.04.01 12:09:02.
