data_PCOD8329958
_publ_section_title
;
Structure prediction by ZEFSAII (Michael W. Deem and Ramdas Pophale) SiO2 
 PCOD8329958
Probable space group: P 63/M C M
;
_chemical_formula_sum "Si O2"
_cell_formula_units_Z 92
_cell_length_a 20.937344
_cell_length_b 20.937344
_cell_length_c 14.000518
_cell_angle_alpha 90.000000
_cell_angle_beta 90.000000
_cell_angle_gamma 120.000000
_cell_volume 5315.179222
_symmetry_space_group_name_H-M "P 63/M C M"
_symmetry_group_IT_number 193
_symmetry_cell_setting 'hexagonal'
loop_
_space_group_symop_operation_xyz
x,y,z
x-y,x,1/2+z
-y,x-y,z
-x,-y,1/2+z
-x+y,-x,z
y,-x+y,1/2+z
x-y,-y,1/2-z
-x,-x+y,1/2-z
y,x,1/2-z
-y,-x,-z
-x+y,y,-z
x,x-y,-z
-x,-y,-z
-x+y,-x,1/2-z
y,-x+y,-z
x,y,1/2-z
x-y,x,-z
-y,x-y,1/2-z
-x+y,y,1/2+z
x,x-y,1/2+z
-y,-x,1/2+z
y,x,z
x-y,-y,z
-x,-x+y,z
loop_
_atom_site_type_symbol
_atom_site_label
_atom_site_fract_x
_atom_site_fract_y
_atom_site_fract_z
Si Si1 0.796397 0.203604 0.500000
Si Si2 0.523519 0.082549 0.109531
Si Si3 0.317404 0.517198 0.144459
Si Si4 0.914829 0.294758 0.140388
Si Si5 0.666667 0.333333 0.862874
O O1 0.820201 0.272777 0.569833
O O2 0.866899 0.225989 0.431151
O O3 0.599812 0.133586 0.162256
O O4 0.466935 0.112742 0.127722
O O5 0.486829 0.000000 0.152076
O O6 0.541695 0.083390 0.000000
O O7 0.279413 0.497130 0.250000
O O8 0.319490 0.588768 0.098868
O O9 0.903173 0.267217 0.250000
O O10 0.000000 0.330812 0.110018
O O11 0.666667 0.333334 0.750000
#
# Coordination Sequence:
#
# PCOD8329958 Si02
#       5
#    12  24  24  24   8
#     4  12  22  34  52  74  96 124 166 210 246 298
#     4  10  19  34  51  68  92 126 166 209 255 299
#     4  11  22  33  46  66  91 122 158 206 256 300
#     4  10  21  37  55  73  98 134 171 207 252 307
#     4   9  21  34  41  58  91 119 151 193 251 313
#
# _framework density 17.308917999999998
#
# number of rings (size 3 to 8) (size 9 to 14) (size 15 to 20)
#    0.000    1.565    2.609    3.130    0.000    3.652 
#    0.000    0.000    0.000    2.348    0.000    0.000 
#    0.000    0.000    0.000    0.391    0.000    1.826 
#
# Total GULP energy -1140508.430119 kJ/mol
# GULP energy per Si atom -12396.830762 kJ/mol
# Density = 1.726952 g / cm^3
# Si number density = 17.308918 Si / 1000 Ang^3
#
#
#
# Elastic Constant Matrix: (Units=GPa)
#
#
# Indices 1 2 3 4 5 6 
#
# 1 63.1320 20.3760 31.1101 0.0000 0.0000 0.0000
# 2 20.3760 63.1320 31.1101 0.0000 0.0000 0.0000
# 3 31.1101 31.1101 103.1628 0.0000 0.0000 0.0000
# 4 0.0000 0.0000 0.0000 22.5444 0.0000 0.0000
# 5 0.0000 0.0000 0.0000 0.0000 22.5444 0.0000
# 6 0.0000 0.0000 0.0000 0.0000 0.0000 21.3779
#
#
#
# Elastic Compliance Matrix: (Units=1/GPa)
#
#
# Indices 1 2 3 4 5 6 
#
# 1 0.019417 -0.003972 -0.004658 0.000000 0.000000 0.000000
# 2 -0.003972 0.019417 -0.004658 0.000000 0.000000 0.000000
# 3 -0.004658 -0.004658 0.012503 0.000000 0.000000 0.000000
# 4 0.000000 0.000000 0.000000 0.044357 0.000000 0.000000
# 5 0.000000 0.000000 0.000000 0.000000 0.044357 0.000000
# 6 0.000000 0.000000 0.000000 0.000000 0.000000 0.046777
#
#
# Mechanical properties :
#
#
# Convention : Reuss Voigt Hill
#
# Bulk Modulus (GPa) = 40.38402 43.84657 42.11529
# Shear Modulus (GPa) = 22.55750 23.08205 22.81978
#
# Velocity S-wave (km/s) = 3.61394 3.65572 3.63489
# Velocity P-wave (km/s) = 6.38718 6.57312 6.48082
#
# Compressibility (1/GPa) = 0.02476227
#
# Stress axis : x y z
#
# Youngs Moduli (GPa) = 51.50150 51.50147 79.98335
#
# Poissons Ratio (x) = 0.20455 0.37254
# Poissons Ratio (y) = 0.20455 0.37254
# Poissons Ratio (z) = 0.23988 0.23988
#
# Static dielectric constant tensor:
#      x y z
#    x 3.096260 0.000000 0.000000 
#    y 0.000000 3.096260 0.000000 
#    z 0.000000 0.000000 3.383100 
# 
# 
# High freq. dielectric constant tensor:
#      x y z
#    x 1.629830 0.000000 0.000000 
#    y 0.000000 1.629830 0.000000 
#    z 0.000000 0.000000 1.697420 
# 
# From -- ./inp_files/3582.got.cif
#   From: 2010.03.12/outbox.cif.g09.slc.cpg/sg193_2_cif.got.tgz:3582.got - 2010.04.01 12:20:39.
