data_PCOD8329972
_publ_section_title
;
Structure prediction by ZEFSAII (Michael W. Deem and Ramdas Pophale) SiO2 
 PCOD8329972
Probable space group: P 63/M C M
;
_chemical_formula_sum "Si O2"
_cell_formula_units_Z 168
_cell_length_a 16.854565
_cell_length_b 16.854565
_cell_length_c 32.025599
_cell_angle_alpha 90.000000
_cell_angle_beta 90.000000
_cell_angle_gamma 120.000000
_cell_volume 7878.852855
_symmetry_space_group_name_H-M "P 63/M C M"
_symmetry_group_IT_number 193
_symmetry_cell_setting 'hexagonal'
loop_
_space_group_symop_operation_xyz
x,y,z
x-y,x,1/2+z
-y,x-y,z
-x,-y,1/2+z
-x+y,-x,z
y,-x+y,1/2+z
x-y,-y,1/2-z
-x,-x+y,1/2-z
y,x,1/2-z
-y,-x,-z
-x+y,y,-z
x,x-y,-z
-x,-y,-z
-x+y,-x,1/2-z
y,-x+y,-z
x,y,1/2-z
x-y,x,-z
-y,x-y,1/2-z
-x+y,y,1/2+z
x,x-y,1/2+z
-y,-x,1/2+z
y,x,z
x-y,-y,z
-x,-x+y,z
loop_
_atom_site_type_symbol
_atom_site_label
_atom_site_fract_x
_atom_site_fract_y
_atom_site_fract_z
Si Si1 0.100045 0.199857 0.184747
Si Si2 0.892566 0.487645 0.298091
Si Si3 0.104262 0.208464 0.913959
Si Si4 0.546551 0.652840 0.141380
Si Si5 0.802972 0.605509 0.795639
Si Si6 0.583267 0.769732 0.062311
Si Si7 0.641660 0.535054 0.513871
O O1 0.118760 0.118760 0.197223
O O2 0.105436 0.212174 0.135415
O O3 0.177734 0.291388 0.206805
O O4 0.000000 0.173276 0.201658
O O5 0.869013 0.451109 0.250000
O O6 0.860865 0.407344 0.332301
O O7 0.838427 0.539000 0.311766
O O8 0.000000 0.557331 0.302016
O O9 0.153704 0.153704 0.930857
O O10 0.156823 0.312019 0.929553
O O11 0.000000 0.158067 0.930921
O O12 0.594824 0.594824 0.127854
O O13 0.611856 0.731786 0.173184
O O14 0.531438 0.700289 0.100849
O O15 0.814967 0.572721 0.750000
O O16 0.531073 0.826694 0.051589
O O17 0.584809 0.708510 0.024575
O O18 0.567580 0.432421 0.500000
O O19 0.591249 0.591249 0.527874
#
# Coordination Sequence:
#
# PCOD8329972 Si02
#       7
#    24  24  24  24  24  24  24
#     4  10  20  34  54  83 124 170 215 258 302 356
#     4   9  20  39  60  83 118 166 217 272 331 386
#     4  10  19  34  58  91 131 171 212 256 306 363
#     4  11  22  39  63  93 126 162 208 262 321 386
#     4  11  22  37  59  87 120 164 213 266 321 378
#     4  11  22  40  67  96 126 166 207 265 311 379
#     4  10  23  44  68  95 126 164 205 251 317 389
#
# _framework density 21.322901999999999
#
# number of rings (size 3 to 8) (size 9 to 14) (size 15 to 20)
#    0.000    1.714    1.429    3.286    0.000    4.857 
#    4.286    1.429    0.000    0.857    0.000    5.000 
#    0.000    0.000    0.000    0.000    0.000    0.000 
#
# Total GULP energy -2082578.292318 kJ/mol
# GULP energy per Si atom -12396.299359 kJ/mol
# Density = 2.127437 g / cm^3
# Si number density = 21.322902 Si / 1000 Ang^3
#
#
#
# Elastic Constant Matrix: (Units=GPa)
#
#
# Indices 1 2 3 4 5 6 
#
# 1 121.2343 59.9941 40.9867 0.0000 0.0000 0.0000
# 2 59.9941 121.2343 40.9867 0.0000 0.0000 0.0000
# 3 40.9867 40.9867 87.8547 0.0000 0.0000 0.0000
# 4 0.0000 0.0000 0.0000 28.9323 0.0000 0.0000
# 5 0.0000 0.0000 0.0000 0.0000 28.9323 0.0000
# 6 0.0000 0.0000 0.0000 0.0000 0.0000 30.6201
#
#
#
# Elastic Compliance Matrix: (Units=1/GPa)
#
#
# Indices 1 2 3 4 5 6 
#
# 1 0.011661 -0.004668 -0.003263 0.000000 0.000000 0.000000
# 2 -0.004668 0.011661 -0.003263 0.000000 0.000000 0.000000
# 3 -0.003263 -0.003263 0.014427 0.000000 0.000000 0.000000
# 4 0.000000 0.000000 0.000000 0.034563 0.000000 0.000000
# 5 0.000000 0.000000 0.000000 0.000000 0.034563 0.000000
# 6 0.000000 0.000000 0.000000 0.000000 0.000000 0.032658
#
#
# Mechanical properties :
#
#
# Convention : Reuss Voigt Hill
#
# Bulk Modulus (GPa) = 65.09089 68.25096 66.67092
# Shear Modulus (GPa) = 29.93252 30.25398 30.09325
#
# Velocity S-wave (km/s) = 3.75076 3.77085 3.76082
# Velocity P-wave (km/s) = 7.02497 7.14401 7.08474
#
# Compressibility (1/GPa) = 0.01536313
#
# Stress axis : x y z
#
# Youngs Moduli (GPa) = 85.75282 85.75282 69.31557
#
# Poissons Ratio (x) = 0.40027 0.22616
# Poissons Ratio (y) = 0.40027 0.22616
# Poissons Ratio (z) = 0.27979 0.27979
#
# Static dielectric constant tensor:
#      x y z
#    x 3.877430 0.000000 0.000000 
#    y 0.000000 3.877430 0.000000 
#    z 0.000000 0.000000 3.915940 
# 
# 
# High freq. dielectric constant tensor:
#      x y z
#    x 1.837320 0.000000 0.000000 
#    y 0.000000 1.837320 0.000000 
#    z 0.000000 0.000000 1.829770 
# 
# From -- ./inp_files/9294.got.cif
#   From: 2010.03.12/outbox.cif.g09.slc.cpg/sg193_5_cif.got.tgz:9294.got - 2010.04.01 12:20:39.
