data_PCOD8329269
_publ_section_title
;
Structure prediction by ZEFSAII (Michael W. Deem and Ramdas Pophale) SiO2 
 PCOD8329269
Probable space group: P 6/M M M
;
_chemical_formula_sum "Si O2"
_cell_formula_units_Z 84
_cell_length_a 21.174375
_cell_length_b 21.174375
_cell_length_c 12.377077
_cell_angle_alpha 90.000000
_cell_angle_beta 90.000000
_cell_angle_gamma 120.000000
_cell_volume 4805.846828
_symmetry_space_group_name_H-M "P 6/M M M"
_symmetry_group_IT_number 191
_symmetry_cell_setting 'hexagonal'
loop_
_space_group_symop_operation_xyz
x,y,z
x-y,x,z
-y,x-y,z
-x,-y,z
-x+y,-x,z
y,-x+y,z
x-y,-y,-z
-x,-x+y,-z
y,x,-z
-y,-x,-z
-x+y,y,-z
x,x-y,-z
-x,-y,-z
-x+y,-x,-z
y,-x+y,-z
x,y,-z
x-y,x,-z
-y,x-y,-z
-x+y,y,z
x,x-y,z
-y,-x,z
y,x,z
x-y,-y,z
-x,-x+y,z
loop_
_atom_site_type_symbol
_atom_site_label
_atom_site_fract_x
_atom_site_fract_y
_atom_site_fract_z
Si Si1 0.921770 0.706620 0.371823
Si Si2 0.917220 0.533444 0.000000
Si Si3 0.357451 0.917176 0.374623
Si Si4 0.522157 0.336251 0.191944
O O1 0.920543 0.711851 0.500000
O O2 0.859157 0.718314 0.318323
O O3 0.908832 0.628108 0.340463
O O4 0.000000 0.769098 0.327186
O O5 0.871665 0.533699 0.895552
O O6 0.923905 0.461953 0.000000
O O7 0.000000 0.603509 0.000000
O O8 0.359563 0.898965 0.500000
O O9 0.363999 0.857040 0.305346
O O10 0.422217 0.000000 0.350342
O O11 0.511568 0.255784 0.199252
O O12 0.606075 0.393926 0.160524
#
# Coordination Sequence:
#
# PCOD8329269 Si02
#       4
#    24  12  24  24
#     4   8  13  22  37  57  81 109 142 180 223 271
#     4   9  19  36  56  74  90 115 156 202 240 274
#     4   9  18  32  50  71  93 121 161 208 251 286
#     4  11  22  35  51  71  98 129 159 193 238 298
#
# _framework density 17.478708999999998
#
# number of rings (size 3 to 8) (size 9 to 14) (size 15 to 20)
#    0.000    2.714    0.000    4.143    0.000    4.000 
#    0.000    2.857    0.000    2.000    0.000    2.000 
#    0.000    0.000    0.000    0.000    0.000    0.000 
#
# Total GULP energy -1040965.872688 kJ/mol
# GULP energy per Si atom -12392.450865 kJ/mol
# Density = 1.743893 g / cm^3
# Si number density = 17.478709 Si / 1000 Ang^3
#
#
#
# Elastic Constant Matrix: (Units=GPa)
#
#
# Indices 1 2 3 4 5 6 
#
# 1 83.6604 48.4580 32.1022 0.0000 0.0000 0.0000
# 2 48.4580 83.6604 32.1022 0.0000 0.0000 0.0000
# 3 32.1022 32.1022 76.6975 0.0000 0.0000 0.0000
# 4 0.0000 0.0000 0.0000 19.2843 0.0000 0.0000
# 5 0.0000 0.0000 0.0000 0.0000 19.2843 0.0000
# 6 0.0000 0.0000 0.0000 0.0000 0.0000 17.6012
#
#
#
# Elastic Compliance Matrix: (Units=1/GPa)
#
#
# Indices 1 2 3 4 5 6 
#
# 1 0.018954 -0.009453 -0.003977 0.000000 0.000000 0.000000
# 2 -0.009453 0.018954 -0.003977 0.000000 0.000000 0.000000
# 3 -0.003977 -0.003977 0.016367 0.000000 0.000000 0.000000
# 4 0.000000 0.000000 0.000000 0.051856 0.000000 0.000000
# 5 0.000000 0.000000 0.000000 0.000000 0.051856 0.000000
# 6 0.000000 0.000000 0.000000 0.000000 0.000000 0.056814
#
#
# Mechanical properties :
#
#
# Convention : Reuss Voigt Hill
#
# Bulk Modulus (GPa) = 51.38008 52.14923 51.76465
# Shear Modulus (GPa) = 19.52342 19.99103 19.75722
#
# Velocity S-wave (km/s) = 3.34575 3.38559 3.36573
# Velocity P-wave (km/s) = 6.66221 6.72187 6.69211
#
# Compressibility (1/GPa) = 0.01946280
#
# Stress axis : x y z
#
# Youngs Moduli (GPa) = 52.75821 52.75821 61.09708
#
# Poissons Ratio (x) = 0.49871 0.24298
# Poissons Ratio (y) = 0.49871 0.24298
# Poissons Ratio (z) = 0.20982 0.20982
#
# Static dielectric constant tensor:
#      x y z
#    x 3.431910 0.000000 0.000000 
#    y 0.000000 3.431910 0.000000 
#    z 0.000000 0.000000 3.009370 
# 
# 
# High freq. dielectric constant tensor:
#      x y z
#    x 1.665920 0.000000 0.000000 
#    y 0.000000 1.665920 0.000000 
#    z 0.000000 0.000000 1.647060 
# 
# From -- ./inp_files/2393.got.cif
#   From: 2010.03.12/outbox.cif.g09.slc.cpg/sg191_2_cif.got.tgz:2393.got - 2010.04.01 12:09:02.
