data_PCOD8329914
_publ_section_title
;
Structure prediction by ZEFSAII (Michael W. Deem and Ramdas Pophale) SiO2 
 PCOD8329914
Probable space group: P 63/M C M
;
_chemical_formula_sum "Si O2"
_cell_formula_units_Z 168
_cell_length_a 21.251613
_cell_length_b 21.251613
_cell_length_c 25.514932
_cell_angle_alpha 90.000000
_cell_angle_beta 90.000000
_cell_angle_gamma 120.000000
_cell_volume 9979.501418
_symmetry_space_group_name_H-M "P 63/M C M"
_symmetry_group_IT_number 193
_symmetry_cell_setting 'hexagonal'
loop_
_space_group_symop_operation_xyz
x,y,z
x-y,x,1/2+z
-y,x-y,z
-x,-y,1/2+z
-x+y,-x,z
y,-x+y,1/2+z
x-y,-y,1/2-z
-x,-x+y,1/2-z
y,x,1/2-z
-y,-x,-z
-x+y,y,-z
x,x-y,-z
-x,-y,-z
-x+y,-x,1/2-z
y,-x+y,-z
x,y,1/2-z
x-y,x,-z
-y,x-y,1/2-z
-x+y,y,1/2+z
x,x-y,1/2+z
-y,-x,1/2+z
y,x,z
x-y,-y,z
-x,-x+y,z
loop_
_atom_site_type_symbol
_atom_site_label
_atom_site_fract_x
_atom_site_fract_y
_atom_site_fract_z
Si Si1 0.918125 0.278705 0.496343
Si Si2 0.421003 0.086062 0.808561
Si Si3 0.913797 0.406714 0.457987
Si Si4 0.555691 0.086681 0.845577
Si Si5 0.600689 0.914231 0.693263
Si Si6 0.917784 0.706612 0.889237
Si Si7 0.315495 0.085857 0.607883
O O1 0.879124 0.322491 0.475323
O O2 0.916795 0.226471 0.450719
O O3 0.883892 0.236272 0.550654
O O4 0.000000 0.337581 0.512060
O O5 0.417092 0.113651 0.750000
O O6 0.505782 0.118791 0.824144
O O7 0.380102 0.110419 0.849887
O O8 0.382408 0.000000 0.809207
O O9 0.889440 0.444720 0.500000
O O10 0.882400 0.416150 0.403509
O O11 0.000000 0.441876 0.452621
O O12 0.629585 0.115063 0.812150
O O13 0.507931 0.000000 0.845211
O O14 0.613621 0.887599 0.750000
O O15 0.633660 0.890818 0.645403
O O16 0.639814 0.000000 0.691437
O O17 0.857032 0.730083 0.879165
O O18 0.000000 0.769756 0.873326
O O19 0.258834 0.000000 0.609127
#
# Coordination Sequence:
#
# PCOD8329914 Si02
#       7
#    24  24  24  24  24  24  24
#     4   9  16  28  43  64  91 119 153 192 238 294
#     4   9  17  28  42  63  93 126 155 183 221 275
#     4   9  14  20  35  60  92 124 148 171 204 254
#     4   9  14  23  39  62  92 124 150 171 206 258
#     4   9  16  26  42  65  91 117 146 183 229 281
#     4  10  19  32  48  66  91 123 159 205 259 313
#     4  10  20  32  47  66  91 125 163 204 255 313
#
# _framework density 16.834509000000001
#
# number of rings (size 3 to 8) (size 9 to 14) (size 15 to 20)
#    0.000    2.714    1.429    1.714    0.000    5.714 
#    0.000    0.000    0.000    0.286    0.000    0.000 
#    1.429    3.429    1.143    7.143    0.000    0.000 
#
# Total GULP energy -2081206.598203 kJ/mol
# GULP energy per Si atom -12388.134513 kJ/mol
# Density = 1.679619 g / cm^3
# Si number density = 16.834509 Si / 1000 Ang^3
#
#
#
# Elastic Constant Matrix: (Units=GPa)
#
#
# Indices 1 2 3 4 5 6 
#
# 1 61.4441 32.3705 27.1976 0.0000 0.0000 0.0000
# 2 32.3705 61.4441 27.1976 0.0000 0.0000 0.0000
# 3 27.1976 27.1976 123.6631 0.0000 0.0000 0.0000
# 4 0.0000 0.0000 0.0000 7.8130 0.0000 0.0000
# 5 0.0000 0.0000 0.0000 0.0000 7.8130 0.0000
# 6 0.0000 0.0000 0.0000 0.0000 0.0000 14.5368
#
#
#
# Elastic Compliance Matrix: (Units=1/GPa)
#
#
# Indices 1 2 3 4 5 6 
#
# 1 0.023306 -0.011089 -0.002687 0.000000 0.000000 0.000000
# 2 -0.011089 0.023306 -0.002687 0.000000 0.000000 0.000000
# 3 -0.002687 -0.002687 0.009268 0.000000 0.000000 0.000000
# 4 0.000000 0.000000 0.000000 0.127992 0.000000 0.000000
# 5 0.000000 0.000000 0.000000 0.000000 0.127992 0.000000
# 6 0.000000 0.000000 0.000000 0.000000 0.000000 0.068791
#
#
# Mechanical properties :
#
#
# Convention : Reuss Voigt Hill
#
# Bulk Modulus (GPa) = 43.56345 46.67586 45.11966
# Shear Modulus (GPa) = 11.86988 16.68493 14.27740
#
# Velocity S-wave (km/s) = 2.65824 3.15161 2.91538
# Velocity P-wave (km/s) = 5.94603 6.40547 6.18002
#
# Compressibility (1/GPa) = 0.02295502
#
# Stress axis : x y z
#
# Youngs Moduli (GPa) = 42.90675 42.90675 107.89351
#
# Poissons Ratio (x) = 0.47580 0.28991
# Poissons Ratio (y) = 0.47580 0.28991
# Poissons Ratio (z) = 0.11529 0.11529
#
# Static dielectric constant tensor:
#      x y z
#    x 2.862060 0.000000 0.000000 
#    y 0.000000 2.862060 0.000000 
#    z 0.000000 0.000000 3.509710 
# 
# 
# High freq. dielectric constant tensor:
#      x y z
#    x 1.603080 0.000000 0.000000 
#    y 0.000000 1.603080 0.000000 
#    z 0.000000 0.000000 1.671420 
# 
# From -- ./inp_files/7725.got.cif
#   From: 2010.03.12/outbox.cif.g09.slc.cpg/sg193_4_cif.got.tgz:7725.got - 2010.04.01 12:20:39.
