data_PCOD8329556
_publ_section_title
;
Structure prediction by ZEFSAII (Michael W. Deem and Ramdas Pophale) SiO2 
 PCOD8329556
Probable space group: P 6/M C C
;
_chemical_formula_sum "Si O2"
_cell_formula_units_Z 144
_cell_length_a 19.665669
_cell_length_b 19.665669
_cell_length_c 22.365041
_cell_angle_alpha 90.000000
_cell_angle_beta 90.000000
_cell_angle_gamma 120.000000
_cell_volume 7490.620255
_symmetry_space_group_name_H-M "P 6/M C C"
_symmetry_group_IT_number 192
_symmetry_cell_setting 'hexagonal'
loop_
_space_group_symop_operation_xyz
x,y,z
x-y,x,z
-y,x-y,z
-x,-y,z
-x+y,-x,z
y,-x+y,z
x-y,-y,1/2-z
-x,-x+y,1/2-z
y,x,1/2-z
-y,-x,1/2-z
-x+y,y,1/2-z
x,x-y,1/2-z
-x,-y,-z
-x+y,-x,-z
y,-x+y,-z
x,y,-z
x-y,x,-z
-y,x-y,-z
-x+y,y,1/2+z
x,x-y,1/2+z
-y,-x,1/2+z
y,x,1/2+z
x-y,-y,1/2+z
-x,-x+y,1/2+z
loop_
_atom_site_type_symbol
_atom_site_label
_atom_site_fract_x
_atom_site_fract_y
_atom_site_fract_z
Si Si1 0.611840 0.497510 0.500000
Si Si2 0.087523 0.620130 0.734864
Si Si3 0.717638 0.035149 0.597520
Si Si4 0.300142 0.428271 0.614835
Si Si5 0.613074 0.844888 0.194268
Si Si6 0.162565 0.031194 0.931659
Si Si7 0.438142 0.066143 0.000000
O O1 0.667530 0.512946 0.557913
O O2 0.581143 0.558467 0.500000
O O3 0.533524 0.409926 0.500000
O O4 0.103805 0.551903 0.750000
O O5 0.097567 0.632040 0.664034
O O6 0.152107 0.694150 0.772286
O O7 0.000000 0.600525 0.750000
O O8 0.738133 0.070509 0.664403
O O9 0.798674 0.050246 0.570152
O O10 0.681687 0.079723 0.558664
O O11 0.658205 0.942036 0.597880
O O12 0.219934 0.419171 0.641593
O O13 0.657646 0.828823 0.250000
O O14 0.154334 0.101723 0.900762
O O15 0.139023 0.027066 0.000000
#
# Coordination Sequence:
#
# PCOD8329556 Si02
#       7
#    12  24  24  24  24  24  12
#     4   9  20  35  54  86 120 150 182 226 295 360
#     4  10  20  35  60  85 114 147 191 244 294 348
#     4  11  19  35  55  85 118 150 188 240 301 348
#     4  10  21  36  57  84 121 152 188 238 295 358
#     4  10  22  36  54  86 115 147 194 242 293 351
#     4  10  20  34  52  77 113 157 201 238 285 352
#     4   9  20  31  54  86 117 147 182 231 286 361
#
# _framework density 19.224043000000002
#
# number of rings (size 3 to 8) (size 9 to 14) (size 15 to 20)
#    0.000    2.000    2.500    1.167    2.333    2.667 
#    0.000    0.000    0.000    9.000    0.000    0.000 
#    0.000    0.000    0.000    0.000    0.000    0.000 
#
# Total GULP energy -1784550.319609 kJ/mol
# GULP energy per Si atom -12392.710553 kJ/mol
# Density = 1.918029 g / cm^3
# Si number density = 19.224043 Si / 1000 Ang^3
#
#
#
# Elastic Constant Matrix: (Units=GPa)
#
#
# Indices 1 2 3 4 5 6 
#
# 1 67.2950 42.8487 37.9538 0.0000 0.0000 0.0000
# 2 42.8487 67.2950 37.9538 0.0000 0.0000 0.0000
# 3 37.9538 37.9538 113.1818 0.0000 0.0000 0.0000
# 4 0.0000 0.0000 0.0000 27.7387 0.0000 0.0000
# 5 0.0000 0.0000 0.0000 0.0000 27.7387 0.0000
# 6 0.0000 0.0000 0.0000 0.0000 0.0000 12.2231
#
#
#
# Elastic Compliance Matrix: (Units=1/GPa)
#
#
# Indices 1 2 3 4 5 6 
#
# 1 0.026357 -0.014549 -0.003960 0.000000 0.000000 0.000000
# 2 -0.014549 0.026357 -0.003960 0.000000 0.000000 0.000000
# 3 -0.003960 -0.003960 0.011491 0.000000 0.000000 0.000000
# 4 0.000000 0.000000 0.000000 0.036051 0.000000 0.000000
# 5 0.000000 0.000000 0.000000 0.000000 0.036051 0.000000
# 6 0.000000 0.000000 0.000000 0.000000 0.000000 0.081812
#
#
# Mechanical properties :
#
#
# Convention : Reuss Voigt Hill
#
# Bulk Modulus (GPa) = 51.89869 53.92048 52.90958
# Shear Modulus (GPa) = 18.55443 22.14116 20.34779
#
# Velocity S-wave (km/s) = 3.11009 3.39742 3.25692
# Velocity P-wave (km/s) = 6.32078 6.59540 6.45955
#
# Compressibility (1/GPa) = 0.01926831
#
# Stress axis : x y z
#
# Youngs Moduli (GPa) = 37.94067 37.94067 87.02531
#
# Poissons Ratio (x) = 0.55200 0.34458
# Poissons Ratio (y) = 0.55200 0.34458
# Poissons Ratio (z) = 0.15023 0.15023
#
# Static dielectric constant tensor:
#      x y z
#    x 3.459920 0.000000 0.000000 
#    y 0.000000 3.459920 0.000000 
#    z 0.000000 0.000000 3.521310 
# 
# 
# High freq. dielectric constant tensor:
#      x y z
#    x 1.733670 0.000000 0.000000 
#    y 0.000000 1.733670 0.000000 
#    z 0.000000 0.000000 1.746920 
# 
# From -- ./inp_files/5172.got.cif
#   From: 2010.03.12/outbox.cif.g09.slc.cpg/sg192_3_cif.got.tgz:5172.got - 2010.04.01 12:16:15.
