data_PCOD8329950
_publ_section_title
;
Structure prediction by ZEFSAII (Michael W. Deem and Ramdas Pophale) SiO2 
 PCOD8329950
Probable space group: P 63/M C M
;
_chemical_formula_sum "Si O2"
_cell_formula_units_Z 144
_cell_length_a 30.090523
_cell_length_b 30.090523
_cell_length_c 8.968310
_cell_angle_alpha 90.000000
_cell_angle_beta 90.000000
_cell_angle_gamma 120.000000
_cell_volume 7032.353861
_symmetry_space_group_name_H-M "P 63/M C M"
_symmetry_group_IT_number 193
_symmetry_cell_setting 'hexagonal'
loop_
_space_group_symop_operation_xyz
x,y,z
x-y,x,1/2+z
-y,x-y,z
-x,-y,1/2+z
-x+y,-x,z
y,-x+y,1/2+z
x-y,-y,1/2-z
-x,-x+y,1/2-z
y,x,1/2-z
-y,-x,-z
-x+y,y,-z
x,x-y,-z
-x,-y,-z
-x+y,-x,1/2-z
y,-x+y,-z
x,y,1/2-z
x-y,x,-z
-y,x-y,1/2-z
-x+y,y,1/2+z
x,x-y,1/2+z
-y,-x,1/2+z
y,x,z
x-y,-y,z
-x,-x+y,z
loop_
_atom_site_type_symbol
_atom_site_label
_atom_site_fract_x
_atom_site_fract_y
_atom_site_fract_z
Si Si1 0.486818 0.427699 0.085001
Si Si2 0.697175 0.754755 0.913639
Si Si3 0.074910 0.401952 0.417261
Si Si4 0.060704 0.845452 0.573387
Si Si5 0.665303 0.421922 0.426592
Si Si6 0.465290 0.272588 0.912113
O O1 0.494853 0.410299 0.250000
O O2 0.468413 0.468413 0.106626
O O3 0.542232 0.457769 0.000000
O O4 0.442792 0.379323 0.996430
O O5 0.679855 0.765209 0.750000
O O6 0.740218 0.740218 0.883257
O O7 0.650453 0.705494 0.993536
O O8 0.726553 0.806375 0.013345
O O9 0.051162 0.391189 0.250000
O O10 0.134494 0.424474 0.407217
O O11 0.098174 0.901827 0.500000
O O12 0.069372 0.850097 0.750000
O O13 0.000000 0.824904 0.537336
O O14 0.609562 0.390439 0.500000
O O15 0.701213 0.402425 0.500000
O O16 0.662123 0.413986 0.250000
O O17 0.684805 0.480265 0.479683
O O18 0.478032 0.259944 0.750000
O O19 0.439036 0.219518 0.000000
#
# Coordination Sequence:
#
# PCOD8329950 Si02
#       6
#    24  24  24  24  24  24
#     4  10  21  37  56  79 107 140 180 226 279 340
#     4  10  21  37  57  83 115 151 193 240 288 339
#     4  11  22  36  55  80 109 142 183 231 284 344
#     4  10  21  38  62  93 128 167 210 255 304 356
#     4  10  19  33  51  71  93 118 151 192 242 300
#     4   9  21  38  53  71  97 129 165 205 251 306
#
# _framework density 20.476785
#
# number of rings (size 3 to 8) (size 9 to 14) (size 15 to 20)
#    0.000    2.000    0.000    3.167    0.000    8.333 
#    0.000    3.333    0.000    0.167    0.000    0.000 
#    0.000    0.000    0.000    0.000    0.000    0.000 
#
# Total GULP energy -1784070.545007 kJ/mol
# GULP energy per Si atom -12389.378785 kJ/mol
# Density = 2.043018 g / cm^3
# Si number density = 20.476785 Si / 1000 Ang^3
#
#
#
# Elastic Constant Matrix: (Units=GPa)
#
#
# Indices 1 2 3 4 5 6 
#
# 1 88.0317 30.3840 47.4290 0.0000 0.0000 0.0000
# 2 30.3840 88.0317 47.4290 0.0000 0.0000 0.0000
# 3 47.4290 47.4290 156.3488 0.0000 0.0000 0.0000
# 4 0.0000 0.0000 0.0000 29.5087 0.0000 0.0000
# 5 0.0000 0.0000 0.0000 0.0000 29.5087 0.0000
# 6 0.0000 0.0000 0.0000 0.0000 0.0000 28.8239
#
#
#
# Elastic Compliance Matrix: (Units=1/GPa)
#
#
# Indices 1 2 3 4 5 6 
#
# 1 0.014251 -0.003096 -0.003384 0.000000 0.000000 0.000000
# 2 -0.003096 0.014251 -0.003384 0.000000 0.000000 0.000000
# 3 -0.003384 -0.003384 0.008449 0.000000 0.000000 0.000000
# 4 0.000000 0.000000 0.000000 0.033888 0.000000 0.000000
# 5 0.000000 0.000000 0.000000 0.000000 0.033888 0.000000
# 6 0.000000 0.000000 0.000000 0.000000 0.000000 0.034693
#
#
# Mechanical properties :
#
#
# Convention : Reuss Voigt Hill
#
# Bulk Modulus (GPa) = 58.05838 64.76625 61.41232
# Shear Modulus (GPa) = 30.32317 31.37963 30.85140
#
# Velocity S-wave (km/s) = 3.85236 3.91890 3.88577
# Velocity P-wave (km/s) = 6.94280 7.22321 7.08439
#
# Compressibility (1/GPa) = 0.01722404
#
# Stress axis : x y z
#
# Youngs Moduli (GPa) = 70.16943 70.16943 118.35541
#
# Poissons Ratio (x) = 0.21721 0.40053
# Poissons Ratio (y) = 0.21721 0.40053
# Poissons Ratio (z) = 0.23746 0.23746
#
# Static dielectric constant tensor:
#      x y z
#    x 3.645840 0.000000 0.000000 
#    y 0.000000 3.645840 0.000000 
#    z 0.000000 0.000000 4.146750 
# 
# 
# High freq. dielectric constant tensor:
#      x y z
#    x 1.787820 0.000000 0.000000 
#    y 0.000000 1.787820 0.000000 
#    z 0.000000 0.000000 1.818580 
# 
# From -- ./inp_files/1524.got.cif
#   From: 2010.03.12/outbox.cif.g09.slc.cpg/sg193_1_cif.got.tgz:1524.got - 2010.04.01 12:20:39.
