data_PCOD8329721
_publ_section_title
;
Structure prediction by ZEFSAII (Michael W. Deem and Ramdas Pophale) SiO2 
 PCOD8329721
Probable space group: P 6/M C C
;
_chemical_formula_sum "Si O2"
_cell_formula_units_Z 108
_cell_length_a 17.793396
_cell_length_b 17.793396
_cell_length_c 20.197385
_cell_angle_alpha 90.000000
_cell_angle_beta 90.000000
_cell_angle_gamma 120.000000
_cell_volume 5537.879024
_symmetry_space_group_name_H-M "P 6/M C C"
_symmetry_group_IT_number 192
_symmetry_cell_setting 'hexagonal'
loop_
_space_group_symop_operation_xyz
x,y,z
x-y,x,z
-y,x-y,z
-x,-y,z
-x+y,-x,z
y,-x+y,z
x-y,-y,1/2-z
-x,-x+y,1/2-z
y,x,1/2-z
-y,-x,1/2-z
-x+y,y,1/2-z
x,x-y,1/2-z
-x,-y,-z
-x+y,-x,-z
y,-x+y,-z
x,y,-z
x-y,x,-z
-y,x-y,-z
-x+y,y,1/2+z
x,x-y,1/2+z
-y,-x,1/2+z
y,x,1/2+z
x-y,-y,1/2+z
-x,-x+y,1/2+z
loop_
_atom_site_type_symbol
_atom_site_label
_atom_site_fract_x
_atom_site_fract_y
_atom_site_fract_z
Si Si1 0.793097 0.896549 0.750000
Si Si2 0.670695 0.163753 0.322213
Si Si3 0.499865 0.159856 0.330607
Si Si4 0.689031 0.902454 0.873399
Si Si5 0.657769 0.735650 0.926075
O O1 0.854141 0.854141 0.750000
O O2 0.729880 0.875361 0.812609
O O3 0.581241 0.149761 0.353081
O O4 0.740919 0.263710 0.336788
O O5 0.657159 0.135163 0.245821
O O6 0.700484 0.101582 0.355629
O O7 0.419584 0.095095 0.376183
O O8 0.671283 0.832000 0.929723
O O9 0.748494 0.998496 0.901241
O O10 0.635547 0.695699 0.000000
#
# Coordination Sequence:
#
# PCOD8329721 Si02
#       5
#    12  24  24  24  24
#     4  12  23  40  66  94 124 148 190 260 326 379
#     4   9  18  33  59  87 117 150 194 253 298 350
#     4   9  18  34  56  86 117 153 196 242 304 350
#     4  11  22  38  60  86 113 153 197 245 309 364
#     4  11  23  40  58  80 115 160 203 242 295 375
#
# _framework density 19.502051000000002
#
# number of rings (size 3 to 8) (size 9 to 14) (size 15 to 20)
#    0.000    1.778    2.222    3.889    0.000    2.667 
#    0.000    8.889    0.000    0.000    0.000    3.111 
#    0.000    0.000    0.000    0.000    0.000    0.000 
#
# Total GULP energy -1338693.748599 kJ/mol
# GULP energy per Si atom -12395.312487 kJ/mol
# Density = 1.945766 g / cm^3
# Si number density = 19.502051 Si / 1000 Ang^3
#
#
#
# Elastic Constant Matrix: (Units=GPa)
#
#
# Indices 1 2 3 4 5 6 
#
# 1 105.6009 41.1666 36.6750 0.0000 0.0000 0.0000
# 2 41.1666 105.6009 36.6750 0.0000 0.0000 0.0000
# 3 36.6750 36.6750 89.0884 0.0000 0.0000 0.0000
# 4 0.0000 0.0000 0.0000 17.6667 0.0000 0.0000
# 5 0.0000 0.0000 0.0000 0.0000 17.6667 0.0000
# 6 0.0000 0.0000 0.0000 0.0000 0.0000 32.2171
#
#
#
# Elastic Compliance Matrix: (Units=1/GPa)
#
#
# Indices 1 2 3 4 5 6 
#
# 1 0.012049 -0.003471 -0.003531 0.000000 0.000000 0.000000
# 2 -0.003471 0.012049 -0.003531 0.000000 0.000000 0.000000
# 3 -0.003531 -0.003531 0.014132 0.000000 0.000000 0.000000
# 4 0.000000 0.000000 0.000000 0.056604 0.000000 0.000000
# 5 0.000000 0.000000 0.000000 0.000000 0.056604 0.000000
# 6 0.000000 0.000000 0.000000 0.000000 0.000000 0.031039
#
#
# Mechanical properties :
#
#
# Convention : Reuss Voigt Hill
#
# Bulk Modulus (GPa) = 58.26370 58.81372 58.53871
# Shear Modulus (GPa) = 23.89310 25.89502 24.89406
#
# Velocity S-wave (km/s) = 3.50402 3.64787 3.57667
# Velocity P-wave (km/s) = 6.80525 6.92573 6.86576
#
# Compressibility (1/GPa) = 0.01716335
#
# Stress axis : x y z
#
# Youngs Moduli (GPa) = 82.99407 82.99407 70.75933
#
# Poissons Ratio (x) = 0.28804 0.24988
# Poissons Ratio (y) = 0.28804 0.24988
# Poissons Ratio (z) = 0.29309 0.29309
#
# Static dielectric constant tensor:
#      x y z
#    x 3.584200 0.000000 0.000000 
#    y 0.000000 3.584200 0.000000 
#    z 0.000000 0.000000 3.347320 
# 
# 
# High freq. dielectric constant tensor:
#      x y z
#    x 1.763370 0.000000 0.000000 
#    y 0.000000 1.763370 0.000000 
#    z 0.000000 0.000000 1.736460 
# 
# From -- ./inp_files/4828.got.cif
#   From: 2010.03.12/outbox.cif.g09.slc.cpg/sg192_3_cif.got.tgz:4828.got - 2010.04.01 12:16:15.
