data_PCOD8329827
_publ_section_title
;
Structure prediction by ZEFSAII (Michael W. Deem and Ramdas Pophale) SiO2 
 PCOD8329827
Probable space group: P 63/M C M
;
_chemical_formula_sum "Si O2"
_cell_formula_units_Z 64
_cell_length_a 13.582482
_cell_length_b 13.582482
_cell_length_c 19.142852
_cell_angle_alpha 90.000000
_cell_angle_beta 90.000000
_cell_angle_gamma 120.000000
_cell_volume 3058.408906
_symmetry_space_group_name_H-M "P 63/M C M"
_symmetry_group_IT_number 193
_symmetry_cell_setting 'hexagonal'
loop_
_space_group_symop_operation_xyz
x,y,z
x-y,x,1/2+z
-y,x-y,z
-x,-y,1/2+z
-x+y,-x,z
y,-x+y,1/2+z
x-y,-y,1/2-z
-x,-x+y,1/2-z
y,x,1/2-z
-y,-x,-z
-x+y,y,-z
x,x-y,-z
-x,-y,-z
-x+y,-x,1/2-z
y,-x+y,-z
x,y,1/2-z
x-y,x,-z
-y,x-y,1/2-z
-x+y,y,1/2+z
x,x-y,1/2+z
-y,-x,1/2+z
y,x,z
x-y,-y,z
-x,-x+y,z
loop_
_atom_site_type_symbol
_atom_site_label
_atom_site_fract_x
_atom_site_fract_y
_atom_site_fract_z
Si Si1 0.331228 0.461724 0.468406
Si Si2 0.245712 0.375854 0.173538
Si Si3 0.805044 0.805044 0.170252
Si Si4 0.000000 0.000000 0.584086
O O1 0.414261 0.585740 0.500000
O O2 0.205870 0.411740 0.500000
O O3 0.375430 0.375430 0.488494
O O4 0.320424 0.470187 0.384512
O O5 0.277426 0.435246 0.250000
O O6 0.273283 0.273283 0.170637
O O7 0.110965 0.319025 0.159115
O O8 0.847590 0.847590 0.250000
O O9 0.889333 0.889333 0.112387
O O10 0.000000 0.000000 0.500000
#
# Coordination Sequence:
#
# PCOD8329827 Si02
#       4
#    24  24  12   4
#     4  10  22  40  62  87 120 161 203 256 318 374
#     4   9  18  33  55  81 115 159 204 250 303 369
#     4  10  18  32  50  74 116 167 209 251 308 374
#     4  12  22  26  40  78 118 161 217 255 295 374
#
# _framework density 20.925912
#
# number of rings (size 3 to 8) (size 9 to 14) (size 15 to 20)
#    0.000    2.250    1.875    0.938    2.625    1.500 
#    0.000    1.875    0.000    2.625    0.000    0.000 
#    0.000    0.000    0.000    0.000    0.000    0.000 
#
# Total GULP energy -793338.950074 kJ/mol
# GULP energy per Si atom -12395.921095 kJ/mol
# Density = 2.087828 g / cm^3
# Si number density = 20.925912 Si / 1000 Ang^3
#
#
#
# Elastic Constant Matrix: (Units=GPa)
#
#
# Indices 1 2 3 4 5 6 
#
# 1 78.4327 37.8068 60.3175 0.0000 0.0000 0.0000
# 2 37.8068 78.4327 60.3175 0.0000 0.0000 0.0000
# 3 60.3175 60.3175 179.7700 0.0000 0.0000 0.0000
# 4 0.0000 0.0000 0.0000 32.0199 0.0000 0.0000
# 5 0.0000 0.0000 0.0000 0.0000 32.0199 0.0000
# 6 0.0000 0.0000 0.0000 0.0000 0.0000 20.3130
#
#
#
# Elastic Compliance Matrix: (Units=1/GPa)
#
#
# Indices 1 2 3 4 5 6 
#
# 1 0.018907 -0.005708 -0.004429 0.000000 0.000000 0.000000
# 2 -0.005708 0.018907 -0.004429 0.000000 0.000000 0.000000
# 3 -0.004429 -0.004429 0.008534 0.000000 0.000000 0.000000
# 4 0.000000 0.000000 0.000000 0.031231 0.000000 0.000000
# 5 0.000000 0.000000 0.000000 0.000000 0.031231 0.000000
# 6 0.000000 0.000000 0.000000 0.000000 0.000000 0.049230
#
#
# Mechanical properties :
#
#
# Convention : Reuss Voigt Hill
#
# Bulk Modulus (GPa) = 58.07857 72.61323 65.34590
# Shear Modulus (GPa) = 25.91900 28.75013 27.33456
#
# Velocity S-wave (km/s) = 3.52320 3.71064 3.61813
# Velocity P-wave (km/s) = 6.66073 7.28930 6.98209
#
# Compressibility (1/GPa) = 0.01721805
#
# Stress axis : x y z
#
# Youngs Moduli (GPa) = 52.89075 52.89075 117.17164
#
# Poissons Ratio (x) = 0.30190 0.51891
# Poissons Ratio (y) = 0.30190 0.51891
# Poissons Ratio (z) = 0.23423 0.23423
#
# Static dielectric constant tensor:
#      x y z
#    x 3.448000 0.000000 0.000000 
#    y 0.000000 3.448000 0.000000 
#    z 0.000000 0.000000 4.094270 
# 
# 
# High freq. dielectric constant tensor:
#      x y z
#    x 1.789430 0.000000 0.000000 
#    y 0.000000 1.789430 0.000000 
#    z 0.000000 0.000000 1.835390 
# 
# From -- ./inp_files/4752.got.cif
#   From: 2010.03.12/outbox.cif.g09.slc.cpg/sg193_3_cif.got.tgz:4752.got - 2010.04.01 12:20:39.
