data_PCOD8329957
_publ_section_title
;
Structure prediction by ZEFSAII (Michael W. Deem and Ramdas Pophale) SiO2 
 PCOD8329957
Probable space group: P 63/M C M
;
_chemical_formula_sum "Si O2"
_cell_formula_units_Z 156
_cell_length_a 20.828333
_cell_length_b 20.828333
_cell_length_c 21.948201
_cell_angle_alpha 90.000000
_cell_angle_beta 90.000000
_cell_angle_gamma 120.000000
_cell_volume 8245.909906
_symmetry_space_group_name_H-M "P 63/M C M"
_symmetry_group_IT_number 193
_symmetry_cell_setting 'hexagonal'
loop_
_space_group_symop_operation_xyz
x,y,z
x-y,x,1/2+z
-y,x-y,z
-x,-y,1/2+z
-x+y,-x,z
y,-x+y,1/2+z
x-y,-y,1/2-z
-x,-x+y,1/2-z
y,x,1/2-z
-y,-x,-z
-x+y,y,-z
x,x-y,-z
-x,-y,-z
-x+y,-x,1/2-z
y,-x+y,-z
x,y,1/2-z
x-y,x,-z
-y,x-y,1/2-z
-x+y,y,1/2+z
x,x-y,1/2+z
-y,-x,1/2+z
y,x,z
x-y,-y,z
-x,-x+y,z
loop_
_atom_site_type_symbol
_atom_site_label
_atom_site_fract_x
_atom_site_fract_y
_atom_site_fract_z
Si Si1 0.522048 0.837034 0.650428
Si Si2 0.083297 0.302726 0.819612
Si Si3 0.917944 0.227900 0.179618
Si Si4 0.334693 0.421556 0.410173
Si Si5 0.086751 0.564374 0.315815
Si Si6 0.668155 0.188866 0.511810
Si Si7 0.272465 0.700811 0.750000
O O1 0.609635 0.872745 0.650223
O O2 0.501648 0.895623 0.677886
O O3 0.498582 0.822250 0.581693
O O4 0.479297 0.760998 0.689857
O O5 0.093421 0.334702 0.750000
O O6 0.139136 0.270940 0.830712
O O7 0.100898 0.365645 0.869607
O O8 0.000000 0.234948 0.828458
O O9 0.927600 0.248423 0.250000
O O10 0.000000 0.259678 0.150083
O O11 0.385108 0.385108 0.427248
O O12 0.376776 0.496926 0.370346
O O13 0.311646 0.447058 0.471877
O O14 0.115415 0.603494 0.250000
O O15 0.000000 0.531129 0.319101
O O16 0.725036 0.274965 0.500000
O O17 0.584487 0.168974 0.500000
O O18 0.250171 0.612803 0.750000
#
# Coordination Sequence:
#
# PCOD8329957 Si02
#       7
#    24  24  24  24  24  24  12
#     4  12  22  39  58  80 110 151 192 247 291 349
#     4   9  18  35  61  90 116 148 191 240 287 336
#     4  10  20  35  57  88 120 149 183 230 290 348
#     4  10  21  39  58  81 110 143 189 237 289 347
#     4  10  19  33  56  84 109 136 177 236 294 345
#     4  12  27  41  55  75 108 153 197 240 295 355
#     4  10  26  40  57  80 106 144 201 254 304 338
#
# _framework density 18.918471
#
# number of rings (size 3 to 8) (size 9 to 14) (size 15 to 20)
#    0.154    1.385    3.077    2.000    2.154    5.846 
#    0.000    0.000    0.000    0.308    0.000    2.154 
#    0.000    0.000    0.000    0.000    0.000   18.769 
#
# Total GULP energy -1933588.676657 kJ/mol
# GULP energy per Si atom -12394.799209 kJ/mol
# Density = 1.887541 g / cm^3
# Si number density = 18.918471 Si / 1000 Ang^3
#
#
#
# Elastic Constant Matrix: (Units=GPa)
#
#
# Indices 1 2 3 4 5 6 
#
# 1 94.7837 43.3439 32.4435 0.0000 0.0000 0.0000
# 2 43.3439 94.7837 32.4435 0.0000 0.0000 0.0000
# 3 32.4435 32.4435 118.1699 0.0000 0.0000 0.0000
# 4 0.0000 0.0000 0.0000 14.1328 0.0000 0.0000
# 5 0.0000 0.0000 0.0000 0.0000 14.1328 0.0000
# 6 0.0000 0.0000 0.0000 0.0000 0.0000 25.7199
#
#
#
# Elastic Compliance Matrix: (Units=1/GPa)
#
#
# Indices 1 2 3 4 5 6 
#
# 1 0.013876 -0.005564 -0.002282 0.000000 0.000000 0.000000
# 2 -0.005564 0.013876 -0.002282 0.000000 0.000000 0.000000
# 3 -0.002282 -0.002282 0.009715 0.000000 0.000000 0.000000
# 4 0.000000 0.000000 0.000000 0.070757 0.000000 0.000000
# 5 0.000000 0.000000 0.000000 0.000000 0.070757 0.000000
# 6 0.000000 0.000000 0.000000 0.000000 0.000000 0.038880
#
#
# Mechanical properties :
#
#
# Convention : Reuss Voigt Hill
#
# Bulk Modulus (GPa) = 58.10277 58.24435 58.17356
# Shear Modulus (GPa) = 20.50395 24.09753 22.30074
#
# Velocity S-wave (km/s) = 3.29569 3.57285 3.43706
# Velocity P-wave (km/s) = 6.72763 6.91912 6.82404
#
# Compressibility (1/GPa) = 0.01721088
#
# Stress axis : x y z
#
# Youngs Moduli (GPa) = 72.06724 72.06724 102.92914
#
# Poissons Ratio (x) = 0.40100 0.23488
# Poissons Ratio (y) = 0.40100 0.23488
# Poissons Ratio (z) = 0.16446 0.16446
#
# Static dielectric constant tensor:
#      x y z
#    x 3.983750 0.000000 0.000000 
#    y 0.000000 3.983750 0.000000 
#    z 0.000000 0.000000 3.551840 
# 
# 
# High freq. dielectric constant tensor:
#      x y z
#    x 1.724570 0.000000 0.000000 
#    y 0.000000 1.724570 0.000000 
#    z 0.000000 0.000000 1.732380 
# 
# From -- ./inp_files/6729.got.cif
#   From: 2010.03.12/outbox.cif.g09.slc.cpg/sg193_4_cif.got.tgz:6729.got - 2010.04.01 12:20:39.
