data_PCOD8329907
_publ_section_title
;
Structure prediction by ZEFSAII (Michael W. Deem and Ramdas Pophale) SiO2 
 PCOD8329907
Probable space group: P 63/M C M
;
_chemical_formula_sum "Si O2"
_cell_formula_units_Z 152
_cell_length_a 24.071794
_cell_length_b 24.071794
_cell_length_c 17.462547
_cell_angle_alpha 90.000000
_cell_angle_beta 90.000000
_cell_angle_gamma 120.000000
_cell_volume 8763.046900
_symmetry_space_group_name_H-M "P 63/M C M"
_symmetry_group_IT_number 193
_symmetry_cell_setting 'hexagonal'
loop_
_space_group_symop_operation_xyz
x,y,z
x-y,x,1/2+z
-y,x-y,z
-x,-y,1/2+z
-x+y,-x,z
y,-x+y,1/2+z
x-y,-y,1/2-z
-x,-x+y,1/2-z
y,x,1/2-z
-y,-x,-z
-x+y,y,-z
x,x-y,-z
-x,-y,-z
-x+y,-x,1/2-z
y,-x+y,-z
x,y,1/2-z
x-y,x,-z
-y,x-y,1/2-z
-x+y,y,1/2+z
x,x-y,1/2+z
-y,-x,1/2+z
y,x,z
x-y,-y,z
-x,-x+y,z
loop_
_atom_site_type_symbol
_atom_site_label
_atom_site_fract_x
_atom_site_fract_y
_atom_site_fract_z
Si Si1 0.320814 0.835673 0.426253
Si Si2 0.342446 0.268283 0.600702
Si Si3 0.852196 0.191014 0.837100
Si Si4 0.604289 0.195107 0.161824
Si Si5 0.810031 0.285000 0.600817
Si Si6 0.185485 0.256762 0.032937
Si Si7 0.666667 0.333334 0.091552
O O1 0.317158 0.898869 0.404968
O O2 0.387133 0.846949 0.388752
O O3 0.264779 0.769127 0.390498
O O4 0.316655 0.827632 0.517140
O O5 0.305661 0.305661 0.629812
O O6 0.333299 0.212125 0.658646
O O7 0.316628 0.236752 0.517731
O O8 0.871882 0.209434 0.750000
O O9 0.847801 0.248288 0.878340
O O10 0.909841 0.188719 0.879831
O O11 0.585537 0.197182 0.250000
O O12 0.654502 0.168847 0.157582
O O13 0.643885 0.263678 0.122963
O O14 0.197799 0.197799 0.030619
O O15 0.114663 0.229325 0.000000
O O16 0.666668 0.333334 0.000000
#
# Coordination Sequence:
#
# PCOD8329907 Si02
#       7
#    24  24  24  24  24  24   8
#     4  10  19  32  53  71  94 131 175 210 259 318
#     4   9  18  34  55  76 101 135 176 218 255 300
#     4  10  19  31  51  80 109 136 168 211 264 310
#     4  12  23  32  47  70  99 130 167 219 274 325
#     4  10  19  33  49  69  99 133 167 211 259 323
#     4   9  17  33  56  81 109 141 176 210 248 296
#     4  12  22  35  46  66  94 134 172 213 268 332
#
# _framework density 17.345565000000001
#
# number of rings (size 3 to 8) (size 9 to 14) (size 15 to 20)
#    0.000    1.895    3.158    2.368    0.000    3.158 
#    0.000    0.000    0.000    3.000    0.000    0.000 
#    0.000    0.000    0.000    0.474    0.000    0.000 
#
# Total GULP energy -1884002.023727 kJ/mol
# GULP energy per Si atom -12394.750156 kJ/mol
# Density = 1.730609 g / cm^3
# Si number density = 17.345565 Si / 1000 Ang^3
#
#
#
# Elastic Constant Matrix: (Units=GPa)
#
#
# Indices 1 2 3 4 5 6 
#
# 1 93.1578 50.2895 32.6310 -0.0002 -0.0001 0.0001
# 2 50.2895 93.1581 32.6313 0.0000 0.0001 0.0001
# 3 32.6310 32.6313 105.6449 -0.0003 0.0004 0.0001
# 4 -0.0002 0.0000 -0.0003 11.5321 0.0015 -0.0001
# 5 -0.0001 0.0001 0.0004 0.0015 11.5328 0.0001
# 6 0.0001 0.0001 0.0001 -0.0001 0.0001 21.4343
#
#
#
# Elastic Compliance Matrix: (Units=1/GPa)
#
#
# Indices 1 2 3 4 5 6 
#
# 1 0.015719 -0.007608 -0.002505 0.000000 0.000000 0.000000
# 2 -0.007608 0.015719 -0.002505 0.000000 0.000000 0.000000
# 3 -0.002505 -0.002505 0.011013 0.000000 0.000000 0.000000
# 4 0.000000 0.000000 0.000000 0.086715 -0.000011 0.000000
# 5 0.000000 0.000000 0.000000 -0.000011 0.086709 0.000000
# 6 0.000000 0.000000 0.000000 0.000000 0.000000 0.046654
#
#
# Mechanical properties :
#
#
# Convention : Reuss Voigt Hill
#
# Bulk Modulus (GPa) = 58.09174 58.11825 58.10500
# Shear Modulus (GPa) = 17.03551 20.66046 18.84798
#
# Velocity S-wave (km/s) = 3.13729 3.45499 3.29996
# Velocity P-wave (km/s) = 6.83279 7.03525 6.93476
#
# Compressibility (1/GPa) = 0.01721415
#
# Stress axis : x y z
#
# Youngs Moduli (GPa) = 63.61696 63.61705 90.79917
#
# Poissons Ratio (x) = 0.48400 0.22748
# Poissons Ratio (y) = 0.48400 0.22748
# Poissons Ratio (z) = 0.15938 0.15938
#
# Static dielectric constant tensor:
#      x y z
#    x 3.121710 0.000000 0.000000 
#    y 0.000000 3.121710 0.000000 
#    z 0.000000 0.000000 3.142030 
# 
# 
# High freq. dielectric constant tensor:
#      x y z
#    x 1.647560 0.000000 0.000000 
#    y 0.000000 1.647560 0.000000 
#    z 0.000000 0.000000 1.669500 
# 
# From -- ./inp_files/4333.got.cif
#   From: 2010.03.12/outbox.cif.g09.slc.cpg/sg193_3_cif.got.tgz:4333.got - 2010.04.01 12:20:39.
