data_PCOD8329188
_publ_section_title
;
Structure prediction by ZEFSAII (Michael W. Deem and Ramdas Pophale) SiO2 
 PCOD8329188
Probable space group: P 6/M M M
;
_chemical_formula_sum "Si O2"
_cell_formula_units_Z 168
_cell_length_a 29.890391
_cell_length_b 29.890391
_cell_length_c 11.992826
_cell_angle_alpha 90.000000
_cell_angle_beta 90.000000
_cell_angle_gamma 120.000000
_cell_volume 9279.303012
_symmetry_space_group_name_H-M "P 6/M M M"
_symmetry_group_IT_number 191
_symmetry_cell_setting 'hexagonal'
loop_
_space_group_symop_operation_xyz
x,y,z
x-y,x,z
-y,x-y,z
-x,-y,z
-x+y,-x,z
y,-x+y,z
x-y,-y,-z
-x,-x+y,-z
y,x,-z
-y,-x,-z
-x+y,y,-z
x,x-y,-z
-x,-y,-z
-x+y,-x,-z
y,-x+y,-z
x,y,-z
x-y,x,-z
-y,x-y,-z
-x+y,y,z
x,x-y,z
-y,-x,z
y,x,z
x-y,-y,z
-x,-x+y,z
loop_
_atom_site_type_symbol
_atom_site_label
_atom_site_fract_x
_atom_site_fract_y
_atom_site_fract_z
Si Si1 0.475475 0.850965 0.500000
Si Si2 0.410895 0.354324 0.500000
Si Si3 0.701540 0.502874 0.681367
Si Si4 0.785639 0.942261 0.132441
Si Si5 0.686142 0.095832 0.729176
Si Si6 0.581998 0.520942 0.871239
Si Si7 0.568060 0.233914 0.876258
Si Si8 0.115077 0.782550 0.868766
O O1 0.434894 0.869788 0.500000
O O2 0.529186 0.903137 0.500000
O O3 0.467698 0.815610 0.606432
O O4 0.404078 0.404078 0.500000
O O5 0.385658 0.323864 0.616569
O O6 0.749598 0.499196 0.633499
O O7 0.715810 0.561838 0.682055
O O8 0.688124 0.484020 0.807720
O O9 0.803428 0.901714 0.175502
O O10 0.726654 0.921676 0.169053
O O11 0.822949 0.000000 0.181686
O O12 0.788254 0.944083 0.000000
O O13 0.632866 0.084893 0.791743
O O14 0.726842 0.091837 0.809570
O O15 0.539130 0.460871 0.837514
O O16 0.555223 0.555223 0.858769
O O17 0.598875 0.521606 0.000000
O O18 0.612098 0.224196 0.825398
O O19 0.590253 0.295127 0.875144
O O20 0.553364 0.211053 0.000000
O O21 0.174909 0.825092 0.838570
O O22 0.110734 0.771650 0.000000
#
# Coordination Sequence:
#
# PCOD8329188 Si02
#       8
#    12  12  24  24  24  24  24  24
#     4  10  21  38  60  77  88 113 155 197 241 296
#     4  10  24  40  52  73 102 129 163 208 251 295
#     4  10  21  35  50  70  95 119 147 189 236 281
#     4   8  14  25  42  67 100 136 172 210 252 294
#     4  11  21  35  54  73  95 132 171 201 245 306
#     4   9  19  35  53  75 102 128 158 204 262 318
#     4   9  17  29  45  65  90 119 148 179 221 277
#     4   9  18  32  51  78 108 134 167 215 265 311
#
# _framework density 18.104808999999999
#
# number of rings (size 3 to 8) (size 9 to 14) (size 15 to 20)
#    0.000    2.571    0.000    3.357    0.000    5.857 
#    0.000    5.357    0.000    2.143    0.000    1.000 
#    0.000    0.000    0.000    0.000    0.000    0.000 
#
# Total GULP energy -2081210.423120 kJ/mol
# GULP energy per Si atom -12388.157280 kJ/mol
# Density = 1.806360 g / cm^3
# Si number density = 18.104809 Si / 1000 Ang^3
#
#
#
# Elastic Constant Matrix: (Units=GPa)
#
#
# Indices 1 2 3 4 5 6 
#
# 1 97.8449 56.7129 35.8318 0.0000 0.0000 0.0000
# 2 56.7129 97.8449 35.8318 0.0000 0.0000 0.0000
# 3 35.8318 35.8318 80.7245 0.0000 0.0000 0.0000
# 4 0.0000 0.0000 0.0000 16.0709 0.0000 0.0000
# 5 0.0000 0.0000 0.0000 0.0000 16.0709 0.0000
# 6 0.0000 0.0000 0.0000 0.0000 0.0000 20.5660
#
#
#
# Elastic Compliance Matrix: (Units=1/GPa)
#
#
# Indices 1 2 3 4 5 6 
#
# 1 0.016229 -0.008083 -0.003616 0.000000 0.000000 0.000000
# 2 -0.008083 0.016229 -0.003616 0.000000 0.000000 0.000000
# 3 -0.003616 -0.003616 0.015598 0.000000 0.000000 0.000000
# 4 0.000000 0.000000 0.000000 0.062224 0.000000 0.000000
# 5 0.000000 0.000000 0.000000 0.000000 0.062224 0.000000
# 6 0.000000 0.000000 0.000000 0.000000 0.000000 0.048624
#
#
# Mechanical properties :
#
#
# Convention : Reuss Voigt Hill
#
# Bulk Modulus (GPa) = 57.38237 59.24081 58.31159
# Shear Modulus (GPa) = 19.41232 20.41074 19.91153
#
# Velocity S-wave (km/s) = 3.27803 3.36127 3.31991
# Velocity P-wave (km/s) = 6.78901 6.91782 6.85372
#
# Compressibility (1/GPa) = 0.01742696
#
# Stress axis : x y z
#
# Youngs Moduli (GPa) = 61.61672 61.61672 64.11043
#
# Poissons Ratio (x) = 0.49802 0.23183
# Poissons Ratio (y) = 0.49802 0.23183
# Poissons Ratio (z) = 0.22282 0.22282
#
# Static dielectric constant tensor:
#      x y z
#    x 3.424260 0.000000 0.000000 
#    y 0.000000 3.424260 0.000000 
#    z 0.000000 0.000000 3.367190 
# 
# 
# High freq. dielectric constant tensor:
#      x y z
#    x 1.693700 0.000000 0.000000 
#    y 0.000000 1.693700 0.000000 
#    z 0.000000 0.000000 1.683230 
# 
# From -- ./inp_files/3659.got.cif
#   From: 2010.03.12/outbox.cif.g09.slc.cpg/sg191_2_cif.got.tgz:3659.got - 2010.04.01 12:09:02.
