data_PCOD8329132
_publ_section_title
;
Structure prediction by ZEFSAII (Michael W. Deem and Ramdas Pophale) SiO2 
 PCOD8329132
Probable space group: P 6/M M M
;
_chemical_formula_sum "Si O2"
_cell_formula_units_Z 112
_cell_length_a 21.751092
_cell_length_b 21.751092
_cell_length_c 14.071457
_cell_angle_alpha 90.000000
_cell_angle_beta 90.000000
_cell_angle_gamma 120.000000
_cell_volume 5765.431681
_symmetry_space_group_name_H-M "P 6/M M M"
_symmetry_group_IT_number 191
_symmetry_cell_setting 'hexagonal'
loop_
_space_group_symop_operation_xyz
x,y,z
x-y,x,z
-y,x-y,z
-x,-y,z
-x+y,-x,z
y,-x+y,z
x-y,-y,-z
-x,-x+y,-z
y,x,-z
-y,-x,-z
-x+y,y,-z
x,x-y,-z
-x,-y,-z
-x+y,-x,-z
y,-x+y,-z
x,y,-z
x-y,x,-z
-y,x-y,-z
-x+y,y,z
x,x-y,z
-y,-x,z
y,x,z
x-y,-y,z
-x,-x+y,z
loop_
_atom_site_type_symbol
_atom_site_label
_atom_site_fract_x
_atom_site_fract_y
_atom_site_fract_z
Si Si1 0.587616 0.412385 0.888059
Si Si2 0.084237 0.400583 0.608491
Si Si3 0.666667 0.333333 0.113242
Si Si4 0.918472 0.697186 0.110981
Si Si5 0.156070 0.078035 0.385999
Si Si6 0.546906 0.700524 0.209034
Si Si7 0.154439 0.845562 0.389804
O O1 0.627212 0.372789 0.846488
O O2 0.633063 0.493077 0.853115
O O3 0.586003 0.413998 0.000000
O O4 0.106800 0.428261 0.500000
O O5 0.126301 0.462052 0.685759
O O6 0.111658 0.347338 0.640025
O O7 0.000000 0.363291 0.619235
O O8 0.666667 0.333334 0.000000
O O9 0.861801 0.723602 0.135929
O O10 0.897148 0.625290 0.168247
O O11 0.000000 0.757049 0.137015
O O12 0.912851 0.678227 0.000000
O O13 0.116742 0.116742 0.344493
O O14 0.156712 0.078356 0.500000
O O15 0.233403 0.116702 0.338755
O O16 0.528499 0.764250 0.210143
O O17 0.147399 0.852602 0.500000
#
# Coordination Sequence:
#
# PCOD8329132 Si02
#       7
#    12  24   4  24  12  24  12
#     4  11  22  38  61  93 124 151 181 223 287 361
#     4  10  20  35  55  79 110 148 194 248 297 339
#     4   9  18  33  57  87 121 146 175 216 270 354
#     4   9  18  33  54  81 113 149 190 237 291 351
#     4   9  15  22  34  57  93 135 178 227 288 353
#     4  11  21  35  58  86 117 153 190 237 285 345
#     4   9  16  28  47  72  96 131 185 245 298 338
#
# _framework density 19.426127000000001
#
# number of rings (size 3 to 8) (size 9 to 14) (size 15 to 20)
#    0.000    2.143    2.143    2.036    0.000    3.857 
#    0.000    2.679    0.000    5.357    0.000    1.500 
#    0.000    0.000    0.000    0.000    0.000    0.000 
#
# Total GULP energy -1387713.687595 kJ/mol
# GULP energy per Si atom -12390.300782 kJ/mol
# Density = 1.938191 g / cm^3
# Si number density = 19.426127 Si / 1000 Ang^3
#
#
#
# Elastic Constant Matrix: (Units=GPa)
#
#
# Indices 1 2 3 4 5 6 
#
# 1 88.7659 43.2811 46.9013 0.0000 0.0000 0.0001
# 2 43.2811 88.7660 46.9013 0.0000 0.0000 -0.0001
# 3 46.9013 46.9013 96.0948 0.0000 0.0000 -0.0001
# 4 0.0000 0.0000 0.0000 26.9966 0.0000 0.0000
# 5 0.0000 0.0000 0.0000 0.0000 26.9966 0.0000
# 6 0.0001 -0.0001 -0.0001 0.0000 0.0000 22.7424
#
#
#
# Elastic Compliance Matrix: (Units=1/GPa)
#
#
# Indices 1 2 3 4 5 6 
#
# 1 0.016789 -0.005197 -0.005658 0.000000 0.000000 0.000000
# 2 -0.005197 0.016789 -0.005658 0.000000 0.000000 0.000000
# 3 -0.005658 -0.005658 0.015929 0.000000 0.000000 0.000000
# 4 0.000000 0.000000 0.000000 0.037042 0.000000 0.000000
# 5 0.000000 0.000000 0.000000 0.000000 0.037042 0.000000
# 6 0.000000 0.000000 0.000000 0.000000 0.000000 0.043971
#
#
# Mechanical properties :
#
#
# Convention : Reuss Voigt Hill
#
# Bulk Modulus (GPa) = 60.67103 60.86601 60.76852
# Shear Modulus (GPa) = 24.26247 24.44999 24.35623
#
# Velocity S-wave (km/s) = 3.53790 3.55154 3.54473
# Velocity P-wave (km/s) = 6.92737 6.94392 6.93565
#
# Compressibility (1/GPa) = 0.01648233
#
# Stress axis : x y z
#
# Youngs Moduli (GPa) = 59.56351 59.56359 62.77748
#
# Poissons Ratio (x) = 0.30953 0.35519
# Poissons Ratio (y) = 0.30953 0.35519
# Poissons Ratio (z) = 0.33700 0.33700
#
# Static dielectric constant tensor:
#      x y z
#    x 3.535370 0.000000 0.000000 
#    y 0.000000 3.535370 0.000000 
#    z 0.000000 0.000000 3.666170 
# 
# 
# High freq. dielectric constant tensor:
#      x y z
#    x 1.741730 0.000000 0.000000 
#    y 0.000000 1.741730 0.000000 
#    z 0.000000 0.000000 1.759540 
# 
# From -- ./inp_files/4455.got.cif
#   From: 2010.03.12/outbox.cif.g09.slc.cpg/sg191_3_cif.got.tgz:4455.got - 2010.04.01 12:09:02.
