data_PCOD8329346
_publ_section_title
;
Structure prediction by ZEFSAII (Michael W. Deem and Ramdas Pophale) SiO2 
 PCOD8329346
Probable space group: P 6/M M M
;
_chemical_formula_sum "Si O2"
_cell_formula_units_Z 132
_cell_length_a 27.000000
_cell_length_b 27.000000
_cell_length_c 15.000000
_cell_angle_alpha 90.000000
_cell_angle_beta 90.000000
_cell_angle_gamma 120.000000
_cell_volume 9469.987790
_symmetry_space_group_name_H-M "P 6/M M M"
_symmetry_group_IT_number 191
_symmetry_cell_setting 'hexagonal'
loop_
_space_group_symop_operation_xyz
x,y,z
x-y,x,z
-y,x-y,z
-x,-y,z
-x+y,-x,z
y,-x+y,z
x-y,-y,-z
-x,-x+y,-z
y,x,-z
-y,-x,-z
-x+y,y,-z
x,x-y,-z
-x,-y,-z
-x+y,-x,-z
y,-x+y,-z
x,y,-z
x-y,x,-z
-y,x-y,-z
-x+y,y,z
x,x-y,z
-y,-x,z
y,x,z
x-y,-y,z
-x,-x+y,z
loop_
_atom_site_type_symbol
_atom_site_label
_atom_site_fract_x
_atom_site_fract_y
_atom_site_fract_z
Si Si1 0.268671 0.860938 0.000000
Si Si2 0.242331 0.869594 0.779962
Si Si3 0.816403 0.748785 0.302274
Si Si4 0.489738 0.699676 0.000000
Si Si5 0.218932 0.550560 0.216704
Si Si6 0.712631 0.539684 0.383254
Si Si7 0.234569 0.171670 0.500000
O O1 0.247227 0.873637 0.091845
O O2 0.187319 0.812682 0.000000
O O3 0.326383 0.859725 0.000000
O O4 0.194322 0.805679 0.792292
O O5 0.221013 0.915143 0.762317
O O6 0.280278 0.873503 0.694825
O O7 0.884996 0.769991 0.285903
O O8 0.797329 0.797329 0.281860
O O9 0.802294 0.729830 0.407422
O O10 0.479109 0.677335 0.878585
O O11 0.444348 0.722174 0.000000
O O12 0.284451 0.568902 0.236967
O O13 0.209679 0.604840 0.226735
O O14 0.186232 0.511849 0.317446
O O15 0.696082 0.540547 0.500000
O O16 0.777118 0.554235 0.392453
O O17 0.180015 0.180015 0.500000
O O18 0.207763 0.103882 0.500000
#
# Coordination Sequence:
#
# PCOD8329346 Si02
#       7
#    12  24  24  12  24  24  12
#     4   9  14  25  42  60  79 105 140 175 219 273
#     4   9  16  26  43  62  82 110 142 177 219 267
#     4   9  17  28  43  66  94 124 154 183 216 253
#     4   9  15  25  39  54  75 103 140 184 229 270
#     4  10  18  27  38  54  78 111 149 187 224 264
#     4   9  17  27  39  56  78 107 143 181 224 272
#     4   8  14  24  38  57  84 116 147 177 207 241
#
# _framework density 13.938772
#
# number of rings (size 3 to 8) (size 9 to 14) (size 15 to 20)
#    0.000    2.909    1.818    0.455    1.273    0.364 
#    0.000    1.364    0.000    1.364    0.000    2.545 
#    0.000    0.727    0.000    3.273    0.000   11.091 
#
# Total GULP energy -1637968.378171 kJ/mol
# GULP energy per Si atom -12408.851350 kJ/mol
# Density = 1.390705 g / cm^3
# Si number density = 13.938772 Si / 1000 Ang^3
#
#
#
# Elastic Constant Matrix: (Units=GPa)
#
#
# Indices 1 2 3 4 5 6 
#
# 1 53.8262 18.7663 13.3982 0.0000 0.0000 0.0000
# 2 18.7663 53.8262 13.3982 0.0000 0.0000 0.0000
# 3 13.3982 13.3982 99.5972 0.0000 0.0000 0.0000
# 4 0.0000 0.0000 0.0000 25.4664 0.0000 0.0000
# 5 0.0000 0.0000 0.0000 0.0000 25.4664 0.0000
# 6 0.0000 0.0000 0.0000 0.0000 0.0000 17.5300
#
#
#
# Elastic Compliance Matrix: (Units=1/GPa)
#
#
# Indices 1 2 3 4 5 6 
#
# 1 0.021509 -0.007014 -0.001950 0.000000 0.000000 0.000000
# 2 -0.007014 0.021509 -0.001950 0.000000 0.000000 0.000000
# 3 -0.001950 -0.001950 0.010565 0.000000 0.000000 0.000000
# 4 0.000000 0.000000 0.000000 0.039267 0.000000 0.000000
# 5 0.000000 0.000000 0.000000 0.000000 0.039267 0.000000
# 6 0.000000 0.000000 0.000000 0.000000 0.000000 0.057045
#
#
# Mechanical properties :
#
#
# Convention : Reuss Voigt Hill
#
# Bulk Modulus (GPa) = 31.49025 33.15278 32.32152
# Shear Modulus (GPa) = 22.56569 24.47169 23.51869
#
# Velocity S-wave (km/s) = 4.02794 4.19460 4.11211
# Velocity P-wave (km/s) = 6.65382 6.87719 6.76643
#
# Compressibility (1/GPa) = 0.03175586
#
# Stress axis : x y z
#
# Youngs Moduli (GPa) = 46.49229 46.49229 94.65152
#
# Poissons Ratio (x) = 0.32608 0.18457
# Poissons Ratio (y) = 0.32608 0.18457
# Poissons Ratio (z) = 0.09066 0.09066
#
# Static dielectric constant tensor:
#      x y z
#    x 2.661180 0.000000 0.000000 
#    y 0.000000 2.661180 0.000000 
#    z 0.000000 0.000000 -15.112570 
# 
# 
# High freq. dielectric constant tensor:
#      x y z
#    x 2.266660 0.000000 0.000000 
#    y 0.000000 2.266660 0.000000 
#    z 0.000000 0.000000 1.626750 
# 
# From -- ./inp_files/5200.got.cif
#   From: 2010.03.12/outbox.ucp.g09.slc.cvg/sg191_3_cif.got.tgz:5200.got - 2010.05.04 20:47:26.
