data_PCOD8329131
_publ_section_title
;
Structure prediction by ZEFSAII (Michael W. Deem and Ramdas Pophale) SiO2 
 PCOD8329131
Probable space group: P 6/M M M
;
_chemical_formula_sum "Si O2"
_cell_formula_units_Z 48
_cell_length_a 20.405598
_cell_length_b 20.405598
_cell_length_c 7.678026
_cell_angle_alpha 90.000000
_cell_angle_beta 90.000000
_cell_angle_gamma 120.000000
_cell_volume 2768.718887
_symmetry_space_group_name_H-M "P 6/M M M"
_symmetry_group_IT_number 191
_symmetry_cell_setting 'hexagonal'
loop_
_space_group_symop_operation_xyz
x,y,z
x-y,x,z
-y,x-y,z
-x,-y,z
-x+y,-x,z
y,-x+y,z
x-y,-y,-z
-x,-x+y,-z
y,x,-z
-y,-x,-z
-x+y,y,-z
x,x-y,-z
-x,-y,-z
-x+y,-x,-z
y,-x+y,-z
x,y,-z
x-y,x,-z
-y,x-y,-z
-x+y,y,z
x,x-y,z
-y,-x,z
y,x,z
x-y,-y,z
-x,-x+y,z
loop_
_atom_site_type_symbol
_atom_site_label
_atom_site_fract_x
_atom_site_fract_y
_atom_site_fract_z
Si Si1 0.913324 0.456662 0.205926
Si Si2 0.766371 0.083507 0.000000
Si Si3 0.710020 0.568342 0.695877
O O1 0.869637 0.497086 0.280490
O O2 0.000000 0.500000 0.271452
O O3 0.909660 0.454830 0.000000
O O4 0.724439 0.090051 0.829522
O O5 0.855315 0.144686 0.000000
O O6 0.756466 0.000000 0.000000
O O7 0.719020 0.600556 0.500000
O O8 0.770295 0.540590 0.732349
#
# Coordination Sequence:
#
# PCOD8329131 Si02
#       3
#    12  12  24
#     4  11  21  33  53  78 103 135 176 217 261 310
#     4  10  20  35  55  78 105 133 165 207 253 305
#     4  10  21  36  53  75 103 136 175 216 259 304
#
# _framework density 17.336537
#
# number of rings (size 3 to 8) (size 9 to 14) (size 15 to 20)
#    0.000    1.750    2.500    2.250    0.000    5.000 
#    1.500    0.000    0.000    0.250    0.000    0.000 
#    0.000    0.000    0.000   12.500    0.000    0.000 
#
# Total GULP energy -595281.026521 kJ/mol
# GULP energy per Si atom -12401.688053 kJ/mol
# Density = 1.729708 g / cm^3
# Si number density = 17.336537 Si / 1000 Ang^3
#
#
#
# Elastic Constant Matrix: (Units=GPa)
#
#
# Indices 1 2 3 4 5 6 
#
# 1 111.5815 68.4791 40.0825 0.0000 0.0000 0.0000
# 2 68.4791 111.5815 40.0825 0.0000 0.0000 0.0000
# 3 40.0825 40.0825 115.9605 0.0000 0.0000 0.0000
# 4 0.0000 0.0000 0.0000 3.3898 0.0000 0.0000
# 5 0.0000 0.0000 0.0000 0.0000 3.3898 0.0000
# 6 0.0000 0.0000 0.0000 0.0000 0.0000 21.5512
#
#
#
# Elastic Compliance Matrix: (Units=1/GPa)
#
#
# Indices 1 2 3 4 5 6 
#
# 1 0.014882 -0.008318 -0.002269 0.000000 0.000000 0.000000
# 2 -0.008318 0.014882 -0.002269 0.000000 0.000000 0.000000
# 3 -0.002269 -0.002269 0.010192 0.000000 0.000000 0.000000
# 4 0.000000 0.000000 0.000000 0.295001 0.000000 0.000000
# 5 0.000000 0.000000 0.000000 0.000000 0.295001 0.000000
# 6 0.000000 0.000000 0.000000 0.000000 0.000000 0.046401
#
#
# Mechanical properties :
#
#
# Convention : Reuss Voigt Hill
#
# Bulk Modulus (GPa) = 70.20302 70.71240 70.45771
# Shear Modulus (GPa) = 7.07394 18.36478 12.71936
#
# Velocity S-wave (km/s) = 2.02218 3.25824 2.71158
# Velocity P-wave (km/s) = 6.78487 7.41832 7.10865
#
# Compressibility (1/GPa) = 0.01424440
#
# Stress axis : x y z
#
# Youngs Moduli (GPa) = 67.19440 67.19440 98.11532
#
# Poissons Ratio (x) = 0.55895 0.22261
# Poissons Ratio (y) = 0.55895 0.22261
# Poissons Ratio (z) = 0.15245 0.15245
#
# Static dielectric constant tensor:
#      x y z
#    x 3.156940 0.000000 0.000000 
#    y 0.000000 3.156940 0.000000 
#    z 0.000000 0.000000 3.574480 
# 
# 
# High freq. dielectric constant tensor:
#      x y z
#    x 1.653720 0.000000 0.000000 
#    y 0.000000 1.653720 0.000000 
#    z 0.000000 0.000000 1.695320 
# 
# From -- ./inp_files/290.got.cif
#   From: 2010.03.12/outbox.cif.g09.slc.cpg/sg191_1_cif.got.tgz:290.got - 2010.04.01 12:09:02.
