data_PCOD8329854
_publ_section_title
;
Structure prediction by ZEFSAII (Michael W. Deem and Ramdas Pophale) SiO2 
 PCOD8329854
Probable space group: P 63/M C M
;
_chemical_formula_sum "Si O2"
_cell_formula_units_Z 168
_cell_length_a 30.123504
_cell_length_b 30.123504
_cell_length_c 14.443435
_cell_angle_alpha 90.000000
_cell_angle_beta 90.000000
_cell_angle_gamma 120.000000
_cell_volume 11350.424368
_symmetry_space_group_name_H-M "P 63/M C M"
_symmetry_group_IT_number 193
_symmetry_cell_setting 'hexagonal'
loop_
_space_group_symop_operation_xyz
x,y,z
x-y,x,1/2+z
-y,x-y,z
-x,-y,1/2+z
-x+y,-x,z
y,-x+y,1/2+z
x-y,-y,1/2-z
-x,-x+y,1/2-z
y,x,1/2-z
-y,-x,-z
-x+y,y,-z
x,x-y,-z
-x,-y,-z
-x+y,-x,1/2-z
y,-x+y,-z
x,y,1/2-z
x-y,x,-z
-y,x-y,1/2-z
-x+y,y,1/2+z
x,x-y,1/2+z
-y,-x,1/2+z
y,x,z
x-y,-y,z
-x,-x+y,z
loop_
_atom_site_type_symbol
_atom_site_label
_atom_site_fract_x
_atom_site_fract_y
_atom_site_fract_z
Si Si1 0.706339 0.517179 1.000000
Si Si2 0.333840 0.768876 0.356713
Si Si3 0.769850 0.058834 0.357379
Si Si4 0.941166 0.711016 0.857379
Si Si5 0.844801 0.056456 0.500000
Si Si6 0.130249 0.762744 1.000000
Si Si7 0.768876 0.333840 0.856713
O O1 0.674725 0.485551 0.089951
O O2 0.715447 0.574344 1.000000
O O3 0.761667 0.523333 0.000000
O O4 0.674725 0.485551 0.910049
O O5 0.336054 0.782584 0.250000
O O6 0.386124 0.772248 0.390550
O O7 0.288387 0.711613 0.378581
O O8 0.782363 0.074423 0.250000
O O9 0.820265 0.065415 0.407890
O O10 0.754671 0.097023 0.407482
O O11 0.723914 0.000000 0.367852
O O12 0.925577 0.707941 0.750000
O O13 0.934585 0.754850 0.907891
O O14 0.902977 0.657648 0.907482
O O15 0.000000 0.723914 0.867851
O O16 0.905060 0.094941 0.500000
O O17 0.837410 0.000000 0.500000
O O18 0.181133 0.818868 0.000000
O O19 0.782584 0.336054 0.750000
#
# Coordination Sequence:
#
# PCOD8329854 Si02
#       7
#    24  24  24  24  24  24  24
#     4   9  18  28  36  53  81 109 135 161 192 235
#     4   9  16  26  40  56  75 102 137 173 203 230
#     4   9  17  29  45  63  82 105 135 171 204 233
#     4   9  17  29  45  63  82 105 135 171 204 233
#     4   9  17  28  42  62  86 110 138 171 204 236
#     4  10  19  28  40  60  86 115 139 156 187 241
#     4   9  16  26  40  56  75 102 137 173 203 230
#
# _framework density 14.801209
#
# number of rings (size 3 to 8) (size 9 to 14) (size 15 to 20)
#    0.000    2.857    0.000    3.714    0.000    4.571 
#    0.000    4.286    0.000    0.143    0.000    0.000 
#    0.000    9.143    0.000   32.286    0.000    0.000 
#
# Total GULP energy -2082424.007714 kJ/mol
# GULP energy per Si atom -12395.380998 kJ/mol
# Density = 1.476752 g / cm^3
# Si number density = 14.801209 Si / 1000 Ang^3
#
#
#
# Elastic Constant Matrix: (Units=GPa)
#
#
# Indices 1 2 3 4 5 6 
#
# 1 96.6090 52.6765 47.4188 0.0000 0.0000 0.0000
# 2 52.6765 96.6090 47.4188 0.0000 0.0000 0.0000
# 3 47.4188 47.4188 118.9008 0.0000 0.0000 0.0000
# 4 0.0000 0.0000 0.0000 17.5453 0.0000 0.0000
# 5 0.0000 0.0000 0.0000 0.0000 17.5453 0.0000
# 6 0.0000 0.0000 0.0000 0.0000 0.0000 21.9662
#
#
#
# Elastic Compliance Matrix: (Units=1/GPa)
#
#
# Indices 1 2 3 4 5 6 
#
# 1 0.015867 -0.006895 -0.003578 0.000000 0.000000 0.000000
# 2 -0.006895 0.015867 -0.003578 0.000000 0.000000 0.000000
# 3 -0.003578 -0.003578 0.011264 0.000000 0.000000 0.000000
# 4 0.000000 0.000000 0.000000 0.056995 0.000000 0.000000
# 5 0.000000 0.000000 0.000000 0.000000 0.056995 0.000000
# 6 0.000000 0.000000 0.000000 0.000000 0.000000 0.045524
#
#
# Mechanical properties :
#
#
# Convention : Reuss Voigt Hill
#
# Bulk Modulus (GPa) = 67.13414 67.46077 67.29745
# Shear Modulus (GPa) = 21.22418 22.38503 21.80461
#
# Velocity S-wave (km/s) = 3.79086 3.89315 3.84235
# Velocity P-wave (km/s) = 8.03844 8.11700 8.07781
#
# Compressibility (1/GPa) = 0.01489555
#
# Stress axis : x y z
#
# Youngs Moduli (GPa) = 63.02436 63.02436 88.77670
#
# Poissons Ratio (x) = 0.43457 0.31764
# Poissons Ratio (y) = 0.43457 0.31764
# Poissons Ratio (z) = 0.22550 0.22550
#
# Static dielectric constant tensor:
#      x y z
#    x 2.804110 0.000000 0.000000 
#    y 0.000000 2.804110 0.000000 
#    z 0.000000 0.000000 3.064120 
# 
# 
# High freq. dielectric constant tensor:
#      x y z
#    x 1.542230 0.000000 0.000000 
#    y 0.000000 1.542230 0.000000 
#    z 0.000000 0.000000 1.581520 
# 
# From -- ./inp_files/4440.got.cif
#   From: 2010.03.12/outbox.cif.g09.slc.cpg/sg193_3_cif.got.tgz:4440.got - 2010.04.01 12:20:39.
