data_PCOD8329487
_publ_section_title
;
Structure prediction by ZEFSAII (Michael W. Deem and Ramdas Pophale) SiO2 
 PCOD8329487
Probable space group: P 6/M C C
;
_chemical_formula_sum "Si O2"
_cell_formula_units_Z 144
_cell_length_a 31.168637
_cell_length_b 31.168637
_cell_length_c 8.688536
_cell_angle_alpha 90.000000
_cell_angle_beta 90.000000
_cell_angle_gamma 120.000000
_cell_volume 7309.923950
_symmetry_space_group_name_H-M "P 6/M C C"
_symmetry_group_IT_number 192
_symmetry_cell_setting 'hexagonal'
loop_
_space_group_symop_operation_xyz
x,y,z
x-y,x,z
-y,x-y,z
-x,-y,z
-x+y,-x,z
y,-x+y,z
x-y,-y,1/2-z
-x,-x+y,1/2-z
y,x,1/2-z
-y,-x,1/2-z
-x+y,y,1/2-z
x,x-y,1/2-z
-x,-y,-z
-x+y,-x,-z
y,-x+y,-z
x,y,-z
x-y,x,-z
-y,x-y,-z
-x+y,y,1/2+z
x,x-y,1/2+z
-y,-x,1/2+z
y,x,1/2+z
x-y,-y,1/2+z
-x,-x+y,1/2+z
loop_
_atom_site_type_symbol
_atom_site_label
_atom_site_fract_x
_atom_site_fract_y
_atom_site_fract_z
Si Si1 0.052367 0.480284 0.181914
Si Si2 0.803098 0.854949 0.817531
Si Si3 0.664552 0.522126 0.819894
Si Si4 0.759258 0.149319 0.817228
Si Si5 0.425074 0.667287 0.320201
Si Si6 0.050777 0.757182 0.319471
O O1 0.067857 0.533929 0.250000
O O2 0.093714 0.466550 0.226058
O O3 0.000000 0.438628 0.250000
O O4 0.047757 0.481828 0.000000
O O5 0.845783 0.845783 0.750000
O O6 0.811780 0.905890 0.750000
O O7 0.749587 0.810705 0.760891
O O8 0.806921 0.858306 0.000000
O O9 0.719492 0.559433 0.762438
O O10 0.653110 0.466930 0.782482
O O11 0.659523 0.529366 0.000000
O O12 0.812565 0.187436 0.750000
O O13 0.748351 0.095060 0.767843
O O14 0.758413 0.155280 0.000000
O O15 0.373476 0.626525 0.250000
O O16 0.441498 0.720749 0.250000
O O17 0.418003 0.669984 0.500000
O O18 0.044674 0.754346 0.500000
O O19 0.000000 0.713220 0.250000
#
# Coordination Sequence:
#
# PCOD8329487 Si02
#       6
#    24  24  24  24  24  24
#     4  11  22  39  63  90 120 154 193 240 290 344
#     4  10  19  33  53  79 109 143 183 229 278 331
#     4  11  24  41  61  87 117 154 196 240 288 342
#     4  11  23  39  58  83 115 154 195 238 287 344
#     4  11  24  41  63  88 117 149 186 231 283 340
#     4   9  20  36  56  82 112 146 187 233 284 336
#
# _framework density 19.699248000000001
#
# number of rings (size 3 to 8) (size 9 to 14) (size 15 to 20)
#    0.000    1.500    0.000    5.667    0.000    8.000 
#    0.000    1.667    0.000    0.167    0.000    1.167 
#    0.000    0.000    0.000    0.000    0.000    0.000 
#
# Total GULP energy -1786483.153168 kJ/mol
# GULP energy per Si atom -12406.133008 kJ/mol
# Density = 1.965441 g / cm^3
# Si number density = 19.699248 Si / 1000 Ang^3
#
#
#
# Elastic Constant Matrix: (Units=GPa)
#
#
# Indices 1 2 3 4 5 6 
#
# 1 68.3636 65.2576 44.9833 0.0000 0.0000 0.0000
# 2 65.2576 68.3636 44.9833 0.0000 0.0000 0.0000
# 3 44.9833 44.9833 105.8789 0.0000 0.0000 0.0000
# 4 0.0000 0.0000 0.0000 33.0071 0.0000 0.0000
# 5 0.0000 0.0000 0.0000 0.0000 33.0071 0.0000
# 6 0.0000 0.0000 0.0000 0.0000 0.0000 1.5530
#
#
#
# Elastic Compliance Matrix: (Units=1/GPa)
#
#
# Indices 1 2 3 4 5 6 
#
# 1 0.166223 -0.155740 -0.004453 0.000000 0.000000 0.000000
# 2 -0.155740 0.166223 -0.004453 0.000000 0.000000 0.000000
# 3 -0.004453 -0.004453 0.013229 0.000000 0.000000 0.000000
# 4 0.000000 0.000000 0.000000 0.030297 0.000000 0.000000
# 5 0.000000 0.000000 0.000000 0.000000 0.030297 0.000000
# 6 0.000000 0.000000 0.000000 0.000000 0.000000 0.643925
#
#
# Mechanical properties :
#
#
# Convention : Reuss Voigt Hill
#
# Bulk Modulus (GPa) = 61.05124 61.45050 61.25087
# Shear Modulus (GPa) = 3.61025 19.33890 11.47457
#
# Velocity S-wave (km/s) = 1.35523 3.13662 2.41610
# Velocity P-wave (km/s) = 5.78859 6.66182 6.24050
#
# Compressibility (1/GPa) = 0.01637968
#
# Stress axis : x y z
#
# Youngs Moduli (GPa) = 6.01603 6.01603 75.59186
#
# Poissons Ratio (x) = 0.93694 0.33665
# Poissons Ratio (y) = 0.93694 0.33665
# Poissons Ratio (z) = 0.02679 0.02679
#
# Static dielectric constant tensor:
#      x y z
#    x 3.622920 0.000000 0.000000 
#    y 0.000000 3.622920 0.000000 
#    z 0.000000 0.000000 3.655740 
# 
# 
# High freq. dielectric constant tensor:
#      x y z
#    x 1.771480 0.000000 0.000000 
#    y 0.000000 1.771480 0.000000 
#    z 0.000000 0.000000 1.780330 
# 
# From -- ./inp_files/1150.got.cif
#   From: 2010.03.12/outbox.cif.g09.slc.cpg/sg192_1_cif.got.tgz:1150.got - 2010.04.01 12:16:15.
