data_PCOD8329225
_publ_section_title
;
Structure prediction by ZEFSAII (Michael W. Deem and Ramdas Pophale) SiO2 
 PCOD8329225
Probable space group: P 6/M M M
;
_chemical_formula_sum "Si O2"
_cell_formula_units_Z 168
_cell_length_a 26.258575
_cell_length_b 26.258575
_cell_length_c 14.971113
_cell_angle_alpha 90.000000
_cell_angle_beta 90.000000
_cell_angle_gamma 120.000000
_cell_volume 8939.784054
_symmetry_space_group_name_H-M "P 6/M M M"
_symmetry_group_IT_number 191
_symmetry_cell_setting 'hexagonal'
loop_
_space_group_symop_operation_xyz
x,y,z
x-y,x,z
-y,x-y,z
-x,-y,z
-x+y,-x,z
y,-x+y,z
x-y,-y,-z
-x,-x+y,-z
y,x,-z
-y,-x,-z
-x+y,y,-z
x,x-y,-z
-x,-y,-z
-x+y,-x,-z
y,-x+y,-z
x,y,-z
x-y,x,-z
-y,x-y,-z
-x+y,y,z
x,x-y,z
-y,-x,z
y,x,z
x-y,-y,z
-x,-x+y,z
loop_
_atom_site_type_symbol
_atom_site_label
_atom_site_fract_x
_atom_site_fract_y
_atom_site_fract_z
Si Si1 0.331050 0.549423 0.500000
Si Si2 0.369907 0.066782 0.897053
Si Si3 0.465533 0.931065 0.604804
Si Si4 0.665938 0.447983 0.835994
Si Si5 0.360559 0.121152 0.277107
Si Si6 0.517013 0.853276 0.335454
Si Si7 0.751471 0.933447 0.397469
Si Si8 0.602708 0.506024 0.098344
O O1 0.398372 0.601629 0.500000
O O2 0.288655 0.577309 0.500000
O O3 0.315379 0.506669 0.416841
O O4 0.352529 0.102263 0.827660
O O5 0.429870 0.070510 0.857338
O O6 0.318037 0.000000 0.896210
O O7 0.378814 0.091489 0.000000
O O8 0.457053 0.914105 0.500000
O O9 0.402710 0.905436 0.652166
O O10 0.500000 0.000000 0.619276
O O11 0.728856 0.457712 0.864911
O O12 0.621300 0.378701 0.820703
O O13 0.670258 0.483998 0.748467
O O14 0.642325 0.474767 0.911091
O O15 0.375750 0.187875 0.280317
O O16 0.413027 0.117074 0.325008
O O17 0.301818 0.078871 0.331884
O O18 0.729455 0.926714 0.500000
O O19 0.774063 0.887032 0.378084
O O20 0.804661 0.000000 0.379908
O O21 0.540300 0.459701 0.147841
O O22 0.586510 0.516972 0.000000
#
# Coordination Sequence:
#
# PCOD8329225 Si02
#       8
#    12  24  12  24  24  24  24  24
#     4  12  23  38  58  76 104 140 183 232 285 343
#     4  10  21  37  57  80 106 137 179 232 284 337
#     4  11  24  44  62  76 101 139 177 223 286 344
#     4  11  21  35  53  74 101 131 169 214 268 328
#     4  11  23  37  56  83 113 151 191 230 281 333
#     4  12  22  39  53  78 105 135 176 227 276 332
#     4   9  19  36  59  88 122 157 193 230 268 316
#     4   9  19  35  52  71  97 129 167 215 272 335
#
# _framework density 18.792399
#
# number of rings (size 3 to 8) (size 9 to 14) (size 15 to 20)
#    0.000    1.500    3.571    1.929    1.000    2.000 
#    0.000    5.714    0.000    1.000    0.000    1.000 
#    0.000    0.000    0.000    0.000    0.000    0.000 
#
# Total GULP energy -2082050.647985 kJ/mol
# GULP energy per Si atom -12393.158619 kJ/mol
# Density = 1.874963 g / cm^3
# Si number density = 18.792399 Si / 1000 Ang^3
#
#
#
# Elastic Constant Matrix: (Units=GPa)
#
#
# Indices 1 2 3 4 5 6 
#
# 1 79.3026 59.4930 31.7928 0.0000 0.0000 0.0000
# 2 59.4930 79.3026 31.7928 0.0000 0.0000 0.0000
# 3 31.7928 31.7928 73.9338 0.0000 0.0000 0.0000
# 4 0.0000 0.0000 0.0000 24.9469 0.0000 0.0000
# 5 0.0000 0.0000 0.0000 0.0000 24.9469 0.0000
# 6 0.0000 0.0000 0.0000 0.0000 0.0000 9.9048
#
#
#
# Elastic Compliance Matrix: (Units=1/GPa)
#
#
# Indices 1 2 3 4 5 6 
#
# 1 0.029726 -0.020754 -0.003858 0.000000 0.000000 0.000000
# 2 -0.020754 0.029726 -0.003858 0.000000 0.000000 0.000000
# 3 -0.003858 -0.003858 0.016844 0.000000 0.000000 0.000000
# 4 0.000000 0.000000 0.000000 0.040085 0.000000 0.000000
# 5 0.000000 0.000000 0.000000 0.000000 0.040085 0.000000
# 6 0.000000 0.000000 0.000000 0.000000 0.000000 0.100961
#
#
# Mechanical properties :
#
#
# Convention : Reuss Voigt Hill
#
# Bulk Modulus (GPa) = 51.66478 53.18845 52.42662
# Shear Modulus (GPa) = 15.58504 19.25710 17.42107
#
# Velocity S-wave (km/s) = 2.88293 3.20461 3.04802
# Velocity P-wave (km/s) = 6.21561 6.48516 6.35181
#
# Compressibility (1/GPa) = 0.01935554
#
# Stress axis : x y z
#
# Youngs Moduli (GPa) = 33.64016 33.64016 59.36884
#
# Poissons Ratio (x) = 0.69817 0.22906
# Poissons Ratio (y) = 0.69817 0.22906
# Poissons Ratio (z) = 0.12979 0.12979
#
# Static dielectric constant tensor:
#      x y z
#    x 3.425270 0.000000 0.000000 
#    y 0.000000 3.425270 0.000000 
#    z 0.000000 0.000000 3.380290 
# 
# 
# High freq. dielectric constant tensor:
#      x y z
#    x 1.716770 0.000000 0.000000 
#    y 0.000000 1.716770 0.000000 
#    z 0.000000 0.000000 1.734000 
# 
# From -- ./inp_files/5351.got.cif
#   From: 2010.03.12/outbox.cif.g09.slc.cpg/sg191_3_cif.got.tgz:5351.got - 2010.04.01 12:09:02.
