data_PCOD8329304
_publ_section_title
;
Structure prediction by ZEFSAII (Michael W. Deem and Ramdas Pophale) SiO2 
 PCOD8329304
Probable space group: P 6/M M M
;
_chemical_formula_sum "Si O2"
_cell_formula_units_Z 144
_cell_length_a 22.451944
_cell_length_b 22.451944
_cell_length_c 24.070931
_cell_angle_alpha 90.000000
_cell_angle_beta 90.000000
_cell_angle_gamma 120.000000
_cell_volume 10508.274773
_symmetry_space_group_name_H-M "P 6/M M M"
_symmetry_group_IT_number 191
_symmetry_cell_setting 'hexagonal'
loop_
_space_group_symop_operation_xyz
x,y,z
x-y,x,z
-y,x-y,z
-x,-y,z
-x+y,-x,z
y,-x+y,z
x-y,-y,-z
-x,-x+y,-z
y,x,-z
-y,-x,-z
-x+y,y,-z
x,x-y,-z
-x,-y,-z
-x+y,-x,-z
y,-x+y,-z
x,y,-z
x-y,x,-z
-y,x-y,-z
-x+y,y,z
x,x-y,z
-y,-x,z
y,x,z
x-y,-y,z
-x,-x+y,z
loop_
_atom_site_type_symbol
_atom_site_label
_atom_site_fract_x
_atom_site_fract_y
_atom_site_fract_z
Si Si1 0.922358 0.213037 0.620722
Si Si2 0.292574 0.078418 0.168909
Si Si3 0.609479 0.082172 0.000000
Si Si4 0.279895 0.075110 0.500000
Si Si5 0.392384 0.474135 0.221769
Si Si6 0.586893 0.919258 0.111336
Si Si7 0.381910 0.123234 0.276793
O O1 0.867908 0.132093 0.631683
O O2 0.912985 0.235339 0.557714
O O3 0.908445 0.259255 0.663367
O O4 0.000000 0.227097 0.628809
O O5 0.264944 0.132472 0.163046
O O6 0.351764 0.097379 0.122385
O O7 0.324857 0.082761 0.229469
O O8 0.229790 0.000000 0.160680
O O9 0.659626 0.112542 0.053605
O O10 0.554009 0.108018 0.000000
O O11 0.569915 0.000000 0.000000
O O12 0.246506 0.123253 0.500000
O O13 0.214228 0.000000 0.500000
O O14 0.446527 0.553474 0.233802
O O15 0.427942 0.427942 0.223774
O O16 0.357710 0.467842 0.161613
O O17 0.333729 0.447733 0.268658
O O18 0.617623 0.000000 0.108990
O O19 0.407603 0.203802 0.274345
#
# Coordination Sequence:
#
# PCOD8329304 Si02
#       7
#    24  24  12  12  24  24  24
#     4   9  15  23  35  51  71  94 121 153 188 226
#     4   9  16  26  39  54  73  98 127 160 197 234
#     4   9  14  20  33  52  73  96 116 133 160 204
#     4   8  14  22  32  47  67  91 117 147 185 225
#     4   9  15  23  36  54  75  96 117 143 174 207
#     4   8  14  23  34  51  74  96 117 140 171 213
#     4   9  16  25  38  55  74  95 121 152 183 220
#
# _framework density 13.703487000000001
#
# number of rings (size 3 to 8) (size 9 to 14) (size 15 to 20)
#    0.000    3.250    0.000    3.000    0.000    2.000 
#    0.000    0.417    0.000    0.750    0.000    2.917 
#    0.000    7.333    0.000    1.833    0.000   13.333 
#
# Total GULP energy -1783970.844587 kJ/mol
# GULP energy per Si atom -12388.686421 kJ/mol
# Density = 1.367230 g / cm^3
# Si number density = 13.703487 Si / 1000 Ang^3
#
#
#
# Elastic Constant Matrix: (Units=GPa)
#
#
# Indices 1 2 3 4 5 6 
#
# 1 73.0457 39.9523 40.3070 0.0000 0.0000 0.0000
# 2 39.9523 73.0457 40.3070 0.0000 0.0000 0.0000
# 3 40.3070 40.3070 106.0230 0.0000 0.0000 0.0000
# 4 0.0000 0.0000 0.0000 15.7161 0.0000 0.0000
# 5 0.0000 0.0000 0.0000 0.0000 15.7161 0.0000
# 6 0.0000 0.0000 0.0000 0.0000 0.0000 16.5467
#
#
#
# Elastic Compliance Matrix: (Units=1/GPa)
#
#
# Indices 1 2 3 4 5 6 
#
# 1 0.021180 -0.009037 -0.004616 0.000000 0.000000 0.000000
# 2 -0.009037 0.021180 -0.004616 0.000000 0.000000 0.000000
# 3 -0.004616 -0.004616 0.012942 0.000000 0.000000 0.000000
# 4 0.000000 0.000000 0.000000 0.063629 0.000000 0.000000
# 5 0.000000 0.000000 0.000000 0.000000 0.063629 0.000000
# 6 0.000000 0.000000 0.000000 0.000000 0.000000 0.060435
#
#
# Mechanical properties :
#
#
# Convention : Reuss Voigt Hill
#
# Bulk Modulus (GPa) = 53.29806 54.80520 54.05163
# Shear Modulus (GPa) = 17.49534 18.36565 17.93049
#
# Velocity S-wave (km/s) = 3.57698 3.66487 3.62119
# Velocity P-wave (km/s) = 7.48585 7.61504 7.55072
#
# Compressibility (1/GPa) = 0.01876241
#
# Stress axis : x y z
#
# Youngs Moduli (GPa) = 47.21355 47.21355 77.26764
#
# Poissons Ratio (x) = 0.42668 0.35671
# Poissons Ratio (y) = 0.42668 0.35671
# Poissons Ratio (z) = 0.21796 0.21796
#
# Static dielectric constant tensor:
#      x y z
#    x 2.556110 0.000000 0.000000 
#    y 0.000000 2.556110 0.000000 
#    z 0.000000 0.000000 3.005380 
# 
# 
# High freq. dielectric constant tensor:
#      x y z
#    x 1.492500 0.000000 0.000000 
#    y 0.000000 1.492500 0.000000 
#    z 0.000000 0.000000 1.527360 
# 
# From -- ./inp_files/9137.got.cif
#   From: 2010.03.12/outbox.cif.g09.slc.cpg/sg191_5_cif.got.tgz:9137.got - 2010.04.01 12:09:02.
