data_PCOD8329469
_publ_section_title
;
Structure prediction by ZEFSAII (Michael W. Deem and Ramdas Pophale) SiO2 
 PCOD8329469
Probable space group: P 6/M C C
;
_chemical_formula_sum "Si O2"
_cell_formula_units_Z 144
_cell_length_a 29.539779
_cell_length_b 29.539779
_cell_length_c 8.952575
_cell_angle_alpha 90.000000
_cell_angle_beta 90.000000
_cell_angle_gamma 120.000000
_cell_volume 6765.393836
_symmetry_space_group_name_H-M "P 6/M C C"
_symmetry_group_IT_number 192
_symmetry_cell_setting 'hexagonal'
loop_
_space_group_symop_operation_xyz
x,y,z
x-y,x,z
-y,x-y,z
-x,-y,z
-x+y,-x,z
y,-x+y,z
x-y,-y,1/2-z
-x,-x+y,1/2-z
y,x,1/2-z
-y,-x,1/2-z
-x+y,y,1/2-z
x,x-y,1/2-z
-x,-y,-z
-x+y,-x,-z
y,-x+y,-z
x,y,-z
x-y,x,-z
-y,x-y,-z
-x+y,y,1/2+z
x,x-y,1/2+z
-y,-x,1/2+z
y,x,1/2+z
x-y,-y,1/2+z
-x,-x+y,1/2+z
loop_
_atom_site_type_symbol
_atom_site_label
_atom_site_fract_x
_atom_site_fract_y
_atom_site_fract_z
Si Si1 0.643699 0.944600 0.322305
Si Si2 0.815320 0.865786 0.336903
Si Si3 0.431159 0.666713 0.679967
Si Si4 0.539737 0.678055 0.665612
Si Si5 0.803736 0.109958 0.666169
Si Si6 0.476723 0.431885 0.662515
O O1 0.644848 0.950672 0.500000
O O2 0.589636 0.892254 0.273841
O O3 0.687862 0.932319 0.264828
O O4 0.655506 0.000000 0.250000
O O5 0.823857 0.823857 0.250000
O O6 0.841771 0.920886 0.250000
O O7 0.841279 0.875487 0.500000
O O8 0.754279 0.843941 0.352878
O O9 0.389749 0.610252 0.750000
O O10 0.418595 0.709298 0.750000
O O11 0.425322 0.664321 0.500000
O O12 0.491409 0.684337 0.726156
O O13 0.557457 0.703872 0.500000
O O14 0.515795 0.616942 0.651584
O O15 0.833637 0.166364 0.750000
O O16 0.785427 0.116736 0.500000
O O17 0.424796 0.424796 0.750000
O O18 0.526265 0.473736 0.750000
O O19 0.473762 0.452297 0.500000
#
# Coordination Sequence:
#
# PCOD8329469 Si02
#       6
#    24  24  24  24  24  24
#     4  12  25  40  61  88 124 171 219 267 319 378
#     4  10  20  34  55  82 112 147 188 237 291 347
#     4  11  24  44  70  98 128 161 201 252 313 383
#     4  10  23  41  60  85 118 155 197 246 299 360
#     4  10  21  38  60  86 118 156 203 258 314 371
#     4  10  19  32  52  78 108 143 181 224 273 326
#
# _framework density 21.284791999999999
#
# number of rings (size 3 to 8) (size 9 to 14) (size 15 to 20)
#    0.000    1.500    0.000    5.667    0.000    8.000 
#    0.000    1.667    0.000    0.167    0.000    1.167 
#    0.000    0.000    0.000    0.000    0.000    0.000 
#
# Total GULP energy -1783972.937462 kJ/mol
# GULP energy per Si atom -12388.700955 kJ/mol
# Density = 2.123635 g / cm^3
# Si number density = 21.284792 Si / 1000 Ang^3
#
#
#
# Elastic Constant Matrix: (Units=GPa)
#
#
# Indices 1 2 3 4 5 6 
#
# 1 41.0870 57.1186 40.6906 0.0000 0.0000 0.0000
# 2 57.1186 41.0870 40.6906 0.0000 0.0000 0.0000
# 3 40.6906 40.6906 185.3831 0.0000 0.0000 0.0000
# 4 0.0000 0.0000 0.0000 28.2423 0.0000 0.0000
# 5 0.0000 0.0000 0.0000 0.0000 28.2423 0.0000
# 6 0.0000 0.0000 0.0000 0.0000 0.0000 -8.0158
#
#
#
# Elastic Compliance Matrix: (Units=1/GPa)
#
#
# Indices 1 2 3 4 5 6 
#
# 1 -0.024965 0.037412 -0.002732 0.000000 0.000000 0.000000
# 2 0.037412 -0.024965 -0.002732 0.000000 0.000000 0.000000
# 3 -0.002732 -0.002732 0.006594 0.000000 0.000000 0.000000
# 4 0.000000 0.000000 0.000000 0.035408 0.000000 0.000000
# 5 0.000000 0.000000 0.000000 0.000000 0.035408 0.000000
# 6 0.000000 0.000000 0.000000 0.000000 0.000000 -0.124753
#
#
# Mechanical properties :
#
#
# Convention : Reuss Voigt Hill
#
# Bulk Modulus (GPa) = 48.64057 60.50627 54.57342
# Shear Modulus (GPa) = -32.40098 18.29758 -7.05170
#
# Velocity S-wave (km/s) = -3.90585 2.93517 -1.82215
# Velocity P-wave (km/s) = 1.60032 6.32263 4.61176
#
# Compressibility (1/GPa) = 0.02055897
#
# Stress axis : x y z
#
# Youngs Moduli (GPa) = -40.05611 -40.05611 151.66359
#
# Poissons Ratio (x) = 1.49856 0.41434
# Poissons Ratio (y) = 1.49856 0.41434
# Poissons Ratio (z) = -0.10943 -0.10943
#
# Static dielectric constant tensor:
#      x y z
#    x -2.187100 0.000000 0.000000 
#    y 0.000000 -2.187100 0.000000 
#    z 0.000000 0.000000 4.328340 
# 
# 
# High freq. dielectric constant tensor:
#      x y z
#    x 1.827600 0.000000 0.000000 
#    y 0.000000 1.827600 0.000000 
#    z 0.000000 0.000000 1.848680 
# 
# From -- ./inp_files/1202.got.cif
#   From: 2010.03.12/outbox.cif.g09.slc.cpg/sg192_1_cif.got.tgz:1202.got - 2010.04.01 12:16:15.
