data_PCOD8329555
_publ_section_title
;
Structure prediction by ZEFSAII (Michael W. Deem and Ramdas Pophale) SiO2 
 PCOD8329555
Probable space group: P 6/M C C
;
_chemical_formula_sum "Si O2"
_cell_formula_units_Z 144
_cell_length_a 32.259208
_cell_length_b 32.259208
_cell_length_c 8.624305
_cell_angle_alpha 90.000000
_cell_angle_beta 90.000000
_cell_angle_gamma 120.000000
_cell_volume 7772.525226
_symmetry_space_group_name_H-M "P 6/M C C"
_symmetry_group_IT_number 192
_symmetry_cell_setting 'hexagonal'
loop_
_space_group_symop_operation_xyz
x,y,z
x-y,x,z
-y,x-y,z
-x,-y,z
-x+y,-x,z
y,-x+y,z
x-y,-y,1/2-z
-x,-x+y,1/2-z
y,x,1/2-z
-y,-x,1/2-z
-x+y,y,1/2-z
x,x-y,1/2-z
-x,-y,-z
-x+y,-x,-z
y,-x+y,-z
x,y,-z
x-y,x,-z
-y,x-y,-z
-x+y,y,1/2+z
x,x-y,1/2+z
-y,-x,1/2+z
y,x,1/2+z
x-y,-y,1/2+z
-x,-x+y,1/2+z
loop_
_atom_site_type_symbol
_atom_site_label
_atom_site_fract_x
_atom_site_fract_y
_atom_site_fract_z
Si Si1 0.229384 0.949152 0.818072
Si Si2 0.193785 0.717211 0.818486
Si Si3 0.380367 0.100739 0.821047
Si Si4 0.192713 0.051997 0.184043
Si Si5 0.440103 0.051334 0.817640
Si Si6 0.614520 0.141571 0.182785
O O1 0.245618 0.910435 0.784928
O O2 0.178400 0.931957 0.738336
O O3 0.269377 0.000000 0.750000
O O4 0.224006 0.954079 0.000000
O O5 0.244028 0.755973 0.750000
O O6 0.154712 0.733307 0.784511
O O7 0.179556 0.667580 0.736812
O O8 0.197658 0.710605 0.000000
O O9 0.399695 0.064958 0.775787
O O10 0.364651 0.094263 0.000000
O O11 0.177457 0.088729 0.250000
O O12 0.155541 0.000000 0.250000
O O13 0.190437 0.051075 0.000000
O O14 0.490395 0.088658 0.743450
O O15 0.425274 0.000000 0.750000
O O16 0.447592 0.052319 0.000000
O O17 0.579339 0.158677 0.250000
O O18 0.612071 0.140595 0.000000
#
# Coordination Sequence:
#
# PCOD8329555 Si02
#       6
#    24  24  24  24  24  24
#     4  11  21  33  51  76 108 147 189 230 271 315
#     4  10  21  38  59  83 110 141 178 220 269 323
#     4   9  19  34  51  74 108 147 187 229 269 313
#     4  11  22  39  60  83 110 141 178 220 269 322
#     4  10  20  34  52  77 109 146 188 230 272 318
#     4  11  22  38  59  82 109 141 178 221 270 323
#
# _framework density 18.526796000000001
#
# number of rings (size 3 to 8) (size 9 to 14) (size 15 to 20)
#    0.000    1.667    0.000    8.000    0.000    6.333 
#    0.000    3.333    0.000    0.500    0.000    3.500 
#    0.000    0.000    0.000    0.000    0.000    0.000 
#
# Total GULP energy -1786329.366016 kJ/mol
# GULP energy per Si atom -12405.065042 kJ/mol
# Density = 1.848463 g / cm^3
# Si number density = 18.526796 Si / 1000 Ang^3
#
#
#
# Elastic Constant Matrix: (Units=GPa)
#
#
# Indices 1 2 3 4 5 6 
#
# 1 96.8273 71.1082 52.2904 0.0000 0.0000 0.0000
# 2 71.1082 96.8273 52.2904 0.0000 0.0000 0.0000
# 3 52.2904 52.2904 153.1316 0.0000 0.0000 0.0000
# 4 0.0000 0.0000 0.0000 31.8827 0.0000 0.0000
# 5 0.0000 0.0000 0.0000 0.0000 31.8827 0.0000
# 6 0.0000 0.0000 0.0000 0.0000 0.0000 12.8595
#
#
#
# Elastic Compliance Matrix: (Units=1/GPa)
#
#
# Indices 1 2 3 4 5 6 
#
# 1 0.023222 -0.015659 -0.002583 0.000000 0.000000 0.000000
# 2 -0.015659 0.023222 -0.002583 0.000000 0.000000 0.000000
# 3 -0.002583 -0.002583 0.008294 0.000000 0.000000 0.000000
# 4 0.000000 0.000000 0.000000 0.031365 0.000000 0.000000
# 5 0.000000 0.000000 0.000000 0.000000 0.031365 0.000000
# 6 0.000000 0.000000 0.000000 0.000000 0.000000 0.077763
#
#
# Mechanical properties :
#
#
# Convention : Reuss Voigt Hill
#
# Bulk Modulus (GPa) = 76.39557 77.57381 76.98469
# Shear Modulus (GPa) = 20.72590 26.73147 23.72869
#
# Velocity S-wave (km/s) = 3.34832 3.80261 3.58268
# Velocity P-wave (km/s) = 7.50154 7.82572 7.66534
#
# Compressibility (1/GPa) = 0.01308976
#
# Stress axis : x y z
#
# Youngs Moduli (GPa) = 43.06206 43.06206 120.56809
#
# Poissons Ratio (x) = 0.67432 0.31137
# Poissons Ratio (y) = 0.67432 0.31137
# Poissons Ratio (z) = 0.11121 0.11121
#
# Static dielectric constant tensor:
#      x y z
#    x 3.243750 0.000000 0.000000 
#    y 0.000000 3.243750 0.000000 
#    z 0.000000 0.000000 3.499630 
# 
# 
# High freq. dielectric constant tensor:
#      x y z
#    x 1.710080 0.000000 0.000000 
#    y 0.000000 1.710080 0.000000 
#    z 0.000000 0.000000 1.737270 
# 
# From -- ./inp_files/1135.got.cif
#   From: 2010.03.12/outbox.cif.g09.slc.cpg/sg192_1_cif.got.tgz:1135.got - 2010.04.01 12:16:15.
