data_PCOD8329737
_publ_section_title
;
Structure prediction by ZEFSAII (Michael W. Deem and Ramdas Pophale) SiO2 
 PCOD8329737
Probable space group: P 6/M C C
;
_chemical_formula_sum "Si O2"
_cell_formula_units_Z 52
_cell_length_a 9.292109
_cell_length_b 9.292109
_cell_length_c 33.768246
_cell_angle_alpha 90.000000
_cell_angle_beta 90.000000
_cell_angle_gamma 120.000000
_cell_volume 2525.036881
_symmetry_space_group_name_H-M "P 6/M C C"
_symmetry_group_IT_number 192
_symmetry_cell_setting 'hexagonal'
loop_
_space_group_symop_operation_xyz
x,y,z
x-y,x,z
-y,x-y,z
-x,-y,z
-x+y,-x,z
y,-x+y,z
x-y,-y,1/2-z
-x,-x+y,1/2-z
y,x,1/2-z
-y,-x,1/2-z
-x+y,y,1/2-z
x,x-y,1/2-z
-x,-y,-z
-x+y,-x,-z
y,-x+y,-z
x,y,-z
x-y,x,-z
-y,x-y,-z
-x+y,y,1/2+z
x,x-y,1/2+z
-y,-x,1/2+z
y,x,1/2+z
x-y,-y,1/2+z
-x,-x+y,1/2+z
loop_
_atom_site_type_symbol
_atom_site_label
_atom_site_fract_x
_atom_site_fract_y
_atom_site_fract_z
Si Si1 0.333334 0.666668 0.296745
Si Si2 0.500000 0.500000 0.410855
Si Si3 0.282809 0.920047 0.837610
Si Si4 0.333334 0.666667 0.046780
O O1 0.333334 0.666667 0.250000
O O2 0.463023 0.852382 0.313457
O O3 0.334425 0.404087 0.383669
O O4 0.525378 0.373231 0.438232
O O5 0.095724 0.788631 0.825640
O O6 0.333334 0.666668 0.000000
#
# Coordination Sequence:
#
# PCOD8329737 Si02
#       4
#     8  12  24   8
#     4  12  25  44  70 102 142 173 226 285 343 413
#     4  12  21  42  69  94 132 180 240 280 339 446
#     4  12  23  42  69  98 131 184 230 277 342 409
#     4  12  25  41  67 102 139 176 229 306 367 413
#
# _framework density 20.59376
#
# number of rings (size 3 to 8) (size 9 to 14) (size 15 to 20)
#    0.000    0.000    9.231    1.154    0.000    3.692 
#    0.000    0.000    0.000    2.769    0.000    6.462 
#    0.000    0.000    0.000    0.000    0.000    0.000 
#
# Total GULP energy -644453.835861 kJ/mol
# GULP energy per Si atom -12393.342997 kJ/mol
# Density = 2.054689 g / cm^3
# Si number density = 20.593760 Si / 1000 Ang^3
#
#
#
# Elastic Constant Matrix: (Units=GPa)
#
#
# Indices 1 2 3 4 5 6 
#
# 1 117.6046 54.3237 38.9751 0.0001 0.0001 -0.0001
# 2 54.3237 117.6057 38.9753 0.0001 0.0001 0.0002
# 3 38.9751 38.9753 143.3301 0.0002 0.0000 0.0000
# 4 0.0001 0.0001 0.0002 23.2903 0.0000 0.0000
# 5 0.0001 0.0001 0.0000 0.0000 23.2900 0.0000
# 6 -0.0001 0.0002 0.0000 0.0000 0.0000 31.6409
#
#
#
# Elastic Compliance Matrix: (Units=1/GPa)
#
#
# Indices 1 2 3 4 5 6 
#
# 1 0.011218 -0.004584 -0.001804 0.000000 0.000000 0.000000
# 2 -0.004584 0.011218 -0.001804 0.000000 0.000000 0.000000
# 3 -0.001804 -0.001804 0.007958 0.000000 0.000000 0.000000
# 4 0.000000 0.000000 0.000000 0.042936 0.000000 0.000000
# 5 0.000000 0.000000 0.000000 0.000000 0.042937 0.000000
# 6 0.000000 0.000000 0.000000 0.000000 0.000000 0.031605
#
#
# Mechanical properties :
#
#
# Convention : Reuss Voigt Hill
#
# Bulk Modulus (GPa) = 71.37526 71.45431 71.41479
# Shear Modulus (GPa) = 29.59857 32.06198 30.83028
#
# Velocity S-wave (km/s) = 3.79523 3.95001 3.87339
# Velocity P-wave (km/s) = 7.34432 7.45492 7.39983
#
# Compressibility (1/GPa) = 0.01401046
#
# Stress axis : x y z
#
# Youngs Moduli (GPa) = 89.13921 89.14000 125.65918
#
# Poissons Ratio (x) = 0.40862 0.22669
# Poissons Ratio (y) = 0.40862 0.22669
# Poissons Ratio (z) = 0.16081 0.16081
#
# Static dielectric constant tensor:
#      x y z
#    x 4.203610 -0.000010 0.000000 
#    y -0.000010 4.203610 0.000000 
#    z 0.000000 0.000000 3.396670 
# 
# 
# High freq. dielectric constant tensor:
#      x y z
#    x 1.821850 0.000000 0.000000 
#    y 0.000000 1.821850 0.000000 
#    z 0.000000 0.000000 1.774540 
# 
# From -- ./inp_files/6710.got.cif
#   From: 2010.03.12/outbox.cif.g09.slc.cpg/sg192_4_cif.got.tgz:6710.got - 2010.04.01 12:16:15.
