data_PCOD8329252
_publ_section_title
;
Structure prediction by ZEFSAII (Michael W. Deem and Ramdas Pophale) SiO2 
 PCOD8329252
Probable space group: P 6/M M M
;
_chemical_formula_sum "Si O2"
_cell_formula_units_Z 168
_cell_length_a 23.085563
_cell_length_b 23.085563
_cell_length_c 23.528329
_cell_angle_alpha 90.000000
_cell_angle_beta 90.000000
_cell_angle_gamma 120.000000
_cell_volume 10859.320645
_symmetry_space_group_name_H-M "P 6/M M M"
_symmetry_group_IT_number 191
_symmetry_cell_setting 'hexagonal'
loop_
_space_group_symop_operation_xyz
x,y,z
x-y,x,z
-y,x-y,z
-x,-y,z
-x+y,-x,z
y,-x+y,z
x-y,-y,-z
-x,-x+y,-z
y,x,-z
-y,-x,-z
-x+y,y,-z
x,x-y,-z
-x,-y,-z
-x+y,-x,-z
y,-x+y,-z
x,y,-z
x-y,x,-z
-y,x-y,-z
-x+y,y,z
x,x-y,z
-y,-x,z
y,x,z
x-y,-y,z
-x,-x+y,z
loop_
_atom_site_type_symbol
_atom_site_label
_atom_site_fract_x
_atom_site_fract_y
_atom_site_fract_z
Si Si1 0.528697 0.923236 0.064535
Si Si2 0.136849 0.406146 0.135536
Si Si3 0.276697 0.202729 0.935227
Si Si4 0.284580 0.076585 0.651494
Si Si5 0.303436 0.920902 0.436824
Si Si6 0.395154 0.474721 0.651213
Si Si7 0.382644 0.076568 0.743696
O O1 0.453446 0.906891 0.071552
O O2 0.536977 0.874258 0.107582
O O3 0.579910 0.000000 0.080831
O O4 0.541928 0.909559 0.000000
O O5 0.212812 0.425623 0.124014
O O6 0.085804 0.336324 0.106064
O O7 0.124161 0.401487 0.202428
O O8 0.250347 0.125174 0.921599
O O9 0.214838 0.214838 0.924292
O O10 0.302858 0.220511 0.000000
O O11 0.256380 0.128190 0.655678
O O12 0.332216 0.096499 0.596287
O O13 0.328298 0.083934 0.706794
O O14 0.222895 0.000000 0.646931
O O15 0.285693 0.889199 0.500000
O O16 0.345530 0.892541 0.403250
O O17 0.349025 0.000000 0.440259
O O18 0.445089 0.554912 0.651719
O O19 0.437180 0.437180 0.647960
O O20 0.350265 0.450796 0.708087
O O21 0.352315 0.000000 0.763352
#
# Coordination Sequence:
#
# PCOD8329252 Si02
#       7
#    24  24  24  24  24  24  24
#     4   9  18  32  48  65  86 112 140 170 206 250
#     4  11  20  28  43  66  88 110 139 176 216 256
#     4   9  17  28  42  61  85 111 137 169 212 259
#     4   9  17  29  43  58  80 111 146 183 222 265
#     4   8  14  24  38  58  83 109 136 165 199 243
#     4   8  14  24  38  58  84 112 139 165 194 230
#     4   9  17  28  41  59  85 115 144 172 204 248
#
# _framework density 15.470580999999999
#
# number of rings (size 3 to 8) (size 9 to 14) (size 15 to 20)
#    0.000    3.000    0.000    4.286    0.000    3.143 
#    0.000    2.857    0.000    0.571    0.000    1.000 
#    0.000    0.000    0.000   22.286    0.000   50.571 
#
# Total GULP energy -2082480.801536 kJ/mol
# GULP energy per Si atom -12395.719057 kJ/mol
# Density = 1.543537 g / cm^3
# Si number density = 15.470581 Si / 1000 Ang^3
#
#
#
# Elastic Constant Matrix: (Units=GPa)
#
#
# Indices 1 2 3 4 5 6 
#
# 1 73.5069 39.4959 33.4799 0.0000 0.0000 0.0000
# 2 39.4959 73.5069 33.4799 0.0000 0.0000 0.0000
# 3 33.4799 33.4799 93.0491 0.0000 0.0000 0.0000
# 4 0.0000 0.0000 0.0000 14.5430 0.0000 0.0000
# 5 0.0000 0.0000 0.0000 0.0000 14.5430 0.0000
# 6 0.0000 0.0000 0.0000 0.0000 0.0000 17.0055
#
#
#
# Elastic Compliance Matrix: (Units=1/GPa)
#
#
# Indices 1 2 3 4 5 6 
#
# 1 0.020325 -0.009077 -0.004047 0.000000 0.000000 0.000000
# 2 -0.009077 0.020325 -0.004047 0.000000 0.000000 0.000000
# 3 -0.004047 -0.004047 0.013659 0.000000 0.000000 0.000000
# 4 0.000000 0.000000 0.000000 0.068762 0.000000 0.000000
# 5 0.000000 0.000000 0.000000 0.000000 0.068762 0.000000
# 6 0.000000 0.000000 0.000000 0.000000 0.000000 0.058804
#
#
# Mechanical properties :
#
#
# Convention : Reuss Voigt Hill
#
# Bulk Modulus (GPa) = 50.08437 50.33051 50.20744
# Shear Modulus (GPa) = 17.14476 18.12545 17.63511
#
# Velocity S-wave (km/s) = 3.33260 3.42659 3.37992
# Velocity P-wave (km/s) = 6.87405 6.94687 6.91056
#
# Compressibility (1/GPa) = 0.01996631
#
# Stress axis : x y z
#
# Youngs Moduli (GPa) = 49.20104 49.20104 73.21056
#
# Poissons Ratio (x) = 0.44662 0.29628
# Poissons Ratio (y) = 0.44662 0.29628
# Poissons Ratio (z) = 0.19911 0.19911
#
# Static dielectric constant tensor:
#      x y z
#    x 2.787700 0.000000 0.000000 
#    y 0.000000 2.787700 0.000000 
#    z 0.000000 0.000000 3.125990 
# 
# 
# High freq. dielectric constant tensor:
#      x y z
#    x 1.565360 0.000000 0.000000 
#    y 0.000000 1.565360 0.000000 
#    z 0.000000 0.000000 1.602380 
# 
# From -- ./inp_files/7946.got.cif
#   From: 2010.03.12/outbox.cif.g09.slc.cpg/sg191_4_cif.got.tgz:7946.got - 2010.04.01 12:09:02.
