data_PCOD8329641
_publ_section_title
;
Structure prediction by ZEFSAII (Michael W. Deem and Ramdas Pophale) SiO2 
 PCOD8329641
Probable space group: P 6/M C C
;
_chemical_formula_sum "Si O2"
_cell_formula_units_Z 104
_cell_length_a 20.555534
_cell_length_b 20.555534
_cell_length_c 15.380161
_cell_angle_alpha 90.000000
_cell_angle_beta 90.000000
_cell_angle_gamma 120.000000
_cell_volume 5627.934580
_symmetry_space_group_name_H-M "P 6/M C C"
_symmetry_group_IT_number 192
_symmetry_cell_setting 'hexagonal'
loop_
_space_group_symop_operation_xyz
x,y,z
x-y,x,z
-y,x-y,z
-x,-y,z
-x+y,-x,z
y,-x+y,z
x-y,-y,1/2-z
-x,-x+y,1/2-z
y,x,1/2-z
-y,-x,1/2-z
-x+y,y,1/2-z
x,x-y,1/2-z
-x,-y,-z
-x+y,-x,-z
y,-x+y,-z
x,y,-z
x-y,x,-z
-y,x-y,-z
-x+y,y,1/2+z
x,x-y,1/2+z
-y,-x,1/2+z
y,x,1/2+z
x-y,-y,1/2+z
-x,-x+y,1/2+z
loop_
_atom_site_type_symbol
_atom_site_label
_atom_site_fract_x
_atom_site_fract_y
_atom_site_fract_z
Si Si1 0.412910 0.077623 0.903012
Si Si2 0.319432 0.232074 0.250766
Si Si3 0.333334 0.666668 0.396537
Si Si4 0.419205 0.834531 0.849454
Si Si5 0.325051 0.418037 0.597366
O O1 0.372350 0.104754 0.834796
O O2 0.501954 0.123625 0.897641
O O3 0.390250 0.991918 0.884591
O O4 0.388520 0.087404 0.000000
O O5 0.253469 0.253469 0.250000
O O6 0.282946 0.141473 0.250000
O O7 0.371617 0.259230 0.165537
O O8 0.333334 0.666668 0.500000
O O9 0.356539 0.747335 0.358420
O O10 0.430187 0.860374 0.750000
O O11 0.359554 0.852782 0.893403
O O12 0.291783 0.394686 0.500000
#
# Coordination Sequence:
#
# PCOD8329641 Si02
#       5
#    24  24   8  24  24
#     4  10  21  37  58  83 110 145 189 235 284 334
#     4  10  22  39  61  88 115 145 179 223 275 331
#     4  12  28  41  49  72 106 152 202 241 287 337
#     4  12  23  37  54  74 108 149 195 244 289 337
#     4  10  21  37  58  83 110 145 189 235 284 334
#
# _framework density 18.479247000000001
#
# number of rings (size 3 to 8) (size 9 to 14) (size 15 to 20)
#    0.000    1.385    2.308    3.462    3.231    3.692 
#    0.000    0.000    0.000    0.231    0.000    0.000 
#    0.000    0.000    0.000   11.538    0.000    0.000 
#
# Total GULP energy -1289892.788749 kJ/mol
# GULP energy per Si atom -12402.815276 kJ/mol
# Density = 1.843719 g / cm^3
# Si number density = 18.479247 Si / 1000 Ang^3
#
#
#
# Elastic Constant Matrix: (Units=GPa)
#
#
# Indices 1 2 3 4 5 6 
#
# 1 87.7854 35.0978 26.3984 0.0000 -0.0001 0.0000
# 2 35.0978 87.7842 26.3986 -0.0001 -0.0002 -0.0004
# 3 26.3984 26.3986 130.5786 0.0000 0.0000 0.0000
# 4 0.0000 -0.0001 0.0000 15.2598 0.0000 0.0000
# 5 -0.0001 -0.0002 0.0000 0.0000 15.2597 0.0000
# 6 0.0000 -0.0004 0.0000 0.0000 0.0000 26.3431
#
#
#
# Elastic Compliance Matrix: (Units=1/GPa)
#
#
# Indices 1 2 3 4 5 6 
#
# 1 0.013946 -0.005034 -0.001802 0.000000 0.000000 0.000000
# 2 -0.005034 0.013946 -0.001802 0.000000 0.000000 0.000000
# 3 -0.001802 -0.001802 0.008387 0.000000 0.000000 0.000000
# 4 0.000000 0.000000 0.000000 0.065532 0.000000 0.000000
# 5 0.000000 0.000000 0.000000 0.000000 0.065532 0.000000
# 6 0.000000 0.000000 0.000000 0.000000 0.000000 0.037961
#
#
# Mechanical properties :
#
#
# Convention : Reuss Voigt Hill
#
# Bulk Modulus (GPa) = 52.62093 53.54865 53.08479
# Shear Modulus (GPa) = 21.84241 25.92274 23.88257
#
# Velocity S-wave (km/s) = 3.44175 3.74946 3.59890
# Velocity P-wave (km/s) = 6.65820 6.91269 6.78664
#
# Compressibility (1/GPa) = 0.01900384
#
# Stress axis : x y z
#
# Youngs Moduli (GPa) = 71.70583 71.70469 119.23632
#
# Poissons Ratio (x) = 0.36096 0.21482
# Poissons Ratio (y) = 0.36097 0.21483
# Poissons Ratio (z) = 0.12919 0.12919
#
# Static dielectric constant tensor:
#      x y z
#    x 3.234530 0.000000 0.000000 
#    y 0.000000 3.234520 0.000010 
#    z 0.000000 0.000010 3.716100 
# 
# 
# High freq. dielectric constant tensor:
#      x y z
#    x 1.696970 0.000000 0.000000 
#    y 0.000000 1.696970 0.000000 
#    z 0.000000 0.000000 1.743120 
# 
# From -- ./inp_files/2840.got.cif
#   From: 2010.03.12/outbox.cif.g09.slc.cpg/sg192_2_cif.got.tgz:2840.got - 2010.04.01 12:16:15.
