data_PCOD8329494
_publ_section_title
;
Structure prediction by ZEFSAII (Michael W. Deem and Ramdas Pophale) SiO2 
 PCOD8329494
Probable space group: P 6/M C C
;
_chemical_formula_sum "Si O2"
_cell_formula_units_Z 144
_cell_length_a 22.204706
_cell_length_b 22.204706
_cell_length_c 16.826766
_cell_angle_alpha 90.000000
_cell_angle_beta 90.000000
_cell_angle_gamma 120.000000
_cell_volume 7184.910152
_symmetry_space_group_name_H-M "P 6/M C C"
_symmetry_group_IT_number 192
_symmetry_cell_setting 'hexagonal'
loop_
_space_group_symop_operation_xyz
x,y,z
x-y,x,z
-y,x-y,z
-x,-y,z
-x+y,-x,z
y,-x+y,z
x-y,-y,1/2-z
-x,-x+y,1/2-z
y,x,1/2-z
-y,-x,1/2-z
-x+y,y,1/2-z
x,x-y,1/2-z
-x,-y,-z
-x+y,-x,-z
y,-x+y,-z
x,y,-z
x-y,x,-z
-y,x-y,-z
-x+y,y,1/2+z
x,x-y,1/2+z
-y,-x,1/2+z
y,x,1/2+z
x-y,-y,1/2+z
-x,-x+y,1/2+z
loop_
_atom_site_type_symbol
_atom_site_label
_atom_site_fract_x
_atom_site_fract_y
_atom_site_fract_z
Si Si1 0.001263 0.629347 0.341992
Si Si2 0.109700 0.505818 0.594499
Si Si3 0.653518 0.138820 0.093819
Si Si4 0.856050 0.875415 0.342330
Si Si5 0.295304 0.073983 0.092259
Si Si6 0.240940 0.804397 0.406095
O O1 0.963256 0.546967 0.363273
O O2 0.972316 0.668763 0.395570
O O3 0.000000 0.645452 0.250000
O O4 0.080149 0.662252 0.364730
O O5 0.098713 0.499949 0.500000
O O6 0.139678 0.584976 0.623882
O O7 0.162486 0.481539 0.626165
O O8 0.724665 0.206215 0.121634
O O9 0.650071 0.129012 0.000000
O O10 0.916932 0.863689 0.379177
O O11 0.872105 0.872105 0.250000
O O12 0.776642 0.816622 0.359342
O O13 0.354845 0.151935 0.122328
O O14 0.276984 0.074177 0.000000
O O15 0.243197 0.810073 0.500000
#
# Coordination Sequence:
#
# PCOD8329494 Si02
#       6
#    24  24  24  24  24  24
#     4  11  22  35  54  82 111 144 187 236 289 342
#     4   9  18  35  54  78 112 146 181 228 281 332
#     4  10  19  33  57  82 109 148 188 225 281 346
#     4  10  22  40  61  87 119 158 196 235 282 342
#     4  10  21  38  59  83 116 150 190 244 294 338
#     4   8  17  34  53  79 112 145 184 233 279 334
#
# _framework density 20.042005
#
# number of rings (size 3 to 8) (size 9 to 14) (size 15 to 20)
#    0.000    2.333    0.000    3.667    2.333    4.000 
#    1.000    2.500    0.000    1.000    0.000    0.000 
#    0.000    0.000    0.000    0.000    0.000    0.000 
#
# Total GULP energy -1784043.478047 kJ/mol
# GULP energy per Si atom -12389.190820 kJ/mol
# Density = 1.999639 g / cm^3
# Si number density = 20.042005 Si / 1000 Ang^3
#
#
#
# Elastic Constant Matrix: (Units=GPa)
#
#
# Indices 1 2 3 4 5 6 
#
# 1 103.2940 35.7600 9.1140 0.0000 0.0000 0.0000
# 2 35.7600 103.2940 9.1140 0.0000 0.0000 0.0000
# 3 9.1140 9.1140 14.3053 0.0000 0.0000 0.0000
# 4 0.0000 0.0000 0.0000 19.3424 0.0000 0.0000
# 5 0.0000 0.0000 0.0000 0.0000 19.3424 0.0000
# 6 0.0000 0.0000 0.0000 0.0000 0.0000 33.7670
#
#
#
# Elastic Compliance Matrix: (Units=1/GPa)
#
#
# Indices 1 2 3 4 5 6 
#
# 1 0.011327 -0.003480 -0.004999 0.000000 0.000000 0.000000
# 2 -0.003480 0.011327 -0.004999 0.000000 0.000000 0.000000
# 3 -0.004999 -0.004999 0.076274 0.000000 0.000000 0.000000
# 4 0.000000 0.000000 0.000000 0.051700 0.000000 0.000000
# 5 0.000000 0.000000 0.000000 0.000000 0.051700 0.000000
# 6 0.000000 0.000000 0.000000 0.000000 0.000000 0.029615
#
#
# Mechanical properties :
#
#
# Convention : Reuss Voigt Hill
#
# Bulk Modulus (GPa) = 13.89450 36.54102 25.21776
# Shear Modulus (GPa) = 17.67469 25.61740 21.64605
#
# Velocity S-wave (km/s) = 2.97287 3.57905 3.28995
# Velocity P-wave (km/s) = 4.32801 5.94569 5.20014
#
# Compressibility (1/GPa) = 0.07197094
#
# Stress axis : x y z
#
# Youngs Moduli (GPa) = 88.28413 88.28413 13.11059
#
# Poissons Ratio (x) = 0.30725 0.06554
# Poissons Ratio (y) = 0.30725 0.06554
# Poissons Ratio (z) = 0.44135 0.44135
#
# Static dielectric constant tensor:
#      x y z
#    x 3.815260 0.000000 0.000000 
#    y 0.000000 3.815260 0.000000 
#    z 0.000000 0.000000 3.368040 
# 
# 
# High freq. dielectric constant tensor:
#      x y z
#    x 1.787250 0.000000 0.000000 
#    y 0.000000 1.787250 0.000000 
#    z 0.000000 0.000000 1.750470 
# 
# From -- ./inp_files/4355.got.cif
#   From: 2010.03.12/outbox.cif.g09.slc.cpg/sg192_3_cif.got.tgz:4355.got - 2010.04.01 12:16:15.
