data_PCOD8329668
_publ_section_title
;
Structure prediction by ZEFSAII (Michael W. Deem and Ramdas Pophale) SiO2 
 PCOD8329668
Probable space group: P 6/M C C
;
_chemical_formula_sum "Si O2"
_cell_formula_units_Z 132
_cell_length_a 22.745175
_cell_length_b 22.745175
_cell_length_c 14.791099
_cell_angle_alpha 90.000000
_cell_angle_beta 90.000000
_cell_angle_gamma 120.000000
_cell_volume 6626.888154
_symmetry_space_group_name_H-M "P 6/M C C"
_symmetry_group_IT_number 192
_symmetry_cell_setting 'hexagonal'
loop_
_space_group_symop_operation_xyz
x,y,z
x-y,x,z
-y,x-y,z
-x,-y,z
-x+y,-x,z
y,-x+y,z
x-y,-y,1/2-z
-x,-x+y,1/2-z
y,x,1/2-z
-y,-x,1/2-z
-x+y,y,1/2-z
x,x-y,1/2-z
-x,-y,-z
-x+y,-x,-z
y,-x+y,-z
x,y,-z
x-y,x,-z
-y,x-y,-z
-x+y,y,1/2+z
x,x-y,1/2+z
-y,-x,1/2+z
y,x,1/2+z
x-y,-y,1/2+z
-x,-x+y,1/2+z
loop_
_atom_site_type_symbol
_atom_site_label
_atom_site_fract_x
_atom_site_fract_y
_atom_site_fract_z
Si Si1 0.844276 0.903692 0.500000
Si Si2 0.857130 0.584013 0.146434
Si Si3 0.422795 0.143092 0.854740
Si Si4 0.465861 0.666752 0.500000
Si Si5 0.844477 0.056278 0.688623
Si Si6 0.994911 0.701650 0.601558
Si Si7 0.197171 0.527791 0.000000
O O1 0.899505 0.882294 0.500000
O O2 0.801435 0.879996 0.591743
O O3 0.801557 0.608109 0.126567
O O4 0.855489 0.561589 0.249252
O O5 0.932488 0.642705 0.122539
O O6 0.838250 0.517893 0.087759
O O7 0.374823 0.066722 0.889972
O O8 0.491908 0.168947 0.908902
O O9 0.441195 0.721819 0.500000
O O10 0.405760 0.590340 0.500000
O O11 0.875396 0.124605 0.750000
O O12 0.764518 0.021489 0.674632
O O13 0.852660 0.000000 0.750000
O O14 0.996821 0.728947 0.500000
#
# Coordination Sequence:
#
# PCOD8329668 Si02
#       7
#    12  24  24  12  24  24  12
#     4  12  25  44  62  82 110 152 209 260 324 406
#     4  10  22  41  64  92 131 177 215 269 330 393
#     4  10  22  40  62  92 132 171 219 267 325 392
#     4  10  21  40  66 100 135 170 214 270 318 386
#     4  12  26  42  63  91 125 159 207 273 336 396
#     4  12  24  40  66  95 127 167 219 268 335 399
#     4  10  21  40  68 100 135 172 218 264 328 384
#
# _framework density 19.918851
#
# number of rings (size 3 to 8) (size 9 to 14) (size 15 to 20)
#    0.000    1.091    4.545    1.909    5.091    0.727 
#    0.000    1.818    0.000    4.364    0.000    0.000 
#    0.000    0.000    0.000    0.000    0.000    0.000 
#
# Total GULP energy -1636219.210467 kJ/mol
# GULP energy per Si atom -12395.600079 kJ/mol
# Density = 1.987352 g / cm^3
# Si number density = 19.918851 Si / 1000 Ang^3
#
#
#
# Elastic Constant Matrix: (Units=GPa)
#
#
# Indices 1 2 3 4 5 6 
#
# 1 129.3268 69.3391 58.4498 0.0000 0.0000 0.0000
# 2 69.3391 129.3268 58.4498 0.0000 0.0000 0.0000
# 3 58.4498 58.4498 175.4123 0.0000 0.0000 0.0000
# 4 0.0000 0.0000 0.0000 26.8462 0.0000 0.0000
# 5 0.0000 0.0000 0.0000 0.0000 26.8462 0.0000
# 6 0.0000 0.0000 0.0000 0.0000 0.0000 29.9939
#
#
#
# Elastic Compliance Matrix: (Units=1/GPa)
#
#
# Indices 1 2 3 4 5 6 
#
# 1 0.011466 -0.005204 -0.002086 0.000000 0.000000 0.000000
# 2 -0.005204 0.011466 -0.002086 0.000000 0.000000 0.000000
# 3 -0.002086 -0.002086 0.007091 0.000000 0.000000 0.000000
# 4 0.000000 0.000000 0.000000 0.037249 0.000000 0.000000
# 5 0.000000 0.000000 0.000000 0.000000 0.037249 0.000000
# 6 0.000000 0.000000 0.000000 0.000000 0.000000 0.033340
#
#
# Mechanical properties :
#
#
# Convention : Reuss Voigt Hill
#
# Bulk Modulus (GPa) = 88.74393 89.61592 89.17992
# Shear Modulus (GPa) = 31.17762 33.25907 32.21834
#
# Velocity S-wave (km/s) = 3.96059 4.09066 4.02615
# Velocity P-wave (km/s) = 8.09719 8.20972 8.15365
#
# Compressibility (1/GPa) = 0.01126838
#
# Stress axis : x y z
#
# Youngs Moduli (GPa) = 87.21708 87.21708 141.01916
#
# Poissons Ratio (x) = 0.45392 0.29421
# Poissons Ratio (y) = 0.45392 0.29421
# Poissons Ratio (z) = 0.18196 0.18196
#
# Static dielectric constant tensor:
#      x y z
#    x 3.470080 0.000000 0.000000 
#    y 0.000000 3.470080 0.000000 
#    z 0.000000 0.000000 3.812470 
# 
# 
# High freq. dielectric constant tensor:
#      x y z
#    x 1.760330 0.000000 0.000000 
#    y 0.000000 1.760330 0.000000 
#    z 0.000000 0.000000 1.812140 
# 
# From -- ./inp_files/3289.got.cif
#   From: 2010.03.12/outbox.cif.g09.slc.cpg/sg192_2_cif.got.tgz:3289.got - 2010.04.01 12:16:15.
