data_PCOD8329450
_publ_section_title
;
Structure prediction by ZEFSAII (Michael W. Deem and Ramdas Pophale) SiO2 
 PCOD8329450
Probable space group: P 6/M C C
;
_chemical_formula_sum "Si O2"
_cell_formula_units_Z 168
_cell_length_a 21.135928
_cell_length_b 21.135928
_cell_length_c 28.053925
_cell_angle_alpha 90.000000
_cell_angle_beta 90.000000
_cell_angle_gamma 120.000000
_cell_volume 10853.427386
_symmetry_space_group_name_H-M "P 6/M C C"
_symmetry_group_IT_number 192
_symmetry_cell_setting 'hexagonal'
loop_
_space_group_symop_operation_xyz
x,y,z
x-y,x,z
-y,x-y,z
-x,-y,z
-x+y,-x,z
y,-x+y,z
x-y,-y,1/2-z
-x,-x+y,1/2-z
y,x,1/2-z
-y,-x,1/2-z
-x+y,y,1/2-z
x,x-y,1/2-z
-x,-y,-z
-x+y,-x,-z
y,-x+y,-z
x,y,-z
x-y,x,-z
-y,x-y,-z
-x+y,y,1/2+z
x,x-y,1/2+z
-y,-x,1/2+z
y,x,1/2+z
x-y,-y,1/2+z
-x,-x+y,1/2+z
loop_
_atom_site_type_symbol
_atom_site_label
_atom_site_fract_x
_atom_site_fract_y
_atom_site_fract_z
Si Si1 0.169668 0.452927 0.100968
Si Si2 0.453212 0.539806 0.604972
Si Si3 0.214941 0.916005 0.056208
Si Si4 0.741909 0.498335 0.303126
Si Si5 0.537634 0.841602 0.056540
Si Si6 0.589571 0.165235 0.697723
Si Si7 0.297397 0.221242 0.444226
O O1 0.128249 0.497305 0.088266
O O2 0.112382 0.373004 0.084275
O O3 0.187332 0.447401 0.156989
O O4 0.246745 0.488504 0.072384
O O5 0.500000 0.500000 0.592932
O O6 0.489123 0.617163 0.579002
O O7 0.449167 0.546994 0.661842
O O8 0.129258 0.864058 0.067972
O O9 0.241005 0.996611 0.076495
O O10 0.229149 0.913981 0.000000
O O11 0.767049 0.534098 0.250000
O O12 0.659856 0.429719 0.303407
O O13 0.798277 0.472037 0.317373
O O14 0.620708 0.891578 0.075955
O O15 0.532244 0.843859 0.000000
O O16 0.564811 0.129621 0.750000
O O17 0.302842 0.234280 0.500000
#
# Coordination Sequence:
#
# PCOD8329450 Si02
#       7
#    24  24  24  24  24  24  24
#     4  10  19  32  47  65  91 120 154 193 231 277
#     4  11  22  33  48  71  97 125 156 197 247 290
#     4   9  16  28  46  67  89 117 149 183 220 267
#     4   9  16  28  47  66  84 113 151 194 234 275
#     4  10  20  34  48  65  90 123 161 196 233 277
#     4   9  17  30  48  69  92 118 154 197 243 286
#     4   8  15  27  45  65  87 116 151 185 217 260
#
# _framework density 15.478980999999999
#
# number of rings (size 3 to 8) (size 9 to 14) (size 15 to 20)
#    0.000    2.571    1.429    2.429    0.000    2.857 
#    0.857    0.000    0.000    0.286    0.000    2.000 
#    0.000    0.000    0.000    0.000    0.000    0.000 
#
# Total GULP energy -2081232.844355 kJ/mol
# GULP energy per Si atom -12388.290740 kJ/mol
# Density = 1.544375 g / cm^3
# Si number density = 15.478981 Si / 1000 Ang^3
#
#
#
# Elastic Constant Matrix: (Units=GPa)
#
#
# Indices 1 2 3 4 5 6 
#
# 1 107.2412 69.0131 36.1907 0.0000 0.0000 0.0000
# 2 69.0131 107.2412 36.1907 0.0000 0.0000 0.0000
# 3 36.1907 36.1907 63.7609 0.0000 0.0000 0.0000
# 4 0.0000 0.0000 0.0000 15.2987 0.0000 0.0000
# 5 0.0000 0.0000 0.0000 0.0000 15.2987 0.0000
# 6 0.0000 0.0000 0.0000 0.0000 0.0000 19.1141
#
#
#
# Elastic Compliance Matrix: (Units=1/GPa)
#
#
# Indices 1 2 3 4 5 6 
#
# 1 0.016778 -0.009380 -0.004199 0.000000 0.000000 0.000000
# 2 -0.009380 0.016778 -0.004199 0.000000 0.000000 0.000000
# 3 -0.004199 -0.004199 0.020450 0.000000 0.000000 0.000000
# 4 0.000000 0.000000 0.000000 0.065365 0.000000 0.000000
# 5 0.000000 0.000000 0.000000 0.000000 0.065365 0.000000
# 6 0.000000 0.000000 0.000000 0.000000 0.000000 0.052317
#
#
# Mechanical properties :
#
#
# Convention : Reuss Voigt Hill
#
# Bulk Modulus (GPa) = 54.20050 62.33694 58.26872
# Shear Modulus (GPa) = 17.93644 19.06555 18.50099
#
# Velocity S-wave (km/s) = 3.40775 3.51337 3.46097
# Velocity P-wave (km/s) = 7.11163 7.53776 7.32779
#
# Compressibility (1/GPa) = 0.01845001
#
# Stress axis : x y z
#
# Youngs Moduli (GPa) = 59.60042 59.60042 48.89862
#
# Poissons Ratio (x) = 0.55907 0.20533
# Poissons Ratio (y) = 0.55907 0.20533
# Poissons Ratio (z) = 0.25027 0.25027
#
# Static dielectric constant tensor:
#      x y z
#    x 3.035080 0.000000 0.000000 
#    y 0.000000 3.035080 0.000000 
#    z 0.000000 0.000000 3.033700 
# 
# 
# High freq. dielectric constant tensor:
#      x y z
#    x 1.582200 0.000000 0.000000 
#    y 0.000000 1.582200 0.000000 
#    z 0.000000 0.000000 1.584180 
# 
# From -- ./inp_files/6628.got.cif
#   From: 2010.03.12/outbox.cif.g09.slc.cpg/sg192_4_cif.got.tgz:6628.got - 2010.04.01 12:16:15.
