data_PCOD8329254
_publ_section_title
;
Structure prediction by ZEFSAII (Michael W. Deem and Ramdas Pophale) SiO2 
 PCOD8329254
Probable space group: P 6/M M M
;
_chemical_formula_sum "Si O2"
_cell_formula_units_Z 84
_cell_length_a 22.154194
_cell_length_b 22.154194
_cell_length_c 12.556115
_cell_angle_alpha 90.000000
_cell_angle_beta 90.000000
_cell_angle_gamma 120.000000
_cell_volume 5337.007649
_symmetry_space_group_name_H-M "P 6/M M M"
_symmetry_group_IT_number 191
_symmetry_cell_setting 'hexagonal'
loop_
_space_group_symop_operation_xyz
x,y,z
x-y,x,z
-y,x-y,z
-x,-y,z
-x+y,-x,z
y,-x+y,z
x-y,-y,-z
-x,-x+y,-z
y,x,-z
-y,-x,-z
-x+y,y,-z
x,x-y,-z
-x,-y,-z
-x+y,-x,-z
y,-x+y,-z
x,y,-z
x-y,x,-z
-y,x-y,-z
-x+y,y,z
x,x-y,z
-y,-x,z
y,x,z
x-y,-y,z
-x,-x+y,z
loop_
_atom_site_type_symbol
_atom_site_label
_atom_site_fract_x
_atom_site_fract_y
_atom_site_fract_z
Si Si1 0.920639 0.389986 0.621837
Si Si2 0.531340 0.611913 0.000000
Si Si3 0.563462 0.851249 0.804862
Si Si4 0.714328 0.791339 0.877986
O O1 0.910763 0.364816 0.500000
O O2 0.904564 0.452282 0.634804
O O3 0.865007 0.325730 0.691666
O O4 0.000000 0.416272 0.659355
O O5 0.532383 0.654910 0.102918
O O6 0.595260 0.595260 0.000000
O O7 0.459594 0.540407 0.000000
O O8 0.538078 0.769039 0.818118
O O9 0.646924 0.896130 0.805089
O O10 0.748582 0.874291 0.863008
O O11 0.772449 0.772449 0.843263
O O12 0.689701 0.769480 0.000000
#
# Coordination Sequence:
#
# PCOD8329254 Si02
#       4
#    24  12  24  24
#     4   9  18  33  52  71  90 116 154 198 237 272
#     4  11  21  32  50  72  92 117 151 195 240 276
#     4  11  20  30  46  69  96 122 149 183 230 285
#     4   9  16  26  41  62  89 118 146 177 215 261
#
# _framework density 15.739155999999999
#
# number of rings (size 3 to 8) (size 9 to 14) (size 15 to 20)
#    0.000    2.143    1.429    4.714    0.000    2.857 
#    0.000    0.000    0.000    8.286    0.000    2.000 
#    0.000    0.000    0.000    0.000    0.000    0.000 
#
# Total GULP energy -1041471.117706 kJ/mol
# GULP energy per Si atom -12398.465687 kJ/mol
# Density = 1.570333 g / cm^3
# Si number density = 15.739156 Si / 1000 Ang^3
#
#
#
# Elastic Constant Matrix: (Units=GPa)
#
#
# Indices 1 2 3 4 5 6 
#
# 1 93.6217 42.3206 42.4871 0.0000 0.0000 0.0000
# 2 42.3206 93.6217 42.4871 0.0000 0.0000 0.0000
# 3 42.4871 42.4871 80.8008 0.0000 0.0000 0.0000
# 4 0.0000 0.0000 0.0000 20.1728 0.0000 0.0000
# 5 0.0000 0.0000 0.0000 0.0000 20.1728 0.0000
# 6 0.0000 0.0000 0.0000 0.0000 0.0000 25.6506
#
#
#
# Elastic Compliance Matrix: (Units=1/GPa)
#
#
# Indices 1 2 3 4 5 6 
#
# 1 0.015225 -0.004268 -0.005762 0.000000 0.000000 0.000000
# 2 -0.004268 0.015225 -0.005762 0.000000 0.000000 0.000000
# 3 -0.005762 -0.005762 0.018435 0.000000 0.000000 0.000000
# 4 0.000000 0.000000 0.000000 0.049572 0.000000 0.000000
# 5 0.000000 0.000000 0.000000 0.000000 0.049572 0.000000
# 6 0.000000 0.000000 0.000000 0.000000 0.000000 0.038985
#
#
# Mechanical properties :
#
#
# Convention : Reuss Voigt Hill
#
# Bulk Modulus (GPa) = 57.79152 58.07041 57.93097
# Shear Modulus (GPa) = 22.28514 22.58255 22.43384
#
# Velocity S-wave (km/s) = 3.76693 3.79199 3.77948
# Velocity P-wave (km/s) = 7.46443 7.49318 7.47882
#
# Compressibility (1/GPa) = 0.01730358
#
# Stress axis : x y z
#
# Youngs Moduli (GPa) = 65.68070 65.68070 54.24319
#
# Poissons Ratio (x) = 0.28030 0.31254
# Poissons Ratio (y) = 0.28030 0.31254
# Poissons Ratio (z) = 0.37844 0.37844
#
# Static dielectric constant tensor:
#      x y z
#    x 2.984990 0.000000 0.000000 
#    y 0.000000 2.984990 0.000000 
#    z 0.000000 0.000000 2.897550 
# 
# 
# High freq. dielectric constant tensor:
#      x y z
#    x 1.595430 0.000000 0.000000 
#    y 0.000000 1.595430 0.000000 
#    z 0.000000 0.000000 1.592430 
# 
# From -- ./inp_files/2395.got.cif
#   From: 2010.03.12/outbox.cif.g09.slc.cpg/sg191_2_cif.got.tgz:2395.got - 2010.04.01 12:09:02.
