data_PCOD8329700
_publ_section_title
;
Structure prediction by ZEFSAII (Michael W. Deem and Ramdas Pophale) SiO2 
 PCOD8329700
Probable space group: P 6/M C C
;
_chemical_formula_sum "Si O2"
_cell_formula_units_Z 42
_cell_length_a 10.297290
_cell_length_b 10.297290
_cell_length_c 18.945833
_cell_angle_alpha 90.000000
_cell_angle_beta 90.000000
_cell_angle_gamma 120.000000
_cell_volume 1739.763536
_symmetry_space_group_name_H-M "P 6/M C C"
_symmetry_group_IT_number 192
_symmetry_cell_setting 'hexagonal'
loop_
_space_group_symop_operation_xyz
x,y,z
x-y,x,z
-y,x-y,z
-x,-y,z
-x+y,-x,z
y,-x+y,z
x-y,-y,1/2-z
-x,-x+y,1/2-z
y,x,1/2-z
-y,-x,1/2-z
-x+y,y,1/2-z
x,x-y,1/2-z
-x,-y,-z
-x+y,-x,-z
y,-x+y,-z
x,y,-z
x-y,x,-z
-y,x-y,-z
-x+y,y,1/2+z
x,x-y,1/2+z
-y,-x,1/2+z
y,x,1/2+z
x-y,-y,1/2+z
-x,-x+y,1/2+z
loop_
_atom_site_type_symbol
_atom_site_label
_atom_site_fract_x
_atom_site_fract_y
_atom_site_fract_z
Si Si1 0.500000 0.000000 0.250000
Si Si2 0.747930 0.083416 0.352511
Si Si3 0.513452 0.695819 0.500000
O O1 0.359862 0.890298 0.299997
O O2 0.709220 0.097369 0.432755
O O3 0.918732 0.199855 0.335880
O O4 0.466490 0.825797 0.500000
#
# Coordination Sequence:
#
# PCOD8329700 Si02
#       3
#     6  24  12
#     4  12  28  46  70 104 148 202 240 296 372 450
#     4  12  26  49  78 111 149 193 251 310 373 439
#     4  10  24  46  78 111 152 194 241 302 372 443
#
# _framework density 24.141211999999999
#
# number of rings (size 3 to 8) (size 9 to 14) (size 15 to 20)
#    0.571    0.000    0.000    7.429    0.000    3.429 
#   13.714    5.714    0.000    0.000    0.000    0.000 
#    0.000    0.000    0.000    0.000    0.000    0.000 
#
# Total GULP energy -520951.140121 kJ/mol
# GULP energy per Si atom -12403.598574 kJ/mol
# Density = 2.408627 g / cm^3
# Si number density = 24.141212 Si / 1000 Ang^3
#
#
#
# Elastic Constant Matrix: (Units=GPa)
#
#
# Indices 1 2 3 4 5 6 
#
# 1 151.4427 68.9076 60.9111 0.0000 0.0000 0.0000
# 2 68.9076 151.4427 60.9111 0.0000 0.0000 0.0000
# 3 60.9111 60.9111 155.5662 0.0000 0.0000 0.0000
# 4 0.0000 0.0000 0.0000 36.5990 0.0000 0.0000
# 5 0.0000 0.0000 0.0000 0.0000 36.5990 0.0000
# 6 0.0000 0.0000 0.0000 0.0000 0.0000 41.2676
#
#
#
# Elastic Compliance Matrix: (Units=1/GPa)
#
#
# Indices 1 2 3 4 5 6 
#
# 1 0.008954 -0.003162 -0.002268 0.000000 0.000000 0.000000
# 2 -0.003162 0.008954 -0.002268 0.000000 0.000000 0.000000
# 3 -0.002268 -0.002268 0.008204 0.000000 0.000000 0.000000
# 4 0.000000 0.000000 0.000000 0.027323 0.000000 0.000000
# 5 0.000000 0.000000 0.000000 0.000000 0.027323 0.000000
# 6 0.000000 0.000000 0.000000 0.000000 0.000000 0.024232
#
#
# Mechanical properties :
#
#
# Convention : Reuss Voigt Hill
#
# Bulk Modulus (GPa) = 93.31189 93.32347 93.31768
# Shear Modulus (GPa) = 40.33618 40.74122 40.53870
#
# Velocity S-wave (km/s) = 4.09203 4.11252 4.10229
# Velocity P-wave (km/s) = 7.81426 7.82890 7.82159
#
# Compressibility (1/GPa) = 0.01071675
#
# Stress axis : x y z
#
# Youngs Moduli (GPa) = 111.68149 111.68149 121.89110
#
# Poissons Ratio (x) = 0.35314 0.27643
# Poissons Ratio (y) = 0.35314 0.27643
# Poissons Ratio (z) = 0.25327 0.25327
#
# Static dielectric constant tensor:
#      x y z
#    x 4.347580 0.000000 0.000000 
#    y 0.000000 4.347580 0.000000 
#    z 0.000000 0.000000 4.443250 
# 
# 
# High freq. dielectric constant tensor:
#      x y z
#    x 1.959160 0.000000 0.000000 
#    y 0.000000 1.959160 0.000000 
#    z 0.000000 0.000000 1.984830 
# 
# From -- ./inp_files/3654.got.cif
#   From: 2010.03.12/outbox.cif.g09.slc.cpg/sg192_2_cif.got.tgz:3654.got - 2010.04.01 12:16:15.
