data_PCOD8329063
_publ_section_title
;
Structure prediction by ZEFSAII (Michael W. Deem and Ramdas Pophale) SiO2 
 PCOD8329063
Probable space group: P 6/M M M
;
_chemical_formula_sum "Si O2"
_cell_formula_units_Z 132
_cell_length_a 17.868564
_cell_length_b 17.868564
_cell_length_c 27.686561
_cell_angle_alpha 90.000000
_cell_angle_beta 90.000000
_cell_angle_gamma 120.000000
_cell_volume 7655.595003
_symmetry_space_group_name_H-M "P 6/M M M"
_symmetry_group_IT_number 191
_symmetry_cell_setting 'hexagonal'
loop_
_space_group_symop_operation_xyz
x,y,z
x-y,x,z
-y,x-y,z
-x,-y,z
-x+y,-x,z
y,-x+y,z
x-y,-y,-z
-x,-x+y,-z
y,x,-z
-y,-x,-z
-x+y,y,-z
x,x-y,-z
-x,-y,-z
-x+y,-x,-z
y,-x+y,-z
x,y,-z
x-y,x,-z
-y,x-y,-z
-x+y,y,z
x,x-y,z
-y,-x,z
y,x,z
x-y,-y,z
-x,-x+y,z
loop_
_atom_site_type_symbol
_atom_site_label
_atom_site_fract_x
_atom_site_fract_y
_atom_site_fract_z
Si Si1 0.333165 0.837730 0.945001
Si Si2 0.634059 0.902654 0.588343
Si Si3 0.639731 0.734830 0.136656
Si Si4 0.504156 0.837510 0.218032
Si Si5 0.331471 0.839510 0.500000
Si Si6 0.837622 0.504447 0.328300
O O1 0.425214 0.850428 0.930005
O O2 0.262811 0.737190 0.938084
O O3 0.311635 0.896069 0.910756
O O4 0.333994 0.867494 0.000000
O O5 0.668644 0.834322 0.585040
O O6 0.564991 0.884700 0.546839
O O7 0.587727 0.895599 0.639207
O O8 0.715050 0.000000 0.583324
O O9 0.673066 0.836533 0.136456
O O10 0.723414 0.723414 0.136655
O O11 0.584861 0.688994 0.184303
O O12 0.425169 0.850338 0.202254
O O13 0.473981 0.736991 0.211196
O O14 0.531630 0.867055 0.273155
O O15 0.262388 0.737612 0.500000
O O16 0.426748 0.853495 0.500000
O O17 0.736667 0.473334 0.335149
O O18 0.851198 0.425599 0.344254
#
# Coordination Sequence:
#
# PCOD8329063 Si02
#       6
#    24  24  24  24  12  24
#     4   9  17  29  46  69  98 131 162 187 211 246
#     4  10  21  35  50  69  93 122 156 196 242 285
#     4  10  21  35  49  66  89 117 150 190 237 283
#     4   9  17  29  46  69  98 131 162 188 215 254
#     4  10  20  33  50  73 102 134 163 188 216 257
#     4   9  17  29  46  69  98 131 163 191 219 256
#
# _framework density 17.242291000000002
#
# number of rings (size 3 to 8) (size 9 to 14) (size 15 to 20)
#    0.000    2.545    0.000    2.000    0.000    6.545 
#    0.000    6.364    0.000    0.364    0.000    0.000 
#    0.000    2.182    0.000   13.636    0.000    0.000 
#
# Total GULP energy -1636804.419978 kJ/mol
# GULP energy per Si atom -12400.033485 kJ/mol
# Density = 1.720305 g / cm^3
# Si number density = 17.242291 Si / 1000 Ang^3
#
#
#
# Elastic Constant Matrix: (Units=GPa)
#
#
# Indices 1 2 3 4 5 6 
#
# 1 98.0146 71.4635 39.9094 0.0000 0.0000 0.0000
# 2 71.4635 98.0146 39.9094 0.0000 0.0000 0.0000
# 3 39.9094 39.9094 87.6736 0.0000 0.0000 0.0000
# 4 0.0000 0.0000 0.0000 13.6917 0.0000 0.0000
# 5 0.0000 0.0000 0.0000 0.0000 13.6917 0.0000
# 6 0.0000 0.0000 0.0000 0.0000 0.0000 13.2756
#
#
#
# Elastic Compliance Matrix: (Units=1/GPa)
#
#
# Indices 1 2 3 4 5 6 
#
# 1 0.022587 -0.015076 -0.003419 0.000000 0.000000 0.000000
# 2 -0.015076 0.022587 -0.003419 0.000000 0.000000 0.000000
# 3 -0.003419 -0.003419 0.014519 0.000000 0.000000 0.000000
# 4 0.000000 0.000000 0.000000 0.073037 0.000000 0.000000
# 5 0.000000 0.000000 0.000000 0.000000 0.073037 0.000000
# 6 0.000000 0.000000 0.000000 0.000000 0.000000 0.075326
#
#
# Mechanical properties :
#
#
# Convention : Reuss Voigt Hill
#
# Bulk Modulus (GPa) = 63.03459 65.14080 64.08770
# Shear Modulus (GPa) = 15.14195 16.95985 16.05090
#
# Velocity S-wave (km/s) = 2.96664 3.13967 3.05438
# Velocity P-wave (km/s) = 6.95500 7.14178 7.04901
#
# Compressibility (1/GPa) = 0.01586430
#
# Stress axis : x y z
#
# Youngs Moduli (GPa) = 44.27339 44.27339 68.87763
#
# Poissons Ratio (x) = 0.66748 0.23548
# Poissons Ratio (y) = 0.66748 0.23548
# Poissons Ratio (z) = 0.15137 0.15137
#
# Static dielectric constant tensor:
#      x y z
#    x 3.003760 0.000000 0.000000 
#    y 0.000000 3.003760 0.000000 
#    z 0.000000 0.000000 3.535610 
# 
# 
# High freq. dielectric constant tensor:
#      x y z
#    x 1.638870 0.000000 0.000000 
#    y 0.000000 1.638870 0.000000 
#    z 0.000000 0.000000 1.686460 
# 
# From -- ./inp_files/9836.got.cif
#   From: 2010.03.12/outbox.cif.g09.slc.cpg/sg191_5_cif.got.tgz:9836.got - 2010.04.01 12:09:02.
