data_PCOD8329457
_publ_section_title
;
Structure prediction by ZEFSAII (Michael W. Deem and Ramdas Pophale) SiO2 
 PCOD8329457
Probable space group: P 6/M C C
;
_chemical_formula_sum "Si O2"
_cell_formula_units_Z 144
_cell_length_a 32.345607
_cell_length_b 32.345607
_cell_length_c 8.704178
_cell_angle_alpha 90.000000
_cell_angle_beta 90.000000
_cell_angle_gamma 120.000000
_cell_volume 7886.585329
_symmetry_space_group_name_H-M "P 6/M C C"
_symmetry_group_IT_number 192
_symmetry_cell_setting 'hexagonal'
loop_
_space_group_symop_operation_xyz
x,y,z
x-y,x,z
-y,x-y,z
-x,-y,z
-x+y,-x,z
y,-x+y,z
x-y,-y,1/2-z
-x,-x+y,1/2-z
y,x,1/2-z
-y,-x,1/2-z
-x+y,y,1/2-z
x,x-y,1/2-z
-x,-y,-z
-x+y,-x,-z
y,-x+y,-z
x,y,-z
x-y,x,-z
-y,x-y,-z
-x+y,y,1/2+z
x,x-y,1/2+z
-y,-x,1/2+z
y,x,1/2+z
x-y,-y,1/2+z
-x,-x+y,1/2+z
loop_
_atom_site_type_symbol
_atom_site_label
_atom_site_fract_x
_atom_site_fract_y
_atom_site_fract_z
Si Si1 0.615041 0.565774 0.320071
Si Si2 0.384353 0.286411 0.678643
Si Si3 0.898022 0.708170 0.318183
Si Si4 0.383554 0.527174 0.317997
Si Si5 0.283335 0.806141 0.680666
Si Si6 0.808876 0.949339 0.316855
O O1 0.573940 0.573940 0.250000
O O2 0.611069 0.566640 0.500000
O O3 0.667258 0.607818 0.270025
O O4 0.606583 0.514821 0.261557
O O5 0.387858 0.298754 0.500000
O O6 0.332716 0.243035 0.723343
O O7 0.424362 0.272862 0.725041
O O8 0.846230 0.692459 0.250000
O O9 0.897420 0.715958 0.500000
O O10 0.937935 0.756737 0.239558
O O11 0.423210 0.576791 0.250000
O O12 0.383303 0.530007 0.500000
O O13 0.332909 0.516961 0.253904
O O14 0.242400 0.757601 0.750000
O O15 0.285570 0.800701 0.500000
O O16 0.820903 0.910452 0.250000
O O17 0.810682 0.949421 0.500000
O O18 0.848193 0.000000 0.250000
#
# Coordination Sequence:
#
# PCOD8329457 Si02
#       6
#    24  24  24  24  24  24
#     4  10  21  35  52  73 101 136 177 221 266 312
#     4   9  19  33  50  73 105 142 180 219 261 305
#     4  10  19  32  50  75 105 139 176 215 256 303
#     4  10  21  37  56  79 104 135 173 216 264 316
#     4  10  19  33  54  80 108 139 173 214 260 312
#     4  11  22  38  58  81 107 138 174 214 258 307
#
# _framework density 18.258853999999999
#
# number of rings (size 3 to 8) (size 9 to 14) (size 15 to 20)
#    0.000    2.000    0.000    5.000    0.000    5.000 
#    0.000    1.667    0.000    0.500    0.000    3.500 
#    0.000    0.000    0.000    0.000    0.000    0.000 
#
# Total GULP energy -1786122.884651 kJ/mol
# GULP energy per Si atom -12403.631143 kJ/mol
# Density = 1.821730 g / cm^3
# Si number density = 18.258854 Si / 1000 Ang^3
#
#
#
# Elastic Constant Matrix: (Units=GPa)
#
#
# Indices 1 2 3 4 5 6 
#
# 1 103.1706 64.2773 43.0687 0.0000 0.0000 0.0000
# 2 64.2773 103.1706 43.0687 0.0000 0.0000 0.0000
# 3 43.0687 43.0687 96.5255 0.0000 0.0000 0.0000
# 4 0.0000 0.0000 0.0000 32.5495 0.0000 0.0000
# 5 0.0000 0.0000 0.0000 0.0000 32.5495 0.0000
# 6 0.0000 0.0000 0.0000 0.0000 0.0000 19.4467
#
#
#
# Elastic Compliance Matrix: (Units=1/GPa)
#
#
# Indices 1 2 3 4 5 6 
#
# 1 0.016731 -0.008980 -0.003458 0.000000 0.000000 0.000000
# 2 -0.008980 0.016731 -0.003458 0.000000 0.000000 0.000000
# 3 -0.003458 -0.003458 0.013446 0.000000 0.000000 0.000000
# 4 0.000000 0.000000 0.000000 0.030722 0.000000 0.000000
# 5 0.000000 0.000000 0.000000 0.000000 0.030722 0.000000
# 6 0.000000 0.000000 0.000000 0.000000 0.000000 0.051423
#
#
# Mechanical properties :
#
#
# Convention : Reuss Voigt Hill
#
# Bulk Modulus (GPa) = 66.16138 67.07735 66.61936
# Shear Modulus (GPa) = 25.43123 27.07258 26.25191
#
# Velocity S-wave (km/s) = 3.73609 3.85477 3.79590
# Velocity P-wave (km/s) = 7.41115 7.52523 7.46840
#
# Compressibility (1/GPa) = 0.01511456
#
# Stress axis : x y z
#
# Youngs Moduli (GPa) = 59.76849 59.76849 74.37037
#
# Poissons Ratio (x) = 0.53673 0.25721
# Poissons Ratio (y) = 0.53673 0.25721
# Poissons Ratio (z) = 0.20671 0.20671
#
# Static dielectric constant tensor:
#      x y z
#    x 3.360990 0.000000 0.000000 
#    y 0.000000 3.360990 0.000000 
#    z 0.000000 0.000000 3.461980 
# 
# 
# High freq. dielectric constant tensor:
#      x y z
#    x 1.700140 0.000000 0.000000 
#    y 0.000000 1.700140 0.000000 
#    z 0.000000 0.000000 1.723020 
# 
# From -- ./inp_files/1134.got.cif
#   From: 2010.03.12/outbox.cif.g09.slc.cpg/sg192_1_cif.got.tgz:1134.got - 2010.04.01 12:16:15.
