data_PCOD8329018
_publ_section_title
;
Structure prediction by ZEFSAII (Michael W. Deem and Ramdas Pophale) SiO2 
 PCOD8329018
Probable space group: P 6/M M M
;
_chemical_formula_sum "Si O2"
_cell_formula_units_Z 168
_cell_length_a 18.079784
_cell_length_b 18.079784
_cell_length_c 35.974131
_cell_angle_alpha 90.000000
_cell_angle_beta 90.000000
_cell_angle_gamma 120.000000
_cell_volume 10183.742718
_symmetry_space_group_name_H-M "P 6/M M M"
_symmetry_group_IT_number 191
_symmetry_cell_setting 'hexagonal'
loop_
_space_group_symop_operation_xyz
x,y,z
x-y,x,z
-y,x-y,z
-x,-y,z
-x+y,-x,z
y,-x+y,z
x-y,-y,-z
-x,-x+y,-z
y,x,-z
-y,-x,-z
-x+y,y,-z
x,x-y,-z
-x,-y,-z
-x+y,-x,-z
y,-x+y,-z
x,y,-z
x-y,x,-z
-y,x-y,-z
-x+y,y,z
x,x-y,z
-y,-x,z
y,x,z
x-y,-y,z
-x,-x+y,z
loop_
_atom_site_type_symbol
_atom_site_label
_atom_site_fract_x
_atom_site_fract_y
_atom_site_fract_z
Si Si1 0.668588 0.506791 0.261170
Si Si2 0.645779 0.741735 0.041932
Si Si3 0.833665 0.502089 0.179226
Si Si4 0.532098 0.900338 0.896725
Si Si5 0.100219 0.468020 0.393312
Si Si6 0.738073 0.641640 0.542426
Si Si7 0.732953 0.634563 0.325437
O O1 0.739254 0.478507 0.268187
O O2 0.575449 0.424552 0.267282
O O3 0.679388 0.546630 0.219477
O O4 0.683147 0.581999 0.288929
O O5 0.688002 0.844001 0.045240
O O6 0.717899 0.717899 0.053008
O O7 0.564670 0.698445 0.069453
O O8 0.612381 0.710845 0.000000
O O9 0.732887 0.465774 0.176374
O O10 0.853768 0.426884 0.177288
O O11 0.879671 0.560901 0.143184
O O12 0.428915 0.857829 0.899452
O O13 0.573840 0.000000 0.901115
O O14 0.142894 0.571447 0.391535
O O15 0.124778 0.441537 0.432213
O O16 0.131250 0.432005 0.359624
O O17 0.000000 0.427706 0.390113
O O18 0.712878 0.611361 0.500000
O O19 0.839143 0.678285 0.549171
O O20 0.716667 0.716667 0.552370
O O21 0.835635 0.671270 0.322264
O O22 0.711861 0.711861 0.330654
#
# Coordination Sequence:
#
# PCOD8329018 Si02
#       7
#    24  24  24  24  24  24  24
#     4   9  17  28  43  64  90 120 151 182 216 254
#     4   9  17  29  45  63  82 106 137 173 213 257
#     4   9  16  26  40  58  82 112 144 175 207 245
#     4   9  17  27  39  58  83 110 141 175 208 244
#     4   9  17  29  46  68  91 114 143 179 217 260
#     4   9  17  29  46  68  93 122 157 196 236 276
#     4  10  20  33  49  69  92 118 149 185 224 264
#
# _framework density 16.496883
#
# number of rings (size 3 to 8) (size 9 to 14) (size 15 to 20)
#    0.000    2.857    0.000    1.571    0.000    3.143 
#    0.000    4.286    0.000    3.857    0.000    2.000 
#    0.000    3.429    0.000    0.143    0.000   18.571 
#
# Total GULP energy -2081491.375614 kJ/mol
# GULP energy per Si atom -12389.829617 kJ/mol
# Density = 1.645934 g / cm^3
# Si number density = 16.496883 Si / 1000 Ang^3
#
#
#
# Elastic Constant Matrix: (Units=GPa)
#
#
# Indices 1 2 3 4 5 6 
#
# 1 67.6242 35.5203 37.4972 0.0000 0.0000 0.0000
# 2 35.5203 67.6242 37.4972 0.0000 0.0000 0.0000
# 3 37.4972 37.4972 114.0059 0.0000 0.0000 0.0000
# 4 0.0000 0.0000 0.0000 17.3593 0.0000 0.0000
# 5 0.0000 0.0000 0.0000 0.0000 17.3593 0.0000
# 6 0.0000 0.0000 0.0000 0.0000 0.0000 16.0520
#
#
#
# Elastic Compliance Matrix: (Units=1/GPa)
#
#
# Indices 1 2 3 4 5 6 
#
# 1 0.021946 -0.009203 -0.004191 0.000000 0.000000 0.000000
# 2 -0.009203 0.021946 -0.004191 0.000000 0.000000 0.000000
# 3 -0.004191 -0.004191 0.011528 0.000000 0.000000 0.000000
# 4 0.000000 0.000000 0.000000 0.057606 0.000000 0.000000
# 5 0.000000 0.000000 0.000000 0.000000 0.057606 0.000000
# 6 0.000000 0.000000 0.000000 0.000000 0.000000 0.062298
#
#
# Mechanical properties :
#
#
# Convention : Reuss Voigt Hill
#
# Bulk Modulus (GPa) = 49.38524 52.25375 50.81950
# Shear Modulus (GPa) = 18.19177 19.40342 18.79760
#
# Velocity S-wave (km/s) = 3.32436 3.43328 3.37926
# Velocity P-wave (km/s) = 6.68851 6.88914 6.78957
#
# Compressibility (1/GPa) = 0.02024897
#
# Stress axis : x y z
#
# Youngs Moduli (GPa) = 45.56719 45.56719 86.74236
#
# Poissons Ratio (x) = 0.41937 0.36354
# Poissons Ratio (y) = 0.41937 0.36354
# Poissons Ratio (z) = 0.19097 0.19097
#
# Static dielectric constant tensor:
#      x y z
#    x 3.003200 0.000000 0.000000 
#    y 0.000000 3.003200 0.000000 
#    z 0.000000 0.000000 3.508320 
# 
# 
# High freq. dielectric constant tensor:
#      x y z
#    x 1.606960 0.000000 0.000000 
#    y 0.000000 1.606960 0.000000 
#    z 0.000000 0.000000 1.657650 
# 
# From -- ./inp_files/10744.got.cif
#   From: 2010.03.12/outbox.cif.g09.slc.cpg/sg191_6_cif.got.tgz:10744.got - 2010.04.01 12:09:02.
