data_PCOD8329095
_publ_section_title
;
Structure prediction by ZEFSAII (Michael W. Deem and Ramdas Pophale) SiO2 
 PCOD8329095
Probable space group: P 6/M M M
;
_chemical_formula_sum "Si O2"
_cell_formula_units_Z 120
_cell_length_a 20.895297
_cell_length_b 20.895297
_cell_length_c 20.029526
_cell_angle_alpha 90.000000
_cell_angle_beta 90.000000
_cell_angle_gamma 120.000000
_cell_volume 7573.530878
_symmetry_space_group_name_H-M "P 6/M M M"
_symmetry_group_IT_number 191
_symmetry_cell_setting 'hexagonal'
loop_
_space_group_symop_operation_xyz
x,y,z
x-y,x,z
-y,x-y,z
-x,-y,z
-x+y,-x,z
y,-x+y,z
x-y,-y,-z
-x,-x+y,-z
y,x,-z
-y,-x,-z
-x+y,y,-z
x,x-y,-z
-x,-y,-z
-x+y,-x,-z
y,-x+y,-z
x,y,-z
x-y,x,-z
-y,x-y,-z
-x+y,y,z
x,x-y,z
-y,-x,z
y,x,z
x-y,-y,z
-x,-x+y,z
loop_
_atom_site_type_symbol
_atom_site_label
_atom_site_fract_x
_atom_site_fract_y
_atom_site_fract_z
Si Si1 0.534429 0.917430 0.805654
Si Si2 0.835898 0.671796 0.421120
Si Si3 0.664704 0.480782 0.314323
Si Si4 0.814898 0.333257 0.075984
Si Si5 0.082454 0.917547 0.579811
Si Si6 0.419113 0.332540 0.578115
O O1 0.461729 0.923457 0.799515
O O2 0.533692 0.864849 0.746423
O O3 0.536810 0.882087 0.876576
O O4 0.605634 0.000000 0.800435
O O5 0.838734 0.677467 0.500000
O O6 0.876590 0.753180 0.389911
O O7 0.751525 0.632022 0.397338
O O8 0.744028 0.488055 0.324627
O O9 0.604489 0.395512 0.299973
O O10 0.638051 0.505544 0.380553
O O11 0.795051 0.397526 0.087033
O O12 0.742721 0.257280 0.095505
O O13 0.839593 0.332494 0.000000
O O14 0.082943 0.917058 0.500000
O O15 0.000000 0.876676 0.607902
O O16 0.438171 0.337922 0.500000
O O17 0.379516 0.379516 0.595361
#
# Coordination Sequence:
#
# PCOD8329095 Si02
#       6
#    24  12  24  24  12  24
#     4   9  18  31  46  65  89 117 149 185 226 273
#     4   9  16  29  46  65  88 112 143 179 216 263
#     4  11  22  36  52  69  90 116 149 191 239 290
#     4   9  16  26  42  65  93 123 154 187 223 265
#     4   9  15  22  35  58  88 118 144 171 207 254
#     4  10  20  34  52  71  91 117 149 187 231 280
#
# _framework density 15.844656000000001
#
# number of rings (size 3 to 8) (size 9 to 14) (size 15 to 20)
#    0.000    2.400    1.000    2.300    0.000    5.600 
#    0.000    5.000    0.000    1.200    0.000    0.000 
#    0.000    0.000    0.000    0.000    0.000    0.000 
#
# Total GULP energy -1487754.629515 kJ/mol
# GULP energy per Si atom -12397.955246 kJ/mol
# Density = 1.580859 g / cm^3
# Si number density = 15.844656 Si / 1000 Ang^3
#
#
#
# Elastic Constant Matrix: (Units=GPa)
#
#
# Indices 1 2 3 4 5 6 
#
# 1 72.2769 33.8657 36.1943 0.0000 0.0000 0.0000
# 2 33.8657 72.2769 36.1943 0.0000 0.0000 0.0000
# 3 36.1943 36.1943 75.8199 0.0000 0.0000 0.0000
# 4 0.0000 0.0000 0.0000 20.2877 0.0000 0.0000
# 5 0.0000 0.0000 0.0000 0.0000 20.2877 0.0000
# 6 0.0000 0.0000 0.0000 0.0000 0.0000 19.2056
#
#
#
# Elastic Compliance Matrix: (Units=1/GPa)
#
#
# Indices 1 2 3 4 5 6 
#
# 1 0.020002 -0.006032 -0.006668 0.000000 0.000000 0.000000
# 2 -0.006032 0.020002 -0.006668 0.000000 0.000000 0.000000
# 3 -0.006668 -0.006668 0.019556 0.000000 0.000000 0.000000
# 4 0.000000 0.000000 0.000000 0.049291 0.000000 0.000000
# 5 0.000000 0.000000 0.000000 0.000000 0.049291 0.000000
# 6 0.000000 0.000000 0.000000 0.000000 0.000000 0.052068
#
#
# Mechanical properties :
#
#
# Convention : Reuss Voigt Hill
#
# Bulk Modulus (GPa) = 48.03024 48.09803 48.06413
# Shear Modulus (GPa) = 19.53979 19.56416 19.55197
#
# Velocity S-wave (km/s) = 3.51552 3.51771 3.51661
# Velocity P-wave (km/s) = 6.84525 6.84989 6.84757
#
# Compressibility (1/GPa) = 0.02082022
#
# Stress axis : x y z
#
# Youngs Moduli (GPa) = 49.99596 49.99596 51.13562
#
# Poissons Ratio (x) = 0.30160 0.34100
# Poissons Ratio (y) = 0.30160 0.34100
# Poissons Ratio (z) = 0.33340 0.33340
#
# Static dielectric constant tensor:
#      x y z
#    x 3.010450 0.000000 0.000000 
#    y 0.000000 3.010450 0.000000 
#    z 0.000000 0.000000 2.928130 
# 
# 
# High freq. dielectric constant tensor:
#      x y z
#    x 1.598930 0.000000 0.000000 
#    y 0.000000 1.598930 0.000000 
#    z 0.000000 0.000000 1.589740 
# 
# From -- ./inp_files/8576.got.cif
#   From: 2010.03.12/outbox.cif.g09.slc.cpg/sg191_5_cif.got.tgz:8576.got - 2010.04.01 12:09:02.
