data_PCOD8329999
_publ_section_title
;
Structure prediction by ZEFSAII (Michael W. Deem and Ramdas Pophale) SiO2 
 PCOD8329999
Probable space group: P 63/M C M
;
_chemical_formula_sum "Si O2"
_cell_formula_units_Z 144
_cell_length_a 32.191407
_cell_length_b 32.191407
_cell_length_c 8.890690
_cell_angle_alpha 90.000000
_cell_angle_beta 90.000000
_cell_angle_gamma 120.000000
_cell_volume 7978.955026
_symmetry_space_group_name_H-M "P 63/M C M"
_symmetry_group_IT_number 193
_symmetry_cell_setting 'hexagonal'
loop_
_space_group_symop_operation_xyz
x,y,z
x-y,x,1/2+z
-y,x-y,z
-x,-y,1/2+z
-x+y,-x,z
y,-x+y,1/2+z
x-y,-y,1/2-z
-x,-x+y,1/2-z
y,x,1/2-z
-y,-x,-z
-x+y,y,-z
x,x-y,-z
-x,-y,-z
-x+y,-x,1/2-z
y,-x+y,-z
x,y,1/2-z
x-y,x,-z
-y,x-y,1/2-z
-x+y,y,1/2+z
x,x-y,1/2+z
-y,-x,1/2+z
y,x,z
x-y,-y,z
-x,-x+y,z
loop_
_atom_site_type_symbol
_atom_site_label
_atom_site_fract_x
_atom_site_fract_y
_atom_site_fract_z
Si Si1 0.098106 0.380232 0.075882
Si Si2 0.616809 0.145762 0.426449
Si Si3 0.225691 0.944882 0.925385
Si Si4 0.053558 0.619990 0.422295
Si Si5 0.806108 0.523757 0.573927
Si Si6 0.054826 0.194266 0.073339
O O1 0.089357 0.366246 0.250000
O O2 0.152000 0.422090 0.042328
O O3 0.089486 0.334435 0.981750
O O4 0.061120 0.397311 0.025983
O O5 0.578258 0.156515 0.500000
O O6 0.618923 0.155340 0.250000
O O7 0.602342 0.090892 0.463540
O O8 0.667903 0.181864 0.497797
O O9 0.214355 0.936460 0.750000
O O10 0.264926 0.000000 0.961273
O O11 0.176279 0.929652 0.009704
O O12 0.060976 0.638032 0.250000
O O13 0.000000 0.575803 0.449652
O O14 0.757963 0.515925 0.500000
O O15 0.798598 0.512810 0.750000
O O16 0.062813 0.198652 0.250000
O O17 0.000000 0.156778 0.029899
O O18 0.087443 0.174885 0.000000
#
# Coordination Sequence:
#
# PCOD8329999 Si02
#       6
#    24  24  24  24  24  24
#     4  10  20  32  48  73 105 140 179 222 263 304
#     4  10  20  35  55  78 105 136 170 210 256 306
#     4  10  20  33  50  73 104 143 183 221 260 302
#     4   9  18  32  49  71 102 141 182 220 258 300
#     4  10  21  37  56  78 103 133 170 211 259 311
#     4  10  21  37  57  80 105 134 169 210 257 309
#
# _framework density 18.047477000000001
#
# number of rings (size 3 to 8) (size 9 to 14) (size 15 to 20)
#    0.000    2.167    0.000    3.000    0.000    8.000 
#    0.000    1.667    0.000    0.500    0.000    2.333 
#    0.000    0.000    0.000    0.000    0.000    0.000 
#
# Total GULP energy -1786179.498588 kJ/mol
# GULP energy per Si atom -12404.024296 kJ/mol
# Density = 1.800640 g / cm^3
# Si number density = 18.047477 Si / 1000 Ang^3
#
#
#
# Elastic Constant Matrix: (Units=GPa)
#
#
# Indices 1 2 3 4 5 6 
#
# 1 109.8209 75.8081 58.9237 0.0000 0.0000 0.0000
# 2 75.8081 109.8209 58.9237 0.0000 0.0000 0.0000
# 3 58.9237 58.9237 98.4708 0.0000 0.0000 0.0000
# 4 0.0000 0.0000 0.0000 31.9164 0.0000 0.0000
# 5 0.0000 0.0000 0.0000 0.0000 31.9164 0.0000
# 6 0.0000 0.0000 0.0000 0.0000 0.0000 17.0064
#
#
#
# Elastic Compliance Matrix: (Units=1/GPa)
#
#
# Indices 1 2 3 4 5 6 
#
# 1 0.019044 -0.010357 -0.005198 0.000000 0.000000 0.000000
# 2 -0.010357 0.019044 -0.005198 0.000000 0.000000 0.000000
# 3 -0.005198 -0.005198 0.016377 0.000000 0.000000 0.000000
# 4 0.000000 0.000000 0.000000 0.031332 0.000000 0.000000
# 5 0.000000 0.000000 0.000000 0.000000 0.031332 0.000000
# 6 0.000000 0.000000 0.000000 0.000000 0.000000 0.058801
#
#
# Mechanical properties :
#
#
# Convention : Reuss Voigt Hill
#
# Bulk Modulus (GPa) = 77.17426 78.38040 77.77733
# Shear Modulus (GPa) = 22.54734 24.46500 23.50617
#
# Velocity S-wave (km/s) = 3.53843 3.68583 3.61288
# Velocity P-wave (km/s) = 7.71677 7.85100 7.78418
#
# Compressibility (1/GPa) = 0.01295769
#
# Stress axis : x y z
#
# Youngs Moduli (GPa) = 52.51001 52.51001 61.06291
#
# Poissons Ratio (x) = 0.54383 0.31743
# Poissons Ratio (y) = 0.54383 0.31743
# Poissons Ratio (z) = 0.27297 0.27297
#
# Static dielectric constant tensor:
#      x y z
#    x 3.241380 0.000000 0.000000 
#    y 0.000000 3.241380 0.000000 
#    z 0.000000 0.000000 3.469930 
# 
# 
# High freq. dielectric constant tensor:
#      x y z
#    x 1.688240 0.000000 0.000000 
#    y 0.000000 1.688240 0.000000 
#    z 0.000000 0.000000 1.715320 
# 
# From -- ./inp_files/1513.got.cif
#   From: 2010.03.12/outbox.cif.g09.slc.cpg/sg193_1_cif.got.tgz:1513.got - 2010.04.01 12:20:39.
