data_PCOD8329615
_publ_section_title
;
Structure prediction by ZEFSAII (Michael W. Deem and Ramdas Pophale) SiO2 
 PCOD8329615
Probable space group: P 6/M C C
;
_chemical_formula_sum "Si O2"
_cell_formula_units_Z 44
_cell_length_a 9.920897
_cell_length_b 9.920897
_cell_length_c 22.887069
_cell_angle_alpha 90.000000
_cell_angle_beta 90.000000
_cell_angle_gamma 120.000000
_cell_volume 1950.844673
_symmetry_space_group_name_H-M "P 6/M C C"
_symmetry_group_IT_number 192
_symmetry_cell_setting 'hexagonal'
loop_
_space_group_symop_operation_xyz
x,y,z
x-y,x,z
-y,x-y,z
-x,-y,z
-x+y,-x,z
y,-x+y,z
x-y,-y,1/2-z
-x,-x+y,1/2-z
y,x,1/2-z
-y,-x,1/2-z
-x+y,y,1/2-z
x,x-y,1/2-z
-x,-y,-z
-x+y,-x,-z
y,-x+y,-z
x,y,-z
x-y,x,-z
-y,x-y,-z
-x+y,y,1/2+z
x,x-y,1/2+z
-y,-x,1/2+z
y,x,1/2+z
x-y,-y,1/2+z
-x,-x+y,1/2+z
loop_
_atom_site_type_symbol
_atom_site_label
_atom_site_fract_x
_atom_site_fract_y
_atom_site_fract_z
Si Si1 0.192621 0.472310 0.000000
Si Si2 0.650177 0.877915 0.625930
Si Si3 0.333335 0.666668 0.319003
O O1 0.381078 0.542671 0.000000
O O2 0.118372 0.365346 0.056183
O O3 0.717234 0.768550 0.647044
O O4 0.484032 0.819502 0.656356
O O5 0.333334 0.666667 0.250000
#
# Coordination Sequence:
#
# PCOD8329615 Si02
#       3
#    12  24   8
#     4  10  20  38  66 102 132 168 216 262 314 386
#     4  12  25  43  68 100 136 171 211 266 328 391
#     4  12  27  46  71  94 123 171 232 278 313 375
#
# _framework density 22.554331999999999
#
# number of rings (size 3 to 8) (size 9 to 14) (size 15 to 20)
#    0.545    0.000    5.455    3.818    0.000    6.545 
#    0.000    2.727    0.000    3.273    0.000    0.000 
#    0.000    0.000    0.000    0.000    0.000    0.000 
#
# Total GULP energy -545942.413793 kJ/mol
# GULP energy per Si atom -12407.782132 kJ/mol
# Density = 2.250300 g / cm^3
# Si number density = 22.554332 Si / 1000 Ang^3
#
#
#
# Elastic Constant Matrix: (Units=GPa)
#
#
# Indices 1 2 3 4 5 6 
#
# 1 74.6961 -6.7810 7.2410 0.0001 0.0003 0.0001
# 2 -6.7810 74.6985 7.2415 0.0000 0.0002 0.0002
# 3 7.2410 7.2415 123.8425 0.0004 -0.0001 0.0001
# 4 0.0001 0.0000 0.0004 3.6227 -0.0002 0.0001
# 5 0.0003 0.0002 -0.0001 -0.0002 3.6228 0.0000
# 6 0.0001 0.0002 0.0001 0.0001 0.0000 40.7395
#
#
#
# Elastic Compliance Matrix: (Units=1/GPa)
#
#
# Indices 1 2 3 4 5 6 
#
# 1 0.013592 0.001318 -0.000872 0.000000 -0.000001 0.000000
# 2 0.001318 0.013591 -0.000872 0.000000 -0.000001 0.000000
# 3 -0.000872 -0.000872 0.008177 -0.000001 0.000000 0.000000
# 4 0.000000 0.000000 -0.000001 0.276034 0.000013 0.000000
# 5 -0.000001 -0.000001 0.000000 0.000013 0.276032 0.000000
# 6 0.000000 0.000000 0.000000 0.000000 0.000000 0.024546
#
#
# Mechanical properties :
#
#
# Convention : Reuss Voigt Hill
#
# Bulk Modulus (GPa) = 28.97768 32.07112 30.52440
# Shear Modulus (GPa) = 8.00864 27.29937 17.65400
#
# Velocity S-wave (km/s) = 1.88641 3.48283 2.80077
# Velocity P-wave (km/s) = 4.19768 5.51578 4.90124
#
# Compressibility (1/GPa) = 0.03450932
#
# Stress axis : x y z
#
# Youngs Moduli (GPa) = 73.57391 73.57624 122.29836
#
# Poissons Ratio (x) = -0.09700 0.10662
# Poissons Ratio (y) = -0.09700 0.10662
# Poissons Ratio (z) = 0.06414 0.06414
#
# Static dielectric constant tensor:
#      x y z
#    x 4.025830 0.000000 0.000000 
#    y 0.000000 4.025820 0.000000 
#    z 0.000000 0.000000 3.657840 
# 
# 
# High freq. dielectric constant tensor:
#      x y z
#    x 1.894990 0.000000 0.000000 
#    y 0.000000 1.894990 0.000000 
#    z 0.000000 0.000000 1.859530 
# 
# From -- ./inp_files/4454.got.cif
#   From: 2010.03.12/outbox.cif.g09.slc.cpg/sg192_3_cif.got.tgz:4454.got - 2010.04.01 12:16:15.
