data_PCOD8329740
_publ_section_title
;
Structure prediction by ZEFSAII (Michael W. Deem and Ramdas Pophale) SiO2 
 PCOD8329740
Probable space group: P 6/M C C
;
_chemical_formula_sum "Si O2"
_cell_formula_units_Z 80
_cell_length_a 16.291263
_cell_length_b 16.291263
_cell_length_c 18.185250
_cell_angle_alpha 90.000000
_cell_angle_beta 90.000000
_cell_angle_gamma 120.000000
_cell_volume 4179.837685
_symmetry_space_group_name_H-M "P 6/M C C"
_symmetry_group_IT_number 192
_symmetry_cell_setting 'hexagonal'
loop_
_space_group_symop_operation_xyz
x,y,z
x-y,x,z
-y,x-y,z
-x,-y,z
-x+y,-x,z
y,-x+y,z
x-y,-y,1/2-z
-x,-x+y,1/2-z
y,x,1/2-z
-y,-x,1/2-z
-x+y,y,1/2-z
x,x-y,1/2-z
-x,-y,-z
-x+y,-x,-z
y,-x+y,-z
x,y,-z
x-y,x,-z
-y,x-y,-z
-x+y,y,1/2+z
x,x-y,1/2+z
-y,-x,1/2+z
y,x,1/2+z
x-y,-y,1/2+z
-x,-x+y,1/2+z
loop_
_atom_site_type_symbol
_atom_site_label
_atom_site_fract_x
_atom_site_fract_y
_atom_site_fract_z
Si Si1 0.853222 0.404722 0.413078
Si Si2 0.027537 0.644389 0.086773
Si Si3 0.666668 0.333334 0.336706
Si Si4 0.198660 0.172203 0.587766
O O1 0.832593 0.392890 0.500000
O O2 0.890582 0.513218 0.387352
O O3 0.759957 0.336088 0.367889
O O4 0.926598 0.370458 0.390364
O O5 0.039877 0.742057 0.119807
O O6 0.032041 0.652137 0.000000
O O7 0.666668 0.333334 0.250000
O O8 0.112101 0.184942 0.617067
O O9 0.199774 0.174029 0.500000
#
# Coordination Sequence:
#
# PCOD8329740 Si02
#       4
#    24  24   8  24
#     4   9  18  34  54  76 102 136 177 221 263 304
#     4   8  16  30  50  76  99 129 177 221 262 309
#     4  12  25  35  49  78 112 143 175 210 262 320
#     4   9  16  24  38  65 105 139 160 197 258 321
#
# _framework density 19.139499000000001
#
# number of rings (size 3 to 8) (size 9 to 14) (size 15 to 20)
#    0.000    3.000    0.000    3.000    4.200    1.200 
#    0.000    3.000    0.000    0.000    0.000    0.000 
#    0.000    0.000    0.000    2.700    0.000    3.000 
#
# Total GULP energy -991572.265493 kJ/mol
# GULP energy per Si atom -12394.653319 kJ/mol
# Density = 1.909594 g / cm^3
# Si number density = 19.139499 Si / 1000 Ang^3
#
#
#
# Elastic Constant Matrix: (Units=GPa)
#
#
# Indices 1 2 3 4 5 6 
#
# 1 82.8217 17.0460 9.8784 -0.0001 0.0000 -0.0004
# 2 17.0460 82.8195 9.8779 -0.0001 0.0000 -0.0006
# 3 9.8784 9.8779 34.4386 0.0002 -0.0001 -0.0002
# 4 -0.0001 -0.0001 0.0002 2.6279 0.0000 0.0000
# 5 0.0000 0.0000 -0.0001 0.0000 2.6275 0.0000
# 6 -0.0004 -0.0006 -0.0002 0.0000 0.0000 32.8875
#
#
#
# Elastic Compliance Matrix: (Units=1/GPa)
#
#
# Indices 1 2 3 4 5 6 
#
# 1 0.012909 -0.002294 -0.003045 0.000001 0.000000 0.000000
# 2 -0.002294 0.012910 -0.003045 0.000001 0.000000 0.000000
# 3 -0.003045 -0.003045 0.030784 -0.000003 0.000002 0.000000
# 4 0.000001 0.000001 -0.000003 0.380538 -0.000007 0.000000
# 5 0.000000 0.000000 0.000002 -0.000007 0.380584 0.000000
# 6 0.000000 0.000000 0.000000 0.000000 0.000000 0.030407
#
#
# Mechanical properties :
#
#
# Convention : Reuss Voigt Hill
#
# Bulk Modulus (GPa) = 25.10315 30.40939 27.75627
# Shear Modulus (GPa) = 5.69361 18.51375 12.10368
#
# Velocity S-wave (km/s) = 1.72663 3.11353 2.51747
# Velocity P-wave (km/s) = 4.13756 5.37105 4.79414
#
# Compressibility (1/GPa) = 0.03983563
#
# Stress axis : x y z
#
# Youngs Moduli (GPa) = 77.46272 77.46089 32.48444
#
# Poissons Ratio (x) = 0.17768 0.09892
# Poissons Ratio (y) = 0.17769 0.09891
# Poissons Ratio (z) = 0.23588 0.23586
#
# Static dielectric constant tensor:
#      x y z
#    x 3.810990 0.000000 0.000000 
#    y 0.000000 3.811010 0.000000 
#    z 0.000000 0.000000 2.662900 
# 
# 
# High freq. dielectric constant tensor:
#      x y z
#    x 1.757080 0.000000 0.000000 
#    y 0.000000 1.757080 0.000000 
#    z 0.000000 0.000000 1.653510 
# 
# From -- ./inp_files/3938.got.cif
#   From: 2010.03.12/outbox.cif.g09.slc.cpg/sg192_2_cif.got.tgz:3938.got - 2010.04.01 12:16:15.
