data_PCOD8329290
_publ_section_title
;
Structure prediction by ZEFSAII (Michael W. Deem and Ramdas Pophale) SiO2 
 PCOD8329290
Probable space group: P 6/M M M
;
_chemical_formula_sum "Si O2"
_cell_formula_units_Z 120
_cell_length_a 26.075716
_cell_length_b 26.075716
_cell_length_c 13.951121
_cell_angle_alpha 90.000000
_cell_angle_beta 90.000000
_cell_angle_gamma 120.000000
_cell_volume 8215.088035
_symmetry_space_group_name_H-M "P 6/M M M"
_symmetry_group_IT_number 191
_symmetry_cell_setting 'hexagonal'
loop_
_space_group_symop_operation_xyz
x,y,z
x-y,x,z
-y,x-y,z
-x,-y,z
-x+y,-x,z
y,-x+y,z
x-y,-y,-z
-x,-x+y,-z
y,x,-z
-y,-x,-z
-x+y,y,-z
x,x-y,-z
-x,-y,-z
-x+y,-x,-z
y,-x+y,-z
x,y,-z
x-y,x,-z
-y,x-y,-z
-x+y,y,z
x,x-y,z
-y,-x,z
y,x,z
x-y,-y,z
-x,-x+y,z
loop_
_atom_site_type_symbol
_atom_site_label
_atom_site_fract_x
_atom_site_fract_y
_atom_site_fract_z
Si Si1 0.934229 0.752705 0.110634
Si Si2 0.548224 0.213848 0.289952
Si Si3 0.480454 0.179475 0.105362
Si Si4 0.275585 0.429468 0.605709
Si Si5 0.365694 0.121894 0.789915
O O1 0.885778 0.771555 0.140224
O O2 0.928557 0.698410 0.174333
O O3 0.000000 0.808426 0.128044
O O4 0.925176 0.732489 0.000000
O O5 0.606037 0.212073 0.322401
O O6 0.561227 0.280614 0.298839
O O7 0.531803 0.190491 0.180471
O O8 0.494678 0.170009 0.359064
O O9 0.475303 0.237652 0.100586
O O10 0.417095 0.125689 0.140711
O O11 0.495399 0.164283 0.000000
O O12 0.292842 0.417088 0.500000
O O13 0.213652 0.427304 0.601498
O O14 0.269886 0.379407 0.681109
O O15 0.367572 0.183786 0.793721
#
# Coordination Sequence:
#
# PCOD8329290 Si02
#       5
#    24  24  24  24  24
#     4   9  16  25  39  61  88 114 136 156 177 203
#     4   9  16  23  30  42  63  93 127 160 193 232
#     4   8  13  21  32  45  62  86 118 157 200 242
#     4   8  14  24  36  49  65  87 118 157 200 241
#     4   8  13  22  37  54  71  94 123 154 190 230
#
# _framework density 14.607269000000001
#
# number of rings (size 3 to 8) (size 9 to 14) (size 15 to 20)
#    0.000    3.600    0.000    3.200    0.000    3.200 
#    0.000    0.000    0.000    3.200    0.000    1.400 
#    0.000   12.800    0.000   51.200    0.000    4.800 
#
# Total GULP energy -1486619.450562 kJ/mol
# GULP energy per Si atom -12388.495421 kJ/mol
# Density = 1.457402 g / cm^3
# Si number density = 14.607269 Si / 1000 Ang^3
#
#
#
# Elastic Constant Matrix: (Units=GPa)
#
#
# Indices 1 2 3 4 5 6 
#
# 1 55.7407 28.7096 21.9045 0.0000 0.0000 0.0000
# 2 28.7096 55.7407 21.9045 0.0000 0.0000 0.0000
# 3 21.9045 21.9045 95.1099 0.0000 0.0000 0.0000
# 4 0.0000 0.0000 0.0000 10.8462 0.0000 0.0000
# 5 0.0000 0.0000 0.0000 0.0000 10.8462 0.0000
# 6 0.0000 0.0000 0.0000 0.0000 0.0000 13.5155
#
#
#
# Elastic Compliance Matrix: (Units=1/GPa)
#
#
# Indices 1 2 3 4 5 6 
#
# 1 0.025221 -0.011773 -0.003097 0.000000 0.000000 0.000000
# 2 -0.011773 0.025221 -0.003097 0.000000 0.000000 0.000000
# 3 -0.003097 -0.003097 0.011941 0.000000 0.000000 0.000000
# 4 0.000000 0.000000 0.000000 0.092198 0.000000 0.000000
# 5 0.000000 0.000000 0.000000 0.000000 0.092198 0.000000
# 6 0.000000 0.000000 0.000000 0.000000 0.000000 0.073989
#
#
# Mechanical properties :
#
#
# Convention : Reuss Voigt Hill
#
# Bulk Modulus (GPa) = 37.81004 39.06984 38.43994
# Shear Modulus (GPa) = 13.67913 15.97975 14.82944
#
# Velocity S-wave (km/s) = 3.06348 3.31109 3.18969
# Velocity P-wave (km/s) = 6.20112 6.43605 6.31967
#
# Compressibility (1/GPa) = 0.02644800
#
# Stress axis : x y z
#
# Youngs Moduli (GPa) = 39.64915 39.64915 83.74685
#
# Poissons Ratio (x) = 0.46680 0.25938
# Poissons Ratio (y) = 0.46680 0.25938
# Poissons Ratio (z) = 0.12280 0.12280
#
# Static dielectric constant tensor:
#      x y z
#    x 2.537080 0.000000 0.000000 
#    y 0.000000 2.537080 0.000000 
#    z 0.000000 0.000000 3.323300 
# 
# 
# High freq. dielectric constant tensor:
#      x y z
#    x 1.518000 0.000000 0.000000 
#    y 0.000000 1.518000 0.000000 
#    z 0.000000 0.000000 1.564090 
# 
# From -- ./inp_files/4744.got.cif
#   From: 2010.03.12/outbox.cif.g09.slc.cpg/sg191_3_cif.got.tgz:4744.got - 2010.04.01 12:09:02.
