data_PCOD8329335
_publ_section_title
;
Structure prediction by ZEFSAII (Michael W. Deem and Ramdas Pophale) SiO2 
 PCOD8329335
Probable space group: P 6/M M M
;
_chemical_formula_sum "Si O2"
_cell_formula_units_Z 120
_cell_length_a 18.843949
_cell_length_b 18.843949
_cell_length_c 24.651718
_cell_angle_alpha 90.000000
_cell_angle_beta 90.000000
_cell_angle_gamma 120.000000
_cell_volume 7580.915626
_symmetry_space_group_name_H-M "P 6/M M M"
_symmetry_group_IT_number 191
_symmetry_cell_setting 'hexagonal'
loop_
_space_group_symop_operation_xyz
x,y,z
x-y,x,z
-y,x-y,z
-x,-y,z
-x+y,-x,z
y,-x+y,z
x-y,-y,-z
-x,-x+y,-z
y,x,-z
-y,-x,-z
-x+y,y,-z
x,x-y,-z
-x,-y,-z
-x+y,-x,-z
y,-x+y,-z
x,y,-z
x-y,x,-z
-y,x-y,-z
-x+y,y,z
x,x-y,z
-y,-x,z
y,x,z
x-y,-y,z
-x,-x+y,z
loop_
_atom_site_type_symbol
_atom_site_label
_atom_site_fract_x
_atom_site_fract_y
_atom_site_fract_z
Si Si1 0.750006 0.093189 0.254984
Si Si2 0.747152 0.091732 0.870351
Si Si3 0.666331 0.495727 0.062952
Si Si4 0.666031 0.497089 0.559563
Si Si5 0.469472 0.094588 0.329505
O O1 0.847506 0.152495 0.265248
O O2 0.729014 0.097417 0.192547
O O3 0.702940 0.130100 0.289741
O O4 0.724009 0.000000 0.272000
O O5 0.841590 0.158411 0.885320
O O6 0.683891 0.108183 0.903712
O O7 0.729488 0.000000 0.884205
O O8 0.736111 0.472222 0.074211
O O9 0.580027 0.419974 0.082087
O O10 0.663720 0.515315 0.000000
O O11 0.664633 0.533993 0.500000
O O12 0.751779 0.503558 0.570761
O O13 0.597807 0.402194 0.561506
O O14 0.652203 0.546928 0.607353
O O15 0.567698 0.135395 0.318308
O O16 0.428039 0.000000 0.316565
#
# Coordination Sequence:
#
# PCOD8329335 Si02
#       5
#    24  24  24  24  24
#     4   9  17  30  47  64  83 108 138 171 208 252
#     4   9  18  31  46  64  85 110 139 172 211 252
#     4   9  17  29  45  65  90 119 148 176 206 241
#     4   9  16  25  37  52  71  97 130 167 203 236
#     4   9  17  27  39  57  80 106 135 165 198 239
#
# _framework density 15.829221
#
# number of rings (size 3 to 8) (size 9 to 14) (size 15 to 20)
#    0.000    3.000    0.000    1.000    0.000    3.600 
#    0.000    5.000    0.000    0.800    0.000    2.800 
#    0.000    0.000    0.000    5.000    0.000    5.200 
#
# Total GULP energy -1487057.165314 kJ/mol
# GULP energy per Si atom -12392.143044 kJ/mol
# Density = 1.579319 g / cm^3
# Si number density = 15.829221 Si / 1000 Ang^3
#
#
#
# Elastic Constant Matrix: (Units=GPa)
#
#
# Indices 1 2 3 4 5 6 
#
# 1 80.6392 49.5512 39.2972 0.0000 0.0000 0.0000
# 2 49.5512 80.6392 39.2972 0.0000 0.0000 0.0000
# 3 39.2972 39.2972 59.4675 0.0000 0.0000 0.0000
# 4 0.0000 0.0000 0.0000 22.4899 0.0000 0.0000
# 5 0.0000 0.0000 0.0000 0.0000 22.4899 0.0000
# 6 0.0000 0.0000 0.0000 0.0000 0.0000 15.5440
#
#
#
# Elastic Compliance Matrix: (Units=1/GPa)
#
#
# Indices 1 2 3 4 5 6 
#
# 1 0.022473 -0.009694 -0.008445 0.000000 0.000000 0.000000
# 2 -0.009694 0.022473 -0.008445 0.000000 0.000000 0.000000
# 3 -0.008445 -0.008445 0.027977 0.000000 0.000000 0.000000
# 4 0.000000 0.000000 0.000000 0.044464 0.000000 0.000000
# 5 0.000000 0.000000 0.000000 0.000000 0.044464 0.000000
# 6 0.000000 0.000000 0.000000 0.000000 0.000000 0.064333
#
#
# Mechanical properties :
#
#
# Convention : Reuss Voigt Hill
#
# Bulk Modulus (GPa) = 50.61702 53.00412 51.81057
# Shear Modulus (GPa) = 17.48645 18.27812 17.88229
#
# Velocity S-wave (km/s) = 3.32730 3.40179 3.36475
# Velocity P-wave (km/s) = 6.84161 6.99909 6.92079
#
# Compressibility (1/GPa) = 0.01975620
#
# Stress axis : x y z
#
# Youngs Moduli (GPa) = 44.49822 44.49822 35.74428
#
# Poissons Ratio (x) = 0.43136 0.30184
# Poissons Ratio (y) = 0.43136 0.30184
# Poissons Ratio (z) = 0.37577 0.37577
#
# Static dielectric constant tensor:
#      x y z
#    x 3.043670 0.000000 0.000000 
#    y 0.000000 3.043670 0.000000 
#    z 0.000000 0.000000 3.152130 
# 
# 
# High freq. dielectric constant tensor:
#      x y z
#    x 1.590760 0.000000 0.000000 
#    y 0.000000 1.590760 0.000000 
#    z 0.000000 0.000000 1.613250 
# 
# From -- ./inp_files/10275.got.cif
#   From: 2010.03.12/outbox.cif.g09.slc.cpg/sg191_6_cif.got.tgz:10275.got - 2010.04.01 12:09:02.
