data_PCOD8329429
_publ_section_title
;
Structure prediction by ZEFSAII (Michael W. Deem and Ramdas Pophale) SiO2 
 PCOD8329429
Probable space group: P 6/M C C
;
_chemical_formula_sum "Si O2"
_cell_formula_units_Z 92
_cell_length_a 21.966899
_cell_length_b 21.966899
_cell_length_c 13.698538
_cell_angle_alpha 90.000000
_cell_angle_beta 90.000000
_cell_angle_gamma 120.000000
_cell_volume 5724.563233
_symmetry_space_group_name_H-M "P 6/M C C"
_symmetry_group_IT_number 192
_symmetry_cell_setting 'hexagonal'
loop_
_space_group_symop_operation_xyz
x,y,z
x-y,x,z
-y,x-y,z
-x,-y,z
-x+y,-x,z
y,-x+y,z
x-y,-y,1/2-z
-x,-x+y,1/2-z
y,x,1/2-z
-y,-x,1/2-z
-x+y,y,1/2-z
x,x-y,1/2-z
-x,-y,-z
-x+y,-x,-z
y,-x+y,-z
x,y,-z
x-y,x,-z
-y,x-y,-z
-x+y,y,1/2+z
x,x-y,1/2+z
-y,-x,1/2+z
y,x,1/2+z
x-y,-y,1/2+z
-x,-x+y,1/2+z
loop_
_atom_site_type_symbol
_atom_site_label
_atom_site_fract_x
_atom_site_fract_y
_atom_site_fract_z
Si Si1 0.410175 0.000000 0.750000
Si Si2 0.107074 0.518247 0.612136
Si Si3 0.880741 0.546976 0.886519
Si Si4 0.240197 0.513290 0.615150
Si Si5 0.666667 0.333334 0.615993
O O1 0.435469 0.963010 0.672352
O O2 0.342343 0.943542 0.814024
O O3 0.089571 0.496315 0.500000
O O4 0.131917 0.600051 0.626874
O O5 0.164188 0.497733 0.653177
O O6 0.807341 0.543679 0.854863
O O7 0.899003 0.571061 0.000000
O O8 0.239072 0.518481 0.500000
O O9 0.298496 0.588077 0.657340
O O10 0.666667 0.333334 0.500000
#
# Coordination Sequence:
#
# PCOD8329429 Si02
#       5
#    12  24  24  24   8
#     4  12  23  32  40  56  82 110 136 156 186 247
#     4  10  19  31  46  61  79 103 130 163 204 248
#     4  10  19  31  46  61  79 103 130 163 204 248
#     4   9  16  27  47  67  78  98 131 168 214 256
#     4   9  12  24  45  61  80 100 121 164 223 259
#
# _framework density 16.071095
#
# number of rings (size 3 to 8) (size 9 to 14) (size 15 to 20)
#    0.000    2.087    2.609    3.130    0.000    3.130 
#    0.000    0.000    0.000    0.000    0.000    0.000 
#    0.000    0.000    0.000    0.000    0.000    0.000 
#
# Total GULP energy -1139711.497920 kJ/mol
# GULP energy per Si atom -12388.168456 kJ/mol
# Density = 1.603452 g / cm^3
# Si number density = 16.071095 Si / 1000 Ang^3
#
#
#
# Elastic Constant Matrix: (Units=GPa)
#
#
# Indices 1 2 3 4 5 6 
#
# 1 58.4530 31.2882 23.1305 0.0000 0.0000 0.0000
# 2 31.2882 58.4534 23.1306 0.0000 0.0000 0.0000
# 3 23.1305 23.1306 54.3727 -0.0002 -0.0001 0.0001
# 4 0.0000 0.0000 -0.0002 3.3797 0.0002 0.0000
# 5 0.0000 0.0000 -0.0001 0.0002 3.3796 0.0000
# 6 0.0000 0.0000 0.0001 0.0000 0.0000 13.5825
#
#
#
# Elastic Compliance Matrix: (Units=1/GPa)
#
#
# Indices 1 2 3 4 5 6 
#
# 1 0.025543 -0.011269 -0.006072 0.000000 0.000000 0.000000
# 2 -0.011269 0.025543 -0.006072 -0.000001 0.000000 0.000000
# 3 -0.006072 -0.006072 0.023558 0.000001 0.000001 0.000000
# 4 0.000000 -0.000001 0.000001 0.295887 -0.000015 0.000000
# 5 0.000000 0.000000 0.000001 -0.000015 0.295897 0.000000
# 6 0.000000 0.000000 0.000000 0.000000 0.000000 0.073624
#
#
# Mechanical properties :
#
#
# Convention : Reuss Voigt Hill
#
# Bulk Modulus (GPa) = 35.95011 36.26420 36.10716
# Shear Modulus (GPa) = 6.28022 10.31699 8.29861
#
# Velocity S-wave (km/s) = 1.97895 2.53644 2.27484
# Velocity P-wave (km/s) = 5.25734 5.58497 5.42363
#
# Compressibility (1/GPa) = 0.02781633
#
# Stress axis : x y z
#
# Youngs Moduli (GPa) = 39.15008 39.15038 42.44904
#
# Poissons Ratio (x) = 0.44120 0.25775
# Poissons Ratio (y) = 0.44120 0.25775
# Poissons Ratio (z) = 0.23772 0.23772
#
# Static dielectric constant tensor:
#      x y z
#    x 3.006400 0.000000 0.000000 
#    y 0.000000 3.006400 0.000000 
#    z 0.000000 0.000000 3.354760 
# 
# 
# High freq. dielectric constant tensor:
#      x y z
#    x 1.570440 0.000000 0.000000 
#    y 0.000000 1.570440 0.000000 
#    z 0.000000 0.000000 1.651350 
# 
# From -- ./inp_files/2794.got.cif
#   From: 2010.03.12/outbox.cif.g09.slc.cpg/sg192_2_cif.got.tgz:2794.got - 2010.04.01 12:16:15.
