data_PCOD8329378
_publ_section_title
;
Structure prediction by ZEFSAII (Michael W. Deem and Ramdas Pophale) SiO2 
 PCOD8329378
Probable space group: P 6/M C C
;
_chemical_formula_sum "Si O2"
_cell_formula_units_Z 164
_cell_length_a 22.103603
_cell_length_b 22.103603
_cell_length_c 25.809476
_cell_angle_alpha 90.000000
_cell_angle_beta 90.000000
_cell_angle_gamma 120.000000
_cell_volume 10920.335026
_symmetry_space_group_name_H-M "P 6/M C C"
_symmetry_group_IT_number 192
_symmetry_cell_setting 'hexagonal'
loop_
_space_group_symop_operation_xyz
x,y,z
x-y,x,z
-y,x-y,z
-x,-y,z
-x+y,-x,z
y,-x+y,z
x-y,-y,1/2-z
-x,-x+y,1/2-z
y,x,1/2-z
-y,-x,1/2-z
-x+y,y,1/2-z
x,x-y,1/2-z
-x,-y,-z
-x+y,-x,-z
y,-x+y,-z
x,y,-z
x-y,x,-z
-y,x-y,-z
-x+y,y,1/2+z
x,x-y,1/2+z
-y,-x,1/2+z
y,x,1/2+z
x-y,-y,1/2+z
-x,-x+y,1/2+z
loop_
_atom_site_type_symbol
_atom_site_label
_atom_site_fract_x
_atom_site_fract_y
_atom_site_fract_z
Si Si1 0.081053 0.162105 0.250000
Si Si2 0.660045 0.967905 0.561958
Si Si3 0.924299 0.835250 0.361849
Si Si4 0.732762 0.922624 0.941597
Si Si5 0.798991 0.327127 0.061942
Si Si6 0.666667 0.333334 0.438432
Si Si7 0.781026 0.185998 0.058378
Si Si8 0.465680 0.044450 0.061735
O O1 0.111313 0.111313 0.250000
O O2 0.097928 0.203744 0.304887
O O3 0.659571 0.966794 0.500000
O O4 0.621724 0.889295 0.585696
O O5 0.741285 0.008261 0.579690
O O6 0.621062 0.007804 0.583219
O O7 0.886591 0.880080 0.369443
O O8 0.899471 0.776265 0.405366
O O9 0.653081 0.861775 0.941165
O O10 0.763216 0.933816 0.000000
O O11 0.741409 0.346295 0.081784
O O12 0.776429 0.249949 0.084651
O O13 0.875656 0.385033 0.082418
O O14 0.801326 0.324531 0.000000
O O15 0.666667 0.333334 0.500000
O O16 0.752778 0.177355 0.000000
O O17 0.500000 0.000000 0.083321
O O18 0.465507 0.044044 0.000000
#
# Coordination Sequence:
#
# PCOD8329378 Si02
#       8
#    12  24  24  24  24   8  24  24
#     4   8  15  28  44  60  74  94 126 164 206 248
#     4   9  16  25  36  50  67  95 131 164 201 239
#     4  10  19  30  44  59  77 100 131 170 211 252
#     4  10  18  29  40  56  78 104 136 171 207 243
#     4   9  16  26  34  47  67  89 121 164 205 240
#     4   9  18  24  33  48  66  90 120 163 209 241
#     4   9  16  25  37  48  67  95 125 161 195 233
#     4   9  16  24  35  48  64  87 124 169 203 233
#
# _framework density 15.017854
#
# number of rings (size 3 to 8) (size 9 to 14) (size 15 to 20)
#    0.000    2.780    1.463    1.098    2.049    2.927 
#    0.000    0.000    0.000    0.878    0.000    0.000 
#    0.000    0.000    0.000    0.000    0.000   31.463 
#
# Total GULP energy -2031820.094116 kJ/mol
# GULP energy per Si atom -12389.146915 kJ/mol
# Density = 1.498367 g / cm^3
# Si number density = 15.017854 Si / 1000 Ang^3
#
#
#
# Elastic Constant Matrix: (Units=GPa)
#
#
# Indices 1 2 3 4 5 6 
#
# 1 93.0785 39.9286 13.7082 0.0000 0.0000 0.0000
# 2 39.9286 93.0783 13.7081 0.0000 0.0000 0.0001
# 3 13.7082 13.7081 37.1822 0.0000 0.0000 0.0000
# 4 0.0000 0.0000 0.0000 3.2746 0.0000 0.0000
# 5 0.0000 0.0000 0.0000 0.0000 3.2746 0.0000
# 6 0.0000 0.0001 0.0000 0.0000 0.0000 26.5750
#
#
#
# Elastic Compliance Matrix: (Units=1/GPa)
#
#
# Indices 1 2 3 4 5 6 
#
# 1 0.013476 -0.005339 -0.003000 0.000000 0.000000 0.000000
# 2 -0.005339 0.013476 -0.003000 0.000000 0.000000 0.000000
# 3 -0.003000 -0.003000 0.029107 0.000000 0.000000 0.000000
# 4 0.000000 0.000000 0.000000 0.305380 0.000001 0.000000
# 5 0.000000 0.000000 0.000000 0.000001 0.305376 0.000000
# 6 0.000000 0.000000 0.000000 0.000000 0.000000 0.037629
#
#
# Mechanical properties :
#
#
# Convention : Reuss Voigt Hill
#
# Bulk Modulus (GPa) = 29.95740 39.78098 34.86919
# Shear Modulus (GPa) = 6.77280 17.02445 11.89862
#
# Velocity S-wave (km/s) = 2.12594 3.37057 2.81783
# Velocity P-wave (km/s) = 5.10072 6.45711 5.81857
#
# Compressibility (1/GPa) = 0.03338074
#
# Stress axis : x y z
#
# Youngs Moduli (GPa) = 74.20745 74.20733 34.35658
#
# Poissons Ratio (x) = 0.39619 0.10306
# Poissons Ratio (y) = 0.39619 0.10306
# Poissons Ratio (z) = 0.22261 0.22261
#
# Static dielectric constant tensor:
#      x y z
#    x 3.023790 0.000000 0.000000 
#    y 0.000000 3.023790 0.000000 
#    z 0.000000 0.000000 2.469940 
# 
# 
# High freq. dielectric constant tensor:
#      x y z
#    x 1.583680 0.000000 0.000000 
#    y 0.000000 1.583680 0.000000 
#    z 0.000000 0.000000 1.481710 
# 
# From -- ./inp_files/6664.got.cif
#   From: 2010.03.12/outbox.cif.g09.slc.cpg/sg192_4_cif.got.tgz:6664.got - 2010.04.01 12:16:15.
