data_PCOD8329517
_publ_section_title
;
Structure prediction by ZEFSAII (Michael W. Deem and Ramdas Pophale) SiO2 
 PCOD8329517
Probable space group: P 6/M C C
;
_chemical_formula_sum "Si O2"
_cell_formula_units_Z 144
_cell_length_a 32.198322
_cell_length_b 32.198322
_cell_length_c 9.157345
_cell_angle_alpha 90.000000
_cell_angle_beta 90.000000
_cell_angle_gamma 120.000000
_cell_volume 8221.795806
_symmetry_space_group_name_H-M "P 6/M C C"
_symmetry_group_IT_number 192
_symmetry_cell_setting 'hexagonal'
loop_
_space_group_symop_operation_xyz
x,y,z
x-y,x,z
-y,x-y,z
-x,-y,z
-x+y,-x,z
y,-x+y,z
x-y,-y,1/2-z
-x,-x+y,1/2-z
y,x,1/2-z
-y,-x,1/2-z
-x+y,y,1/2-z
x,x-y,1/2-z
-x,-y,-z
-x+y,-x,-z
y,-x+y,-z
x,y,-z
x-y,x,-z
-y,x-y,-z
-x+y,y,1/2+z
x,x-y,1/2+z
-y,-x,1/2+z
y,x,1/2+z
x-y,-y,1/2+z
-x,-x+y,1/2+z
loop_
_atom_site_type_symbol
_atom_site_label
_atom_site_fract_x
_atom_site_fract_y
_atom_site_fract_z
Si Si1 0.621827 0.724341 0.329335
Si Si2 0.141147 0.612829 0.828393
Si Si3 0.951557 0.385241 0.170622
Si Si4 0.282734 0.233721 0.830549
Si Si5 0.812977 0.862794 0.828389
Si Si6 0.474214 0.278818 0.329133
O O1 0.634020 0.734356 0.500000
O O2 0.605216 0.669433 0.289967
O O3 0.668324 0.759943 0.235917
O O4 0.579503 0.734567 0.284146
O O5 0.155522 0.577761 0.750000
O O6 0.088743 0.602233 0.778189
O O7 0.179400 0.667044 0.783020
O O8 0.141981 0.605791 0.000000
O O9 0.000000 0.421748 0.250000
O O10 0.960104 0.393366 0.000000
O O11 0.269963 0.269963 0.750000
O O12 0.241709 0.179002 0.805473
O O13 0.289794 0.247486 0.000000
O O14 0.848781 0.848781 0.750000
O O15 0.820130 0.910065 0.750000
O O16 0.825634 0.872230 0.000000
O O17 0.489631 0.244815 0.250000
O O18 0.476216 0.272242 0.500000
#
# Coordination Sequence:
#
# PCOD8329517 Si02
#       6
#    24  24  24  24  24  24
#     4   9  18  32  48  68  99 136 171 209 248 286
#     4   9  19  35  52  72  98 126 158 198 244 292
#     4   9  18  31  46  67  97 132 168 205 243 282
#     4  10  20  32  48  72 102 137 176 214 250 289
#     4  10  21  37  56  78 104 134 168 207 252 300
#     4   9  19  35  53  74 100 128 160 201 248 297
#
# _framework density 17.514422
#
# number of rings (size 3 to 8) (size 9 to 14) (size 15 to 20)
#    0.000    2.667    0.000    3.500    0.000    7.000 
#    0.000    8.333    0.000    0.500    0.000    1.167 
#    0.000    0.000    0.000    0.000    0.000    0.000 
#
# Total GULP energy -1785703.208979 kJ/mol
# GULP energy per Si atom -12400.716729 kJ/mol
# Density = 1.747456 g / cm^3
# Si number density = 17.514422 Si / 1000 Ang^3
#
#
#
# Elastic Constant Matrix: (Units=GPa)
#
#
# Indices 1 2 3 4 5 6 
#
# 1 115.1873 79.1975 62.2419 0.0000 0.0000 0.0000
# 2 79.1975 115.1873 62.2419 0.0000 0.0000 0.0000
# 3 62.2419 62.2419 83.7937 0.0000 0.0000 0.0000
# 4 0.0000 0.0000 0.0000 32.7963 0.0000 0.0000
# 5 0.0000 0.0000 0.0000 0.0000 32.7963 0.0000
# 6 0.0000 0.0000 0.0000 0.0000 0.0000 17.9949
#
#
#
# Elastic Compliance Matrix: (Units=1/GPa)
#
#
# Indices 1 2 3 4 5 6 
#
# 1 0.018799 -0.008987 -0.007288 0.000000 0.000000 0.000000
# 2 -0.008987 0.018799 -0.007288 0.000000 0.000000 0.000000
# 3 -0.007288 -0.007288 0.022761 0.000000 0.000000 0.000000
# 4 0.000000 0.000000 0.000000 0.030491 0.000000 0.000000
# 5 0.000000 0.000000 0.000000 0.000000 0.030491 0.000000
# 6 0.000000 0.000000 0.000000 0.000000 0.000000 0.055571
#
#
# Mechanical properties :
#
#
# Convention : Reuss Voigt Hill
#
# Bulk Modulus (GPa) = 75.57315 80.17009 77.87162
# Shear Modulus (GPa) = 21.88667 24.08333 22.98500
#
# Velocity S-wave (km/s) = 3.53886 3.71220 3.62656
# Velocity P-wave (km/s) = 7.74214 8.01542 7.87997
#
# Compressibility (1/GPa) = 0.01323221
#
# Stress axis : x y z
#
# Youngs Moduli (GPa) = 53.19522 53.19522 43.93416
#
# Poissons Ratio (x) = 0.47806 0.32020
# Poissons Ratio (y) = 0.47806 0.32020
# Poissons Ratio (z) = 0.38770 0.38770
#
# Static dielectric constant tensor:
#      x y z
#    x 3.289500 0.000000 0.000000 
#    y 0.000000 3.289500 0.000000 
#    z 0.000000 0.000000 3.169650 
# 
# 
# High freq. dielectric constant tensor:
#      x y z
#    x 1.668330 0.000000 0.000000 
#    y 0.000000 1.668330 0.000000 
#    z 0.000000 0.000000 1.678010 
# 
# From -- ./inp_files/1187.got.cif
#   From: 2010.03.12/outbox.cif.g09.slc.cpg/sg192_1_cif.got.tgz:1187.got - 2010.04.01 12:16:15.
