data_PCOD8329906
_publ_section_title
;
Structure prediction by ZEFSAII (Michael W. Deem and Ramdas Pophale) SiO2 
 PCOD8329906
Probable space group: P 63/M C M
;
_chemical_formula_sum "Si O2"
_cell_formula_units_Z 192
_cell_length_a 26.786202
_cell_length_b 26.786202
_cell_length_c 18.025531
_cell_angle_alpha 90.000000
_cell_angle_beta 90.000000
_cell_angle_gamma 120.000000
_cell_volume 11200.592011
_symmetry_space_group_name_H-M "P 63/M C M"
_symmetry_group_IT_number 193
_symmetry_cell_setting 'hexagonal'
loop_
_space_group_symop_operation_xyz
x,y,z
x-y,x,1/2+z
-y,x-y,z
-x,-y,1/2+z
-x+y,-x,z
y,-x+y,1/2+z
x-y,-y,1/2-z
-x,-x+y,1/2-z
y,x,1/2-z
-y,-x,-z
-x+y,y,-z
x,x-y,-z
-x,-y,-z
-x+y,-x,1/2-z
y,-x+y,-z
x,y,1/2-z
x-y,x,-z
-y,x-y,1/2-z
-x+y,y,1/2+z
x,x-y,1/2+z
-y,-x,1/2+z
y,x,z
x-y,-y,z
-x,-x+y,z
loop_
_atom_site_type_symbol
_atom_site_label
_atom_site_fract_x
_atom_site_fract_y
_atom_site_fract_z
Si Si1 0.326567 0.066492 0.837896
Si Si2 0.258413 0.129207 0.161867
Si Si3 0.552369 0.218866 0.663945
Si Si4 0.564652 0.839755 0.087374
Si Si5 0.447631 0.666497 0.163945
Si Si6 0.870536 0.935268 0.161422
Si Si7 0.260075 0.933508 0.162104
Si Si8 0.275103 0.435348 0.912626
O O1 0.334136 0.072241 0.750000
O O2 0.289822 0.095225 0.867278
O O3 0.389002 0.100463 0.875390
O O4 0.294895 0.000000 0.862955
O O5 0.256728 0.128364 0.250000
O O6 0.194011 0.097006 0.129538
O O7 0.289822 0.095225 0.132722
O O8 0.537429 0.203539 0.750000
O O9 0.497791 0.174435 0.615918
O O10 0.568495 0.284247 0.647775
O O11 0.606075 0.212151 0.638941
O O12 0.576608 0.788304 0.111223
O O13 0.567230 0.847719 0.000000
O O14 0.462571 0.666110 0.250000
O O15 0.502209 0.676643 0.115918
O O16 0.870099 0.935050 0.250000
O O17 0.903027 0.903027 0.130584
O O18 0.903027 0.000000 0.130584
O O19 0.261895 0.927759 0.250000
O O20 0.288539 0.899537 0.124610
O O21 0.294895 0.000000 0.137045
#
# Coordination Sequence:
#
# PCOD8329906 Si02
#       8
#    24  24  24  24  24  24  24  24
#     4  10  19  31  50  73  95 125 165 209 257 303
#     4   9  16  27  43  64  91 119 156 204 252 300
#     4   9  17  30  51  78 107 137 168 202 240 283
#     4  10  20  33  49  71 101 136 170 203 245 295
#     4   9  17  30  51  78 107 137 168 202 240 283
#     4   9  15  22  33  53  85 123 158 192 238 300
#     4  10  19  31  50  73  95 125 165 209 257 303
#     4  10  20  33  49  71 101 136 170 203 245 295
#
# _framework density 17.141950999999999
#
# number of rings (size 3 to 8) (size 9 to 14) (size 15 to 20)
#    0.000    2.500    1.250    1.875    0.000    6.500 
#    0.000    0.000    0.000    2.250    0.000    5.250 
#    0.000    0.000    0.000    0.000    0.000    8.875 
#
# Total GULP energy -2381094.845837 kJ/mol
# GULP energy per Si atom -12401.535655 kJ/mol
# Density = 1.710293 g / cm^3
# Si number density = 17.141951 Si / 1000 Ang^3
#
#
#
# Elastic Constant Matrix: (Units=GPa)
#
#
# Indices 1 2 3 4 5 6 
#
# 1 137.2733 75.3541 36.8274 0.0000 0.0000 0.0000
# 2 75.3541 137.2733 36.8274 0.0000 0.0000 0.0000
# 3 36.8274 36.8274 34.4572 0.0000 0.0000 0.0000
# 4 0.0000 0.0000 0.0000 14.6200 0.0000 0.0000
# 5 0.0000 0.0000 0.0000 0.0000 14.6200 0.0000
# 6 0.0000 0.0000 0.0000 0.0000 0.0000 30.9596
#
#
#
# Elastic Compliance Matrix: (Units=1/GPa)
#
#
# Indices 1 2 3 4 5 6 
#
# 1 0.011809 -0.004341 -0.007982 0.000000 0.000000 0.000000
# 2 -0.004341 0.011809 -0.007982 0.000000 0.000000 0.000000
# 3 -0.007982 -0.007982 0.046083 0.000000 0.000000 0.000000
# 4 0.000000 0.000000 0.000000 0.068400 0.000000 0.000000
# 5 0.000000 0.000000 0.000000 0.000000 0.068400 0.000000
# 6 0.000000 0.000000 0.000000 0.000000 0.000000 0.032300
#
#
# Mechanical properties :
#
#
# Convention : Reuss Voigt Hill
#
# Bulk Modulus (GPa) = 34.37350 67.44685 50.91018
# Shear Modulus (GPa) = 17.29468 22.70622 20.00045
#
# Velocity S-wave (km/s) = 3.17978 3.64345 3.41948
# Velocity P-wave (km/s) = 5.79458 7.55852 6.73455
#
# Compressibility (1/GPa) = 0.02909218
#
# Stress axis : x y z
#
# Youngs Moduli (GPa) = 84.68113 84.68113 21.70006
#
# Poissons Ratio (x) = 0.36761 0.17320
# Poissons Ratio (y) = 0.36761 0.17320
# Poissons Ratio (z) = 0.67589 0.67589
#
# Static dielectric constant tensor:
#      x y z
#    x 3.215610 0.000000 0.000000 
#    y 0.000000 3.215610 0.000000 
#    z 0.000000 0.000000 2.844040 
# 
# 
# High freq. dielectric constant tensor:
#      x y z
#    x 1.658300 0.000000 0.000000 
#    y 0.000000 1.658300 0.000000 
#    z 0.000000 0.000000 1.631610 
# 
# From -- ./inp_files/6894.got.cif
#   From: 2010.03.12/outbox.cif.g09.slc.cpg/sg193_4_cif.got.tgz:6894.got - 2010.04.01 12:20:39.
