data_PCOD8329108
_publ_section_title
;
Structure prediction by ZEFSAII (Michael W. Deem and Ramdas Pophale) SiO2 
 PCOD8329108
Probable space group: P 6/M M M
;
_chemical_formula_sum "Si O2"
_cell_formula_units_Z 114
_cell_length_a 20.299700
_cell_length_b 20.299700
_cell_length_c 16.793348
_cell_angle_alpha 90.000000
_cell_angle_beta 90.000000
_cell_angle_gamma 120.000000
_cell_volume 5993.039759
_symmetry_space_group_name_H-M "P 6/M M M"
_symmetry_group_IT_number 191
_symmetry_cell_setting 'hexagonal'
loop_
_space_group_symop_operation_xyz
x,y,z
x-y,x,z
-y,x-y,z
-x,-y,z
-x+y,-x,z
y,-x+y,z
x-y,-y,-z
-x,-x+y,-z
y,x,-z
-y,-x,-z
-x+y,y,-z
x,x-y,-z
-x,-y,-z
-x+y,-x,-z
y,-x+y,-z
x,y,-z
x-y,x,-z
-y,x-y,-z
-x+y,y,z
x,x-y,z
-y,-x,z
y,x,z
x-y,-y,z
-x,-x+y,z
loop_
_atom_site_type_symbol
_atom_site_label
_atom_site_fract_x
_atom_site_fract_y
_atom_site_fract_z
Si Si1 0.000000 0.144972 0.406266
Si Si2 0.335813 0.518700 0.000000
Si Si3 0.156812 0.156812 0.000000
Si Si4 0.573809 0.709437 0.855705
Si Si5 0.700639 0.141397 0.322080
Si Si6 0.000000 0.737502 0.860553
Si Si7 0.722129 0.000000 0.676684
Si Si8 0.088429 0.544215 0.594481
O O1 0.000000 0.221114 0.387343
O O2 0.073774 0.147547 0.367978
O O3 0.000000 0.135761 0.500000
O O4 0.350038 0.482228 0.078778
O O5 0.391757 0.608244 0.000000
O O6 0.250445 0.500889 0.000000
O O7 0.148191 0.074096 0.000000
O O8 0.199430 0.199430 0.081666
O O9 0.569285 0.784643 0.855948
O O10 0.546729 0.671597 0.769253
O O11 0.658202 0.731858 0.880107
O O12 0.775312 0.224689 0.335285
O O13 0.630908 0.133041 0.374471
O O14 0.719163 0.075609 0.343892
O O15 0.000000 0.753638 0.765791
O O16 0.093308 0.546654 0.500000
O O17 0.000000 0.500000 0.622686
#
# Coordination Sequence:
#
# PCOD8329108 Si02
#       8
#    12  12   6  24  24  12  12  12
#     4  10  21  36  55  83 120 156 186 224 282 351
#     4  10  20  34  52  78 111 145 181 224 270 335
#     4  12  25  38  54  78 115 162 208 248 286 332
#     4   9  19  35  56  84 114 144 185 233 287 344
#     4  10  21  39  63  89 119 157 198 247 301 362
#     4  10  20  37  60  81 107 149 188 237 293 339
#     4  10  20  38  64  93 116 145 197 253 305 354
#     4  11  24  42  64  89 121 161 201 246 310 370
#
# _framework density 19.022067
#
# number of rings (size 3 to 8) (size 9 to 14) (size 15 to 20)
#    0.000    2.000    1.053    2.158    1.474    5.053 
#    0.632    1.053    0.000    1.263    0.000    0.000 
#    0.000    0.000    0.000    0.000    0.000    0.000 
#
# Total GULP energy -1413161.410369 kJ/mol
# GULP energy per Si atom -12396.152723 kJ/mol
# Density = 1.897877 g / cm^3
# Si number density = 19.022067 Si / 1000 Ang^3
#
#
#
# Elastic Constant Matrix: (Units=GPa)
#
#
# Indices 1 2 3 4 5 6 
#
# 1 114.9656 43.3577 48.8237 0.0000 0.0000 0.0000
# 2 43.3577 114.9656 48.8237 0.0000 0.0000 0.0000
# 3 48.8237 48.8237 76.0785 0.0000 0.0000 0.0000
# 4 0.0000 0.0000 0.0000 34.2485 0.0000 0.0000
# 5 0.0000 0.0000 0.0000 0.0000 34.2485 0.0000
# 6 0.0000 0.0000 0.0000 0.0000 0.0000 35.8039
#
#
#
# Elastic Compliance Matrix: (Units=1/GPa)
#
#
# Indices 1 2 3 4 5 6 
#
# 1 0.012209 -0.001756 -0.006709 0.000000 0.000000 0.000000
# 2 -0.001756 0.012209 -0.006709 0.000000 0.000000 0.000000
# 3 -0.006709 -0.006709 0.021755 0.000000 0.000000 0.000000
# 4 0.000000 0.000000 0.000000 0.029198 0.000000 0.000000
# 5 0.000000 0.000000 0.000000 0.000000 0.029198 0.000000
# 6 0.000000 0.000000 0.000000 0.000000 0.000000 0.027930
#
#
# Mechanical properties :
#
#
# Convention : Reuss Voigt Hill
#
# Bulk Modulus (GPa) = 63.18064 65.33556 64.25810
# Shear Modulus (GPa) = 29.74013 31.86049 30.80031
#
# Velocity S-wave (km/s) = 3.95834 4.09702 4.02828
# Velocity P-wave (km/s) = 7.36056 7.53675 7.44917
#
# Compressibility (1/GPa) = 0.01582763
#
# Stress axis : x y z
#
# Youngs Moduli (GPa) = 81.90386 81.90386 45.96610
#
# Poissons Ratio (x) = 0.14378 0.30838
# Poissons Ratio (y) = 0.14378 0.30838
# Poissons Ratio (z) = 0.54948 0.54948
#
# Static dielectric constant tensor:
#      x y z
#    x 3.485320 0.000000 0.000000 
#    y 0.000000 3.485320 0.000000 
#    z 0.000000 0.000000 3.764280 
# 
# 
# High freq. dielectric constant tensor:
#      x y z
#    x 1.737820 0.000000 0.000000 
#    y 0.000000 1.737820 0.000000 
#    z 0.000000 0.000000 1.744240 
# 
# From -- ./inp_files/4467.got.cif
#   From: 2010.03.12/outbox.cif.g09.slc.cpg/sg191_3_cif.got.tgz:4467.got - 2010.04.01 12:09:02.
