data_PCOD8329575
_publ_section_title
;
Structure prediction by ZEFSAII (Michael W. Deem and Ramdas Pophale) SiO2 
 PCOD8329575
Probable space group: P 6/M C C
;
_chemical_formula_sum "Si O2"
_cell_formula_units_Z 144
_cell_length_a 32.322014
_cell_length_b 32.322014
_cell_length_c 8.833893
_cell_angle_alpha 90.000000
_cell_angle_beta 90.000000
_cell_angle_gamma 120.000000
_cell_volume 7992.443859
_symmetry_space_group_name_H-M "P 6/M C C"
_symmetry_group_IT_number 192
_symmetry_cell_setting 'hexagonal'
loop_
_space_group_symop_operation_xyz
x,y,z
x-y,x,z
-y,x-y,z
-x,-y,z
-x+y,-x,z
y,-x+y,z
x-y,-y,1/2-z
-x,-x+y,1/2-z
y,x,1/2-z
-y,-x,1/2-z
-x+y,y,1/2-z
x,x-y,1/2-z
-x,-y,-z
-x+y,-x,-z
y,-x+y,-z
x,y,-z
x-y,x,-z
-y,x-y,-z
-x+y,y,1/2+z
x,x-y,1/2+z
-y,-x,1/2+z
y,x,1/2+z
x-y,-y,1/2+z
-x,-x+y,1/2+z
loop_
_atom_site_type_symbol
_atom_site_label
_atom_site_fract_x
_atom_site_fract_y
_atom_site_fract_z
Si Si1 0.138701 0.188991 0.820583
Si Si2 0.278919 0.388735 0.821487
Si Si3 0.436118 0.386470 0.325124
Si Si4 0.718037 0.767118 0.676693
Si Si5 0.281357 0.805402 0.820153
Si Si6 0.855442 0.383972 0.821358
O O1 0.150408 0.150408 0.750000
O O2 0.089370 0.178739 0.750000
O O3 0.179744 0.242274 0.772212
O O4 0.134098 0.182768 0.000000
O O5 0.332017 0.401146 0.771675
O O6 0.242172 0.334029 0.776075
O O7 0.263477 0.421538 0.729980
O O8 0.277987 0.398785 0.000000
O O9 0.423448 0.423448 0.250000
O O10 0.429273 0.390652 0.500000
O O11 0.490396 0.401085 0.285081
O O12 0.727375 0.727375 0.750000
O O13 0.720405 0.760476 0.500000
O O14 0.246095 0.753906 0.750000
O O15 0.333375 0.821449 0.755416
O O16 0.281565 0.802367 0.000000
O O17 0.842281 0.421141 0.750000
O O18 0.845844 0.379189 0.000000
#
# Coordination Sequence:
#
# PCOD8329575 Si02
#       6
#    24  24  24  24  24  24
#     4  10  20  35  54  77 103 134 170 211 258 311
#     4   9  18  33  49  72 106 143 182 224 262 302
#     4   9  18  30  47  71 104 142 181 221 259 299
#     4   9  18  31  49  73 105 142 181 221 261 303
#     4  11  22  37  57  80 105 137 173 214 262 314
#     4  10  21  38  57  80 107 137 173 215 261 313
#
# _framework density 18.017018
#
# number of rings (size 3 to 8) (size 9 to 14) (size 15 to 20)
#    0.000    2.333    0.000    4.000    0.000    5.667 
#    0.000    3.333    0.000    0.500    0.000    3.500 
#    0.000    0.000    0.000    0.000    0.000    0.000 
#
# Total GULP energy -1785740.520345 kJ/mol
# GULP energy per Si atom -12400.975836 kJ/mol
# Density = 1.797601 g / cm^3
# Si number density = 18.017018 Si / 1000 Ang^3
#
#
#
# Elastic Constant Matrix: (Units=GPa)
#
#
# Indices 1 2 3 4 5 6 
#
# 1 104.2438 72.7577 55.2960 0.0000 0.0000 0.0000
# 2 72.7577 104.2438 55.2960 0.0000 0.0000 0.0000
# 3 55.2960 55.2960 95.5053 0.0000 0.0000 0.0000
# 4 0.0000 0.0000 0.0000 29.1397 0.0000 0.0000
# 5 0.0000 0.0000 0.0000 0.0000 29.1397 0.0000
# 6 0.0000 0.0000 0.0000 0.0000 0.0000 15.7431
#
#
#
# Elastic Compliance Matrix: (Units=1/GPa)
#
#
# Indices 1 2 3 4 5 6 
#
# 1 0.020306 -0.011454 -0.005125 0.000000 0.000000 0.000000
# 2 -0.011454 0.020306 -0.005125 0.000000 0.000000 0.000000
# 3 -0.005125 -0.005125 0.016405 0.000000 0.000000 0.000000
# 4 0.000000 0.000000 0.000000 0.034317 0.000000 0.000000
# 5 0.000000 0.000000 0.000000 0.000000 0.034317 0.000000
# 6 0.000000 0.000000 0.000000 0.000000 0.000000 0.063520
#
#
# Mechanical properties :
#
#
# Convention : Reuss Voigt Hill
#
# Bulk Modulus (GPa) = 73.48245 74.52138 74.00192
# Shear Modulus (GPa) = 21.08665 22.84737 21.96701
#
# Velocity S-wave (km/s) = 3.42478 3.56490 3.49554
# Velocity P-wave (km/s) = 7.51747 7.64174 7.57986
#
# Compressibility (1/GPa) = 0.01360869
#
# Stress axis : x y z
#
# Youngs Moduli (GPa) = 49.24669 49.24669 60.95591
#
# Poissons Ratio (x) = 0.56408 0.31240
# Poissons Ratio (y) = 0.56408 0.31240
# Poissons Ratio (z) = 0.25239 0.25239
#
# Static dielectric constant tensor:
#      x y z
#    x 3.291010 0.000000 0.000000 
#    y 0.000000 3.291010 0.000000 
#    z 0.000000 0.000000 3.319170 
# 
# 
# High freq. dielectric constant tensor:
#      x y z
#    x 1.689500 0.000000 0.000000 
#    y 0.000000 1.689500 0.000000 
#    z 0.000000 0.000000 1.702850 
# 
# From -- ./inp_files/1162.got.cif
#   From: 2010.03.12/outbox.cif.g09.slc.cpg/sg192_1_cif.got.tgz:1162.got - 2010.04.01 12:16:15.
