data_PCOD8329683
_publ_section_title
;
Structure prediction by ZEFSAII (Michael W. Deem and Ramdas Pophale) SiO2 
 PCOD8329683
Probable space group: P 6/M C C
;
_chemical_formula_sum "Si O2"
_cell_formula_units_Z 104
_cell_length_a 19.290573
_cell_length_b 19.290573
_cell_length_c 16.403300
_cell_angle_alpha 90.000000
_cell_angle_beta 90.000000
_cell_angle_gamma 120.000000
_cell_volume 5286.303767
_symmetry_space_group_name_H-M "P 6/M C C"
_symmetry_group_IT_number 192
_symmetry_cell_setting 'hexagonal'
loop_
_space_group_symop_operation_xyz
x,y,z
x-y,x,z
-y,x-y,z
-x,-y,z
-x+y,-x,z
y,-x+y,z
x-y,-y,1/2-z
-x,-x+y,1/2-z
y,x,1/2-z
-y,-x,1/2-z
-x+y,y,1/2-z
x,x-y,1/2-z
-x,-y,-z
-x+y,-x,-z
y,-x+y,-z
x,y,-z
x-y,x,-z
-y,x-y,-z
-x+y,y,1/2+z
x,x-y,1/2+z
-y,-x,1/2+z
y,x,1/2+z
x-y,-y,1/2+z
-x,-x+y,1/2+z
loop_
_atom_site_type_symbol
_atom_site_label
_atom_site_fract_x
_atom_site_fract_y
_atom_site_fract_z
Si Si1 0.666668 0.333335 0.346406
Si Si2 0.340160 0.173327 0.156139
Si Si3 0.029187 0.587571 0.657601
Si Si4 0.719552 0.003920 0.406042
Si Si5 0.698217 0.500015 0.593919
O O1 0.666668 0.333334 0.250000
O O2 0.720182 0.297311 0.379343
O O3 0.364527 0.182264 0.250000
O O4 0.288034 0.215991 0.141550
O O5 0.286574 0.081645 0.130423
O O6 0.421952 0.214197 0.103647
O O7 0.125627 0.636905 0.651918
O O8 0.000000 0.500000 0.621270
O O9 0.000000 0.582240 0.750000
O O10 0.991197 0.630085 0.604468
O O11 0.734184 0.995228 0.500000
O O12 0.671180 0.492507 0.500000
#
# Coordination Sequence:
#
# PCOD8329683 Si02
#       5
#     8  24  24  24  24
#     4  12  28  41  64  84 118 164 208 255 313 365
#     4  11  22  40  64  90 124 159 206 249 306 365
#     4  10  22  37  61  84 118 152 201 245 303 359
#     4  11  22  38  61  91 122 159 201 253 305 361
#     4  11  24  42  60  88 120 156 204 254 305 367
#
# _framework density 19.673482
#
# number of rings (size 3 to 8) (size 9 to 14) (size 15 to 20)
#    0.000    1.154    0.000    9.000    6.462    1.846 
#    0.000    0.000    0.000    0.462    0.000    3.231 
#    0.000    0.000    0.000    0.000    0.000    0.000 
#
# Total GULP energy -1290117.890348 kJ/mol
# GULP energy per Si atom -12404.979715 kJ/mol
# Density = 1.962870 g / cm^3
# Si number density = 19.673482 Si / 1000 Ang^3
#
#
#
# Elastic Constant Matrix: (Units=GPa)
#
#
# Indices 1 2 3 4 5 6 
#
# 1 113.5730 69.3801 27.1389 -0.0002 0.0003 0.0003
# 2 69.3801 113.5743 27.1386 0.0001 -0.0002 -0.0001
# 3 27.1389 27.1386 117.6754 -0.0001 -0.0004 -0.0002
# 4 -0.0002 0.0001 -0.0001 28.4387 0.0002 0.0003
# 5 0.0003 -0.0002 -0.0004 0.0002 28.4370 0.0001
# 6 0.0003 -0.0001 -0.0002 0.0003 0.0001 22.0959
#
#
#
# Elastic Compliance Matrix: (Units=1/GPa)
#
#
# Indices 1 2 3 4 5 6 
#
# 1 0.014248 -0.008380 -0.001353 0.000000 0.000000 0.000000
# 2 -0.008380 0.014247 -0.001353 0.000000 0.000000 0.000000
# 3 -0.001353 -0.001353 0.009122 0.000000 0.000000 0.000000
# 4 0.000000 0.000000 0.000000 0.035163 0.000000 0.000000
# 5 0.000000 0.000000 0.000000 0.000000 0.035165 0.000000
# 6 0.000000 0.000000 0.000000 0.000000 0.000000 0.045257
#
#
# Mechanical properties :
#
#
# Convention : Reuss Voigt Hill
#
# Bulk Modulus (GPa) = 64.74952 65.79310 65.27131
# Shear Modulus (GPa) = 27.69714 30.53868 29.11791
#
# Velocity S-wave (km/s) = 3.75619 3.94417 3.85133
# Velocity P-wave (km/s) = 7.19691 7.36594 7.28192
#
# Compressibility (1/GPa) = 0.01544413
#
# Stress axis : x y z
#
# Youngs Moduli (GPa) = 70.18729 70.18823 109.62407
#
# Poissons Ratio (x) = 0.58819 0.14834
# Poissons Ratio (y) = 0.58818 0.14833
# Poissons Ratio (z) = 0.09498 0.09497
#
# Static dielectric constant tensor:
#      x y z
#    x 3.721640 0.000000 0.000000 
#    y 0.000000 3.721660 0.000000 
#    z 0.000000 0.000000 3.673610 
# 
# 
# High freq. dielectric constant tensor:
#      x y z
#    x 1.761910 0.000000 0.000000 
#    y 0.000000 1.761910 0.000000 
#    z 0.000000 0.000000 1.780270 
# 
# From -- ./inp_files/2906.got.cif
#   From: 2010.03.12/outbox.cif.g09.slc.cpg/sg192_2_cif.got.tgz:2906.got - 2010.04.01 12:16:15.
