data_PCOD8329568
_publ_section_title
;
Structure prediction by ZEFSAII (Michael W. Deem and Ramdas Pophale) SiO2 
 PCOD8329568
Probable space group: P 6/M C C
;
_chemical_formula_sum "Si O2"
_cell_formula_units_Z 80
_cell_length_a 19.341282
_cell_length_b 19.341282
_cell_length_c 13.719454
_cell_angle_alpha 90.000000
_cell_angle_beta 90.000000
_cell_angle_gamma 120.000000
_cell_volume 4444.654157
_symmetry_space_group_name_H-M "P 6/M C C"
_symmetry_group_IT_number 192
_symmetry_cell_setting 'hexagonal'
loop_
_space_group_symop_operation_xyz
x,y,z
x-y,x,z
-y,x-y,z
-x,-y,z
-x+y,-x,z
y,-x+y,z
x-y,-y,1/2-z
-x,-x+y,1/2-z
y,x,1/2-z
-y,-x,1/2-z
-x+y,y,1/2-z
x,x-y,1/2-z
-x,-y,-z
-x+y,-x,-z
y,-x+y,-z
x,y,-z
x-y,x,-z
-y,x-y,-z
-x+y,y,1/2+z
x,x-y,1/2+z
-y,-x,1/2+z
y,x,1/2+z
x-y,-y,1/2+z
-x,-x+y,1/2+z
loop_
_atom_site_type_symbol
_atom_site_label
_atom_site_fract_x
_atom_site_fract_y
_atom_site_fract_z
Si Si1 0.163104 0.001002 0.500000
Si Si2 0.405487 0.812335 0.500000
Si Si3 0.414922 0.289863 0.000000
Si Si4 0.333334 0.666668 0.134895
Si Si5 0.873664 0.586103 0.500000
Si Si6 0.000068 0.711683 0.865038
O O1 0.210569 0.001452 0.596543
O O2 0.077054 0.924345 0.500000
O O3 0.500149 0.870118 0.500000
O O4 0.378098 0.757397 0.403505
O O5 0.368209 0.869793 0.500000
O O6 0.427908 0.214775 0.000000
O O7 0.367204 0.289070 0.903635
O O8 0.333334 0.666667 0.250000
O O9 0.920224 0.634249 0.596349
O O10 0.000000 0.711503 0.750000
#
# Coordination Sequence:
#
# PCOD8329568 Si02
#       6
#    12  12  12   8  12  24
#     4  10  21  38  60  85 114 146 184 230 286 333
#     4  10  20  39  56  82 118 146 184 238 282 333
#     4  10  20  38  59  79 110 153 183 228 288 332
#     4  10  20  34  55  86 115 145 188 232 283 338
#     4  10  20  38  59  79 110 153 183 228 288 332
#     4  10  22  37  57  84 112 147 192 230 271 335
#
# _framework density 17.999151000000001
#
# number of rings (size 3 to 8) (size 9 to 14) (size 15 to 20)
#    0.000    2.400    3.000    3.750    0.000    9.600 
#    0.000    1.500    0.000    1.800    0.000    0.000 
#    0.000    0.000    0.000    0.000    0.000    0.000 
#
# Total GULP energy -992070.491280 kJ/mol
# GULP energy per Si atom -12400.881141 kJ/mol
# Density = 1.795818 g / cm^3
# Si number density = 17.999151 Si / 1000 Ang^3
#
#
#
# Elastic Constant Matrix: (Units=GPa)
#
#
# Indices 1 2 3 4 5 6 
#
# 1 116.5364 42.3979 41.2375 -0.0003 0.0005 0.0011
# 2 42.3979 116.5401 41.2381 -0.0003 0.0005 0.0011
# 3 41.2375 41.2381 186.5884 -0.0003 0.0001 0.0003
# 4 -0.0003 -0.0003 -0.0003 8.5312 0.0000 0.0000
# 5 0.0005 0.0005 0.0001 0.0000 8.5310 0.0000
# 6 0.0011 0.0011 0.0003 0.0000 0.0000 37.0701
#
#
#
# Elastic Compliance Matrix: (Units=1/GPa)
#
#
# Indices 1 2 3 4 5 6 
#
# 1 0.010298 -0.003191 -0.001571 0.000000 0.000000 0.000000
# 2 -0.003191 0.010297 -0.001571 0.000000 0.000000 0.000000
# 3 -0.001571 -0.001571 0.006054 0.000000 0.000000 0.000000
# 4 0.000000 0.000000 0.000000 0.117217 0.000000 0.000000
# 5 0.000000 0.000000 0.000000 0.000000 0.117219 0.000000
# 6 0.000000 0.000000 0.000000 0.000000 0.000000 0.026976
#
#
# Mechanical properties :
#
#
# Convention : Reuss Voigt Hill
#
# Bulk Modulus (GPa) = 71.50669 74.37908 72.94288
# Shear Modulus (GPa) = 16.37271 30.47921 23.42596
#
# Velocity S-wave (km/s) = 3.01929 4.11952 3.61155
# Velocity P-wave (km/s) = 7.20895 8.00254 7.61609
#
# Compressibility (1/GPa) = 0.01398471
#
# Stress axis : x y z
#
# Youngs Moduli (GPa) = 97.11016 97.11327 165.18916
#
# Poissons Ratio (x) = 0.30984 0.25946
# Poissons Ratio (y) = 0.30983 0.25946
# Poissons Ratio (z) = 0.15253 0.15253
#
# Static dielectric constant tensor:
#      x y z
#    x 3.408670 0.000000 0.000000 
#    y 0.000000 3.408670 0.000000 
#    z 0.000000 0.000000 3.085470 
# 
# 
# High freq. dielectric constant tensor:
#      x y z
#    x 1.707460 0.000000 0.000000 
#    y 0.000000 1.707460 0.000000 
#    z 0.000000 0.000000 1.678860 
# 
# From -- ./inp_files/2689.got.cif
#   From: 2010.03.12/outbox.cif.g09.slc.cpg/sg192_2_cif.got.tgz:2689.got - 2010.04.01 12:16:15.
