data_PCOD8329363
_publ_section_title
;
Structure prediction by ZEFSAII (Michael W. Deem and Ramdas Pophale) SiO2 
 PCOD8329363
Probable space group: P 6/M C C
;
_chemical_formula_sum "Si O2"
_cell_formula_units_Z 144
_cell_length_a 23.799978
_cell_length_b 23.799978
_cell_length_c 16.980165
_cell_angle_alpha 90.000000
_cell_angle_beta 90.000000
_cell_angle_gamma 120.000000
_cell_volume 8329.628818
_symmetry_space_group_name_H-M "P 6/M C C"
_symmetry_group_IT_number 192
_symmetry_cell_setting 'hexagonal'
loop_
_space_group_symop_operation_xyz
x,y,z
x-y,x,z
-y,x-y,z
-x,-y,z
-x+y,-x,z
y,-x+y,z
x-y,-y,1/2-z
-x,-x+y,1/2-z
y,x,1/2-z
-y,-x,1/2-z
-x+y,y,1/2-z
x,x-y,1/2-z
-x,-y,-z
-x+y,-x,-z
y,-x+y,-z
x,y,-z
x-y,x,-z
-y,x-y,-z
-x+y,y,1/2+z
x,x-y,1/2+z
-y,-x,1/2+z
y,x,1/2+z
x-y,-y,1/2+z
-x,-x+y,1/2+z
loop_
_atom_site_type_symbol
_atom_site_label
_atom_site_fract_x
_atom_site_fract_y
_atom_site_fract_z
Si Si1 0.676360 0.535070 0.413619
Si Si2 0.655790 0.836090 0.411208
Si Si3 0.885189 0.294612 0.816606
Si Si4 0.668077 0.208373 0.235968
Si Si5 0.248248 0.300370 0.309520
Si Si6 0.366752 0.368282 0.409069
O O1 0.660618 0.502291 0.500000
O O2 0.746850 0.597676 0.414750
O O3 0.670839 0.481543 0.353639
O O4 0.626455 0.561333 0.394193
O O5 0.683509 0.840051 0.500000
O O6 0.629547 0.765381 0.375719
O O7 0.710319 0.891974 0.351737
O O8 0.826894 0.307164 0.796049
O O9 0.911538 0.280549 0.736558
O O10 0.940058 0.360307 0.859309
O O11 0.715059 0.284942 0.250000
O O12 0.594398 0.188796 0.250000
O O13 0.243181 0.243181 0.250000
O O14 0.297699 0.308728 0.379125
O O15 0.374113 0.357119 0.500000
#
# Coordination Sequence:
#
# PCOD8329363 Si02
#       6
#    24  24  24  24  24  24
#     4   9  18  35  54  72  98 128 153 191 250 301
#     4  10  17  28  49  71  96 129 161 200 247 298
#     4  11  18  31  49  75  98 121 164 200 245 306
#     4  12  23  39  56  75  94 121 163 207 251 305
#     4   9  16  26  46  67  98 127 158 201 244 294
#     4   9  17  29  49  76 101 124 152 195 247 302
#
# _framework density 17.287685
#
# number of rings (size 3 to 8) (size 9 to 14) (size 15 to 20)
#    0.000    2.000    5.000    2.667    0.000    0.000 
#    0.000    4.167    0.000    2.000    0.000    0.000 
#    0.000    0.000    0.000    0.000    0.000    0.000 
#
# Total GULP energy -1784006.953753 kJ/mol
# GULP energy per Si atom -12388.937179 kJ/mol
# Density = 1.724834 g / cm^3
# Si number density = 17.287685 Si / 1000 Ang^3
#
#
#
# Elastic Constant Matrix: (Units=GPa)
#
#
# Indices 1 2 3 4 5 6 
#
# 1 42.1022 32.3501 31.1411 0.0000 0.0000 0.0000
# 2 32.3501 42.1022 31.1411 0.0000 0.0000 0.0000
# 3 31.1411 31.1411 122.4784 0.0000 0.0000 0.0000
# 4 0.0000 0.0000 0.0000 16.6526 0.0000 0.0000
# 5 0.0000 0.0000 0.0000 0.0000 16.6526 0.0000
# 6 0.0000 0.0000 0.0000 0.0000 0.0000 4.8761
#
#
#
# Elastic Compliance Matrix: (Units=1/GPa)
#
#
# Indices 1 2 3 4 5 6 
#
# 1 0.059801 -0.042741 -0.004338 0.000000 0.000000 0.000000
# 2 -0.042741 0.059801 -0.004338 0.000000 0.000000 0.000000
# 3 -0.004338 -0.004338 0.010370 0.000000 0.000000 0.000000
# 4 0.000000 0.000000 0.000000 0.060051 0.000000 0.000000
# 5 0.000000 0.000000 0.000000 0.000000 0.060051 0.000000
# 6 0.000000 0.000000 0.000000 0.000000 0.000000 0.205083
#
#
# Mechanical properties :
#
#
# Convention : Reuss Voigt Hill
#
# Bulk Modulus (GPa) = 36.84610 43.99416 40.42013
# Shear Modulus (GPa) = 8.81779 15.10630 11.96205
#
# Velocity S-wave (km/s) = 2.26091 2.95925 2.63333
# Velocity P-wave (km/s) = 5.30805 6.09752 5.71643
#
# Compressibility (1/GPa) = 0.02713991
#
# Stress axis : x y z
#
# Youngs Moduli (GPa) = 16.72218 16.72218 96.42770
#
# Poissons Ratio (x) = 0.71472 0.41827
# Poissons Ratio (y) = 0.71472 0.41827
# Poissons Ratio (z) = 0.07253 0.07253
#
# Static dielectric constant tensor:
#      x y z
#    x 3.056680 0.000000 0.000000 
#    y 0.000000 3.056680 0.000000 
#    z 0.000000 0.000000 3.705640 
# 
# 
# High freq. dielectric constant tensor:
#      x y z
#    x 1.627390 0.000000 0.000000 
#    y 0.000000 1.627390 0.000000 
#    z 0.000000 0.000000 1.694260 
# 
# From -- ./inp_files/4326.got.cif
#   From: 2010.03.12/outbox.cif.g09.slc.cpg/sg192_3_cif.got.tgz:4326.got - 2010.04.01 12:16:15.
