data_PCOD8329578
_publ_section_title
;
Structure prediction by ZEFSAII (Michael W. Deem and Ramdas Pophale) SiO2 
 PCOD8329578
Probable space group: P 6/M C C
;
_chemical_formula_sum "Si O2"
_cell_formula_units_Z 92
_cell_length_a 20.497187
_cell_length_b 20.497187
_cell_length_c 14.400587
_cell_angle_alpha 90.000000
_cell_angle_beta 90.000000
_cell_angle_gamma 120.000000
_cell_volume 5239.614720
_symmetry_space_group_name_H-M "P 6/M C C"
_symmetry_group_IT_number 192
_symmetry_cell_setting 'hexagonal'
loop_
_space_group_symop_operation_xyz
x,y,z
x-y,x,z
-y,x-y,z
-x,-y,z
-x+y,-x,z
y,-x+y,z
x-y,-y,1/2-z
-x,-x+y,1/2-z
y,x,1/2-z
-y,-x,1/2-z
-x+y,y,1/2-z
x,x-y,1/2-z
-x,-y,-z
-x+y,-x,-z
y,-x+y,-z
x,y,-z
x-y,x,-z
-y,x-y,-z
-x+y,y,1/2+z
x,x-y,1/2+z
-y,-x,1/2+z
y,x,1/2+z
x-y,-y,1/2+z
-x,-x+y,1/2+z
loop_
_atom_site_type_symbol
_atom_site_label
_atom_site_fract_x
_atom_site_fract_y
_atom_site_fract_z
Si Si1 0.666667 0.333334 0.863813
Si Si2 0.687651 0.771221 0.142695
Si Si3 0.198661 0.599333 0.000000
Si Si4 0.661780 0.085611 0.500000
Si Si5 0.228782 0.916433 0.357305
Si Si6 0.661786 0.085621 0.000000
O O1 0.666668 0.333334 0.750000
O O2 0.624323 0.248661 0.905874
O O3 0.666621 0.757221 0.250000
O O4 0.755758 0.755760 0.117244
O O5 0.713602 0.856802 0.113442
O O6 0.612141 0.712722 0.090541
O O7 0.145887 0.510547 0.000000
O O8 0.145871 0.635326 0.000000
O O9 0.712718 0.100575 0.409459
O O10 0.591413 0.999995 0.500000
#
# Coordination Sequence:
#
# PCOD8329578 Si02
#       6
#     8  24  12  12  24  12
#     4  10  26  43  55  77 106 142 182 214 250 311
#     4   9  18  31  50  76 105 138 174 212 256 304
#     4  10  23  40  58  78 102 134 178 212 262 316
#     4  10  20  35  55  80 106 131 167 216 265 310
#     4   9  18  31  50  76 105 138 174 212 256 304
#     4  10  20  35  55  80 106 131 167 216 265 310
#
# _framework density 17.558541999999999
#
# number of rings (size 3 to 8) (size 9 to 14) (size 15 to 20)
#    0.000    2.609    0.000    1.174    7.304    2.087 
#    0.000    0.000    0.000    8.348    0.000    3.652 
#    0.000    6.261    0.000    0.522    0.000    0.000 
#
# Total GULP energy -1140299.359943 kJ/mol
# GULP energy per Si atom -12394.558260 kJ/mol
# Density = 1.751858 g / cm^3
# Si number density = 17.558542 Si / 1000 Ang^3
#
#
#
# Elastic Constant Matrix: (Units=GPa)
#
#
# Indices 1 2 3 4 5 6 
#
# 1 160.1425 97.3582 52.0751 0.0000 0.0000 0.0000
# 2 97.3582 160.1421 52.0750 0.0000 0.0000 0.0000
# 3 52.0751 52.0750 98.4271 0.0001 0.0000 0.0000
# 4 0.0000 0.0000 0.0001 17.9246 0.0000 0.0000
# 5 0.0000 0.0000 0.0000 0.0000 17.9247 0.0000
# 6 0.0000 0.0000 0.0000 0.0000 0.0000 31.3922
#
#
#
# Elastic Compliance Matrix: (Units=1/GPa)
#
#
# Indices 1 2 3 4 5 6 
#
# 1 0.010434 -0.005493 -0.002614 0.000000 0.000000 0.000000
# 2 -0.005493 0.010434 -0.002614 0.000000 0.000000 0.000000
# 3 -0.002614 -0.002614 0.012926 0.000000 0.000000 0.000000
# 4 0.000000 0.000000 0.000000 0.055789 0.000000 0.000000
# 5 0.000000 0.000000 0.000000 0.000000 0.055789 0.000000
# 6 0.000000 0.000000 0.000000 0.000000 0.000000 0.031855
#
#
# Mechanical properties :
#
#
# Convention : Reuss Voigt Hill
#
# Bulk Modulus (GPa) = 80.96338 91.30314 86.13326
# Shear Modulus (GPa) = 24.65633 27.92851 26.29242
#
# Velocity S-wave (km/s) = 3.75138 3.99255 3.87384
# Velocity P-wave (km/s) = 8.06067 8.56540 8.31687
#
# Compressibility (1/GPa) = 0.01235126
#
# Stress axis : x y z
#
# Youngs Moduli (GPa) = 95.83889 95.83873 77.36456
#
# Poissons Ratio (x) = 0.52648 0.20223
# Poissons Ratio (y) = 0.52648 0.20223
# Poissons Ratio (z) = 0.25053 0.25052
#
# Static dielectric constant tensor:
#      x y z
#    x 3.368100 0.000000 0.000000 
#    y 0.000000 3.368110 0.000000 
#    z 0.000000 0.000000 3.424770 
# 
# 
# High freq. dielectric constant tensor:
#      x y z
#    x 1.675450 0.000000 0.000000 
#    y 0.000000 1.675450 0.000000 
#    z 0.000000 0.000000 1.690120 
# 
# From -- ./inp_files/2813.got.cif
#   From: 2010.03.12/outbox.cif.g09.slc.cpg/sg192_2_cif.got.tgz:2813.got - 2010.04.01 12:16:15.
