data_PCOD8329023
_publ_section_title
;
Structure prediction by ZEFSAII (Michael W. Deem and Ramdas Pophale) SiO2 
 PCOD8329023
Probable space group: P 6/M M M
;
_chemical_formula_sum "Si O2"
_cell_formula_units_Z 72
_cell_length_a 17.769548
_cell_length_b 17.769548
_cell_length_c 15.475914
_cell_angle_alpha 90.000000
_cell_angle_beta 90.000000
_cell_angle_gamma 120.000000
_cell_volume 4231.941944
_symmetry_space_group_name_H-M "P 6/M M M"
_symmetry_group_IT_number 191
_symmetry_cell_setting 'hexagonal'
loop_
_space_group_symop_operation_xyz
x,y,z
x-y,x,z
-y,x-y,z
-x,-y,z
-x+y,-x,z
y,-x+y,z
x-y,-y,-z
-x,-x+y,-z
y,x,-z
-y,-x,-z
-x+y,y,-z
x,x-y,-z
-x,-y,-z
-x+y,-x,-z
y,-x+y,-z
x,y,-z
x-y,x,-z
-y,x-y,-z
-x+y,y,z
x,x-y,z
-y,-x,z
y,x,z
x-y,-y,z
-x,-x+y,z
loop_
_atom_site_type_symbol
_atom_site_label
_atom_site_fract_x
_atom_site_fract_y
_atom_site_fract_z
Si Si1 0.099195 0.370354 0.688280
Si Si2 0.741679 0.094669 0.500000
Si Si3 0.097219 0.731905 0.000000
Si Si4 0.839549 0.332271 0.842827
O O1 0.168381 0.336761 0.705786
O O2 0.109526 0.407048 0.589220
O O3 0.120891 0.450848 0.750115
O O4 0.000000 0.292067 0.704265
O O5 0.844595 0.155406 0.500000
O O6 0.730328 0.000000 0.500000
O O7 0.109065 0.686891 0.915867
O O8 0.164909 0.835092 0.000000
O O9 0.000000 0.717034 0.000000
O O10 0.853632 0.426816 0.858715
O O11 0.737372 0.262628 0.847243
#
# Coordination Sequence:
#
# PCOD8329023 Si02
#       4
#    24  12  12  24
#     4   9  17  29  46  67  90 118 151 188 229 272
#     4   8  14  26  43  62  85 113 147 185 226 272
#     4  10  21  35  51  72  97 125 154 186 225 267
#     4  10  20  33  49  69  94 123 154 188 227 270
#
# _framework density 17.013466000000001
#
# number of rings (size 3 to 8) (size 9 to 14) (size 15 to 20)
#    0.000    2.667    0.000    1.833    0.000    3.333 
#    0.000    2.500    0.000    3.667    0.000    7.000 
#    0.000    8.000    0.000    0.333    0.000    2.000 
#
# Total GULP energy -892008.369283 kJ/mol
# GULP energy per Si atom -12389.005129 kJ/mol
# Density = 1.697474 g / cm^3
# Si number density = 17.013466 Si / 1000 Ang^3
#
#
#
# Elastic Constant Matrix: (Units=GPa)
#
#
# Indices 1 2 3 4 5 6 
#
# 1 85.4959 60.1344 38.7457 0.0000 0.0000 0.0000
# 2 60.1344 85.4959 38.7457 0.0000 0.0000 0.0000
# 3 38.7457 38.7457 114.2150 0.0000 0.0000 0.0000
# 4 0.0000 0.0000 0.0000 16.0497 0.0000 0.0000
# 5 0.0000 0.0000 0.0000 0.0000 16.0497 0.0000
# 6 0.0000 0.0000 0.0000 0.0000 0.0000 12.6808
#
#
#
# Elastic Compliance Matrix: (Units=1/GPa)
#
#
# Indices 1 2 3 4 5 6 
#
# 1 0.023905 -0.015525 -0.002843 0.000000 0.000000 0.000000
# 2 -0.015525 0.023905 -0.002843 0.000000 0.000000 0.000000
# 3 -0.002843 -0.002843 0.010684 0.000000 0.000000 0.000000
# 4 0.000000 0.000000 0.000000 0.062307 0.000000 0.000000
# 5 0.000000 0.000000 0.000000 0.000000 0.062307 0.000000
# 6 0.000000 0.000000 0.000000 0.000000 0.000000 0.078860
#
#
# Mechanical properties :
#
#
# Convention : Reuss Voigt Hill
#
# Bulk Modulus (GPa) = 62.21864 62.27314 62.24589
# Shear Modulus (GPa) = 16.14236 18.79476 17.46856
#
# Velocity S-wave (km/s) = 3.08360 3.32731 3.20777
# Velocity P-wave (km/s) = 7.02337 7.17238 7.09827
#
# Compressibility (1/GPa) = 0.01607235
#
# Stress axis : x y z
#
# Youngs Moduli (GPa) = 41.83310 41.83310 93.59803
#
# Poissons Ratio (x) = 0.64947 0.26605
# Poissons Ratio (y) = 0.64947 0.26605
# Poissons Ratio (z) = 0.11891 0.11891
#
# Static dielectric constant tensor:
#      x y z
#    x 3.059460 0.000000 0.000000 
#    y 0.000000 3.059460 0.000000 
#    z 0.000000 0.000000 3.677540 
# 
# 
# High freq. dielectric constant tensor:
#      x y z
#    x 1.633940 0.000000 0.000000 
#    y 0.000000 1.633940 0.000000 
#    z 0.000000 0.000000 1.686660 
# 
# From -- ./inp_files/3904.got.cif
#   From: 2010.03.12/outbox.cif.g09.slc.cpg/sg191_2_cif.got.tgz:3904.got - 2010.04.01 12:09:02.
