data_PCOD8329528
_publ_section_title
;
Structure prediction by ZEFSAII (Michael W. Deem and Ramdas Pophale) SiO2 
 PCOD8329528
Probable space group: P 6/M C C
;
_chemical_formula_sum "Si O2"
_cell_formula_units_Z 168
_cell_length_a 17.620121
_cell_length_b 17.620121
_cell_length_c 35.515877
_cell_angle_alpha 90.000000
_cell_angle_beta 90.000000
_cell_angle_gamma 120.000000
_cell_volume 9549.287039
_symmetry_space_group_name_H-M "P 6/M C C"
_symmetry_group_IT_number 192
_symmetry_cell_setting 'hexagonal'
loop_
_space_group_symop_operation_xyz
x,y,z
x-y,x,z
-y,x-y,z
-x,-y,z
-x+y,-x,z
y,-x+y,z
x-y,-y,1/2-z
-x,-x+y,1/2-z
y,x,1/2-z
-y,-x,1/2-z
-x+y,y,1/2-z
x,x-y,1/2-z
-x,-y,-z
-x+y,-x,-z
y,-x+y,-z
x,y,-z
x-y,x,-z
-y,x-y,-z
-x+y,y,1/2+z
x,x-y,1/2+z
-y,-x,1/2+z
y,x,1/2+z
x-y,-y,1/2+z
-x,-x+y,1/2+z
loop_
_atom_site_type_symbol
_atom_site_label
_atom_site_fract_x
_atom_site_fract_y
_atom_site_fract_z
Si Si1 0.668329 0.509407 0.679484
Si Si2 0.097788 0.367760 0.609618
Si Si3 0.841078 0.331671 0.820516
Si Si4 0.631880 0.729639 0.750000
Si Si5 0.666848 0.160284 0.042851
Si Si6 0.160283 0.493435 0.542851
Si Si7 0.730028 0.097788 0.890383
O O1 0.571808 0.428192 0.682759
O O2 0.737704 0.475408 0.681332
O O3 0.683593 0.574446 0.713496
O O4 0.676956 0.558524 0.640577
O O5 0.118432 0.441476 0.640578
O O6 0.102825 0.410249 0.569030
O O7 0.165998 0.331995 0.612966
O O8 1.000000 0.285957 0.615076
O O9 0.890854 0.316408 0.786504
O O10 0.715572 0.715572 0.750000
O O11 0.667296 0.833648 0.750000
O O12 0.572958 0.145915 0.055010
O O13 0.737086 0.262914 0.047699
O O14 0.692577 0.102825 0.069030
O O15 0.664941 0.129494 0.000000
O O16 0.129494 0.464553 0.500000
#
# Coordination Sequence:
#
# PCOD8329528 Si02
#       7
#    24  24  24  24  24  24  24
#     4  10  20  33  50  73 102 134 164 192 224 267
#     4  10  21  35  50  69  93 122 156 196 242 286
#     4  10  20  33  50  73 102 134 164 192 224 267
#     4  10  21  35  51  72  97 127 162 202 247 287
#     4   9  17  29  46  69  98 131 163 192 223 264
#     4   9  17  29  46  69  98 131 163 192 223 264
#     4  10  21  35  50  69  93 122 156 196 242 286
#
# _framework density 17.592936000000002
#
# number of rings (size 3 to 8) (size 9 to 14) (size 15 to 20)
#    0.000    2.286    0.000    2.714    0.000    6.286 
#    0.000    5.714    0.000    0.429    0.000    0.000 
#    0.000    6.857    0.000    7.143    0.000    0.571 
#
# Total GULP energy -2083393.796057 kJ/mol
# GULP energy per Si atom -12401.153548 kJ/mol
# Density = 1.755289 g / cm^3
# Si number density = 17.592936 Si / 1000 Ang^3
#
#
#
# Elastic Constant Matrix: (Units=GPa)
#
#
# Indices 1 2 3 4 5 6 
#
# 1 102.7274 76.1369 32.1177 0.0000 0.0000 0.0000
# 2 76.1369 102.7274 32.1177 0.0000 0.0000 0.0000
# 3 32.1177 32.1177 89.5714 0.0000 0.0000 0.0000
# 4 0.0000 0.0000 0.0000 -4.0249 0.0000 0.0000
# 5 0.0000 0.0000 0.0000 0.0000 -4.0249 0.0000
# 6 0.0000 0.0000 0.0000 0.0000 0.0000 13.2953
#
#
#
# Elastic Compliance Matrix: (Units=1/GPa)
#
#
# Indices 1 2 3 4 5 6 
#
# 1 0.022012 -0.015595 -0.002301 0.000000 0.000000 0.000000
# 2 -0.015595 0.022012 -0.002301 0.000000 0.000000 0.000000
# 3 -0.002301 -0.002301 0.012814 0.000000 0.000000 0.000000
# 4 0.000000 0.000000 0.000000 -0.248452 0.000000 0.000000
# 5 0.000000 0.000000 0.000000 0.000000 -0.248452 0.000000
# 6 0.000000 0.000000 0.000000 0.000000 0.000000 0.075215
#
#
# Mechanical properties :
#
#
# Convention : Reuss Voigt Hill
#
# Bulk Modulus (GPa) = 60.80968 63.97452 62.39210
# Shear Modulus (GPa) = -15.67520 11.35936 -2.15792
#
# Velocity S-wave (km/s) = -2.98819 2.54377 -1.10871
# Velocity P-wave (km/s) = 4.76803 6.71345 5.82257
#
# Compressibility (1/GPa) = 0.01644475
#
# Stress axis : x y z
#
# Youngs Moduli (GPa) = 45.42923 45.42923 78.03699
#
# Poissons Ratio (x) = 0.70847 0.17956
# Poissons Ratio (y) = 0.70847 0.17956
# Poissons Ratio (z) = 0.10453 0.10453
#
# Static dielectric constant tensor:
#      x y z
#    x 3.122100 0.000000 0.000000 
#    y 0.000000 3.122100 0.000000 
#    z 0.000000 0.000000 3.547700 
# 
# 
# High freq. dielectric constant tensor:
#      x y z
#    x 1.658540 0.000000 0.000000 
#    y 0.000000 1.658540 0.000000 
#    z 0.000000 0.000000 1.703330 
# 
# From -- ./inp_files/7198.got.cif
#   From: 2010.03.12/outbox.cif.g09.slc.cpg/sg192_4_cif.got.tgz:7198.got - 2010.04.01 12:16:15.
