data_PCOD8329504
_publ_section_title
;
Structure prediction by ZEFSAII (Michael W. Deem and Ramdas Pophale) SiO2 
 PCOD8329504
Probable space group: P 6/M C C
;
_chemical_formula_sum "Si O2"
_cell_formula_units_Z 144
_cell_length_a 22.610102
_cell_length_b 22.610102
_cell_length_c 17.573563
_cell_angle_alpha 90.000000
_cell_angle_beta 90.000000
_cell_angle_gamma 120.000000
_cell_volume 7780.284848
_symmetry_space_group_name_H-M "P 6/M C C"
_symmetry_group_IT_number 192
_symmetry_cell_setting 'hexagonal'
loop_
_space_group_symop_operation_xyz
x,y,z
x-y,x,z
-y,x-y,z
-x,-y,z
-x+y,-x,z
y,-x+y,z
x-y,-y,1/2-z
-x,-x+y,1/2-z
y,x,1/2-z
-y,-x,1/2-z
-x+y,y,1/2-z
x,x-y,1/2-z
-x,-y,-z
-x+y,-x,-z
y,-x+y,-z
x,y,-z
x-y,x,-z
-y,x-y,-z
-x+y,y,1/2+z
x,x-y,1/2+z
-y,-x,1/2+z
y,x,1/2+z
x-y,-y,1/2+z
-x,-x+y,1/2+z
loop_
_atom_site_type_symbol
_atom_site_label
_atom_site_fract_x
_atom_site_fract_y
_atom_site_fract_z
Si Si1 0.668028 0.529377 0.416360
Si Si2 0.657308 0.845415 0.416957
Si Si3 0.886269 0.289515 0.819764
Si Si4 0.668127 0.207378 0.229286
Si Si5 0.278389 0.205085 0.222378
Si Si6 0.432862 0.433173 0.340529
O O1 0.636225 0.497876 0.500000
O O2 0.743740 0.587576 0.429900
O O3 0.668307 0.472748 0.361119
O O4 0.629973 0.563235 0.374177
O O5 0.690629 0.849309 0.500000
O O6 0.635088 0.773190 0.377531
O O7 0.710841 0.912446 0.368538
O O8 0.827136 0.297682 0.779648
O O9 0.922602 0.270425 0.752937
O O10 0.935949 0.360081 0.864524
O O11 0.712423 0.287578 0.250000
O O12 0.588939 0.177878 0.250000
O O13 0.215845 0.215845 0.250000
O O14 0.263256 0.131628 0.250000
O O15 0.500000 0.500000 0.372751
O O16 0.434114 0.434114 0.250000
#
# Coordination Sequence:
#
# PCOD8329504 Si02
#       6
#    24  24  24  24  24  24
#     4  11  22  37  55  80 112 140 180 243 308 353
#     4  10  20  35  57  85 115 152 192 243 301 358
#     4  11  19  35  58  82 113 149 203 244 305 369
#     4  12  22  39  59  81 104 152 208 249 296 368
#     4  10  19  35  59  86 118 157 199 241 292 367
#     4  11  21  34  56  84 110 149 196 248 306 380
#
# _framework density 18.508319
#
# number of rings (size 3 to 8) (size 9 to 14) (size 15 to 20)
#    0.000    1.167    5.000    3.167    0.000    1.000 
#    0.000    8.333    0.000    0.167    0.000    0.000 
#    0.000    0.000    0.000    6.000    0.000    0.000 
#
# Total GULP energy -1784192.968044 kJ/mol
# GULP energy per Si atom -12390.228945 kJ/mol
# Density = 1.846619 g / cm^3
# Si number density = 18.508319 Si / 1000 Ang^3
#
#
#
# Elastic Constant Matrix: (Units=GPa)
#
#
# Indices 1 2 3 4 5 6 
#
# 1 86.5523 33.7767 34.7638 0.0000 0.0000 0.0000
# 2 33.7767 86.5523 34.7638 0.0000 0.0000 0.0000
# 3 34.7638 34.7638 148.0010 0.0000 0.0000 0.0000
# 4 0.0000 0.0000 0.0000 18.2214 0.0000 0.0000
# 5 0.0000 0.0000 0.0000 0.0000 18.2214 0.0000
# 6 0.0000 0.0000 0.0000 0.0000 0.0000 26.3878
#
#
#
# Elastic Compliance Matrix: (Units=1/GPa)
#
#
# Indices 1 2 3 4 5 6 
#
# 1 0.014282 -0.004666 -0.002259 0.000000 0.000000 0.000000
# 2 -0.004666 0.014282 -0.002259 0.000000 0.000000 0.000000
# 3 -0.002259 -0.002259 0.007818 0.000000 0.000000 0.000000
# 4 0.000000 0.000000 0.000000 0.054881 0.000000 0.000000
# 5 0.000000 0.000000 0.000000 0.000000 0.054881 0.000000
# 6 0.000000 0.000000 0.000000 0.000000 0.000000 0.037896
#
#
# Mechanical properties :
#
#
# Convention : Reuss Voigt Hill
#
# Bulk Modulus (GPa) = 55.51069 58.63491 57.07280
# Shear Modulus (GPa) = 23.99107 27.08619 25.53863
#
# Velocity S-wave (km/s) = 3.60423 3.82967 3.71866
# Velocity P-wave (km/s) = 6.88317 7.16270 7.02432
#
# Compressibility (1/GPa) = 0.01801455
#
# Stress axis : x y z
#
# Youngs Moduli (GPa) = 70.01883 70.01883 127.91403
#
# Poissons Ratio (x) = 0.32673 0.28891
# Poissons Ratio (y) = 0.32673 0.28891
# Poissons Ratio (z) = 0.15814 0.15814
#
# Static dielectric constant tensor:
#      x y z
#    x 3.374300 0.000000 0.000000 
#    y 0.000000 3.374300 0.000000 
#    z 0.000000 0.000000 4.391550 
# 
# 
# High freq. dielectric constant tensor:
#      x y z
#    x 1.704190 0.000000 0.000000 
#    y 0.000000 1.704190 0.000000 
#    z 0.000000 0.000000 1.712950 
# 
# From -- ./inp_files/4339.got.cif
#   From: 2010.03.12/outbox.cif.g09.slc.cpg/sg192_3_cif.got.tgz:4339.got - 2010.04.01 12:16:15.
