data_PCOD8329330
_publ_section_title
;
Structure prediction by ZEFSAII (Michael W. Deem and Ramdas Pophale) SiO2 
 PCOD8329330
Probable space group: P 6/M M M
;
_chemical_formula_sum "Si O2"
_cell_formula_units_Z 168
_cell_length_a 22.762319
_cell_length_b 22.762319
_cell_length_c 22.871085
_cell_angle_alpha 90.000000
_cell_angle_beta 90.000000
_cell_angle_gamma 120.000000
_cell_volume 10262.434789
_symmetry_space_group_name_H-M "P 6/M M M"
_symmetry_group_IT_number 191
_symmetry_cell_setting 'hexagonal'
loop_
_space_group_symop_operation_xyz
x,y,z
x-y,x,z
-y,x-y,z
-x,-y,z
-x+y,-x,z
y,-x+y,z
x-y,-y,-z
-x,-x+y,-z
y,x,-z
-y,-x,-z
-x+y,y,-z
x,x-y,-z
-x,-y,-z
-x+y,-x,-z
y,-x+y,-z
x,y,-z
x-y,x,-z
-y,x-y,-z
-x+y,y,z
x,x-y,z
-y,-x,z
y,x,z
x-y,-y,z
-x,-x+y,z
loop_
_atom_site_type_symbol
_atom_site_label
_atom_site_fract_x
_atom_site_fract_y
_atom_site_fract_z
Si Si1 0.209812 0.923870 0.792328
Si Si2 0.666526 0.196546 0.932949
Si Si3 0.531908 0.198068 0.394034
Si Si4 0.793297 0.074495 0.342001
Si Si5 0.571919 0.716628 0.165120
Si Si6 0.801224 0.467386 0.258072
Si Si7 0.735899 0.125224 0.564606
O O1 0.131907 0.868094 0.809417
O O2 0.222332 0.913702 0.724319
O O3 0.265453 0.915489 0.830400
O O4 0.223245 0.000000 0.803949
O O5 0.596614 0.193228 0.915228
O O6 0.726930 0.273071 0.921611
O O7 0.677188 0.142933 0.894307
O O8 0.665233 0.175237 0.000000
O O9 0.596456 0.192912 0.414818
O O10 0.546598 0.273299 0.409455
O O11 0.517003 0.182728 0.325809
O O12 0.465671 0.139402 0.426503
O O13 0.870178 0.129823 0.359712
O O14 0.738510 0.077162 0.385293
O O15 0.784932 0.000000 0.348318
O O16 0.575021 0.787511 0.168238
O O17 0.530302 0.672257 0.221066
O O18 0.726713 0.453425 0.242465
O O19 0.803829 0.401915 0.237825
O O20 0.729608 0.093242 0.500000
O O21 0.803229 0.196772 0.570796
#
# Coordination Sequence:
#
# PCOD8329330 Si02
#       7
#    24  24  24  24  24  24  24
#     4   9  17  30  49  71  92 112 135 165 202 245
#     4   9  16  25  38  58  87 123 161 199 236 270
#     4   9  16  25  37  54  77 105 138 179 228 275
#     4   9  17  30  49  71  92 112 134 162 197 238
#     4   9  16  25  39  60  84 112 147 184 220 255
#     4   9  15  22  34  53  78 107 141 183 228 268
#     4   9  17  28  41  58  81 109 141 175 209 246
#
# _framework density 16.370384000000001
#
# number of rings (size 3 to 8) (size 9 to 14) (size 15 to 20)
#    0.000    3.000    0.000    1.714    0.000    5.714 
#    0.000    1.429    0.000    3.714    0.000   10.000 
#    0.000    0.000    0.000    3.571    0.000    3.714 
#
# Total GULP energy -2082002.859842 kJ/mol
# GULP energy per Si atom -12392.874166 kJ/mol
# Density = 1.633312 g / cm^3
# Si number density = 16.370384 Si / 1000 Ang^3
#
#
#
# Elastic Constant Matrix: (Units=GPa)
#
#
# Indices 1 2 3 4 5 6 
#
# 1 78.7506 42.2947 29.9919 0.0000 0.0000 0.0000
# 2 42.2947 78.7506 29.9919 0.0000 0.0000 0.0000
# 3 29.9919 29.9919 55.5777 0.0000 0.0000 0.0000
# 4 0.0000 0.0000 0.0000 14.2152 0.0000 0.0000
# 5 0.0000 0.0000 0.0000 0.0000 14.2152 0.0000
# 6 0.0000 0.0000 0.0000 0.0000 0.0000 18.2280
#
#
#
# Elastic Compliance Matrix: (Units=1/GPa)
#
#
# Indices 1 2 3 4 5 6 
#
# 1 0.019354 -0.008077 -0.006086 0.000000 0.000000 0.000000
# 2 -0.008077 0.019354 -0.006086 0.000000 0.000000 0.000000
# 3 -0.006086 -0.006086 0.024561 0.000000 0.000000 0.000000
# 4 0.000000 0.000000 0.000000 0.070347 0.000000 0.000000
# 5 0.000000 0.000000 0.000000 0.000000 0.070347 0.000000
# 6 0.000000 0.000000 0.000000 0.000000 0.000000 0.054861
#
#
# Mechanical properties :
#
#
# Convention : Reuss Voigt Hill
#
# Bulk Modulus (GPa) = 43.91209 46.40398 45.15804
# Shear Modulus (GPa) = 16.29143 16.71838 16.50491
#
# Velocity S-wave (km/s) = 3.15807 3.19918 3.17869
# Velocity P-wave (km/s) = 6.33878 6.48492 6.41227
#
# Compressibility (1/GPa) = 0.02277277
#
# Stress axis : x y z
#
# Youngs Moduli (GPa) = 51.66972 51.66972 40.71536
#
# Poissons Ratio (x) = 0.41732 0.24777
# Poissons Ratio (y) = 0.41732 0.24777
# Poissons Ratio (z) = 0.31444 0.31444
#
# Static dielectric constant tensor:
#      x y z
#    x 2.956660 0.000000 0.000000 
#    y 0.000000 2.956660 0.000000 
#    z 0.000000 0.000000 3.147420 
# 
# 
# High freq. dielectric constant tensor:
#      x y z
#    x 1.601940 0.000000 0.000000 
#    y 0.000000 1.601940 0.000000 
#    z 0.000000 0.000000 1.625890 
# 
# From -- ./inp_files/7925.got.cif
#   From: 2010.03.12/outbox.cif.g09.slc.cpg/sg191_4_cif.got.tgz:7925.got - 2010.04.01 12:09:02.
