data_PCOD8329216
_publ_section_title
;
Structure prediction by ZEFSAII (Michael W. Deem and Ramdas Pophale) SiO2 
 PCOD8329216
Probable space group: P 6/M M M
;
_chemical_formula_sum "Si O2"
_cell_formula_units_Z 156
_cell_length_a 20.983862
_cell_length_b 20.983862
_cell_length_c 22.561498
_cell_angle_alpha 90.000000
_cell_angle_beta 90.000000
_cell_angle_gamma 120.000000
_cell_volume 8603.385961
_symmetry_space_group_name_H-M "P 6/M M M"
_symmetry_group_IT_number 191
_symmetry_cell_setting 'hexagonal'
loop_
_space_group_symop_operation_xyz
x,y,z
x-y,x,z
-y,x-y,z
-x,-y,z
-x+y,-x,z
y,-x+y,z
x-y,-y,-z
-x,-x+y,-z
y,x,-z
-y,-x,-z
-x+y,y,-z
x,x-y,-z
-x,-y,-z
-x+y,-x,-z
y,-x+y,-z
x,y,-z
x-y,x,-z
-y,x-y,-z
-x+y,y,z
x,x-y,z
-y,-x,z
y,x,z
x-y,-y,z
-x,-x+y,z
loop_
_atom_site_type_symbol
_atom_site_label
_atom_site_fract_x
_atom_site_fract_y
_atom_site_fract_z
Si Si1 0.478916 0.815323 0.500000
Si Si2 0.353439 0.915494 0.169630
Si Si3 0.914583 0.560258 0.389108
Si Si4 0.666848 0.478725 0.932179
Si Si5 0.079925 0.780091 0.350494
Si Si6 0.336474 0.521383 0.721646
Si Si7 0.219554 0.299350 0.215242
O O1 0.390826 0.781652 0.500000
O O2 0.495446 0.747723 0.500000
O O3 0.511970 0.868290 0.556041
O O4 0.357795 0.885641 0.105328
O O5 0.355414 0.860598 0.217719
O O6 0.276028 0.912861 0.172928
O O7 0.419991 0.000000 0.177784
O O8 0.913352 0.636010 0.392562
O O9 0.874027 0.517053 0.330275
O O10 0.000000 0.578752 0.390116
O O11 0.744640 0.489280 0.909542
O O12 0.606953 0.393048 0.925473
O O13 0.672906 0.504470 0.000000
O O14 0.137966 0.862035 0.370596
O O15 0.093215 0.763658 0.282804
O O16 0.000000 0.772126 0.357233
O O17 0.251779 0.503558 0.718430
O O18 0.390625 0.609376 0.717125
O O19 0.137327 0.274654 0.195701
O O20 0.227372 0.227372 0.208855
#
# Coordination Sequence:
#
# PCOD8329216 Si02
#       7
#    12  24  24  24  24  24  24
#     4  12  26  43  61  79 106 143 181 217 259 320
#     4  11  22  35  53  78 105 137 175 220 271 317
#     4  11  23  39  59  82 106 136 174 222 273 317
#     4  10  21  37  56  76 101 136 177 219 264 319
#     4   9  16  29  50  75 102 132 168 208 253 303
#     4  12  24  38  56  78 107 139 175 219 268 322
#     4   9  16  28  48  73 101 131 166 207 252 303
#
# _framework density 18.132394999999999
#
# number of rings (size 3 to 8) (size 9 to 14) (size 15 to 20)
#    0.000    1.538    1.538    4.769    0.000    4.308 
#    0.000    3.846    0.000    0.308    0.000    2.154 
#    0.000    0.000    0.000    0.000    0.000   16.000 
#
# Total GULP energy -1933980.743014 kJ/mol
# GULP energy per Si atom -12397.312455 kJ/mol
# Density = 1.809113 g / cm^3
# Si number density = 18.132395 Si / 1000 Ang^3
#
#
#
# Elastic Constant Matrix: (Units=GPa)
#
#
# Indices 1 2 3 4 5 6 
#
# 1 104.6312 55.9644 35.5802 0.0000 0.0000 0.0000
# 2 55.9644 104.6312 35.5802 0.0000 0.0000 0.0000
# 3 35.5802 35.5802 77.2144 0.0000 0.0000 0.0000
# 4 0.0000 0.0000 0.0000 30.9211 0.0000 0.0000
# 5 0.0000 0.0000 0.0000 0.0000 30.9211 0.0000
# 6 0.0000 0.0000 0.0000 0.0000 0.0000 24.3334
#
#
#
# Elastic Compliance Matrix: (Units=1/GPa)
#
#
# Indices 1 2 3 4 5 6 
#
# 1 0.014186 -0.006362 -0.003605 0.000000 0.000000 0.000000
# 2 -0.006362 0.014186 -0.003605 0.000000 0.000000 0.000000
# 3 -0.003605 -0.003605 0.016274 0.000000 0.000000 0.000000
# 4 0.000000 0.000000 0.000000 0.032340 0.000000 0.000000
# 5 0.000000 0.000000 0.000000 0.000000 0.032340 0.000000
# 6 0.000000 0.000000 0.000000 0.000000 0.000000 0.041096
#
#
# Mechanical properties :
#
#
# Convention : Reuss Voigt Hill
#
# Bulk Modulus (GPa) = 57.14061 60.08069 58.61065
# Shear Modulus (GPa) = 27.26260 27.85859 27.56059
#
# Velocity S-wave (km/s) = 3.88174 3.92394 3.90290
# Velocity P-wave (km/s) = 7.18832 7.33050 7.25976
#
# Compressibility (1/GPa) = 0.01750069
#
# Stress axis : x y z
#
# Youngs Moduli (GPa) = 70.49129 70.49129 61.44873
#
# Poissons Ratio (x) = 0.44845 0.22155
# Poissons Ratio (y) = 0.44845 0.22155
# Poissons Ratio (z) = 0.25415 0.25415
#
# Static dielectric constant tensor:
#      x y z
#    x 3.411340 0.000000 0.000000 
#    y 0.000000 3.411340 0.000000 
#    z 0.000000 0.000000 3.366760 
# 
# 
# High freq. dielectric constant tensor:
#      x y z
#    x 1.702090 0.000000 0.000000 
#    y 0.000000 1.702090 0.000000 
#    z 0.000000 0.000000 1.686290 
# 
# From -- ./inp_files/7727.got.cif
#   From: 2010.03.12/outbox.cif.g09.slc.cpg/sg191_4_cif.got.tgz:7727.got - 2010.04.01 12:09:02.
