data_PCOD8329598
_publ_section_title
;
Structure prediction by ZEFSAII (Michael W. Deem and Ramdas Pophale) SiO2 
 PCOD8329598
Probable space group: P 6/M C C
;
_chemical_formula_sum "Si O2"
_cell_formula_units_Z 192
_cell_length_a 23.065423
_cell_length_b 23.065423
_cell_length_c 20.328684
_cell_angle_alpha 90.000000
_cell_angle_beta 90.000000
_cell_angle_gamma 120.000000
_cell_volume 9366.185264
_symmetry_space_group_name_H-M "P 6/M C C"
_symmetry_group_IT_number 192
_symmetry_cell_setting 'hexagonal'
loop_
_space_group_symop_operation_xyz
x,y,z
x-y,x,z
-y,x-y,z
-x,-y,z
-x+y,-x,z
y,-x+y,z
x-y,-y,1/2-z
-x,-x+y,1/2-z
y,x,1/2-z
-y,-x,1/2-z
-x+y,y,1/2-z
x,x-y,1/2-z
-x,-y,-z
-x+y,-x,-z
y,-x+y,-z
x,y,-z
x-y,x,-z
-y,x-y,-z
-x+y,y,1/2+z
x,x-y,1/2+z
-y,-x,1/2+z
y,x,1/2+z
x-y,-y,1/2+z
-x,-x+y,1/2+z
loop_
_atom_site_type_symbol
_atom_site_label
_atom_site_fract_x
_atom_site_fract_y
_atom_site_fract_z
Si Si1 0.161757 0.298396 0.073209
Si Si2 0.371346 0.306284 0.385580
Si Si3 0.064021 0.499695 0.425177
Si Si4 0.715224 0.086527 0.114420
Si Si5 0.945564 0.095046 0.921729
Si Si6 0.216391 0.667360 0.278915
Si Si7 0.519538 0.171014 0.574018
Si Si8 0.133731 0.734231 0.247025
O O1 0.240894 0.351959 0.070970
O O2 0.122184 0.327541 0.111726
O O3 0.143834 0.225986 0.102836
O O4 0.133003 0.286683 0.000000
O O5 0.447576 0.365398 0.392609
O O6 0.320858 0.331097 0.408811
O O7 0.362347 0.280602 0.311197
O O8 0.044802 0.476443 0.500000
O O9 0.127851 0.572191 0.418496
O O10 0.000000 0.500000 0.391569
O O11 0.685918 0.125240 0.072660
O O12 0.700276 0.086648 0.190758
O O13 0.020318 0.123188 0.893637
O O14 0.948486 0.094097 0.000000
O O15 0.291502 0.708499 0.250000
O O16 0.184933 0.592467 0.250000
O O17 0.217428 0.674786 0.359851
O O18 0.175732 0.696465 0.240587
O O19 0.538544 0.206397 0.500000
O O20 0.185724 0.814276 0.250000
#
# Coordination Sequence:
#
# PCOD8329598 Si02
#       8
#    24  24  24  24  24  24  24  24
#     4  11  23  35  53  85 121 160 203 249 310 385
#     4  12  22  37  63  86 120 163 207 251 319 381
#     4  10  20  36  59  92 126 157 200 251 311 376
#     4  11  22  38  59  84 116 161 202 257 314 374
#     4   9  17  31  50  75 110 151 198 249 302 367
#     4  10  21  39  64  89 121 164 210 261 316 373
#     4  10  21  39  62  89 124 164 207 261 321 379
#     4  10  21  40  59  82 116 153 204 258 308 372
#
# _framework density 20.499275000000001
#
# number of rings (size 3 to 8) (size 9 to 14) (size 15 to 20)
#    0.000    1.625    2.500    2.875    0.000    3.000 
#    0.000    0.625    0.000    0.000    0.000    0.000 
#    0.000    0.000    0.000    5.375    0.000    2.375 
#
# Total GULP energy -2379374.952025 kJ/mol
# GULP energy per Si atom -12392.577875 kJ/mol
# Density = 2.045262 g / cm^3
# Si number density = 20.499275 Si / 1000 Ang^3
#
#
#
# Elastic Constant Matrix: (Units=GPa)
#
#
# Indices 1 2 3 4 5 6 
#
# 1 95.3725 36.6024 21.1053 0.0000 0.0000 0.0000
# 2 36.6024 95.3725 21.1053 0.0000 0.0000 0.0000
# 3 21.1053 21.1053 88.3678 0.0000 0.0000 0.0000
# 4 0.0000 0.0000 0.0000 19.6676 0.0000 0.0000
# 5 0.0000 0.0000 0.0000 0.0000 19.6676 0.0000
# 6 0.0000 0.0000 0.0000 0.0000 0.0000 29.3850
#
#
#
# Elastic Compliance Matrix: (Units=1/GPa)
#
#
# Indices 1 2 3 4 5 6 
#
# 1 0.012610 -0.004406 -0.001959 0.000000 0.000000 0.000000
# 2 -0.004406 0.012610 -0.001959 0.000000 0.000000 0.000000
# 3 -0.001959 -0.001959 0.012252 0.000000 0.000000 0.000000
# 4 0.000000 0.000000 0.000000 0.050845 0.000000 0.000000
# 5 0.000000 0.000000 0.000000 0.000000 0.050845 0.000000
# 6 0.000000 0.000000 0.000000 0.000000 0.000000 0.034031
#
#
# Mechanical properties :
#
#
# Convention : Reuss Voigt Hill
#
# Bulk Modulus (GPa) = 48.02488 48.52655 48.27572
# Shear Modulus (GPa) = 25.40877 27.09736 26.25306
#
# Velocity S-wave (km/s) = 3.52447 3.63970 3.58254
# Velocity P-wave (km/s) = 6.32779 6.43326 6.38075
#
# Compressibility (1/GPa) = 0.02082254
#
# Stress axis : x y z
#
# Youngs Moduli (GPa) = 79.30416 79.30416 81.61744
#
# Poissons Ratio (x) = 0.34940 0.15992
# Poissons Ratio (y) = 0.34940 0.15992
# Poissons Ratio (z) = 0.15539 0.15539
#
# Static dielectric constant tensor:
#      x y z
#    x 3.770330 0.000000 0.000000 
#    y 0.000000 3.770330 0.000000 
#    z 0.000000 0.000000 3.586900 
# 
# 
# High freq. dielectric constant tensor:
#      x y z
#    x 1.799510 0.000000 0.000000 
#    y 0.000000 1.799510 0.000000 
#    z 0.000000 0.000000 1.782110 
# 
# From -- ./inp_files/5407.got.cif
#   From: 2010.03.12/outbox.cif.g09.slc.cpg/sg192_3_cif.got.tgz:5407.got - 2010.04.01 12:16:15.
