data_PCOD8329838
_publ_section_title
;
Structure prediction by ZEFSAII (Michael W. Deem and Ramdas Pophale) SiO2 
 PCOD8329838
Probable space group: P 63/M C M
;
_chemical_formula_sum "Si O2"
_cell_formula_units_Z 84
_cell_length_a 16.840538
_cell_length_b 16.840538
_cell_length_c 19.329837
_cell_angle_alpha 90.000000
_cell_angle_beta 90.000000
_cell_angle_gamma 120.000000
_cell_volume 4747.563113
_symmetry_space_group_name_H-M "P 63/M C M"
_symmetry_group_IT_number 193
_symmetry_cell_setting 'hexagonal'
loop_
_space_group_symop_operation_xyz
x,y,z
x-y,x,1/2+z
-y,x-y,z
-x,-y,1/2+z
-x+y,-x,z
y,-x+y,1/2+z
x-y,-y,1/2-z
-x,-x+y,1/2-z
y,x,1/2-z
-y,-x,-z
-x+y,y,-z
x,x-y,-z
-x,-y,-z
-x+y,-x,1/2-z
y,-x+y,-z
x,y,1/2-z
x-y,x,-z
-y,x-y,1/2-z
-x+y,y,1/2+z
x,x-y,1/2+z
-y,-x,1/2+z
y,x,z
x-y,-y,z
-x,-x+y,z
loop_
_atom_site_type_symbol
_atom_site_label
_atom_site_fract_x
_atom_site_fract_y
_atom_site_fract_z
Si Si1 0.104764 0.209527 0.000000
Si Si2 0.829514 0.215156 0.925883
Si Si3 0.338152 0.891210 0.328974
Si Si4 0.475034 0.580948 0.572957
O O1 0.106055 0.275435 0.937463
O O2 0.145607 0.145607 0.975176
O O3 0.758666 0.154918 0.867204
O O4 0.882467 0.321570 0.904840
O O5 0.784601 0.215400 0.000000
O O6 0.323551 0.858203 0.250000
O O7 0.400723 0.854984 0.365223
O O8 0.381891 0.000000 0.334517
O O9 0.424121 0.575880 0.500000
O O10 0.508698 0.508698 0.566610
#
# Coordination Sequence:
#
# PCOD8329838 Si02
#       4
#    12  24  24  24
#     4  10  19  32  54  86 116 144 182 236 293 342
#     4  10  20  32  55  83 108 142 188 230 275 330
#     4  10  21  37  55  77 110 149 183 223 279 333
#     4  10  18  33  55  78 105 141 183 225 268 321
#
# _framework density 17.693287999999999
#
# number of rings (size 3 to 8) (size 9 to 14) (size 15 to 20)
#    0.857    1.143    2.857    1.857    0.000    1.143 
#    1.714    1.429    0.000    2.571    0.000    0.000 
#    0.000    2.286    0.000    0.000    0.000    0.000 
#
# Total GULP energy -1040602.868990 kJ/mol
# GULP energy per Si atom -12388.129393 kJ/mol
# Density = 1.765302 g / cm^3
# Si number density = 17.693288 Si / 1000 Ang^3
#
#
#
# Elastic Constant Matrix: (Units=GPa)
#
#
# Indices 1 2 3 4 5 6 
#
# 1 78.1378 24.4789 31.0698 0.0000 0.0000 0.0000
# 2 24.4789 78.1378 31.0698 0.0000 0.0000 0.0000
# 3 31.0698 31.0698 132.3706 0.0000 0.0000 0.0000
# 4 0.0000 0.0000 0.0000 22.5919 0.0000 0.0000
# 5 0.0000 0.0000 0.0000 0.0000 22.5919 0.0000
# 6 0.0000 0.0000 0.0000 0.0000 0.0000 26.8294
#
#
#
# Elastic Compliance Matrix: (Units=1/GPa)
#
#
# Indices 1 2 3 4 5 6 
#
# 1 0.014998 -0.003638 -0.002666 0.000000 0.000000 0.000000
# 2 -0.003638 0.014998 -0.002666 0.000000 0.000000 0.000000
# 3 -0.002666 -0.002666 0.008806 0.000000 0.000000 0.000000
# 4 0.000000 0.000000 0.000000 0.044264 0.000000 0.000000
# 5 0.000000 0.000000 0.000000 0.000000 0.044264 0.000000
# 6 0.000000 0.000000 0.000000 0.000000 0.000000 0.037272
#
#
# Mechanical properties :
#
#
# Convention : Reuss Voigt Hill
#
# Bulk Modulus (GPa) = 47.93825 51.32035 49.62930
# Shear Modulus (GPa) = 26.38563 27.87116 27.12839
#
# Velocity S-wave (km/s) = 3.86590 3.97323 3.91993
# Velocity P-wave (km/s) = 6.86147 7.07936 6.97126
#
# Compressibility (1/GPa) = 0.02086017
#
# Stress axis : x y z
#
# Youngs Moduli (GPa) = 66.67592 66.67592 113.55626
#
# Poissons Ratio (x) = 0.24259 0.30278
# Poissons Ratio (y) = 0.24259 0.30278
# Poissons Ratio (z) = 0.17778 0.17778
#
# Static dielectric constant tensor:
#      x y z
#    x 3.109320 0.000000 0.000000 
#    y 0.000000 3.109320 0.000000 
#    z 0.000000 0.000000 3.260440 
# 
# 
# High freq. dielectric constant tensor:
#      x y z
#    x 1.674850 0.000000 0.000000 
#    y 0.000000 1.674850 0.000000 
#    z 0.000000 0.000000 1.663930 
# 
# From -- ./inp_files/6033.got.cif
#   From: 2010.03.12/outbox.cif.g09.slc.cpg/sg193_4_cif.got.tgz:6033.got - 2010.04.01 12:20:39.
