data_PCOD8329486
_publ_section_title
;
Structure prediction by ZEFSAII (Michael W. Deem and Ramdas Pophale) SiO2 
 PCOD8329486
Probable space group: P 6/M C C
;
_chemical_formula_sum "Si O2"
_cell_formula_units_Z 72
_cell_length_a 22.515222
_cell_length_b 22.515222
_cell_length_c 8.790223
_cell_angle_alpha 90.000000
_cell_angle_beta 90.000000
_cell_angle_gamma 120.000000
_cell_volume 3859.072978
_symmetry_space_group_name_H-M "P 6/M C C"
_symmetry_group_IT_number 192
_symmetry_cell_setting 'hexagonal'
loop_
_space_group_symop_operation_xyz
x,y,z
x-y,x,z
-y,x-y,z
-x,-y,z
-x+y,-x,z
y,-x+y,z
x-y,-y,1/2-z
-x,-x+y,1/2-z
y,x,1/2-z
-y,-x,1/2-z
-x+y,y,1/2-z
x,x-y,1/2-z
-x,-y,-z
-x+y,-x,-z
y,-x+y,-z
x,y,-z
x-y,x,-z
-y,x-y,-z
-x+y,y,1/2+z
x,x-y,1/2+z
-y,-x,1/2+z
y,x,1/2+z
x-y,-y,1/2+z
-x,-x+y,1/2+z
loop_
_atom_site_type_symbol
_atom_site_label
_atom_site_fract_x
_atom_site_fract_y
_atom_site_fract_z
Si Si1 0.071607 0.271702 0.180466
Si Si2 0.336231 0.406213 0.678298
Si Si3 0.539218 0.332718 0.819367
O O1 0.130233 0.260465 0.250000
O O2 0.084926 0.346381 0.231794
O O3 0.000000 0.213536 0.250000
O O4 0.070368 0.264179 0.000000
O O5 0.396092 0.396092 0.750000
O O6 0.342955 0.403468 0.500000
O O7 0.347684 0.479317 0.731563
O O8 0.610366 0.389635 0.750000
O O9 0.519776 0.259888 0.750000
O O10 0.545567 0.330799 0.000000
#
# Coordination Sequence:
#
# PCOD8329486 Si02
#       3
#    24  24  24
#     4  10  19  33  53  79 108 140 176 217 262 313
#     4   9  20  36  56  81 109 139 174 216 268 320
#     4  11  23  39  57  79 106 141 181 223 267 316
#
# _framework density 18.657330000000002
#
# number of rings (size 3 to 8) (size 9 to 14) (size 15 to 20)
#    0.000    2.000    0.000    3.333    0.000    4.667 
#    0.000    3.333    0.000    0.333    0.000    2.333 
#    0.000    0.000    0.000    0.000    0.000    0.000 
#
# Total GULP energy -893096.122840 kJ/mol
# GULP energy per Si atom -12404.112817 kJ/mol
# Density = 1.861487 g / cm^3
# Si number density = 18.657330 Si / 1000 Ang^3
#
#
#
# Elastic Constant Matrix: (Units=GPa)
#
#
# Indices 1 2 3 4 5 6 
#
# 1 107.6607 49.2798 40.8961 0.0000 0.0000 0.0000
# 2 49.2798 107.6607 40.8961 0.0000 0.0000 0.0000
# 3 40.8961 40.8961 70.7785 0.0000 0.0000 0.0000
# 4 0.0000 0.0000 0.0000 29.0028 0.0000 0.0000
# 5 0.0000 0.0000 0.0000 0.0000 29.0028 0.0000
# 6 0.0000 0.0000 0.0000 0.0000 0.0000 29.1904
#
#
#
# Elastic Compliance Matrix: (Units=1/GPa)
#
#
# Indices 1 2 3 4 5 6 
#
# 1 0.013123 -0.004006 -0.005268 0.000000 0.000000 0.000000
# 2 -0.004006 0.013123 -0.005268 0.000000 0.000000 0.000000
# 3 -0.005268 -0.005268 0.020216 0.000000 0.000000 0.000000
# 4 0.000000 0.000000 0.000000 0.034479 0.000000 0.000000
# 5 0.000000 0.000000 0.000000 0.000000 0.034479 0.000000
# 6 0.000000 0.000000 0.000000 0.000000 0.000000 0.034258
#
#
# Mechanical properties :
#
#
# Convention : Reuss Voigt Hill
#
# Bulk Modulus (GPa) = 57.54098 60.91600 59.22849
# Shear Modulus (GPa) = 27.09206 27.77442 27.43324
#
# Velocity S-wave (km/s) = 3.81476 3.86250 3.83870
# Velocity P-wave (km/s) = 7.09303 7.25346 7.17369
#
# Compressibility (1/GPa) = 0.01737892
#
# Stress axis : x y z
#
# Youngs Moduli (GPa) = 76.20131 76.20131 49.46483
#
# Poissons Ratio (x) = 0.30524 0.26058
# Poissons Ratio (y) = 0.30524 0.26058
# Poissons Ratio (z) = 0.40143 0.40143
#
# Static dielectric constant tensor:
#      x y z
#    x 3.497960 0.000000 0.000000 
#    y 0.000000 3.497960 0.000000 
#    z 0.000000 0.000000 3.458890 
# 
# 
# High freq. dielectric constant tensor:
#      x y z
#    x 1.725260 0.000000 0.000000 
#    y 0.000000 1.725260 0.000000 
#    z 0.000000 0.000000 1.732300 
# 
# From -- ./inp_files/520.got.cif
#   From: 2010.03.12/outbox.cif.g09.slc.cpg/sg192_1_cif.got.tgz:520.got - 2010.04.01 12:16:15.
