data_PCOD8329203
_publ_section_title
;
Structure prediction by ZEFSAII (Michael W. Deem and Ramdas Pophale) SiO2 
 PCOD8329203
Probable space group: P 6/M M M
;
_chemical_formula_sum "Si O2"
_cell_formula_units_Z 72
_cell_length_a 18.351044
_cell_length_b 18.351044
_cell_length_c 14.349248
_cell_angle_alpha 90.000000
_cell_angle_beta 90.000000
_cell_angle_gamma 120.000000
_cell_volume 4184.863784
_symmetry_space_group_name_H-M "P 6/M M M"
_symmetry_group_IT_number 191
_symmetry_cell_setting 'hexagonal'
loop_
_space_group_symop_operation_xyz
x,y,z
x-y,x,z
-y,x-y,z
-x,-y,z
-x+y,-x,z
y,-x+y,z
x-y,-y,-z
-x,-x+y,-z
y,x,-z
-y,-x,-z
-x+y,y,-z
x,x-y,-z
-x,-y,-z
-x+y,-x,-z
y,-x+y,-z
x,y,-z
x-y,x,-z
-y,x-y,-z
-x+y,y,z
x,x-y,z
-y,-x,z
y,x,z
x-y,-y,z
-x,-x+y,z
loop_
_atom_site_type_symbol
_atom_site_label
_atom_site_fract_x
_atom_site_fract_y
_atom_site_fract_z
Si Si1 0.807459 0.614918 0.389709
Si Si2 0.903757 0.807514 0.389101
Si Si3 0.904861 0.370009 0.295624
Si Si4 0.500589 0.834947 0.102338
O O1 0.808012 0.616023 0.500000
O O2 0.855612 0.711224 0.351825
O O3 0.712528 0.563464 0.355153
O O4 0.855527 0.855527 0.351616
O O5 0.904107 0.808213 0.500000
O O6 0.872899 0.436450 0.315703
O O7 0.901041 0.351511 0.184603
O O8 0.000000 0.408406 0.328574
O O9 0.402042 0.804083 0.105554
O O10 0.511212 0.755606 0.121617
O O11 0.537644 0.874917 0.000000
#
# Coordination Sequence:
#
# PCOD8329203 Si02
#       4
#    12  12  24  24
#     4  11  22  37  53  72  99 139 182 219 262 307
#     4   9  17  30  51  77 101 125 158 206 263 320
#     4  10  21  36  53  75 103 135 172 215 260 305
#     4   9  16  28  49  76 103 130 162 202 252 308
#
# _framework density 17.204861000000001
#
# number of rings (size 3 to 8) (size 9 to 14) (size 15 to 20)
#    0.000    2.333    1.667    1.500    0.000    5.333 
#    1.000    5.000    0.000    0.000    0.000    0.000 
#    0.000    0.000    0.000    0.000    0.000   11.833 
#
# Total GULP energy -892414.717280 kJ/mol
# GULP energy per Si atom -12394.648851 kJ/mol
# Density = 1.716570 g / cm^3
# Si number density = 17.204861 Si / 1000 Ang^3
#
#
#
# Elastic Constant Matrix: (Units=GPa)
#
#
# Indices 1 2 3 4 5 6 
#
# 1 107.7967 61.5350 38.7817 0.0000 0.0000 0.0000
# 2 61.5350 107.7967 38.7817 0.0000 0.0000 0.0000
# 3 38.7817 38.7817 67.8648 0.0000 0.0000 0.0000
# 4 0.0000 0.0000 0.0000 14.9753 0.0000 0.0000
# 5 0.0000 0.0000 0.0000 0.0000 14.9753 0.0000
# 6 0.0000 0.0000 0.0000 0.0000 0.0000 23.1308
#
#
#
# Elastic Compliance Matrix: (Units=1/GPa)
#
#
# Indices 1 2 3 4 5 6 
#
# 1 0.014808 -0.006808 -0.004571 0.000000 0.000000 0.000000
# 2 -0.006808 0.014808 -0.004571 0.000000 0.000000 0.000000
# 3 -0.004571 -0.004571 0.019960 0.000000 0.000000 0.000000
# 4 0.000000 0.000000 0.000000 0.066777 0.000000 0.000000
# 5 0.000000 0.000000 0.000000 0.000000 0.066777 0.000000
# 6 0.000000 0.000000 0.000000 0.000000 0.000000 0.043232
#
#
# Mechanical properties :
#
#
# Convention : Reuss Voigt Hill
#
# Bulk Modulus (GPa) = 56.58219 62.40611 59.49415
# Shear Modulus (GPa) = 18.92832 20.24026 19.58429
#
# Velocity S-wave (km/s) = 3.32048 3.43363 3.37753
# Velocity P-wave (km/s) = 6.90359 7.21601 7.06153
#
# Compressibility (1/GPa) = 0.01767340
#
# Stress axis : x y z
#
# Youngs Moduli (GPa) = 67.53181 67.53181 50.10056
#
# Poissons Ratio (x) = 0.45978 0.22903
# Poissons Ratio (y) = 0.45978 0.22903
# Poissons Ratio (z) = 0.30871 0.30871
#
# Static dielectric constant tensor:
#      x y z
#    x 3.214290 0.000000 0.000000 
#    y 0.000000 3.214290 0.000000 
#    z 0.000000 0.000000 3.209650 
# 
# 
# High freq. dielectric constant tensor:
#      x y z
#    x 1.659580 0.000000 0.000000 
#    y 0.000000 1.659580 0.000000 
#    z 0.000000 0.000000 1.649100 
# 
# From -- ./inp_files/3920.got.cif
#   From: 2010.03.12/outbox.cif.g09.slc.cpg/sg191_2_cif.got.tgz:3920.got - 2010.04.01 12:09:02.
