data_PCOD8329677
_publ_section_title
;
Structure prediction by ZEFSAII (Michael W. Deem and Ramdas Pophale) SiO2 
 PCOD8329677
Probable space group: P 6/M C C
;
_chemical_formula_sum "Si O2"
_cell_formula_units_Z 92
_cell_length_a 18.255294
_cell_length_b 18.255294
_cell_length_c 15.610987
_cell_angle_alpha 90.000000
_cell_angle_beta 90.000000
_cell_angle_gamma 120.000000
_cell_volume 4505.455007
_symmetry_space_group_name_H-M "P 6/M C C"
_symmetry_group_IT_number 192
_symmetry_cell_setting 'hexagonal'
loop_
_space_group_symop_operation_xyz
x,y,z
x-y,x,z
-y,x-y,z
-x,-y,z
-x+y,-x,z
y,-x+y,z
x-y,-y,1/2-z
-x,-x+y,1/2-z
y,x,1/2-z
-y,-x,1/2-z
-x+y,y,1/2-z
x,x-y,1/2-z
-x,-y,-z
-x+y,-x,-z
y,-x+y,-z
x,y,-z
x-y,x,-z
-y,x-y,-z
-x+y,y,1/2+z
x,x-y,1/2+z
-y,-x,1/2+z
y,x,1/2+z
x-y,-y,1/2+z
-x,-x+y,1/2+z
loop_
_atom_site_type_symbol
_atom_site_label
_atom_site_fract_x
_atom_site_fract_y
_atom_site_fract_z
Si Si1 0.814110 0.185891 0.250000
Si Si2 0.333334 0.666668 0.649002
Si Si3 0.934750 0.355067 0.174188
Si Si4 0.145795 0.549526 0.096967
Si Si5 0.916954 0.275987 0.401985
O O1 0.845519 0.273831 0.199997
O O2 0.883506 0.202288 0.326997
O O3 0.333334 0.666667 0.750000
O O4 0.382207 0.622176 0.612741
O O5 0.918061 0.429699 0.147163
O O6 0.000000 0.390566 0.250000
O O7 0.982480 0.327178 0.103579
O O8 0.133523 0.458956 0.122579
O O9 0.120087 0.548202 0.000000
O O10 0.897273 0.239355 0.500000
#
# Coordination Sequence:
#
# PCOD8329677 Si02
#       5
#    12   8  24  24  24
#     4  10  22  36  54  80 104 138 177 230 279 342
#     4  12  28  35  55  78 109 149 199 252 313 341
#     4  10  22  36  57  79 108 142 188 234 292 349
#     4  11  23  38  53  74 105 144 193 247 298 348
#     4  10  22  38  57  81 109 146 190 238 295 352
#
# _framework density 20.419692999999999
#
# number of rings (size 3 to 8) (size 9 to 14) (size 15 to 20)
#    0.000    1.565    0.000    3.913   10.957    9.391 
#    0.000    0.000    0.000    0.000    0.000    0.000 
#    0.000    0.000    0.000  285.261    0.000  274.696 
#
# Total GULP energy -1139701.605360 kJ/mol
# GULP energy per Si atom -12388.060928 kJ/mol
# Density = 2.037322 g / cm^3
# Si number density = 20.419693 Si / 1000 Ang^3
#
#
#
# Elastic Constant Matrix: (Units=GPa)
#
#
# Indices 1 2 3 4 5 6 
#
# 1 77.0979 22.2314 27.0320 -0.0001 -0.0001 -0.0001
# 2 22.2314 77.0983 27.0324 -0.0001 0.0000 0.0000
# 3 27.0320 27.0324 96.6800 0.0000 0.0000 0.0002
# 4 -0.0001 -0.0001 0.0000 24.6538 0.0001 0.0000
# 5 -0.0001 0.0000 0.0000 0.0001 24.6535 0.0000
# 6 -0.0001 0.0000 0.0002 0.0000 0.0000 27.4330
#
#
#
# Elastic Compliance Matrix: (Units=1/GPa)
#
#
# Indices 1 2 3 4 5 6 
#
# 1 0.015050 -0.003176 -0.003320 0.000000 0.000000 0.000000
# 2 -0.003176 0.015050 -0.003320 0.000000 0.000000 0.000000
# 3 -0.003320 -0.003320 0.012200 0.000000 0.000000 0.000000
# 4 0.000000 0.000000 0.000000 0.040562 0.000000 0.000000
# 5 0.000000 0.000000 0.000000 0.000000 0.040562 0.000000
# 6 0.000000 0.000000 0.000000 0.000000 0.000000 0.036452
#
#
# Mechanical properties :
#
#
# Convention : Reuss Voigt Hill
#
# Bulk Modulus (GPa) = 44.11391 44.82974 44.47183
# Shear Modulus (GPa) = 26.72862 26.98676 26.85769
#
# Velocity S-wave (km/s) = 3.62188 3.63933 3.63062
# Velocity P-wave (km/s) = 6.25630 6.29774 6.27705
#
# Compressibility (1/GPa) = 0.02266859
#
# Stress axis : x y z
#
# Youngs Moduli (GPa) = 66.44362 66.44383 81.96661
#
# Poissons Ratio (x) = 0.21100 0.27214
# Poissons Ratio (y) = 0.21100 0.27215
# Poissons Ratio (z) = 0.22060 0.22061
#
# Static dielectric constant tensor:
#      x y z
#    x 3.884400 0.000000 0.000000 
#    y 0.000000 3.884380 0.000010 
#    z 0.000000 0.000010 4.462860 
# 
# 
# High freq. dielectric constant tensor:
#      x y z
#    x 1.764440 0.000000 0.000000 
#    y 0.000000 1.764440 0.000000 
#    z 0.000000 0.000000 1.829400 
# 
# From -- ./inp_files/2803.got.cif
#   From: 2010.03.12/outbox.cif.g09.slc.cpg/sg192_2_cif.got.tgz:2803.got - 2010.04.01 12:16:15.
