data_PCOD8329709
_publ_section_title
;
Structure prediction by ZEFSAII (Michael W. Deem and Ramdas Pophale) SiO2 
 PCOD8329709
Probable space group: P 6/M C C
;
_chemical_formula_sum "Si O2"
_cell_formula_units_Z 152
_cell_length_a 18.007460
_cell_length_b 18.007460
_cell_length_c 29.103271
_cell_angle_alpha 90.000000
_cell_angle_beta 90.000000
_cell_angle_gamma 120.000000
_cell_volume 8172.921969
_symmetry_space_group_name_H-M "P 6/M C C"
_symmetry_group_IT_number 192
_symmetry_cell_setting 'hexagonal'
loop_
_space_group_symop_operation_xyz
x,y,z
x-y,x,z
-y,x-y,z
-x,-y,z
-x+y,-x,z
y,-x+y,z
x-y,-y,1/2-z
-x,-x+y,1/2-z
y,x,1/2-z
-y,-x,1/2-z
-x+y,y,1/2-z
x,x-y,1/2-z
-x,-y,-z
-x+y,-x,-z
y,-x+y,-z
x,y,-z
x-y,x,-z
-y,x-y,-z
-x+y,y,1/2+z
x,x-y,1/2+z
-y,-x,1/2+z
y,x,1/2+z
x-y,-y,1/2+z
-x,-x+y,1/2+z
loop_
_atom_site_type_symbol
_atom_site_label
_atom_site_fract_x
_atom_site_fract_y
_atom_site_fract_z
Si Si1 0.379124 0.459090 0.715165
Si Si2 0.646125 0.488705 0.803486
Si Si3 0.671993 0.502661 0.947850
Si Si4 0.339567 0.498232 0.446965
Si Si5 0.361151 0.105168 0.126620
Si Si6 0.666668 0.333334 0.695702
Si Si7 0.915148 0.643207 0.871077
O O1 0.408168 0.408168 0.750000
O O2 0.330569 0.494104 0.748924
O O3 0.457851 0.544046 0.691747
O O4 0.312283 0.401626 0.677044
O O5 0.697913 0.576662 0.830717
O O6 0.666930 0.417655 0.823648
O O7 0.579516 0.428389 0.930849
O O8 0.741594 0.472505 0.941433
O O9 0.700345 0.588149 0.919639
O O10 0.666079 0.526195 0.000000
O O11 0.343401 0.472528 0.500000
O O12 0.319982 0.419214 0.413929
O O13 0.325831 0.171310 0.128117
O O14 0.280938 0.008744 0.126529
O O15 0.666668 0.333334 0.750000
#
# Coordination Sequence:
#
# PCOD8329709 Si02
#       7
#    24  24  24  24  24   8  24
#     4  11  21  35  54  78 110 148 185 225 267 315
#     4  11  22  34  51  76 111 151 186 217 259 304
#     4   9  18  33  54  81 114 155 193 230 267 309
#     4   9  18  34  55  82 118 156 197 233 266 313
#     4  11  24  39  57  78 108 140 183 234 282 347
#     4  12  21  33  48  75 109 152 187 222 246 306
#     4  11  24  39  56  81 104 142 183 231 290 339
#
# _framework density 18.597999000000002
#
# number of rings (size 3 to 8) (size 9 to 14) (size 15 to 20)
#    0.000    1.579    3.158    3.158    0.000    5.053 
#    0.000    1.579    0.000    0.316    0.000    0.000 
#    0.000    0.000    0.947    7.895    0.000    0.000 
#
# Total GULP energy -1884184.970579 kJ/mol
# GULP energy per Si atom -12395.953754 kJ/mol
# Density = 1.855567 g / cm^3
# Si number density = 18.597999 Si / 1000 Ang^3
#
#
#
# Elastic Constant Matrix: (Units=GPa)
#
#
# Indices 1 2 3 4 5 6 
#
# 1 108.2849 69.0165 40.2040 0.0000 0.0000 0.0001
# 2 69.0165 108.2854 40.2041 0.0000 0.0000 0.0001
# 3 40.2040 40.2041 76.1914 0.0000 0.0000 0.0000
# 4 0.0000 0.0000 0.0000 21.6184 0.0000 0.0000
# 5 0.0000 0.0000 0.0000 0.0000 21.6184 0.0000
# 6 0.0001 0.0001 0.0000 0.0000 0.0000 19.6344
#
#
#
# Elastic Compliance Matrix: (Units=1/GPa)
#
#
# Indices 1 2 3 4 5 6 
#
# 1 0.016440 -0.009026 -0.003912 0.000000 0.000000 0.000000
# 2 -0.009026 0.016440 -0.003912 0.000000 0.000000 0.000000
# 3 -0.003912 -0.003912 0.017254 0.000000 0.000000 0.000000
# 4 0.000000 0.000000 0.000000 0.046257 0.000000 0.000000
# 5 0.000000 0.000000 0.000000 0.000000 0.046257 0.000000
# 6 0.000000 0.000000 0.000000 0.000000 0.000000 0.050931
#
#
# Mechanical properties :
#
#
# Convention : Reuss Voigt Hill
#
# Bulk Modulus (GPa) = 60.85295 65.73456 63.29376
# Shear Modulus (GPa) = 21.48165 22.13006 21.80585
#
# Velocity S-wave (km/s) = 3.40229 3.45326 3.42787
# Velocity P-wave (km/s) = 6.94444 7.16392 7.05503
#
# Compressibility (1/GPa) = 0.01643306
#
# Stress axis : x y z
#
# Youngs Moduli (GPa) = 60.82706 60.82737 57.95848
#
# Poissons Ratio (x) = 0.54900 0.22676
# Poissons Ratio (y) = 0.54900 0.22675
# Poissons Ratio (z) = 0.23798 0.23798
#
# Static dielectric constant tensor:
#      x y z
#    x 3.392820 0.000000 0.000000 
#    y 0.000000 3.392810 0.000000 
#    z 0.000000 0.000000 3.646710 
# 
# 
# High freq. dielectric constant tensor:
#      x y z
#    x 1.696240 0.000000 0.000000 
#    y 0.000000 1.696240 0.000000 
#    z 0.000000 0.000000 1.735440 
# 
# From -- ./inp_files/7135.got.cif
#   From: 2010.03.12/outbox.cif.g09.slc.cpg/sg192_4_cif.got.tgz:7135.got - 2010.04.01 12:16:15.
