data_PCOD8329324
_publ_section_title
;
Structure prediction by ZEFSAII (Michael W. Deem and Ramdas Pophale) SiO2 
 PCOD8329324
Probable space group: P 6/M M M
;
_chemical_formula_sum "Si O2"
_cell_formula_units_Z 144
_cell_length_a 21.956488
_cell_length_b 21.956488
_cell_length_c 22.392572
_cell_angle_alpha 90.000000
_cell_angle_beta 90.000000
_cell_angle_gamma 120.000000
_cell_volume 9348.896687
_symmetry_space_group_name_H-M "P 6/M M M"
_symmetry_group_IT_number 191
_symmetry_cell_setting 'hexagonal'
loop_
_space_group_symop_operation_xyz
x,y,z
x-y,x,z
-y,x-y,z
-x,-y,z
-x+y,-x,z
y,-x+y,z
x-y,-y,-z
-x,-x+y,-z
y,x,-z
-y,-x,-z
-x+y,y,-z
x,x-y,-z
-x,-y,-z
-x+y,-x,-z
y,-x+y,-z
x,y,-z
x-y,x,-z
-y,x-y,-z
-x+y,y,z
x,x-y,z
-y,-x,z
y,x,z
x-y,-y,z
-x,-x+y,z
loop_
_atom_site_type_symbol
_atom_site_label
_atom_site_fract_x
_atom_site_fract_y
_atom_site_fract_z
Si Si1 0.781154 0.700482 0.569362
Si Si2 0.083790 0.472621 0.758990
Si Si3 0.417124 0.081896 0.119490
Si Si4 0.541956 0.083911 0.567129
Si Si5 0.077460 0.788333 0.932177
Si Si6 0.083276 0.659886 0.365191
Si Si7 0.468386 0.389031 0.000000
O O1 0.763355 0.680429 0.500000
O O2 0.864357 0.728714 0.581781
O O3 0.760235 0.760235 0.586537
O O4 0.736570 0.628949 0.607504
O O5 0.111029 0.555515 0.752036
O O6 0.116236 0.459645 0.819555
O O7 0.109427 0.444245 0.703238
O O8 0.000000 0.430299 0.761297
O O9 0.350425 0.093155 0.114854
O O10 0.465325 0.117746 0.060783
O O11 0.393882 0.000000 0.120096
O O12 0.555892 0.111783 0.500000
O O13 0.618024 0.114239 0.598191
O O14 0.500000 0.000000 0.570473
O O15 0.130102 0.869899 0.919691
O O16 0.000000 0.776573 0.922043
O O17 0.085419 0.766667 0.000000
O O18 0.000000 0.615559 0.368968
O O19 0.401314 0.401314 0.000000
O O20 0.539176 0.460825 0.000000
#
# Coordination Sequence:
#
# PCOD8329324 Si02
#       7
#    24  24  24  12  24  24  12
#     4   9  17  29  45  64  87 117 153 194 241 291
#     4   9  15  23  35  54  83 117 142 159 187 234
#     4   9  15  23  35  53  77 107 140 168 200 247
#     4   9  14  20  34  56  82 109 137 167 199 242
#     4   9  16  27  42  58  77 104 140 182 229 281
#     4   9  15  24  37  57  85 115 144 172 209 259
#     4   9  14  20  31  50  75 102 132 161 186 222
#
# _framework density 15.402887
#
# number of rings (size 3 to 8) (size 9 to 14) (size 15 to 20)
#    0.000    3.000    1.667    1.000    0.000    4.000 
#    0.000    0.833    0.000    0.333    0.000    2.333 
#    0.833    0.000    1.000    7.167    0.000   24.500 
#
# Total GULP energy -1784214.309408 kJ/mol
# GULP energy per Si atom -12390.377149 kJ/mol
# Density = 1.536783 g / cm^3
# Si number density = 15.402887 Si / 1000 Ang^3
#
#
#
# Elastic Constant Matrix: (Units=GPa)
#
#
# Indices 1 2 3 4 5 6 
#
# 1 62.1320 35.5235 35.2936 0.0000 0.0000 0.0000
# 2 35.5235 62.1320 35.2936 0.0000 0.0000 0.0000
# 3 35.2936 35.2936 112.3067 0.0000 0.0000 0.0000
# 4 0.0000 0.0000 0.0000 12.6919 0.0000 0.0000
# 5 0.0000 0.0000 0.0000 0.0000 12.6919 0.0000
# 6 0.0000 0.0000 0.0000 0.0000 0.0000 13.3043
#
#
#
# Elastic Compliance Matrix: (Units=1/GPa)
#
#
# Indices 1 2 3 4 5 6 
#
# 1 0.025416 -0.012166 -0.004164 0.000000 0.000000 0.000000
# 2 -0.012166 0.025416 -0.004164 0.000000 0.000000 0.000000
# 3 -0.004164 -0.004164 0.011521 0.000000 0.000000 0.000000
# 4 0.000000 0.000000 0.000000 0.078791 0.000000 0.000000
# 5 0.000000 0.000000 0.000000 0.000000 0.078791 0.000000
# 6 0.000000 0.000000 0.000000 0.000000 0.000000 0.075164
#
#
# Mechanical properties :
#
#
# Convention : Reuss Voigt Hill
#
# Bulk Modulus (GPa) = 46.80481 49.86581 48.33531
# Shear Modulus (GPa) = 14.56843 16.43493 15.50168
#
# Velocity S-wave (km/s) = 3.07876 3.27004 3.17584
# Velocity P-wave (km/s) = 6.56440 6.83390 6.70051
#
# Compressibility (1/GPa) = 0.02136532
#
# Stress axis : x y z
#
# Youngs Moduli (GPa) = 39.34546 39.34546 86.79582
#
# Poissons Ratio (x) = 0.47868 0.36141
# Poissons Ratio (y) = 0.47868 0.36141
# Poissons Ratio (z) = 0.16383 0.16383
#
# Static dielectric constant tensor:
#      x y z
#    x 2.651990 0.000000 0.000000 
#    y 0.000000 2.651990 0.000000 
#    z 0.000000 0.000000 3.244790 
# 
# 
# High freq. dielectric constant tensor:
#      x y z
#    x 1.547730 0.000000 0.000000 
#    y 0.000000 1.547730 0.000000 
#    z 0.000000 0.000000 1.598740 
# 
# From -- ./inp_files/7843.got.cif
#   From: 2010.03.12/outbox.cif.g09.slc.cpg/sg191_4_cif.got.tgz:7843.got - 2010.04.01 12:09:02.
