data_PCOD8329853
_publ_section_title
;
Structure prediction by ZEFSAII (Michael W. Deem and Ramdas Pophale) SiO2 
 PCOD8329853
Probable space group: P 63/M C M
;
_chemical_formula_sum "Si O2"
_cell_formula_units_Z 80
_cell_length_a 12.981642
_cell_length_b 12.981642
_cell_length_c 35.137733
_cell_angle_alpha 90.000000
_cell_angle_beta 90.000000
_cell_angle_gamma 120.000000
_cell_volume 5128.184322
_symmetry_space_group_name_H-M "P 63/M C M"
_symmetry_group_IT_number 193
_symmetry_cell_setting 'hexagonal'
loop_
_space_group_symop_operation_xyz
x,y,z
x-y,x,1/2+z
-y,x-y,z
-x,-y,1/2+z
-x+y,-x,z
y,-x+y,1/2+z
x-y,-y,1/2-z
-x,-x+y,1/2-z
y,x,1/2-z
-y,-x,-z
-x+y,y,-z
x,x-y,-z
-x,-y,-z
-x+y,-x,1/2-z
y,-x+y,-z
x,y,1/2-z
x-y,x,-z
-y,x-y,1/2-z
-x+y,y,1/2+z
x,x-y,1/2+z
-y,-x,1/2+z
y,x,z
x-y,-y,z
-x,-x+y,z
loop_
_atom_site_type_symbol
_atom_site_label
_atom_site_fract_x
_atom_site_fract_y
_atom_site_fract_z
Si Si1 0.333334 0.666667 0.294900
Si Si2 0.672717 0.137851 0.021571
Si Si3 0.865797 0.312331 0.608572
Si Si4 0.519980 0.864072 0.654440
O O1 0.333334 0.666668 0.250000
O O2 0.216441 0.545655 0.308736
O O3 0.693184 0.176955 0.065452
O O4 0.623487 0.000000 0.017137
O O5 0.798406 0.201594 0.000000
O O6 0.588741 0.177481 0.000000
O O7 0.858434 0.420763 0.626660
O O8 0.780138 0.190653 0.631245
O O9 0.000000 0.335174 0.610952
O O10 0.613348 0.000000 0.666716
#
# Coordination Sequence:
#
# PCOD8329853 Si02
#       4
#     8  24  24  24
#     4   9  18  30  45  72 100 113 133 168 201 249
#     4  10  19  28  40  60  85 113 146 187 232 271
#     4   9  17  28  42  62  85 112 151 189 218 257
#     4   9  17  30  47  64  87 119 145 171 212 255
#
# _framework density 15.600064
#
# number of rings (size 3 to 8) (size 9 to 14) (size 15 to 20)
#    0.000    2.700    0.000    2.700    0.000    4.200 
#    0.000    0.000    0.000    0.900    0.000    0.000 
#    0.000    0.000    0.000    0.900    0.000    1.200 
#
# Total GULP energy -991725.381317 kJ/mol
# GULP energy per Si atom -12396.567266 kJ/mol
# Density = 1.556456 g / cm^3
# Si number density = 15.600064 Si / 1000 Ang^3
#
#
#
# Elastic Constant Matrix: (Units=GPa)
#
#
# Indices 1 2 3 4 5 6 
#
# 1 73.4079 41.2156 46.1086 0.0001 0.0000 -0.0001
# 2 41.2156 73.4077 46.1084 0.0001 0.0000 0.0000
# 3 46.1086 46.1084 130.4265 0.0002 0.0000 0.0000
# 4 0.0001 0.0001 0.0002 14.8484 0.0000 0.0000
# 5 0.0000 0.0000 0.0000 0.0000 14.8485 0.0000
# 6 -0.0001 0.0000 0.0000 0.0000 0.0000 16.0960
#
#
#
# Elastic Compliance Matrix: (Units=1/GPa)
#
#
# Indices 1 2 3 4 5 6 
#
# 1 0.021628 -0.009436 -0.004310 0.000000 0.000000 0.000000
# 2 -0.009436 0.021628 -0.004310 0.000000 0.000000 0.000000
# 3 -0.004310 -0.004310 0.010715 0.000000 0.000000 0.000000
# 4 0.000000 0.000000 0.000000 0.067347 0.000000 0.000000
# 5 0.000000 0.000000 0.000000 0.000000 0.067347 0.000000
# 6 0.000000 0.000000 0.000000 0.000000 0.000000 0.062127
#
#
# Mechanical properties :
#
#
# Convention : Reuss Voigt Hill
#
# Bulk Modulus (GPa) = 55.99775 60.45637 58.22706
# Shear Modulus (GPa) = 17.07327 18.74588 17.90957
#
# Velocity S-wave (km/s) = 3.31181 3.47025 3.39196
# Velocity P-wave (km/s) = 7.11322 7.40911 7.26267
#
# Compressibility (1/GPa) = 0.01785786
#
# Stress axis : x y z
#
# Youngs Moduli (GPa) = 46.23725 46.23720 93.33122
#
# Poissons Ratio (x) = 0.43629 0.40226
# Poissons Ratio (y) = 0.43629 0.40226
# Poissons Ratio (z) = 0.19929 0.19928
#
# Static dielectric constant tensor:
#      x y z
#    x 3.052720 0.000000 0.000000 
#    y 0.000000 3.052730 0.000000 
#    z 0.000000 0.000000 2.914320 
# 
# 
# High freq. dielectric constant tensor:
#      x y z
#    x 1.584370 0.000000 0.000000 
#    y 0.000000 1.584370 0.000000 
#    z 0.000000 0.000000 1.595710 
# 
# From -- ./inp_files/8716.got.cif
#   From: 2010.03.12/outbox.cif.g09.slc.cpg/sg193_5_cif.got.tgz:8716.got - 2010.04.01 12:20:39.
