data_PCOD8329989
_publ_section_title
;
Structure prediction by ZEFSAII (Michael W. Deem and Ramdas Pophale) SiO2 
 PCOD8329989
Probable space group: P 63/M C M
;
_chemical_formula_sum "Si O2"
_cell_formula_units_Z 144
_cell_length_a 32.244109
_cell_length_b 32.244109
_cell_length_c 9.052182
_cell_angle_alpha 90.000000
_cell_angle_beta 90.000000
_cell_angle_gamma 120.000000
_cell_volume 8150.507850
_symmetry_space_group_name_H-M "P 63/M C M"
_symmetry_group_IT_number 193
_symmetry_cell_setting 'hexagonal'
loop_
_space_group_symop_operation_xyz
x,y,z
x-y,x,1/2+z
-y,x-y,z
-x,-y,1/2+z
-x+y,-x,z
y,-x+y,1/2+z
x-y,-y,1/2-z
-x,-x+y,1/2-z
y,x,1/2-z
-y,-x,-z
-x+y,y,-z
x,x-y,-z
-x,-y,-z
-x+y,-x,1/2-z
y,-x+y,-z
x,y,1/2-z
x-y,x,-z
-y,x-y,1/2-z
-x+y,y,1/2+z
x,x-y,1/2+z
-y,-x,1/2+z
y,x,z
x-y,-y,z
-x,-x+y,z
loop_
_atom_site_type_symbol
_atom_site_label
_atom_site_fract_x
_atom_site_fract_y
_atom_site_fract_z
Si Si1 0.946073 0.138812 0.076335
Si Si2 0.383305 0.853681 0.424498
Si Si3 0.284075 0.383535 0.421163
Si Si4 0.946501 0.381081 0.080343
Si Si5 0.286891 0.054694 0.077130
Si Si6 0.478630 0.283181 0.075999
O O1 0.939945 0.132004 0.250000
O O2 0.934376 0.179869 0.025822
O O3 0.000000 0.154156 0.029074
O O4 0.911032 0.088969 0.000000
O O5 0.421673 0.843345 0.500000
O O6 0.380974 0.843961 0.250000
O O7 0.397932 0.908574 0.459963
O O8 0.332814 0.817620 0.498218
O O9 0.285929 0.374578 0.250000
O O10 0.335737 0.397926 0.485725
O O11 0.243313 0.334875 0.493127
O O12 0.270743 0.424441 0.453775
O O13 0.940447 0.364710 0.250000
O O14 0.000000 0.424772 0.047816
O O15 0.296346 0.063535 0.250000
O O16 0.271304 0.000000 0.037589
O O17 0.489872 0.286454 0.250000
O O18 0.486490 0.243245 0.000000
#
# Coordination Sequence:
#
# PCOD8329989 Si02
#       6
#    24  24  24  24  24  24
#     4   9  19  35  53  74  99 127 161 201 247 299
#     4  10  20  35  55  78 104 134 168 207 252 301
#     4  10  20  31  46  72 103 134 172 216 254 289
#     4   9  18  32  49  70 100 140 180 213 249 293
#     4   9  18  32  48  67  97 137 174 207 246 292
#     4  10  21  37  55  76 102 132 167 207 253 302
#
# _framework density 17.667611999999998
#
# number of rings (size 3 to 8) (size 9 to 14) (size 15 to 20)
#    0.000    2.500    0.000    3.000    0.000    7.333 
#    0.000    5.000    0.000    0.500    0.000    2.333 
#    0.000    0.000    0.000    0.000    0.000    0.000 
#
# Total GULP energy -1785774.723553 kJ/mol
# GULP energy per Si atom -12401.213358 kJ/mol
# Density = 1.762740 g / cm^3
# Si number density = 17.667612 Si / 1000 Ang^3
#
#
#
# Elastic Constant Matrix: (Units=GPa)
#
#
# Indices 1 2 3 4 5 6 
#
# 1 118.3499 81.7199 63.2288 0.0000 0.0000 0.0000
# 2 81.7199 118.3499 63.2288 0.0000 0.0000 0.0000
# 3 63.2288 63.2288 87.9713 0.0000 0.0000 0.0000
# 4 0.0000 0.0000 0.0000 29.8372 0.0000 0.0000
# 5 0.0000 0.0000 0.0000 0.0000 29.8372 0.0000
# 6 0.0000 0.0000 0.0000 0.0000 0.0000 18.3150
#
#
#
# Elastic Compliance Matrix: (Units=1/GPa)
#
#
# Indices 1 2 3 4 5 6 
#
# 1 0.018230 -0.009070 -0.006583 0.000000 0.000000 0.000000
# 2 -0.009070 0.018230 -0.006583 0.000000 0.000000 0.000000
# 3 -0.006583 -0.006583 0.020831 0.000000 0.000000 0.000000
# 4 0.000000 0.000000 0.000000 0.033515 0.000000 0.000000
# 5 0.000000 0.000000 0.000000 0.000000 0.033515 0.000000
# 6 0.000000 0.000000 0.000000 0.000000 0.000000 0.054600
#
#
# Mechanical properties :
#
#
# Convention : Reuss Voigt Hill
#
# Bulk Modulus (GPa) = 78.02486 82.33627 80.18056
# Shear Modulus (GPa) = 21.96202 23.36412 22.66307
#
# Velocity S-wave (km/s) = 3.52954 3.64046 3.58543
# Velocity P-wave (km/s) = 7.80184 8.02339 7.91339
#
# Compressibility (1/GPa) = 0.01281643
#
# Stress axis : x y z
#
# Youngs Moduli (GPa) = 54.85575 54.85575 48.00643
#
# Poissons Ratio (x) = 0.49756 0.31603
# Poissons Ratio (y) = 0.49756 0.31603
# Poissons Ratio (z) = 0.36112 0.36112
#
# Static dielectric constant tensor:
#      x y z
#    x 3.217680 0.000000 0.000000 
#    y 0.000000 3.217680 0.000000 
#    z 0.000000 0.000000 3.289600 
# 
# 
# High freq. dielectric constant tensor:
#      x y z
#    x 1.673780 0.000000 0.000000 
#    y 0.000000 1.673780 0.000000 
#    z 0.000000 0.000000 1.689440 
# 
# From -- ./inp_files/1552.got.cif
#   From: 2010.03.12/outbox.cif.g09.slc.cpg/sg193_1_cif.got.tgz:1552.got - 2010.04.01 12:20:39.
