data_PCOD8329154
_publ_section_title
;
Structure prediction by ZEFSAII (Michael W. Deem and Ramdas Pophale) SiO2 
 PCOD8329154
Probable space group: P 6/M M M
;
_chemical_formula_sum "Si O2"
_cell_formula_units_Z 84
_cell_length_a 21.567087
_cell_length_b 21.567087
_cell_length_c 11.114474
_cell_angle_alpha 90.000000
_cell_angle_beta 90.000000
_cell_angle_gamma 120.000000
_cell_volume 4477.159087
_symmetry_space_group_name_H-M "P 6/M M M"
_symmetry_group_IT_number 191
_symmetry_cell_setting 'hexagonal'
loop_
_space_group_symop_operation_xyz
x,y,z
x-y,x,z
-y,x-y,z
-x,-y,z
-x+y,-x,z
y,-x+y,z
x-y,-y,-z
-x,-x+y,-z
y,x,-z
-y,-x,-z
-x+y,y,-z
x,x-y,-z
-x,-y,-z
-x+y,-x,-z
y,-x+y,-z
x,y,-z
x-y,x,-z
-y,x-y,-z
-x+y,y,z
x,x-y,z
-y,-x,z
y,x,z
x-y,-y,z
-x,-x+y,z
loop_
_atom_site_type_symbol
_atom_site_label
_atom_site_fract_x
_atom_site_fract_y
_atom_site_fract_z
Si Si1 0.920663 0.079338 0.355887
Si Si2 0.523150 0.189010 0.361318
Si Si3 0.229322 0.916468 0.000000
Si Si4 0.843312 0.686624 0.363531
Si Si5 0.696641 0.613417 0.242603
O O1 0.921158 0.078843 0.500000
O O2 0.881365 0.118636 0.294872
O O3 0.000000 0.119225 0.303604
O O4 0.501323 0.164856 0.500000
O O5 0.603334 0.206668 0.335915
O O6 0.518758 0.259379 0.332571
O O7 0.471572 0.126131 0.268363
O O8 0.267584 0.902581 0.112025
O O9 0.143535 0.856466 0.000000
O O10 0.246283 0.000000 0.000000
O O11 0.854309 0.708617 0.500000
O O12 0.759649 0.644056 0.339560
O O13 0.642691 0.642691 0.266029
#
# Coordination Sequence:
#
# PCOD8329154 Si02
#       5
#    12  24  12  12  24
#     4   9  17  28  42  63  95 136 177 216 262 320
#     4  10  20  36  58  85 118 154 189 226 274 336
#     4  10  20  38  61  82 107 147 195 245 294 340
#     4  11  20  32  51  76 109 143 178 222 277 339
#     4  11  22  36  57  83 111 145 189 238 286 336
#
# _framework density 18.761899
#
# number of rings (size 3 to 8) (size 9 to 14) (size 15 to 20)
#    0.000    1.714    2.857    2.143    0.000    5.714 
#    0.000    2.143    0.000    2.714    0.000    2.000 
#    0.000    0.000    0.000    0.000    0.000    0.000 
#
# Total GULP energy -1041203.683283 kJ/mol
# GULP energy per Si atom -12395.281944 kJ/mol
# Density = 1.871920 g / cm^3
# Si number density = 18.761899 Si / 1000 Ang^3
#
#
#
# Elastic Constant Matrix: (Units=GPa)
#
#
# Indices 1 2 3 4 5 6 
#
# 1 112.1486 48.7366 33.9077 0.0000 0.0000 0.0000
# 2 48.7366 112.1486 33.9077 0.0000 0.0000 0.0000
# 3 33.9077 33.9077 56.5033 0.0000 0.0000 0.0000
# 4 0.0000 0.0000 0.0000 21.9631 0.0000 0.0000
# 5 0.0000 0.0000 0.0000 0.0000 21.9631 0.0000
# 6 0.0000 0.0000 0.0000 0.0000 0.0000 31.7060
#
#
#
# Elastic Compliance Matrix: (Units=1/GPa)
#
#
# Indices 1 2 3 4 5 6 
#
# 1 0.012045 -0.003725 -0.004993 0.000000 0.000000 0.000000
# 2 -0.003725 0.012045 -0.004993 0.000000 0.000000 0.000000
# 3 -0.004993 -0.004993 0.023691 0.000000 0.000000 0.000000
# 4 0.000000 0.000000 0.000000 0.045531 0.000000 0.000000
# 5 0.000000 0.000000 0.000000 0.000000 0.045531 0.000000
# 6 0.000000 0.000000 0.000000 0.000000 0.000000 0.031540
#
#
# Mechanical properties :
#
#
# Convention : Reuss Voigt Hill
#
# Bulk Modulus (GPa) = 49.11783 57.10051 53.10917
# Shear Modulus (GPa) = 24.43907 26.07634 25.25771
#
# Velocity S-wave (km/s) = 3.61306 3.73212 3.67307
# Velocity P-wave (km/s) = 6.60621 7.00514 6.80860
#
# Compressibility (1/GPa) = 0.02035920
#
# Stress axis : x y z
#
# Youngs Moduli (GPa) = 83.02167 83.02167 42.21067
#
# Poissons Ratio (x) = 0.30924 0.21076
# Poissons Ratio (y) = 0.30924 0.21076
# Poissons Ratio (z) = 0.41453 0.41453
#
# Static dielectric constant tensor:
#      x y z
#    x 3.550580 0.000000 0.000000 
#    y 0.000000 3.550580 0.000000 
#    z 0.000000 0.000000 3.281690 
# 
# 
# High freq. dielectric constant tensor:
#      x y z
#    x 1.732430 0.000000 0.000000 
#    y 0.000000 1.732430 0.000000 
#    z 0.000000 0.000000 1.705100 
# 
# From -- ./inp_files/2460.got.cif
#   From: 2010.03.12/outbox.cif.g09.slc.cpg/sg191_2_cif.got.tgz:2460.got - 2010.04.01 12:09:02.
