data_PCOD8329935
_publ_section_title
;
Structure prediction by ZEFSAII (Michael W. Deem and Ramdas Pophale) SiO2 
 PCOD8329935
Probable space group: P 63/M C M
;
_chemical_formula_sum "Si O2"
_cell_formula_units_Z 156
_cell_length_a 22.170104
_cell_length_b 22.170104
_cell_length_c 19.015604
_cell_angle_alpha 90.000000
_cell_angle_beta 90.000000
_cell_angle_gamma 120.000000
_cell_volume 8094.242604
_symmetry_space_group_name_H-M "P 63/M C M"
_symmetry_group_IT_number 193
_symmetry_cell_setting 'hexagonal'
loop_
_space_group_symop_operation_xyz
x,y,z
x-y,x,1/2+z
-y,x-y,z
-x,-y,1/2+z
-x+y,-x,z
y,-x+y,1/2+z
x-y,-y,1/2-z
-x,-x+y,1/2-z
y,x,1/2-z
-y,-x,-z
-x+y,y,-z
x,x-y,-z
-x,-y,-z
-x+y,-x,1/2-z
y,-x+y,-z
x,y,1/2-z
x-y,x,-z
-y,x-y,1/2-z
-x+y,y,1/2+z
x,x-y,1/2+z
-y,-x,1/2+z
y,x,z
x-y,-y,z
-x,-x+y,z
loop_
_atom_site_type_symbol
_atom_site_label
_atom_site_fract_x
_atom_site_fract_y
_atom_site_fract_z
Si Si1 0.923337 0.076664 0.500000
Si Si2 0.635743 0.454287 0.669499
Si Si3 0.788969 0.302034 0.330998
Si Si4 0.922659 0.178598 0.386386
Si Si5 0.079049 0.779183 0.171394
Si Si6 0.336133 0.919368 0.915712
Si Si7 0.259807 0.856417 0.047700
O O1 0.924756 0.123851 0.437531
O O2 0.000000 0.105199 0.531358
O O3 0.630572 0.473014 0.750000
O O4 0.573617 0.378662 0.649612
O O5 0.707598 0.455803 0.655216
O O6 0.628427 0.508326 0.620093
O O7 0.808631 0.296901 0.250000
O O8 0.833998 0.281825 0.381099
O O9 0.861852 0.133416 0.330610
O O10 0.904777 0.228210 0.431893
O O11 0.000000 0.225249 0.351381
O O12 0.080807 0.753367 0.250000
O O13 0.105150 0.740070 0.118556
O O14 0.000000 0.760350 0.151944
O O15 0.387035 0.000000 0.901065
O O16 0.326974 0.903345 0.998830
O O17 0.209186 0.790815 0.000000
#
# Coordination Sequence:
#
# PCOD8329935 Si02
#       7
#    12  24  24  24  24  24  24
#     4  10  19  32  52  78 106 138 180 236 298 356
#     4  10  20  38  62  90 119 153 195 240 295 357
#     4  10  22  40  64  89 121 158 194 239 295 356
#     4  11  21  34  54  78 111 151 192 238 293 354
#     4  10  20  35  56  82 112 147 193 248 301 355
#     4  11  22  38  61  88 118 154 199 252 302 347
#     4  12  21  38  58  88 119 154 195 244 294 349
#
# _framework density 19.272959
#
# number of rings (size 3 to 8) (size 9 to 14) (size 15 to 20)
#    0.000    1.385    3.846    1.769    0.000    7.385 
#    0.000    2.308    0.000    3.538    0.000    0.000 
#    0.000    0.000    0.000    0.000    0.000    0.000 
#
# Total GULP energy -1934508.551649 kJ/mol
# GULP energy per Si atom -12400.695844 kJ/mol
# Density = 1.922909 g / cm^3
# Si number density = 19.272959 Si / 1000 Ang^3
#
#
#
# Elastic Constant Matrix: (Units=GPa)
#
#
# Indices 1 2 3 4 5 6 
#
# 1 118.5424 51.7109 47.2095 0.0000 0.0000 0.0000
# 2 51.7109 118.5424 47.2095 0.0000 0.0000 0.0000
# 3 47.2095 47.2095 90.7738 0.0000 0.0000 0.0000
# 4 0.0000 0.0000 0.0000 25.8990 0.0000 0.0000
# 5 0.0000 0.0000 0.0000 0.0000 25.8990 0.0000
# 6 0.0000 0.0000 0.0000 0.0000 0.0000 33.4157
#
#
#
# Elastic Compliance Matrix: (Units=1/GPa)
#
#
# Indices 1 2 3 4 5 6 
#
# 1 0.011609 -0.003354 -0.004293 0.000000 0.000000 0.000000
# 2 -0.003354 0.011609 -0.004293 0.000000 0.000000 0.000000
# 3 -0.004293 -0.004293 0.015482 0.000000 0.000000 0.000000
# 4 0.000000 0.000000 0.000000 0.038611 0.000000 0.000000
# 5 0.000000 0.000000 0.000000 0.000000 0.038611 0.000000
# 6 0.000000 0.000000 0.000000 0.000000 0.000000 0.029926
#
#
# Mechanical properties :
#
#
# Convention : Reuss Voigt Hill
#
# Bulk Modulus (GPa) = 67.48200 68.90203 68.19201
# Shear Modulus (GPa) = 28.62575 29.15801 28.89188
#
# Velocity S-wave (km/s) = 3.85811 3.89382 3.87601
# Velocity P-wave (km/s) = 7.41192 7.48625 7.44918
#
# Compressibility (1/GPa) = 0.01481877
#
# Stress axis : x y z
#
# Youngs Moduli (GPa) = 86.14237 86.14237 64.59241
#
# Poissons Ratio (x) = 0.28895 0.27729
# Poissons Ratio (y) = 0.28895 0.27729
# Poissons Ratio (z) = 0.36980 0.36980
#
# Static dielectric constant tensor:
#      x y z
#    x 3.592970 0.000000 0.000000 
#    y 0.000000 3.592970 0.000000 
#    z 0.000000 0.000000 3.511820 
# 
# 
# High freq. dielectric constant tensor:
#      x y z
#    x 1.750380 0.000000 0.000000 
#    y 0.000000 1.750380 0.000000 
#    z 0.000000 0.000000 1.742850 
# 
# From -- ./inp_files/6738.got.cif
#   From: 2010.03.12/outbox.cif.g09.slc.cpg/sg193_4_cif.got.tgz:6738.got - 2010.04.01 12:20:39.
