data_PCOD8329083
_publ_section_title
;
Structure prediction by ZEFSAII (Michael W. Deem and Ramdas Pophale) SiO2 
 PCOD8329083
Probable space group: P 6/M M M
;
_chemical_formula_sum "Si O2"
_cell_formula_units_Z 84
_cell_length_a 17.359020
_cell_length_b 17.359020
_cell_length_c 17.066690
_cell_angle_alpha 90.000000
_cell_angle_beta 90.000000
_cell_angle_gamma 120.000000
_cell_volume 4453.796183
_symmetry_space_group_name_H-M "P 6/M M M"
_symmetry_group_IT_number 191
_symmetry_cell_setting 'hexagonal'
loop_
_space_group_symop_operation_xyz
x,y,z
x-y,x,z
-y,x-y,z
-x,-y,z
-x+y,-x,z
y,-x+y,z
x-y,-y,-z
-x,-x+y,-z
y,x,-z
-y,-x,-z
-x+y,y,-z
x,x-y,-z
-x,-y,-z
-x+y,-x,-z
y,-x+y,-z
x,y,-z
x-y,x,-z
-y,x-y,-z
-x+y,y,z
x,x-y,z
-y,-x,z
y,x,z
x-y,-y,z
-x,-x+y,z
loop_
_atom_site_type_symbol
_atom_site_label
_atom_site_fract_x
_atom_site_fract_y
_atom_site_fract_z
Si Si1 0.273859 0.900582 0.347128
Si Si2 0.487385 0.154739 0.193165
Si Si3 0.000000 0.650191 0.907188
Si Si4 0.174297 0.000000 0.093293
Si Si5 0.668355 0.155875 0.500000
O O1 0.168112 0.831889 0.347366
O O2 0.321253 0.884216 0.274176
O O3 0.319964 0.890931 0.424309
O O4 0.289026 0.000000 0.342924
O O5 0.585416 0.170832 0.202271
O O6 0.494227 0.247114 0.170923
O O7 0.436624 0.087158 0.122939
O O8 0.000000 0.738240 0.875836
O O9 0.000000 0.647193 0.000000
O O10 0.174960 0.087480 0.126047
O O11 0.172635 0.000000 0.000000
O O12 0.739220 0.260781 0.500000
O O13 0.570694 0.141387 0.500000
#
# Coordination Sequence:
#
# PCOD8329083 Si02
#       5
#    24  24  12  12  12
#     4  10  21  37  58  85 116 152 190 231 279 334
#     4  11  23  39  59  83 113 148 188 233 283 338
#     4  11  23  39  59  80 107 145 189 237 287 342
#     4   9  17  31  53  81 110 137 169 214 272 336
#     4  10  20  33  54  85 122 158 193 232 278 331
#
# _framework density 18.860315
#
# number of rings (size 3 to 8) (size 9 to 14) (size 15 to 20)
#    0.000    1.714    1.429    3.143    0.000    5.714 
#    0.000    2.857    0.000    2.000    0.000    0.000 
#    0.000    3.429    0.000    0.000    0.000    0.000 
#
# Total GULP energy -1041931.764595 kJ/mol
# GULP energy per Si atom -12403.949579 kJ/mol
# Density = 1.881739 g / cm^3
# Si number density = 18.860315 Si / 1000 Ang^3
#
#
#
# Elastic Constant Matrix: (Units=GPa)
#
#
# Indices 1 2 3 4 5 6 
#
# 1 130.4399 84.7880 41.4562 0.0000 0.0000 0.0000
# 2 84.7880 130.4399 41.4562 0.0000 0.0000 0.0000
# 3 41.4562 41.4562 97.6668 0.0000 0.0000 0.0000
# 4 0.0000 0.0000 0.0000 32.9877 0.0000 0.0000
# 5 0.0000 0.0000 0.0000 0.0000 32.9877 0.0000
# 6 0.0000 0.0000 0.0000 0.0000 0.0000 22.8259
#
#
#
# Elastic Compliance Matrix: (Units=1/GPa)
#
#
# Indices 1 2 3 4 5 6 
#
# 1 0.013730 -0.008175 -0.002358 0.000000 0.000000 0.000000
# 2 -0.008175 0.013730 -0.002358 0.000000 0.000000 0.000000
# 3 -0.002358 -0.002358 0.012240 0.000000 0.000000 0.000000
# 4 0.000000 0.000000 0.000000 0.030314 0.000000 0.000000
# 5 0.000000 0.000000 0.000000 0.000000 0.030314 0.000000
# 6 0.000000 0.000000 0.000000 0.000000 0.000000 0.043810
#
#
# Mechanical properties :
#
#
# Convention : Reuss Voigt Hill
#
# Bulk Modulus (GPa) = 71.84614 77.10527 74.47570
# Shear Modulus (GPa) = 28.64361 30.48334 29.56347
#
# Velocity S-wave (km/s) = 3.90131 4.02465 3.96346
# Velocity P-wave (km/s) = 7.64658 7.91000 7.77940
#
# Compressibility (1/GPa) = 0.01391863
#
# Stress axis : x y z
#
# Youngs Moduli (GPa) = 72.83482 72.83482 81.69665
#
# Poissons Ratio (x) = 0.59544 0.19262
# Poissons Ratio (y) = 0.59544 0.19262
# Poissons Ratio (z) = 0.17172 0.17172
#
# Static dielectric constant tensor:
#      x y z
#    x 3.553610 0.000000 0.000000 
#    y 0.000000 3.553610 0.000000 
#    z 0.000000 0.000000 3.429980 
# 
# 
# High freq. dielectric constant tensor:
#      x y z
#    x 1.736450 0.000000 0.000000 
#    y 0.000000 1.736450 0.000000 
#    z 0.000000 0.000000 1.731510 
# 
# From -- ./inp_files/3998.got.cif
#   From: 2010.03.12/outbox.cif.g09.slc.cpg/sg191_2_cif.got.tgz:3998.got - 2010.04.01 12:09:02.
