data_PCOD8329107
_publ_section_title
;
Structure prediction by ZEFSAII (Michael W. Deem and Ramdas Pophale) SiO2 
 PCOD8329107
Probable space group: P 6/M M M
;
_chemical_formula_sum "Si O2"
_cell_formula_units_Z 144
_cell_length_a 21.727865
_cell_length_b 21.727865
_cell_length_c 20.251997
_cell_angle_alpha 90.000000
_cell_angle_beta 90.000000
_cell_angle_gamma 120.000000
_cell_volume 8280.043046
_symmetry_space_group_name_H-M "P 6/M M M"
_symmetry_group_IT_number 191
_symmetry_cell_setting 'hexagonal'
loop_
_space_group_symop_operation_xyz
x,y,z
x-y,x,z
-y,x-y,z
-x,-y,z
-x+y,-x,z
y,-x+y,z
x-y,-y,-z
-x,-x+y,-z
y,x,-z
-y,-x,-z
-x+y,y,-z
x,x-y,-z
-x,-y,-z
-x+y,-x,-z
y,-x+y,-z
x,y,-z
x-y,x,-z
-y,x-y,-z
-x+y,y,z
x,x-y,z
-y,-x,z
y,x,z
x-y,-y,z
-x,-x+y,z
loop_
_atom_site_type_symbol
_atom_site_label
_atom_site_fract_x
_atom_site_fract_y
_atom_site_fract_z
Si Si1 0.581427 0.861744 0.924991
Si Si2 0.000000 0.720057 0.878673
Si Si3 0.860658 0.000000 0.721939
Si Si4 0.421632 0.282554 0.309447
Si Si5 0.666900 0.188610 0.189521
Si Si6 0.279910 0.000000 0.278356
Si Si7 0.524903 0.333257 0.575311
Si Si8 0.139360 0.000000 0.879069
O O1 0.599035 0.799518 0.912507
O O2 0.652189 0.932718 0.907554
O O3 0.516203 0.849514 0.878763
O O4 0.558184 0.863478 0.000000
O O5 0.000000 0.716638 0.800215
O O6 0.000000 0.790349 0.904019
O O7 0.862311 0.000000 0.800527
O O8 0.930127 0.069874 0.694379
O O9 0.790468 0.000000 0.696892
O O10 0.405143 0.202572 0.303255
O O11 0.471288 0.328826 0.249302
O O12 0.347411 0.279737 0.308134
O O13 0.459391 0.318698 0.378236
O O14 0.594535 0.189070 0.195514
O O15 0.730765 0.269236 0.192645
O O16 0.501500 0.333570 0.500000
O O17 0.546755 0.273378 0.586481
O O18 0.592311 0.407690 0.595162
O O19 0.069950 0.930051 0.906738
#
# Coordination Sequence:
#
# PCOD8329107 Si02
#       8
#    24  12  12  24  24  12  24  12
#     4  10  21  36  53  74 100 128 164 213 262 310
#     4  11  19  33  53  72  96 134 178 213 250 303
#     4   9  17  28  46  73 105 136 168 209 257 303
#     4  10  20  34  52  76 107 139 173 213 254 299
#     4  10  20  35  55  77 100 127 162 207 260 312
#     4  11  20  32  51  74 101 140 181 213 249 303
#     4   9  17  31  53  80 108 139 176 218 262 307
#     4   9  17  27  45  73 104 133 163 204 253 302
#
# _framework density 17.391214000000002
#
# number of rings (size 3 to 8) (size 9 to 14) (size 15 to 20)
#    0.000    2.167    1.667    2.250    0.000    3.000 
#    0.000    5.000    0.000    3.000    0.000    0.000 
#    0.000    4.000    0.000    0.500    0.000   15.417 
#
# Total GULP energy -1785881.745543 kJ/mol
# GULP energy per Si atom -12401.956566 kJ/mol
# Density = 1.735163 g / cm^3
# Si number density = 17.391214 Si / 1000 Ang^3
#
#
#
# Elastic Constant Matrix: (Units=GPa)
#
#
# Indices 1 2 3 4 5 6 
#
# 1 124.1486 71.2015 47.2663 0.0000 0.0000 0.0000
# 2 71.2015 124.1486 47.2663 0.0000 0.0000 0.0000
# 3 47.2663 47.2663 90.2485 0.0000 0.0000 0.0000
# 4 0.0000 0.0000 0.0000 20.3274 0.0000 0.0000
# 5 0.0000 0.0000 0.0000 0.0000 20.3274 0.0000
# 6 0.0000 0.0000 0.0000 0.0000 0.0000 26.4736
#
#
#
# Elastic Compliance Matrix: (Units=1/GPa)
#
#
# Indices 1 2 3 4 5 6 
#
# 1 0.012872 -0.006015 -0.003591 0.000000 0.000000 0.000000
# 2 -0.006015 0.012872 -0.003591 0.000000 0.000000 0.000000
# 3 -0.003591 -0.003591 0.014842 0.000000 0.000000 0.000000
# 4 0.000000 0.000000 0.000000 0.049195 0.000000 0.000000
# 5 0.000000 0.000000 0.000000 0.000000 0.049195 0.000000
# 6 0.000000 0.000000 0.000000 0.000000 0.000000 0.037774
#
#
# Mechanical properties :
#
#
# Convention : Reuss Voigt Hill
#
# Bulk Modulus (GPa) = 70.46642 74.44601 72.45621
# Shear Modulus (GPa) = 24.05306 24.94643 24.49975
#
# Velocity S-wave (km/s) = 3.72298 3.79149 3.75739
# Velocity P-wave (km/s) = 7.68682 7.87825 7.78312
#
# Compressibility (1/GPa) = 0.01419116
#
# Stress axis : x y z
#
# Youngs Moduli (GPa) = 77.68921 77.68921 67.37564
#
# Poissons Ratio (x) = 0.46730 0.24196
# Poissons Ratio (y) = 0.46730 0.24196
# Poissons Ratio (z) = 0.27899 0.27899
#
# Static dielectric constant tensor:
#      x y z
#    x 3.224730 0.000000 0.000000 
#    y 0.000000 3.224730 0.000000 
#    z 0.000000 0.000000 3.251290 
# 
# 
# High freq. dielectric constant tensor:
#      x y z
#    x 1.671740 0.000000 0.000000 
#    y 0.000000 1.671740 0.000000 
#    z 0.000000 0.000000 1.657260 
# 
# From -- ./inp_files/7708.got.cif
#   From: 2010.03.12/outbox.cif.g09.slc.cpg/sg191_4_cif.got.tgz:7708.got - 2010.04.01 12:09:02.
