data_PCOD8329320
_publ_section_title
;
Structure prediction by ZEFSAII (Michael W. Deem and Ramdas Pophale) SiO2 
 PCOD8329320
Probable space group: P 6/M M M
;
_chemical_formula_sum "Si O2"
_cell_formula_units_Z 48
_cell_length_a 22.578614
_cell_length_b 22.578614
_cell_length_c 7.160723
_cell_angle_alpha 90.000000
_cell_angle_beta 90.000000
_cell_angle_gamma 120.000000
_cell_volume 3161.419035
_symmetry_space_group_name_H-M "P 6/M M M"
_symmetry_group_IT_number 191
_symmetry_cell_setting 'hexagonal'
loop_
_space_group_symop_operation_xyz
x,y,z
x-y,x,z
-y,x-y,z
-x,-y,z
-x+y,-x,z
y,-x+y,z
x-y,-y,-z
-x,-x+y,-z
y,x,-z
-y,-x,-z
-x+y,y,-z
x,x-y,-z
-x,-y,-z
-x+y,-x,-z
y,-x+y,-z
x,y,-z
x-y,x,-z
-y,x-y,-z
-x+y,y,z
x,x-y,z
-y,-x,z
y,x,z
x-y,-y,z
-x,-x+y,z
loop_
_atom_site_type_symbol
_atom_site_label
_atom_site_fract_x
_atom_site_fract_y
_atom_site_fract_z
Si Si1 0.354245 0.177123 0.206627
Si Si2 0.161448 0.645612 0.500000
Si Si3 0.257758 0.515515 0.206305
Si Si4 0.274489 0.355174 0.500000
O O1 0.434746 0.217373 0.189093
O O2 0.333119 0.107332 0.318151
O O3 0.320186 0.160093 0.000000
O O4 0.125591 0.562796 0.500000
O O5 0.209695 0.672785 0.317652
O O6 0.105313 0.669486 0.500000
O O7 0.274702 0.549403 0.000000
O O8 0.314084 0.314084 0.500000
#
# Coordination Sequence:
#
# PCOD8329320 Si02
#       4
#    12  12  12  12
#     4   8  15  29  46  61  81 110 139 169 204 246
#     4   9  17  28  41  58  82 105 135 182 227 271
#     4   8  15  29  44  53  69 104 141 171 212 263
#     4   9  17  28  44  66  86 110 144 175 210 258
#
# _framework density 15.183054
#
# number of rings (size 3 to 8) (size 9 to 14) (size 15 to 20)
#    0.000    3.500    0.000    3.000    0.000    2.500 
#    6.000    0.000    0.000    0.000    0.000   14.000 
#    0.000    0.000    0.000   24.000    0.000   52.000 
#
# Total GULP energy -594696.290548 kJ/mol
# GULP energy per Si atom -12389.506053 kJ/mol
# Density = 1.514850 g / cm^3
# Si number density = 15.183054 Si / 1000 Ang^3
#
#
#
# Elastic Constant Matrix: (Units=GPa)
#
#
# Indices 1 2 3 4 5 6 
#
# 1 77.2571 54.9937 41.8420 0.0000 0.0000 0.0000
# 2 54.9937 77.2571 41.8420 0.0000 0.0000 0.0000
# 3 41.8420 41.8420 148.7629 0.0000 0.0000 0.0000
# 4 0.0000 0.0000 0.0000 9.6384 0.0000 0.0000
# 5 0.0000 0.0000 0.0000 0.0000 9.6384 0.0000
# 6 0.0000 0.0000 0.0000 0.0000 0.0000 11.1317
#
#
#
# Elastic Compliance Matrix: (Units=1/GPa)
#
#
# Indices 1 2 3 4 5 6 
#
# 1 0.027058 -0.017859 -0.002587 0.000000 0.000000 0.000000
# 2 -0.017859 0.027058 -0.002587 0.000000 0.000000 0.000000
# 3 -0.002587 -0.002587 0.008178 0.000000 0.000000 0.000000
# 4 0.000000 0.000000 0.000000 0.103751 0.000000 0.000000
# 5 0.000000 0.000000 0.000000 0.000000 0.103751 0.000000
# 6 0.000000 0.000000 0.000000 0.000000 0.000000 0.089833
#
#
# Mechanical properties :
#
#
# Convention : Reuss Voigt Hill
#
# Bulk Modulus (GPa) = 61.63100 64.51473 63.07287
# Shear Modulus (GPa) = 12.16236 17.05500 14.60868
#
# Velocity S-wave (km/s) = 2.83335 3.35519 3.10525
# Velocity P-wave (km/s) = 7.16826 7.58902 7.38164
#
# Compressibility (1/GPa) = 0.01622560
#
# Stress axis : x y z
#
# Youngs Moduli (GPa) = 36.95817 36.95817 122.28660
#
# Poissons Ratio (x) = 0.66004 0.31638
# Poissons Ratio (y) = 0.66004 0.31638
# Poissons Ratio (z) = 0.09562 0.09562
#
# Static dielectric constant tensor:
#      x y z
#    x 2.558370 0.000000 0.000000 
#    y 0.000000 2.558370 0.000000 
#    z 0.000000 0.000000 4.045710 
# 
# 
# High freq. dielectric constant tensor:
#      x y z
#    x 1.547320 0.000000 0.000000 
#    y 0.000000 1.547320 0.000000 
#    z 0.000000 0.000000 1.596880 
# 
# From -- ./inp_files/418.got.cif
#   From: 2010.03.12/outbox.cif.g09.slc.cpg/sg191_1_cif.got.tgz:418.got - 2010.04.01 12:09:02.
