data_PCOD8329672
_publ_section_title
;
Structure prediction by ZEFSAII (Michael W. Deem and Ramdas Pophale) SiO2 
 PCOD8329672
Probable space group: P 6/M C C
;
_chemical_formula_sum "Si O2"
_cell_formula_units_Z 108
_cell_length_a 14.169826
_cell_length_b 14.169826
_cell_length_c 29.986940
_cell_angle_alpha 90.000000
_cell_angle_beta 90.000000
_cell_angle_gamma 120.000000
_cell_volume 5214.249606
_symmetry_space_group_name_H-M "P 6/M C C"
_symmetry_group_IT_number 192
_symmetry_cell_setting 'hexagonal'
loop_
_space_group_symop_operation_xyz
x,y,z
x-y,x,z
-y,x-y,z
-x,-y,z
-x+y,-x,z
y,-x+y,z
x-y,-y,1/2-z
-x,-x+y,1/2-z
y,x,1/2-z
-y,-x,1/2-z
-x+y,y,1/2-z
x,x-y,1/2-z
-x,-y,-z
-x+y,-x,-z
y,-x+y,-z
x,y,-z
x-y,x,-z
-y,x-y,-z
-x+y,y,1/2+z
x,x-y,1/2+z
-y,-x,1/2+z
y,x,1/2+z
x-y,-y,1/2+z
-x,-x+y,1/2+z
loop_
_atom_site_type_symbol
_atom_site_label
_atom_site_fract_x
_atom_site_fract_y
_atom_site_fract_z
Si Si1 0.599818 0.985562 0.362132
Si Si2 0.445784 0.288954 0.933486
Si Si3 0.213474 0.220373 0.802484
Si Si4 0.627435 0.106045 0.451314
Si Si5 0.253393 0.173072 0.000000
O O1 0.689163 0.018938 0.324017
O O2 0.650155 0.050831 0.408676
O O3 0.500000 0.000000 0.343834
O O4 0.560672 0.862054 0.379344
O O5 0.518035 0.234030 0.944767
O O6 0.506930 0.414567 0.952147
O O7 0.327269 0.221510 0.955751
O O8 0.211225 0.110657 0.817875
O O9 0.233007 0.233007 0.750000
O O10 0.650553 0.069280 0.500000
O O11 0.156582 0.199720 0.000000
#
# Coordination Sequence:
#
# PCOD8329672 Si02
#       5
#    24  24  24  24  12
#     4  10  23  36  57  89 123 163 202 246 310 376
#     4  11  22  36  57  82 118 154 204 255 300 350
#     4  10  21  41  68  96 124 159 207 261 314 370
#     4  11  20  34  56  83 114 159 208 249 299 353
#     4  12  25  40  56  76 108 156 203 254 302 356
#
# _framework density 20.712472000000002
#
# number of rings (size 3 to 8) (size 9 to 14) (size 15 to 20)
#    0.000    1.333    2.222    3.444    1.556    2.667 
#    0.000    0.000    0.000    3.556    0.000    0.000 
#    0.000    0.000    0.000    0.000    0.000    0.000 
#
# Total GULP energy -1338218.858472 kJ/mol
# GULP energy per Si atom -12390.915356 kJ/mol
# Density = 2.066533 g / cm^3
# Si number density = 20.712472 Si / 1000 Ang^3
#
#
#
# Elastic Constant Matrix: (Units=GPa)
#
#
# Indices 1 2 3 4 5 6 
#
# 1 134.6567 56.0073 43.9783 0.0000 0.0000 0.0000
# 2 56.0073 134.6567 43.9783 0.0000 0.0000 0.0000
# 3 43.9783 43.9783 62.7271 0.0000 0.0000 0.0000
# 4 0.0000 0.0000 0.0000 30.8670 0.0000 0.0000
# 5 0.0000 0.0000 0.0000 0.0000 30.8670 0.0000
# 6 0.0000 0.0000 0.0000 0.0000 0.0000 39.3247
#
#
#
# Elastic Compliance Matrix: (Units=1/GPa)
#
#
# Indices 1 2 3 4 5 6 
#
# 1 0.010233 -0.002481 -0.005435 0.000000 0.000000 0.000000
# 2 -0.002481 0.010233 -0.005435 0.000000 0.000000 0.000000
# 3 -0.005435 -0.005435 0.023563 0.000000 0.000000 0.000000
# 4 0.000000 0.000000 0.000000 0.032397 0.000000 0.000000
# 5 0.000000 0.000000 0.000000 0.000000 0.032397 0.000000
# 6 0.000000 0.000000 0.000000 0.000000 0.000000 0.025429
#
#
# Mechanical properties :
#
#
# Convention : Reuss Voigt Hill
#
# Bulk Modulus (GPa) = 57.71275 68.88537 63.29906
# Shear Modulus (GPa) = 29.98825 32.75015 31.36920
#
# Velocity S-wave (km/s) = 3.80917 3.98072 3.89589
# Velocity P-wave (km/s) = 6.87536 7.37959 7.13193
#
# Compressibility (1/GPa) = 0.01732719
#
# Stress axis : x y z
#
# Youngs Moduli (GPa) = 97.71935 97.71935 42.43912
#
# Poissons Ratio (x) = 0.24247 0.23066
# Poissons Ratio (y) = 0.24247 0.23066
# Poissons Ratio (z) = 0.53111 0.53111
#
# Static dielectric constant tensor:
#      x y z
#    x 4.051920 0.000000 0.000000 
#    y 0.000000 4.051920 0.000000 
#    z 0.000000 0.000000 3.560460 
# 
# 
# High freq. dielectric constant tensor:
#      x y z
#    x 1.823050 0.000000 0.000000 
#    y 0.000000 1.823050 0.000000 
#    z 0.000000 0.000000 1.780640 
# 
# From -- ./inp_files/6862.got.cif
#   From: 2010.03.12/outbox.cif.g09.slc.cpg/sg192_4_cif.got.tgz:6862.got - 2010.04.01 12:16:15.
