data_PCOD8329896
_publ_section_title
;
Structure prediction by ZEFSAII (Michael W. Deem and Ramdas Pophale) SiO2 
 PCOD8329896
Probable space group: P 63/M C M
;
_chemical_formula_sum "Si O2"
_cell_formula_units_Z 120
_cell_length_a 17.101625
_cell_length_b 17.101625
_cell_length_c 25.725854
_cell_angle_alpha 90.000000
_cell_angle_beta 90.000000
_cell_angle_gamma 120.000000
_cell_volume 6515.911702
_symmetry_space_group_name_H-M "P 63/M C M"
_symmetry_group_IT_number 193
_symmetry_cell_setting 'hexagonal'
loop_
_space_group_symop_operation_xyz
x,y,z
x-y,x,1/2+z
-y,x-y,z
-x,-y,1/2+z
-x+y,-x,z
y,-x+y,1/2+z
x-y,-y,1/2-z
-x,-x+y,1/2-z
y,x,1/2-z
-y,-x,-z
-x+y,y,-z
x,x-y,-z
-x,-y,-z
-x+y,-x,1/2-z
y,-x+y,-z
x,y,1/2-z
x-y,x,-z
-y,x-y,1/2-z
-x+y,y,1/2+z
x,x-y,1/2+z
-y,-x,1/2+z
y,x,z
x-y,-y,z
-x,-x+y,z
loop_
_atom_site_type_symbol
_atom_site_label
_atom_site_fract_x
_atom_site_fract_y
_atom_site_fract_z
Si Si1 0.664077 0.558056 0.863275
Si Si2 0.765307 0.102595 0.041025
Si Si3 0.155045 0.788943 0.690135
Si Si4 0.405540 0.511638 0.691535
Si Si5 0.898909 0.100735 0.122192
O O1 0.615671 0.615671 0.857591
O O2 0.707453 0.575713 0.921202
O O3 0.739965 0.596413 0.819122
O O4 0.595679 0.452810 0.849197
O O5 0.845160 0.100401 0.071630
O O6 0.699244 0.000000 0.018147
O O7 0.815682 0.184319 0.000000
O O8 0.129334 0.778327 0.750000
O O9 0.131052 0.691144 0.667591
O O10 0.096289 0.826712 0.663363
O O11 0.395820 0.543349 0.750000
O O12 0.466939 0.466939 0.695748
O O13 0.000000 0.129224 0.105249
O O14 0.850276 0.000000 0.146659
#
# Coordination Sequence:
#
# PCOD8329896 Si02
#       5
#    24  24  24  24  24
#     4   9  18  32  50  72  98 131 166 204 252 301
#     4   9  17  30  50  74  99 130 169 212 258 305
#     4  10  19  31  48  71  98 131 167 205 248 299
#     4   9  17  30  48  69  96 130 165 202 245 295
#     4  10  20  32  47  69  99 135 174 214 254 296
#
# _framework density 18.416456
#
# number of rings (size 3 to 8) (size 9 to 14) (size 15 to 20)
#    0.000    2.600    0.000    3.800    0.000    3.600 
#    1.200    0.000    0.000    9.200    0.000   18.200 
#    0.000    0.000    0.000    0.000    0.000    0.000 
#
# Total GULP energy -1486987.329097 kJ/mol
# GULP energy per Si atom -12391.561076 kJ/mol
# Density = 1.837454 g / cm^3
# Si number density = 18.416456 Si / 1000 Ang^3
#
#
#
# Elastic Constant Matrix: (Units=GPa)
#
#
# Indices 1 2 3 4 5 6 
#
# 1 87.5865 34.5842 41.8555 0.0000 0.0000 0.0000
# 2 34.5842 87.5865 41.8555 0.0000 0.0000 0.0000
# 3 41.8555 41.8555 68.6447 0.0000 0.0000 0.0000
# 4 0.0000 0.0000 0.0000 19.7517 0.0000 0.0000
# 5 0.0000 0.0000 0.0000 0.0000 19.7517 0.0000
# 6 0.0000 0.0000 0.0000 0.0000 0.0000 26.5012
#
#
#
# Elastic Compliance Matrix: (Units=1/GPa)
#
#
# Indices 1 2 3 4 5 6 
#
# 1 0.016463 -0.002404 -0.008572 0.000000 0.000000 0.000000
# 2 -0.002404 0.016463 -0.008572 0.000000 0.000000 0.000000
# 3 -0.008572 -0.008572 0.025022 0.000000 0.000000 0.000000
# 4 0.000000 0.000000 0.000000 0.050629 0.000000 0.000000
# 5 0.000000 0.000000 0.000000 0.000000 0.050629 0.000000
# 6 0.000000 0.000000 0.000000 0.000000 0.000000 0.037734
#
#
# Mechanical properties :
#
#
# Convention : Reuss Voigt Hill
#
# Bulk Modulus (GPa) = 53.04981 53.37866 53.21423
# Shear Modulus (GPa) = 20.63387 21.56908 21.10147
#
# Velocity S-wave (km/s) = 3.35087 3.42597 3.38863
# Velocity P-wave (km/s) = 6.62113 6.68557 6.65343
#
# Compressibility (1/GPa) = 0.01885021
#
# Stress axis : x y z
#
# Youngs Moduli (GPa) = 60.74206 60.74206 39.96549
#
# Poissons Ratio (x) = 0.14603 0.34260
# Poissons Ratio (y) = 0.14603 0.34260
# Poissons Ratio (z) = 0.52070 0.52070
#
# Static dielectric constant tensor:
#      x y z
#    x 3.584030 0.000000 0.000000 
#    y 0.000000 3.584030 0.000000 
#    z 0.000000 0.000000 3.267690 
# 
# 
# High freq. dielectric constant tensor:
#      x y z
#    x 1.711870 0.000000 0.000000 
#    y 0.000000 1.711870 0.000000 
#    z 0.000000 0.000000 1.684810 
# 
# From -- ./inp_files/8939.got.cif
#   From: 2010.03.12/outbox.cif.g09.slc.cpg/sg193_5_cif.got.tgz:8939.got - 2010.04.01 12:20:39.
