data_PCOD8329432
_publ_section_title
;
Structure prediction by ZEFSAII (Michael W. Deem and Ramdas Pophale) SiO2 
 PCOD8329432
Probable space group: P 6/M C C
;
_chemical_formula_sum "Si O2"
_cell_formula_units_Z 90
_cell_length_a 24.632105
_cell_length_b 24.632105
_cell_length_c 9.912037
_cell_angle_alpha 90.000000
_cell_angle_beta 90.000000
_cell_angle_gamma 120.000000
_cell_volume 5208.307301
_symmetry_space_group_name_H-M "P 6/M C C"
_symmetry_group_IT_number 192
_symmetry_cell_setting 'hexagonal'
loop_
_space_group_symop_operation_xyz
x,y,z
x-y,x,z
-y,x-y,z
-x,-y,z
-x+y,-x,z
y,-x+y,z
x-y,-y,1/2-z
-x,-x+y,1/2-z
y,x,1/2-z
-y,-x,1/2-z
-x+y,y,1/2-z
x,x-y,1/2-z
-x,-y,-z
-x+y,-x,-z
y,-x+y,-z
x,y,-z
x-y,x,-z
-y,x-y,-z
-x+y,y,1/2+z
x,x-y,1/2+z
-y,-x,1/2+z
y,x,1/2+z
x-y,-y,1/2+z
-x,-x+y,1/2+z
loop_
_atom_site_type_symbol
_atom_site_label
_atom_site_fract_x
_atom_site_fract_y
_atom_site_fract_z
Si Si1 0.000000 0.682683 0.750000
Si Si2 0.318614 0.201727 0.355030
Si Si3 0.000000 0.500000 0.750000
Si Si4 0.813632 0.533851 0.653987
Si Si5 0.451442 0.366582 0.852108
O O1 0.954490 0.699680 0.668691
O O2 0.958955 0.623885 0.847477
O O3 0.288448 0.144224 0.250000
O O4 0.291324 0.171299 0.500000
O O5 0.393026 0.231993 0.356467
O O6 0.957270 0.516025 0.844831
O O7 0.751596 0.503191 0.750000
O O8 0.800734 0.505499 0.500000
O O9 0.864882 0.522082 0.730335
O O10 0.466890 0.349058 0.000000
#
# Coordination Sequence:
#
# PCOD8329432 Si02
#       5
#    12  24   6  24  24
#     4   9  18  29  44  62  84 116 155 188 225 268
#     4   9  17  27  40  59  82 109 142 179 216 256
#     4  10  22  32  44  66  98 132 164 194 236 292
#     4   9  17  29  45  65  87 111 144 185 227 269
#     4  10  19  31  47  64  88 123 159 195 232 276
#
# _framework density 17.280086000000001
#
# number of rings (size 3 to 8) (size 9 to 14) (size 15 to 20)
#    0.000    2.667    0.000    2.000    0.000   14.933 
#    0.000    0.000    0.000    0.000    0.000    0.000 
#    1.333    0.000    1.600    0.400    1.600    3.467 
#
# Total GULP energy -1115168.660107 kJ/mol
# GULP energy per Si atom -12390.762890 kJ/mol
# Density = 1.724076 g / cm^3
# Si number density = 17.280086 Si / 1000 Ang^3
#
#
#
# Elastic Constant Matrix: (Units=GPa)
#
#
# Indices 1 2 3 4 5 6 
#
# 1 61.4754 25.6620 42.6544 0.0000 0.0000 0.0000
# 2 25.6620 61.4754 42.6544 0.0000 0.0000 0.0000
# 3 42.6544 42.6544 175.6059 0.0000 0.0000 0.0000
# 4 0.0000 0.0000 0.0000 11.3957 0.0000 0.0000
# 5 0.0000 0.0000 0.0000 0.0000 11.3957 0.0000
# 6 0.0000 0.0000 0.0000 0.0000 0.0000 17.9067
#
#
#
# Elastic Compliance Matrix: (Units=1/GPa)
#
#
# Indices 1 2 3 4 5 6 
#
# 1 0.021490 -0.006433 -0.003657 0.000000 0.000000 0.000000
# 2 -0.006433 0.021490 -0.003657 0.000000 0.000000 0.000000
# 3 -0.003657 -0.003657 0.007471 0.000000 0.000000 0.000000
# 4 0.000000 0.000000 0.000000 0.087752 0.000000 0.000000
# 5 0.000000 0.000000 0.000000 0.000000 0.087752 0.000000
# 6 0.000000 0.000000 0.000000 0.000000 0.000000 0.055845
#
#
# Mechanical properties :
#
#
# Convention : Reuss Voigt Hill
#
# Bulk Modulus (GPa) = 43.56244 57.83314 50.69779
# Shear Modulus (GPa) = 15.77555 20.64537 18.21046
#
# Velocity S-wave (km/s) = 3.02476 3.46026 3.24981
# Velocity P-wave (km/s) = 6.12072 7.03600 6.59426
#
# Compressibility (1/GPa) = 0.02295555
#
# Stress axis : x y z
#
# Youngs Moduli (GPa) = 46.53423 46.53423 133.84663
#
# Poissons Ratio (x) = 0.29935 0.48951
# Poissons Ratio (y) = 0.29935 0.48951
# Poissons Ratio (z) = 0.17019 0.17019
#
# Static dielectric constant tensor:
#      x y z
#    x 2.949080 0.000000 0.000000 
#    y 0.000000 2.949080 0.000000 
#    z 0.000000 0.000000 3.564730 
# 
# 
# High freq. dielectric constant tensor:
#      x y z
#    x 1.623320 0.000000 0.000000 
#    y 0.000000 1.623320 0.000000 
#    z 0.000000 0.000000 1.687460 
# 
# From -- ./inp_files/845.got.cif
#   From: 2010.03.12/outbox.cif.g09.slc.cpg/sg192_1_cif.got.tgz:845.got - 2010.04.01 12:16:15.
