data_PCOD8329799
_publ_section_title
;
Structure prediction by ZEFSAII (Michael W. Deem and Ramdas Pophale) SiO2 
 PCOD8329799
Probable space group: P 63/M C M
;
_chemical_formula_sum "Si O2"
_cell_formula_units_Z 80
_cell_length_a 17.785922
_cell_length_b 17.785922
_cell_length_c 16.812282
_cell_angle_alpha 90.000000
_cell_angle_beta 90.000000
_cell_angle_gamma 120.000000
_cell_volume 4605.852910
_symmetry_space_group_name_H-M "P 63/M C M"
_symmetry_group_IT_number 193
_symmetry_cell_setting 'hexagonal'
loop_
_space_group_symop_operation_xyz
x,y,z
x-y,x,1/2+z
-y,x-y,z
-x,-y,1/2+z
-x+y,-x,z
y,-x+y,1/2+z
x-y,-y,1/2-z
-x,-x+y,1/2-z
y,x,1/2-z
-y,-x,-z
-x+y,y,-z
x,x-y,-z
-x,-y,-z
-x+y,-x,1/2-z
y,-x+y,-z
x,y,1/2-z
x-y,x,-z
-y,x-y,1/2-z
-x+y,y,1/2+z
x,x-y,1/2+z
-y,-x,1/2+z
y,x,z
x-y,-y,z
-x,-x+y,z
loop_
_atom_site_type_symbol
_atom_site_label
_atom_site_fract_x
_atom_site_fract_y
_atom_site_fract_z
Si Si1 0.460324 0.100681 0.663054
Si Si2 0.333334 0.666668 0.656641
Si Si3 0.734406 0.101635 0.012329
Si Si4 0.539897 0.173099 0.421759
O O1 0.468860 0.145353 0.750000
O O2 0.416773 0.132093 0.596751
O O3 0.553499 0.114833 0.636493
O O4 0.397392 0.000000 0.672683
O O5 0.333334 0.666668 0.750000
O O6 0.429895 0.735067 0.623587
O O7 0.705429 0.000000 0.008759
O O8 0.838559 0.161442 0.000000
O O9 0.684666 0.122873 0.942814
O O10 0.597615 0.195230 0.500000
#
# Coordination Sequence:
#
# PCOD8329799 Si02
#       4
#    24   8  24  24
#     4   9  17  30  49  72  98 130 165 199 236 278
#     4  12  22  29  43  66  97 140 175 198 226 260
#     4  10  20  34  53  72  93 124 161 202 247 295
#     4  10  18  30  45  65  95 129 166 201 231 266
#
# _framework density 17.369202999999999
#
# number of rings (size 3 to 8) (size 9 to 14) (size 15 to 20)
#    0.000    2.100    0.000    6.300    0.000    3.600 
#    0.000    1.500    0.000    4.800    0.000    0.000 
#    0.000    0.000    0.000    0.000    0.000    0.300 
#
# Total GULP energy -991279.842160 kJ/mol
# GULP energy per Si atom -12390.998027 kJ/mol
# Density = 1.732967 g / cm^3
# Si number density = 17.369203 Si / 1000 Ang^3
#
#
#
# Elastic Constant Matrix: (Units=GPa)
#
#
# Indices 1 2 3 4 5 6 
#
# 1 85.6950 37.5700 32.6068 -0.0001 0.0001 0.0000
# 2 37.5700 85.6952 32.6069 -0.0001 0.0000 0.0001
# 3 32.6068 32.6069 100.8546 -0.0001 -0.0001 0.0000
# 4 -0.0001 -0.0001 -0.0001 15.7964 0.0001 0.0000
# 5 0.0001 0.0000 -0.0001 0.0001 15.7963 0.0000
# 6 0.0000 0.0001 0.0000 0.0000 0.0000 24.0625
#
#
#
# Elastic Compliance Matrix: (Units=1/GPa)
#
#
# Indices 1 2 3 4 5 6 
#
# 1 0.015283 -0.005496 -0.003164 0.000000 0.000000 0.000000
# 2 -0.005496 0.015283 -0.003164 0.000000 0.000000 0.000000
# 3 -0.003164 -0.003164 0.011961 0.000000 0.000000 0.000000
# 4 0.000000 0.000000 0.000000 0.063305 0.000000 0.000000
# 5 0.000000 0.000000 0.000000 0.000000 0.063306 0.000000
# 6 0.000000 0.000000 0.000000 0.000000 0.000000 0.041558
#
#
# Mechanical properties :
#
#
# Convention : Reuss Voigt Hill
#
# Bulk Modulus (GPa) = 52.97152 53.09028 53.03090
# Shear Modulus (GPa) = 20.77806 22.42844 21.60325
#
# Velocity S-wave (km/s) = 3.46245 3.59733 3.53053
# Velocity P-wave (km/s) = 6.82263 6.92001 6.87149
#
# Compressibility (1/GPa) = 0.01887807
#
# Stress axis : x y z
#
# Youngs Moduli (GPa) = 65.43273 65.43286 83.60389
#
# Poissons Ratio (x) = 0.35964 0.26453
# Poissons Ratio (y) = 0.35964 0.26453
# Poissons Ratio (z) = 0.20703 0.20703
#
# Static dielectric constant tensor:
#      x y z
#    x 3.072410 0.000000 0.000000 
#    y 0.000000 3.072400 0.000000 
#    z 0.000000 0.000000 4.211210 
# 
# 
# High freq. dielectric constant tensor:
#      x y z
#    x 1.642740 0.000000 0.000000 
#    y 0.000000 1.642740 0.000000 
#    z 0.000000 0.000000 1.683820 
# 
# From -- ./inp_files/4996.got.cif
#   From: 2010.03.12/outbox.cif.g09.slc.cpg/sg193_3_cif.got.tgz:4996.got - 2010.04.01 12:20:39.
