data_PCOD8329425
_publ_section_title
;
Structure prediction by ZEFSAII (Michael W. Deem and Ramdas Pophale) SiO2 
 PCOD8329425
Probable space group: P 6/M C C
;
_chemical_formula_sum "Si O2"
_cell_formula_units_Z 108
_cell_length_a 21.642973
_cell_length_b 21.642973
_cell_length_c 15.738892
_cell_angle_alpha 90.000000
_cell_angle_beta 90.000000
_cell_angle_gamma 120.000000
_cell_volume 6384.672458
_symmetry_space_group_name_H-M "P 6/M C C"
_symmetry_group_IT_number 192
_symmetry_cell_setting 'hexagonal'
loop_
_space_group_symop_operation_xyz
x,y,z
x-y,x,z
-y,x-y,z
-x,-y,z
-x+y,-x,z
y,-x+y,z
x-y,-y,1/2-z
-x,-x+y,1/2-z
y,x,1/2-z
-y,-x,1/2-z
-x+y,y,1/2-z
x,x-y,1/2-z
-x,-y,-z
-x+y,-x,-z
y,-x+y,-z
x,y,-z
x-y,x,-z
-y,x-y,-z
-x+y,y,1/2+z
x,x-y,1/2+z
-y,-x,1/2+z
y,x,1/2+z
x-y,-y,1/2+z
-x,-x+y,1/2+z
loop_
_atom_site_type_symbol
_atom_site_label
_atom_site_fract_x
_atom_site_fract_y
_atom_site_fract_z
Si Si1 0.084085 0.691242 0.843681
Si Si2 0.527150 0.914693 0.500000
Si Si3 0.084085 0.392844 0.156319
Si Si4 0.307756 0.153878 0.406256
Si Si5 0.915278 0.084722 0.500000
Si Si6 0.914693 0.387543 0.000000
O O1 0.109853 0.682001 0.750000
O O2 0.106581 0.773126 0.856612
O O3 1.000000 0.647184 0.849730
O O4 0.115863 0.661789 0.915805
O O5 0.545926 0.884137 0.415805
O O6 0.442823 0.885646 0.500000
O O7 0.570869 1.000000 0.500000
O O8 0.106581 0.333455 0.143388
O O9 0.343245 0.171623 0.500000
O O10 0.221163 0.110581 0.416432
O O11 0.000000 0.119791 0.500000
#
# Coordination Sequence:
#
# PCOD8329425 Si02
#       6
#    24  12  24  24  12  12
#     4  10  19  31  48  71  98 128 162 200 246 299
#     4   9  17  30  46  67  98 129 152 180 222 278
#     4  10  19  31  48  71  98 128 162 200 246 299
#     4  10  19  30  50  67  96 130 168 214 266 310
#     4  10  19  30  48  70  96 132 180 234 290 342
#     4   9  17  30  46  67  98 129 152 180 222 278
#
# _framework density 16.915513000000001
#
# number of rings (size 3 to 8) (size 9 to 14) (size 15 to 20)
#    0.667    1.556    2.222    2.111    0.000    0.889 
#    0.000    4.444    0.000    0.000    0.000    0.000 
#    8.889   10.667    2.667    0.000    0.000    0.000 
#
# Total GULP energy -1338294.562593 kJ/mol
# GULP energy per Si atom -12391.616320 kJ/mol
# Density = 1.687701 g / cm^3
# Si number density = 16.915513 Si / 1000 Ang^3
#
#
#
# Elastic Constant Matrix: (Units=GPa)
#
#
# Indices 1 2 3 4 5 6 
#
# 1 97.2568 16.2308 48.5200 0.0000 0.0000 0.0000
# 2 16.2308 97.2568 48.5200 0.0000 0.0000 0.0000
# 3 48.5200 48.5200 153.1753 0.0000 0.0000 0.0000
# 4 0.0000 0.0000 0.0000 15.5625 0.0000 0.0000
# 5 0.0000 0.0000 0.0000 0.0000 15.5625 0.0000
# 6 0.0000 0.0000 0.0000 0.0000 0.0000 40.5130
#
#
#
# Elastic Compliance Matrix: (Units=1/GPa)
#
#
# Indices 1 2 3 4 5 6 
#
# 1 0.012213 -0.000128 -0.003828 0.000000 0.000000 0.000000
# 2 -0.000128 0.012213 -0.003828 0.000000 0.000000 0.000000
# 3 -0.003828 -0.003828 0.008954 0.000000 0.000000 0.000000
# 4 0.000000 0.000000 0.000000 0.064257 0.000000 0.000000
# 5 0.000000 0.000000 0.000000 0.000000 0.064257 0.000000
# 6 0.000000 0.000000 0.000000 0.000000 0.000000 0.024683
#
#
# Mechanical properties :
#
#
# Convention : Reuss Voigt Hill
#
# Bulk Modulus (GPa) = 56.14462 63.80337 59.97400
# Shear Modulus (GPa) = 24.02880 29.95547 26.99213
#
# Velocity S-wave (km/s) = 3.77307 4.21276 3.99896
# Velocity P-wave (km/s) = 7.22804 7.83989 7.54017
#
# Compressibility (1/GPa) = 0.01781114
#
# Stress axis : x y z
#
# Youngs Moduli (GPa) = 81.87846 81.87846 111.68722
#
# Poissons Ratio (x) = 0.01052 0.42754
# Poissons Ratio (y) = 0.01052 0.42754
# Poissons Ratio (z) = 0.31343 0.31343
#
# Static dielectric constant tensor:
#      x y z
#    x 2.903880 0.000000 0.000000 
#    y 0.000000 2.903880 0.000000 
#    z 0.000000 0.000000 3.566420 
# 
# 
# High freq. dielectric constant tensor:
#      x y z
#    x 1.623900 0.000000 0.000000 
#    y 0.000000 1.623900 0.000000 
#    z 0.000000 0.000000 1.663270 
# 
# From -- ./inp_files/4160.got.cif
#   From: 2010.03.12/outbox.cif.g09.slc.cpg/sg192_3_cif.got.tgz:4160.got - 2010.04.01 12:16:15.
