data_PCOD8329824
_publ_section_title
;
Structure prediction by ZEFSAII (Michael W. Deem and Ramdas Pophale) SiO2 
 PCOD8329824
Probable space group: P 63/M C M
;
_chemical_formula_sum "Si O2"
_cell_formula_units_Z 128
_cell_length_a 21.352861
_cell_length_b 21.352861
_cell_length_c 19.005348
_cell_angle_alpha 90.000000
_cell_angle_beta 90.000000
_cell_angle_gamma 120.000000
_cell_volume 7504.445429
_symmetry_space_group_name_H-M "P 63/M C M"
_symmetry_group_IT_number 193
_symmetry_cell_setting 'hexagonal'
loop_
_space_group_symop_operation_xyz
x,y,z
x-y,x,1/2+z
-y,x-y,z
-x,-y,1/2+z
-x+y,-x,z
y,-x+y,1/2+z
x-y,-y,1/2-z
-x,-x+y,1/2-z
y,x,1/2-z
-y,-x,-z
-x+y,y,-z
x,x-y,-z
-x,-y,-z
-x+y,-x,1/2-z
y,-x+y,-z
x,y,1/2-z
x-y,x,-z
-y,x-y,1/2-z
-x+y,y,1/2+z
x,x-y,1/2+z
-y,-x,1/2+z
y,x,z
x-y,-y,z
-x,-x+y,z
loop_
_atom_site_type_symbol
_atom_site_label
_atom_site_fract_x
_atom_site_fract_y
_atom_site_fract_z
Si Si1 0.220668 0.919641 0.082002
Si Si2 0.594327 0.188660 0.169040
Si Si3 0.666667 0.333334 0.584476
Si Si4 0.220669 0.919641 0.917996
Si Si5 0.437870 0.146905 0.170470
Si Si6 0.146913 0.709038 0.170469
O O1 0.139384 0.860616 0.106946
O O2 0.280457 0.907129 0.120205
O O3 0.235510 0.000000 0.100077
O O4 0.230124 0.911412 0.999999
O O5 0.609185 0.218371 0.250000
O O6 0.626133 0.252297 0.112909
O O7 0.508374 0.139610 0.156037
O O8 0.631241 0.139621 0.156028
O O9 0.666668 0.333334 0.500000
O O10 0.280456 0.907124 0.879793
O O11 0.235515 0.000000 0.899919
O O12 0.410350 0.124465 0.250000
O O13 0.459636 0.229815 0.155866
O O14 0.124470 0.714109 0.250000
#
# Coordination Sequence:
#
# PCOD8329824 Si02
#       6
#    24  24   8  24  24  24
#     4   9  18  33  52  72  96 124 153 189 235 287
#     4  10  18  32  47  63  94 133 168 208 254 289
#     4  12  22  26  40  69  97 128 172 219 253 287
#     4   9  18  33  52  72  96 124 153 189 235 287
#     4   9  17  29  48  69  91 124 164 204 241 279
#     4   9  17  29  48  69  91 124 164 204 241 279
#
# _framework density 17.056557000000002
#
# number of rings (size 3 to 8) (size 9 to 14) (size 15 to 20)
#    0.000    2.625    1.875    0.562    0.000    2.250 
#    0.000    0.938    0.000    6.000    0.000    2.625 
#    0.000    0.000    0.000    9.375    0.000    9.750 
#
# Total GULP energy -1586827.729096 kJ/mol
# GULP energy per Si atom -12397.091634 kJ/mol
# Density = 1.701774 g / cm^3
# Si number density = 17.056557 Si / 1000 Ang^3
#
#
#
# Elastic Constant Matrix: (Units=GPa)
#
#
# Indices 1 2 3 4 5 6 
#
# 1 101.8553 61.6285 42.0662 0.0000 0.0000 0.0000
# 2 61.6285 101.8550 42.0661 0.0000 0.0000 0.0000
# 3 42.0662 42.0661 63.2442 0.0000 0.0000 0.0000
# 4 0.0000 0.0000 0.0000 22.0951 0.0000 0.0000
# 5 0.0000 0.0000 0.0000 0.0000 22.0952 0.0000
# 6 0.0000 0.0000 0.0000 0.0000 0.0000 20.1134
#
#
#
# Elastic Compliance Matrix: (Units=1/GPa)
#
#
# Indices 1 2 3 4 5 6 
#
# 1 0.017080 -0.007779 -0.006186 0.000000 0.000000 0.000000
# 2 -0.007779 0.017080 -0.006186 0.000000 0.000000 0.000000
# 3 -0.006186 -0.006186 0.024041 0.000000 0.000000 0.000000
# 4 0.000000 0.000000 0.000000 0.045259 0.000000 0.000000
# 5 0.000000 0.000000 0.000000 0.000000 0.045259 0.000000
# 6 0.000000 0.000000 0.000000 0.000000 0.000000 0.049718
#
#
# Mechanical properties :
#
#
# Convention : Reuss Voigt Hill
#
# Bulk Modulus (GPa) = 55.87392 62.05290 58.96341
# Shear Modulus (GPa) = 20.43284 20.94034 20.68659
#
# Velocity S-wave (km/s) = 3.46489 3.50766 3.48634
# Velocity P-wave (km/s) = 6.98831 7.27080 7.13095
#
# Compressibility (1/GPa) = 0.01789744
#
# Stress axis : x y z
#
# Youngs Moduli (GPa) = 58.54920 58.54906 41.59606
#
# Poissons Ratio (x) = 0.45548 0.25731
# Poissons Ratio (y) = 0.45548 0.25731
# Poissons Ratio (z) = 0.36218 0.36218
#
# Static dielectric constant tensor:
#      x y z
#    x 3.150870 0.000000 0.000000 
#    y 0.000000 3.150880 0.000000 
#    z 0.000000 0.000000 3.171510 
# 
# 
# High freq. dielectric constant tensor:
#      x y z
#    x 1.639670 0.000000 0.000000 
#    y 0.000000 1.639670 0.000000 
#    z 0.000000 0.000000 1.655050 
# 
# From -- ./inp_files/6487.got.cif
#   From: 2010.03.12/outbox.cif.g09.slc.cpg/sg193_4_cif.got.tgz:6487.got - 2010.04.01 12:20:39.
