data_PCOD8329044
_publ_section_title
;
Structure prediction by ZEFSAII (Michael W. Deem and Ramdas Pophale) SiO2 
 PCOD8329044
Probable space group: P 6/M M M
;
_chemical_formula_sum "Si O2"
_cell_formula_units_Z 168
_cell_length_a 27.253290
_cell_length_b 27.253290
_cell_length_c 14.144759
_cell_angle_alpha 90.000000
_cell_angle_beta 90.000000
_cell_angle_gamma 120.000000
_cell_volume 9098.379740
_symmetry_space_group_name_H-M "P 6/M M M"
_symmetry_group_IT_number 191
_symmetry_cell_setting 'hexagonal'
loop_
_space_group_symop_operation_xyz
x,y,z
x-y,x,z
-y,x-y,z
-x,-y,z
-x+y,-x,z
y,-x+y,z
x-y,-y,-z
-x,-x+y,-z
y,x,-z
-y,-x,-z
-x+y,y,-z
x,x-y,-z
-x,-y,-z
-x+y,-x,-z
y,-x+y,-z
x,y,-z
x-y,x,-z
-y,x-y,-z
-x+y,y,z
x,x-y,z
-y,-x,z
y,x,z
x-y,-y,z
-x,-x+y,z
loop_
_atom_site_type_symbol
_atom_site_label
_atom_site_fract_x
_atom_site_fract_y
_atom_site_fract_z
Si Si1 0.874484 0.748967 0.889592
Si Si2 0.878146 0.565438 0.890080
Si Si3 0.063122 0.936879 0.887021
Si Si4 0.579653 0.644953 0.603613
Si Si5 0.444196 0.666872 0.112065
Si Si6 0.414998 0.934976 0.779097
Si Si7 0.753889 0.066631 0.199806
Si Si8 0.226734 0.886397 0.395945
O O1 0.905505 0.811010 0.843450
O O2 0.809154 0.718327 0.863084
O O3 0.877670 0.755340 0.000000
O O4 0.821647 0.508556 0.853168
O O5 0.927076 0.549876 0.871498
O O6 0.894431 0.620698 0.826724
O O7 0.874946 0.579184 0.000000
O O8 0.000000 0.905463 0.846655
O O9 0.063157 0.936844 0.000000
O O10 0.553372 0.620645 0.500000
O O11 0.628887 0.628887 0.626675
O O12 0.531208 0.621020 0.682994
O O13 0.604300 0.711892 0.604544
O O14 0.429522 0.714761 0.144761
O O15 0.394467 0.605534 0.151288
O O16 0.445130 0.663252 0.000000
O O17 0.452393 0.904786 0.796121
O O18 0.456314 0.000000 0.761357
O O19 0.773577 0.074956 0.309616
O O20 0.711177 0.000000 0.178331
O O21 0.217005 0.906662 0.500000
O O22 0.178805 0.821196 0.378159
#
# Coordination Sequence:
#
# PCOD8329044 Si02
#       8
#    12  24  12  24  24  24  24  24
#     4  11  24  39  55  80 119 159 199 241 284 332
#     4  11  23  36  52  74 107 148 193 236 278 332
#     4   9  17  32  55  81 109 145 192 243 289 330
#     4   9  17  32  54  77 102 133 168 213 273 334
#     4   9  18  33  54  77 101 133 178 233 291 343
#     4  10  20  33  49  71 101 138 182 230 278 329
#     4  12  24  39  59  83 113 154 196 236 286 343
#     4  10  20  36  59  85 110 137 175 224 281 341
#
# _framework density 18.464825000000001
#
# number of rings (size 3 to 8) (size 9 to 14) (size 15 to 20)
#    0.000    1.857    2.143    2.357    1.000    5.429 
#    0.000    2.143    0.000    0.000    0.000    0.000 
#    0.000    0.000    0.000    0.000    0.000    7.929 
#
# Total GULP energy -2081199.148918 kJ/mol
# GULP energy per Si atom -12388.090172 kJ/mol
# Density = 1.842280 g / cm^3
# Si number density = 18.464825 Si / 1000 Ang^3
#
#
#
# Elastic Constant Matrix: (Units=GPa)
#
#
# Indices 1 2 3 4 5 6 
#
# 1 108.5947 61.0266 22.8051 0.0000 0.0000 0.0000
# 2 61.0266 108.5947 22.8051 0.0000 0.0000 0.0000
# 3 22.8051 22.8051 60.1240 0.0000 0.0000 0.0000
# 4 0.0000 0.0000 0.0000 19.3072 0.0000 0.0000
# 5 0.0000 0.0000 0.0000 0.0000 19.3072 0.0000
# 6 0.0000 0.0000 0.0000 0.0000 0.0000 23.7840
#
#
#
# Elastic Compliance Matrix: (Units=1/GPa)
#
#
# Indices 1 2 3 4 5 6 
#
# 1 0.013794 -0.007229 -0.002490 0.000000 0.000000 0.000000
# 2 -0.007229 0.013794 -0.002490 0.000000 0.000000 0.000000
# 3 -0.002490 -0.002490 0.018521 0.000000 0.000000 0.000000
# 4 0.000000 0.000000 0.000000 0.051794 0.000000 0.000000
# 5 0.000000 0.000000 0.000000 0.000000 0.051794 0.000000
# 6 0.000000 0.000000 0.000000 0.000000 0.000000 0.042045
#
#
# Mechanical properties :
#
#
# Convention : Reuss Voigt Hill
#
# Bulk Modulus (GPa) = 46.10228 54.50968 50.30598
# Shear Modulus (GPa) = 22.38230 23.85810 23.12020
#
# Velocity S-wave (km/s) = 3.48538 3.59846 3.54237
# Velocity P-wave (km/s) = 6.42020 6.84471 6.63585
#
# Compressibility (1/GPa) = 0.02169090
#
# Stress axis : x y z
#
# Youngs Moduli (GPa) = 72.49637 72.49637 53.99181
#
# Poissons Ratio (x) = 0.52406 0.13445
# Poissons Ratio (y) = 0.52406 0.13445
# Poissons Ratio (z) = 0.18053 0.18053
#
# Static dielectric constant tensor:
#      x y z
#    x 3.547380 0.000000 0.000000 
#    y 0.000000 3.547380 0.000000 
#    z 0.000000 0.000000 3.504380 
# 
# 
# High freq. dielectric constant tensor:
#      x y z
#    x 1.711890 0.000000 0.000000 
#    y 0.000000 1.711890 0.000000 
#    z 0.000000 0.000000 1.699160 
# 
# From -- ./inp_files/5318.got.cif
#   From: 2010.03.12/outbox.cif.g09.slc.cpg/sg191_3_cif.got.tgz:5318.got - 2010.04.01 12:09:02.
