data_PCOD8329460
_publ_section_title
;
Structure prediction by ZEFSAII (Michael W. Deem and Ramdas Pophale) SiO2 
 PCOD8329460
Probable space group: P 6/M C C
;
_chemical_formula_sum "Si O2"
_cell_formula_units_Z 168
_cell_length_a 27.217982
_cell_length_b 27.217982
_cell_length_c 15.626771
_cell_angle_alpha 90.000000
_cell_angle_beta 90.000000
_cell_angle_gamma 120.000000
_cell_volume 10025.631198
_symmetry_space_group_name_H-M "P 6/M C C"
_symmetry_group_IT_number 192
_symmetry_cell_setting 'hexagonal'
loop_
_space_group_symop_operation_xyz
x,y,z
x-y,x,z
-y,x-y,z
-x,-y,z
-x+y,-x,z
y,-x+y,z
x-y,-y,1/2-z
-x,-x+y,1/2-z
y,x,1/2-z
-y,-x,1/2-z
-x+y,y,1/2-z
x,x-y,1/2-z
-x,-y,-z
-x+y,-x,-z
y,-x+y,-z
x,y,-z
x-y,x,-z
-y,x-y,-z
-x+y,y,1/2+z
x,x-y,1/2+z
-y,-x,1/2+z
y,x,1/2+z
x-y,-y,1/2+z
-x,-x+y,1/2+z
loop_
_atom_site_type_symbol
_atom_site_label
_atom_site_fract_x
_atom_site_fract_y
_atom_site_fract_z
Si Si1 0.344983 0.934410 0.845593
Si Si2 0.778819 0.778819 0.648617
Si Si3 0.333489 0.110892 0.598821
Si Si4 0.410573 0.065590 0.845593
Si Si5 0.109603 1.000000 0.851766
Si Si6 0.478915 0.067236 0.500000
Si Si7 0.666511 0.889108 0.901179
Si Si8 0.521085 0.932764 0.000000
O O1 0.277157 0.896800 0.850317
O O2 0.364168 0.928208 0.750000
O O3 0.373367 0.912067 0.914426
O O4 0.363793 1.000000 0.864910
O O5 0.772287 0.772287 0.750000
O O6 0.783576 0.727399 0.610103
O O7 0.834640 0.834640 0.617502
O O8 0.727399 0.783576 0.610103
O O9 0.350483 0.118469 0.500000
O O10 0.332791 0.166395 0.634271
O O11 0.380358 0.103200 0.850317
O O12 0.461300 0.087933 0.914426
O O13 0.110469 0.055235 0.889569
O O14 0.106938 0.000000 0.750000
O O15 0.546921 0.093843 0.500000
O O16 0.448991 1.000000 0.500000
O O17 0.649517 0.881531 0.000000
#
# Coordination Sequence:
#
# PCOD8329460 Si02
#       8
#    24  24  24  24  24  12  24  12
#     4  10  19  32  51  73 100 134 170 211 254 300
#     4  11  21  32  47  68  92 119 159 215 270 329
#     4  11  22  34  49  69  95 132 176 220 270 324
#     4  10  19  32  51  73 100 134 170 211 254 300
#     4   9  17  29  44  61  82 108 143 197 269 343
#     4   9  18  32  51  74 102 133 163 198 232 276
#     4  11  22  34  49  69  95 132 176 220 270 324
#     4   9  18  32  51  74 102 133 163 198 232 276
#
# _framework density 16.75705
#
# number of rings (size 3 to 8) (size 9 to 14) (size 15 to 20)
#    0.000    1.857    2.857    2.286    0.000    4.571 
#    0.000    2.857    0.000    0.000    0.000    0.000 
#    0.000    6.857    0.000    3.429    0.000    7.429 
#
# Total GULP energy -2083289.865755 kJ/mol
# GULP energy per Si atom -12400.534915 kJ/mol
# Density = 1.671891 g / cm^3
# Si number density = 16.757050 Si / 1000 Ang^3
#
#
#
# Elastic Constant Matrix: (Units=GPa)
#
#
# Indices 1 2 3 4 5 6 
#
# 1 100.9728 45.3569 33.6554 0.0000 0.0000 0.0000
# 2 45.3569 100.9728 33.6554 0.0000 0.0000 0.0000
# 3 33.6554 33.6554 91.3019 0.0000 0.0000 0.0000
# 4 0.0000 0.0000 0.0000 16.6375 0.0000 0.0000
# 5 0.0000 0.0000 0.0000 0.0000 16.6375 0.0000
# 6 0.0000 0.0000 0.0000 0.0000 0.0000 27.8080
#
#
#
# Elastic Compliance Matrix: (Units=1/GPa)
#
#
# Indices 1 2 3 4 5 6 
#
# 1 0.013105 -0.004876 -0.003033 0.000000 0.000000 0.000000
# 2 -0.004876 0.013105 -0.003033 0.000000 0.000000 0.000000
# 3 -0.003033 -0.003033 0.013189 0.000000 0.000000 0.000000
# 4 0.000000 0.000000 0.000000 0.060105 0.000000 0.000000
# 5 0.000000 0.000000 0.000000 0.000000 0.060105 0.000000
# 6 0.000000 0.000000 0.000000 0.000000 0.000000 0.035961
#
#
# Mechanical properties :
#
#
# Convention : Reuss Voigt Hill
#
# Bulk Modulus (GPa) = 57.09794 57.62034 57.35914
# Shear Modulus (GPa) = 22.39209 24.25523 23.32366
#
# Velocity S-wave (km/s) = 3.65948 3.80868 3.73483
# Velocity P-wave (km/s) = 7.21136 7.33497 7.27343
#
# Compressibility (1/GPa) = 0.01751377
#
# Stress axis : x y z
#
# Youngs Moduli (GPa) = 76.30761 76.30761 75.82056
#
# Poissons Ratio (x) = 0.37205 0.23000
# Poissons Ratio (y) = 0.37205 0.23000
# Poissons Ratio (z) = 0.23147 0.23147
#
# Static dielectric constant tensor:
#      x y z
#    x 3.061190 0.000000 0.000000 
#    y 0.000000 3.061190 0.000000 
#    z 0.000000 0.000000 3.199320 
# 
# 
# High freq. dielectric constant tensor:
#      x y z
#    x 1.618310 0.000000 0.000000 
#    y 0.000000 1.618310 0.000000 
#    z 0.000000 0.000000 1.656160 
# 
# From -- ./inp_files/3469.got.cif
#   From: 2010.03.12/outbox.cif.g09.slc.cpg/sg192_2_cif.got.tgz:3469.got - 2010.04.01 12:16:15.
