data_PCOD8329032
_publ_section_title
;
Structure prediction by ZEFSAII (Michael W. Deem and Ramdas Pophale) SiO2 
 PCOD8329032
Probable space group: P 6/M M M
;
_chemical_formula_sum "Si O2"
_cell_formula_units_Z 108
_cell_length_a 17.961601
_cell_length_b 17.961601
_cell_length_c 22.828321
_cell_angle_alpha 90.000000
_cell_angle_beta 90.000000
_cell_angle_gamma 120.000000
_cell_volume 6378.149460
_symmetry_space_group_name_H-M "P 6/M M M"
_symmetry_group_IT_number 191
_symmetry_cell_setting 'hexagonal'
loop_
_space_group_symop_operation_xyz
x,y,z
x-y,x,z
-y,x-y,z
-x,-y,z
-x+y,-x,z
y,-x+y,z
x-y,-y,-z
-x,-x+y,-z
y,x,-z
-y,-x,-z
-x+y,y,-z
x,x-y,-z
-x,-y,-z
-x+y,-x,-z
y,-x+y,-z
x,y,-z
x-y,x,-z
-y,x-y,-z
-x+y,y,z
x,x-y,z
-y,-x,z
y,x,z
x-y,-y,z
-x,-x+y,z
loop_
_atom_site_type_symbol
_atom_site_label
_atom_site_fract_x
_atom_site_fract_y
_atom_site_fract_z
Si Si1 0.161587 0.668273 0.106902
Si Si2 0.531479 0.898111 0.564623
Si Si3 0.902076 0.269200 0.000000
Si Si4 0.646620 0.903820 0.661224
Si Si5 0.096776 0.734610 0.794016
O O1 0.147456 0.573728 0.099536
O O2 0.262916 0.737085 0.103293
O O3 0.110741 0.685899 0.056480
O O4 0.122115 0.674857 0.168650
O O5 0.547346 0.870622 0.500000
O O6 0.429700 0.859400 0.574393
O O7 0.567361 0.863764 0.615858
O O8 0.578200 0.000000 0.568799
O O9 0.833660 0.166341 0.000000
O O10 0.000000 0.286671 0.000000
O O11 0.692021 0.846011 0.657875
O O12 0.609958 0.899069 0.726394
O O13 0.718520 0.000000 0.644030
O O14 0.164387 0.835614 0.807222
O O15 0.000000 0.714047 0.809440
#
# Coordination Sequence:
#
# PCOD8329032 Si02
#       5
#    24  24  12  24  24
#     4  10  20  33  49  70  97 127 156 185 220 264
#     4   8  14  25  41  61  84 109 138 174 216 260
#     4  10  21  35  51  72  97 125 156 192 233 271
#     4   9  17  29  45  65  89 117 150 187 226 268
#     4   9  18  31  46  65  89 118 151 188 230 271
#
# _framework density 16.932811000000001
#
# number of rings (size 3 to 8) (size 9 to 14) (size 15 to 20)
#    0.000    2.889    0.000    1.889    0.000    3.556 
#    0.000    3.333    0.000    1.000    0.000    3.111 
#    0.000    5.333    0.000    5.778    0.000    6.222 
#
# Total GULP energy -1338440.652077 kJ/mol
# GULP energy per Si atom -12392.969001 kJ/mol
# Density = 1.689427 g / cm^3
# Si number density = 16.932811 Si / 1000 Ang^3
#
#
#
# Elastic Constant Matrix: (Units=GPa)
#
#
# Indices 1 2 3 4 5 6 
#
# 1 89.1765 57.4508 42.6236 0.0000 0.0000 0.0000
# 2 57.4508 89.1765 42.6236 0.0000 0.0000 0.0000
# 3 42.6236 42.6236 95.3484 0.0000 0.0000 0.0000
# 4 0.0000 0.0000 0.0000 21.3817 0.0000 0.0000
# 5 0.0000 0.0000 0.0000 0.0000 21.3817 0.0000
# 6 0.0000 0.0000 0.0000 0.0000 0.0000 15.8628
#
#
#
# Elastic Compliance Matrix: (Units=1/GPa)
#
#
# Indices 1 2 3 4 5 6 
#
# 1 0.020368 -0.011153 -0.004119 0.000000 0.000000 0.000000
# 2 -0.011153 0.020368 -0.004119 0.000000 0.000000 0.000000
# 3 -0.004119 -0.004119 0.014171 0.000000 0.000000 0.000000
# 4 0.000000 0.000000 0.000000 0.046769 0.000000 0.000000
# 5 0.000000 0.000000 0.000000 0.000000 0.046769 0.000000
# 6 0.000000 0.000000 0.000000 0.000000 0.000000 0.063040
#
#
# Mechanical properties :
#
#
# Convention : Reuss Voigt Hill
#
# Bulk Modulus (GPa) = 62.02213 62.12192 62.07203
# Shear Modulus (GPa) = 19.55864 20.45881 20.00872
#
# Velocity S-wave (km/s) = 3.40232 3.47974 3.44125
# Velocity P-wave (km/s) = 7.22096 7.27404 7.24755
#
# Compressibility (1/GPa) = 0.01612328
#
# Stress axis : x y z
#
# Youngs Moduli (GPa) = 49.09760 49.09760 70.56761
#
# Poissons Ratio (x) = 0.54757 0.29069
# Poissons Ratio (y) = 0.54757 0.29069
# Poissons Ratio (z) = 0.20225 0.20225
#
# Static dielectric constant tensor:
#      x y z
#    x 3.097100 0.000000 0.000000 
#    y 0.000000 3.097100 0.000000 
#    z 0.000000 0.000000 3.486500 
# 
# 
# High freq. dielectric constant tensor:
#      x y z
#    x 1.631510 0.000000 0.000000 
#    y 0.000000 1.631510 0.000000 
#    z 0.000000 0.000000 1.672240 
# 
# From -- ./inp_files/8313.got.cif
#   From: 2010.03.12/outbox.cif.g09.slc.cpg/sg191_5_cif.got.tgz:8313.got - 2010.04.01 12:09:02.
