data_PCOD8329002
_publ_section_title
;
Structure prediction by ZEFSAII (Michael W. Deem and Ramdas Pophale) SiO2 
 PCOD8329002
Probable space group: P 6/M M M
;
_chemical_formula_sum "Si O2"
_cell_formula_units_Z 192
_cell_length_a 22.002521
_cell_length_b 22.002521
_cell_length_c 28.319230
_cell_angle_alpha 90.000000
_cell_angle_beta 90.000000
_cell_angle_gamma 120.000000
_cell_volume 11872.904122
_symmetry_space_group_name_H-M "P 6/M M M"
_symmetry_group_IT_number 191
_symmetry_cell_setting 'hexagonal'
loop_
_space_group_symop_operation_xyz
x,y,z
x-y,x,z
-y,x-y,z
-x,-y,z
-x+y,-x,z
y,-x+y,z
x-y,-y,-z
-x,-x+y,-z
y,x,-z
-y,-x,-z
-x+y,y,-z
x,x-y,-z
-x,-y,-z
-x+y,-x,-z
y,-x+y,-z
x,y,-z
x-y,x,-z
-y,x-y,-z
-x+y,y,z
x,x-y,z
-y,-x,z
y,x,z
x-y,-y,z
-x,-x+y,z
loop_
_atom_site_type_symbol
_atom_site_label
_atom_site_fract_x
_atom_site_fract_y
_atom_site_fract_z
Si Si1 0.580770 0.719086 0.804196
Si Si2 0.290258 0.372357 0.551740
Si Si3 0.189069 0.523058 0.115104
Si Si4 0.140512 0.717636 0.301373
Si Si5 0.218837 0.297426 0.127404
Si Si6 0.288706 0.209921 0.362474
Si Si7 0.528303 0.918043 0.622242
Si Si8 0.320398 0.919666 0.054802
O O1 0.584285 0.792143 0.799182
O O2 0.512710 0.666393 0.834846
O O3 0.575606 0.689389 0.751579
O O4 0.652526 0.734406 0.829637
O O5 0.264428 0.382553 0.500000
O O6 0.337072 0.337072 0.544431
O O7 0.225386 0.324198 0.585754
O O8 0.337949 0.447223 0.577152
O O9 0.261746 0.523491 0.106987
O O10 0.204201 0.602101 0.114332
O O11 0.134063 0.478315 0.074042
O O12 0.222259 0.777742 0.303479
O O13 0.091380 0.745561 0.322874
O O14 0.127936 0.650731 0.331895
O O15 0.136177 0.272353 0.131989
O O16 0.229610 0.229610 0.127025
O O17 0.248694 0.342727 0.079685
O O18 0.255010 0.127505 0.352569
O O19 0.225730 0.225730 0.359697
O O20 0.452250 0.904500 0.609676
O O21 0.583252 0.000000 0.632693
O O22 0.382206 0.000000 0.063838
O O23 0.303152 0.904385 0.000000
#
# Coordination Sequence:
#
# PCOD8329002 Si02
#       8
#    24  24  24  24  24  24  24  24
#     4   8  16  30  46  63  83 111 148 188 222 250
#     4   8  14  25  40  58  81 108 138 172 208 247
#     4  10  20  33  48  67  93 124 155 185 220 267
#     4   9  16  28  46  64  83 110 145 184 221 254
#     4   9  17  29  46  68  91 114 143 180 222 267
#     4   9  17  28  43  64  89 116 145 179 220 265
#     4   9  17  27  39  59  87 114 137 165 208 262
#     4   9  18  33  52  70  88 114 149 191 233 265
#
# _framework density 16.171275999999999
#
# number of rings (size 3 to 8) (size 9 to 14) (size 15 to 20)
#    0.000    3.125    0.000    2.375    0.000    3.500 
#    0.000    1.875    0.000    1.250    0.000    0.000 
#    0.000    0.000    0.000   12.875    0.000    0.500 
#
# Total GULP energy -2379518.602721 kJ/mol
# GULP energy per Si atom -12393.326056 kJ/mol
# Density = 1.613447 g / cm^3
# Si number density = 16.171276 Si / 1000 Ang^3
#
#
#
# Elastic Constant Matrix: (Units=GPa)
#
#
# Indices 1 2 3 4 5 6 
#
# 1 63.5538 32.4133 12.5943 0.0000 0.0000 0.0000
# 2 32.4133 63.5538 12.5943 0.0000 0.0000 0.0000
# 3 12.5943 12.5943 91.3149 0.0000 0.0000 0.0000
# 4 0.0000 0.0000 0.0000 17.3199 0.0000 0.0000
# 5 0.0000 0.0000 0.0000 0.0000 17.3199 0.0000
# 6 0.0000 0.0000 0.0000 0.0000 0.0000 15.5703
#
#
#
# Elastic Compliance Matrix: (Units=1/GPa)
#
#
# Indices 1 2 3 4 5 6 
#
# 1 0.021462 -0.010650 -0.001491 0.000000 0.000000 0.000000
# 2 -0.010650 0.021462 -0.001491 0.000000 0.000000 0.000000
# 3 -0.001491 -0.001491 0.011362 0.000000 0.000000 0.000000
# 4 0.000000 0.000000 0.000000 0.057737 0.000000 0.000000
# 5 0.000000 0.000000 0.000000 0.000000 0.057737 0.000000
# 6 0.000000 0.000000 0.000000 0.000000 0.000000 0.064225
#
#
# Mechanical properties :
#
#
# Convention : Reuss Voigt Hill
#
# Bulk Modulus (GPa) = 37.00817 37.06959 37.03888
# Shear Modulus (GPa) = 18.50082 20.76337 19.63209
#
# Velocity S-wave (km/s) = 3.38606 3.58713 3.48804
# Velocity P-wave (km/s) = 6.18239 6.33479 6.25906
#
# Compressibility (1/GPa) = 0.02702106
#
# Stress axis : x y z
#
# Youngs Moduli (GPa) = 46.59389 46.59389 88.00921
#
# Poissons Ratio (x) = 0.49624 0.13124
# Poissons Ratio (y) = 0.49624 0.13124
# Poissons Ratio (z) = 0.06948 0.06948
#
# Static dielectric constant tensor:
#      x y z
#    x 2.894070 0.000000 0.000000 
#    y 0.000000 2.894070 0.000000 
#    z 0.000000 0.000000 3.478350 
# 
# 
# High freq. dielectric constant tensor:
#      x y z
#    x 1.599530 0.000000 0.000000 
#    y 0.000000 1.599530 0.000000 
#    z 0.000000 0.000000 1.631120 
# 
# From -- ./inp_files/10115.got.cif
#   From: 2010.03.12/outbox.cif.g09.slc.cpg/sg191_6_cif.got.tgz:10115.got - 2010.04.01 12:09:02.
