data_PCOD8329908
_publ_section_title
;
Structure prediction by ZEFSAII (Michael W. Deem and Ramdas Pophale) SiO2 
 PCOD8329908
Probable space group: P 63/M C M
;
_chemical_formula_sum "Si O2"
_cell_formula_units_Z 132
_cell_length_a 23.471181
_cell_length_b 23.471181
_cell_length_c 15.229582
_cell_angle_alpha 90.000000
_cell_angle_beta 90.000000
_cell_angle_gamma 120.000000
_cell_volume 7265.884675
_symmetry_space_group_name_H-M "P 63/M C M"
_symmetry_group_IT_number 193
_symmetry_cell_setting 'hexagonal'
loop_
_space_group_symop_operation_xyz
x,y,z
x-y,x,1/2+z
-y,x-y,z
-x,-y,1/2+z
-x+y,-x,z
y,-x+y,1/2+z
x-y,-y,1/2-z
-x,-x+y,1/2-z
y,x,1/2-z
-y,-x,-z
-x+y,y,-z
x,x-y,-z
-x,-y,-z
-x+y,-x,1/2-z
y,-x+y,-z
x,y,1/2-z
x-y,x,-z
-y,x-y,1/2-z
-x+y,y,1/2+z
x,x-y,1/2+z
-y,-x,1/2+z
y,x,z
x-y,-y,z
-x,-x+y,z
loop_
_atom_site_type_symbol
_atom_site_label
_atom_site_fract_x
_atom_site_fract_y
_atom_site_fract_z
Si Si1 0.770806 0.847867 0.419964
Si Si2 0.127380 0.374839 0.481285
Si Si3 0.521396 0.076958 0.906563
Si Si4 0.599146 0.922725 0.153387
Si Si5 0.075725 0.641276 0.846261
Si Si6 0.921704 0.079648 0.250000
O O1 0.797460 0.898730 0.500000
O O2 0.803468 0.803468 0.422414
O O3 0.692793 0.798016 0.428619
O O4 0.792453 0.892001 0.332360
O O5 0.204971 0.409942 0.500000
O O6 0.092744 0.363310 0.576516
O O7 0.117558 0.424794 0.420938
O O8 0.478697 0.108477 0.869564
O O9 0.581204 0.090502 0.842080
O O10 0.471451 0.000000 0.919297
O O11 0.554285 0.108570 0.000000
O O12 0.604685 0.895350 0.250000
O O13 0.631977 0.000000 0.160798
O O14 0.091956 0.674581 0.750000
O O15 0.000000 0.614418 0.871186
O O16 0.000000 0.105214 0.250000
O O17 0.881855 0.000000 0.250000
#
# Coordination Sequence:
#
# PCOD8329908 Si02
#       6
#    24  24  24  24  24  12
#     4  10  21  37  55  75 102 135 175 219 270 336
#     4  11  23  36  49  69 107 149 185 217 257 317
#     4   9  15  27  50  79 109 136 165 210 262 311
#     4  10  19  33  54  78 107 140 177 220 268 315
#     4  10  19  31  52  78 105 137 175 218 265 313
#     4  10  21  38  62  86 104 126 166 232 302 356
#
# _framework density 18.167092
#
# number of rings (size 3 to 8) (size 9 to 14) (size 15 to 20)
#    0.000    2.000    1.818    2.818    1.273    2.909 
#    4.909    0.000    0.000    2.909    0.000    0.000 
#    7.273    0.000    2.182    0.000    0.000    0.000 
#
# Total GULP energy -1635812.926729 kJ/mol
# GULP energy per Si atom -12392.522172 kJ/mol
# Density = 1.812574 g / cm^3
# Si number density = 18.167092 Si / 1000 Ang^3
#
#
#
# Elastic Constant Matrix: (Units=GPa)
#
#
# Indices 1 2 3 4 5 6 
#
# 1 57.9230 28.3686 38.6484 0.0000 0.0000 0.0000
# 2 28.3686 57.9230 38.6484 0.0000 0.0000 0.0000
# 3 38.6484 38.6484 141.8926 0.0000 0.0000 0.0000
# 4 0.0000 0.0000 0.0000 19.4130 0.0000 0.0000
# 5 0.0000 0.0000 0.0000 0.0000 19.4130 0.0000
# 6 0.0000 0.0000 0.0000 0.0000 0.0000 14.7772
#
#
#
# Elastic Compliance Matrix: (Units=1/GPa)
#
#
# Indices 1 2 3 4 5 6 
#
# 1 0.024582 -0.009254 -0.004175 0.000000 0.000000 0.000000
# 2 -0.009254 0.024582 -0.004175 0.000000 0.000000 0.000000
# 3 -0.004175 -0.004175 0.009322 0.000000 0.000000 0.000000
# 4 0.000000 0.000000 0.000000 0.051512 0.000000 0.000000
# 5 0.000000 0.000000 0.000000 0.000000 0.051512 0.000000
# 6 0.000000 0.000000 0.000000 0.000000 0.000000 0.067672
#
#
# Mechanical properties :
#
#
# Convention : Reuss Voigt Hill
#
# Bulk Modulus (GPa) = 42.95810 52.11885 47.53848
# Shear Modulus (GPa) = 18.37224 20.85884 19.61554
#
# Velocity S-wave (km/s) = 3.18353 3.39214 3.28949
# Velocity P-wave (km/s) = 6.10005 6.64026 6.37588
#
# Compressibility (1/GPa) = 0.02327850
#
# Stress axis : x y z
#
# Youngs Moduli (GPa) = 40.67976 40.67976 107.27280
#
# Poissons Ratio (x) = 0.37644 0.44788
# Poissons Ratio (y) = 0.37644 0.44788
# Poissons Ratio (z) = 0.16984 0.16984
#
# Static dielectric constant tensor:
#      x y z
#    x 3.212620 0.000000 0.000000 
#    y 0.000000 3.212620 0.000000 
#    z 0.000000 0.000000 3.849220 
# 
# 
# High freq. dielectric constant tensor:
#      x y z
#    x 1.675300 0.000000 0.000000 
#    y 0.000000 1.675300 0.000000 
#    z 0.000000 0.000000 1.727320 
# 
# From -- ./inp_files/4180.got.cif
#   From: 2010.03.12/outbox.cif.g09.slc.cpg/sg193_3_cif.got.tgz:4180.got - 2010.04.01 12:20:39.
