data_PCOD8329130
_publ_section_title
;
Structure prediction by ZEFSAII (Michael W. Deem and Ramdas Pophale) SiO2 
 PCOD8329130
Probable space group: P 6/M M M
;
_chemical_formula_sum "Si O2"
_cell_formula_units_Z 66
_cell_length_a 17.343928
_cell_length_b 17.343928
_cell_length_c 14.713570
_cell_angle_alpha 90.000000
_cell_angle_beta 90.000000
_cell_angle_gamma 120.000000
_cell_volume 3833.042330
_symmetry_space_group_name_H-M "P 6/M M M"
_symmetry_group_IT_number 191
_symmetry_cell_setting 'hexagonal'
loop_
_space_group_symop_operation_xyz
x,y,z
x-y,x,z
-y,x-y,z
-x,-y,z
-x+y,-x,z
y,-x+y,z
x-y,-y,-z
-x,-x+y,-z
y,x,-z
-y,-x,-z
-x+y,y,-z
x,x-y,-z
-x,-y,-z
-x+y,-x,-z
y,-x+y,-z
x,y,-z
x-y,x,-z
-y,x-y,-z
-x+y,y,z
x,x-y,z
-y,-x,z
y,x,z
x-y,-y,z
-x,-x+y,z
loop_
_atom_site_type_symbol
_atom_site_label
_atom_site_fract_x
_atom_site_fract_y
_atom_site_fract_z
Si Si1 0.532894 0.896021 0.774267
Si Si2 0.389448 0.194724 0.100046
Si Si3 0.892730 0.107270 0.000000
Si Si4 0.900182 0.629213 0.397973
O O1 0.426216 0.852432 0.788050
O O2 0.576652 0.863068 0.848164
O O3 0.548696 0.872724 0.672185
O O4 0.578100 0.000000 0.787878
O O5 0.280771 0.140386 0.088717
O O6 0.433735 0.216868 0.000000
O O7 0.000000 0.152395 0.000000
O O8 0.892399 0.591014 0.500000
O O9 0.834685 0.669371 0.385315
O O10 0.000000 0.709375 0.378324
#
# Coordination Sequence:
#
# PCOD8329130 Si02
#       4
#    24  12   6  24
#     4  10  20  35  55  78 104 138 179 223 268 321
#     4  10  22  37  55  79 108 146 181 224 271 327
#     4  10  21  38  62  88 114 142 180 228 279 332
#     4   9  17  31  53  80 108 139 177 220 270 329
#
# _framework density 17.218699000000001
#
# number of rings (size 3 to 8) (size 9 to 14) (size 15 to 20)
#    0.545    1.818    1.818    1.182    0.000    1.455 
#    1.091    5.455    0.000    0.364    0.000    2.545 
#    0.000    0.000    0.000    0.000    0.000    0.000 
#
# Total GULP energy -817758.107959 kJ/mol
# GULP energy per Si atom -12390.274363 kJ/mol
# Density = 1.717951 g / cm^3
# Si number density = 17.218699 Si / 1000 Ang^3
#
#
#
# Elastic Constant Matrix: (Units=GPa)
#
#
# Indices 1 2 3 4 5 6 
#
# 1 104.5980 61.1503 55.7192 0.0000 0.0000 0.0000
# 2 61.1503 104.5980 55.7192 0.0000 0.0000 0.0000
# 3 55.7192 55.7192 123.3127 0.0000 0.0000 0.0000
# 4 0.0000 0.0000 0.0000 24.2792 0.0000 0.0000
# 5 0.0000 0.0000 0.0000 0.0000 24.2792 0.0000
# 6 0.0000 0.0000 0.0000 0.0000 0.0000 21.7239
#
#
#
# Elastic Compliance Matrix: (Units=1/GPa)
#
#
# Indices 1 2 3 4 5 6 
#
# 1 0.015841 -0.007175 -0.003916 0.000000 0.000000 0.000000
# 2 -0.007175 0.015841 -0.003916 0.000000 0.000000 0.000000
# 3 -0.003916 -0.003916 0.011648 0.000000 0.000000 0.000000
# 4 0.000000 0.000000 0.000000 0.041187 0.000000 0.000000
# 5 0.000000 0.000000 0.000000 0.000000 0.041187 0.000000
# 6 0.000000 0.000000 0.000000 0.000000 0.000000 0.046032
#
#
# Mechanical properties :
#
#
# Convention : Reuss Voigt Hill
#
# Bulk Modulus (GPa) = 75.09151 75.29843 75.19497
# Shear Modulus (GPa) = 24.24951 24.71779 24.48365
#
# Velocity S-wave (km/s) = 3.75684 3.79294 3.77493
# Velocity P-wave (km/s) = 7.90718 7.93772 7.92247
#
# Compressibility (1/GPa) = 0.01331709
#
# Stress axis : x y z
#
# Youngs Moduli (GPa) = 63.12714 63.12714 85.85070
#
# Poissons Ratio (x) = 0.45295 0.33617
# Poissons Ratio (y) = 0.45295 0.33617
# Poissons Ratio (z) = 0.24719 0.24719
#
# Static dielectric constant tensor:
#      x y z
#    x 3.352690 0.000000 0.000000 
#    y 0.000000 3.352690 0.000000 
#    z 0.000000 0.000000 3.348350 
# 
# 
# High freq. dielectric constant tensor:
#      x y z
#    x 1.654530 0.000000 0.000000 
#    y 0.000000 1.654530 0.000000 
#    z 0.000000 0.000000 1.673510 
# 
# From -- ./inp_files/3843.got.cif
#   From: 2010.03.12/outbox.cif.g09.slc.cpg/sg191_2_cif.got.tgz:3843.got - 2010.04.01 12:09:02.
