data_PCOD8329909
_publ_section_title
;
Structure prediction by ZEFSAII (Michael W. Deem and Ramdas Pophale) SiO2 
 PCOD8329909
Probable space group: P 63/M C M
;
_chemical_formula_sum "Si O2"
_cell_formula_units_Z 168
_cell_length_a 20.849424
_cell_length_b 20.849424
_cell_length_c 25.396534
_cell_angle_alpha 90.000000
_cell_angle_beta 90.000000
_cell_angle_gamma 120.000000
_cell_volume 9560.777352
_symmetry_space_group_name_H-M "P 63/M C M"
_symmetry_group_IT_number 193
_symmetry_cell_setting 'hexagonal'
loop_
_space_group_symop_operation_xyz
x,y,z
x-y,x,1/2+z
-y,x-y,z
-x,-y,1/2+z
-x+y,-x,z
y,-x+y,1/2+z
x-y,-y,1/2-z
-x,-x+y,1/2-z
y,x,1/2-z
-y,-x,-z
-x+y,y,-z
x,x-y,-z
-x,-y,-z
-x+y,-x,1/2-z
y,-x+y,-z
x,y,1/2-z
x-y,x,-z
-y,x-y,1/2-z
-x+y,y,1/2+z
x,x-y,1/2+z
-y,-x,1/2+z
y,x,z
x-y,-y,z
-x,-x+y,z
loop_
_atom_site_type_symbol
_atom_site_label
_atom_site_fract_x
_atom_site_fract_y
_atom_site_fract_z
Si Si1 0.083170 0.302327 0.876221
Si Si2 0.716201 0.633844 0.511056
Si Si3 0.471686 0.667036 0.018947
Si Si4 0.161018 0.447240 0.812457
Si Si5 0.691776 0.915516 0.902858
Si Si6 0.166521 0.472718 0.134511
Si Si7 0.538162 0.454927 0.187837
O O1 0.089176 0.338898 0.932289
O O2 0.106237 0.363377 0.830894
O O3 0.141081 0.272337 0.878601
O O4 0.000000 0.235446 0.865120
O O5 0.646520 0.646520 0.501744
O O6 0.689791 0.548216 0.509676
O O7 0.777029 0.678965 0.465739
O O8 0.479267 0.669804 0.081601
O O9 0.415199 0.584802 0.000000
O O10 0.442620 0.721310 0.000000
O O11 0.168133 0.447100 0.750000
O O12 0.242267 0.481892 0.837536
O O13 0.126680 0.497102 0.832303
O O14 0.613004 0.891136 0.876343
O O15 0.748474 0.000000 0.888484
O O16 0.126707 0.503281 0.171900
O O17 0.533882 0.455677 0.250000
O O18 0.496642 0.496642 0.163719
#
# Coordination Sequence:
#
# PCOD8329909 Si02
#       7
#    24  24  24  24  24  24  24
#     4  10  19  31  53  79 103 135 170 211 261 313
#     4   9  18  33  52  75 102 133 173 215 258 305
#     4  11  23  36  50  71 104 138 175 215 267 323
#     4  10  21  37  54  75 101 134 174 220 269 317
#     4   9  17  32  52  76 105 136 168 210 254 306
#     4  10  21  35  57  74 101 135 180 221 265 318
#     4  10  21  37  56  78 103 133 173 223 276 323
#
# _framework density 17.571791999999999
#
# number of rings (size 3 to 8) (size 9 to 14) (size 15 to 20)
#    0.000    2.143    0.000    4.429    4.000    1.714 
#    0.857    0.000    0.000    4.143    0.000    0.000 
#    0.000    3.429    0.000    0.429    0.000    0.000 
#
# Total GULP energy -2083316.284673 kJ/mol
# GULP energy per Si atom -12400.692171 kJ/mol
# Density = 1.753180 g / cm^3
# Si number density = 17.571792 Si / 1000 Ang^3
#
#
#
# Elastic Constant Matrix: (Units=GPa)
#
#
# Indices 1 2 3 4 5 6 
#
# 1 105.6828 69.9054 28.1344 0.0000 0.0000 0.0000
# 2 69.9054 105.6828 28.1344 0.0000 0.0000 0.0000
# 3 28.1344 28.1344 44.1028 0.0000 0.0000 0.0000
# 4 0.0000 0.0000 0.0000 21.4547 0.0000 0.0000
# 5 0.0000 0.0000 0.0000 0.0000 21.4547 0.0000
# 6 0.0000 0.0000 0.0000 0.0000 0.0000 17.8887
#
#
#
# Elastic Compliance Matrix: (Units=1/GPa)
#
#
# Indices 1 2 3 4 5 6 
#
# 1 0.017555 -0.010396 -0.004567 0.000000 0.000000 0.000000
# 2 -0.010396 0.017555 -0.004567 0.000000 0.000000 0.000000
# 3 -0.004567 -0.004567 0.028501 0.000000 0.000000 0.000000
# 4 0.000000 0.000000 0.000000 0.046610 0.000000 0.000000
# 5 0.000000 0.000000 0.000000 0.000000 0.046610 0.000000
# 6 0.000000 0.000000 0.000000 0.000000 0.000000 0.055901
#
#
# Mechanical properties :
#
#
# Convention : Reuss Voigt Hill
#
# Bulk Modulus (GPa) = 40.73120 56.42412 48.57766
# Shear Modulus (GPa) = 19.23275 20.77922 20.00598
#
# Velocity S-wave (km/s) = 3.31195 3.44253 3.37787
# Velocity P-wave (km/s) = 6.15269 6.92688 6.55123
#
# Compressibility (1/GPa) = 0.02455120
#
# Stress axis : x y z
#
# Youngs Moduli (GPa) = 56.96517 56.96517 35.08687
#
# Poissons Ratio (x) = 0.59221 0.16023
# Poissons Ratio (y) = 0.59221 0.16023
# Poissons Ratio (z) = 0.26014 0.26014
#
# Static dielectric constant tensor:
#      x y z
#    x 3.358350 0.000000 0.000000 
#    y 0.000000 3.358350 0.000000 
#    z 0.000000 0.000000 3.243110 
# 
# 
# High freq. dielectric constant tensor:
#      x y z
#    x 1.673480 0.000000 0.000000 
#    y 0.000000 1.673480 0.000000 
#    z 0.000000 0.000000 1.681320 
# 
# From -- ./inp_files/7714.got.cif
#   From: 2010.03.12/outbox.cif.g09.slc.cpg/sg193_4_cif.got.tgz:7714.got - 2010.04.01 12:20:39.
