data_PCOD8329326
_publ_section_title
;
Structure prediction by ZEFSAII (Michael W. Deem and Ramdas Pophale) SiO2 
 PCOD8329326
Probable space group: P 6/M M M
;
_chemical_formula_sum "Si O2"
_cell_formula_units_Z 144
_cell_length_a 22.770411
_cell_length_b 22.770411
_cell_length_c 20.921827
_cell_angle_alpha 90.000000
_cell_angle_beta 90.000000
_cell_angle_gamma 120.000000
_cell_volume 9394.463373
_symmetry_space_group_name_H-M "P 6/M M M"
_symmetry_group_IT_number 191
_symmetry_cell_setting 'hexagonal'
loop_
_space_group_symop_operation_xyz
x,y,z
x-y,x,z
-y,x-y,z
-x,-y,z
-x+y,-x,z
y,-x+y,z
x-y,-y,-z
-x,-x+y,-z
y,x,-z
-y,-x,-z
-x+y,y,-z
x,x-y,-z
-x,-y,-z
-x+y,-x,-z
y,-x+y,-z
x,y,-z
x-y,x,-z
-y,x-y,-z
-x+y,y,z
x,x-y,z
-y,-x,z
y,x,z
x-y,-y,z
-x,-x+y,z
loop_
_atom_site_type_symbol
_atom_site_label
_atom_site_fract_x
_atom_site_fract_y
_atom_site_fract_z
Si Si1 0.792521 0.716456 0.573870
Si Si2 0.080965 0.473117 0.750000
Si Si3 0.409627 0.079901 0.123824
Si Si4 0.606814 0.080949 0.500000
Si Si5 0.076064 0.792521 0.926130
Si Si6 0.920099 0.590373 0.376176
Si Si7 0.474136 0.393186 0.000000
O O1 0.773668 0.694011 0.500000
O O2 0.871724 0.743448 0.587537
O O3 0.776834 0.776834 0.589995
O O4 0.747768 0.651336 0.618540
O O5 0.106859 0.553430 0.750000
O O6 0.110237 0.453216 0.811681
O O7 0.110237 0.453216 0.688319
O O8 0.000000 0.431514 0.750000
O O9 0.348664 0.096432 0.118539
O O10 0.379448 0.000000 0.123419
O O11 0.458649 0.111626 0.062900
O O12 0.553229 0.106457 0.500000
O O13 0.652977 0.111626 0.437100
O O14 0.570732 0.000000 0.500000
O O15 0.128276 0.871725 0.912463
O O16 0.000000 0.776833 0.910004
O O17 0.079657 0.773669 0.000000
O O18 0.000000 0.620551 0.376581
O O19 0.429271 0.429271 0.000000
O O20 0.553230 0.446771 0.000000
#
# Coordination Sequence:
#
# PCOD8329326 Si02
#       7
#    24  24  24  12  24  24  12
#     4   9  16  27  43  61  81 109 147 189 232 280
#     4   9  16  24  35  54  83 116 140 157 184 226
#     4   9  15  24  36  54  79 108 141 170 201 248
#     4   9  14  20  33  52  75 104 136 163 186 224
#     4   9  16  27  43  61  81 109 147 189 232 280
#     4   9  15  24  36  54  79 108 141 170 201 248
#     4   9  14  20  33  52  75 104 136 163 186 224
#
# _framework density 15.328177999999999
#
# number of rings (size 3 to 8) (size 9 to 14) (size 15 to 20)
#    0.000    3.000    1.667    1.000    0.000    4.000 
#    0.000    0.833    0.000    0.333    0.000    2.333 
#    0.000    0.000    0.000   20.000    0.000   33.000 
#
# Total GULP energy -1784661.623477 kJ/mol
# GULP energy per Si atom -12393.483496 kJ/mol
# Density = 1.529329 g / cm^3
# Si number density = 15.328178 Si / 1000 Ang^3
#
#
#
# Elastic Constant Matrix: (Units=GPa)
#
#
# Indices 1 2 3 4 5 6 
#
# 1 72.2637 44.9771 38.6342 0.0000 0.0000 0.0000
# 2 44.9771 72.2637 38.6342 0.0000 0.0000 0.0000
# 3 38.6342 38.6342 108.4279 0.0000 0.0000 0.0000
# 4 0.0000 0.0000 0.0000 13.3418 0.0000 0.0000
# 5 0.0000 0.0000 0.0000 0.0000 13.3418 0.0000
# 6 0.0000 0.0000 0.0000 0.0000 0.0000 13.6433
#
#
#
# Elastic Compliance Matrix: (Units=1/GPa)
#
#
# Indices 1 2 3 4 5 6 
#
# 1 0.023898 -0.012750 -0.003972 0.000000 0.000000 0.000000
# 2 -0.012750 0.023898 -0.003972 0.000000 0.000000 0.000000
# 3 -0.003972 -0.003972 0.012053 0.000000 0.000000 0.000000
# 4 0.000000 0.000000 0.000000 0.074952 0.000000 0.000000
# 5 0.000000 0.000000 0.000000 0.000000 0.074952 0.000000
# 6 0.000000 0.000000 0.000000 0.000000 0.000000 0.073296
#
#
# Mechanical properties :
#
#
# Convention : Reuss Voigt Hill
#
# Bulk Modulus (GPa) = 54.17118 55.27179 54.72148
# Shear Modulus (GPa) = 15.12443 16.77937 15.95190
#
# Velocity S-wave (km/s) = 3.14460 3.31218 3.22947
# Velocity P-wave (km/s) = 6.97154 7.12493 7.04865
#
# Compressibility (1/GPa) = 0.01846000
#
# Stress axis : x y z
#
# Youngs Moduli (GPa) = 41.84525 41.84525 82.96582
#
# Poissons Ratio (x) = 0.53355 0.32953
# Poissons Ratio (y) = 0.53355 0.32953
# Poissons Ratio (z) = 0.16620 0.16620
#
# Static dielectric constant tensor:
#      x y z
#    x 2.632750 0.000000 0.000000 
#    y 0.000000 2.632750 0.000000 
#    z 0.000000 0.000000 3.176030 
# 
# 
# High freq. dielectric constant tensor:
#      x y z
#    x 1.547030 0.000000 0.000000 
#    y 0.000000 1.547030 0.000000 
#    z 0.000000 0.000000 1.588520 
# 
# From -- ./inp_files/7842.got.cif
#   From: 2010.03.12/outbox.cif.g09.slc.cpg/sg191_4_cif.got.tgz:7842.got - 2010.04.01 12:09:02.
