data_PCOD8329484
_publ_section_title
;
Structure prediction by ZEFSAII (Michael W. Deem and Ramdas Pophale) SiO2 
 PCOD8329484
Probable space group: P 6/M C C
;
_chemical_formula_sum "Si O2"
_cell_formula_units_Z 144
_cell_length_a 25.524829
_cell_length_b 25.524829
_cell_length_c 14.695220
_cell_angle_alpha 90.000000
_cell_angle_beta 90.000000
_cell_angle_gamma 120.000000
_cell_volume 8291.486662
_symmetry_space_group_name_H-M "P 6/M C C"
_symmetry_group_IT_number 192
_symmetry_cell_setting 'hexagonal'
loop_
_space_group_symop_operation_xyz
x,y,z
x-y,x,z
-y,x-y,z
-x,-y,z
-x+y,-x,z
y,-x+y,z
x-y,-y,1/2-z
-x,-x+y,1/2-z
y,x,1/2-z
-y,-x,1/2-z
-x+y,y,1/2-z
x,x-y,1/2-z
-x,-y,-z
-x+y,-x,-z
y,-x+y,-z
x,y,-z
x-y,x,-z
-y,x-y,-z
-x+y,y,1/2+z
x,x-y,1/2+z
-y,-x,1/2+z
y,x,1/2+z
x-y,-y,1/2+z
-x,-x+y,1/2+z
loop_
_atom_site_type_symbol
_atom_site_label
_atom_site_fract_x
_atom_site_fract_y
_atom_site_fract_z
Si Si1 1.000000 0.237298 0.897001
Si Si2 0.120114 1.000000 0.356939
Si Si3 0.453940 0.666242 0.895517
Si Si4 0.666242 0.212302 0.395517
Si Si5 0.904618 0.684235 0.250000
Si Si6 0.548428 0.836002 0.750000
O O1 1.000000 0.174919 0.908270
O O2 0.940744 0.225765 0.842119
O O3 0.059255 0.285021 0.842119
O O4 1.000000 0.260865 0.000000
O O5 0.058152 0.941848 0.386974
O O6 0.131802 0.000000 0.250000
O O7 0.439816 0.719908 0.875683
O O8 0.395390 0.604610 0.864773
O O9 0.511747 0.675253 0.838931
O O10 0.469920 0.664472 0.000000
O O11 0.664472 0.194552 0.500000
O O12 0.675253 0.163507 0.338931
O O13 0.844174 0.688348 0.250000
O O14 0.893005 0.615843 0.250000
O O15 0.554960 0.777480 0.750000
#
# Coordination Sequence:
#
# PCOD8329484 Si02
#       6
#    24  24  24  24  24  24
#     4  11  23  37  56  78  99 130 170 209 250 297
#     4  10  19  33  53  78 108 136 160 187 223 275
#     4   9  16  26  42  68 103 139 170 199 237 292
#     4   9  16  26  42  68 103 139 170 199 237 292
#     4  10  21  38  55  74 102 131 164 210 256 295
#     4   9  18  30  46  68  96 132 170 206 245 290
#
# _framework density 17.367211000000001
#
# number of rings (size 3 to 8) (size 9 to 14) (size 15 to 20)
#    0.000    2.333    1.667    2.000    0.000    6.000 
#    0.000    5.000    0.000    1.000    0.000    9.333 
#    0.000   16.000    0.000    0.000    0.000    0.000 
#
# Total GULP energy -1785465.947224 kJ/mol
# GULP energy per Si atom -12399.069078 kJ/mol
# Density = 1.732768 g / cm^3
# Si number density = 17.367211 Si / 1000 Ang^3
#
#
#
# Elastic Constant Matrix: (Units=GPa)
#
#
# Indices 1 2 3 4 5 6 
#
# 1 100.2071 62.7794 52.6054 0.0000 0.0000 0.0000
# 2 62.7794 100.2071 52.6054 0.0000 0.0000 0.0000
# 3 52.6054 52.6054 122.1669 0.0000 0.0000 0.0000
# 4 0.0000 0.0000 0.0000 9.0600 0.0000 0.0000
# 5 0.0000 0.0000 0.0000 0.0000 9.0600 0.0000
# 6 0.0000 0.0000 0.0000 0.0000 0.0000 18.7139
#
#
#
# Elastic Compliance Matrix: (Units=1/GPa)
#
#
# Indices 1 2 3 4 5 6 
#
# 1 0.017608 -0.009110 -0.003659 0.000000 0.000000 0.000000
# 2 -0.009110 0.017608 -0.003659 0.000000 0.000000 0.000000
# 3 -0.003659 -0.003659 0.011337 0.000000 0.000000 0.000000
# 4 0.000000 0.000000 0.000000 0.110375 0.000000 0.000000
# 5 0.000000 0.000000 0.000000 0.000000 0.110375 0.000000
# 6 0.000000 0.000000 0.000000 0.000000 0.000000 0.053436
#
#
# Mechanical properties :
#
#
# Convention : Reuss Voigt Hill
#
# Bulk Modulus (GPa) = 73.01670 73.17347 73.09509
# Shear Modulus (GPa) = 13.96023 17.67285 15.81654
#
# Velocity S-wave (km/s) = 2.83826 3.19344 3.02108
# Velocity P-wave (km/s) = 7.27152 7.47141 7.37215
#
# Compressibility (1/GPa) = 0.01369550
#
# Stress axis : x y z
#
# Youngs Moduli (GPa) = 56.79299 56.79299 88.20913
#
# Poissons Ratio (x) = 0.51740 0.32276
# Poissons Ratio (y) = 0.51740 0.32276
# Poissons Ratio (z) = 0.20781 0.20781
#
# Static dielectric constant tensor:
#      x y z
#    x 3.230080 0.000000 0.000000 
#    y 0.000000 3.230080 0.000000 
#    z 0.000000 0.000000 3.296130 
# 
# 
# High freq. dielectric constant tensor:
#      x y z
#    x 1.653060 0.000000 0.000000 
#    y 0.000000 1.653060 0.000000 
#    z 0.000000 0.000000 1.681240 
# 
# From -- ./inp_files/4346.got.cif
#   From: 2010.03.12/outbox.cif.g09.slc.cpg/sg192_3_cif.got.tgz:4346.got - 2010.04.01 12:16:15.
