data_PCOD8329407
_publ_section_title
;
Structure prediction by ZEFSAII (Michael W. Deem and Ramdas Pophale) SiO2 
 PCOD8329407
Probable space group: P 6/M C C
;
_chemical_formula_sum "Si O2"
_cell_formula_units_Z 132
_cell_length_a 23.286732
_cell_length_b 23.286732
_cell_length_c 14.404328
_cell_angle_alpha 90.000000
_cell_angle_beta 90.000000
_cell_angle_gamma 120.000000
_cell_volume 6764.578234
_symmetry_space_group_name_H-M "P 6/M C C"
_symmetry_group_IT_number 192
_symmetry_cell_setting 'hexagonal'
loop_
_space_group_symop_operation_xyz
x,y,z
x-y,x,z
-y,x-y,z
-x,-y,z
-x+y,-x,z
y,-x+y,z
x-y,-y,1/2-z
-x,-x+y,1/2-z
y,x,1/2-z
-y,-x,1/2-z
-x+y,y,1/2-z
x,x-y,1/2-z
-x,-y,-z
-x+y,-x,-z
y,-x+y,-z
x,y,-z
x-y,x,-z
-y,x-y,-z
-x+y,y,1/2+z
x,x-y,1/2+z
-y,-x,1/2+z
y,x,1/2+z
x-y,-y,1/2+z
-x,-x+y,1/2+z
loop_
_atom_site_type_symbol
_atom_site_label
_atom_site_fract_x
_atom_site_fract_y
_atom_site_fract_z
Si Si1 0.981349 0.297511 0.000000
Si Si2 0.782054 0.062999 0.314473
Si Si3 0.051992 0.151812 0.390251
Si Si4 0.745407 0.618382 0.500000
Si Si5 0.066716 0.477264 0.199244
Si Si6 0.044938 0.445032 0.000000
Si Si7 0.153982 0.407839 0.800556
O O1 0.945154 0.257241 0.909245
O O2 0.057381 0.311515 0.000000
O O3 0.983319 0.368635 0.000000
O O4 0.856353 0.078347 0.338480
O O5 0.780131 0.120285 0.257543
O O6 0.745616 0.000000 0.250000
O O7 0.099405 0.122935 0.360230
O O8 0.055002 0.164033 0.500000
O O9 0.670196 0.557396 0.500000
O O10 0.777250 0.611085 0.595176
O O11 0.097301 0.548651 0.250000
O O12 0.116295 0.448975 0.202635
O O13 0.000000 0.423945 0.250000
O O14 0.046840 0.484364 0.093269
O O15 0.225613 0.451225 0.750000
#
# Coordination Sequence:
#
# PCOD8329407 Si02
#       7
#    12  24  24  12  24  12  24
#     4  10  18  35  58  78 122 150 195 232 298 370
#     4  12  22  35  57  85 110 147 195 246 300 375
#     4  10  23  42  60  78 104 146 204 260 315 372
#     4   8  18  37  55  79 118 163 187 227 300 355
#     4  10  20  37  60  86 118 155 201 235 277 348
#     4   8  16  33  55  81 113 162 178 228 296 326
#     4  11  23  38  60  90 122 158 196 242 303 358
#
# _framework density 19.513411999999999
#
# number of rings (size 3 to 8) (size 9 to 14) (size 15 to 20)
#    0.545    1.273    2.727    1.818    2.545    2.909 
#    0.000    2.727    0.000    1.455    0.000    0.000 
#    0.000    0.000    0.000    0.000    0.000    0.000 
#
# Total GULP energy -1635283.883021 kJ/mol
# GULP energy per Si atom -12388.514265 kJ/mol
# Density = 1.946900 g / cm^3
# Si number density = 19.513412 Si / 1000 Ang^3
#
#
#
# Elastic Constant Matrix: (Units=GPa)
#
#
# Indices 1 2 3 4 5 6 
#
# 1 82.0498 45.8640 50.0310 0.0000 0.0000 0.0000
# 2 45.8640 82.0498 50.0310 0.0000 0.0000 0.0000
# 3 50.0310 50.0310 176.4986 0.0000 0.0000 0.0000
# 4 0.0000 0.0000 0.0000 22.1814 0.0000 0.0000
# 5 0.0000 0.0000 0.0000 0.0000 22.1814 0.0000
# 6 0.0000 0.0000 0.0000 0.0000 0.0000 18.0929
#
#
#
# Elastic Compliance Matrix: (Units=1/GPa)
#
#
# Indices 1 2 3 4 5 6 
#
# 1 0.018840 -0.008795 -0.002847 0.000000 0.000000 0.000000
# 2 -0.008795 0.018840 -0.002847 0.000000 0.000000 0.000000
# 3 -0.002847 -0.002847 0.007280 0.000000 0.000000 0.000000
# 4 0.000000 0.000000 0.000000 0.045083 0.000000 0.000000
# 5 0.000000 0.000000 0.000000 0.000000 0.045083 0.000000
# 6 0.000000 0.000000 0.000000 0.000000 0.000000 0.055270
#
#
# Mechanical properties :
#
#
# Convention : Reuss Voigt Hill
#
# Bulk Modulus (GPa) = 62.57553 70.27221 66.42387
# Shear Modulus (GPa) = 22.25162 25.46931 23.86047
#
# Velocity S-wave (km/s) = 3.38053 3.61670 3.50061
# Velocity P-wave (km/s) = 6.88294 7.31650 7.10303
#
# Compressibility (1/GPa) = 0.01598069
#
# Stress axis : x y z
#
# Youngs Moduli (GPa) = 53.07806 53.07806 137.36130
#
# Poissons Ratio (x) = 0.46682 0.39113
# Poissons Ratio (y) = 0.46682 0.39113
# Poissons Ratio (z) = 0.15114 0.15114
#
# Static dielectric constant tensor:
#      x y z
#    x 3.223050 0.000000 0.000000 
#    y 0.000000 3.223050 0.000000 
#    z 0.000000 0.000000 4.204370 
# 
# 
# High freq. dielectric constant tensor:
#      x y z
#    x 1.732350 0.000000 0.000000 
#    y 0.000000 1.732350 0.000000 
#    z 0.000000 0.000000 1.793910 
# 
# From -- ./inp_files/3294.got.cif
#   From: 2010.03.12/outbox.cif.g09.slc.cpg/sg192_2_cif.got.tgz:3294.got - 2010.04.01 12:16:15.
