data_PCOD8329682
_publ_section_title
;
Structure prediction by ZEFSAII (Michael W. Deem and Ramdas Pophale) SiO2 
 PCOD8329682
Probable space group: P 6/M C C
;
_chemical_formula_sum "Si O2"
_cell_formula_units_Z 96
_cell_length_a 14.132638
_cell_length_b 14.132638
_cell_length_c 28.634985
_cell_angle_alpha 90.000000
_cell_angle_beta 90.000000
_cell_angle_gamma 120.000000
_cell_volume 4953.065388
_symmetry_space_group_name_H-M "P 6/M C C"
_symmetry_group_IT_number 192
_symmetry_cell_setting 'hexagonal'
loop_
_space_group_symop_operation_xyz
x,y,z
x-y,x,z
-y,x-y,z
-x,-y,z
-x+y,-x,z
y,-x+y,z
x-y,-y,1/2-z
-x,-x+y,1/2-z
y,x,1/2-z
-y,-x,1/2-z
-x+y,y,1/2-z
x,x-y,1/2-z
-x,-y,-z
-x+y,-x,-z
y,-x+y,-z
x,y,-z
x-y,x,-z
-y,x-y,-z
-x+y,y,1/2+z
x,x-y,1/2+z
-y,-x,1/2+z
y,x,1/2+z
x-y,-y,1/2+z
-x,-x+y,1/2+z
loop_
_atom_site_type_symbol
_atom_site_label
_atom_site_fract_x
_atom_site_fract_y
_atom_site_fract_z
Si Si1 0.446756 0.073208 0.553351
Si Si2 0.877560 0.543960 0.233248
Si Si3 0.208922 0.000524 0.945193
Si Si4 0.455445 0.785492 0.361012
O O1 0.464968 0.116472 0.500000
O O2 0.319022 0.998155 0.565126
O O3 0.500075 0.177193 0.586900
O O4 0.500000 0.000000 0.563571
O O5 0.787745 0.575490 0.250000
O O6 0.845425 0.422713 0.250000
O O7 0.871379 0.539139 0.176736
O O8 0.000000 0.633826 0.250000
O O9 0.107703 0.892347 0.922454
O O10 0.189740 0.000132 0.000000
O O11 0.335863 0.775576 0.354794
#
# Coordination Sequence:
#
# PCOD8329682 Si02
#       4
#    24  24  24  24
#     4  10  23  37  54  82 123 166 211 255 310 375
#     4  11  21  39  66  93 126 155 195 259 317 378
#     4   9  18  34  56  79 107 148 202 261 311 359
#     4  10  22  37  60  85 123 158 202 252 299 378
#
# _framework density 19.381936
#
# number of rings (size 3 to 8) (size 9 to 14) (size 15 to 20)
#    0.500    1.500    2.500    0.500    7.000    2.000 
#    0.000    0.000    0.000    0.250    0.000    0.000 
#    0.000    0.000    0.000    0.000    0.000    0.000 
#
# Total GULP energy -1189820.588020 kJ/mol
# GULP energy per Si atom -12393.964459 kJ/mol
# Density = 1.933782 g / cm^3
# Si number density = 19.381936 Si / 1000 Ang^3
#
#
#
# Elastic Constant Matrix: (Units=GPa)
#
#
# Indices 1 2 3 4 5 6 
#
# 1 124.9428 64.7055 35.1099 0.0000 0.0000 0.0000
# 2 64.7055 124.9428 35.1099 0.0000 0.0000 0.0000
# 3 35.1099 35.1099 100.5586 0.0000 0.0000 0.0000
# 4 0.0000 0.0000 0.0000 19.4442 0.0000 0.0000
# 5 0.0000 0.0000 0.0000 0.0000 19.4442 0.0000
# 6 0.0000 0.0000 0.0000 0.0000 0.0000 30.1186
#
#
#
# Elastic Compliance Matrix: (Units=1/GPa)
#
#
# Indices 1 2 3 4 5 6 
#
# 1 0.011328 -0.005273 -0.002114 0.000000 0.000000 0.000000
# 2 -0.005273 0.011328 -0.002114 0.000000 0.000000 0.000000
# 3 -0.002114 -0.002114 0.011421 0.000000 0.000000 0.000000
# 4 0.000000 0.000000 0.000000 0.051429 0.000000 0.000000
# 5 0.000000 0.000000 0.000000 0.000000 0.051429 0.000000
# 6 0.000000 0.000000 0.000000 0.000000 0.000000 0.033202
#
#
# Mechanical properties :
#
#
# Convention : Reuss Voigt Hill
#
# Bulk Modulus (GPa) = 66.33496 68.92165 67.62830
# Shear Modulus (GPa) = 25.75114 28.16931 26.96023
#
# Velocity S-wave (km/s) = 3.64897 3.81646 3.73365
# Velocity P-wave (km/s) = 7.21476 7.42007 7.31813
#
# Compressibility (1/GPa) = 0.01507501
#
# Stress axis : x y z
#
# Youngs Moduli (GPa) = 88.27367 88.27367 87.55866
#
# Poissons Ratio (x) = 0.46543 0.18513
# Poissons Ratio (y) = 0.46543 0.18513
# Poissons Ratio (z) = 0.18664 0.18664
#
# Static dielectric constant tensor:
#      x y z
#    x 3.473780 0.000000 0.000000 
#    y 0.000000 3.473780 0.000000 
#    z 0.000000 0.000000 3.344350 
# 
# 
# High freq. dielectric constant tensor:
#      x y z
#    x 1.744120 0.000000 0.000000 
#    y 0.000000 1.744120 0.000000 
#    z 0.000000 0.000000 1.732900 
# 
# From -- ./inp_files/6354.got.cif
#   From: 2010.03.12/outbox.cif.g09.slc.cpg/sg192_4_cif.got.tgz:6354.got - 2010.04.01 12:16:15.
