data_PCOD8329769
_publ_section_title
;
Structure prediction by ZEFSAII (Michael W. Deem and Ramdas Pophale) SiO2 
 PCOD8329769
Probable space group: P 63/M C M
;
_chemical_formula_sum "Si O2"
_cell_formula_units_Z 168
_cell_length_a 28.466220
_cell_length_b 28.466220
_cell_length_c 15.847373
_cell_angle_alpha 90.000000
_cell_angle_beta 90.000000
_cell_angle_gamma 120.000000
_cell_volume 11121.094078
_symmetry_space_group_name_H-M "P 63/M C M"
_symmetry_group_IT_number 193
_symmetry_cell_setting 'hexagonal'
loop_
_space_group_symop_operation_xyz
x,y,z
x-y,x,1/2+z
-y,x-y,z
-x,-y,1/2+z
-x+y,-x,z
y,-x+y,1/2+z
x-y,-y,1/2-z
-x,-x+y,1/2-z
y,x,1/2-z
-y,-x,-z
-x+y,y,-z
x,x-y,-z
-x,-y,-z
-x+y,-x,1/2-z
y,-x+y,-z
x,y,1/2-z
x-y,x,-z
-y,x-y,1/2-z
-x+y,y,1/2+z
x,x-y,1/2+z
-y,-x,1/2+z
y,x,z
x-y,-y,z
-x,-x+y,z
loop_
_atom_site_type_symbol
_atom_site_label
_atom_site_fract_x
_atom_site_fract_y
_atom_site_fract_z
Si Si1 0.306239 0.205577 0.843737
Si Si2 0.208076 0.899644 0.845077
Si Si3 0.519431 0.579790 0.350115
Si Si4 0.938107 0.617139 0.409549
Si Si5 0.935338 0.416931 0.655451
Si Si6 0.060511 0.830679 0.499487
Si Si7 0.382644 0.320371 0.602754
O O1 0.279591 0.196908 0.750000
O O2 0.326815 0.163046 0.859272
O O3 0.263622 0.198399 0.916085
O O4 0.359297 0.264823 0.845952
O O5 0.203739 0.918746 0.750000
O O6 0.266509 0.904376 0.855678
O O7 0.198714 0.935098 0.915125
O O8 0.519764 0.577669 0.250000
O O9 0.552346 0.552346 0.389414
O O10 0.456007 0.543578 0.379608
O O11 0.552143 0.642334 0.381377
O O12 0.914687 0.552480 0.398877
O O13 0.933889 0.629699 0.505902
O O14 0.000000 0.649402 0.376885
O O15 0.914527 0.397674 0.750000
O O16 0.000000 0.453600 0.653526
O O17 0.105371 0.894630 0.500000
O O18 0.000000 0.822638 0.499549
O O19 0.351999 0.351999 0.634629
#
# Coordination Sequence:
#
# PCOD8329769 Si02
#       7
#    24  24  24  24  24  24  24
#     4  10  20  32  46  64  87 115 145 179 218 259
#     4  10  20  32  46  64  87 115 145 179 218 259
#     4   8  14  24  36  51  74 105 140 175 207 237
#     4  10  18  26  39  59  81 108 142 176 210 250
#     4   8  14  24  36  51  74 105 140 175 207 237
#     4  10  20  34  50  69  91 113 141 175 213 259
#     4  10  18  26  39  59  81 108 142 176 210 250
#
# _framework density 15.106427
#
# number of rings (size 3 to 8) (size 9 to 14) (size 15 to 20)
#    0.000    2.571    1.429    2.571    0.000    4.000 
#    0.000    2.857    0.000    0.143    0.000    0.000 
#    0.000    0.000    0.000    8.000    0.000   16.571 
#
# Total GULP energy -2081520.349664 kJ/mol
# GULP energy per Si atom -12390.002081 kJ/mol
# Density = 1.507204 g / cm^3
# Si number density = 15.106427 Si / 1000 Ang^3
#
#
#
# Elastic Constant Matrix: (Units=GPa)
#
#
# Indices 1 2 3 4 5 6 
#
# 1 81.1011 40.2354 28.2127 0.0000 0.0000 0.0000
# 2 40.2354 81.1011 28.2127 0.0000 0.0000 0.0000
# 3 28.2127 28.2127 72.7309 0.0000 0.0000 0.0000
# 4 0.0000 0.0000 0.0000 16.0824 0.0000 0.0000
# 5 0.0000 0.0000 0.0000 0.0000 16.0824 0.0000
# 6 0.0000 0.0000 0.0000 0.0000 0.0000 20.4329
#
#
#
# Elastic Compliance Matrix: (Units=1/GPa)
#
#
# Indices 1 2 3 4 5 6 
#
# 1 0.017263 -0.007207 -0.003901 0.000000 0.000000 0.000000
# 2 -0.007207 0.017263 -0.003901 0.000000 0.000000 0.000000
# 3 -0.003901 -0.003901 0.016775 0.000000 0.000000 0.000000
# 4 0.000000 0.000000 0.000000 0.062180 0.000000 0.000000
# 5 0.000000 0.000000 0.000000 0.000000 0.062180 0.000000
# 6 0.000000 0.000000 0.000000 0.000000 0.000000 0.048941
#
#
# Mechanical properties :
#
#
# Convention : Reuss Voigt Hill
#
# Bulk Modulus (GPa) = 46.98352 47.58383 47.28368
# Shear Modulus (GPa) = 19.10488 19.73770 19.42129
#
# Velocity S-wave (km/s) = 3.56010 3.61858 3.58946
# Velocity P-wave (km/s) = 6.93313 7.00188 6.96759
#
# Compressibility (1/GPa) = 0.02128406
#
# Stress axis : x y z
#
# Youngs Moduli (GPa) = 57.92767 57.92767 59.61114
#
# Poissons Ratio (x) = 0.41751 0.23252
# Poissons Ratio (y) = 0.41751 0.23252
# Poissons Ratio (z) = 0.22595 0.22595
#
# Static dielectric constant tensor:
#      x y z
#    x 2.806610 0.000000 0.000000 
#    y 0.000000 2.806610 0.000000 
#    z 0.000000 0.000000 3.044370 
# 
# 
# High freq. dielectric constant tensor:
#      x y z
#    x 1.545440 0.000000 0.000000 
#    y 0.000000 1.545440 0.000000 
#    z 0.000000 0.000000 1.593450 
# 
# From -- ./inp_files/4446.got.cif
#   From: 2010.03.12/outbox.cif.g09.slc.cpg/sg193_3_cif.got.tgz:4446.got - 2010.04.01 12:20:39.
