data_PCOD8329507
_publ_section_title
;
Structure prediction by ZEFSAII (Michael W. Deem and Ramdas Pophale) SiO2 
 PCOD8329507
Probable space group: P 6/M C C
;
_chemical_formula_sum "Si O2"
_cell_formula_units_Z 116
_cell_length_a 19.617537
_cell_length_b 19.617537
_cell_length_c 15.625036
_cell_angle_alpha 90.000000
_cell_angle_beta 90.000000
_cell_angle_gamma 120.000000
_cell_volume 5207.635982
_symmetry_space_group_name_H-M "P 6/M C C"
_symmetry_group_IT_number 192
_symmetry_cell_setting 'hexagonal'
loop_
_space_group_symop_operation_xyz
x,y,z
x-y,x,z
-y,x-y,z
-x,-y,z
-x+y,-x,z
y,-x+y,z
x-y,-y,1/2-z
-x,-x+y,1/2-z
y,x,1/2-z
-y,-x,1/2-z
-x+y,y,1/2-z
x,x-y,1/2-z
-x,-y,-z
-x+y,-x,-z
y,-x+y,-z
x,y,-z
x-y,x,-z
-y,x-y,-z
-x+y,y,1/2+z
x,x-y,1/2+z
-y,-x,1/2+z
y,x,1/2+z
x-y,-y,1/2+z
-x,-x+y,1/2+z
loop_
_atom_site_type_symbol
_atom_site_label
_atom_site_fract_x
_atom_site_fract_y
_atom_site_fract_z
Si Si1 0.007737 0.744633 0.843883
Si Si2 0.666668 0.333334 0.897506
Si Si3 0.260647 0.412440 0.900464
Si Si4 0.159344 0.566650 0.601638
Si Si5 0.576172 0.890482 0.400321
Si Si6 0.987491 0.833236 0.000000
O O1 0.098515 0.768814 0.854212
O O2 0.980034 0.783903 0.915260
O O3 0.000000 0.774604 0.750000
O O4 0.953787 0.650096 0.846889
O O5 0.623057 0.377488 0.860420
O O6 0.666667 0.333334 0.000000
O O7 0.347658 0.477722 0.866033
O O8 0.197950 0.440917 0.883064
O O9 0.265392 0.396876 0.000000
O O10 0.164904 0.567108 0.500000
O O11 0.104801 0.603650 0.629027
O O12 0.594289 0.912130 0.500000
O O13 0.915566 0.848874 0.000000
#
# Coordination Sequence:
#
# PCOD8329507 Si02
#       6
#    24   8  24  24  24  12
#     4  12  26  44  68 100 140 179 215 262 323 393
#     4   9  12  24  45  90 127 164 226 286 341 379
#     4  10  19  35  60  91 129 174 223 275 332 392
#     4   9  16  27  54  91 130 170 226 290 334 381
#     4  10  19  35  60  91 129 174 223 275 332 392
#     4  12  27  52  82 111 136 164 206 258 320 391
#
# _framework density 22.274982999999999
#
# number of rings (size 3 to 8) (size 9 to 14) (size 15 to 20)
#    0.000    1.655    4.138    1.345    0.000    4.138 
#    0.000    5.172    0.000    1.241    0.000    0.000 
#    0.000    0.000    0.000    0.000    0.000    0.000 
#
# Total GULP energy -1438151.776221 kJ/mol
# GULP energy per Si atom -12397.860140 kJ/mol
# Density = 2.222428 g / cm^3
# Si number density = 22.274983 Si / 1000 Ang^3
#
#
#
# Elastic Constant Matrix: (Units=GPa)
#
#
# Indices 1 2 3 4 5 6 
#
# 1 82.1633 5.0151 18.6014 0.0000 0.0000 -0.0001
# 2 5.0151 82.1626 18.6014 -0.0001 0.0000 -0.0001
# 3 18.6014 18.6014 82.3292 0.0001 0.0000 0.0000
# 4 0.0000 -0.0001 0.0001 3.3184 -0.0001 0.0000
# 5 0.0000 0.0000 0.0000 -0.0001 3.3184 0.0000
# 6 -0.0001 -0.0001 0.0000 0.0000 0.0000 38.5740
#
#
#
# Elastic Compliance Matrix: (Units=1/GPa)
#
#
# Indices 1 2 3 4 5 6 
#
# 1 0.012828 -0.000134 -0.002868 0.000000 0.000000 0.000000
# 2 -0.000134 0.012829 -0.002868 0.000000 0.000000 0.000000
# 3 -0.002868 -0.002868 0.013442 0.000000 0.000000 0.000000
# 4 0.000000 0.000000 0.000000 0.301350 0.000009 0.000000
# 5 0.000000 0.000000 0.000000 0.000009 0.301349 0.000000
# 6 0.000000 0.000000 0.000000 0.000000 0.000000 0.025924
#
#
# Mechanical properties :
#
#
# Convention : Reuss Voigt Hill
#
# Bulk Modulus (GPa) = 36.55099 36.78786 36.66942
# Shear Modulus (GPa) = 7.26130 22.67132 14.96631
#
# Velocity S-wave (km/s) = 1.80746 3.19375 2.59489
# Velocity P-wave (km/s) = 4.56076 5.49101 5.04736
#
# Compressibility (1/GPa) = 0.02735904
#
# Stress axis : x y z
#
# Youngs Moduli (GPa) = 77.95206 77.95140 74.39118
#
# Poissons Ratio (x) = 0.01042 0.21337
# Poissons Ratio (y) = 0.01042 0.21337
# Poissons Ratio (z) = 0.22358 0.22358
#
# Static dielectric constant tensor:
#      x y z
#    x 4.044730 0.000000 0.000000 
#    y 0.000000 4.044740 0.000000 
#    z 0.000000 0.000000 3.603100 
# 
# 
# High freq. dielectric constant tensor:
#      x y z
#    x 1.876080 0.000000 0.000000 
#    y 0.000000 1.876080 0.000000 
#    z 0.000000 0.000000 1.837400 
# 
# From -- ./inp_files/3001.got.cif
#   From: 2010.03.12/outbox.cif.g09.slc.cpg/sg192_2_cif.got.tgz:3001.got - 2010.04.01 12:16:15.
