data_PCOD8329416
_publ_section_title
;
Structure prediction by ZEFSAII (Michael W. Deem and Ramdas Pophale) SiO2 
 PCOD8329416
Probable space group: P 6/M C C
;
_chemical_formula_sum "Si O2"
_cell_formula_units_Z 192
_cell_length_a 24.264151
_cell_length_b 24.264151
_cell_length_c 25.678854
_cell_angle_alpha 90.000000
_cell_angle_beta 90.000000
_cell_angle_gamma 120.000000
_cell_volume 13092.918658
_symmetry_space_group_name_H-M "P 6/M C C"
_symmetry_group_IT_number 192
_symmetry_cell_setting 'hexagonal'
loop_
_space_group_symop_operation_xyz
x,y,z
x-y,x,z
-y,x-y,z
-x,-y,z
-x+y,-x,z
y,-x+y,z
x-y,-y,1/2-z
-x,-x+y,1/2-z
y,x,1/2-z
-y,-x,1/2-z
-x+y,y,1/2-z
x,x-y,1/2-z
-x,-y,-z
-x+y,-x,-z
y,-x+y,-z
x,y,-z
x-y,x,-z
-y,x-y,-z
-x+y,y,1/2+z
x,x-y,1/2+z
-y,-x,1/2+z
y,x,1/2+z
x-y,-y,1/2+z
-x,-x+y,1/2+z
loop_
_atom_site_type_symbol
_atom_site_label
_atom_site_fract_x
_atom_site_fract_y
_atom_site_fract_z
Si Si1 0.927762 0.076755 0.310610
Si Si2 0.432081 0.947453 0.937645
Si Si3 0.991739 0.221050 0.440387
Si Si4 0.188082 0.382147 0.059980
Si Si5 0.688531 0.634863 0.440583
Si Si6 0.723431 0.477149 0.938102
Si Si7 0.248898 0.131315 0.395317
Si Si8 0.192324 0.581362 0.937904
O O1 0.917340 0.082661 0.250000
O O2 0.897477 0.115860 0.338909
O O3 0.002145 0.108823 0.325932
O O4 0.378833 0.963176 0.914949
O O5 0.417471 0.879168 0.917040
O O6 0.500000 0.000000 0.915570
O O7 0.430381 0.947520 0.000000
O O8 0.011144 0.235799 0.500000
O O9 0.983143 0.278031 0.414605
O O10 0.925417 0.155569 0.436087
O O11 0.044316 0.213442 0.410534
O O12 0.129208 0.394536 0.062804
O O13 0.248519 0.448870 0.078450
O O14 0.177940 0.325776 0.100131
O O15 0.196235 0.364600 0.000000
O O16 0.676100 0.644584 0.500000
O O17 0.764749 0.446975 0.915640
O O18 0.652267 0.434885 0.916035
O O19 0.724499 0.474427 0.000000
O O20 0.194229 0.582458 0.000000
#
# Coordination Sequence:
#
# PCOD8329416 Si02
#       8
#    24  24  24  24  24  24  24  24
#     4  10  20  36  55  71  85 103 130 169 215 264
#     4   9  15  22  32  45  63  89 128 176 216 240
#     4  10  19  29  42  59  84 114 144 171 201 242
#     4   9  16  26  39  54  79 114 146 171 204 249
#     4   8  14  25  36  46  67 102 136 168 200 235
#     4   9  15  23  35  50  73 106 147 189 218 245
#     4  11  19  30  45  64  84 108 141 172 208 246
#     4   9  15  22  32  47  66  94 137 183 217 241
#
# _framework density 14.664415
#
# number of rings (size 3 to 8) (size 9 to 14) (size 15 to 20)
#    0.000    2.625    2.500    2.250    0.000    2.500 
#    0.000    3.750    0.000    0.000    0.000    1.750 
#    0.000    0.000    0.000    1.125    1.250   11.125 
#
# Total GULP energy -2378894.722732 kJ/mol
# GULP energy per Si atom -12390.076681 kJ/mol
# Density = 1.463104 g / cm^3
# Si number density = 14.664415 Si / 1000 Ang^3
#
#
#
# Elastic Constant Matrix: (Units=GPa)
#
#
# Indices 1 2 3 4 5 6 
#
# 1 102.2882 52.5686 18.9347 0.0000 0.0000 0.0000
# 2 52.5686 102.2882 18.9347 0.0000 0.0000 0.0000
# 3 18.9347 18.9347 25.8739 0.0000 0.0000 0.0000
# 4 0.0000 0.0000 0.0000 7.6499 0.0000 0.0000
# 5 0.0000 0.0000 0.0000 0.0000 7.6499 0.0000
# 6 0.0000 0.0000 0.0000 0.0000 0.0000 24.8598
#
#
#
# Elastic Compliance Matrix: (Units=1/GPa)
#
#
# Indices 1 2 3 4 5 6 
#
# 1 0.013989 -0.006124 -0.005756 0.000000 0.000000 0.000000
# 2 -0.006124 0.013989 -0.005756 0.000000 0.000000 0.000000
# 3 -0.005756 -0.005756 0.047073 0.000000 0.000000 0.000000
# 4 0.000000 0.000000 0.000000 0.130721 0.000000 0.000000
# 5 0.000000 0.000000 0.000000 0.000000 0.130721 0.000000
# 6 0.000000 0.000000 0.000000 0.000000 0.000000 0.040226
#
#
# Mechanical properties :
#
#
# Convention : Reuss Voigt Hill
#
# Bulk Modulus (GPa) = 25.13797 45.70292 35.42045
# Shear Modulus (GPa) = 11.75782 17.36608 14.56195
#
# Velocity S-wave (km/s) = 2.83467 3.44500 3.15463
# Velocity P-wave (km/s) = 5.28140 6.85985 6.12171
#
# Compressibility (1/GPa) = 0.03978045
#
# Stress axis : x y z
#
# Youngs Moduli (GPa) = 71.48501 71.48501 21.24350
#
# Poissons Ratio (x) = 0.43776 0.12227
# Poissons Ratio (y) = 0.43776 0.12227
# Poissons Ratio (z) = 0.41145 0.41145
#
# Static dielectric constant tensor:
#      x y z
#    x 3.045770 0.000000 0.000000 
#    y 0.000000 3.045770 0.000000 
#    z 0.000000 0.000000 2.212710 
# 
# 
# High freq. dielectric constant tensor:
#      x y z
#    x 1.574410 0.000000 0.000000 
#    y 0.000000 1.574410 0.000000 
#    z 0.000000 0.000000 1.465360 
# 
# From -- ./inp_files/6165.got.cif
#   From: 2010.03.12/outbox.cif.g09.slc.cpg/sg192_4_cif.got.tgz:6165.got - 2010.04.01 12:16:15.
