data_PCOD8329011
_publ_section_title
;
Structure prediction by ZEFSAII (Michael W. Deem and Ramdas Pophale) SiO2 
 PCOD8329011
Probable space group: P 6/M M M
;
_chemical_formula_sum "Si O2"
_cell_formula_units_Z 132
_cell_length_a 18.160043
_cell_length_b 18.160043
_cell_length_c 28.018469
_cell_angle_alpha 90.000000
_cell_angle_beta 90.000000
_cell_angle_gamma 120.000000
_cell_volume 8002.188499
_symmetry_space_group_name_H-M "P 6/M M M"
_symmetry_group_IT_number 191
_symmetry_cell_setting 'hexagonal'
loop_
_space_group_symop_operation_xyz
x,y,z
x-y,x,z
-y,x-y,z
-x,-y,z
-x+y,-x,z
y,-x+y,z
x-y,-y,-z
-x,-x+y,-z
y,x,-z
-y,-x,-z
-x+y,y,-z
x,x-y,-z
-x,-y,-z
-x+y,-x,-z
y,-x+y,-z
x,y,-z
x-y,x,-z
-y,x-y,-z
-x+y,y,z
x,x-y,z
-y,-x,z
y,x,z
x-y,-y,z
-x,-x+y,z
loop_
_atom_site_type_symbol
_atom_site_label
_atom_site_fract_x
_atom_site_fract_y
_atom_site_fract_z
Si Si1 0.099908 0.366452 0.414091
Si Si2 0.093782 0.742149 0.945836
Si Si3 0.164668 0.497998 0.232683
Si Si4 0.096303 0.468037 0.331776
Si Si5 0.668468 0.508026 0.500000
Si Si6 0.504311 0.666508 0.872695
O O1 0.164339 0.328677 0.422361
O O2 0.132143 0.420889 0.364899
O O3 0.112336 0.434015 0.454564
O O4 0.000000 0.290493 0.413033
O O5 0.160361 0.839640 0.932563
O O6 0.104332 0.678206 0.911235
O O7 0.000000 0.728996 0.939119
O O8 0.107725 0.721307 0.000000
O O9 0.245249 0.490498 0.245874
O O10 0.193734 0.596867 0.230589
O O11 0.099067 0.449170 0.275460
O O12 0.126626 0.458701 0.180508
O O13 0.142116 0.571058 0.340181
O O14 0.000000 0.429024 0.347394
O O15 0.575749 0.424252 0.500000
O O16 0.740107 0.480214 0.500000
O O17 0.479717 0.739859 0.876587
O O18 0.422111 0.577890 0.884588
#
# Coordination Sequence:
#
# PCOD8329011 Si02
#       6
#    24  24  24  24  12  24
#     4  10  20  33  49  68  90 118 152 189 228 269
#     4   9  18  32  48  65  85 109 137 171 214 262
#     4   9  16  26  40  58  82 113 148 182 213 246
#     4   9  17  28  42  62  88 116 145 178 218 265
#     4  10  20  33  50  73 100 128 155 182 212 249
#     4   9  17  28  42  61  87 120 155 187 216 246
#
# _framework density 16.495487000000001
#
# number of rings (size 3 to 8) (size 9 to 14) (size 15 to 20)
#    0.000    2.727    0.000    1.818    0.000    4.364 
#    0.000    2.727    0.000    7.273    0.000    1.273 
#    0.000    2.182    0.000    0.000    0.000   23.636 
#
# Total GULP energy -1635483.222190 kJ/mol
# GULP energy per Si atom -12390.024411 kJ/mol
# Density = 1.645794 g / cm^3
# Si number density = 16.495487 Si / 1000 Ang^3
#
#
#
# Elastic Constant Matrix: (Units=GPa)
#
#
# Indices 1 2 3 4 5 6 
#
# 1 73.7124 43.4564 37.8668 0.0000 0.0000 0.0000
# 2 43.4564 73.7124 37.8668 0.0000 0.0000 0.0000
# 3 37.8668 37.8668 98.7500 0.0000 0.0000 0.0000
# 4 0.0000 0.0000 0.0000 22.1541 0.0000 0.0000
# 5 0.0000 0.0000 0.0000 0.0000 22.1541 0.0000
# 6 0.0000 0.0000 0.0000 0.0000 0.0000 15.1280
#
#
#
# Elastic Compliance Matrix: (Units=1/GPa)
#
#
# Indices 1 2 3 4 5 6 
#
# 1 0.022199 -0.010852 -0.004351 0.000000 0.000000 0.000000
# 2 -0.010852 0.022199 -0.004351 0.000000 0.000000 0.000000
# 3 -0.004351 -0.004351 0.013464 0.000000 0.000000 0.000000
# 4 0.000000 0.000000 0.000000 0.045138 0.000000 0.000000
# 5 0.000000 0.000000 0.000000 0.000000 0.045138 0.000000
# 6 0.000000 0.000000 0.000000 0.000000 0.000000 0.066103
#
#
# Mechanical properties :
#
#
# Convention : Reuss Voigt Hill
#
# Bulk Modulus (GPa) = 53.32443 53.83943 53.58193
# Shear Modulus (GPa) = 19.26032 20.35291 19.80662
#
# Velocity S-wave (km/s) = 3.42074 3.51643 3.46891
# Velocity P-wave (km/s) = 6.92812 7.01404 6.97121
#
# Compressibility (1/GPa) = 0.01875313
#
# Stress axis : x y z
#
# Youngs Moduli (GPa) = 45.04667 45.04667 74.27432
#
# Poissons Ratio (x) = 0.48885 0.32318
# Poissons Ratio (y) = 0.48885 0.32318
# Poissons Ratio (z) = 0.19601 0.19601
#
# Static dielectric constant tensor:
#      x y z
#    x 2.974180 0.000000 0.000000 
#    y 0.000000 2.974180 0.000000 
#    z 0.000000 0.000000 3.389880 
# 
# 
# High freq. dielectric constant tensor:
#      x y z
#    x 1.611820 0.000000 0.000000 
#    y 0.000000 1.611820 0.000000 
#    z 0.000000 0.000000 1.654060 
# 
# From -- ./inp_files/10348.got.cif
#   From: 2010.03.12/outbox.cif.g09.slc.cpg/sg191_6_cif.got.tgz:10348.got - 2010.04.01 12:09:02.
