data_PCOD8329348
_publ_section_title
;
Structure prediction by ZEFSAII (Michael W. Deem and Ramdas Pophale) SiO2 
 PCOD8329348
Probable space group: P 6/M M M
;
_chemical_formula_sum "Si O2"
_cell_formula_units_Z 120
_cell_length_a 27.000000
_cell_length_b 27.000000
_cell_length_c 12.000000
_cell_angle_alpha 90.000000
_cell_angle_beta 90.000000
_cell_angle_gamma 120.000000
_cell_volume 7575.990232
_symmetry_space_group_name_H-M "P 6/M M M"
_symmetry_group_IT_number 191
_symmetry_cell_setting 'hexagonal'
loop_
_space_group_symop_operation_xyz
x,y,z
x-y,x,z
-y,x-y,z
-x,-y,z
-x+y,-x,z
y,-x+y,z
x-y,-y,-z
-x,-x+y,-z
y,x,-z
-y,-x,-z
-x+y,y,-z
x,x-y,-z
-x,-y,-z
-x+y,-x,-z
y,-x+y,-z
x,y,-z
x-y,x,-z
-y,x-y,-z
-x+y,y,z
x,x-y,z
-y,-x,z
y,x,z
x-y,-y,z
-x,-x+y,z
loop_
_atom_site_type_symbol
_atom_site_label
_atom_site_fract_x
_atom_site_fract_y
_atom_site_fract_z
Si Si1 0.548999 0.831592 0.128902
Si Si2 0.707858 0.175259 0.500000
Si Si3 0.110530 0.336992 0.500000
Si Si4 0.064941 0.732742 0.129623
Si Si5 0.784615 0.332426 0.296989
Si Si6 0.184594 0.251378 0.303169
O O1 0.564348 0.782174 0.154151
O O2 0.603483 0.890667 0.173237
O O3 0.488848 0.815467 0.186663
O O4 0.538287 0.836623 0.000000
O O5 0.769616 0.230385 0.500000
O O6 0.717703 0.119751 0.500000
O O7 0.671966 0.176851 0.605324
O O8 0.172736 0.345471 0.500000
O O9 0.075791 0.299432 0.606379
O O10 0.075045 0.791320 0.186325
O O11 0.000000 0.681497 0.151867
O O12 0.076610 0.748078 0.000000
O O13 0.786591 0.393296 0.298938
O O14 0.718292 0.281708 0.305267
O O15 0.115866 0.231732 0.314293
O O16 0.197634 0.197634 0.313627
#
# Coordination Sequence:
#
# PCOD8329348 Si02
#       6
#    24  12  12  24  24  24
#     4   9  17  29  45  64  87 116 148 184 228 274
#     4   9  17  28  44  65  87 112 141 175 220 271
#     4   9  17  30  47  67  90 115 145 182 225 270
#     4   9  17  29  47  71  95 118 146 183 229 279
#     4  10  19  30  44  63  88 118 151 186 223 265
#     4  10  19  30  46  69  97 126 154 186 224 265
#
# _framework density 15.839513999999999
#
# number of rings (size 3 to 8) (size 9 to 14) (size 15 to 20)
#    0.000    2.600    0.000    2.600    0.000    4.800 
#    0.000    1.000    0.000    2.000    0.000    2.800 
#    0.000   10.400    0.000    5.000    0.000    0.000 
#
# Total GULP energy -1486773.717420 kJ/mol
# GULP energy per Si atom -12389.780978 kJ/mol
# Density = 1.580346 g / cm^3
# Si number density = 15.839514 Si / 1000 Ang^3
#
#
#
# Elastic Constant Matrix: (Units=GPa)
#
#
# Indices 1 2 3 4 5 6 
#
# 1 118.5727 51.4001 33.8035 0.0000 0.0000 0.0000
# 2 51.4001 118.5727 33.8035 0.0000 0.0000 0.0000
# 3 33.8035 33.8035 62.1099 0.0000 0.0000 0.0000
# 4 0.0000 0.0000 0.0000 22.3336 0.0000 0.0000
# 5 0.0000 0.0000 0.0000 0.0000 22.3336 0.0000
# 6 0.0000 0.0000 0.0000 0.0000 0.0000 33.5863
#
#
#
# Elastic Compliance Matrix: (Units=1/GPa)
#
#
# Indices 1 2 3 4 5 6 
#
# 1 0.011198 -0.003689 -0.004087 0.000000 0.000000 0.000000
# 2 -0.003689 0.011198 -0.004087 0.000000 0.000000 0.000000
# 3 -0.004087 -0.004087 0.020549 0.000000 0.000000 0.000000
# 4 0.000000 0.000000 0.000000 0.044776 0.000000 0.000000
# 5 0.000000 0.000000 0.000000 0.000000 0.044776 0.000000
# 6 0.000000 0.000000 0.000000 0.000000 0.000000 0.029774
#
#
# Mechanical properties :
#
#
# Convention : Reuss Voigt Hill
#
# Bulk Modulus (GPa) = 52.02992 59.69663 55.86328
# Shear Modulus (GPa) = 25.98734 27.66724 26.82729
#
# Velocity S-wave (km/s) = 4.05491 4.18392 4.11992
# Velocity P-wave (km/s) = 7.40557 7.81732 7.61423
#
# Compressibility (1/GPa) = 0.01921971
#
# Stress axis : x y z
#
# Youngs Moduli (GPa) = 89.30243 89.30243 48.66452
#
# Poissons Ratio (x) = 0.32945 0.19888
# Poissons Ratio (y) = 0.32945 0.19888
# Poissons Ratio (z) = 0.36495 0.36495
#
# Static dielectric constant tensor:
#      x y z
#    x 3.147510 0.000000 0.000000 
#    y 0.000000 3.147510 0.000000 
#    z 0.000000 0.000000 3.197500 
# 
# 
# High freq. dielectric constant tensor:
#      x y z
#    x 1.601100 0.000000 0.000000 
#    y 0.000000 1.601100 0.000000 
#    z 0.000000 0.000000 1.624830 
# 
# From -- ./inp_files/3253.got.cif
#   From: 2010.03.12/outbox.ucp.g09.slc.cvg/sg191_2_cif.got.tgz:3253.got - 2010.05.04 20:47:26.
