data_PCOD8329696
_publ_section_title
;
Structure prediction by ZEFSAII (Michael W. Deem and Ramdas Pophale) SiO2 
 PCOD8329696
Probable space group: P 6/M C C
;
_chemical_formula_sum "Si O2"
_cell_formula_units_Z 60
_cell_length_a 21.062950
_cell_length_b 21.062950
_cell_length_c 9.720628
_cell_angle_alpha 90.000000
_cell_angle_beta 90.000000
_cell_angle_gamma 120.000000
_cell_volume 3734.765589
_symmetry_space_group_name_H-M "P 6/M C C"
_symmetry_group_IT_number 192
_symmetry_cell_setting 'hexagonal'
loop_
_space_group_symop_operation_xyz
x,y,z
x-y,x,z
-y,x-y,z
-x,-y,z
-x+y,-x,z
y,-x+y,z
x-y,-y,1/2-z
-x,-x+y,1/2-z
y,x,1/2-z
-y,-x,1/2-z
-x+y,y,1/2-z
x,x-y,1/2-z
-x,-y,-z
-x+y,-x,-z
y,-x+y,-z
x,y,-z
x-y,x,-z
-y,x-y,-z
-x+y,y,1/2+z
x,x-y,1/2+z
-y,-x,1/2+z
y,x,1/2+z
x-y,-y,1/2+z
-x,-x+y,1/2+z
loop_
_atom_site_type_symbol
_atom_site_label
_atom_site_fract_x
_atom_site_fract_y
_atom_site_fract_z
Si Si1 0.321843 0.580759 0.500000
Si Si2 0.557148 0.620687 0.000000
Si Si3 0.166333 0.699011 0.274452
Si Si4 0.103774 0.493511 0.500000
O O1 0.400422 0.656198 0.500000
O O2 0.317244 0.538676 0.361176
O O3 0.579840 0.672442 0.864610
O O4 0.600455 0.577341 0.000000
O O5 0.468664 0.566943 0.000000
O O6 0.212109 0.787892 0.250000
O O7 0.145763 0.655394 0.133178
#
# Coordination Sequence:
#
# PCOD8329696 Si02
#       4
#    12  12  24  12
#     4   9  23  35  43  64  93 127 140 176 251 312
#     4  10  23  36  53  67  92 128 158 195 238 297
#     4  11  23  34  51  70  92 120 150 202 245 295
#     4  11  22  37  52  70  90 122 166 195 235 301
#
# _framework density 16.065266000000001
#
# number of rings (size 3 to 8) (size 9 to 14) (size 15 to 20)
#    0.400    1.200    0.000    4.800   16.800    3.200 
#    0.000    0.000    0.000    0.000    0.000    0.000 
#    0.000    0.000    0.000    0.000    0.000    0.000 
#
# Total GULP energy -743556.962285 kJ/mol
# GULP energy per Si atom -12392.616038 kJ/mol
# Density = 1.602870 g / cm^3
# Si number density = 16.065266 Si / 1000 Ang^3
#
#
#
# Elastic Constant Matrix: (Units=GPa)
#
#
# Indices 1 2 3 4 5 6 
#
# 1 62.2874 12.4022 27.9473 0.0000 0.0000 0.0000
# 2 12.4022 62.2874 27.9473 0.0000 0.0000 0.0000
# 3 27.9473 27.9473 135.9696 0.0000 0.0000 0.0000
# 4 0.0000 0.0000 0.0000 18.4835 0.0000 0.0000
# 5 0.0000 0.0000 0.0000 0.0000 18.4835 0.0000
# 6 0.0000 0.0000 0.0000 0.0000 0.0000 24.9426
#
#
#
# Elastic Compliance Matrix: (Units=1/GPa)
#
#
# Indices 1 2 3 4 5 6 
#
# 1 0.017934 -0.002112 -0.003252 0.000000 0.000000 0.000000
# 2 -0.002112 0.017934 -0.003252 0.000000 0.000000 0.000000
# 3 -0.003252 -0.003252 0.008692 0.000000 0.000000 0.000000
# 4 0.000000 0.000000 0.000000 0.054102 0.000000 0.000000
# 5 0.000000 0.000000 0.000000 0.000000 0.054102 0.000000
# 6 0.000000 0.000000 0.000000 0.000000 0.000000 0.040092
#
#
# Mechanical properties :
#
#
# Convention : Reuss Voigt Hill
#
# Bulk Modulus (GPa) = 36.59267 44.12646 40.35956
# Shear Modulus (GPa) = 22.81038 25.19841 24.00439
#
# Velocity S-wave (km/s) = 3.77219 3.96473 3.86966
# Velocity P-wave (km/s) = 6.46525 6.96314 6.71881
#
# Compressibility (1/GPa) = 0.02732787
#
# Stress axis : x y z
#
# Youngs Moduli (GPa) = 55.75908 55.75908 115.05494
#
# Poissons Ratio (x) = 0.11775 0.37418
# Poissons Ratio (y) = 0.11775 0.37418
# Poissons Ratio (z) = 0.18134 0.18134
#
# Static dielectric constant tensor:
#      x y z
#    x 3.116480 0.000000 0.000000 
#    y 0.000000 3.116480 0.000000 
#    z 0.000000 0.000000 3.378000 
# 
# 
# High freq. dielectric constant tensor:
#      x y z
#    x 1.583910 0.000000 0.000000 
#    y 0.000000 1.583910 0.000000 
#    z 0.000000 0.000000 1.651160 
# 
# From -- ./inp_files/620.got.cif
#   From: 2010.03.12/outbox.cif.g09.slc.cpg/sg192_1_cif.got.tgz:620.got - 2010.04.01 12:16:15.
