data_PCOD8329644
_publ_section_title
;
Structure prediction by ZEFSAII (Michael W. Deem and Ramdas Pophale) SiO2 
 PCOD8329644
Probable space group: P 6/M C C
;
_chemical_formula_sum "Si O2"
_cell_formula_units_Z 102
_cell_length_a 25.355218
_cell_length_b 25.355218
_cell_length_c 8.884044
_cell_angle_alpha 90.000000
_cell_angle_beta 90.000000
_cell_angle_gamma 120.000000
_cell_volume 4946.249624
_symmetry_space_group_name_H-M "P 6/M C C"
_symmetry_group_IT_number 192
_symmetry_cell_setting 'hexagonal'
loop_
_space_group_symop_operation_xyz
x,y,z
x-y,x,z
-y,x-y,z
-x,-y,z
-x+y,-x,z
y,-x+y,z
x-y,-y,1/2-z
-x,-x+y,1/2-z
y,x,1/2-z
-y,-x,1/2-z
-x+y,y,1/2-z
x,x-y,1/2-z
-x,-y,-z
-x+y,-x,-z
y,-x+y,-z
x,y,-z
x-y,x,-z
-y,x-y,-z
-x+y,y,1/2+z
x,x-y,1/2+z
-y,-x,1/2+z
y,x,1/2+z
x-y,-y,1/2+z
-x,-x+y,1/2+z
loop_
_atom_site_type_symbol
_atom_site_label
_atom_site_fract_x
_atom_site_fract_y
_atom_site_fract_z
Si Si1 0.666639 0.437508 0.677997
Si Si2 0.000000 0.500000 0.250000
Si Si3 0.292492 0.935622 0.826287
Si Si4 0.479591 0.107679 0.168872
Si Si5 0.065104 0.825767 0.672844
O O1 0.629819 0.370182 0.750000
O O2 0.734672 0.469343 0.750000
O O3 0.670485 0.435129 0.500000
O O4 0.628677 0.470643 0.722033
O O5 0.045044 0.562374 0.161304
O O6 0.315812 0.898238 0.731061
O O7 0.219795 0.907332 0.813932
O O8 0.321786 0.000000 0.750000
O O9 0.313537 0.940599 0.000000
O O10 0.489262 0.133376 0.000000
O O11 0.110985 0.889016 0.750000
O O12 0.057194 0.837825 0.500000
O O13 0.000000 0.798336 0.750000
#
# Coordination Sequence:
#
# PCOD8329644 Si02
#       5
#    24   6  24  24  24
#     4  12  26  46  69  93 123 159 208 262 321 384
#     4  12  26  40  68  98 138 176 222 268 336 396
#     4  10  21  37  58  86 122 162 206 257 311 372
#     4  12  25  41  65  96 131 171 216 267 327 392
#     4  10  21  38  62  92 127 169 214 264 319 382
#
# _framework density 20.621683999999998
#
# number of rings (size 3 to 8) (size 9 to 14) (size 15 to 20)
#    0.000    0.941    2.353    4.824    0.000    5.647 
#    0.000    2.353    0.000    0.235    0.000    1.647 
#    0.000    0.000    0.000    0.000    0.000    0.000 
#
# Total GULP energy -1264200.561226 kJ/mol
# GULP energy per Si atom -12394.123149 kJ/mol
# Density = 2.057475 g / cm^3
# Si number density = 20.621684 Si / 1000 Ang^3
#
#
#
# Elastic Constant Matrix: (Units=GPa)
#
#
# Indices 1 2 3 4 5 6 
#
# 1 103.4578 42.4054 50.5944 0.0000 0.0000 0.0000
# 2 42.4054 103.4578 50.5944 0.0000 0.0000 0.0000
# 3 50.5944 50.5944 185.2914 0.0000 0.0000 0.0000
# 4 0.0000 0.0000 0.0000 30.1760 0.0000 0.0000
# 5 0.0000 0.0000 0.0000 0.0000 30.1760 0.0000
# 6 0.0000 0.0000 0.0000 0.0000 0.0000 30.5262
#
#
#
# Elastic Compliance Matrix: (Units=1/GPa)
#
#
# Indices 1 2 3 4 5 6 
#
# 1 0.012419 -0.003961 -0.002309 0.000000 0.000000 0.000000
# 2 -0.003961 0.012419 -0.002309 0.000000 0.000000 0.000000
# 3 -0.002309 -0.002309 0.006658 0.000000 0.000000 0.000000
# 4 0.000000 0.000000 0.000000 0.033139 0.000000 0.000000
# 5 0.000000 0.000000 0.000000 0.000000 0.033139 0.000000
# 6 0.000000 0.000000 0.000000 0.000000 0.000000 0.032759
#
#
# Mechanical properties :
#
#
# Convention : Reuss Voigt Hill
#
# Bulk Modulus (GPa) = 69.75427 75.48839 72.62133
# Shear Modulus (GPa) = 32.79337 34.74983 33.77160
#
# Velocity S-wave (km/s) = 3.99210 4.10946 4.05121
# Velocity P-wave (km/s) = 7.42619 7.69433 7.56145
#
# Compressibility (1/GPa) = 0.01433604
#
# Stress axis : x y z
#
# Youngs Moduli (GPa) = 80.52433 80.52433 150.19278
#
# Poissons Ratio (x) = 0.31894 0.34686
# Poissons Ratio (y) = 0.31894 0.34686
# Poissons Ratio (z) = 0.18597 0.18597
#
# Static dielectric constant tensor:
#      x y z
#    x 4.217090 0.000000 0.000000 
#    y 0.000000 4.217090 0.000000 
#    z 0.000000 0.000000 3.598260 
# 
# 
# High freq. dielectric constant tensor:
#      x y z
#    x 1.801740 0.000000 0.000000 
#    y 0.000000 1.801740 0.000000 
#    z 0.000000 0.000000 1.820490 
# 
# From -- ./inp_files/885.got.cif
#   From: 2010.03.12/outbox.cif.g09.slc.cpg/sg192_1_cif.got.tgz:885.got - 2010.04.01 12:16:15.
