data_PCOD8329993
_publ_section_title
;
Structure prediction by ZEFSAII (Michael W. Deem and Ramdas Pophale) SiO2 
 PCOD8329993
Probable space group: P 63/M C M
;
_chemical_formula_sum "Si O2"
_cell_formula_units_Z 108
_cell_length_a 17.911985
_cell_length_b 17.911985
_cell_length_c 21.088708
_cell_angle_alpha 90.000000
_cell_angle_beta 90.000000
_cell_angle_gamma 120.000000
_cell_volume 5859.600926
_symmetry_space_group_name_H-M "P 63/M C M"
_symmetry_group_IT_number 193
_symmetry_cell_setting 'hexagonal'
loop_
_space_group_symop_operation_xyz
x,y,z
x-y,x,1/2+z
-y,x-y,z
-x,-y,1/2+z
-x+y,-x,z
y,-x+y,1/2+z
x-y,-y,1/2-z
-x,-x+y,1/2-z
y,x,1/2-z
-y,-x,-z
-x+y,y,-z
x,x-y,-z
-x,-y,-z
-x+y,-x,1/2-z
y,-x+y,-z
x,y,1/2-z
x-y,x,-z
-y,x-y,1/2-z
-x+y,y,1/2+z
x,x-y,1/2+z
-y,-x,1/2+z
y,x,z
x-y,-y,z
-x,-x+y,z
loop_
_atom_site_type_symbol
_atom_site_label
_atom_site_fract_x
_atom_site_fract_y
_atom_site_fract_z
Si Si1 0.786349 0.213652 0.000000
Si Si2 0.099578 0.459560 0.588429
Si Si3 0.093449 0.315249 0.678357
Si Si4 0.100437 0.353814 0.117812
Si Si5 0.508575 0.406366 0.678831
O O1 0.829235 0.309689 0.967588
O O2 0.778273 0.143498 0.950018
O O3 0.102177 0.391943 0.635417
O O4 0.133026 0.547485 0.628087
O O5 0.000000 0.421004 0.562836
O O6 0.103295 0.347777 0.750000
O O7 0.169029 0.295091 0.660713
O O8 0.000000 0.230048 0.667744
O O9 0.134774 0.445268 0.152957
O O10 0.000000 0.305207 0.107371
O O11 0.541060 0.401049 0.750000
O O12 0.458947 0.458947 0.683058
#
# Coordination Sequence:
#
# PCOD8329993 Si02
#       5
#    12  24  24  24  24
#     4  10  20  32  46  70 103 140 175 208 248 298
#     4   9  17  30  49  72 100 134 171 208 245 295
#     4   9  17  30  50  76 104 135 170 208 253 302
#     4  10  20  33  52  77 103 131 168 215 258 299
#     4   9  17  30  51  78 101 122 155 205 261 307
#
# _framework density 18.431289
#
# number of rings (size 3 to 8) (size 9 to 14) (size 15 to 20)
#    0.000    2.667    0.000    2.000    0.000    5.778 
#    0.000    3.333    0.000   12.889    0.000   13.222 
#    0.000    0.000    0.000    0.000    0.000    0.000 
#
# Total GULP energy -1338124.957475 kJ/mol
# GULP energy per Si atom -12390.045903 kJ/mol
# Density = 1.838934 g / cm^3
# Si number density = 18.431289 Si / 1000 Ang^3
#
#
#
# Elastic Constant Matrix: (Units=GPa)
#
#
# Indices 1 2 3 4 5 6 
#
# 1 82.4067 43.3370 49.5225 0.0000 0.0000 0.0000
# 2 43.3370 82.4067 49.5225 0.0000 0.0000 0.0000
# 3 49.5225 49.5225 115.9159 0.0000 0.0000 0.0000
# 4 0.0000 0.0000 0.0000 27.9538 0.0000 0.0000
# 5 0.0000 0.0000 0.0000 0.0000 27.9538 0.0000
# 6 0.0000 0.0000 0.0000 0.0000 0.0000 19.5349
#
#
#
# Elastic Compliance Matrix: (Units=1/GPa)
#
#
# Indices 1 2 3 4 5 6 
#
# 1 0.018791 -0.006805 -0.005121 0.000000 0.000000 0.000000
# 2 -0.006805 0.018791 -0.005121 0.000000 0.000000 0.000000
# 3 -0.005121 -0.005121 0.013002 0.000000 0.000000 0.000000
# 4 0.000000 0.000000 0.000000 0.035773 0.000000 0.000000
# 5 0.000000 0.000000 0.000000 0.000000 0.035773 0.000000
# 6 0.000000 0.000000 0.000000 0.000000 0.000000 0.051191
#
#
# Mechanical properties :
#
#
# Convention : Reuss Voigt Hill
#
# Bulk Modulus (GPa) = 60.63710 62.83259 61.73485
# Shear Modulus (GPa) = 23.48402 24.31167 23.89784
#
# Velocity S-wave (km/s) = 3.57338 3.63580 3.60473
# Velocity P-wave (km/s) = 7.07077 7.19650 7.13391
#
# Compressibility (1/GPa) = 0.01649155
#
# Stress axis : x y z
#
# Youngs Moduli (GPa) = 53.21766 53.21766 76.90838
#
# Poissons Ratio (x) = 0.36212 0.39384
# Poissons Ratio (y) = 0.36212 0.39384
# Poissons Ratio (z) = 0.27252 0.27252
#
# Static dielectric constant tensor:
#      x y z
#    x 3.514790 0.000000 0.000000 
#    y 0.000000 3.514790 0.000000 
#    z 0.000000 0.000000 3.695210 
# 
# 
# High freq. dielectric constant tensor:
#      x y z
#    x 1.691830 0.000000 0.000000 
#    y 0.000000 1.691830 0.000000 
#    z 0.000000 0.000000 1.732600 
# 
# From -- ./inp_files/6305.got.cif
#   From: 2010.03.12/outbox.cif.g09.slc.cpg/sg193_4_cif.got.tgz:6305.got - 2010.04.01 12:20:39.
