data_PCOD8329645
_publ_section_title
;
Structure prediction by ZEFSAII (Michael W. Deem and Ramdas Pophale) SiO2 
 PCOD8329645
Probable space group: P 6/M C C
;
_chemical_formula_sum "Si O2"
_cell_formula_units_Z 114
_cell_length_a 19.867473
_cell_length_b 19.867473
_cell_length_c 14.610619
_cell_angle_alpha 90.000000
_cell_angle_beta 90.000000
_cell_angle_gamma 120.000000
_cell_volume 4994.413669
_symmetry_space_group_name_H-M "P 6/M C C"
_symmetry_group_IT_number 192
_symmetry_cell_setting 'hexagonal'
loop_
_space_group_symop_operation_xyz
x,y,z
x-y,x,z
-y,x-y,z
-x,-y,z
-x+y,-x,z
y,-x+y,z
x-y,-y,1/2-z
-x,-x+y,1/2-z
y,x,1/2-z
-y,-x,1/2-z
-x+y,y,1/2-z
x,x-y,1/2-z
-x,-y,-z
-x+y,-x,-z
y,-x+y,-z
x,y,-z
x-y,x,-z
-y,x-y,-z
-x+y,y,1/2+z
x,x-y,1/2+z
-y,-x,1/2+z
y,x,1/2+z
x-y,-y,1/2+z
-x,-x+y,1/2+z
loop_
_atom_site_type_symbol
_atom_site_label
_atom_site_fract_x
_atom_site_fract_y
_atom_site_fract_z
Si Si1 0.259607 0.573763 0.000000
Si Si2 0.063282 0.637411 0.105767
Si Si3 0.108989 0.163969 0.647015
Si Si4 0.072347 0.745928 0.606647
Si Si5 0.500000 0.500000 0.750000
Si Si6 0.463560 0.233896 0.151548
O O1 0.351667 0.599905 0.000000
O O2 0.220204 0.524158 0.910948
O O3 0.051500 0.571947 0.180725
O O4 0.150058 0.709796 0.111469
O O5 0.005260 0.670230 0.129171
O O6 0.049165 0.605641 0.000000
O O7 0.142902 0.114046 0.596701
O O8 0.073225 0.146449 0.750000
O O9 0.179656 0.250053 0.641981
O O10 0.092696 0.754189 0.500000
O O11 0.143541 0.751789 0.663288
O O12 0.504045 0.252023 0.250000
#
# Coordination Sequence:
#
# PCOD8329645 Si02
#       6
#    12  24  24  24   6  24
#     4  10  26  48  68 100 139 172 221 284 354 427
#     4  11  25  46  70 108 144 185 237 304 364 436
#     4  10  21  37  60  94 138 190 243 301 356 422
#     4  11  23  42  69  98 140 184 237 297 365 422
#     4  12  26  44  68 110 132 188 232 296 368 454
#     4  12  24  45  74 102 140 187 235 291 354 439
#
# _framework density 22.825500999999999
#
# number of rings (size 3 to 8) (size 9 to 14) (size 15 to 20)
#    0.211    0.842    2.105    3.684    0.000   10.947 
#    0.000    0.000    0.000    1.263    0.000    0.000 
#    0.000    0.000    0.000    0.000    0.000    0.000 
#
# Total GULP energy -1412361.558756 kJ/mol
# GULP energy per Si atom -12389.136480 kJ/mol
# Density = 2.277355 g / cm^3
# Si number density = 22.825501 Si / 1000 Ang^3
#
#
#
# Elastic Constant Matrix: (Units=GPa)
#
#
# Indices 1 2 3 4 5 6 
#
# 1 105.7865 -3.4602 16.0523 0.0000 0.0000 0.0000
# 2 -3.4602 105.7865 16.0523 0.0000 0.0000 0.0000
# 3 16.0523 16.0523 118.4536 0.0000 0.0000 0.0000
# 4 0.0000 0.0000 0.0000 25.1758 0.0000 0.0000
# 5 0.0000 0.0000 0.0000 0.0000 25.1758 0.0000
# 6 0.0000 0.0000 0.0000 0.0000 0.0000 54.6234
#
#
#
# Elastic Compliance Matrix: (Units=1/GPa)
#
#
# Indices 1 2 3 4 5 6 
#
# 1 0.009680 0.000527 -0.001383 0.000000 0.000000 0.000000
# 2 0.000527 0.009680 -0.001383 0.000000 0.000000 0.000000
# 3 -0.001383 -0.001383 0.008817 0.000000 0.000000 0.000000
# 4 0.000000 0.000000 0.000000 0.039721 0.000000 0.000000
# 5 0.000000 0.000000 0.000000 0.000000 0.039721 0.000000
# 6 0.000000 0.000000 0.000000 0.000000 0.000000 0.018307
#
#
# Mechanical properties :
#
#
# Convention : Reuss Voigt Hill
#
# Bulk Modulus (GPa) = 42.19836 43.03508 42.61672
# Shear Modulus (GPa) = 36.15209 41.08714 38.61962
#
# Velocity S-wave (km/s) = 3.98407 4.24731 4.11779
# Velocity P-wave (km/s) = 6.30010 6.55345 6.42803
#
# Compressibility (1/GPa) = 0.02369760
#
# Stress axis : x y z
#
# Youngs Moduli (GPa) = 103.30468 103.30468 113.41722
#
# Poissons Ratio (x) = -0.05439 0.15687
# Poissons Ratio (y) = -0.05439 0.15687
# Poissons Ratio (z) = 0.14289 0.14289
#
# Static dielectric constant tensor:
#      x y z
#    x 4.284410 0.000000 0.000000 
#    y 0.000000 4.284410 0.000000 
#    z 0.000000 0.000000 4.180950 
# 
# 
# High freq. dielectric constant tensor:
#      x y z
#    x 1.903200 0.000000 0.000000 
#    y 0.000000 1.903200 0.000000 
#    z 0.000000 0.000000 1.912280 
# 
# From -- ./inp_files/2988.got.cif
#   From: 2010.03.12/outbox.cif.g09.slc.cpg/sg192_2_cif.got.tgz:2988.got - 2010.04.01 12:16:15.
