data_PCOD8329422
_publ_section_title
;
Structure prediction by ZEFSAII (Michael W. Deem and Ramdas Pophale) SiO2 
 PCOD8329422
Probable space group: P 6/M C C
;
_chemical_formula_sum "Si O2"
_cell_formula_units_Z 120
_cell_length_a 22.624876
_cell_length_b 22.624876
_cell_length_c 15.377717
_cell_angle_alpha 90.000000
_cell_angle_beta 90.000000
_cell_angle_gamma 120.000000
_cell_volume 6817.025385
_symmetry_space_group_name_H-M "P 6/M C C"
_symmetry_group_IT_number 192
_symmetry_cell_setting 'hexagonal'
loop_
_space_group_symop_operation_xyz
x,y,z
x-y,x,z
-y,x-y,z
-x,-y,z
-x+y,-x,z
y,-x+y,z
x-y,-y,1/2-z
-x,-x+y,1/2-z
y,x,1/2-z
-y,-x,1/2-z
-x+y,y,1/2-z
x,x-y,1/2-z
-x,-y,-z
-x+y,-x,-z
y,-x+y,-z
x,y,-z
x-y,x,-z
-y,x-y,-z
-x+y,y,1/2+z
x,x-y,1/2+z
-y,-x,1/2+z
y,x,1/2+z
x-y,-y,1/2+z
-x,-x+y,1/2+z
loop_
_atom_site_type_symbol
_atom_site_label
_atom_site_fract_x
_atom_site_fract_y
_atom_site_fract_z
Si Si1 0.193238 0.665696 0.250000
Si Si2 0.566679 0.713458 0.903832
Si Si3 0.205661 0.280858 0.396619
Si Si4 0.924803 0.205661 0.103381
Si Si5 0.433321 0.286542 0.403832
O O1 0.265351 0.734650 0.250000
O O2 0.206906 0.603453 0.250000
O O3 0.149381 0.661185 0.335300
O O4 0.149381 0.661185 0.164700
O O5 0.642807 0.736219 0.870039
O O6 0.560175 0.780088 0.910464
O O7 0.552851 0.679060 0.000000
O O8 0.200997 0.277210 0.500000
O O9 0.131602 0.263204 0.358288
O O10 0.227331 0.227331 0.359645
O O11 0.906589 0.263782 0.129961
O O12 0.923786 0.200996 0.000000
O O13 0.447149 0.320940 0.500000
#
# Coordination Sequence:
#
# PCOD8329422 Si02
#       5
#    24  24  24  24  24
#     4  10  19  30  45  65  88 113 142 180 227 275
#     4   8  15  28  44  62  85 115 151 186 218 255
#     4   8  13  23  42  66  89 115 149 187 223 258
#     4   8  13  23  42  66  89 115 149 187 223 258
#     4   8  15  28  44  62  85 115 151 186 218 255
#
# _framework density 17.602986000000001
#
# number of rings (size 3 to 8) (size 9 to 14) (size 15 to 20)
#    0.000    3.600    0.000    2.600    0.000    0.800 
#    0.000    1.000    0.000    5.200    0.000    8.400 
#    0.000    0.000    0.000    0.000    0.000   23.600 
#
# Total GULP energy -1486733.425763 kJ/mol
# GULP energy per Si atom -12389.445215 kJ/mol
# Density = 1.756292 g / cm^3
# Si number density = 17.602986 Si / 1000 Ang^3
#
#
#
# Elastic Constant Matrix: (Units=GPa)
#
#
# Indices 1 2 3 4 5 6 
#
# 1 89.9138 42.9256 35.6243 0.0000 0.0000 0.0000
# 2 42.9256 89.9138 35.6243 0.0000 0.0000 0.0000
# 3 35.6243 35.6243 75.6145 0.0000 0.0000 0.0000
# 4 0.0000 0.0000 0.0000 8.3794 0.0000 0.0000
# 5 0.0000 0.0000 0.0000 0.0000 8.3794 0.0000
# 6 0.0000 0.0000 0.0000 0.0000 0.0000 23.4941
#
#
#
# Elastic Compliance Matrix: (Units=1/GPa)
#
#
# Indices 1 2 3 4 5 6 
#
# 1 0.015678 -0.005604 -0.004746 0.000000 0.000000 0.000000
# 2 -0.005604 0.015678 -0.004746 0.000000 0.000000 0.000000
# 3 -0.004746 -0.004746 0.017697 0.000000 0.000000 0.000000
# 4 0.000000 0.000000 0.000000 0.119341 0.000000 0.000000
# 5 0.000000 0.000000 0.000000 0.000000 0.119341 0.000000
# 6 0.000000 0.000000 0.000000 0.000000 0.000000 0.042564
#
#
# Mechanical properties :
#
#
# Convention : Reuss Voigt Hill
#
# Bulk Modulus (GPa) = 53.02213 53.75452 53.38832
# Shear Modulus (GPa) = 13.63229 17.46843 15.55036
#
# Velocity S-wave (km/s) = 2.78588 3.15359 2.97542
# Velocity P-wave (km/s) = 6.36668 6.62296 6.49608
#
# Compressibility (1/GPa) = 0.01886005
#
# Stress axis : x y z
#
# Youngs Moduli (GPa) = 63.78512 63.78512 56.50741
#
# Poissons Ratio (x) = 0.35747 0.26818
# Poissons Ratio (y) = 0.35747 0.26818
# Poissons Ratio (z) = 0.30271 0.30271
#
# Static dielectric constant tensor:
#      x y z
#    x 3.246650 0.000000 0.000000 
#    y 0.000000 3.246650 0.000000 
#    z 0.000000 0.000000 3.551150 
# 
# 
# High freq. dielectric constant tensor:
#      x y z
#    x 1.651280 0.000000 0.000000 
#    y 0.000000 1.651280 0.000000 
#    z 0.000000 0.000000 1.673520 
# 
# From -- ./inp_files/3137.got.cif
#   From: 2010.03.12/outbox.cif.g09.slc.cpg/sg192_2_cif.got.tgz:3137.got - 2010.04.01 12:16:15.
