data_PCOD8329340
_publ_section_title
;
Structure prediction by ZEFSAII (Michael W. Deem and Ramdas Pophale) SiO2 
 PCOD8329340
Probable space group: P 6/M M M
;
_chemical_formula_sum "Si O2"
_cell_formula_units_Z 84
_cell_length_a 26.257690
_cell_length_b 26.257690
_cell_length_c 9.487787
_cell_angle_alpha 90.000000
_cell_angle_beta 90.000000
_cell_angle_gamma 120.000000
_cell_volume 5665.113187
_symmetry_space_group_name_H-M "P 6/M M M"
_symmetry_group_IT_number 191
_symmetry_cell_setting 'hexagonal'
loop_
_space_group_symop_operation_xyz
x,y,z
x-y,x,z
-y,x-y,z
-x,-y,z
-x+y,-x,z
y,-x+y,z
x-y,-y,-z
-x,-x+y,-z
y,x,-z
-y,-x,-z
-x+y,y,-z
x,x-y,-z
-x,-y,-z
-x+y,-x,-z
y,-x+y,-z
x,y,-z
x-y,x,-z
-y,x-y,-z
-x+y,y,z
x,x-y,z
-y,-x,z
y,x,z
x-y,-y,z
-x,-x+y,z
loop_
_atom_site_type_symbol
_atom_site_label
_atom_site_fract_x
_atom_site_fract_y
_atom_site_fract_z
Si Si1 0.236965 0.358410 0.337245
Si Si2 0.534918 0.465083 0.840651
Si Si3 0.630061 0.561823 0.662858
Si Si4 0.934663 0.755964 0.836919
O O1 0.234855 0.341227 0.500000
O O2 0.189644 0.379287 0.304016
O O3 0.301646 0.410048 0.296366
O O4 0.223241 0.301305 0.249101
O O5 0.500000 0.500000 0.840333
O O6 0.596069 0.503914 0.758858
O O7 0.547362 0.452639 0.000000
O O8 0.618604 0.542236 0.500000
O O9 0.608679 0.608679 0.694110
O O10 0.888818 0.777636 0.795353
O O11 0.000000 0.808645 0.801130
O O12 0.928649 0.738305 0.000000
#
# Coordination Sequence:
#
# PCOD8329340 Si02
#       4
#    24  12  24  24
#     4   9  17  28  42  61  84 108 135 166 199 239
#     4   9  17  27  39  57  79 103 133 165 191 221
#     4   9  16  26  40  57  80 109 135 159 193 235
#     4   9  17  28  41  57  78 105 136 170 209 251
#
# _framework density 14.827593999999999
#
# number of rings (size 3 to 8) (size 9 to 14) (size 15 to 20)
#    0.000    3.000    0.000    1.286    0.000    4.571 
#    0.000    2.857    0.000    0.286    0.000    2.000 
#    1.429    0.000    2.571    7.143    0.857    7.429 
#
# Total GULP energy -1041439.735481 kJ/mol
# GULP energy per Si atom -12398.092089 kJ/mol
# Density = 1.479385 g / cm^3
# Si number density = 14.827594 Si / 1000 Ang^3
#
#
#
# Elastic Constant Matrix: (Units=GPa)
#
#
# Indices 1 2 3 4 5 6 
#
# 1 100.0957 56.9506 48.2817 0.0000 0.0000 0.0000
# 2 56.9506 100.0957 48.2817 0.0000 0.0000 0.0000
# 3 48.2817 48.2817 63.9246 0.0000 0.0000 0.0000
# 4 0.0000 0.0000 0.0000 20.1093 0.0000 0.0000
# 5 0.0000 0.0000 0.0000 0.0000 20.1093 0.0000
# 6 0.0000 0.0000 0.0000 0.0000 0.0000 21.5726
#
#
#
# Elastic Compliance Matrix: (Units=1/GPa)
#
#
# Indices 1 2 3 4 5 6 
#
# 1 0.017533 -0.005644 -0.008979 0.000000 0.000000 0.000000
# 2 -0.005644 0.017533 -0.008979 0.000000 0.000000 0.000000
# 3 -0.008979 -0.008979 0.029208 0.000000 0.000000 0.000000
# 4 0.000000 0.000000 0.000000 0.049728 0.000000 0.000000
# 5 0.000000 0.000000 0.000000 0.000000 0.049728 0.000000
# 6 0.000000 0.000000 0.000000 0.000000 0.000000 0.046355
#
#
# Mechanical properties :
#
#
# Convention : Reuss Voigt Hill
#
# Bulk Modulus (GPa) = 58.59161 63.46043 61.02602
# Shear Modulus (GPa) = 19.01277 19.73174 19.37225
#
# Velocity S-wave (km/s) = 3.58474 3.65189 3.61848
# Velocity P-wave (km/s) = 7.53226 7.78932 7.66187
#
# Compressibility (1/GPa) = 0.01706729
#
# Stress axis : x y z
#
# Youngs Moduli (GPa) = 57.03475 57.03475 34.23758
#
# Poissons Ratio (x) = 0.32193 0.30744
# Poissons Ratio (y) = 0.32193 0.30744
# Poissons Ratio (z) = 0.51214 0.51214
#
# Static dielectric constant tensor:
#      x y z
#    x 2.829480 0.000000 0.000000 
#    y 0.000000 2.829480 0.000000 
#    z 0.000000 0.000000 2.969380 
# 
# 
# High freq. dielectric constant tensor:
#      x y z
#    x 1.548760 0.000000 0.000000 
#    y 0.000000 1.548760 0.000000 
#    z 0.000000 0.000000 1.573300 
# 
# From -- ./inp_files/2631.got.cif
#   From: 2010.03.12/outbox.cif.g09.slc.cpg/sg191_2_cif.got.tgz:2631.got - 2010.04.01 12:09:02.
