data_PCOD8329787
_publ_section_title
;
Structure prediction by ZEFSAII (Michael W. Deem and Ramdas Pophale) SiO2 
 PCOD8329787
Probable space group: P 63/M C M
;
_chemical_formula_sum "Si O2"
_cell_formula_units_Z 144
_cell_length_a 22.805203
_cell_length_b 22.805203
_cell_length_c 18.348845
_cell_angle_alpha 90.000000
_cell_angle_beta 90.000000
_cell_angle_gamma 120.000000
_cell_volume 8264.322353
_symmetry_space_group_name_H-M "P 63/M C M"
_symmetry_group_IT_number 193
_symmetry_cell_setting 'hexagonal'
loop_
_space_group_symop_operation_xyz
x,y,z
x-y,x,1/2+z
-y,x-y,z
-x,-y,1/2+z
-x+y,-x,z
y,-x+y,1/2+z
x-y,-y,1/2-z
-x,-x+y,1/2-z
y,x,1/2-z
-y,-x,-z
-x+y,y,-z
x,x-y,-z
-x,-y,-z
-x+y,-x,1/2-z
y,-x+y,-z
x,y,1/2-z
x-y,x,-z
-y,x-y,1/2-z
-x+y,y,1/2+z
x,x-y,1/2+z
-y,-x,1/2+z
y,x,z
x-y,-y,z
-x,-x+y,z
loop_
_atom_site_type_symbol
_atom_site_label
_atom_site_fract_x
_atom_site_fract_y
_atom_site_fract_z
Si Si1 0.716389 0.579732 0.410053
Si Si2 0.279201 0.127572 0.078213
Si Si3 0.257531 0.333085 0.331618
Si Si4 0.000000 0.644031 0.667794
Si Si5 0.000000 0.783491 0.668680
Si Si6 0.724790 0.200129 0.167639
Si Si7 0.667380 0.205206 0.477747
O O1 0.777385 0.651914 0.434822
O O2 0.656337 0.588446 0.374017
O O3 0.744142 0.546504 0.351473
O O4 0.689021 0.533280 0.482128
O O5 0.291442 0.195835 0.114886
O O6 0.226243 0.065859 0.127227
O O7 0.245660 0.122830 0.000000
O O8 0.229776 0.309740 0.250000
O O9 0.316999 0.316999 0.350913
O O10 0.288067 0.412769 0.338929
O O11 0.000000 0.713658 0.672063
O O12 0.000000 0.618056 0.750000
O O13 0.000000 0.809611 0.750000
O O14 0.709528 0.214745 0.250000
O O15 0.672426 0.201925 0.109998
O O16 0.717259 0.282742 0.500000
O O17 0.591268 0.182536 0.500000
#
# Coordination Sequence:
#
# PCOD8329787 Si02
#       7
#    24  24  24  12  12  24  24
#     4   9  17  31  49  74 100 130 162 197 247 301
#     4  10  18  28  45  71 100 128 164 203 240 292
#     4   9  17  29  48  72 100 131 162 199 245 293
#     4   9  16  28  49  75 100 130 164 198 238 290
#     4   9  18  30  44  65  98 135 163 196 244 293
#     4   9  17  32  52  73  98 130 167 203 244 298
#     4  10  20  36  54  73  97 128 164 208 256 297
#
# _framework density 17.424295999999998
#
# number of rings (size 3 to 8) (size 9 to 14) (size 15 to 20)
#    0.000    2.667    0.000    3.667    1.167    4.000 
#    4.500    4.583    0.000    0.000    0.000    0.000 
#    0.833    0.667    1.000    0.000    0.000    0.000 
#
# Total GULP energy -1785269.285292 kJ/mol
# GULP energy per Si atom -12397.703370 kJ/mol
# Density = 1.738464 g / cm^3
# Si number density = 17.424296 Si / 1000 Ang^3
#
#
#
# Elastic Constant Matrix: (Units=GPa)
#
#
# Indices 1 2 3 4 5 6 
#
# 1 61.7180 29.5435 42.2746 0.0000 0.0000 0.0000
# 2 29.5435 61.7180 42.2746 0.0000 0.0000 0.0000
# 3 42.2746 42.2746 157.5984 0.0000 0.0000 0.0000
# 4 0.0000 0.0000 0.0000 21.2414 0.0000 0.0000
# 5 0.0000 0.0000 0.0000 0.0000 21.2414 0.0000
# 6 0.0000 0.0000 0.0000 0.0000 0.0000 16.0872
#
#
#
# Elastic Compliance Matrix: (Units=1/GPa)
#
#
# Indices 1 2 3 4 5 6 
#
# 1 0.022831 -0.008250 -0.003911 0.000000 0.000000 0.000000
# 2 -0.008250 0.022831 -0.003911 0.000000 0.000000 0.000000
# 3 -0.003911 -0.003911 0.008444 0.000000 0.000000 0.000000
# 4 0.000000 0.000000 0.000000 0.047078 0.000000 0.000000
# 5 0.000000 0.000000 0.000000 0.000000 0.047078 0.000000
# 6 0.000000 0.000000 0.000000 0.000000 0.000000 0.062161
#
#
# Mechanical properties :
#
#
# Convention : Reuss Voigt Hill
#
# Bulk Modulus (GPa) = 45.53586 56.57997 51.05791
# Shear Modulus (GPa) = 20.00906 22.84346 21.42626
#
# Velocity S-wave (km/s) = 3.39240 3.62472 3.51048
# Velocity P-wave (km/s) = 6.44475 7.07534 6.76739
#
# Compressibility (1/GPa) = 0.02196072
#
# Stress axis : x y z
#
# Youngs Moduli (GPa) = 43.80043 43.80043 118.43318
#
# Poissons Ratio (x) = 0.36134 0.46322
# Poissons Ratio (y) = 0.36134 0.46322
# Poissons Ratio (z) = 0.17132 0.17132
#
# Static dielectric constant tensor:
#      x y z
#    x 3.019510 0.000000 0.000000 
#    y 0.000000 3.019510 0.000000 
#    z 0.000000 0.000000 3.447830 
# 
# 
# High freq. dielectric constant tensor:
#      x y z
#    x 1.641740 0.000000 0.000000 
#    y 0.000000 1.641740 0.000000 
#    z 0.000000 0.000000 1.691300 
# 
# From -- ./inp_files/5623.got.cif
#   From: 2010.03.12/outbox.cif.g09.slc.cpg/sg193_3_cif.got.tgz:5623.got - 2010.04.01 12:20:39.
