data_PCOD8329995
_publ_section_title
;
Structure prediction by ZEFSAII (Michael W. Deem and Ramdas Pophale) SiO2 
 PCOD8329995
Probable space group: P 63/M C M
;
_chemical_formula_sum "Si O2"
_cell_formula_units_Z 96
_cell_length_a 13.622507
_cell_length_b 13.622507
_cell_length_c 37.020041
_cell_angle_alpha 90.000000
_cell_angle_beta 90.000000
_cell_angle_gamma 120.000000
_cell_volume 5949.515586
_symmetry_space_group_name_H-M "P 63/M C M"
_symmetry_group_IT_number 193
_symmetry_cell_setting 'hexagonal'
loop_
_space_group_symop_operation_xyz
x,y,z
x-y,x,1/2+z
-y,x-y,z
-x,-y,1/2+z
-x+y,-x,z
y,-x+y,1/2+z
x-y,-y,1/2-z
-x,-x+y,1/2-z
y,x,1/2-z
-y,-x,-z
-x+y,y,-z
x,x-y,-z
-x,-y,-z
-x+y,-x,1/2-z
y,-x+y,-z
x,y,1/2-z
x-y,x,-z
-y,x-y,1/2-z
-x+y,y,1/2+z
x,x-y,1/2+z
-y,-x,1/2+z
y,x,z
x-y,-y,z
-x,-x+y,z
loop_
_atom_site_type_symbol
_atom_site_label
_atom_site_fract_x
_atom_site_fract_y
_atom_site_fract_z
Si Si1 0.461385 0.790183 0.289564
Si Si2 0.334385 0.869741 0.397970
Si Si3 0.668645 0.129981 0.517493
Si Si4 0.543967 0.671461 0.635148
O O1 0.337268 0.779809 0.292886
O O2 0.514236 0.841551 0.250000
O O3 0.542415 0.868657 0.321243
O O4 0.328286 0.846070 0.440282
O O5 0.210060 0.795230 0.380904
O O6 0.419363 0.833730 0.380193
O O7 0.374725 0.000000 0.389461
O O8 0.791925 0.208076 0.500000
O O9 0.580819 0.161637 0.500000
O O10 0.632378 0.000000 0.509357
O O11 0.632907 0.632907 0.622742
#
# Coordination Sequence:
#
# PCOD8329995 Si02
#       4
#    24  24  24  24
#     4   8  14  27  46  65  96 129 153 188 228 269
#     4  10  20  32  47  70  98 121 153 199 236 277
#     4  10  20  33  49  70  94 122 155 192 237 285
#     4  11  19  30  50  70  94 129 161 189 230 281
#
# _framework density 16.135767000000001
#
# number of rings (size 3 to 8) (size 9 to 14) (size 15 to 20)
#    0.500    1.750    2.500    2.250    0.000    3.500 
#    0.000    0.000    0.000    1.500    0.000    0.000 
#    0.000    0.000    0.000    0.000    0.000    0.000 
#
# Total GULP energy -1190087.717640 kJ/mol
# GULP energy per Si atom -12396.747059 kJ/mol
# Density = 1.609904 g / cm^3
# Si number density = 16.135767 Si / 1000 Ang^3
#
#
#
# Elastic Constant Matrix: (Units=GPa)
#
#
# Indices 1 2 3 4 5 6 
#
# 1 78.0259 40.9185 43.9113 0.0000 0.0000 0.0000
# 2 40.9185 78.0259 43.9113 0.0000 0.0000 0.0000
# 3 43.9113 43.9113 119.0673 0.0000 0.0000 0.0000
# 4 0.0000 0.0000 0.0000 19.6331 0.0000 0.0000
# 5 0.0000 0.0000 0.0000 0.0000 19.6331 0.0000
# 6 0.0000 0.0000 0.0000 0.0000 0.0000 18.5537
#
#
#
# Elastic Compliance Matrix: (Units=1/GPa)
#
#
# Indices 1 2 3 4 5 6 
#
# 1 0.019251 -0.007698 -0.004261 0.000000 0.000000 0.000000
# 2 -0.007698 0.019251 -0.004261 0.000000 0.000000 0.000000
# 3 -0.004261 -0.004261 0.011541 0.000000 0.000000 0.000000
# 4 0.000000 0.000000 0.000000 0.050934 0.000000 0.000000
# 5 0.000000 0.000000 0.000000 0.000000 0.050934 0.000000
# 6 0.000000 0.000000 0.000000 0.000000 0.000000 0.053898
#
#
# Mechanical properties :
#
#
# Convention : Reuss Voigt Hill
#
# Bulk Modulus (GPa) = 56.80299 59.17791 57.99045
# Shear Modulus (GPa) = 20.48199 21.32249 20.90224
#
# Velocity S-wave (km/s) = 3.56666 3.63911 3.60307
# Velocity P-wave (km/s) = 7.22780 7.37646 7.30250
#
# Compressibility (1/GPa) = 0.01760471
#
# Stress axis : x y z
#
# Youngs Moduli (GPa) = 51.94530 51.94530 86.64534
#
# Poissons Ratio (x) = 0.39986 0.36918
# Poissons Ratio (y) = 0.39986 0.36918
# Poissons Ratio (z) = 0.22133 0.22133
#
# Static dielectric constant tensor:
#      x y z
#    x 2.791600 0.000000 0.000000 
#    y 0.000000 2.791600 0.000000 
#    z 0.000000 0.000000 3.187120 
# 
# 
# High freq. dielectric constant tensor:
#      x y z
#    x 1.588980 0.000000 0.000000 
#    y 0.000000 1.588980 0.000000 
#    z 0.000000 0.000000 1.643820 
# 
# From -- ./inp_files/8777.got.cif
#   From: 2010.03.12/outbox.cif.g09.slc.cpg/sg193_5_cif.got.tgz:8777.got - 2010.04.01 12:20:39.
