data_PCOD8329489
_publ_section_title
;
Structure prediction by ZEFSAII (Michael W. Deem and Ramdas Pophale) SiO2 
 PCOD8329489
Probable space group: P 6/M C C
;
_chemical_formula_sum "Si O2"
_cell_formula_units_Z 144
_cell_length_a 31.083734
_cell_length_b 31.083734
_cell_length_c 8.542549
_cell_angle_alpha 90.000000
_cell_angle_beta 90.000000
_cell_angle_gamma 120.000000
_cell_volume 7147.998915
_symmetry_space_group_name_H-M "P 6/M C C"
_symmetry_group_IT_number 192
_symmetry_cell_setting 'hexagonal'
loop_
_space_group_symop_operation_xyz
x,y,z
x-y,x,z
-y,x-y,z
-x,-y,z
-x+y,-x,z
y,-x+y,z
x-y,-y,1/2-z
-x,-x+y,1/2-z
y,x,1/2-z
-y,-x,1/2-z
-x+y,y,1/2-z
x,x-y,1/2-z
-x,-y,-z
-x+y,-x,-z
y,-x+y,-z
x,y,-z
x-y,x,-z
-y,x-y,-z
-x+y,y,1/2+z
x,x-y,1/2+z
-y,-x,1/2+z
y,x,1/2+z
x-y,-y,1/2+z
-x,-x+y,1/2+z
loop_
_atom_site_type_symbol
_atom_site_label
_atom_site_fract_x
_atom_site_fract_y
_atom_site_fract_z
Si Si1 0.053233 0.480081 0.185305
Si Si2 0.801090 0.853420 0.814747
Si Si3 0.663722 0.516983 0.815200
Si Si4 0.757877 0.149969 0.814075
Si Si5 0.425743 0.666694 0.185656
Si Si6 0.051564 0.755854 0.315737
O O1 0.068578 0.534289 0.250000
O O2 0.093125 0.465273 0.240876
O O3 0.000000 0.438763 0.250000
O O4 0.050973 0.480923 0.000000
O O5 0.844630 0.844630 0.750000
O O6 0.810289 0.905145 0.750000
O O7 0.747918 0.809026 0.752902
O O8 0.803101 0.855366 0.000000
O O9 0.719522 0.556800 0.768667
O O10 0.649722 0.463745 0.745729
O O11 0.657145 0.512422 0.000000
O O12 0.812096 0.187905 0.750000
O O13 0.746642 0.095635 0.760802
O O14 0.755212 0.154569 0.000000
O O15 0.371245 0.628756 0.250000
O O16 0.442688 0.721344 0.250000
O O17 0.425148 0.667136 0.000000
O O18 0.047988 0.755008 0.500000
O O19 0.000000 0.711282 0.250000
#
# Coordination Sequence:
#
# PCOD8329489 Si02
#       6
#    24  24  24  24  24  24
#     4  11  22  40  64  92 122 156 196 243 294 349
#     4  10  19  33  53  80 110 145 185 232 282 336
#     4  12  25  42  62  88 120 159 200 244 293 347
#     4  11  23  40  59  84 116 155 197 241 290 348
#     4  12  25  44  67  94 124 157 195 241 293 351
#     4   9  20  36  57  83 114 148 189 236 287 340
#
# _framework density 20.145499000000001
#
# number of rings (size 3 to 8) (size 9 to 14) (size 15 to 20)
#    0.000    1.167    0.000    7.667    0.000    2.667 
#    0.000    1.667    0.000    0.167    0.000    1.167 
#    0.000    0.000    0.000    0.000    0.000    0.000 
#
# Total GULP energy -1786628.249260 kJ/mol
# GULP energy per Si atom -12407.140620 kJ/mol
# Density = 2.009965 g / cm^3
# Si number density = 20.145499 Si / 1000 Ang^3
#
#
#
# Elastic Constant Matrix: (Units=GPa)
#
#
# Indices 1 2 3 4 5 6 
#
# 1 94.0210 40.8728 40.7555 0.0000 0.0000 0.0000
# 2 40.8728 94.0210 40.7555 0.0000 0.0000 0.0000
# 3 40.7555 40.7555 148.1581 0.0000 0.0000 0.0000
# 4 0.0000 0.0000 0.0000 27.8384 0.0000 0.0000
# 5 0.0000 0.0000 0.0000 0.0000 27.8384 0.0000
# 6 0.0000 0.0000 0.0000 0.0000 0.0000 26.5741
#
#
#
# Elastic Compliance Matrix: (Units=1/GPa)
#
#
# Indices 1 2 3 4 5 6 
#
# 1 0.013853 -0.004962 -0.002446 0.000000 0.000000 0.000000
# 2 -0.004962 0.013853 -0.002446 0.000000 0.000000 0.000000
# 3 -0.002446 -0.002446 0.008095 0.000000 0.000000 0.000000
# 4 0.000000 0.000000 0.000000 0.035922 0.000000 0.000000
# 5 0.000000 0.000000 0.000000 0.000000 0.035922 0.000000
# 6 0.000000 0.000000 0.000000 0.000000 0.000000 0.037631
#
#
# Mechanical properties :
#
#
# Convention : Reuss Voigt Hill
#
# Bulk Modulus (GPa) = 62.13395 64.55195 63.34295
# Shear Modulus (GPa) = 29.35176 30.70459 30.02817
#
# Velocity S-wave (km/s) = 3.82119 3.90826 3.86497
# Velocity P-wave (km/s) = 7.09776 7.24420 7.17136
#
# Compressibility (1/GPa) = 0.01609426
#
# Stress axis : x y z
#
# Youngs Moduli (GPa) = 72.18537 72.18537 123.53118
#
# Poissons Ratio (x) = 0.35819 0.30213
# Poissons Ratio (y) = 0.35819 0.30213
# Poissons Ratio (z) = 0.17655 0.17655
#
# Static dielectric constant tensor:
#      x y z
#    x 3.677370 0.000000 0.000000 
#    y 0.000000 3.677370 0.000000 
#    z 0.000000 0.000000 3.730370 
# 
# 
# High freq. dielectric constant tensor:
#      x y z
#    x 1.790170 0.000000 0.000000 
#    y 0.000000 1.790170 0.000000 
#    z 0.000000 0.000000 1.800870 
# 
# From -- ./inp_files/1148.got.cif
#   From: 2010.03.12/outbox.cif.g09.slc.cpg/sg192_1_cif.got.tgz:1148.got - 2010.04.01 12:16:15.
