data_PCOD8329277
_publ_section_title
;
Structure prediction by ZEFSAII (Michael W. Deem and Ramdas Pophale) SiO2 
 PCOD8329277
Probable space group: P 6/M M M
;
_chemical_formula_sum "Si O2"
_cell_formula_units_Z 108
_cell_length_a 17.021641
_cell_length_b 17.021641
_cell_length_c 23.701364
_cell_angle_alpha 90.000000
_cell_angle_beta 90.000000
_cell_angle_gamma 120.000000
_cell_volume 5947.121690
_symmetry_space_group_name_H-M "P 6/M M M"
_symmetry_group_IT_number 191
_symmetry_cell_setting 'hexagonal'
loop_
_space_group_symop_operation_xyz
x,y,z
x-y,x,z
-y,x-y,z
-x,-y,z
-x+y,-x,z
y,-x+y,z
x-y,-y,-z
-x,-x+y,-z
y,x,-z
-y,-x,-z
-x+y,y,-z
x,x-y,-z
-x,-y,-z
-x+y,-x,-z
y,-x+y,-z
x,y,-z
x-y,x,-z
-y,x-y,-z
-x+y,y,z
x,x-y,z
-y,-x,z
y,x,z
x-y,-y,z
-x,-x+y,z
loop_
_atom_site_type_symbol
_atom_site_label
_atom_site_fract_x
_atom_site_fract_y
_atom_site_fract_z
Si Si1 0.894085 0.607142 0.375891
Si Si2 0.822590 0.822590 0.067195
Si Si3 0.643534 0.000000 0.066800
Si Si4 0.892909 0.446455 0.563165
Si Si5 0.665709 0.510930 0.857935
Si Si6 0.098847 0.726532 0.752488
O O1 0.819844 0.639687 0.390898
O O2 0.861401 0.510764 0.406147
O O3 0.888376 0.585071 0.309595
O O4 0.000000 0.683689 0.392068
O O5 0.821940 0.910970 0.090809
O O6 0.733278 0.733278 0.089010
O O7 0.824034 0.824034 0.000000
O O8 0.555468 0.913300 0.090418
O O9 0.638166 0.000000 0.000000
O O10 0.852076 0.426038 0.500000
O O11 0.000000 0.500000 0.561415
O O12 0.763283 0.526566 0.871582
O O13 0.594942 0.405059 0.855645
O O14 0.662447 0.552308 0.797454
O O15 0.168494 0.831507 0.764376
O O16 0.000000 0.715527 0.758898
#
# Coordination Sequence:
#
# PCOD8329277 Si02
#       6
#    24  12  12  12  24  24
#     4   9  18  33  54  80 110 149 190 231 276 327
#     4   9  17  31  53  79 105 133 167 207 249 297
#     4  11  23  39  57  77 103 137 173 209 255 321
#     4   9  18  32  50  76 112 152 188 228 270 318
#     4  11  23  38  56  79 104 134 170 217 268 319
#     4   9  18  33  55  81 108 139 180 226 272 316
#
# _framework density 18.160045
#
# number of rings (size 3 to 8) (size 9 to 14) (size 15 to 20)
#    0.000    2.333    1.111    1.333    1.556    3.111 
#    0.667    0.000    0.000    1.778    0.000    3.111 
#    0.000    0.000    0.000    5.556    0.000    5.778 
#
# Total GULP energy -1338615.990583 kJ/mol
# GULP energy per Si atom -12394.592505 kJ/mol
# Density = 1.811871 g / cm^3
# Si number density = 18.160045 Si / 1000 Ang^3
#
#
#
# Elastic Constant Matrix: (Units=GPa)
#
#
# Indices 1 2 3 4 5 6 
#
# 1 96.9180 45.1611 39.3808 0.0000 0.0000 0.0000
# 2 45.1611 96.9180 39.3808 0.0000 0.0000 0.0000
# 3 39.3808 39.3808 87.5905 0.0000 0.0000 0.0000
# 4 0.0000 0.0000 0.0000 20.3065 0.0000 0.0000
# 5 0.0000 0.0000 0.0000 0.0000 20.3065 0.0000
# 6 0.0000 0.0000 0.0000 0.0000 0.0000 25.8785
#
#
#
# Elastic Compliance Matrix: (Units=1/GPa)
#
#
# Indices 1 2 3 4 5 6 
#
# 1 0.014348 -0.004973 -0.004215 0.000000 0.000000 0.000000
# 2 -0.004973 0.014348 -0.004215 0.000000 0.000000 0.000000
# 3 -0.004215 -0.004215 0.015207 0.000000 0.000000 0.000000
# 4 0.000000 0.000000 0.000000 0.049245 0.000000 0.000000
# 5 0.000000 0.000000 0.000000 0.000000 0.049245 0.000000
# 6 0.000000 0.000000 0.000000 0.000000 0.000000 0.038642
#
#
# Mechanical properties :
#
#
# Convention : Reuss Voigt Hill
#
# Bulk Modulus (GPa) = 58.49044 58.80798 58.64921
# Shear Modulus (GPa) = 23.41474 23.79854 23.60664
#
# Velocity S-wave (km/s) = 3.59465 3.62400 3.60935
# Velocity P-wave (km/s) = 7.03612 7.06856 7.05236
#
# Compressibility (1/GPa) = 0.01709681
#
# Stress axis : x y z
#
# Youngs Moduli (GPa) = 69.69619 69.69619 65.75977
#
# Poissons Ratio (x) = 0.34661 0.27717
# Poissons Ratio (y) = 0.34661 0.27717
# Poissons Ratio (z) = 0.29377 0.29377
#
# Static dielectric constant tensor:
#      x y z
#    x 3.428540 0.000000 0.000000 
#    y 0.000000 3.428540 0.000000 
#    z 0.000000 0.000000 3.381020 
# 
# 
# High freq. dielectric constant tensor:
#      x y z
#    x 1.697940 0.000000 0.000000 
#    y 0.000000 1.697940 0.000000 
#    z 0.000000 0.000000 1.698400 
# 
# From -- ./inp_files/8465.got.cif
#   From: 2010.03.12/outbox.cif.g09.slc.cpg/sg191_5_cif.got.tgz:8465.got - 2010.04.01 12:09:02.
