data_PCOD8329920
_publ_section_title
;
Structure prediction by ZEFSAII (Michael W. Deem and Ramdas Pophale) SiO2 
 PCOD8329920
Probable space group: P 63/M C M
;
_chemical_formula_sum "Si O2"
_cell_formula_units_Z 144
_cell_length_a 32.491090
_cell_length_b 32.491090
_cell_length_c 8.772135
_cell_angle_alpha 90.000000
_cell_angle_beta 90.000000
_cell_angle_gamma 120.000000
_cell_volume 8019.817780
_symmetry_space_group_name_H-M "P 63/M C M"
_symmetry_group_IT_number 193
_symmetry_cell_setting 'hexagonal'
loop_
_space_group_symop_operation_xyz
x,y,z
x-y,x,1/2+z
-y,x-y,z
-x,-y,1/2+z
-x+y,-x,z
y,-x+y,1/2+z
x-y,-y,1/2-z
-x,-x+y,1/2-z
y,x,1/2-z
-y,-x,-z
-x+y,y,-z
x,x-y,-z
-x,-y,-z
-x+y,-x,1/2-z
y,-x+y,-z
x,y,1/2-z
x-y,x,-z
-y,x-y,1/2-z
-x+y,y,1/2+z
x,x-y,1/2+z
-y,-x,1/2+z
y,x,z
x-y,-y,z
-x,-x+y,z
loop_
_atom_site_type_symbol
_atom_site_label
_atom_site_fract_x
_atom_site_fract_y
_atom_site_fract_z
Si Si1 0.654549 0.707761 0.423485
Si Si2 0.862767 0.474901 0.571457
Si Si3 0.808075 0.701220 0.569588
Si Si4 0.053389 0.621446 0.427953
Si Si5 0.052948 0.863087 0.429330
Si Si6 0.332826 0.754961 0.069386
O O1 0.635766 0.702630 0.250000
O O2 0.699333 0.699333 0.429928
O O3 0.669594 0.758709 0.488022
O O4 0.613851 0.670945 0.533197
O O5 0.874374 0.437187 0.500000
O O6 0.866282 0.471891 0.750000
O O7 0.904041 0.525660 0.517930
O O8 0.809159 0.462698 0.526217
O O9 0.841432 0.682864 0.500000
O O10 0.803104 0.693740 0.750000
O O11 0.828220 0.755827 0.522923
O O12 0.061756 0.618783 0.250000
O O13 0.000000 0.578715 0.474057
O O14 0.084951 0.915049 0.500000
O O15 0.053695 0.868633 0.250000
O O16 0.000000 0.841251 0.495337
O O17 0.331517 0.747857 0.250000
O O18 0.281111 0.718890 0.000000
O O19 0.371687 0.743373 0.000000
#
# Coordination Sequence:
#
# PCOD8329920 Si02
#       6
#    24  24  24  24  24  24
#     4  10  20  34  53  76 102 133 170 211 253 301
#     4  10  21  37  57  81 109 141 177 219 266 314
#     4  10  19  32  50  73 102 133 166 205 250 301
#     4  10  21  37  57  80 105 136 175 218 265 314
#     4   9  18  31  47  69  96 125 158 198 245 296
#     4  10  20  34  54  80 110 143 178 216 258 306
#
# _framework density 17.95552
#
# number of rings (size 3 to 8) (size 9 to 14) (size 15 to 20)
#    0.000    2.167    0.000    3.167    0.000    6.000 
#    0.000    0.833    0.000    2.167    0.000    0.000 
#    0.000    0.000    0.000    0.000    0.000    0.000 
#
# Total GULP energy -1785417.095556 kJ/mol
# GULP energy per Si atom -12398.729830 kJ/mol
# Density = 1.791465 g / cm^3
# Si number density = 17.955520 Si / 1000 Ang^3
#
#
#
# Elastic Constant Matrix: (Units=GPa)
#
#
# Indices 1 2 3 4 5 6 
#
# 1 106.6587 48.2988 29.2209 0.0000 0.0000 0.0000
# 2 48.2988 106.6587 29.2209 0.0000 0.0000 0.0000
# 3 29.2209 29.2209 53.4508 0.0000 0.0000 0.0000
# 4 0.0000 0.0000 0.0000 32.3582 0.0000 0.0000
# 5 0.0000 0.0000 0.0000 0.0000 32.3582 0.0000
# 6 0.0000 0.0000 0.0000 0.0000 0.0000 29.1799
#
#
#
# Elastic Compliance Matrix: (Units=1/GPa)
#
#
# Indices 1 2 3 4 5 6 
#
# 1 0.012632 -0.004503 -0.004444 0.000000 0.000000 0.000000
# 2 -0.004503 0.012632 -0.004444 0.000000 0.000000 0.000000
# 3 -0.004444 -0.004444 0.023568 0.000000 0.000000 0.000000
# 4 0.000000 0.000000 0.000000 0.030904 0.000000 0.000000
# 5 0.000000 0.000000 0.000000 0.000000 0.030904 0.000000
# 6 0.000000 0.000000 0.000000 0.000000 0.000000 0.034270
#
#
# Mechanical properties :
#
#
# Convention : Reuss Voigt Hill
#
# Bulk Modulus (GPa) = 45.35167 53.36105 49.35636
# Shear Modulus (GPa) = 27.92612 29.44776 28.68694
#
# Velocity S-wave (km/s) = 3.94800 4.05413 4.00142
# Velocity P-wave (km/s) = 6.78932 7.19011 6.99259
#
# Compressibility (1/GPa) = 0.02204991
#
# Stress axis : x y z
#
# Youngs Moduli (GPa) = 79.16209 79.16209 42.43017
#
# Poissons Ratio (x) = 0.35645 0.18857
# Poissons Ratio (y) = 0.35645 0.18857
# Poissons Ratio (z) = 0.35182 0.35182
#
# Static dielectric constant tensor:
#      x y z
#    x 3.342110 0.000000 0.000000 
#    y 0.000000 3.342110 0.000000 
#    z 0.000000 0.000000 3.418410 
# 
# 
# High freq. dielectric constant tensor:
#      x y z
#    x 1.690030 0.000000 0.000000 
#    y 0.000000 1.690030 0.000000 
#    z 0.000000 0.000000 1.708710 
# 
# From -- ./inp_files/1502.got.cif
#   From: 2010.03.12/outbox.cif.g09.slc.cpg/sg193_1_cif.got.tgz:1502.got - 2010.04.01 12:20:39.
