data_PCOD8329058
_publ_section_title
;
Structure prediction by ZEFSAII (Michael W. Deem and Ramdas Pophale) SiO2 
 PCOD8329058
Probable space group: P 6/M M M
;
_chemical_formula_sum "Si O2"
_cell_formula_units_Z 96
_cell_length_a 16.843347
_cell_length_b 16.843347
_cell_length_c 24.108822
_cell_angle_alpha 90.000000
_cell_angle_beta 90.000000
_cell_angle_gamma 120.000000
_cell_volume 5923.295702
_symmetry_space_group_name_H-M "P 6/M M M"
_symmetry_group_IT_number 191
_symmetry_cell_setting 'hexagonal'
loop_
_space_group_symop_operation_xyz
x,y,z
x-y,x,z
-y,x-y,z
-x,-y,z
-x+y,-x,z
y,-x+y,z
x-y,-y,-z
-x,-x+y,-z
y,x,-z
-y,-x,-z
-x+y,y,-z
x,x-y,-z
-x,-y,-z
-x+y,-x,-z
y,-x+y,-z
x,y,-z
x-y,x,-z
-y,x-y,-z
-x+y,y,z
x,x-y,z
-y,-x,z
y,x,z
x-y,-y,z
-x,-x+y,z
loop_
_atom_site_type_symbol
_atom_site_label
_atom_site_fract_x
_atom_site_fract_y
_atom_site_fract_z
Si Si1 0.390665 0.286146 0.621748
Si Si2 0.554178 0.108355 0.437873
Si Si3 0.668160 0.153071 0.732722
Si Si4 0.000000 0.405145 0.062125
Si Si5 0.331188 0.482144 0.144263
O O1 0.357896 0.178948 0.607786
O O2 0.314384 0.314384 0.602988
O O3 0.489638 0.349184 0.592673
O O4 0.405047 0.303657 0.687660
O O5 0.574743 0.149485 0.500000
O O6 0.500000 0.000000 0.439457
O O7 0.566033 0.132066 0.720032
O O8 0.737490 0.262510 0.729744
O O9 0.675159 0.116586 0.793786
O O10 0.913769 0.329029 0.096381
O O11 0.000000 0.500000 0.060128
O O12 0.000000 0.369713 0.000000
O O13 0.250225 0.500449 0.130598
O O14 0.422432 0.577569 0.140865
#
# Coordination Sequence:
#
# PCOD8329058 Si02
#       5
#    24  12  24  12  24
#     4  10  20  33  50  72  98 131 167 206 246 290
#     4   9  18  34  52  72 100 132 162 196 234 282
#     4   9  16  26  43  66  92 117 149 189 231 274
#     4   9  18  30  40  56  82 110 141 181 223 265
#     4   9  17  28  43  62  83 113 148 185 222 266
#
# _framework density 16.207194000000001
#
# number of rings (size 3 to 8) (size 9 to 14) (size 15 to 20)
#    0.000    2.750    1.250    0.500    1.750    3.000 
#    0.750    0.000    0.000    1.750    0.000    0.000 
#    0.000    0.000    0.000    6.625    0.000    1.625 
#
# Total GULP energy -1189526.498803 kJ/mol
# GULP energy per Si atom -12390.901029 kJ/mol
# Density = 1.617031 g / cm^3
# Si number density = 16.207194 Si / 1000 Ang^3
#
#
#
# Elastic Constant Matrix: (Units=GPa)
#
#
# Indices 1 2 3 4 5 6 
#
# 1 63.4097 18.2250 26.0356 0.0000 0.0000 0.0000
# 2 18.2250 63.4097 26.0356 0.0000 0.0000 0.0000
# 3 26.0356 26.0356 106.2300 0.0000 0.0000 0.0000
# 4 0.0000 0.0000 0.0000 16.5598 0.0000 0.0000
# 5 0.0000 0.0000 0.0000 0.0000 16.5598 0.0000
# 6 0.0000 0.0000 0.0000 0.0000 0.0000 22.5924
#
#
#
# Elastic Compliance Matrix: (Units=1/GPa)
#
#
# Indices 1 2 3 4 5 6 
#
# 1 0.018325 -0.003806 -0.003559 0.000000 0.000000 0.000000
# 2 -0.003806 0.018325 -0.003559 0.000000 0.000000 0.000000
# 3 -0.003559 -0.003559 0.011158 0.000000 0.000000 0.000000
# 4 0.000000 0.000000 0.000000 0.060387 0.000000 0.000000
# 5 0.000000 0.000000 0.000000 0.000000 0.060387 0.000000
# 6 0.000000 0.000000 0.000000 0.000000 0.000000 0.044263
#
#
# Mechanical properties :
#
#
# Convention : Reuss Voigt Hill
#
# Bulk Modulus (GPa) = 38.51673 41.51572 40.01623
# Shear Modulus (GPa) = 20.54688 21.99263 21.26975
#
# Velocity S-wave (km/s) = 3.56443 3.68770 3.62659
# Velocity P-wave (km/s) = 6.38412 6.61841 6.50232
#
# Compressibility (1/GPa) = 0.02596274
#
# Stress axis : x y z
#
# Youngs Moduli (GPa) = 54.56888 54.56888 89.62311
#
# Poissons Ratio (x) = 0.20768 0.31893
# Poissons Ratio (y) = 0.20768 0.31893
# Poissons Ratio (z) = 0.19419 0.19419
#
# Static dielectric constant tensor:
#      x y z
#    x 2.890780 0.000000 0.000000 
#    y 0.000000 2.890780 0.000000 
#    z 0.000000 0.000000 3.425740 
# 
# 
# High freq. dielectric constant tensor:
#      x y z
#    x 1.589150 0.000000 0.000000 
#    y 0.000000 1.589150 0.000000 
#    z 0.000000 0.000000 1.636560 
# 
# From -- ./inp_files/8259.got.cif
#   From: 2010.03.12/outbox.cif.g09.slc.cpg/sg191_5_cif.got.tgz:8259.got - 2010.04.01 12:09:02.
