data_PCOD8329550
_publ_section_title
;
Structure prediction by ZEFSAII (Michael W. Deem and Ramdas Pophale) SiO2 
 PCOD8329550
Probable space group: P 6/M C C
;
_chemical_formula_sum "Si O2"
_cell_formula_units_Z 144
_cell_length_a 32.323805
_cell_length_b 32.323805
_cell_length_c 8.743478
_cell_angle_alpha 90.000000
_cell_angle_beta 90.000000
_cell_angle_gamma 120.000000
_cell_volume 7911.517801
_symmetry_space_group_name_H-M "P 6/M C C"
_symmetry_group_IT_number 192
_symmetry_cell_setting 'hexagonal'
loop_
_space_group_symop_operation_xyz
x,y,z
x-y,x,z
-y,x-y,z
-x,-y,z
-x+y,-x,z
y,-x+y,z
x-y,-y,1/2-z
-x,-x+y,1/2-z
y,x,1/2-z
-y,-x,1/2-z
-x+y,y,1/2-z
x,x-y,1/2-z
-x,-y,-z
-x+y,-x,-z
y,-x+y,-z
x,y,-z
x-y,x,-z
-y,x-y,-z
-x+y,y,1/2+z
x,x-y,1/2+z
-y,-x,1/2+z
y,x,1/2+z
x-y,-y,1/2+z
-x,-x+y,1/2+z
loop_
_atom_site_type_symbol
_atom_site_label
_atom_site_fract_x
_atom_site_fract_y
_atom_site_fract_z
Si Si1 0.806095 0.699751 0.320085
Si Si2 0.383697 0.282875 0.318423
Si Si3 0.472115 0.613906 0.177667
Si Si4 0.049630 0.434003 0.818225
Si Si5 0.948504 0.138740 0.679178
Si Si6 0.191782 0.721742 0.319432
O O1 0.842114 0.684227 0.250000
O O2 0.801755 0.689627 0.500000
O O3 0.755079 0.669011 0.239237
O O4 0.823899 0.754717 0.281549
O O5 0.385380 0.285302 0.500000
O O6 0.395372 0.333699 0.251348
O O7 0.420603 0.267099 0.257400
O O8 0.421168 0.578833 0.250000
O O9 0.513027 0.602663 0.234621
O O10 0.488135 0.668307 0.220702
O O11 0.465383 0.605434 0.000000
O O12 0.000000 0.425413 0.750000
O O13 0.047477 0.428821 0.000000
O O14 0.912647 0.087354 0.750000
O O15 0.950837 0.132370 0.500000
O O16 0.000000 0.157254 0.750000
O O17 0.243535 0.756466 0.250000
O O18 0.190500 0.728993 0.500000
#
# Coordination Sequence:
#
# PCOD8329550 Si02
#       6
#    24  24  24  24  24  24
#     4  10  20  34  51  74 105 140 177 218 258 305
#     4  11  21  33  51  75 105 143 180 219 263 308
#     4   9  20  36  55  78 105 134 170 214 261 314
#     4  10  21  37  53  74 103 137 178 222 264 310
#     4  10  21  37  58  81 107 138 174 213 257 305
#     4  10  20  35  54  79 107 137 173 215 262 315
#
# _framework density 18.201311
#
# number of rings (size 3 to 8) (size 9 to 14) (size 15 to 20)
#    0.000    2.000    0.000    5.000    0.000    7.000 
#    0.000    3.333    0.000    0.500    0.000    1.167 
#    0.000    0.000    0.000    0.000    0.000    0.000 
#
# Total GULP energy -1786092.478433 kJ/mol
# GULP energy per Si atom -12403.419989 kJ/mol
# Density = 1.815988 g / cm^3
# Si number density = 18.201311 Si / 1000 Ang^3
#
#
#
# Elastic Constant Matrix: (Units=GPa)
#
#
# Indices 1 2 3 4 5 6 
#
# 1 99.3135 44.5792 40.9237 0.0000 0.0000 0.0000
# 2 44.5792 99.3135 40.9237 0.0000 0.0000 0.0000
# 3 40.9237 40.9237 100.6131 0.0000 0.0000 0.0000
# 4 0.0000 0.0000 0.0000 32.8523 0.0000 0.0000
# 5 0.0000 0.0000 0.0000 0.0000 32.8523 0.0000
# 6 0.0000 0.0000 0.0000 0.0000 0.0000 27.3671
#
#
#
# Elastic Compliance Matrix: (Units=1/GPa)
#
#
# Indices 1 2 3 4 5 6 
#
# 1 0.013656 -0.004614 -0.003678 0.000000 0.000000 0.000000
# 2 -0.004614 0.013656 -0.003678 0.000000 0.000000 0.000000
# 3 -0.003678 -0.003678 0.012931 0.000000 0.000000 0.000000
# 4 0.000000 0.000000 0.000000 0.030439 0.000000 0.000000
# 5 0.000000 0.000000 0.000000 0.000000 0.030439 0.000000
# 6 0.000000 0.000000 0.000000 0.000000 0.000000 0.036540
#
#
# Mechanical properties :
#
#
# Convention : Reuss Voigt Hill
#
# Bulk Modulus (GPa) = 61.33690 61.34370 61.34030
# Shear Modulus (GPa) = 29.93397 30.13523 30.03460
#
# Velocity S-wave (km/s) = 4.05977 4.07340 4.06659
# Velocity P-wave (km/s) = 7.46646 7.47660 7.47153
#
# Compressibility (1/GPa) = 0.01630340
#
# Stress axis : x y z
#
# Youngs Moduli (GPa) = 73.22913 73.22913 77.33531
#
# Poissons Ratio (x) = 0.33790 0.28440
# Poissons Ratio (y) = 0.33790 0.28440
# Poissons Ratio (z) = 0.26930 0.26930
#
# Static dielectric constant tensor:
#      x y z
#    x 3.666830 0.000000 0.000000 
#    y 0.000000 3.666830 0.000000 
#    z 0.000000 0.000000 3.428300 
# 
# 
# High freq. dielectric constant tensor:
#      x y z
#    x 1.696810 0.000000 0.000000 
#    y 0.000000 1.696810 0.000000 
#    z 0.000000 0.000000 1.720840 
# 
# From -- ./inp_files/1137.got.cif
#   From: 2010.03.12/outbox.cif.g09.slc.cpg/sg192_1_cif.got.tgz:1137.got - 2010.04.01 12:16:15.
