data_PCOD8329355
_publ_section_title
;
Structure prediction by ZEFSAII (Michael W. Deem and Ramdas Pophale) SiO2 
 PCOD8329355
Probable space group: P 6/M C C
;
_chemical_formula_sum "Si O2"
_cell_formula_units_Z 96
_cell_length_a 15.130208
_cell_length_b 15.130208
_cell_length_c 22.903348
_cell_angle_alpha 90.000000
_cell_angle_beta 90.000000
_cell_angle_gamma 120.000000
_cell_volume 4540.664359
_symmetry_space_group_name_H-M "P 6/M C C"
_symmetry_group_IT_number 192
_symmetry_cell_setting 'hexagonal'
loop_
_space_group_symop_operation_xyz
x,y,z
x-y,x,z
-y,x-y,z
-x,-y,z
-x+y,-x,z
y,-x+y,z
x-y,-y,1/2-z
-x,-x+y,1/2-z
y,x,1/2-z
-y,-x,1/2-z
-x+y,y,1/2-z
x,x-y,1/2-z
-x,-y,-z
-x+y,-x,-z
y,-x+y,-z
x,y,-z
x-y,x,-z
-y,x-y,-z
-x+y,y,1/2+z
x,x-y,1/2+z
-y,-x,1/2+z
y,x,1/2+z
x-y,-y,1/2+z
-x,-x+y,1/2+z
loop_
_atom_site_type_symbol
_atom_site_label
_atom_site_fract_x
_atom_site_fract_y
_atom_site_fract_z
Si Si1 0.580422 0.795972 0.000000
Si Si2 0.223398 0.148069 0.124754
Si Si3 0.774568 0.020999 0.000000
Si Si4 0.219620 0.762644 0.627484
Si Si5 0.883589 0.453975 0.318460
O O1 0.517590 0.776621 0.940168
O O2 0.629386 0.722042 0.000000
O O3 0.679062 0.909024 0.000000
O O4 0.153276 0.190358 0.152436
O O5 0.202298 0.149947 0.055657
O O6 0.343670 0.220439 0.137176
O O7 0.188518 0.650223 0.647734
O O8 0.313130 0.846844 0.665320
O O9 0.870483 0.435242 0.250000
O O10 0.000000 0.500000 0.338374
#
# Coordination Sequence:
#
# PCOD8329355 Si02
#       5
#    12  24  12  24  24
#     4  10  22  34  62  94 137 175 212 243 332 387
#     4  11  19  32  55  90 134 177 214 244 299 372
#     4  10  16  30  51  86 131 179 212 237 277 375
#     4  11  23  42  65  91 134 169 211 279 326 385
#     4  11  25  44  68  95 117 163 228 277 337 389
#
# _framework density 21.142282000000002
#
# number of rings (size 3 to 8) (size 9 to 14) (size 15 to 20)
#    0.000    1.250    5.000    3.000    3.500    1.000 
#    0.000    2.500    0.000    0.000    0.000    0.000 
#    0.000   12.000    0.000    0.000    0.000    0.000 
#
# Total GULP energy -1189636.060105 kJ/mol
# GULP energy per Si atom -12392.042293 kJ/mol
# Density = 2.109416 g / cm^3
# Si number density = 21.142282 Si / 1000 Ang^3
#
#
#
# Elastic Constant Matrix: (Units=GPa)
#
#
# Indices 1 2 3 4 5 6 
#
# 1 99.3702 28.0326 30.2515 0.0000 0.0000 0.0000
# 2 28.0326 99.3702 30.2515 0.0000 0.0000 0.0000
# 3 30.2515 30.2515 81.8155 0.0000 0.0000 0.0000
# 4 0.0000 0.0000 0.0000 29.4890 0.0000 0.0000
# 5 0.0000 0.0000 0.0000 0.0000 29.4890 0.0000
# 6 0.0000 0.0000 0.0000 0.0000 0.0000 35.6688
#
#
#
# Elastic Compliance Matrix: (Units=1/GPa)
#
#
# Indices 1 2 3 4 5 6 
#
# 1 0.011769 -0.002248 -0.003520 0.000000 0.000000 0.000000
# 2 -0.002248 0.011769 -0.003520 0.000000 0.000000 0.000000
# 3 -0.003520 -0.003520 0.014826 0.000000 0.000000 0.000000
# 4 0.000000 0.000000 0.000000 0.033911 0.000000 0.000000
# 5 0.000000 0.000000 0.000000 0.000000 0.033911 0.000000
# 6 0.000000 0.000000 0.000000 0.000000 0.000000 0.028036
#
#
# Mechanical properties :
#
#
# Convention : Reuss Voigt Hill
#
# Bulk Modulus (GPa) = 50.54008 50.84747 50.69377
# Shear Modulus (GPa) = 31.36834 31.73070 31.54952
#
# Velocity S-wave (km/s) = 3.85603 3.87824 3.86715
# Velocity P-wave (km/s) = 6.61679 6.64505 6.63094
#
# Compressibility (1/GPa) = 0.01978628
#
# Stress axis : x y z
#
# Youngs Moduli (GPa) = 84.96610 84.96610 67.44912
#
# Poissons Ratio (x) = 0.19104 0.23745
# Poissons Ratio (y) = 0.19104 0.23745
# Poissons Ratio (z) = 0.29911 0.29911
#
# Static dielectric constant tensor:
#      x y z
#    x 3.872760 0.000000 0.000000 
#    y 0.000000 3.872760 0.000000 
#    z 0.000000 0.000000 3.667290 
# 
# 
# High freq. dielectric constant tensor:
#      x y z
#    x 1.828240 0.000000 0.000000 
#    y 0.000000 1.828240 0.000000 
#    z 0.000000 0.000000 1.805360 
# 
# From -- ./inp_files/6387.got.cif
#   From: 2010.03.12/outbox.cif.g09.slc.cpg/sg192_4_cif.got.tgz:6387.got - 2010.04.01 12:16:15.
