data_PCOD8329702
_publ_section_title
;
Structure prediction by ZEFSAII (Michael W. Deem and Ramdas Pophale) SiO2 
 PCOD8329702
Probable space group: P 6/M C C
;
_chemical_formula_sum "Si O2"
_cell_formula_units_Z 192
_cell_length_a 23.593579
_cell_length_b 23.593579
_cell_length_c 23.503450
_cell_angle_alpha 90.000000
_cell_angle_beta 90.000000
_cell_angle_gamma 120.000000
_cell_volume 11330.521488
_symmetry_space_group_name_H-M "P 6/M C C"
_symmetry_group_IT_number 192
_symmetry_cell_setting 'hexagonal'
loop_
_space_group_symop_operation_xyz
x,y,z
x-y,x,z
-y,x-y,z
-x,-y,z
-x+y,-x,z
y,-x+y,z
x-y,-y,1/2-z
-x,-x+y,1/2-z
y,x,1/2-z
-y,-x,1/2-z
-x+y,y,1/2-z
x,x-y,1/2-z
-x,-y,-z
-x+y,-x,-z
y,-x+y,-z
x,y,-z
x-y,x,-z
-y,x-y,-z
-x+y,y,1/2+z
x,x-y,1/2+z
-y,-x,1/2+z
y,x,1/2+z
x-y,-y,1/2+z
-x,-x+y,1/2+z
loop_
_atom_site_type_symbol
_atom_site_label
_atom_site_fract_x
_atom_site_fract_y
_atom_site_fract_z
Si Si1 0.532850 0.077353 0.344883
Si Si2 0.111098 0.678765 0.153739
Si Si3 0.352340 0.879139 0.063417
Si Si4 0.714587 0.902972 0.565767
Si Si5 0.319334 0.971897 0.880562
Si Si6 0.219177 0.794728 0.565578
Si Si7 0.352909 0.425839 0.728377
Si Si8 0.853972 0.919149 0.067559
O O1 0.609160 0.106246 0.338800
O O2 0.525775 0.115533 0.398301
O O3 0.499848 0.094062 0.291471
O O4 0.500000 0.000000 0.356094
O O5 0.171573 0.724388 0.113219
O O6 0.117452 0.697844 0.221310
O O7 0.048087 0.677839 0.126847
O O8 0.345378 0.943689 0.069740
O O9 0.282637 0.814721 0.076986
O O10 0.373870 0.875843 0.000000
O O11 0.720889 0.923729 0.500000
O O12 0.711487 0.959783 0.601892
O O13 0.651829 0.832214 0.576081
O O14 0.778285 0.900601 0.586464
O O15 0.310542 0.928041 0.824646
O O16 0.245578 0.811255 0.500000
O O17 0.398131 0.398131 0.750000
O O18 0.893128 0.884988 0.092971
O O19 0.859767 0.922553 0.000000
#
# Coordination Sequence:
#
# PCOD8329702 Si02
#       8
#    24  24  24  24  24  24  24  24
#     4  11  18  31  51  79 101 130 167 212 260 312
#     4  11  20  29  51  79 100 134 172 210 245 310
#     4   9  18  34  47  63 101 139 163 208 264 298
#     4   9  18  32  47  64  98 142 171 202 258 315
#     4   9  17  29  46  70  97 134 167 205 248 307
#     4   9  20  35  47  66 103 142 172 205 251 308
#     4   9  17  30  49  72 108 135 160 201 260 307
#     4   9  17  28  44  66  92 127 174 222 261 297
#
# _framework density 16.945381000000001
#
# number of rings (size 3 to 8) (size 9 to 14) (size 15 to 20)
#    0.000    2.500    3.750    1.625    1.750    2.250 
#    0.000    5.625    0.000    0.500    0.000    0.000 
#    0.000    0.000    0.000    0.000    0.000    0.000 
#
# Total GULP energy -2378951.432239 kJ/mol
# GULP energy per Si atom -12390.372043 kJ/mol
# Density = 1.690681 g / cm^3
# Si number density = 16.945381 Si / 1000 Ang^3
#
#
#
# Elastic Constant Matrix: (Units=GPa)
#
#
# Indices 1 2 3 4 5 6 
#
# 1 54.8230 15.9481 26.2951 0.0000 0.0000 0.0000
# 2 15.9481 54.8230 26.2951 0.0000 0.0000 0.0000
# 3 26.2951 26.2951 79.2748 0.0000 0.0000 0.0000
# 4 0.0000 0.0000 0.0000 23.2290 0.0000 0.0000
# 5 0.0000 0.0000 0.0000 0.0000 23.2290 0.0000
# 6 0.0000 0.0000 0.0000 0.0000 0.0000 19.4374
#
#
#
# Elastic Compliance Matrix: (Units=1/GPa)
#
#
# Indices 1 2 3 4 5 6 
#
# 1 0.022238 -0.003486 -0.006220 0.000000 0.000000 0.000000
# 2 -0.003486 0.022238 -0.006220 0.000000 0.000000 0.000000
# 3 -0.006220 -0.006220 0.016741 0.000000 0.000000 0.000000
# 4 0.000000 0.000000 0.000000 0.043050 0.000000 0.000000
# 5 0.000000 0.000000 0.000000 0.000000 0.043050 0.000000
# 6 0.000000 0.000000 0.000000 0.000000 0.000000 0.051447
#
#
# Mechanical properties :
#
#
# Convention : Reuss Voigt Hill
#
# Bulk Modulus (GPa) = 34.05423 36.22194 35.13809
# Shear Modulus (GPa) = 20.79844 21.20457 21.00150
#
# Velocity S-wave (km/s) = 3.50720 3.54128 3.52428
# Velocity P-wave (km/s) = 6.04489 6.17600 6.11080
#
# Compressibility (1/GPa) = 0.02936493
#
# Stress axis : x y z
#
# Youngs Moduli (GPa) = 44.96837 44.96837 59.73481
#
# Poissons Ratio (x) = 0.15675 0.37155
# Poissons Ratio (y) = 0.15675 0.37155
# Poissons Ratio (z) = 0.27970 0.27970
#
# Static dielectric constant tensor:
#      x y z
#    x 3.085260 0.000000 0.000000 
#    y 0.000000 3.085260 0.000000 
#    z 0.000000 0.000000 3.498940 
# 
# 
# High freq. dielectric constant tensor:
#      x y z
#    x 1.634870 0.000000 0.000000 
#    y 0.000000 1.634870 0.000000 
#    z 0.000000 0.000000 1.645290 
# 
# From -- ./inp_files/6185.got.cif
#   From: 2010.03.12/outbox.cif.g09.slc.cpg/sg192_4_cif.got.tgz:6185.got - 2010.04.01 12:16:15.
