data_PCOD8329622
_publ_section_title
;
Structure prediction by ZEFSAII (Michael W. Deem and Ramdas Pophale) SiO2 
 PCOD8329622
Probable space group: P 6/M C C
;
_chemical_formula_sum "Si O2"
_cell_formula_units_Z 132
_cell_length_a 26.615006
_cell_length_b 26.615006
_cell_length_c 14.058423
_cell_angle_alpha 90.000000
_cell_angle_beta 90.000000
_cell_angle_gamma 120.000000
_cell_volume 8624.230891
_symmetry_space_group_name_H-M "P 6/M C C"
_symmetry_group_IT_number 192
_symmetry_cell_setting 'hexagonal'
loop_
_space_group_symop_operation_xyz
x,y,z
x-y,x,z
-y,x-y,z
-x,-y,z
-x+y,-x,z
y,-x+y,z
x-y,-y,1/2-z
-x,-x+y,1/2-z
y,x,1/2-z
-y,-x,1/2-z
-x+y,y,1/2-z
x,x-y,1/2-z
-x,-y,-z
-x+y,-x,-z
y,-x+y,-z
x,y,-z
x-y,x,-z
-y,x-y,-z
-x+y,y,1/2+z
x,x-y,1/2+z
-y,-x,1/2+z
y,x,1/2+z
x-y,-y,1/2+z
-x,-x+y,1/2+z
loop_
_atom_site_type_symbol
_atom_site_label
_atom_site_fract_x
_atom_site_fract_y
_atom_site_fract_z
Si Si1 0.329993 0.404062 0.393264
Si Si2 0.135546 0.035752 0.500000
Si Si3 0.339918 0.112677 0.267475
Si Si4 0.410700 0.478786 0.245534
Si Si5 0.386153 0.324093 0.610730
Si Si6 0.152871 0.943961 0.810709
O O1 0.328764 0.421370 0.500000
O O2 0.267367 0.382173 0.349273
O O3 0.374341 0.463406 0.341973
O O4 0.348101 0.355202 0.379447
O O5 0.111012 0.080801 0.500000
O O6 0.178264 0.046892 0.587840
O O7 0.356183 0.178092 0.250000
O O8 0.350438 0.086479 0.169579
O O9 0.276558 0.075895 0.314620
O O10 0.452168 0.452168 0.250000
O O11 0.451024 0.548977 0.250000
O O12 0.366518 0.450617 0.155264
O O13 0.392704 0.311278 0.500000
O O14 0.099494 0.900507 0.750000
O O15 0.178412 0.000000 0.750000
#
# Coordination Sequence:
#
# PCOD8329622 Si02
#       6
#    24  12  24  24  24  24
#     4   9  17  29  45  65  90 118 154 187 227 273
#     4  12  25  42  62  78  92 116 144 187 271 349
#     4  10  21  34  46  64  88 121 155 195 238 277
#     4   8  14  25  42  65  94 123 151 187 216 245
#     4   9  17  31  47  65  91 123 161 191 231 284
#     4  11  22  39  55  73  97 112 145 195 240 309
#
# _framework density 15.305713000000001
#
# number of rings (size 3 to 8) (size 9 to 14) (size 15 to 20)
#    0.000    2.364    1.818    2.818    1.273    1.455 
#    6.545    3.636    0.000    0.000    0.000    0.000 
#    0.000    0.000    0.000   34.909    0.000   75.636 
#
# Total GULP energy -1635268.285365 kJ/mol
# GULP energy per Si atom -12388.396101 kJ/mol
# Density = 1.527088 g / cm^3
# Si number density = 15.305713 Si / 1000 Ang^3
#
#
#
# Elastic Constant Matrix: (Units=GPa)
#
#
# Indices 1 2 3 4 5 6 
#
# 1 95.2271 48.0228 53.3632 0.0000 0.0000 0.0000
# 2 48.0228 95.2271 53.3632 0.0000 0.0000 0.0000
# 3 53.3632 53.3632 146.3858 0.0000 0.0000 0.0000
# 4 0.0000 0.0000 0.0000 17.2461 0.0000 0.0000
# 5 0.0000 0.0000 0.0000 0.0000 17.2461 0.0000
# 6 0.0000 0.0000 0.0000 0.0000 0.0000 23.6021
#
#
#
# Elastic Compliance Matrix: (Units=1/GPa)
#
#
# Indices 1 2 3 4 5 6 
#
# 1 0.015384 -0.005800 -0.003494 0.000000 0.000000 0.000000
# 2 -0.005800 0.015384 -0.003494 0.000000 0.000000 0.000000
# 3 -0.003494 -0.003494 0.009378 0.000000 0.000000 0.000000
# 4 0.000000 0.000000 0.000000 0.057984 0.000000 0.000000
# 5 0.000000 0.000000 0.000000 0.000000 0.057984 0.000000
# 6 0.000000 0.000000 0.000000 0.000000 0.000000 0.042369
#
#
# Mechanical properties :
#
#
# Convention : Reuss Voigt Hill
#
# Bulk Modulus (GPa) = 68.62818 71.81537 70.22178
# Shear Modulus (GPa) = 21.84207 23.75826 22.80017
#
# Velocity S-wave (km/s) = 3.78173 3.94413 3.86379
# Velocity P-wave (km/s) = 8.00027 8.23189 8.11691
#
# Compressibility (1/GPa) = 0.01457127
#
# Stress axis : x y z
#
# Youngs Moduli (GPa) = 65.00218 65.00218 106.62819
#
# Poissons Ratio (x) = 0.37704 0.37252
# Poissons Ratio (y) = 0.37704 0.37252
# Poissons Ratio (z) = 0.22709 0.22709
#
# Static dielectric constant tensor:
#      x y z
#    x 2.962320 0.000000 0.000000 
#    y 0.000000 2.962320 0.000000 
#    z 0.000000 0.000000 3.123410 
# 
# 
# High freq. dielectric constant tensor:
#      x y z
#    x 1.569210 0.000000 0.000000 
#    y 0.000000 1.569210 0.000000 
#    z 0.000000 0.000000 1.599720 
# 
# From -- ./inp_files/3333.got.cif
#   From: 2010.03.12/outbox.cif.g09.slc.cpg/sg192_2_cif.got.tgz:3333.got - 2010.04.01 12:16:15.
