data_PCOD8329634
_publ_section_title
;
Structure prediction by ZEFSAII (Michael W. Deem and Ramdas Pophale) SiO2 
 PCOD8329634
Probable space group: P 6/M C C
;
_chemical_formula_sum "Si O2"
_cell_formula_units_Z 80
_cell_length_a 18.758735
_cell_length_b 18.758735
_cell_length_c 14.846359
_cell_angle_alpha 90.000000
_cell_angle_beta 90.000000
_cell_angle_gamma 120.000000
_cell_volume 4524.365544
_symmetry_space_group_name_H-M "P 6/M C C"
_symmetry_group_IT_number 192
_symmetry_cell_setting 'hexagonal'
loop_
_space_group_symop_operation_xyz
x,y,z
x-y,x,z
-y,x-y,z
-x,-y,z
-x+y,-x,z
y,-x+y,z
x-y,-y,1/2-z
-x,-x+y,1/2-z
y,x,1/2-z
-y,-x,1/2-z
-x+y,y,1/2-z
x,x-y,1/2-z
-x,-y,-z
-x+y,-x,-z
y,-x+y,-z
x,y,-z
x-y,x,-z
-y,x-y,-z
-x+y,y,1/2+z
x,x-y,1/2+z
-y,-x,1/2+z
y,x,1/2+z
x-y,-y,1/2+z
-x,-x+y,1/2+z
loop_
_atom_site_type_symbol
_atom_site_label
_atom_site_fract_x
_atom_site_fract_y
_atom_site_fract_z
Si Si1 0.272090 0.485778 0.896903
Si Si2 0.311564 0.000000 0.250000
Si Si3 0.333334 0.666668 0.393125
Si Si4 0.561586 0.969540 0.897315
Si Si5 0.642047 0.821024 0.250000
O O1 0.288891 0.573095 0.858319
O O2 0.357407 0.486018 0.888067
O O3 0.200573 0.414414 0.838390
O O4 0.241147 0.471768 0.000000
O O5 0.356443 0.990103 0.162550
O O6 0.300918 0.080159 0.244076
O O7 0.333334 0.666668 0.500000
O O8 0.500000 0.000000 0.862791
O O9 0.588926 0.998129 0.000000
#
# Coordination Sequence:
#
# PCOD8329634 Si02
#       5
#    24  12   8  24  12
#     4   9  19  33  48  72 100 133 171 204 243 284
#     4  10  21  36  52  75  98 126 166 208 256 309
#     4   9  18  31  47  67 100 137 172 208 236 271
#     4   9  18  32  51  72  99 134 168 205 244 285
#     4  10  22  36  54  73  98 128 161 210 256 308
#
# _framework density 17.682036
#
# number of rings (size 3 to 8) (size 9 to 14) (size 15 to 20)
#    0.000    2.700    0.000    0.450    4.200    2.400 
#    0.000    0.000    0.000    0.300    0.000    0.000 
#    0.000    0.000    0.000   15.000    0.000    0.000 
#
# Total GULP energy -992056.388333 kJ/mol
# GULP energy per Si atom -12400.704854 kJ/mol
# Density = 1.764179 g / cm^3
# Si number density = 17.682036 Si / 1000 Ang^3
#
#
#
# Elastic Constant Matrix: (Units=GPa)
#
#
# Indices 1 2 3 4 5 6 
#
# 1 91.9065 54.0550 31.8141 0.0000 0.0000 0.0002
# 2 54.0550 91.9061 31.8141 0.0000 0.0000 0.0000
# 3 31.8141 31.8141 75.5689 0.0000 0.0000 0.0000
# 4 0.0000 0.0000 0.0000 19.6577 0.0000 0.0000
# 5 0.0000 0.0000 0.0000 0.0000 19.6576 0.0000
# 6 0.0002 0.0000 0.0000 0.0000 0.0000 18.9255
#
#
#
# Elastic Compliance Matrix: (Units=1/GPa)
#
#
# Indices 1 2 3 4 5 6 
#
# 1 0.017405 -0.009014 -0.003533 0.000000 0.000000 0.000000
# 2 -0.009014 0.017405 -0.003533 0.000000 0.000000 0.000000
# 3 -0.003533 -0.003533 0.016207 0.000000 0.000000 0.000000
# 4 0.000000 0.000000 0.000000 0.050871 0.000000 0.000000
# 5 0.000000 0.000000 0.000000 0.000000 0.050871 0.000000
# 6 0.000000 0.000000 0.000000 0.000000 0.000000 0.052839
#
#
# Mechanical properties :
#
#
# Convention : Reuss Voigt Hill
#
# Bulk Modulus (GPa) = 53.02473 54.97200 53.99837
# Shear Modulus (GPa) = 20.48821 21.09472 20.79146
#
# Velocity S-wave (km/s) = 3.40766 3.45773 3.43279
# Velocity P-wave (km/s) = 6.74803 6.86279 6.80565
#
# Compressibility (1/GPa) = 0.01885912
#
# Stress axis : x y z
#
# Youngs Moduli (GPa) = 57.45447 57.45419 61.70033
#
# Poissons Ratio (x) = 0.51789 0.21796
# Poissons Ratio (y) = 0.51790 0.21796
# Poissons Ratio (z) = 0.20296 0.20296
#
# Static dielectric constant tensor:
#      x y z
#    x 3.112270 0.000000 0.000000 
#    y 0.000000 3.112280 0.000000 
#    z 0.000000 0.000000 3.460360 
# 
# 
# High freq. dielectric constant tensor:
#      x y z
#    x 1.661960 0.000000 0.000000 
#    y 0.000000 1.661960 0.000000 
#    z 0.000000 0.000000 1.695170 
# 
# From -- ./inp_files/2686.got.cif
#   From: 2010.03.12/outbox.cif.g09.slc.cpg/sg192_2_cif.got.tgz:2686.got - 2010.04.01 12:16:15.
