data_PCOD8329783
_publ_section_title
;
Structure prediction by ZEFSAII (Michael W. Deem and Ramdas Pophale) SiO2 
 PCOD8329783
Probable space group: P 63/M C M
;
_chemical_formula_sum "Si O2"
_cell_formula_units_Z 152
_cell_length_a 25.104426
_cell_length_b 25.104426
_cell_length_c 15.809204
_cell_angle_alpha 90.000000
_cell_angle_beta 90.000000
_cell_angle_gamma 120.000000
_cell_volume 8628.617691
_symmetry_space_group_name_H-M "P 63/M C M"
_symmetry_group_IT_number 193
_symmetry_cell_setting 'hexagonal'
loop_
_space_group_symop_operation_xyz
x,y,z
x-y,x,1/2+z
-y,x-y,z
-x,-y,1/2+z
-x+y,-x,z
y,-x+y,1/2+z
x-y,-y,1/2-z
-x,-x+y,1/2-z
y,x,1/2-z
-y,-x,-z
-x+y,y,-z
x,x-y,-z
-x,-y,-z
-x+y,-x,1/2-z
y,-x+y,-z
x,y,1/2-z
x-y,x,-z
-y,x-y,1/2-z
-x+y,y,1/2+z
x,x-y,1/2+z
-y,-x,1/2+z
y,x,z
x-y,-y,z
-x,-x+y,z
loop_
_atom_site_type_symbol
_atom_site_label
_atom_site_fract_x
_atom_site_fract_y
_atom_site_fract_z
Si Si1 0.296835 0.823539 0.401811
Si Si2 0.343266 0.234500 0.656686
Si Si3 0.891233 0.234498 0.843314
Si Si4 0.598007 0.196012 0.150187
Si Si5 0.823540 0.296835 0.598191
Si Si6 0.192651 0.259667 1.000000
Si Si7 0.666668 0.333334 0.149242
O O1 0.290528 0.877956 0.357280
O O2 0.365492 0.837222 0.382863
O O3 0.244609 0.755391 0.368614
O O4 0.287005 0.828458 0.500000
O O5 0.320077 0.241674 0.750000
O O6 0.347596 0.173798 0.651379
O O7 0.297221 0.229827 0.583165
O O8 0.921596 0.241672 0.750000
O O9 0.877957 0.290527 0.857279
O O10 0.932606 0.229826 0.916835
O O11 0.598003 0.196009 0.250000
O O12 0.634507 0.162775 0.117141
O O13 0.632370 0.264730 0.112607
O O14 0.197234 0.197234 0.999999
O O15 0.121366 0.242732 0.000000
O O16 0.666667 0.333334 0.250000
#
# Coordination Sequence:
#
# PCOD8329783 Si02
#       7
#    24  24  24  24  24  24   8
#     4  10  18  28  41  60  89 127 173 222 273 327
#     4   9  17  31  51  74 102 136 173 215 259 300
#     4   9  17  31  51  74 102 136 173 215 259 300
#     4  11  19  27  37  55  85 128 176 222 277 339
#     4  10  18  28  41  60  89 127 173 222 273 327
#     4  10  20  36  58  86 117 143 169 199 235 281
#     4   9  18  27  31  47  85 123 172 224 274 337
#
# _framework density 17.6158
#
# number of rings (size 3 to 8) (size 9 to 14) (size 15 to 20)
#    0.000    2.211    3.158    1.421    0.000    1.895 
#    0.000    0.000    0.000    0.158    0.000    2.211 
#    0.000    3.789    0.000    7.895    0.000    0.000 
#
# Total GULP energy -1883888.742463 kJ/mol
# GULP energy per Si atom -12394.004885 kJ/mol
# Density = 1.757571 g / cm^3
# Si number density = 17.615800 Si / 1000 Ang^3
#
#
#
# Elastic Constant Matrix: (Units=GPa)
#
#
# Indices 1 2 3 4 5 6 
#
# 1 71.1725 39.5349 26.7409 0.0000 0.0000 0.0000
# 2 39.5349 71.1724 26.7409 0.0000 0.0000 0.0000
# 3 26.7409 26.7409 111.4645 0.0000 0.0000 0.0000
# 4 0.0000 0.0000 0.0000 5.2023 0.0000 0.0000
# 5 0.0000 0.0000 0.0000 0.0000 5.2023 0.0000
# 6 0.0000 0.0000 0.0000 0.0000 0.0000 15.8188
#
#
#
# Elastic Compliance Matrix: (Units=1/GPa)
#
#
# Indices 1 2 3 4 5 6 
#
# 1 0.020912 -0.010696 -0.002451 0.000000 0.000000 0.000000
# 2 -0.010696 0.020912 -0.002451 0.000000 0.000000 0.000000
# 3 -0.002451 -0.002451 0.010148 0.000000 0.000000 0.000000
# 4 0.000000 0.000000 0.000000 0.192223 -0.000001 0.000000
# 5 0.000000 0.000000 0.000000 -0.000001 0.192221 0.000000
# 6 0.000000 0.000000 0.000000 0.000000 0.000000 0.063216
#
#
# Mechanical properties :
#
#
# Convention : Reuss Voigt Hill
#
# Bulk Modulus (GPa) = 48.13012 48.87142 48.50077
# Shear Modulus (GPa) = 9.29793 15.96420 12.63107
#
# Velocity S-wave (km/s) = 2.29992 3.01365 2.68065
# Velocity P-wave (km/s) = 5.86807 6.31765 6.09701
#
# Compressibility (1/GPa) = 0.02077701
#
# Stress axis : x y z
#
# Youngs Moduli (GPa) = 47.81845 47.81832 98.54616
#
# Poissons Ratio (x) = 0.51144 0.24155
# Poissons Ratio (y) = 0.51144 0.24155
# Poissons Ratio (z) = 0.11721 0.11721
#
# Static dielectric constant tensor:
#      x y z
#    x 3.008860 0.000000 0.000000 
#    y 0.000000 3.008860 0.000000 
#    z 0.000000 0.000000 3.486050 
# 
# 
# High freq. dielectric constant tensor:
#      x y z
#    x 1.640580 0.000000 0.000000 
#    y 0.000000 1.640580 0.000000 
#    z 0.000000 0.000000 1.698860 
# 
# From -- ./inp_files/4332.got.cif
#   From: 2010.03.12/outbox.cif.g09.slc.cpg/sg193_3_cif.got.tgz:4332.got - 2010.04.01 12:20:39.
