data_PCOD8329729
_publ_section_title
;
Structure prediction by ZEFSAII (Michael W. Deem and Ramdas Pophale) SiO2 
 PCOD8329729
Probable space group: P 6/M C C
;
_chemical_formula_sum "Si O2"
_cell_formula_units_Z 96
_cell_length_a 14.299053
_cell_length_b 14.299053
_cell_length_c 23.740182
_cell_angle_alpha 90.000000
_cell_angle_beta 90.000000
_cell_angle_gamma 120.000000
_cell_volume 4203.675926
_symmetry_space_group_name_H-M "P 6/M C C"
_symmetry_group_IT_number 192
_symmetry_cell_setting 'hexagonal'
loop_
_space_group_symop_operation_xyz
x,y,z
x-y,x,z
-y,x-y,z
-x,-y,z
-x+y,-x,z
y,-x+y,z
x-y,-y,1/2-z
-x,-x+y,1/2-z
y,x,1/2-z
-y,-x,1/2-z
-x+y,y,1/2-z
x,x-y,1/2-z
-x,-y,-z
-x+y,-x,-z
y,-x+y,-z
x,y,-z
x-y,x,-z
-y,x-y,-z
-x+y,y,1/2+z
x,x-y,1/2+z
-y,-x,1/2+z
y,x,1/2+z
x-y,-y,1/2+z
-x,-x+y,1/2+z
loop_
_atom_site_type_symbol
_atom_site_label
_atom_site_fract_x
_atom_site_fract_y
_atom_site_fract_z
Si Si1 0.440523 0.562096 0.881944
Si Si2 0.836250 0.751338 0.623068
Si Si3 0.772953 0.226198 0.437126
Si Si4 0.298357 0.887298 0.216478
O O1 0.500000 0.500000 0.901786
O O2 0.457713 0.648784 0.929795
O O3 0.313050 0.474081 0.886564
O O4 0.484715 0.617911 0.820936
O O5 0.806923 0.843577 0.617395
O O6 0.785101 0.663532 0.573100
O O7 0.788493 0.691325 0.681652
O O8 0.727940 0.187007 0.500000
O O9 0.224777 0.775224 0.250000
O O10 0.372202 0.000000 0.250000
#
# Coordination Sequence:
#
# PCOD8329729 Si02
#       4
#    24  24  24  24
#     4  11  26  45  70 104 140 183 247 299 355 439
#     4  11  23  41  67 103 143 186 239 289 348 436
#     4  11  24  45  72 101 141 188 238 302 366 424
#     4  11  23  44  74 102 143 190 235 292 361 431
#
# _framework density 22.837156
#
# number of rings (size 3 to 8) (size 9 to 14) (size 15 to 20)
#    0.000    1.000    2.500    4.500    3.500    5.500 
#    0.000    0.000    0.000    1.500    0.000    0.000 
#    0.000    0.000    0.000    0.000    0.000    0.000 
#
# Total GULP energy -1189676.918202 kJ/mol
# GULP energy per Si atom -12392.467898 kJ/mol
# Density = 2.278518 g / cm^3
# Si number density = 22.837156 Si / 1000 Ang^3
#
#
#
# Elastic Constant Matrix: (Units=GPa)
#
#
# Indices 1 2 3 4 5 6 
#
# 1 99.4479 22.2236 48.7788 0.0000 0.0000 0.0000
# 2 22.2236 99.4479 48.7788 0.0000 0.0000 0.0000
# 3 48.7788 48.7788 127.2704 0.0000 0.0000 0.0000
# 4 0.0000 0.0000 0.0000 21.5119 0.0000 0.0000
# 5 0.0000 0.0000 0.0000 0.0000 21.5119 0.0000
# 6 0.0000 0.0000 0.0000 0.0000 0.0000 38.6122
#
#
#
# Elastic Compliance Matrix: (Units=1/GPa)
#
#
# Indices 1 2 3 4 5 6 
#
# 1 0.012407 -0.000542 -0.004548 0.000000 0.000000 0.000000
# 2 -0.000542 0.012407 -0.004548 0.000000 0.000000 0.000000
# 3 -0.004548 -0.004548 0.011343 0.000000 0.000000 0.000000
# 4 0.000000 0.000000 0.000000 0.046486 0.000000 0.000000
# 5 0.000000 0.000000 0.000000 0.000000 0.046486 0.000000
# 6 0.000000 0.000000 0.000000 0.000000 0.000000 0.025899
#
#
# Mechanical properties :
#
#
# Convention : Reuss Voigt Hill
#
# Bulk Modulus (GPa) = 59.23032 62.85875 61.04454
# Shear Modulus (GPa) = 27.78858 30.08619 28.93738
#
# Velocity S-wave (km/s) = 3.49207 3.63357 3.56352
# Velocity P-wave (km/s) = 6.50013 6.72222 6.61211
#
# Compressibility (1/GPa) = 0.01688324
#
# Stress axis : x y z
#
# Youngs Moduli (GPa) = 80.59834 80.59834 88.15895
#
# Poissons Ratio (x) = 0.04369 0.40091
# Poissons Ratio (y) = 0.04369 0.40091
# Poissons Ratio (z) = 0.36652 0.36652
#
# Static dielectric constant tensor:
#      x y z
#    x 4.439670 0.000000 0.000000 
#    y 0.000000 4.439670 0.000000 
#    z 0.000000 0.000000 3.910840 
# 
# 
# High freq. dielectric constant tensor:
#      x y z
#    x 1.915360 0.000000 0.000000 
#    y 0.000000 1.915360 0.000000 
#    z 0.000000 0.000000 1.886260 
# 
# From -- ./inp_files/6347.got.cif
#   From: 2010.03.12/outbox.cif.g09.slc.cpg/sg192_4_cif.got.tgz:6347.got - 2010.04.01 12:16:15.
