data_PCOD8329354
_publ_section_title
;
Structure prediction by ZEFSAII (Michael W. Deem and Ramdas Pophale) SiO2 
 PCOD8329354
Probable space group: P 6/M C C
;
_chemical_formula_sum "Si O2"
_cell_formula_units_Z 120
_cell_length_a 17.711854
_cell_length_b 17.711854
_cell_length_c 23.682386
_cell_angle_alpha 90.000000
_cell_angle_beta 90.000000
_cell_angle_gamma 120.000000
_cell_volume 6434.045597
_symmetry_space_group_name_H-M "P 6/M C C"
_symmetry_group_IT_number 192
_symmetry_cell_setting 'hexagonal'
loop_
_space_group_symop_operation_xyz
x,y,z
x-y,x,z
-y,x-y,z
-x,-y,z
-x+y,-x,z
y,-x+y,z
x-y,-y,1/2-z
-x,-x+y,1/2-z
y,x,1/2-z
-y,-x,1/2-z
-x+y,y,1/2-z
x,x-y,1/2-z
-x,-y,-z
-x+y,-x,-z
y,-x+y,-z
x,y,-z
x-y,x,-z
-y,x-y,-z
-x+y,y,1/2+z
x,x-y,1/2+z
-y,-x,1/2+z
y,x,1/2+z
x-y,-y,1/2+z
-x,-x+y,1/2+z
loop_
_atom_site_type_symbol
_atom_site_label
_atom_site_fract_x
_atom_site_fract_y
_atom_site_fract_z
Si Si1 0.179726 0.027232 0.379511
Si Si2 0.659856 0.001071 0.876890
Si Si3 0.157888 0.660478 0.682281
Si Si4 0.512506 0.673182 0.313628
Si Si5 0.864946 0.096928 0.000000
Si Si6 0.315967 0.304988 0.500000
O O1 0.169906 0.105661 0.352619
O O2 0.270846 0.031991 0.366135
O O3 0.172875 0.043801 0.446188
O O4 0.646448 0.078922 0.856852
O O5 0.630563 0.977400 0.942725
O O6 0.597471 0.914309 0.843277
O O7 0.167451 0.577463 0.668103
O O8 0.245726 0.748206 0.666965
O O9 0.138458 0.666715 0.747605
O O10 0.768088 0.086512 0.000000
O O11 0.926941 0.199914 0.000000
#
# Coordination Sequence:
#
# PCOD8329354 Si02
#       6
#    24  24  24  24  12  12
#     4  11  19  30  46  73 108 145 189 228 276 323
#     4  11  21  35  57  83 116 152 190 231 287 339
#     4  10  21  38  63  88 114 146 183 239 293 348
#     4  10  21  39  61  89 115 143 186 237 296 344
#     4  10  16  30  47  70 104 148 187 232 276 311
#     4  10  22  32  53  79 118 152 194 235 282 329
#
# _framework density 18.650786
#
# number of rings (size 3 to 8) (size 9 to 14) (size 15 to 20)
#    0.000    1.600    4.000    3.000    2.800    3.200 
#    0.000    3.000    0.000    0.000    0.000    2.800 
#    0.000    9.600    0.000    0.000    0.000    0.000 
#
# Total GULP energy -1486855.736713 kJ/mol
# GULP energy per Si atom -12390.464473 kJ/mol
# Density = 1.860834 g / cm^3
# Si number density = 18.650786 Si / 1000 Ang^3
#
#
#
# Elastic Constant Matrix: (Units=GPa)
#
#
# Indices 1 2 3 4 5 6 
#
# 1 122.9118 54.5712 47.5214 0.0000 0.0000 0.0000
# 2 54.5712 122.9118 47.5214 0.0000 0.0000 0.0000
# 3 47.5214 47.5214 56.5069 0.0000 0.0000 0.0000
# 4 0.0000 0.0000 0.0000 26.0537 0.0000 0.0000
# 5 0.0000 0.0000 0.0000 0.0000 26.0537 0.0000
# 6 0.0000 0.0000 0.0000 0.0000 0.0000 34.1703
#
#
#
# Elastic Compliance Matrix: (Units=1/GPa)
#
#
# Indices 1 2 3 4 5 6 
#
# 1 0.012442 -0.002191 -0.008621 0.000000 0.000000 0.000000
# 2 -0.002191 0.012442 -0.008621 0.000000 0.000000 0.000000
# 3 -0.008621 -0.008621 0.032197 0.000000 0.000000 0.000000
# 4 0.000000 0.000000 0.000000 0.038382 0.000000 0.000000
# 5 0.000000 0.000000 0.000000 0.000000 0.038382 0.000000
# 6 0.000000 0.000000 0.000000 0.000000 0.000000 0.029265
#
#
# Mechanical properties :
#
#
# Convention : Reuss Voigt Hill
#
# Bulk Modulus (GPa) = 54.89877 66.83986 60.86932
# Shear Modulus (GPa) = 24.03311 27.43665 25.73488
#
# Velocity S-wave (km/s) = 3.59358 3.83962 3.71863
# Velocity P-wave (km/s) = 6.83501 7.45468 7.15156
#
# Compressibility (1/GPa) = 0.01821534
#
# Stress axis : x y z
#
# Youngs Moduli (GPa) = 80.37496 80.37496 31.05903
#
# Poissons Ratio (x) = 0.17609 0.26775
# Poissons Ratio (y) = 0.17609 0.26775
# Poissons Ratio (z) = 0.69289 0.69289
#
# Static dielectric constant tensor:
#      x y z
#    x 3.571890 0.000000 0.000000 
#    y 0.000000 3.571890 0.000000 
#    z 0.000000 0.000000 3.307110 
# 
# 
# High freq. dielectric constant tensor:
#      x y z
#    x 1.729340 0.000000 0.000000 
#    y 0.000000 1.729340 0.000000 
#    z 0.000000 0.000000 1.697940 
# 
# From -- ./inp_files/5780.got.cif
#   From: 2010.03.12/outbox.cif.g09.slc.cpg/sg192_3_cif.got.tgz:5780.got - 2010.04.01 12:16:15.
