data_PCOD8329339
_publ_section_title
;
Structure prediction by ZEFSAII (Michael W. Deem and Ramdas Pophale) SiO2 
 PCOD8329339
Probable space group: P 6/M M M
;
_chemical_formula_sum "Si O2"
_cell_formula_units_Z 120
_cell_length_a 18.822296
_cell_length_b 18.822296
_cell_length_c 24.703598
_cell_angle_alpha 90.000000
_cell_angle_beta 90.000000
_cell_angle_gamma 120.000000
_cell_volume 7579.421178
_symmetry_space_group_name_H-M "P 6/M M M"
_symmetry_group_IT_number 191
_symmetry_cell_setting 'hexagonal'
loop_
_space_group_symop_operation_xyz
x,y,z
x-y,x,z
-y,x-y,z
-x,-y,z
-x+y,-x,z
y,-x+y,z
x-y,-y,-z
-x,-x+y,-z
y,x,-z
-y,-x,-z
-x+y,y,-z
x,x-y,-z
-x,-y,-z
-x+y,-x,-z
y,-x+y,-z
x,y,-z
x-y,x,-z
-y,x-y,-z
-x+y,y,z
x,x-y,z
-y,-x,z
y,x,z
x-y,-y,z
-x,-x+y,z
loop_
_atom_site_type_symbol
_atom_site_label
_atom_site_fract_x
_atom_site_fract_y
_atom_site_fract_z
Si Si1 0.168153 0.666500 0.133182
Si Si2 0.494914 0.666367 0.745874
Si Si3 0.907699 0.252460 0.936944
Si Si4 0.375227 0.905458 0.635920
Si Si5 0.656786 0.907105 0.562097
O O1 0.160053 0.580027 0.116771
O O2 0.263296 0.736705 0.128320
O O3 0.135867 0.664776 0.194354
O O4 0.111130 0.683861 0.093886
O O5 0.507876 0.753938 0.730908
O O6 0.398351 0.601650 0.745215
O O7 0.543324 0.647360 0.699702
O O8 0.841814 0.158187 0.920414
O O9 0.000000 0.272276 0.922575
O O10 0.900122 0.266276 0.000000
O O11 0.432323 0.864645 0.623324
O O12 0.295673 0.869196 0.597715
O O13 0.427208 0.000000 0.621965
O O14 0.630935 0.905891 0.500000
O O15 0.695134 0.847567 0.570570
O O16 0.724522 0.000000 0.579709
#
# Coordination Sequence:
#
# PCOD8329339 Si02
#       5
#    24  24  24  24  24
#     4   9  17  28  42  61  86 117 150 180 208 238
#     4   9  16  26  40  57  79 108 141 174 205 237
#     4   9  18  32  48  65  85 109 137 170 210 254
#     4   9  17  27  39  58  83 109 137 169 205 245
#     4   9  17  29  45  63  82 106 137 172 209 250
#
# _framework density 15.832344000000001
#
# number of rings (size 3 to 8) (size 9 to 14) (size 15 to 20)
#    0.000    3.000    0.000    1.000    0.000    3.600 
#    0.000    5.000    0.000    2.000    0.000    2.800 
#    0.000    0.000    0.000    0.000    0.000   26.000 
#
# Total GULP energy -1487052.343292 kJ/mol
# GULP energy per Si atom -12392.102861 kJ/mol
# Density = 1.579631 g / cm^3
# Si number density = 15.832344 Si / 1000 Ang^3
#
#
#
# Elastic Constant Matrix: (Units=GPa)
#
#
# Indices 1 2 3 4 5 6 
#
# 1 80.5310 47.2384 39.3521 0.0000 0.0000 0.0000
# 2 47.2384 80.5310 39.3521 0.0000 0.0000 0.0000
# 3 39.3521 39.3521 64.3117 0.0000 0.0000 0.0000
# 4 0.0000 0.0000 0.0000 22.4478 0.0000 0.0000
# 5 0.0000 0.0000 0.0000 0.0000 22.4478 0.0000
# 6 0.0000 0.0000 0.0000 0.0000 0.0000 16.6463
#
#
#
# Elastic Compliance Matrix: (Units=1/GPa)
#
#
# Indices 1 2 3 4 5 6 
#
# 1 0.021299 -0.008738 -0.007686 0.000000 0.000000 0.000000
# 2 -0.008738 0.021299 -0.007686 0.000000 0.000000 0.000000
# 3 -0.007686 -0.007686 0.024955 0.000000 0.000000 0.000000
# 4 0.000000 0.000000 0.000000 0.044548 0.000000 0.000000
# 5 0.000000 0.000000 0.000000 0.000000 0.044548 0.000000
# 6 0.000000 0.000000 0.000000 0.000000 0.000000 0.060073
#
#
# Mechanical properties :
#
#
# Convention : Reuss Voigt Hill
#
# Bulk Modulus (GPa) = 51.72425 53.02879 52.37652
# Shear Modulus (GPa) = 18.42389 18.93712 18.68050
#
# Velocity S-wave (km/s) = 3.41499 3.46222 3.43869
# Velocity P-wave (km/s) = 6.94913 7.03913 6.99427
#
# Compressibility (1/GPa) = 0.01933329
#
# Stress axis : x y z
#
# Youngs Moduli (GPa) = 46.95073 46.95073 40.07138
#
# Poissons Ratio (x) = 0.41025 0.30799
# Poissons Ratio (y) = 0.41025 0.30799
# Poissons Ratio (z) = 0.36087 0.36087
#
# Static dielectric constant tensor:
#      x y z
#    x 2.995090 0.000000 0.000000 
#    y 0.000000 2.995090 0.000000 
#    z 0.000000 0.000000 3.128110 
# 
# 
# High freq. dielectric constant tensor:
#      x y z
#    x 1.591050 0.000000 0.000000 
#    y 0.000000 1.591050 0.000000 
#    z 0.000000 0.000000 1.612570 
# 
# From -- ./inp_files/10286.got.cif
#   From: 2010.03.12/outbox.cif.g09.slc.cpg/sg191_6_cif.got.tgz:10286.got - 2010.04.01 12:09:02.
