data_PCOD8329454
_publ_section_title
;
Structure prediction by ZEFSAII (Michael W. Deem and Ramdas Pophale) SiO2 
 PCOD8329454
Probable space group: P 6/M C C
;
_chemical_formula_sum "Si O2"
_cell_formula_units_Z 144
_cell_length_a 32.361463
_cell_length_b 32.361463
_cell_length_c 8.894507
_cell_angle_alpha 90.000000
_cell_angle_beta 90.000000
_cell_angle_gamma 120.000000
_cell_volume 8066.939632
_symmetry_space_group_name_H-M "P 6/M C C"
_symmetry_group_IT_number 192
_symmetry_cell_setting 'hexagonal'
loop_
_space_group_symop_operation_xyz
x,y,z
x-y,x,z
-y,x-y,z
-x,-y,z
-x+y,-x,z
y,-x+y,z
x-y,-y,1/2-z
-x,-x+y,1/2-z
y,x,1/2-z
-y,-x,1/2-z
-x+y,y,1/2-z
x,x-y,1/2-z
-x,-y,-z
-x+y,-x,-z
y,-x+y,-z
x,y,-z
x-y,x,-z
-y,x-y,-z
-x+y,y,1/2+z
x,x-y,1/2+z
-y,-x,1/2+z
y,x,1/2+z
x-y,-y,1/2+z
-x,-x+y,1/2+z
loop_
_atom_site_type_symbol
_atom_site_label
_atom_site_fract_x
_atom_site_fract_y
_atom_site_fract_z
Si Si1 0.806142 0.527352 0.678511
Si Si2 0.718845 0.951625 0.674023
Si Si3 0.861464 0.811170 0.321348
Si Si4 0.386705 0.527919 0.173993
Si Si5 0.950592 0.567774 0.677500
Si Si6 0.282371 0.388567 0.323045
O O1 0.754412 0.508824 0.750000
O O2 0.804844 0.531750 0.500000
O O3 0.822572 0.489780 0.727552
O O4 0.842971 0.579224 0.744521
O O5 0.724609 0.963390 0.500000
O O6 0.757747 0.937266 0.726186
O O7 0.666026 0.908788 0.712233
O O8 0.727393 0.000000 0.750000
O O9 0.849330 0.849330 0.250000
O O10 0.910634 0.821267 0.250000
O O11 0.866475 0.817734 0.500000
O O12 0.422446 0.577555 0.250000
O O13 0.399897 0.487278 0.213273
O O14 0.391139 0.538505 0.000000
O O15 0.955788 0.577704 0.500000
O O16 0.933964 0.601900 0.753284
O O17 0.000000 0.577813 0.750000
O O18 0.289051 0.399465 0.500000
#
# Coordination Sequence:
#
# PCOD8329454 Si02
#       6
#    24  24  24  24  24  24
#     4  10  21  37  55  78 104 133 168 208 254 308
#     4   9  19  32  48  72 103 138 178 216 254 295
#     4  10  20  36  55  77 103 133 167 207 252 301
#     4   9  20  36  54  76 102 130 166 208 255 308
#     4  10  20  33  48  72 104 140 180 220 258 301
#     4  10  19  32  50  74 104 141 180 219 258 299
#
# _framework density 17.850636000000002
#
# number of rings (size 3 to 8) (size 9 to 14) (size 15 to 20)
#    0.000    2.333    0.000    3.500    0.000    8.333 
#    0.000    3.333    0.000    0.500    0.000    1.167 
#    0.000    0.000    0.000    0.000    0.000    0.000 
#
# Total GULP energy -1785755.513850 kJ/mol
# GULP energy per Si atom -12401.079957 kJ/mol
# Density = 1.781001 g / cm^3
# Si number density = 17.850636 Si / 1000 Ang^3
#
#
#
# Elastic Constant Matrix: (Units=GPa)
#
#
# Indices 1 2 3 4 5 6 
#
# 1 114.9370 79.5756 52.7219 0.0000 0.0000 0.0000
# 2 79.5756 114.9370 52.7219 0.0000 0.0000 0.0000
# 3 52.7219 52.7219 83.5531 0.0000 0.0000 0.0000
# 4 0.0000 0.0000 0.0000 31.8164 0.0000 0.0000
# 5 0.0000 0.0000 0.0000 0.0000 31.8164 0.0000
# 6 0.0000 0.0000 0.0000 0.0000 0.0000 17.6807
#
#
#
# Elastic Compliance Matrix: (Units=1/GPa)
#
#
# Indices 1 2 3 4 5 6 
#
# 1 0.018047 -0.010233 -0.004931 0.000000 0.000000 0.000000
# 2 -0.010233 0.018047 -0.004931 0.000000 0.000000 0.000000
# 3 -0.004931 -0.004931 0.018191 0.000000 0.000000 0.000000
# 4 0.000000 0.000000 0.000000 0.031430 0.000000 0.000000
# 5 0.000000 0.000000 0.000000 0.000000 0.031430 0.000000
# 6 0.000000 0.000000 0.000000 0.000000 0.000000 0.056559
#
#
# Mechanical properties :
#
#
# Convention : Reuss Voigt Hill
#
# Bulk Modulus (GPa) = 70.94040 75.94065 73.44053
# Shear Modulus (GPa) = 22.87389 24.82324 23.84856
#
# Velocity S-wave (km/s) = 3.58355 3.73313 3.65911
# Velocity P-wave (km/s) = 7.54651 7.82409 7.68655
#
# Compressibility (1/GPa) = 0.01409634
#
# Stress axis : x y z
#
# Youngs Moduli (GPa) = 55.41199 55.41199 54.97303
#
# Poissons Ratio (x) = 0.56702 0.27105
# Poissons Ratio (y) = 0.56702 0.27105
# Poissons Ratio (z) = 0.27321 0.27321
#
# Static dielectric constant tensor:
#      x y z
#    x 3.287290 0.000000 0.000000 
#    y 0.000000 3.287290 0.000000 
#    z 0.000000 0.000000 3.370970 
# 
# 
# High freq. dielectric constant tensor:
#      x y z
#    x 1.680830 0.000000 0.000000 
#    y 0.000000 1.680830 0.000000 
#    z 0.000000 0.000000 1.702950 
# 
# From -- ./inp_files/1197.got.cif
#   From: 2010.03.12/outbox.cif.g09.slc.cpg/sg192_1_cif.got.tgz:1197.got - 2010.04.01 12:16:15.
