data_PCOD8329113
_publ_section_title
;
Structure prediction by ZEFSAII (Michael W. Deem and Ramdas Pophale) SiO2 
 PCOD8329113
Probable space group: P 6/M M M
;
_chemical_formula_sum "Si O2"
_cell_formula_units_Z 132
_cell_length_a 26.173538
_cell_length_b 26.173538
_cell_length_c 12.326022
_cell_angle_alpha 90.000000
_cell_angle_beta 90.000000
_cell_angle_gamma 120.000000
_cell_volume 7312.711410
_symmetry_space_group_name_H-M "P 6/M M M"
_symmetry_group_IT_number 191
_symmetry_cell_setting 'hexagonal'
loop_
_space_group_symop_operation_xyz
x,y,z
x-y,x,z
-y,x-y,z
-x,-y,z
-x+y,-x,z
y,-x+y,z
x-y,-y,-z
-x,-x+y,-z
y,x,-z
-y,-x,-z
-x+y,y,-z
x,x-y,-z
-x,-y,-z
-x+y,-x,-z
y,-x+y,-z
x,y,-z
x-y,x,-z
-y,x-y,-z
-x+y,y,z
x,x-y,z
-y,-x,z
y,x,z
x-y,-y,z
-x,-x+y,z
loop_
_atom_site_type_symbol
_atom_site_label
_atom_site_fract_x
_atom_site_fract_y
_atom_site_fract_z
Si Si1 0.933980 0.677404 0.266523
Si Si2 0.350565 0.175283 0.872214
Si Si3 0.375023 0.440990 0.772258
Si Si4 0.931724 0.278126 0.500000
Si Si5 0.509986 0.754993 0.128743
Si Si6 0.521786 0.590334 0.000000
Si Si7 0.530831 0.710163 0.500000
Si Si8 0.816275 0.350413 0.289947
O O1 0.889001 0.680582 0.183218
O O2 0.928545 0.613877 0.265346
O O3 0.920473 0.683415 0.393335
O O4 0.000000 0.728008 0.232906
O O5 0.420003 0.210002 0.848506
O O6 0.336502 0.168251 0.000000
O O7 0.429766 0.429766 0.754006
O O8 0.387499 0.499711 0.709985
O O9 0.366789 0.452750 0.897756
O O10 0.889046 0.306739 0.500000
O O11 0.000000 0.332298 0.500000
O O12 0.481504 0.790746 0.183716
O O13 0.496307 0.748154 0.000000
O O14 0.545209 0.545209 0.000000
O O15 0.449851 0.550150 0.000000
O O16 0.563177 0.781589 0.500000
O O17 0.487094 0.687864 0.602076
O O18 0.791765 0.395883 0.292471
#
# Coordination Sequence:
#
# PCOD8329113 Si02
#       8
#    24  12  24  12  12  12  12  24
#     4  10  21  35  56  85 116 151 189 234 279 328
#     4  11  22  37  59  87 117 152 194 233 279 346
#     4  10  20  34  53  81 112 138 169 211 266 329
#     4  10  20  35  58  88 116 144 187 228 273 341
#     4  11  24  43  61  83 105 130 177 232 285 348
#     4   9  18  30  44  67 102 142 171 195 248 322
#     4  12  23  41  64  80 107 145 180 224 279 340
#     4  12  25  41  61  81 104 137 177 223 281 340
#
# _framework density 18.05076
#
# number of rings (size 3 to 8) (size 9 to 14) (size 15 to 20)
#    0.000    1.364    4.545    0.818    3.818    1.818 
#    0.545    0.000    0.000    1.636    0.000    0.000 
#    0.000    0.000    0.000    0.273    0.000    1.182 
#
# Total GULP energy -1636045.874341 kJ/mol
# GULP energy per Si atom -12394.286927 kJ/mol
# Density = 1.800968 g / cm^3
# Si number density = 18.050760 Si / 1000 Ang^3
#
#
#
# Elastic Constant Matrix: (Units=GPa)
#
#
# Indices 1 2 3 4 5 6 
#
# 1 77.7430 47.6382 42.0282 0.0000 0.0000 0.0000
# 2 47.6382 77.7430 42.0282 0.0000 0.0000 0.0000
# 3 42.0282 42.0282 128.6674 0.0000 0.0000 0.0000
# 4 0.0000 0.0000 0.0000 -401.7457 0.0000 0.0000
# 5 0.0000 0.0000 0.0000 0.0000 -401.7458 0.0000
# 6 0.0000 0.0000 0.0000 0.0000 0.0000 15.0524
#
#
#
# Elastic Compliance Matrix: (Units=1/GPa)
#
#
# Indices 1 2 3 4 5 6 
#
# 1 0.021715 -0.011503 -0.003336 0.000000 0.000000 0.000000
# 2 -0.011503 0.021715 -0.003336 0.000000 0.000000 0.000000
# 3 -0.003336 -0.003336 0.009951 0.000000 0.000000 0.000000
# 4 0.000000 0.000000 0.000000 -0.002489 0.000000 0.000000
# 5 0.000000 0.000000 0.000000 0.000000 -0.002489 0.000000
# 6 0.000000 0.000000 0.000000 0.000000 0.000000 0.066434
#
#
# Mechanical properties :
#
#
# Convention : Reuss Voigt Hill
#
# Bulk Modulus (GPa) = 58.71176 60.83806 59.77491
# Shear Modulus (GPa) = 31.87518 -147.52389 -57.82435
#
# Velocity S-wave (km/s) = 4.20678 -9.05012 -5.66603
# Velocity P-wave (km/s) = 7.49617 8.68500 3.10135
#
# Compressibility (1/GPa) = 0.01703236
#
# Stress axis : x y z
#
# Youngs Moduli (GPa) = 46.05201 46.05201 100.49137
#
# Poissons Ratio (x) = 0.52972 0.33520
# Poissons Ratio (y) = 0.52972 0.33520
# Poissons Ratio (z) = 0.15361 0.15361
#
# Static dielectric constant tensor:
#      x y z
#    x 3.223250 0.000000 0.000000 
#    y 0.000000 3.223250 0.000000 
#    z 0.000000 0.000000 3.679960 
# 
# 
# High freq. dielectric constant tensor:
#      x y z
#    x 1.670090 0.000000 0.000000 
#    y 0.000000 1.670090 0.000000 
#    z 0.000000 0.000000 1.720220 
# 
# From -- ./inp_files/3423.got.cif
#   From: 2010.03.12/outbox.cif.g09.slc.cpg/sg191_2_cif.got.tgz:3423.got - 2010.04.01 12:09:02.
