data_PCOD8329545
_publ_section_title
;
Structure prediction by ZEFSAII (Michael W. Deem and Ramdas Pophale) SiO2 
 PCOD8329545
Probable space group: P 6/M C C
;
_chemical_formula_sum "Si O2"
_cell_formula_units_Z 144
_cell_length_a 29.476494
_cell_length_b 29.476494
_cell_length_c 8.828939
_cell_angle_alpha 90.000000
_cell_angle_beta 90.000000
_cell_angle_gamma 120.000000
_cell_volume 6643.406094
_symmetry_space_group_name_H-M "P 6/M C C"
_symmetry_group_IT_number 192
_symmetry_cell_setting 'hexagonal'
loop_
_space_group_symop_operation_xyz
x,y,z
x-y,x,z
-y,x-y,z
-x,-y,z
-x+y,-x,z
y,-x+y,z
x-y,-y,1/2-z
-x,-x+y,1/2-z
y,x,1/2-z
-y,-x,1/2-z
-x+y,y,1/2-z
x,x-y,1/2-z
-x,-y,-z
-x+y,-x,-z
y,-x+y,-z
x,y,-z
x-y,x,-z
-y,x-y,-z
-x+y,y,1/2+z
x,x-y,1/2+z
-y,-x,1/2+z
y,x,1/2+z
x-y,-y,1/2+z
-x,-x+y,1/2+z
loop_
_atom_site_type_symbol
_atom_site_label
_atom_site_fract_x
_atom_site_fract_y
_atom_site_fract_z
Si Si1 0.642011 0.943909 0.320301
Si Si2 0.814025 0.864826 0.335868
Si Si3 0.432713 0.666991 0.816947
Si Si4 0.535160 0.677342 0.671532
Si Si5 0.802639 0.110183 0.667985
Si Si6 0.476471 0.430879 0.664968
O O1 0.637967 0.947437 0.500000
O O2 0.590453 0.891954 0.256757
O O3 0.687641 0.932264 0.271421
O O4 0.654964 0.000000 0.250000
O O5 0.822321 0.822321 0.250000
O O6 0.840768 0.920384 0.250000
O O7 0.840517 0.874582 0.500000
O O8 0.752916 0.843338 0.352696
O O9 0.390007 0.609994 0.750000
O O10 0.418627 0.709313 0.750000
O O11 0.492222 0.684835 0.764274
O O12 0.430117 0.665687 0.000000
O O13 0.542324 0.700882 0.500000
O O14 0.512963 0.616299 0.660455
O O15 0.832765 0.167236 0.750000
O O16 0.782954 0.115836 0.500000
O O17 0.423735 0.423735 0.750000
O O18 0.525535 0.474466 0.750000
O O19 0.472349 0.449714 0.500000
#
# Coordination Sequence:
#
# PCOD8329545 Si02
#       6
#    24  24  24  24  24  24
#     4  12  25  41  62  90 127 175 225 275 329 391
#     4  10  20  34  55  82 113 148 190 240 296 354
#     4  12  26  47  74 104 135 169 210 262 324 394
#     4  11  24  42  63  91 124 161 206 256 309 371
#     4  10  21  38  60  87 119 158 206 263 321 380
#     4  10  20  33  54  81 113 150 190 234 280 333
#
# _framework density 21.675628
#
# number of rings (size 3 to 8) (size 9 to 14) (size 15 to 20)
#    0.000    1.167    0.000    7.167    0.000    9.333 
#    0.000    3.333    0.000    0.167    0.000    1.167 
#    0.000    0.000    0.000    0.000    0.000    0.000 
#
# Total GULP energy -1783978.812505 kJ/mol
# GULP energy per Si atom -12388.741754 kJ/mol
# Density = 2.162629 g / cm^3
# Si number density = 21.675628 Si / 1000 Ang^3
#
#
#
# Elastic Constant Matrix: (Units=GPa)
#
#
# Indices 1 2 3 4 5 6 
#
# 1 101.4015 -5.2479 43.3934 0.0000 0.0000 0.0000
# 2 -5.2479 101.4015 43.3934 0.0000 0.0000 0.0000
# 3 43.3934 43.3934 218.0704 0.0000 0.0000 0.0000
# 4 0.0000 0.0000 0.0000 -19.7305 0.0000 0.0000
# 5 0.0000 0.0000 0.0000 0.0000 -19.7305 0.0000
# 6 0.0000 0.0000 0.0000 0.0000 0.0000 53.3247
#
#
#
# Elastic Compliance Matrix: (Units=1/GPa)
#
#
# Indices 1 2 3 4 5 6 
#
# 1 0.011027 0.001650 -0.002523 0.000000 0.000000 0.000000
# 2 0.001650 0.011027 -0.002523 0.000000 0.000000 0.000000
# 3 -0.002523 -0.002523 0.005590 0.000000 0.000000 0.000000
# 4 0.000000 0.000000 0.000000 -0.050683 0.000000 0.000000
# 5 0.000000 0.000000 0.000000 0.000000 -0.050683 0.000000
# 6 0.000000 0.000000 0.000000 0.000000 0.000000 0.018753
#
#
# Mechanical properties :
#
#
# Convention : Reuss Voigt Hill
#
# Bulk Modulus (GPa) = 47.95452 64.88347 56.41899
# Shear Modulus (GPa) = -121.27358 25.39503 -47.93927
#
# Velocity S-wave (km/s) = -7.48804 3.42657 -4.70794
# Velocity P-wave (km/s) = 7.25184 6.75677 1.86216
#
# Compressibility (1/GPa) = 0.02085309
#
# Stress axis : x y z
#
# Youngs Moduli (GPa) = 90.68916 90.68916 178.90413
#
# Poissons Ratio (x) = -0.14965 0.45129
# Poissons Ratio (y) = -0.14965 0.45129
# Poissons Ratio (z) = 0.22877 0.22877
#
# Static dielectric constant tensor:
#      x y z
#    x 3.544450 0.000000 0.000000 
#    y 0.000000 3.544450 0.000000 
#    z 0.000000 0.000000 4.570400 
# 
# 
# High freq. dielectric constant tensor:
#      x y z
#    x 1.844910 0.000000 0.000000 
#    y 0.000000 1.844910 0.000000 
#    z 0.000000 0.000000 1.874040 
# 
# From -- ./inp_files/1203.got.cif
#   From: 2010.03.12/outbox.cif.g09.slc.cpg/sg192_1_cif.got.tgz:1203.got - 2010.04.01 12:16:15.
