data_PCOD8329503
_publ_section_title
;
Structure prediction by ZEFSAII (Michael W. Deem and Ramdas Pophale) SiO2 
 PCOD8329503
Probable space group: P 6/M C C
;
_chemical_formula_sum "Si O2"
_cell_formula_units_Z 144
_cell_length_a 20.855157
_cell_length_b 20.855157
_cell_length_c 19.815226
_cell_angle_alpha 90.000000
_cell_angle_beta 90.000000
_cell_angle_gamma 120.000000
_cell_volume 7463.741488
_symmetry_space_group_name_H-M "P 6/M C C"
_symmetry_group_IT_number 192
_symmetry_cell_setting 'hexagonal'
loop_
_space_group_symop_operation_xyz
x,y,z
x-y,x,z
-y,x-y,z
-x,-y,z
-x+y,-x,z
y,-x+y,z
x-y,-y,1/2-z
-x,-x+y,1/2-z
y,x,1/2-z
-y,-x,1/2-z
-x+y,y,1/2-z
x,x-y,1/2-z
-x,-y,-z
-x+y,-x,-z
y,-x+y,-z
x,y,-z
x-y,x,-z
-y,x-y,-z
-x+y,y,1/2+z
x,x-y,1/2+z
-y,-x,1/2+z
y,x,1/2+z
x-y,-y,1/2+z
-x,-x+y,1/2+z
loop_
_atom_site_type_symbol
_atom_site_label
_atom_site_fract_x
_atom_site_fract_y
_atom_site_fract_z
Si Si1 0.308047 0.796113 0.500000
Si Si2 0.806360 0.072480 0.794187
Si Si3 0.693678 0.195320 0.646147
Si Si4 0.875561 0.832267 0.422677
Si Si5 0.411096 0.086429 0.260001
Si Si6 0.824217 0.468434 0.145187
Si Si7 0.818582 0.462669 0.000000
O O1 0.287672 0.821566 0.570099
O O2 0.268390 0.706587 0.500000
O O3 0.394517 0.831318 0.500000
O O4 0.878218 0.121782 0.750000
O O5 0.826566 0.059681 0.869837
O O6 0.751953 0.106841 0.798764
O O7 0.762685 0.000000 0.750000
O O8 0.695302 0.131922 0.690225
O O9 0.754284 0.277972 0.669412
O O10 0.615899 0.194410 0.648619
O O11 0.861806 0.900186 0.409480
O O12 0.853709 0.802788 0.500000
O O13 0.483256 0.109036 0.304829
O O14 0.375406 0.000000 0.250000
O O15 0.852504 0.504963 0.070378
#
# Coordination Sequence:
#
# PCOD8329503 Si02
#       7
#    12  24  24  24  24  24  12
#     4   8  15  28  53  83 115 137 164 207 282 356
#     4  11  21  37  59  79 111 156 199 236 276 337
#     4  10  19  35  60  87 113 140 175 231 296 356
#     4  10  20  36  61  95 127 151 185 241 307 358
#     4  11  25  39  53  72 107 154 197 236 272 319
#     4  10  19  35  58  87 113 137 175 229 292 353
#     4   8  15  28  51  83 113 137 158 207 274 346
#
# _framework density 19.293272000000002
#
# number of rings (size 3 to 8) (size 9 to 14) (size 15 to 20)
#    0.000    2.000    1.667    2.667    0.000    4.667 
#    1.500    2.500    7.333    3.000    0.000    0.000 
#    0.000    0.000    0.000    0.000    0.000    0.000 
#
# Total GULP energy -1783969.585105 kJ/mol
# GULP energy per Si atom -12388.677674 kJ/mol
# Density = 1.924936 g / cm^3
# Si number density = 19.293272 Si / 1000 Ang^3
#
#
#
# Elastic Constant Matrix: (Units=GPa)
#
#
# Indices 1 2 3 4 5 6 
#
# 1 80.2369 32.4382 48.6777 0.0000 0.0000 0.0000
# 2 32.4382 80.2369 48.6777 0.0000 0.0000 0.0000
# 3 48.6777 48.6777 139.5609 0.0000 0.0000 0.0000
# 4 0.0000 0.0000 0.0000 20.7142 0.0000 0.0000
# 5 0.0000 0.0000 0.0000 0.0000 20.7142 0.0000
# 6 0.0000 0.0000 0.0000 0.0000 0.0000 23.8994
#
#
#
# Elastic Compliance Matrix: (Units=1/GPa)
#
#
# Indices 1 2 3 4 5 6 
#
# 1 0.016812 -0.004109 -0.004431 0.000000 0.000000 0.000000
# 2 -0.004109 0.016812 -0.004431 0.000000 0.000000 0.000000
# 3 -0.004431 -0.004431 0.010256 0.000000 0.000000 0.000000
# 4 0.000000 0.000000 0.000000 0.048276 0.000000 0.000000
# 5 0.000000 0.000000 0.000000 0.000000 0.048276 0.000000
# 6 0.000000 0.000000 0.000000 0.000000 0.000000 0.041842
#
#
# Mechanical properties :
#
#
# Convention : Reuss Voigt Hill
#
# Bulk Modulus (GPa) = 55.74212 62.18021 58.96117
# Shear Modulus (GPa) = 23.34310 24.41496 23.87903
#
# Velocity S-wave (km/s) = 3.48215 3.56120 3.52189
# Velocity P-wave (km/s) = 6.71728 7.01487 6.86769
#
# Compressibility (1/GPa) = 0.01793975
#
# Stress axis : x y z
#
# Youngs Moduli (GPa) = 59.48025 59.48025 97.50149
#
# Poissons Ratio (x) = 0.24439 0.43202
# Poissons Ratio (y) = 0.24439 0.43202
# Poissons Ratio (z) = 0.26355 0.26355
#
# Static dielectric constant tensor:
#      x y z
#    x 3.544410 0.000000 0.000000 
#    y 0.000000 3.544410 0.000000 
#    z 0.000000 0.000000 4.044720 
# 
# 
# High freq. dielectric constant tensor:
#      x y z
#    x 1.734700 0.000000 0.000000 
#    y 0.000000 1.734700 0.000000 
#    z 0.000000 0.000000 1.771730 
# 
# From -- ./inp_files/5168.got.cif
#   From: 2010.03.12/outbox.cif.g09.slc.cpg/sg192_3_cif.got.tgz:5168.got - 2010.04.01 12:16:15.
