data_PCOD8329155
_publ_section_title
;
Structure prediction by ZEFSAII (Michael W. Deem and Ramdas Pophale) SiO2 
 PCOD8329155
Probable space group: P 6/M M M
;
_chemical_formula_sum "Si O2"
_cell_formula_units_Z 108
_cell_length_a 25.872895
_cell_length_b 25.872895
_cell_length_c 10.428563
_cell_angle_alpha 90.000000
_cell_angle_beta 90.000000
_cell_angle_gamma 120.000000
_cell_volume 6045.679955
_symmetry_space_group_name_H-M "P 6/M M M"
_symmetry_group_IT_number 191
_symmetry_cell_setting 'hexagonal'
loop_
_space_group_symop_operation_xyz
x,y,z
x-y,x,z
-y,x-y,z
-x,-y,z
-x+y,-x,z
y,-x+y,z
x-y,-y,-z
-x,-x+y,-z
y,x,-z
-y,-x,-z
-x+y,y,-z
x,x-y,-z
-x,-y,-z
-x+y,-x,-z
y,-x+y,-z
x,y,-z
x-y,x,-z
-y,x-y,-z
-x+y,y,z
x,x-y,z
-y,-x,z
y,x,z
x-y,-y,z
-x,-x+y,z
loop_
_atom_site_type_symbol
_atom_site_label
_atom_site_fract_x
_atom_site_fract_y
_atom_site_fract_z
Si Si1 0.218492 0.551806 0.849641
Si Si2 0.594911 0.067616 0.500000
Si Si3 0.881236 0.317856 0.727839
Si Si4 0.817531 0.635061 0.646396
Si Si5 0.257872 0.128936 0.152286
Si Si6 0.000000 0.334217 0.151674
Si Si7 0.780495 0.000000 0.149611
O O1 0.278328 0.556656 0.788657
O O2 0.209096 0.604548 0.790577
O O3 0.162844 0.486688 0.825362
O O4 0.226555 0.560441 0.000000
O O5 0.534040 0.068080 0.500000
O O6 0.632180 0.102440 0.377492
O O7 0.582762 0.000000 0.500000
O O8 0.849195 0.253153 0.663052
O O9 0.940700 0.332753 0.803052
O O10 0.830634 0.661268 0.500000
O O11 0.842160 0.684320 0.758341
O O12 0.217565 0.059199 0.188831
O O13 0.276509 0.138254 0.000000
O O14 0.000000 0.276438 0.212563
O O15 0.000000 0.333190 0.000000
O O16 0.771158 0.000000 0.000000
#
# Coordination Sequence:
#
# PCOD8329155 Si02
#       7
#    24  12  24  12  12  12  12
#     4  10  21  37  58  83 111 144 184 234 287 337
#     4  11  24  41  60  78 104 152 198 226 273 346
#     4  12  22  39  58  81 115 150 184 236 285 346
#     4  12  24  36  58  90 121 149 193 240 298 351
#     4  10  20  36  58  85 120 162 202 242 292 356
#     4  11  22  35  57  90 118 147 188 232 290 355
#     4   9  18  32  54  83 117 157 199 240 285 346
#
# _framework density 17.863996
#
# number of rings (size 3 to 8) (size 9 to 14) (size 15 to 20)
#    0.000    1.222    5.556    1.556    0.000    1.778 
#    0.000    1.667    0.000    2.889    0.000    1.556 
#    0.000    0.000    0.000    1.000    0.000    1.111 
#
# Total GULP energy -1338929.835838 kJ/mol
# GULP energy per Si atom -12397.498480 kJ/mol
# Density = 1.782334 g / cm^3
# Si number density = 17.863996 Si / 1000 Ang^3
#
#
#
# Elastic Constant Matrix: (Units=GPa)
#
#
# Indices 1 2 3 4 5 6 
#
# 1 134.6126 65.0213 31.4745 0.0000 0.0000 0.0000
# 2 65.0213 134.6126 31.4745 0.0000 0.0000 0.0000
# 3 31.4745 31.4745 61.8479 0.0000 0.0000 0.0000
# 4 0.0000 0.0000 0.0000 21.1901 0.0000 0.0000
# 5 0.0000 0.0000 0.0000 0.0000 21.1901 0.0000
# 6 0.0000 0.0000 0.0000 0.0000 0.0000 34.7957
#
#
#
# Elastic Compliance Matrix: (Units=1/GPa)
#
#
# Indices 1 2 3 4 5 6 
#
# 1 0.010168 -0.004201 -0.003036 0.000000 0.000000 0.000000
# 2 -0.004201 0.010168 -0.003036 0.000000 0.000000 0.000000
# 3 -0.003036 -0.003036 0.019259 0.000000 0.000000 0.000000
# 4 0.000000 0.000000 0.000000 0.047192 0.000000 0.000000
# 5 0.000000 0.000000 0.000000 0.000000 0.047192 0.000000
# 6 0.000000 0.000000 0.000000 0.000000 0.000000 0.028739
#
#
# Mechanical properties :
#
#
# Convention : Reuss Voigt Hill
#
# Bulk Modulus (GPa) = 52.50248 65.22376 58.86312
# Shear Modulus (GPa) = 26.36911 28.97537 27.67224
#
# Velocity S-wave (km/s) = 3.84618 4.03177 3.94007
# Velocity P-wave (km/s) = 7.01270 7.63310 7.32947
#
# Compressibility (1/GPa) = 0.01904672
#
# Stress axis : x y z
#
# Youngs Moduli (GPa) = 98.34665 98.34665 51.92332
#
# Poissons Ratio (x) = 0.41320 0.15766
# Poissons Ratio (y) = 0.41320 0.15766
# Poissons Ratio (z) = 0.29862 0.29862
#
# Static dielectric constant tensor:
#      x y z
#    x 3.586430 0.000000 0.000000 
#    y 0.000000 3.586430 0.000000 
#    z 0.000000 0.000000 3.162060 
# 
# 
# High freq. dielectric constant tensor:
#      x y z
#    x 1.699820 0.000000 0.000000 
#    y 0.000000 1.699820 0.000000 
#    z 0.000000 0.000000 1.673660 
# 
# From -- ./inp_files/3022.got.cif
#   From: 2010.03.12/outbox.cif.g09.slc.cpg/sg191_2_cif.got.tgz:3022.got - 2010.04.01 12:09:02.
