data_PCOD8329544
_publ_section_title
;
Structure prediction by ZEFSAII (Michael W. Deem and Ramdas Pophale) SiO2 
 PCOD8329544
Probable space group: P 6/M C C
;
_chemical_formula_sum "Si O2"
_cell_formula_units_Z 132
_cell_length_a 18.994214
_cell_length_b 18.994214
_cell_length_c 22.190652
_cell_angle_alpha 90.000000
_cell_angle_beta 90.000000
_cell_angle_gamma 120.000000
_cell_volume 6933.353570
_symmetry_space_group_name_H-M "P 6/M C C"
_symmetry_group_IT_number 192
_symmetry_cell_setting 'hexagonal'
loop_
_space_group_symop_operation_xyz
x,y,z
x-y,x,z
-y,x-y,z
-x,-y,z
-x+y,-x,z
y,-x+y,z
x-y,-y,1/2-z
-x,-x+y,1/2-z
y,x,1/2-z
-y,-x,1/2-z
-x+y,y,1/2-z
x,x-y,1/2-z
-x,-y,-z
-x+y,-x,-z
y,-x+y,-z
x,y,-z
x-y,x,-z
-y,x-y,-z
-x+y,y,1/2+z
x,x-y,1/2+z
-y,-x,1/2+z
y,x,1/2+z
x-y,-y,1/2+z
-x,-x+y,1/2+z
loop_
_atom_site_type_symbol
_atom_site_label
_atom_site_fract_x
_atom_site_fract_y
_atom_site_fract_z
Si Si1 0.907831 0.593858 0.679026
Si Si2 0.095985 0.196940 0.000000
Si Si3 0.475567 0.240048 0.000000
Si Si4 0.096176 0.691938 0.688056
Si Si5 0.550741 0.458045 0.369596
Si Si6 0.850418 0.425957 0.000000
Si Si7 0.832212 0.171164 0.403241
O O1 0.868917 0.591481 0.744559
O O2 0.865690 0.501241 0.653222
O O3 0.898185 0.652286 0.631439
O O4 0.001815 0.629399 0.688681
O O5 0.138977 0.141287 0.000000
O O6 0.124215 0.254735 0.940836
O O7 0.551542 0.330898 0.000000
O O8 0.513114 0.182128 0.000000
O O9 0.418237 0.223492 0.056964
O O10 0.136614 0.640604 0.660783
O O11 0.109318 0.767780 0.647740
O O12 0.500000 0.500000 0.349259
O O13 0.559393 0.464589 0.441500
#
# Coordination Sequence:
#
# PCOD8329544 Si02
#       7
#    24  12  12  24  24  12  24
#     4  10  20  35  56  82 114 150 188 232 284 343
#     4  11  25  44  66  90 120 152 188 240 314 402
#     4  11  23  34  55  73 111 154 201 239 281 328
#     4  10  20  35  56  82 114 150 188 232 284 343
#     4  10  20  33  54  79 111 150 190 228 274 333
#     4  12  20  38  49  75 106 154 196 227 279 322
#     4  11  21  38  58  88 112 146 190 245 294 346
#
# _framework density 19.038406999999999
#
# number of rings (size 3 to 8) (size 9 to 14) (size 15 to 20)
#    0.000    1.455    3.636    2.727    0.000    2.182 
#    0.000    0.000    0.000    0.000    0.000    5.091 
#    0.000    8.727    0.000    0.000    0.000    0.000 
#
# Total GULP energy -1635666.677580 kJ/mol
# GULP energy per Si atom -12391.414224 kJ/mol
# Density = 1.899507 g / cm^3
# Si number density = 19.038407 Si / 1000 Ang^3
#
#
#
# Elastic Constant Matrix: (Units=GPa)
#
#
# Indices 1 2 3 4 5 6 
#
# 1 86.3592 27.5079 35.9003 0.0000 0.0000 0.0000
# 2 27.5079 86.3592 35.9003 0.0000 0.0000 0.0000
# 3 35.9003 35.9003 142.9100 0.0000 0.0000 0.0000
# 4 0.0000 0.0000 0.0000 29.7187 0.0000 0.0000
# 5 0.0000 0.0000 0.0000 0.0000 29.7187 0.0000
# 6 0.0000 0.0000 0.0000 0.0000 0.0000 29.4256
#
#
#
# Elastic Compliance Matrix: (Units=1/GPa)
#
#
# Indices 1 2 3 4 5 6 
#
# 1 0.013714 -0.003278 -0.002621 0.000000 0.000000 0.000000
# 2 -0.003278 0.013714 -0.002621 0.000000 0.000000 0.000000
# 3 -0.002621 -0.002621 0.008314 0.000000 0.000000 0.000000
# 4 0.000000 0.000000 0.000000 0.033649 0.000000 0.000000
# 5 0.000000 0.000000 0.000000 0.000000 0.033649 0.000000
# 6 0.000000 0.000000 0.000000 0.000000 0.000000 0.033984
#
#
# Mechanical properties :
#
#
# Convention : Reuss Voigt Hill
#
# Bulk Modulus (GPa) = 53.47849 57.13839 55.30844
# Shear Modulus (GPa) = 31.19174 32.19390 31.69282
#
# Velocity S-wave (km/s) = 4.05206 4.11664 4.08447
# Velocity P-wave (km/s) = 7.07411 7.25761 7.16645
#
# Compressibility (1/GPa) = 0.01869911
#
# Stress axis : x y z
#
# Youngs Moduli (GPa) = 72.92049 72.92049 120.27247
#
# Poissons Ratio (x) = 0.23906 0.31528
# Poissons Ratio (y) = 0.23906 0.31528
# Poissons Ratio (z) = 0.19115 0.19115
#
# Static dielectric constant tensor:
#      x y z
#    x 3.347560 0.000000 0.000000 
#    y 0.000000 3.347560 0.000000 
#    z 0.000000 0.000000 3.819940 
# 
# 
# High freq. dielectric constant tensor:
#      x y z
#    x 1.725440 0.000000 0.000000 
#    y 0.000000 1.725440 0.000000 
#    z 0.000000 0.000000 1.759800 
# 
# From -- ./inp_files/5865.got.cif
#   From: 2010.03.12/outbox.cif.g09.slc.cpg/sg192_3_cif.got.tgz:5865.got - 2010.04.01 12:16:15.
