data_PCOD8329542
_publ_section_title
;
Structure prediction by ZEFSAII (Michael W. Deem and Ramdas Pophale) SiO2 
 PCOD8329542
Probable space group: P 6/M C C
;
_chemical_formula_sum "Si O2"
_cell_formula_units_Z 144
_cell_length_a 32.286922
_cell_length_b 32.286922
_cell_length_c 8.917960
_cell_angle_alpha 90.000000
_cell_angle_beta 90.000000
_cell_angle_gamma 120.000000
_cell_volume 8050.992847
_symmetry_space_group_name_H-M "P 6/M C C"
_symmetry_group_IT_number 192
_symmetry_cell_setting 'hexagonal'
loop_
_space_group_symop_operation_xyz
x,y,z
x-y,x,z
-y,x-y,z
-x,-y,z
-x+y,-x,z
y,-x+y,z
x-y,-y,1/2-z
-x,-x+y,1/2-z
y,x,1/2-z
-y,-x,1/2-z
-x+y,y,1/2-z
x,x-y,1/2-z
-x,-y,-z
-x+y,-x,-z
y,-x+y,-z
x,y,-z
x-y,x,-z
-y,x-y,-z
-x+y,y,1/2+z
x,x-y,1/2+z
-y,-x,1/2+z
y,x,1/2+z
x-y,-y,1/2+z
-x,-x+y,1/2+z
loop_
_atom_site_type_symbol
_atom_site_label
_atom_site_fract_x
_atom_site_fract_y
_atom_site_fract_z
Si Si1 0.610378 0.050791 0.323311
Si Si2 0.894058 0.190308 0.174074
Si Si3 0.861635 0.472883 0.176534
Si Si4 0.050689 0.861905 0.821812
Si Si5 0.473960 0.194829 0.674736
Si Si6 0.108270 0.718673 0.173914
O O1 0.601223 0.047783 0.500000
O O2 0.596808 0.087918 0.252534
O O3 0.665338 0.067051 0.283766
O O4 0.576496 0.000000 0.250000
O O5 0.843338 0.156663 0.250000
O O6 0.933947 0.177120 0.225678
O O7 0.911396 0.245406 0.214532
O O8 0.884622 0.180379 0.000000
O O9 0.841935 0.420968 0.250000
O O10 0.822455 0.488339 0.213170
O O11 0.869499 0.471599 0.000000
O O12 0.087336 0.912665 0.750000
O O13 0.000000 0.846270 0.750000
O O14 0.048816 0.866829 0.000000
O O15 0.492462 0.246231 0.750000
O O16 0.469558 0.200429 0.500000
O O17 0.421780 0.156357 0.734007
O O18 0.121990 0.721687 0.000000
#
# Coordination Sequence:
#
# PCOD8329542 Si02
#       6
#    24  24  24  24  24  24
#     4  10  20  34  51  72 101 136 174 216 259 302
#     4   9  18  31  47  70 100 133 169 206 244 288
#     4  10  21  37  56  78 102 130 167 210 256 306
#     4  10  20  35  54  76 102 132 167 206 248 294
#     4  10  20  33  52  78 105 133 166 205 251 304
#     4   9  18  32  49  71 102 139 176 214 253 293
#
# _framework density 17.885992000000002
#
# number of rings (size 3 to 8) (size 9 to 14) (size 15 to 20)
#    0.000    2.333    0.000    2.500    0.000    6.333 
#    0.000    1.667    0.000    0.500    0.000    1.167 
#    0.000    0.000    0.000    0.000    0.000    0.000 
#
# Total GULP energy -1785832.800719 kJ/mol
# GULP energy per Si atom -12401.616672 kJ/mol
# Density = 1.784528 g / cm^3
# Si number density = 17.885992 Si / 1000 Ang^3
#
#
#
# Elastic Constant Matrix: (Units=GPa)
#
#
# Indices 1 2 3 4 5 6 
#
# 1 106.6419 61.1129 51.0692 0.0000 0.0000 0.0000
# 2 61.1129 106.6419 51.0692 0.0000 0.0000 0.0000
# 3 51.0692 51.0692 84.9627 0.0000 0.0000 0.0000
# 4 0.0000 0.0000 0.0000 30.1007 0.0000 0.0000
# 5 0.0000 0.0000 0.0000 0.0000 30.1007 0.0000
# 6 0.0000 0.0000 0.0000 0.0000 0.0000 22.7645
#
#
#
# Elastic Compliance Matrix: (Units=1/GPa)
#
#
# Indices 1 2 3 4 5 6 
#
# 1 0.015683 -0.006281 -0.005651 0.000000 0.000000 0.000000
# 2 -0.006281 0.015683 -0.005651 0.000000 0.000000 0.000000
# 3 -0.005651 -0.005651 0.018564 0.000000 0.000000 0.000000
# 4 0.000000 0.000000 0.000000 0.033222 0.000000 0.000000
# 5 0.000000 0.000000 0.000000 0.000000 0.033222 0.000000
# 6 0.000000 0.000000 0.000000 0.000000 0.000000 0.043928
#
#
# Mechanical properties :
#
#
# Convention : Reuss Voigt Hill
#
# Bulk Modulus (GPa) = 67.74022 69.41658 68.57840
# Shear Modulus (GPa) = 24.95145 25.59285 25.27215
#
# Velocity S-wave (km/s) = 3.73906 3.78681 3.76301
# Velocity P-wave (km/s) = 7.52305 7.61674 7.57004
#
# Compressibility (1/GPa) = 0.01476228
#
# Stress axis : x y z
#
# Youngs Moduli (GPa) = 63.76351 63.76351 53.86890
#
# Poissons Ratio (x) = 0.40050 0.30443
# Poissons Ratio (y) = 0.40050 0.30443
# Poissons Ratio (z) = 0.36034 0.36034
#
# Static dielectric constant tensor:
#      x y z
#    x 3.304890 0.000000 0.000000 
#    y 0.000000 3.304890 0.000000 
#    z 0.000000 0.000000 3.388450 
# 
# 
# High freq. dielectric constant tensor:
#      x y z
#    x 1.683550 0.000000 0.000000 
#    y 0.000000 1.683550 0.000000 
#    z 0.000000 0.000000 1.704200 
# 
# From -- ./inp_files/1170.got.cif
#   From: 2010.03.12/outbox.cif.g09.slc.cpg/sg192_1_cif.got.tgz:1170.got - 2010.04.01 12:16:15.
