data_PCOD8329435
_publ_section_title
;
Structure prediction by ZEFSAII (Michael W. Deem and Ramdas Pophale) SiO2 
 PCOD8329435
Probable space group: P 6/M C C
;
_chemical_formula_sum "Si O2"
_cell_formula_units_Z 144
_cell_length_a 32.540330
_cell_length_b 32.540330
_cell_length_c 8.845098
_cell_angle_alpha 90.000000
_cell_angle_beta 90.000000
_cell_angle_gamma 120.000000
_cell_volume 8111.052017
_symmetry_space_group_name_H-M "P 6/M C C"
_symmetry_group_IT_number 192
_symmetry_cell_setting 'hexagonal'
loop_
_space_group_symop_operation_xyz
x,y,z
x-y,x,z
-y,x-y,z
-x,-y,z
-x+y,-x,z
y,-x+y,z
x-y,-y,1/2-z
-x,-x+y,1/2-z
y,x,1/2-z
-y,-x,1/2-z
-x+y,y,1/2-z
x,x-y,1/2-z
-x,-y,-z
-x+y,-x,-z
y,-x+y,-z
x,y,-z
x-y,x,-z
-y,x-y,-z
-x+y,y,1/2+z
x,x-y,1/2+z
-y,-x,1/2+z
y,x,1/2+z
x-y,-y,1/2+z
-x,-x+y,1/2+z
loop_
_atom_site_type_symbol
_atom_site_label
_atom_site_fract_x
_atom_site_fract_y
_atom_site_fract_z
Si Si1 0.704431 0.811241 0.176834
Si Si2 0.660306 0.952936 0.676870
Si Si3 0.387349 0.862615 0.322632
Si Si4 0.615361 0.049603 0.179396
Si Si5 0.863457 0.812397 0.320556
Si Si6 0.245355 0.578035 0.677941
O O1 0.684093 0.842047 0.250000
O O2 0.668273 0.757852 0.230739
O O3 0.757977 0.828230 0.229700
O O4 0.703486 0.816935 0.000000
O O5 0.666250 0.960097 0.500000
O O6 0.609566 0.943962 0.730144
O O7 0.702146 0.000000 0.750000
O O8 0.433972 0.867943 0.250000
O O9 0.394801 0.872773 0.500000
O O10 0.380722 0.903062 0.245199
O O11 0.344293 0.808809 0.290885
O O12 0.573182 0.000000 0.250000
O O13 0.607787 0.047432 0.000000
O O14 0.844605 0.844605 0.250000
O O15 0.915053 0.830105 0.250000
O O16 0.867289 0.818348 0.500000
O O17 0.281585 0.563170 0.750000
O O18 0.254208 0.627104 0.750000
O O19 0.255021 0.586362 0.500000
#
# Coordination Sequence:
#
# PCOD8329435 Si02
#       6
#    24  24  24  24  24  24
#     4   9  18  31  47  70  99 129 162 199 240 287
#     4   9  18  32  50  72  97 127 163 202 244 290
#     4  10  21  37  56  79 106 136 172 214 260 306
#     4  10  20  35  55  77 103 134 170 213 258 306
#     4  10  19  31  48  70  96 125 158 197 241 288
#     4  10  20  34  54  79 108 140 174 212 253 302
#
# _framework density 17.753554999999999
#
# number of rings (size 3 to 8) (size 9 to 14) (size 15 to 20)
#    0.000    2.333    0.000    2.667    0.000    4.333 
#    0.000    2.500    0.000    4.167    0.000    1.167 
#    0.000    0.000    0.000    0.000    0.000    0.000 
#
# Total GULP energy -1785167.422179 kJ/mol
# GULP energy per Si atom -12396.995987 kJ/mol
# Density = 1.771315 g / cm^3
# Si number density = 17.753555 Si / 1000 Ang^3
#
#
#
# Elastic Constant Matrix: (Units=GPa)
#
#
# Indices 1 2 3 4 5 6 
#
# 1 120.3539 65.8508 50.0763 0.0000 0.0000 0.0000
# 2 65.8508 120.3539 50.0763 0.0000 0.0000 0.0000
# 3 50.0763 50.0763 75.4555 0.0000 0.0000 0.0000
# 4 0.0000 0.0000 0.0000 28.3930 0.0000 0.0000
# 5 0.0000 0.0000 0.0000 0.0000 28.3930 0.0000
# 6 0.0000 0.0000 0.0000 0.0000 0.0000 27.2516
#
#
#
# Elastic Compliance Matrix: (Units=1/GPa)
#
#
# Indices 1 2 3 4 5 6 
#
# 1 0.013350 -0.004998 -0.005543 0.000000 0.000000 0.000000
# 2 -0.004998 0.013350 -0.005543 0.000000 0.000000 0.000000
# 3 -0.005543 -0.005543 0.020610 0.000000 0.000000 0.000000
# 4 0.000000 0.000000 0.000000 0.035220 0.000000 0.000000
# 5 0.000000 0.000000 0.000000 0.000000 0.035220 0.000000
# 6 0.000000 0.000000 0.000000 0.000000 0.000000 0.036695
#
#
# Mechanical properties :
#
#
# Convention : Reuss Voigt Hill
#
# Bulk Modulus (GPa) = 66.03950 72.01889 69.02920
# Shear Modulus (GPa) = 26.08821 26.81815 26.45318
#
# Velocity S-wave (km/s) = 3.83752 3.89083 3.86427
# Velocity P-wave (km/s) = 7.54414 7.79992 7.67310
#
# Compressibility (1/GPa) = 0.01514245
#
# Stress axis : x y z
#
# Youngs Moduli (GPa) = 74.90878 74.90878 48.52130
#
# Poissons Ratio (x) = 0.37439 0.26893
# Poissons Ratio (y) = 0.37439 0.26893
# Poissons Ratio (z) = 0.41519 0.41519
#
# Static dielectric constant tensor:
#      x y z
#    x 3.380990 0.000000 0.000000 
#    y 0.000000 3.380990 0.000000 
#    z 0.000000 0.000000 3.357280 
# 
# 
# High freq. dielectric constant tensor:
#      x y z
#    x 1.682570 0.000000 0.000000 
#    y 0.000000 1.682570 0.000000 
#    z 0.000000 0.000000 1.698290 
# 
# From -- ./inp_files/1141.got.cif
#   From: 2010.03.12/outbox.cif.g09.slc.cpg/sg192_1_cif.got.tgz:1141.got - 2010.04.01 12:16:15.
