data_PCOD8329360
_publ_section_title
;
Structure prediction by ZEFSAII (Michael W. Deem and Ramdas Pophale) SiO2 
 PCOD8329360
Probable space group: P 6/M C C
;
_chemical_formula_sum "Si O2"
_cell_formula_units_Z 192
_cell_length_a 25.487981
_cell_length_b 25.487981
_cell_length_c 23.411155
_cell_angle_alpha 90.000000
_cell_angle_beta 90.000000
_cell_angle_gamma 120.000000
_cell_volume 13171.169583
_symmetry_space_group_name_H-M "P 6/M C C"
_symmetry_group_IT_number 192
_symmetry_cell_setting 'hexagonal'
loop_
_space_group_symop_operation_xyz
x,y,z
x-y,x,z
-y,x-y,z
-x,-y,z
-x+y,-x,z
y,-x+y,z
x-y,-y,1/2-z
-x,-x+y,1/2-z
y,x,1/2-z
-y,-x,1/2-z
-x+y,y,1/2-z
x,x-y,1/2-z
-x,-y,-z
-x+y,-x,-z
y,-x+y,-z
x,y,-z
x-y,x,-z
-y,x-y,-z
-x+y,y,1/2+z
x,x-y,1/2+z
-y,-x,1/2+z
y,x,1/2+z
x-y,-y,1/2+z
-x,-x+y,1/2+z
loop_
_atom_site_type_symbol
_atom_site_label
_atom_site_fract_x
_atom_site_fract_y
_atom_site_fract_z
Si Si1 0.535833 0.071666 0.436965
Si Si2 0.116461 0.356395 0.932915
Si Si3 0.566687 0.638552 0.370585
Si Si4 0.071290 0.594646 0.750000
Si Si5 0.882539 0.000001 0.568255
Si Si6 0.928136 0.566688 0.129415
Si Si7 0.356396 0.116461 0.932915
Si Si8 0.766191 0.766191 0.432519
O O1 0.550259 0.100517 0.500000
O O2 0.598031 0.093450 0.404148
O O3 0.495418 0.093450 0.404150
O O4 0.500000 0.000000 0.440281
O O5 0.112399 0.406899 0.895740
O O6 0.179124 0.358247 0.919687
O O7 0.060773 0.292800 0.911893
O O8 0.110610 0.367097 0.000000
O O9 0.547899 0.638229 0.304912
O O10 0.613930 0.613930 0.378421
O O11 0.593099 0.705499 0.395740
O O12 0.100242 0.550121 0.750000
O O13 0.090329 0.638229 0.695088
O O14 0.000000 0.550654 0.750000
O O15 0.882849 0.941425 0.592089
O O16 0.881854 0.000001 0.500000
O O17 0.824184 0.000001 0.593963
O O18 0.292801 0.060773 0.911892
O O19 0.367097 0.110610 0.000000
O O20 0.770295 0.770296 0.500000
#
# Coordination Sequence:
#
# PCOD8329360 Si02
#       8
#    24  24  24  24  24  24  24  24
#     4   9  16  23  39  65  91 116 141 173 215 265
#     4  10  19  29  42  62  90 123 158 195 234 278
#     4  10  17  28  44  64  91 119 151 184 218 267
#     4   9  16  28  45  66  90 119 147 176 215 261
#     4   9  15  22  33  50  72 100 141 194 244 284
#     4  10  17  28  44  64  91 119 151 184 218 267
#     4  10  19  29  42  62  90 123 158 195 234 278
#     4   9  16  27  40  53  76 115 158 191 227 282
#
# _framework density 14.577294
#
# number of rings (size 3 to 8) (size 9 to 14) (size 15 to 20)
#    0.000    2.500    2.500    1.625    0.000    4.500 
#    0.000    0.625    0.000    0.000    0.000    0.000 
#    1.250    0.000    1.500    0.000    0.000    0.375 
#
# Total GULP energy -2380090.732375 kJ/mol
# GULP energy per Si atom -12396.305898 kJ/mol
# Density = 1.454412 g / cm^3
# Si number density = 14.577294 Si / 1000 Ang^3
#
#
#
# Elastic Constant Matrix: (Units=GPa)
#
#
# Indices 1 2 3 4 5 6 
#
# 1 101.9242 61.1295 43.9959 0.0000 0.0000 0.0000
# 2 61.1295 101.9242 43.9959 0.0000 0.0000 0.0000
# 3 43.9959 43.9959 87.5923 0.0000 0.0000 0.0000
# 4 0.0000 0.0000 0.0000 7.7125 0.0000 0.0000
# 5 0.0000 0.0000 0.0000 0.0000 7.7125 0.0000
# 6 0.0000 0.0000 0.0000 0.0000 0.0000 20.3973
#
#
#
# Elastic Compliance Matrix: (Units=1/GPa)
#
#
# Indices 1 2 3 4 5 6 
#
# 1 0.016463 -0.008050 -0.004226 0.000000 0.000000 0.000000
# 2 -0.008050 0.016463 -0.004226 0.000000 0.000000 0.000000
# 3 -0.004226 -0.004226 0.015662 0.000000 0.000000 0.000000
# 4 0.000000 0.000000 0.000000 0.129659 0.000000 0.000000
# 5 0.000000 0.000000 0.000000 0.000000 0.129659 0.000000
# 6 0.000000 0.000000 0.000000 0.000000 0.000000 0.049026
#
#
# Mechanical properties :
#
#
# Convention : Reuss Voigt Hill
#
# Bulk Modulus (GPa) = 64.16439 65.52039 64.84239
# Shear Modulus (GPa) = 12.65402 16.65242 14.65322
#
# Velocity S-wave (km/s) = 2.94949 3.38354 3.17394
# Velocity P-wave (km/s) = 7.46402 7.76588 7.61644
#
# Compressibility (1/GPa) = 0.01558497
#
# Stress axis : x y z
#
# Youngs Moduli (GPa) = 60.74137 60.74137 63.84988
#
# Poissons Ratio (x) = 0.48895 0.26982
# Poissons Ratio (y) = 0.48895 0.26982
# Poissons Ratio (z) = 0.25669 0.25669
#
# Static dielectric constant tensor:
#      x y z
#    x 2.759180 0.000000 0.000000 
#    y 0.000000 2.759180 0.000000 
#    z 0.000000 0.000000 2.799490 
# 
# 
# High freq. dielectric constant tensor:
#      x y z
#    x 1.543140 0.000000 0.000000 
#    y 0.000000 1.543140 0.000000 
#    z 0.000000 0.000000 1.530250 
# 
# From -- ./inp_files/6697.got.cif
#   From: 2010.03.12/outbox.cif.g09.slc.cpg/sg192_4_cif.got.tgz:6697.got - 2010.04.01 12:16:15.
