data_PCOD8329115
_publ_section_title
;
Structure prediction by ZEFSAII (Michael W. Deem and Ramdas Pophale) SiO2 
 PCOD8329115
Probable space group: P 6/M M M
;
_chemical_formula_sum "Si O2"
_cell_formula_units_Z 144
_cell_length_a 31.464748
_cell_length_b 31.464748
_cell_length_c 9.241970
_cell_angle_alpha 90.000000
_cell_angle_beta 90.000000
_cell_angle_gamma 120.000000
_cell_volume 7923.986041
_symmetry_space_group_name_H-M "P 6/M M M"
_symmetry_group_IT_number 191
_symmetry_cell_setting 'hexagonal'
loop_
_space_group_symop_operation_xyz
x,y,z
x-y,x,z
-y,x-y,z
-x,-y,z
-x+y,-x,z
y,-x+y,z
x-y,-y,-z
-x,-x+y,-z
y,x,-z
-y,-x,-z
-x+y,y,-z
x,x-y,-z
-x,-y,-z
-x+y,-x,-z
y,-x+y,-z
x,y,-z
x-y,x,-z
-y,x-y,-z
-x+y,y,z
x,x-y,z
-y,-x,z
y,x,z
x-y,-y,z
-x,-x+y,z
loop_
_atom_site_type_symbol
_atom_site_label
_atom_site_fract_x
_atom_site_fract_y
_atom_site_fract_z
Si Si1 0.149242 0.203948 0.165998
Si Si2 0.235594 0.568753 0.330646
Si Si3 0.766399 0.710060 0.669261
Si Si4 0.478751 0.148810 0.170042
Si Si5 0.574742 0.520742 0.171774
Si Si6 0.622832 0.860332 0.168721
O O1 0.092026 0.184051 0.198027
O O2 0.159953 0.159953 0.201557
O O3 0.181367 0.250616 0.265478
O O4 0.162510 0.221246 0.000000
O O5 0.226250 0.558392 0.500000
O O6 0.285370 0.570740 0.281511
O O7 0.240145 0.620073 0.287191
O O8 0.190654 0.525969 0.247124
O O9 0.773441 0.706534 0.500000
O O10 0.725947 0.725947 0.702962
O O11 0.748955 0.657824 0.741361
O O12 0.468342 0.095896 0.229110
O O13 0.432648 0.155263 0.208504
O O14 0.489371 0.153641 0.000000
O O15 0.532784 0.467217 0.226949
O O16 0.562174 0.562174 0.229088
O O17 0.574833 0.521514 0.000000
O O18 0.631793 0.815897 0.212293
O O19 0.633281 0.873047 0.000000
#
# Coordination Sequence:
#
# PCOD8329115 Si02
#       6
#    24  24  24  24  24  24
#     4   9  17  30  49  72  98 129 165 205 250 300
#     4  10  21  37  56  77 103 136 172 208 249 300
#     4  10  21  35  51  73  99 127 164 210 254 296
#     4  10  20  34  54  79 104 131 167 210 251 292
#     4   8  14  26  46  73 102 129 159 197 241 287
#     4  10  21  35  50  71 101 135 169 205 247 299
#
# _framework density 18.172671999999999
#
# number of rings (size 3 to 8) (size 9 to 14) (size 15 to 20)
#    0.000    2.500    0.000    2.667    0.000    7.667 
#    0.000    1.667    0.000    1.667    0.000    3.500 
#    0.000    0.000    0.000    4.167    0.000    4.333 
#
# Total GULP energy -1785584.096003 kJ/mol
# GULP energy per Si atom -12399.889556 kJ/mol
# Density = 1.813131 g / cm^3
# Si number density = 18.172672 Si / 1000 Ang^3
#
#
#
# Elastic Constant Matrix: (Units=GPa)
#
#
# Indices 1 2 3 4 5 6 
#
# 1 126.7988 64.2059 43.1001 0.0000 0.0000 0.0000
# 2 64.2059 126.7988 43.1001 0.0000 0.0000 0.0000
# 3 43.1001 43.1001 44.9373 0.0000 0.0000 0.0000
# 4 0.0000 0.0000 0.0000 24.2663 0.0000 0.0000
# 5 0.0000 0.0000 0.0000 0.0000 24.2663 0.0000
# 6 0.0000 0.0000 0.0000 0.0000 0.0000 31.2964
#
#
#
# Elastic Compliance Matrix: (Units=1/GPa)
#
#
# Indices 1 2 3 4 5 6 
#
# 1 0.012604 -0.003373 -0.008854 0.000000 0.000000 0.000000
# 2 -0.003373 0.012604 -0.008854 0.000000 0.000000 0.000000
# 3 -0.008854 -0.008854 0.039237 0.000000 0.000000 0.000000
# 4 0.000000 0.000000 0.000000 0.041209 0.000000 0.000000
# 5 0.000000 0.000000 0.000000 0.000000 0.041209 0.000000
# 6 0.000000 0.000000 0.000000 0.000000 0.000000 0.031953
#
#
# Mechanical properties :
#
#
# Convention : Reuss Voigt Hill
#
# Bulk Modulus (GPa) = 44.87509 66.59411 55.73460
# Shear Modulus (GPa) = 21.89105 25.84104 23.86605
#
# Velocity S-wave (km/s) = 3.47452 3.77500 3.62787
# Velocity P-wave (km/s) = 6.39091 7.46495 6.94871
#
# Compressibility (1/GPa) = 0.02228408
#
# Stress axis : x y z
#
# Youngs Moduli (GPa) = 79.34169 79.34169 25.48632
#
# Poissons Ratio (x) = 0.26758 0.22565
# Poissons Ratio (y) = 0.26758 0.22565
# Poissons Ratio (z) = 0.70247 0.70247
#
# Static dielectric constant tensor:
#      x y z
#    x 3.487410 0.000000 0.000000 
#    y 0.000000 3.487410 0.000000 
#    z 0.000000 0.000000 3.156300 
# 
# 
# High freq. dielectric constant tensor:
#      x y z
#    x 1.709480 0.000000 0.000000 
#    y 0.000000 1.709480 0.000000 
#    z 0.000000 0.000000 1.680090 
# 
# From -- ./inp_files/1973.got.cif
#   From: 2010.03.12/outbox.cif.g09.slc.cpg/sg191_1_cif.got.tgz:1973.got - 2010.04.01 12:09:02.
