data_PCOD8329057
_publ_section_title
;
Structure prediction by ZEFSAII (Michael W. Deem and Ramdas Pophale) SiO2 
 PCOD8329057
Probable space group: P 6/M M M
;
_chemical_formula_sum "Si O2"
_cell_formula_units_Z 144
_cell_length_a 32.190225
_cell_length_b 32.190225
_cell_length_c 8.981980
_cell_angle_alpha 90.000000
_cell_angle_beta 90.000000
_cell_angle_gamma 120.000000
_cell_volume 8060.291345
_symmetry_space_group_name_H-M "P 6/M M M"
_symmetry_group_IT_number 191
_symmetry_cell_setting 'hexagonal'
loop_
_space_group_symop_operation_xyz
x,y,z
x-y,x,z
-y,x-y,z
-x,-y,z
-x+y,-x,z
y,-x+y,z
x-y,-y,-z
-x,-x+y,-z
y,x,-z
-y,-x,-z
-x+y,y,-z
x,x-y,-z
-x,-y,-z
-x+y,-x,-z
y,-x+y,-z
x,y,-z
x-y,x,-z
-y,x-y,-z
-x+y,y,z
x,x-y,z
-y,-x,z
y,x,z
x-y,-y,z
-x,-x+y,z
loop_
_atom_site_type_symbol
_atom_site_label
_atom_site_fract_x
_atom_site_fract_y
_atom_site_fract_z
Si Si1 0.199381 0.895713 0.671157
Si Si2 0.141859 0.522005 0.833525
Si Si3 0.857541 0.052480 0.677201
Si Si4 0.333089 0.570883 0.324906
Si Si5 0.351403 0.296929 0.171824
Si Si6 0.437644 0.054382 0.675462
O O1 0.216316 0.907670 0.500000
O O2 0.160265 0.839736 0.688650
O O3 0.177455 0.928184 0.727520
O O4 0.243707 0.907817 0.776453
O O5 0.145981 0.572991 0.838374
O O6 0.189699 0.528723 0.752362
O O7 0.092887 0.487343 0.747950
O O8 0.139775 0.502203 0.000000
O O9 0.857758 0.050900 0.500000
O O10 0.911394 0.088607 0.735799
O O11 0.839281 0.000000 0.746488
O O12 0.332207 0.562494 0.500000
O O13 0.283491 0.566981 0.270225
O O14 0.376418 0.623583 0.281770
O O15 0.308534 0.308534 0.198377
O O16 0.396977 0.331817 0.268918
O O17 0.366654 0.303136 0.000000
O O18 0.442418 0.060988 0.500000
O O19 0.423924 0.000000 0.720513
#
# Coordination Sequence:
#
# PCOD8329057 Si02
#       6
#    24  24  24  24  24  24
#     4   9  17  29  46  68  92 120 157 198 238 283
#     4  10  21  36  54  78 109 141 170 206 254 302
#     4   8  13  21  35  56  81 110 146 189 234 278
#     4   9  17  31  53  80 109 141 177 215 253 295
#     4  10  20  33  50  72  98 127 157 192 239 294
#     4  10  21  37  57  78  99 128 168 211 251 292
#
# _framework density 17.865359000000002
#
# number of rings (size 3 to 8) (size 9 to 14) (size 15 to 20)
#    0.000    2.667    0.000    3.167    0.000    5.333 
#    0.000    2.500    0.000    6.167    0.000    1.167 
#    0.000    0.000    0.000    0.000    0.000    0.000 
#
# Total GULP energy -1785263.886854 kJ/mol
# GULP energy per Si atom -12397.665881 kJ/mol
# Density = 1.782470 g / cm^3
# Si number density = 17.865359 Si / 1000 Ang^3
#
#
#
# Elastic Constant Matrix: (Units=GPa)
#
#
# Indices 1 2 3 4 5 6 
#
# 1 82.6562 34.4030 34.7422 0.0000 0.0000 0.0000
# 2 34.4030 82.6562 34.7422 0.0000 0.0000 0.0000
# 3 34.7422 34.7422 66.5117 0.0000 0.0000 0.0000
# 4 0.0000 0.0000 0.0000 22.5266 0.0000 0.0000
# 5 0.0000 0.0000 0.0000 0.0000 22.5266 0.0000
# 6 0.0000 0.0000 0.0000 0.0000 0.0000 24.1266
#
#
#
# Elastic Compliance Matrix: (Units=1/GPa)
#
#
# Indices 1 2 3 4 5 6 
#
# 1 0.016553 -0.004171 -0.006468 0.000000 0.000000 0.000000
# 2 -0.004171 0.016553 -0.006468 0.000000 0.000000 0.000000
# 3 -0.006468 -0.006468 0.021792 0.000000 0.000000 0.000000
# 4 0.000000 0.000000 0.000000 0.044392 0.000000 0.000000
# 5 0.000000 0.000000 0.000000 0.000000 0.044392 0.000000
# 6 0.000000 0.000000 0.000000 0.000000 0.000000 0.041448
#
#
# Mechanical properties :
#
#
# Convention : Reuss Voigt Hill
#
# Bulk Modulus (GPa) = 48.34471 48.84431 48.59451
# Shear Modulus (GPa) = 22.10077 22.36509 22.23293
#
# Velocity S-wave (km/s) = 3.52102 3.54201 3.53153
# Velocity P-wave (km/s) = 6.60677 6.64285 6.62483
#
# Compressibility (1/GPa) = 0.02068479
#
# Stress axis : x y z
#
# Youngs Moduli (GPa) = 60.41254 60.41254 45.88939
#
# Poissons Ratio (x) = 0.25199 0.29679
# Poissons Ratio (y) = 0.25199 0.29679
# Poissons Ratio (z) = 0.39072 0.39072
#
# Static dielectric constant tensor:
#      x y z
#    x 3.363650 0.000000 0.000000 
#    y 0.000000 3.363650 0.000000 
#    z 0.000000 0.000000 3.235480 
# 
# 
# High freq. dielectric constant tensor:
#      x y z
#    x 1.685130 0.000000 0.000000 
#    y 0.000000 1.685130 0.000000 
#    z 0.000000 0.000000 1.678670 
# 
# From -- ./inp_files/1980.got.cif
#   From: 2010.03.12/outbox.cif.g09.slc.cpg/sg191_1_cif.got.tgz:1980.got - 2010.04.01 12:09:02.
