data_PCOD8329465
_publ_section_title
;
Structure prediction by ZEFSAII (Michael W. Deem and Ramdas Pophale) SiO2 
 PCOD8329465
Probable space group: P 6/M C C
;
_chemical_formula_sum "Si O2"
_cell_formula_units_Z 192
_cell_length_a 24.066616
_cell_length_b 24.066616
_cell_length_c 20.926034
_cell_angle_alpha 90.000000
_cell_angle_beta 90.000000
_cell_angle_gamma 120.000000
_cell_volume 10496.575052
_symmetry_space_group_name_H-M "P 6/M C C"
_symmetry_group_IT_number 192
_symmetry_cell_setting 'hexagonal'
loop_
_space_group_symop_operation_xyz
x,y,z
x-y,x,z
-y,x-y,z
-x,-y,z
-x+y,-x,z
y,-x+y,z
x-y,-y,1/2-z
-x,-x+y,1/2-z
y,x,1/2-z
-y,-x,1/2-z
-x+y,y,1/2-z
x,x-y,1/2-z
-x,-y,-z
-x+y,-x,-z
y,-x+y,-z
x,y,-z
x-y,x,-z
-y,x-y,-z
-x+y,y,1/2+z
x,x-y,1/2+z
-y,-x,1/2+z
y,x,1/2+z
x-y,-y,1/2+z
-x,-x+y,1/2+z
loop_
_atom_site_type_symbol
_atom_site_label
_atom_site_fract_x
_atom_site_fract_y
_atom_site_fract_z
Si Si1 0.757854 0.474742 0.423998
Si Si2 0.987710 0.239482 0.681668
Si Si3 0.951842 0.522304 0.924144
Si Si4 0.997016 0.332761 0.073128
Si Si5 0.616920 0.851872 0.927220
Si Si6 0.739955 0.878480 0.856541
Si Si7 0.069104 0.929457 0.426326
Si Si8 0.574301 0.384507 0.076286
O O1 0.758349 0.472260 0.500000
O O2 0.800223 0.547610 0.400468
O O3 0.686186 0.446965 0.397545
O O4 0.787492 0.432567 0.396594
O O5 0.979107 0.276579 0.621791
O O6 0.051100 0.232824 0.674375
O O7 0.000000 0.276431 0.750000
O O8 0.920415 0.171698 0.688157
O O9 0.880893 0.474868 0.897034
O O10 0.000000 0.500000 0.895656
O O11 0.973819 0.594550 0.902919
O O12 0.952253 0.518667 0.000000
O O13 0.920475 0.299290 0.075440
O O14 0.019034 0.329539 0.000000
O O15 0.667126 0.848038 0.879965
O O16 0.627232 0.836046 0.000000
O O17 0.783989 0.889721 0.918387
O O18 0.061510 0.937989 0.500000
O O19 0.999310 0.891016 0.393522
O O20 0.573904 0.384554 0.000000
#
# Coordination Sequence:
#
# PCOD8329465 Si02
#       8
#    24  24  24  24  24  24  24  24
#     4   9  16  26  39  61  99 139 178 212 251 308
#     4  11  24  40  57  76 104 140 179 224 271 324
#     4   9  16  27  46  73 103 135 174 215 260 312
#     4   9  19  34  54  79 107 140 175 216 264 317
#     4   9  18  30  46  72 104 136 169 217 265 306
#     4  11  21  36  55  73  97 134 179 220 269 321
#     4  10  19  32  51  77 107 135 166 211 268 326
#     4   9  16  24  38  60  91 137 177 211 253 306
#
# _framework density 18.291682000000002
#
# number of rings (size 3 to 8) (size 9 to 14) (size 15 to 20)
#    0.000    2.375    1.250    1.875    1.750    6.000 
#    0.000    0.000    0.000    0.375    0.000    1.750 
#    0.000    0.000    0.000    0.000    0.000    0.000 
#
# Total GULP energy -2379466.673028 kJ/mol
# GULP energy per Si atom -12393.055589 kJ/mol
# Density = 1.825005 g / cm^3
# Si number density = 18.291682 Si / 1000 Ang^3
#
#
#
# Elastic Constant Matrix: (Units=GPa)
#
#
# Indices 1 2 3 4 5 6 
#
# 1 138.0814 70.9769 26.2060 0.0000 0.0000 0.0000
# 2 70.9769 138.0814 26.2060 0.0000 0.0000 0.0000
# 3 26.2060 26.2060 43.9681 0.0000 0.0000 0.0000
# 4 0.0000 0.0000 0.0000 6.3173 0.0000 0.0000
# 5 0.0000 0.0000 0.0000 0.0000 6.3173 0.0000
# 6 0.0000 0.0000 0.0000 0.0000 0.0000 33.5523
#
#
#
# Elastic Compliance Matrix: (Units=1/GPa)
#
#
# Indices 1 2 3 4 5 6 
#
# 1 0.010263 -0.004639 -0.003352 0.000000 0.000000 0.000000
# 2 -0.004639 0.010263 -0.003352 0.000000 0.000000 0.000000
# 3 -0.003352 -0.003352 0.026739 0.000000 0.000000 0.000000
# 4 0.000000 0.000000 0.000000 0.158297 0.000000 0.000000
# 5 0.000000 0.000000 0.000000 0.000000 0.158297 0.000000
# 6 0.000000 0.000000 0.000000 0.000000 0.000000 0.029804
#
#
# Mechanical properties :
#
#
# Convention : Reuss Voigt Hill
#
# Bulk Modulus (GPa) = 40.68467 62.98986 51.83727
# Shear Modulus (GPa) = 11.77741 22.35350 17.06546
#
# Velocity S-wave (km/s) = 2.54021 3.49959 3.05776
# Velocity P-wave (km/s) = 5.55824 7.13026 6.39275
#
# Compressibility (1/GPa) = 0.02457928
#
# Stress axis : x y z
#
# Youngs Moduli (GPa) = 97.43839 97.43839 37.39814
#
# Poissons Ratio (x) = 0.45204 0.12535
# Poissons Ratio (y) = 0.45204 0.12535
# Poissons Ratio (z) = 0.32660 0.32660
#
# Static dielectric constant tensor:
#      x y z
#    x 3.531290 0.000000 0.000000 
#    y 0.000000 3.531290 0.000000 
#    z 0.000000 0.000000 2.769380 
# 
# 
# High freq. dielectric constant tensor:
#      x y z
#    x 1.721100 0.000000 0.000000 
#    y 0.000000 1.721100 0.000000 
#    z 0.000000 0.000000 1.634750 
# 
# From -- ./inp_files/6183.got.cif
#   From: 2010.03.12/outbox.cif.g09.slc.cpg/sg192_4_cif.got.tgz:6183.got - 2010.04.01 12:16:15.
