data_PCOD8329506
_publ_section_title
;
Structure prediction by ZEFSAII (Michael W. Deem and Ramdas Pophale) SiO2 
 PCOD8329506
Probable space group: P 6/M C C
;
_chemical_formula_sum "Si O2"
_cell_formula_units_Z 116
_cell_length_a 20.001886
_cell_length_b 20.001886
_cell_length_c 15.471825
_cell_angle_alpha 90.000000
_cell_angle_beta 90.000000
_cell_angle_gamma 120.000000
_cell_volume 5360.608265
_symmetry_space_group_name_H-M "P 6/M C C"
_symmetry_group_IT_number 192
_symmetry_cell_setting 'hexagonal'
loop_
_space_group_symop_operation_xyz
x,y,z
x-y,x,z
-y,x-y,z
-x,-y,z
-x+y,-x,z
y,-x+y,z
x-y,-y,1/2-z
-x,-x+y,1/2-z
y,x,1/2-z
-y,-x,1/2-z
-x+y,y,1/2-z
x,x-y,1/2-z
-x,-y,-z
-x+y,-x,-z
y,-x+y,-z
x,y,-z
x-y,x,-z
-y,x-y,-z
-x+y,y,1/2+z
x,x-y,1/2+z
-y,-x,1/2+z
y,x,1/2+z
x-y,-y,1/2+z
-x,-x+y,1/2+z
loop_
_atom_site_type_symbol
_atom_site_label
_atom_site_fract_x
_atom_site_fract_y
_atom_site_fract_z
Si Si1 0.666667 0.333334 0.397656
Si Si2 0.098091 0.913451 0.500000
Si Si3 0.851329 0.156115 0.654785
Si Si4 0.399745 0.074774 0.597812
Si Si5 0.421786 0.106178 0.098134
Si Si6 0.571604 0.408775 0.896971
O O1 0.666667 0.333334 0.500000
O O2 0.750348 0.353145 0.364376
O O3 0.128660 0.890191 0.584438
O O4 0.005512 0.871638 0.500000
O O5 0.866736 0.133265 0.750000
O O6 0.905759 0.247692 0.647644
O O7 0.763181 0.136958 0.650322
O O8 0.405821 0.104828 0.500000
O O9 0.484966 0.113541 0.640366
O O10 0.365324 0.984786 0.601782
O O11 0.506047 0.136269 0.140079
O O12 0.429038 0.136306 0.000000
O O13 0.569071 0.415615 0.000000
#
# Coordination Sequence:
#
# PCOD8329506 Si02
#       6
#     8  12  24  24  24  24
#     4   9  15  24  42  72 115 158 202 250 299 355
#     4  12  27  50  76 102 130 162 206 266 340 418
#     4  12  25  42  68  99 134 174 217 266 323 394
#     4  10  19  35  59  89 125 166 214 266 317 370
#     4  10  19  35  59  89 125 166 214 266 317 370
#     4   9  17  29  53  88 125 169 217 265 314 362
#
# _framework density 21.639334999999999
#
# number of rings (size 3 to 8) (size 9 to 14) (size 15 to 20)
#    0.000    1.655    2.069    3.207    0.000    9.103 
#    0.000    1.034    0.000    3.724    0.000    0.000 
#    0.000    0.000    0.000    0.000    0.000    0.000 
#
# Total GULP energy -1438374.303001 kJ/mol
# GULP energy per Si atom -12399.778474 kJ/mol
# Density = 2.159008 g / cm^3
# Si number density = 21.639335 Si / 1000 Ang^3
#
#
#
# Elastic Constant Matrix: (Units=GPa)
#
#
# Indices 1 2 3 4 5 6 
#
# 1 98.6160 9.0980 16.7230 0.0000 0.0000 -0.0003
# 2 9.0980 98.6163 16.7232 0.0000 0.0000 -0.0006
# 3 16.7230 16.7232 87.7623 0.0000 0.0000 -0.0002
# 4 0.0000 0.0000 0.0000 5.0350 0.0000 0.0000
# 5 0.0000 0.0000 0.0000 0.0000 5.0351 0.0000
# 6 -0.0003 -0.0006 -0.0002 0.0000 0.0000 44.7589
#
#
#
# Elastic Compliance Matrix: (Units=1/GPa)
#
#
# Indices 1 2 3 4 5 6 
#
# 1 0.010519 -0.000652 -0.001880 0.000000 0.000000 0.000000
# 2 -0.000652 0.010519 -0.001880 0.000000 0.000000 0.000000
# 3 -0.001880 -0.001880 0.012111 0.000000 0.000000 0.000000
# 4 0.000000 0.000000 0.000000 0.198610 0.000001 0.000000
# 5 0.000000 0.000000 0.000000 0.000001 0.198607 0.000000
# 6 0.000000 0.000000 0.000000 0.000000 0.000000 0.022342
#
#
# Mechanical properties :
#
#
# Convention : Reuss Voigt Hill
#
# Bulk Modulus (GPa) = 41.10964 41.12035 41.11499
# Shear Modulus (GPa) = 10.64643 27.12915 18.88779
#
# Velocity S-wave (km/s) = 2.22050 3.54460 2.95760
# Velocity P-wave (km/s) = 5.06093 5.98298 5.54117
#
# Compressibility (1/GPa) = 0.02432520
#
# Stress axis : x y z
#
# Youngs Moduli (GPa) = 95.06324 95.06345 82.56966
#
# Poissons Ratio (x) = 0.06195 0.15525
# Poissons Ratio (y) = 0.06195 0.15526
# Poissons Ratio (z) = 0.17875 0.17875
#
# Static dielectric constant tensor:
#      x y z
#    x 4.012150 0.000000 0.000000 
#    y 0.000000 4.012160 0.000000 
#    z 0.000000 0.000000 3.641590 
# 
# 
# High freq. dielectric constant tensor:
#      x y z
#    x 1.859800 0.000000 0.000000 
#    y 0.000000 1.859810 0.000000 
#    z 0.000000 0.000000 1.814790 
# 
# From -- ./inp_files/3008.got.cif
#   From: 2010.03.12/outbox.cif.g09.slc.cpg/sg192_2_cif.got.tgz:3008.got - 2010.04.01 12:16:15.
