data_PCOD8329846
_publ_section_title
;
Structure prediction by ZEFSAII (Michael W. Deem and Ramdas Pophale) SiO2 
 PCOD8329846
Probable space group: P 63/M C M
;
_chemical_formula_sum "Si O2"
_cell_formula_units_Z 132
_cell_length_a 18.362010
_cell_length_b 18.362010
_cell_length_c 23.241889
_cell_angle_alpha 90.000000
_cell_angle_beta 90.000000
_cell_angle_gamma 120.000000
_cell_volume 6786.447497
_symmetry_space_group_name_H-M "P 63/M C M"
_symmetry_group_IT_number 193
_symmetry_cell_setting 'hexagonal'
loop_
_space_group_symop_operation_xyz
x,y,z
x-y,x,1/2+z
-y,x-y,z
-x,-y,1/2+z
-x+y,-x,z
y,-x+y,1/2+z
x-y,-y,1/2-z
-x,-x+y,1/2-z
y,x,1/2-z
-y,-x,-z
-x+y,y,-z
x,x-y,-z
-x,-y,-z
-x+y,-x,1/2-z
y,-x+y,-z
x,y,1/2-z
x-y,x,-z
-y,x-y,1/2-z
-x+y,y,1/2+z
x,x-y,1/2+z
-y,-x,1/2+z
y,x,z
x-y,-y,z
-x,-x+y,z
loop_
_atom_site_type_symbol
_atom_site_label
_atom_site_fract_x
_atom_site_fract_y
_atom_site_fract_z
Si Si1 0.577826 0.903704 0.365684
Si Si2 0.832768 0.332899 0.516745
Si Si3 0.000000 0.574005 0.964454
Si Si4 0.243367 0.000000 0.316755
Si Si5 0.320257 0.502275 0.250000
Si Si6 0.905757 0.730105 0.184497
Si Si7 0.850155 0.355106 0.250000
Si Si8 0.404018 0.404018 0.836323
O O1 0.514296 0.845889 0.414975
O O2 0.532645 0.876897 0.305054
O O3 0.659262 0.892326 0.361465
O O4 0.604691 0.000000 0.377720
O O5 0.754503 0.245498 0.500000
O O6 0.814967 0.407484 0.500000
O O7 0.914531 0.341543 0.482985
O O8 0.000000 0.554482 0.897035
O O9 0.000000 0.500000 0.000000
O O10 0.154870 0.920261 0.332858
O O11 0.267103 0.000000 0.250000
O O12 0.318346 0.000000 0.351796
O O13 0.393613 0.600094 0.250000
O O14 0.222927 0.479902 0.250000
O O15 0.887344 0.692598 0.250000
O O16 0.000000 0.808070 0.180861
O O17 0.912672 0.379951 0.304562
#
# Coordination Sequence:
#
# PCOD8329846 Si02
#       8
#    24  24  12  12  12  24  12  12
#     4  11  23  40  64  89 120 160 212 257 306 374
#     4  11  26  44  66  91 123 164 208 257 316 375
#     4  10  25  45  66  90 123 160 211 261 311 369
#     4  10  18  34  60  89 128 163 205 253 312 369
#     4  12  26  38  64  88 127 160 205 256 327 371
#     4   9  18  34  56  91 123 161 206 252 307 366
#     4  11  27  41  61  97 125 165 206 265 326 384
#     4  11  24  42  67  92 125 162 216 269 319 381
#
# _framework density 19.450530000000001
#
# number of rings (size 3 to 8) (size 9 to 14) (size 15 to 20)
#    0.000    1.455    2.727    1.727   12.727    0.000 
#    0.545    0.000    0.000    0.000    0.000    0.000 
#    0.000    0.000    0.000    6.636    0.000    0.273 
#
# Total GULP energy -1636391.950044 kJ/mol
# GULP energy per Si atom -12396.908712 kJ/mol
# Density = 1.940626 g / cm^3
# Si number density = 19.450530 Si / 1000 Ang^3
#
#
#
# Elastic Constant Matrix: (Units=GPa)
#
#
# Indices 1 2 3 4 5 6 
#
# 1 124.1975 62.1537 48.2195 0.0000 0.0000 0.0000
# 2 62.1537 124.1975 48.2195 0.0000 0.0000 0.0000
# 3 48.2195 48.2195 136.0546 0.0000 0.0000 0.0000
# 4 0.0000 0.0000 0.0000 21.2609 0.0000 0.0000
# 5 0.0000 0.0000 0.0000 0.0000 21.2609 0.0000
# 6 0.0000 0.0000 0.0000 0.0000 0.0000 31.0219
#
#
#
# Elastic Compliance Matrix: (Units=1/GPa)
#
#
# Indices 1 2 3 4 5 6 
#
# 1 0.011345 -0.004773 -0.002329 0.000000 0.000000 0.000000
# 2 -0.004773 0.011345 -0.002329 0.000000 0.000000 0.000000
# 3 -0.002329 -0.002329 0.009001 0.000000 0.000000 0.000000
# 4 0.000000 0.000000 0.000000 0.047035 0.000000 0.000000
# 5 0.000000 0.000000 0.000000 0.000000 0.047035 0.000000
# 6 0.000000 0.000000 0.000000 0.000000 0.000000 0.032235
#
#
# Mechanical properties :
#
#
# Convention : Reuss Voigt Hill
#
# Bulk Modulus (GPa) = 77.95581 77.95942 77.95761
# Shear Modulus (GPa) = 27.60405 29.76588 28.68496
#
# Velocity S-wave (km/s) = 3.77130 3.91620 3.84443
# Velocity P-wave (km/s) = 7.68958 7.78567 7.73778
#
# Compressibility (1/GPa) = 0.01282778
#
# Stress axis : x y z
#
# Youngs Moduli (GPa) = 88.14786 88.14786 111.10048
#
# Poissons Ratio (x) = 0.42074 0.25876
# Poissons Ratio (y) = 0.42074 0.25876
# Poissons Ratio (z) = 0.20530 0.20530
#
# Static dielectric constant tensor:
#      x y z
#    x 3.701830 0.000000 0.000000 
#    y 0.000000 3.701830 0.000000 
#    z 0.000000 0.000000 3.470410 
# 
# 
# High freq. dielectric constant tensor:
#      x y z
#    x 1.759350 0.000000 0.000000 
#    y 0.000000 1.759350 0.000000 
#    z 0.000000 0.000000 1.741500 
# 
# From -- ./inp_files/7528.got.cif
#   From: 2010.03.12/outbox.cif.g09.slc.cpg/sg193_4_cif.got.tgz:7528.got - 2010.04.01 12:20:39.
