data_PCOD8329864
_publ_section_title
;
Structure prediction by ZEFSAII (Michael W. Deem and Ramdas Pophale) SiO2 
 PCOD8329864
Probable space group: P 63/M C M
;
_chemical_formula_sum "Si O2"
_cell_formula_units_Z 180
_cell_length_a 25.747679
_cell_length_b 25.747679
_cell_length_c 19.657357
_cell_angle_alpha 90.000000
_cell_angle_beta 90.000000
_cell_angle_gamma 120.000000
_cell_volume 11285.789064
_symmetry_space_group_name_H-M "P 63/M C M"
_symmetry_group_IT_number 193
_symmetry_cell_setting 'hexagonal'
loop_
_space_group_symop_operation_xyz
x,y,z
x-y,x,1/2+z
-y,x-y,z
-x,-y,1/2+z
-x+y,-x,z
y,-x+y,1/2+z
x-y,-y,1/2-z
-x,-x+y,1/2-z
y,x,1/2-z
-y,-x,-z
-x+y,y,-z
x,x-y,-z
-x,-y,-z
-x+y,-x,1/2-z
y,-x+y,-z
x,y,1/2-z
x-y,x,-z
-y,x-y,1/2-z
-x+y,y,1/2+z
x,x-y,1/2+z
-y,-x,1/2+z
y,x,z
x-y,-y,z
-x,-x+y,z
loop_
_atom_site_type_symbol
_atom_site_label
_atom_site_fract_x
_atom_site_fract_y
_atom_site_fract_z
Si Si1 0.368117 0.438710 0.080386
Si Si2 0.461830 0.532969 0.172237
Si Si3 0.238940 0.361753 0.918495
Si Si4 0.930212 0.069788 0.000000
Si Si5 0.814366 0.748327 0.323954
Si Si6 0.647770 0.765817 0.924319
Si Si7 0.066487 0.219412 0.878718
Si Si8 0.929178 0.372546 0.076560
O O1 0.398039 0.398039 0.086812
O O2 0.398610 0.494007 0.133260
O O3 0.299506 0.398464 0.104870
O O4 0.376019 0.463209 0.002576
O O5 0.452297 0.548867 0.250000
O O6 0.495938 0.495938 0.174990
O O7 0.499930 0.591715 0.125983
O O8 0.222157 0.301663 0.879023
O O9 0.188402 0.380334 0.905714
O O10 0.304471 0.413731 0.896294
O O11 0.240463 0.345839 0.996170
O O12 0.925459 0.110087 0.941462
O O13 0.000000 0.097114 0.021784
O O14 0.789655 0.719808 0.250000
O O15 0.803600 0.803600 0.338638
O O16 0.885422 0.773952 0.323196
O O17 0.714649 0.792646 0.896435
O O18 0.000000 0.181633 0.847788
O O19 0.000000 0.396585 0.083467
#
# Coordination Sequence:
#
# PCOD8329864 Si02
#       8
#    24  24  24  12  24  24  24  24
#     4   9  16  27  43  63  89 120 150 178 212 256
#     4   9  17  28  42  62  88 116 146 178 209 245
#     4   9  17  29  45  66  90 114 142 177 216 260
#     4  10  19  30  46  66  86 106 136 188 250 300
#     4  10  20  32  44  58  80 111 145 182 226 274
#     4   9  17  29  46  67  90 114 143 179 220 266
#     4  10  19  30  45  63  82 108 143 183 226 275
#     4   9  16  26  43  65  89 117 146 176 212 256
#
# _framework density 15.949261
#
# number of rings (size 3 to 8) (size 9 to 14) (size 15 to 20)
#    0.000    2.667    0.000    3.267    0.000    5.067 
#    0.000    4.000    0.000    3.467    0.000    0.000 
#    1.333    0.000    2.400    0.000    0.800    0.000 
#
# Total GULP energy -2230785.250353 kJ/mol
# GULP energy per Si atom -12393.251391 kJ/mol
# Density = 1.591296 g / cm^3
# Si number density = 15.949261 Si / 1000 Ang^3
#
#
#
# Elastic Constant Matrix: (Units=GPa)
#
#
# Indices 1 2 3 4 5 6 
#
# 1 99.8955 47.1311 41.9903 0.0000 0.0000 0.0000
# 2 47.1311 99.8955 41.9903 0.0000 0.0000 0.0000
# 3 41.9903 41.9903 65.4072 0.0000 0.0000 0.0000
# 4 0.0000 0.0000 0.0000 11.7008 0.0000 0.0000
# 5 0.0000 0.0000 0.0000 0.0000 11.7008 0.0000
# 6 0.0000 0.0000 0.0000 0.0000 0.0000 26.3822
#
#
#
# Elastic Compliance Matrix: (Units=1/GPa)
#
#
# Indices 1 2 3 4 5 6 
#
# 1 0.014846 -0.004106 -0.006895 0.000000 0.000000 0.000000
# 2 -0.004106 0.014846 -0.006895 0.000000 0.000000 0.000000
# 3 -0.006895 -0.006895 0.024141 0.000000 0.000000 0.000000
# 4 0.000000 0.000000 0.000000 0.085464 0.000000 0.000000
# 5 0.000000 0.000000 0.000000 0.000000 0.085464 0.000000
# 6 0.000000 0.000000 0.000000 0.000000 0.000000 0.037904
#
#
# Mechanical properties :
#
#
# Convention : Reuss Voigt Hill
#
# Bulk Modulus (GPa) = 55.42629 58.60240 57.01434
# Shear Modulus (GPa) = 16.42192 18.89586 17.65889
#
# Velocity S-wave (km/s) = 3.21227 3.44575 3.33106
# Velocity P-wave (km/s) = 6.97032 7.25629 7.11474
#
# Compressibility (1/GPa) = 0.01804198
#
# Stress axis : x y z
#
# Youngs Moduli (GPa) = 67.35848 67.35848 41.42264
#
# Poissons Ratio (x) = 0.27659 0.28560
# Poissons Ratio (y) = 0.27659 0.28560
# Poissons Ratio (z) = 0.46442 0.46442
#
# Static dielectric constant tensor:
#      x y z
#    x 3.080910 0.000000 0.000000 
#    y 0.000000 3.080910 0.000000 
#    z 0.000000 0.000000 3.023310 
# 
# 
# High freq. dielectric constant tensor:
#      x y z
#    x 1.598370 0.000000 0.000000 
#    y 0.000000 1.598370 0.000000 
#    z 0.000000 0.000000 1.605450 
# 
# From -- ./inp_files/5689.got.cif
#   From: 2010.03.12/outbox.cif.g09.slc.cpg/sg193_3_cif.got.tgz:5689.got - 2010.04.01 12:20:39.
