data_PCOD8329819
_publ_section_title
;
Structure prediction by ZEFSAII (Michael W. Deem and Ramdas Pophale) SiO2 
 PCOD8329819
Probable space group: P 63/M C M
;
_chemical_formula_sum "Si O2"
_cell_formula_units_Z 104
_cell_length_a 16.351972
_cell_length_b 16.351972
_cell_length_c 27.871529
_cell_angle_alpha 90.000000
_cell_angle_beta 90.000000
_cell_angle_gamma 120.000000
_cell_volume 6454.040637
_symmetry_space_group_name_H-M "P 63/M C M"
_symmetry_group_IT_number 193
_symmetry_cell_setting 'hexagonal'
loop_
_space_group_symop_operation_xyz
x,y,z
x-y,x,1/2+z
-y,x-y,z
-x,-y,1/2+z
-x+y,-x,z
y,-x+y,1/2+z
x-y,-y,1/2-z
-x,-x+y,1/2-z
y,x,1/2-z
-y,-x,-z
-x+y,y,-z
x,x-y,-z
-x,-y,-z
-x+y,-x,1/2-z
y,-x+y,-z
x,y,1/2-z
x-y,x,-z
-y,x-y,1/2-z
-x+y,y,1/2+z
x,x-y,1/2+z
-y,-x,1/2+z
y,x,z
x-y,-y,z
-x,-x+y,z
loop_
_atom_site_type_symbol
_atom_site_label
_atom_site_fract_x
_atom_site_fract_y
_atom_site_fract_z
Si Si1 0.726203 0.726203 0.693379
Si Si2 0.848063 0.512050 0.806773
Si Si3 0.333333 0.666667 0.806674
Si Si4 0.216514 0.108666 0.947123
Si Si5 0.000000 0.542673 0.306295
Si Si6 0.706682 0.893280 0.650101
O O1 0.720169 0.720169 0.750000
O O2 0.633939 0.633939 0.670704
O O3 0.728793 0.821554 0.678083
O O4 0.857389 0.535095 0.750000
O O5 0.741829 0.438608 0.823539
O O6 0.881239 0.606725 0.835989
O O7 0.908624 0.463235 0.821958
O O8 0.333334 0.666668 0.750000
O O9 0.131223 0.131223 0.947884
O O10 0.294288 0.170740 0.907213
O O11 0.174210 0.000000 0.933020
O O12 0.264836 0.132418 0.000000
O O13 0.000000 0.554931 0.250000
O O14 0.787881 0.000000 0.663193
#
# Coordination Sequence:
#
# PCOD8329819 Si02
#       6
#    12  24   8  24  12  24
#     4  11  22  34  48  70 103 141 173 198 238 300
#     4  10  18  31  49  71  99 128 165 210 251 289
#     4   9  18  30  48  72  94 125 172 216 249 288
#     4   9  17  31  51  73  95 125 167 216 257 287
#     4   9  18  32  50  70  96 133 170 206 244 286
#     4  11  21  33  49  72 102 135 168 202 249 303
#
# _framework density 16.113935999999999
#
# number of rings (size 3 to 8) (size 9 to 14) (size 15 to 20)
#    0.000    2.077    2.308    2.308    0.000    6.000 
#    0.692    0.000    0.000    0.000    0.000    8.077 
#    0.000    0.000    0.000    0.000    0.000    0.000 
#
# Total GULP energy -1289125.693067 kJ/mol
# GULP energy per Si atom -12395.439356 kJ/mol
# Density = 1.607726 g / cm^3
# Si number density = 16.113936 Si / 1000 Ang^3
#
#
#
# Elastic Constant Matrix: (Units=GPa)
#
#
# Indices 1 2 3 4 5 6 
#
# 1 134.5378 28.0964 45.4399 0.0000 0.0000 0.0003
# 2 28.0964 134.5380 45.4401 0.0000 0.0000 -0.0003
# 3 45.4399 45.4401 79.2033 0.0000 0.0000 0.0001
# 4 0.0000 0.0000 0.0000 14.9578 0.0000 0.0000
# 5 0.0000 0.0000 0.0000 0.0000 14.9576 0.0000
# 6 0.0003 -0.0003 0.0001 0.0000 0.0000 53.2210
#
#
#
# Elastic Compliance Matrix: (Units=1/GPa)
#
#
# Indices 1 2 3 4 5 6 
#
# 1 0.009223 -0.000172 -0.005192 0.000000 0.000000 0.000000
# 2 -0.000172 0.009223 -0.005192 0.000000 0.000000 0.000000
# 3 -0.005192 -0.005192 0.018583 0.000000 0.000000 0.000000
# 4 0.000000 0.000000 0.000000 0.066855 0.000000 0.000000
# 5 0.000000 0.000000 0.000000 0.000000 0.066855 0.000000
# 6 0.000000 0.000000 0.000000 0.000000 0.000000 0.018790
#
#
# Mechanical properties :
#
#
# Convention : Reuss Voigt Hill
#
# Bulk Modulus (GPa) = 62.83406 65.13687 63.98547
# Shear Modulus (GPa) = 23.15385 31.91412 27.53399
#
# Velocity S-wave (km/s) = 3.79474 4.45514 4.13813
# Velocity P-wave (km/s) = 7.63402 8.18382 7.91370
#
# Compressibility (1/GPa) = 0.01591493
#
# Stress axis : x y z
#
# Youngs Moduli (GPa) = 108.43044 108.43047 53.81143
#
# Poissons Ratio (x) = 0.01869 0.27940
# Poissons Ratio (y) = 0.01869 0.27940
# Poissons Ratio (z) = 0.56299 0.56299
#
# Static dielectric constant tensor:
#      x y z
#    x 3.102720 0.000000 0.000000 
#    y 0.000000 3.102720 0.000000 
#    z 0.000000 0.000000 2.938450 
# 
# 
# High freq. dielectric constant tensor:
#      x y z
#    x 1.624260 0.000000 0.000000 
#    y 0.000000 1.624260 0.000000 
#    z 0.000000 0.000000 1.583140 
# 
# From -- ./inp_files/8889.got.cif
#   From: 2010.03.12/outbox.cif.g09.slc.cpg/sg193_5_cif.got.tgz:8889.got - 2010.04.01 12:20:39.
