data_PCOD8329430
_publ_section_title
;
Structure prediction by ZEFSAII (Michael W. Deem and Ramdas Pophale) SiO2 
 PCOD8329430
Probable space group: P 6/M C C
;
_chemical_formula_sum "Si O2"
_cell_formula_units_Z 168
_cell_length_a 29.597566
_cell_length_b 29.597566
_cell_length_c 15.343917
_cell_angle_alpha 90.000000
_cell_angle_beta 90.000000
_cell_angle_gamma 120.000000
_cell_volume 11640.693855
_symmetry_space_group_name_H-M "P 6/M C C"
_symmetry_group_IT_number 192
_symmetry_cell_setting 'hexagonal'
loop_
_space_group_symop_operation_xyz
x,y,z
x-y,x,z
-y,x-y,z
-x,-y,z
-x+y,-x,z
y,-x+y,z
x-y,-y,1/2-z
-x,-x+y,1/2-z
y,x,1/2-z
-y,-x,1/2-z
-x+y,y,1/2-z
x,x-y,1/2-z
-x,-y,-z
-x+y,-x,-z
y,-x+y,-z
x,y,-z
x-y,x,-z
-y,x-y,-z
-x+y,y,1/2+z
x,x-y,1/2+z
-y,-x,1/2+z
y,x,1/2+z
x-y,-y,1/2+z
-x,-x+y,1/2+z
loop_
_atom_site_type_symbol
_atom_site_label
_atom_site_fract_x
_atom_site_fract_y
_atom_site_fract_z
Si Si1 0.469986 0.939972 0.146944
Si Si2 0.939331 0.289844 0.900930
Si Si3 0.649012 0.120181 0.902037
Si Si4 0.350513 0.289844 0.900930
Si Si5 0.650147 0.875105 0.250000
Si Si6 0.471169 0.350988 0.402037
Si Si7 0.712571 0.186260 0.750000
O O1 0.467621 0.935241 0.250000
O O2 0.412584 0.911731 0.108057
O O3 0.499148 0.911731 0.108056
O O4 0.500000 0.000000 0.116482
O O5 0.910356 0.240557 0.836817
O O6 0.920128 0.330914 0.882290
O O7 0.000000 0.318808 0.879514
O O8 0.927415 0.269095 0.000000
O O9 0.669086 0.079872 0.882289
O O10 0.676009 0.169046 0.835849
O O11 0.663774 0.142717 0.000000
O O12 0.330202 0.240557 0.836817
O O13 0.341680 0.269094 0.000000
O O14 0.674784 0.837392 0.250000
O O15 0.588156 0.840884 0.249999
O O16 0.478943 0.336226 0.500000
O O17 0.493037 0.323991 0.335849
O O18 0.750980 0.249021 0.750000
#
# Coordination Sequence:
#
# PCOD8329430 Si02
#       7
#    24  24  24  24  24  24  24
#     4  11  21  31  45  66  95 127 148 167 203 250
#     4   9  17  28  42  59  79 107 141 171 200 238
#     4  10  19  31  46  64  87 114 141 169 203 247
#     4   9  17  28  42  59  79 107 141 171 200 238
#     4   9  17  27  40  57  77 103 131 166 208 239
#     4  10  19  31  46  64  87 114 141 169 203 247
#     4   9  18  32  45  61  83 104 134 172 205 244
#
# _framework density 14.432129
#
# number of rings (size 3 to 8) (size 9 to 14) (size 15 to 20)
#    0.000    2.429    1.429    1.714    0.000    3.429 
#    0.000    5.714    0.000    0.000    0.000    0.000 
#    5.714    0.000    1.714    0.000    0.000    0.000 
#
# Total GULP energy -2083060.381680 kJ/mol
# GULP energy per Si atom -12399.168939 kJ/mol
# Density = 1.439928 g / cm^3
# Si number density = 14.432129 Si / 1000 Ang^3
#
#
#
# Elastic Constant Matrix: (Units=GPa)
#
#
# Indices 1 2 3 4 5 6 
#
# 1 52.2416 62.7765 50.3957 0.0000 0.0000 0.0000
# 2 62.7765 52.2416 50.3957 0.0000 0.0000 0.0000
# 3 50.3957 50.3957 117.3665 0.0000 0.0000 0.0000
# 4 0.0000 0.0000 0.0000 15.9361 0.0000 0.0000
# 5 0.0000 0.0000 0.0000 0.0000 15.9361 0.0000
# 6 0.0000 0.0000 0.0000 0.0000 0.0000 -5.2675
#
#
#
# Elastic Compliance Matrix: (Units=1/GPa)
#
#
# Indices 1 2 3 4 5 6 
#
# 1 -0.040492 0.054431 -0.005985 0.000000 0.000000 0.000000
# 2 0.054431 -0.040492 -0.005985 0.000000 0.000000 0.000000
# 3 -0.005985 -0.005985 0.013660 0.000000 0.000000 0.000000
# 4 0.000000 0.000000 0.000000 0.062750 0.000000 0.000000
# 5 0.000000 0.000000 0.000000 0.000000 0.062750 0.000000
# 6 0.000000 0.000000 0.000000 0.000000 0.000000 -0.189845
#
#
# Mechanical properties :
#
#
# Convention : Reuss Voigt Hill
#
# Bulk Modulus (GPa) = 56.82606 60.99842 58.91224
# Shear Modulus (GPa) = -23.72807 9.20641 -7.26083
#
# Velocity S-wave (km/s) = -4.05917 2.52843 -2.24543
# Velocity P-wave (km/s) = 4.18223 7.13312 5.84690
#
# Compressibility (1/GPa) = 0.01759756
#
# Stress axis : x y z
#
# Youngs Moduli (GPa) = -24.69652 -24.69652 73.20426
#
# Poissons Ratio (x) = 1.34425 0.43815
# Poissons Ratio (y) = 1.34425 0.43815
# Poissons Ratio (z) = -0.14782 -0.14782
#
# Static dielectric constant tensor:
#      x y z
#    x 2.689350 0.000000 0.000000 
#    y 0.000000 2.689350 0.000000 
#    z 0.000000 0.000000 3.098600 
# 
# 
# High freq. dielectric constant tensor:
#      x y z
#    x 1.517530 0.000000 0.000000 
#    y 0.000000 1.517530 0.000000 
#    z 0.000000 0.000000 1.575530 
# 
# From -- ./inp_files/3518.got.cif
#   From: 2010.03.12/outbox.cif.g09.slc.cpg/sg192_2_cif.got.tgz:3518.got - 2010.04.01 12:16:15.
