data_PCOD8329253
_publ_section_title
;
Structure prediction by ZEFSAII (Michael W. Deem and Ramdas Pophale) SiO2 
 PCOD8329253
Probable space group: P 6/M M M
;
_chemical_formula_sum "Si O2"
_cell_formula_units_Z 168
_cell_length_a 22.949132
_cell_length_b 22.949132
_cell_length_c 23.355935
_cell_angle_alpha 90.000000
_cell_angle_beta 90.000000
_cell_angle_gamma 120.000000
_cell_volume 10652.717683
_symmetry_space_group_name_H-M "P 6/M M M"
_symmetry_group_IT_number 191
_symmetry_cell_setting 'hexagonal'
loop_
_space_group_symop_operation_xyz
x,y,z
x-y,x,z
-y,x-y,z
-x,-y,z
-x+y,-x,z
y,-x+y,z
x-y,-y,-z
-x,-x+y,-z
y,x,-z
-y,-x,-z
-x+y,y,-z
x,x-y,-z
-x,-y,-z
-x+y,-x,-z
y,-x+y,-z
x,y,-z
x-y,x,-z
-y,x-y,-z
-x+y,y,z
x,x-y,z
-y,-x,z
y,x,z
x-y,-y,z
-x,-x+y,z
loop_
_atom_site_type_symbol
_atom_site_label
_atom_site_fract_x
_atom_site_fract_y
_atom_site_fract_z
Si Si1 0.078687 0.471935 0.356465
Si Si2 0.862483 0.270403 0.137577
Si Si3 0.605928 0.528993 0.064481
Si Si4 0.714292 0.923417 0.351529
Si Si5 0.923521 0.306125 0.258739
Si Si6 0.270152 0.406974 0.433605
Si Si7 0.074449 0.278522 0.065124
O O1 0.100208 0.550104 0.352232
O O2 0.094865 0.448494 0.296421
O O3 0.121812 0.462579 0.406292
O O4 0.000000 0.425730 0.371353
O O5 0.786309 0.213692 0.125822
O O6 0.873284 0.338217 0.108703
O O7 0.874320 0.279752 0.205087
O O8 0.913886 0.251331 0.108080
O O9 0.546946 0.453055 0.068373
O O10 0.579578 0.579578 0.082390
O O11 0.634880 0.545495 0.000000
O O12 0.742480 0.871240 0.350758
O O13 0.670867 0.912613 0.294569
O O14 0.666119 0.910239 0.405779
O O15 0.776608 0.000000 0.354995
O O16 0.000000 0.348953 0.237002
O O17 0.281895 0.400445 0.500000
O O18 0.215170 0.430339 0.423414
O O19 0.125891 0.251782 0.078204
O O20 0.000000 0.216135 0.075511
O O21 0.083075 0.305700 0.000000
#
# Coordination Sequence:
#
# PCOD8329253 Si02
#       7
#    24  24  24  24  24  24  24
#     4   9  18  31  47  69  94 117 143 178 220 262
#     4  11  20  28  44  69  91 111 139 177 220 264
#     4   9  18  32  48  65  86 113 144 176 211 256
#     4   9  17  29  44  62  87 118 150 184 221 261
#     4   9  17  29  44  63  89 119 147 174 209 257
#     4   9  17  29  46  68  93 121 151 180 211 251
#     4   9  17  28  42  62  89 118 145 176 216 259
#
# _framework density 15.770623000000001
#
# number of rings (size 3 to 8) (size 9 to 14) (size 15 to 20)
#    0.000    2.714    0.000    3.857    0.000    4.571 
#    0.000    2.143    0.000    0.857    0.000    2.000 
#    0.000    0.000    0.000    8.143    0.000    3.143 
#
# Total GULP energy -2083078.458662 kJ/mol
# GULP energy per Si atom -12399.276540 kJ/mol
# Density = 1.573473 g / cm^3
# Si number density = 15.770623 Si / 1000 Ang^3
#
#
#
# Elastic Constant Matrix: (Units=GPa)
#
#
# Indices 1 2 3 4 5 6 
#
# 1 90.1909 46.5335 40.5409 0.0000 0.0000 0.0000
# 2 46.5335 90.1909 40.5409 0.0000 0.0000 0.0000
# 3 40.5409 40.5409 92.6235 0.0000 0.0000 0.0000
# 4 0.0000 0.0000 0.0000 19.7826 0.0000 0.0000
# 5 0.0000 0.0000 0.0000 0.0000 19.7826 0.0000
# 6 0.0000 0.0000 0.0000 0.0000 0.0000 21.8287
#
#
#
# Elastic Compliance Matrix: (Units=1/GPa)
#
#
# Indices 1 2 3 4 5 6 
#
# 1 0.016392 -0.006514 -0.004324 0.000000 0.000000 0.000000
# 2 -0.006514 0.016392 -0.004324 0.000000 0.000000 0.000000
# 3 -0.004324 -0.004324 0.014581 0.000000 0.000000 0.000000
# 4 0.000000 0.000000 0.000000 0.050550 0.000000 0.000000
# 5 0.000000 0.000000 0.000000 0.000000 0.050550 0.000000
# 6 0.000000 0.000000 0.000000 0.000000 0.000000 0.045811
#
#
# Mechanical properties :
#
#
# Convention : Reuss Voigt Hill
#
# Bulk Modulus (GPa) = 58.67523 58.69286 58.68404
# Shear Modulus (GPa) = 21.71288 21.97143 21.84215
#
# Velocity S-wave (km/s) = 3.71454 3.73659 3.72558
# Velocity P-wave (km/s) = 7.46212 7.47753 7.46983
#
# Compressibility (1/GPa) = 0.01704297
#
# Stress axis : x y z
#
# Youngs Moduli (GPa) = 61.00604 61.00604 68.58155
#
# Poissons Ratio (x) = 0.39738 0.29652
# Poissons Ratio (y) = 0.39738 0.29652
# Poissons Ratio (z) = 0.26376 0.26376
#
# Static dielectric constant tensor:
#      x y z
#    x 2.907990 0.000000 0.000000 
#    y 0.000000 2.907990 0.000000 
#    z 0.000000 0.000000 3.023880 
# 
# 
# High freq. dielectric constant tensor:
#      x y z
#    x 1.588610 0.000000 0.000000 
#    y 0.000000 1.588610 0.000000 
#    z 0.000000 0.000000 1.611290 
# 
# From -- ./inp_files/7907.got.cif
#   From: 2010.03.12/outbox.cif.g09.slc.cpg/sg191_4_cif.got.tgz:7907.got - 2010.04.01 12:09:02.
