data_PCOD8329595
_publ_section_title
;
Structure prediction by ZEFSAII (Michael W. Deem and Ramdas Pophale) SiO2 
 PCOD8329595
Probable space group: P 6/M C C
;
_chemical_formula_sum "Si O2"
_cell_formula_units_Z 102
_cell_length_a 25.349890
_cell_length_b 25.349890
_cell_length_c 9.119596
_cell_angle_alpha 90.000000
_cell_angle_beta 90.000000
_cell_angle_gamma 120.000000
_cell_volume 5075.261097
_symmetry_space_group_name_H-M "P 6/M C C"
_symmetry_group_IT_number 192
_symmetry_cell_setting 'hexagonal'
loop_
_space_group_symop_operation_xyz
x,y,z
x-y,x,z
-y,x-y,z
-x,-y,z
-x+y,-x,z
y,-x+y,z
x-y,-y,1/2-z
-x,-x+y,1/2-z
y,x,1/2-z
-y,-x,1/2-z
-x+y,y,1/2-z
x,x-y,1/2-z
-x,-y,-z
-x+y,-x,-z
y,-x+y,-z
x,y,-z
x-y,x,-z
-y,x-y,-z
-x+y,y,1/2+z
x,x-y,1/2+z
-y,-x,1/2+z
y,x,1/2+z
x-y,-y,1/2+z
-x,-x+y,1/2+z
loop_
_atom_site_type_symbol
_atom_site_label
_atom_site_fract_x
_atom_site_fract_y
_atom_site_fract_z
Si Si1 0.500000 0.000000 0.250000
Si Si2 0.351767 0.058862 0.664752
Si Si3 0.512531 0.888409 0.338710
Si Si4 0.173306 0.237388 0.674249
Si Si5 0.769727 0.436671 0.674207
O O1 0.484179 0.045909 0.337561
O O2 0.334787 0.036115 0.500000
O O3 0.422433 0.107428 0.684312
O O4 0.307803 0.084832 0.713916
O O5 0.340461 0.000000 0.750000
O O6 0.487162 0.860027 0.500000
O O7 0.471893 0.842017 0.211655
O O8 0.193539 0.193539 0.750000
O O9 0.110731 0.221461 0.750000
O O10 0.164621 0.225642 0.500000
O O11 0.734093 0.468186 0.750000
O O12 0.740855 0.370428 0.750000
O O13 0.761016 0.432859 0.500000
#
# Coordination Sequence:
#
# PCOD8329595 Si02
#       5
#     6  24  24  24  24
#     4  12  22  36  68  94 138 172 218 264 324 384
#     4   9  19  35  55  82 118 157 199 246 297 357
#     4  11  23  39  61  94 130 166 211 259 316 380
#     4  10  20  36  59  87 121 161 206 253 307 366
#     4  12  26  45  67  90 118 154 201 255 314 376
#
# _framework density 20.097488999999999
#
# number of rings (size 3 to 8) (size 9 to 14) (size 15 to 20)
#    0.000    1.412    2.353    3.412    0.000    3.765 
#    0.000    2.353    0.000    0.235    0.000    1.647 
#    0.000    0.000    0.000    0.000    0.000    0.000 
#
# Total GULP energy -1263945.547691 kJ/mol
# GULP energy per Si atom -12391.623017 kJ/mol
# Density = 2.005175 g / cm^3
# Si number density = 20.097489 Si / 1000 Ang^3
#
#
#
# Elastic Constant Matrix: (Units=GPa)
#
#
# Indices 1 2 3 4 5 6 
#
# 1 98.9775 53.6957 51.2231 0.0000 0.0000 0.0000
# 2 53.6957 98.9775 51.2231 0.0000 0.0000 0.0000
# 3 51.2231 51.2231 143.6405 0.0000 0.0000 0.0000
# 4 0.0000 0.0000 0.0000 31.4552 0.0000 0.0000
# 5 0.0000 0.0000 0.0000 0.0000 31.4552 0.0000
# 6 0.0000 0.0000 0.0000 0.0000 0.0000 22.6409
#
#
#
# Elastic Compliance Matrix: (Units=1/GPa)
#
#
# Indices 1 2 3 4 5 6 
#
# 1 0.015347 -0.006737 -0.003070 0.000000 0.000000 0.000000
# 2 -0.006737 0.015347 -0.003070 0.000000 0.000000 0.000000
# 3 -0.003070 -0.003070 0.009152 0.000000 0.000000 0.000000
# 4 0.000000 0.000000 0.000000 0.031791 0.000000 0.000000
# 5 0.000000 0.000000 0.000000 0.000000 0.031791 0.000000
# 6 0.000000 0.000000 0.000000 0.000000 0.000000 0.044168
#
#
# Mechanical properties :
#
#
# Convention : Reuss Voigt Hill
#
# Bulk Modulus (GPa) = 70.97044 72.65324 71.81184
# Shear Modulus (GPa) = 28.08221 29.47383 28.77802
#
# Velocity S-wave (km/s) = 3.74210 3.83370 3.78818
# Velocity P-wave (km/s) = 7.35261 7.47163 7.41236
#
# Compressibility (1/GPa) = 0.01409037
#
# Stress axis : x y z
#
# Youngs Moduli (GPa) = 65.15883 65.15883 109.26898
#
# Poissons Ratio (x) = 0.43896 0.33551
# Poissons Ratio (y) = 0.43896 0.33551
# Poissons Ratio (z) = 0.20007 0.20007
#
# Static dielectric constant tensor:
#      x y z
#    x 3.666090 0.000000 0.000000 
#    y 0.000000 3.666090 0.000000 
#    z 0.000000 0.000000 3.636520 
# 
# 
# High freq. dielectric constant tensor:
#      x y z
#    x 1.778830 0.000000 0.000000 
#    y 0.000000 1.778830 0.000000 
#    z 0.000000 0.000000 1.790450 
# 
# From -- ./inp_files/877.got.cif
#   From: 2010.03.12/outbox.cif.g09.slc.cpg/sg192_1_cif.got.tgz:877.got - 2010.04.01 12:16:15.
