data_PCOD8329467
_publ_section_title
;
Structure prediction by ZEFSAII (Michael W. Deem and Ramdas Pophale) SiO2 
 PCOD8329467
Probable space group: P 6/M C C
;
_chemical_formula_sum "Si O2"
_cell_formula_units_Z 144
_cell_length_a 32.142647
_cell_length_b 32.142647
_cell_length_c 8.537581
_cell_angle_alpha 90.000000
_cell_angle_beta 90.000000
_cell_angle_gamma 120.000000
_cell_volume 7638.863441
_symmetry_space_group_name_H-M "P 6/M C C"
_symmetry_group_IT_number 192
_symmetry_cell_setting 'hexagonal'
loop_
_space_group_symop_operation_xyz
x,y,z
x-y,x,z
-y,x-y,z
-x,-y,z
-x+y,-x,z
y,-x+y,z
x-y,-y,1/2-z
-x,-x+y,1/2-z
y,x,1/2-z
-y,-x,1/2-z
-x+y,y,1/2-z
x,x-y,1/2-z
-x,-y,-z
-x+y,-x,-z
y,-x+y,-z
x,y,-z
x-y,x,-z
-y,x-y,-z
-x+y,y,1/2+z
x,x-y,1/2+z
-y,-x,1/2+z
y,x,1/2+z
x-y,-y,1/2+z
-x,-x+y,1/2+z
loop_
_atom_site_type_symbol
_atom_site_label
_atom_site_fract_x
_atom_site_fract_y
_atom_site_fract_z
Si Si1 0.950576 0.521508 0.686481
Si Si2 0.424267 0.757611 0.814136
Si Si3 0.192916 0.142341 0.815078
Si Si4 0.399533 0.153915 0.315013
Si Si5 0.488787 0.342679 0.813724
Si Si6 0.103041 0.296819 0.816070
O O1 0.948321 0.474161 0.750000
O O2 0.949561 0.521828 0.500000
O O3 0.905114 0.521868 0.755996
O O4 0.000000 0.567290 0.750000
O O5 0.372165 0.744329 0.750000
O O6 0.438452 0.719226 0.750000
O O7 0.463007 0.811031 0.760006
O O8 0.422660 0.755312 0.000000
O O9 0.152028 0.152028 0.750000
O O10 0.183746 0.091873 0.750000
O O11 0.245598 0.186876 0.758689
O O12 0.188915 0.138461 0.000000
O O13 0.405320 0.202660 0.250000
O O14 0.403090 0.158331 0.500000
O O15 0.443126 0.148713 0.249020
O O16 0.347549 0.106672 0.266128
O O17 0.494091 0.344280 0.000000
O O18 0.150467 0.300933 0.750000
O O19 0.105029 0.294174 0.000000
#
# Coordination Sequence:
#
# PCOD8329467 Si02
#       6
#    24  24  24  24  24  24
#     4  11  22  39  61  83 106 135 172 218 270 326
#     4  12  25  42  61  84 114 150 192 239 291 345
#     4  10  19  32  52  77 107 140 180 224 270 318
#     4   9  18  32  52  76 107 143 180 221 266 316
#     4  11  22  37  57  84 115 148 185 227 274 330
#     4   8  15  29  48  71  98 132 170 210 253 301
#
# _framework density 18.850971000000001
#
# number of rings (size 3 to 8) (size 9 to 14) (size 15 to 20)
#    0.000    1.833    0.000    5.667    0.000    3.333 
#    0.000    0.833    0.000    2.167    0.000    1.167 
#    0.000    0.000    0.000    0.000    0.000    0.000 
#
# Total GULP energy -1784170.718315 kJ/mol
# GULP energy per Si atom -12390.074433 kJ/mol
# Density = 1.880807 g / cm^3
# Si number density = 18.850971 Si / 1000 Ang^3
#
#
#
# Elastic Constant Matrix: (Units=GPa)
#
#
# Indices 1 2 3 4 5 6 
#
# 1 116.3735 58.7205 34.7327 0.0000 0.0000 0.0000
# 2 58.7205 116.3735 34.7327 0.0000 0.0000 0.0000
# 3 34.7327 34.7327 85.1215 0.0000 0.0000 0.0000
# 4 0.0000 0.0000 0.0000 25.7591 0.0000 0.0000
# 5 0.0000 0.0000 0.0000 0.0000 25.7591 0.0000
# 6 0.0000 0.0000 0.0000 0.0000 0.0000 28.8265
#
#
#
# Elastic Compliance Matrix: (Units=1/GPa)
#
#
# Indices 1 2 3 4 5 6 
#
# 1 0.012080 -0.005265 -0.002780 0.000000 0.000000 0.000000
# 2 -0.005265 0.012080 -0.002780 0.000000 0.000000 0.000000
# 3 -0.002780 -0.002780 0.014017 0.000000 0.000000 0.000000
# 4 0.000000 0.000000 0.000000 0.038821 0.000000 0.000000
# 5 0.000000 0.000000 0.000000 0.000000 0.038821 0.000000
# 6 0.000000 0.000000 0.000000 0.000000 0.000000 0.034690
#
#
# Mechanical properties :
#
#
# Convention : Reuss Voigt Hill
#
# Bulk Modulus (GPa) = 60.51920 63.80445 62.16183
# Shear Modulus (GPa) = 28.14208 28.71446 28.42827
#
# Velocity S-wave (km/s) = 3.86796 3.90710 3.88758
# Velocity P-wave (km/s) = 7.21955 7.36710 7.29370
#
# Compressibility (1/GPa) = 0.01652368
#
# Stress axis : x y z
#
# Youngs Moduli (GPa) = 82.78330 82.78330 71.34198
#
# Poissons Ratio (x) = 0.43589 0.19837
# Poissons Ratio (y) = 0.43589 0.19837
# Poissons Ratio (z) = 0.23018 0.23018
#
# Static dielectric constant tensor:
#      x y z
#    x 3.656700 0.000000 0.000000 
#    y 0.000000 3.656700 0.000000 
#    z 0.000000 0.000000 3.506680 
# 
# 
# High freq. dielectric constant tensor:
#      x y z
#    x 1.730100 0.000000 0.000000 
#    y 0.000000 1.730100 0.000000 
#    z 0.000000 0.000000 1.742480 
# 
# From -- ./inp_files/1194.got.cif
#   From: 2010.03.12/outbox.cif.g09.slc.cpg/sg192_1_cif.got.tgz:1194.got - 2010.04.01 12:16:15.
