data_PCOD8329561
_publ_section_title
;
Structure prediction by ZEFSAII (Michael W. Deem and Ramdas Pophale) SiO2 
 PCOD8329561
Probable space group: P 6/M C C
;
_chemical_formula_sum "Si O2"
_cell_formula_units_Z 144
_cell_length_a 30.991795
_cell_length_b 30.991795
_cell_length_c 8.654207
_cell_angle_alpha 90.000000
_cell_angle_beta 90.000000
_cell_angle_gamma 120.000000
_cell_volume 7198.655194
_symmetry_space_group_name_H-M "P 6/M C C"
_symmetry_group_IT_number 192
_symmetry_cell_setting 'hexagonal'
loop_
_space_group_symop_operation_xyz
x,y,z
x-y,x,z
-y,x-y,z
-x,-y,z
-x+y,-x,z
y,-x+y,z
x-y,-y,1/2-z
-x,-x+y,1/2-z
y,x,1/2-z
-y,-x,1/2-z
-x+y,y,1/2-z
x,x-y,1/2-z
-x,-y,-z
-x+y,-x,-z
y,-x+y,-z
x,y,-z
x-y,x,-z
-y,x-y,-z
-x+y,y,1/2+z
x,x-y,1/2+z
-y,-x,1/2+z
y,x,1/2+z
x-y,-y,1/2+z
-x,-x+y,1/2+z
loop_
_atom_site_type_symbol
_atom_site_label
_atom_site_fract_x
_atom_site_fract_y
_atom_site_fract_z
Si Si1 0.661468 0.146273 0.679766
Si Si2 0.297167 0.052119 0.318308
Si Si3 0.758672 0.425578 0.183277
Si Si4 0.853515 0.239210 0.821769
Si Si5 0.519984 0.946958 0.683783
Si Si6 0.800836 0.853490 0.182590
O O1 0.647695 0.143849 0.500000
O O2 0.650974 0.185938 0.764016
O O3 0.718577 0.161281 0.703717
O O4 0.627705 0.093118 0.759504
O O5 0.298942 0.048927 0.500000
O O6 0.350200 0.094250 0.258448
O O7 0.253764 0.063400 0.265011
O O8 0.287370 0.000000 0.250000
O O9 0.721302 0.442603 0.250000
O O10 0.743235 0.371618 0.250000
O O11 0.755427 0.423157 0.000000
O O12 0.811661 0.188340 0.750000
O O13 0.858504 0.229820 0.000000
O O14 0.465857 0.931714 0.750000
O O15 0.519105 0.949335 0.500000
O O16 0.561442 0.000000 0.750000
O O17 0.842854 0.842854 0.250000
O O18 0.810287 0.905144 0.250000
O O19 0.805808 0.857269 0.000000
#
# Coordination Sequence:
#
# PCOD8329561 Si02
#       6
#    24  24  24  24  24  24
#     4  11  24  42  62  88 120 157 199 243 291 348
#     4  10  21  37  59  85 116 151 192 239 289 342
#     4  12  25  43  66  93 123 156 194 240 292 349
#     4  11  24  40  60  84 116 155 196 239 287 343
#     4  11  22  39  63  90 120 155 195 243 295 349
#     4  10  20  34  54  81 111 146 186 233 283 336
#
# _framework density 20.003734999999999
#
# number of rings (size 3 to 8) (size 9 to 14) (size 15 to 20)
#    0.000    1.167    0.000    7.167    0.000    8.000 
#    0.000    0.000    0.000    0.167    0.000    1.167 
#    0.000    0.000    0.000    0.000    0.000    0.000 
#
# Total GULP energy -1786724.007144 kJ/mol
# GULP energy per Si atom -12407.805605 kJ/mol
# Density = 1.995821 g / cm^3
# Si number density = 20.003735 Si / 1000 Ang^3
#
#
#
# Elastic Constant Matrix: (Units=GPa)
#
#
# Indices 1 2 3 4 5 6 
#
# 1 110.7488 11.9585 46.1051 0.0000 0.0000 0.0000
# 2 11.9585 110.7488 46.1051 0.0000 0.0000 0.0000
# 3 46.1051 46.1051 150.0721 0.0000 0.0000 0.0000
# 4 0.0000 0.0000 0.0000 35.0799 0.0000 0.0000
# 5 0.0000 0.0000 0.0000 0.0000 35.0799 0.0000
# 6 0.0000 0.0000 0.0000 0.0000 0.0000 49.3952
#
#
#
# Elastic Compliance Matrix: (Units=1/GPa)
#
#
# Indices 1 2 3 4 5 6 
#
# 1 0.010359 0.000237 -0.003255 0.000000 0.000000 0.000000
# 2 0.000237 0.010359 -0.003255 0.000000 0.000000 0.000000
# 3 -0.003255 -0.003255 0.008664 0.000000 0.000000 0.000000
# 4 0.000000 0.000000 0.000000 0.028506 0.000000 0.000000
# 5 0.000000 0.000000 0.000000 0.000000 0.028506 0.000000
# 6 0.000000 0.000000 0.000000 0.000000 0.000000 0.020245
#
#
# Mechanical properties :
#
#
# Convention : Reuss Voigt Hill
#
# Bulk Modulus (GPa) = 59.40323 64.43412 61.91868
# Shear Modulus (GPa) = 40.06467 41.73772 40.90120
#
# Velocity S-wave (km/s) = 4.48019 4.57277 4.52672
# Velocity P-wave (km/s) = 7.51820 7.75637 7.63821
#
# Compressibility (1/GPa) = 0.01683410
#
# Stress axis : x y z
#
# Youngs Moduli (GPa) = 96.53399 96.53399 115.42572
#
# Poissons Ratio (x) = -0.02284 0.37573
# Poissons Ratio (y) = -0.02284 0.37573
# Poissons Ratio (z) = 0.31424 0.31424
#
# Static dielectric constant tensor:
#      x y z
#    x 3.855340 0.000000 0.000000 
#    y 0.000000 3.855340 0.000000 
#    z 0.000000 0.000000 3.786600 
# 
# 
# High freq. dielectric constant tensor:
#      x y z
#    x 1.783420 0.000000 0.000000 
#    y 0.000000 1.783420 0.000000 
#    z 0.000000 0.000000 1.800780 
# 
# From -- ./inp_files/1157.got.cif
#   From: 2010.03.12/outbox.cif.g09.slc.cpg/sg192_1_cif.got.tgz:1157.got - 2010.04.01 12:16:15.
