data_PCOD8329552
_publ_section_title
;
Structure prediction by ZEFSAII (Michael W. Deem and Ramdas Pophale) SiO2 
 PCOD8329552
Probable space group: P 6/M C C
;
_chemical_formula_sum "Si O2"
_cell_formula_units_Z 120
_cell_length_a 22.345040
_cell_length_b 22.345040
_cell_length_c 15.563606
_cell_angle_alpha 90.000000
_cell_angle_beta 90.000000
_cell_angle_gamma 120.000000
_cell_volume 6729.815103
_symmetry_space_group_name_H-M "P 6/M C C"
_symmetry_group_IT_number 192
_symmetry_cell_setting 'hexagonal'
loop_
_space_group_symop_operation_xyz
x,y,z
x-y,x,z
-y,x-y,z
-x,-y,z
-x+y,-x,z
y,-x+y,z
x-y,-y,1/2-z
-x,-x+y,1/2-z
y,x,1/2-z
-y,-x,1/2-z
-x+y,y,1/2-z
x,x-y,1/2-z
-x,-y,-z
-x+y,-x,-z
y,-x+y,-z
x,y,-z
x-y,x,-z
-y,x-y,-z
-x+y,y,1/2+z
x,x-y,1/2+z
-y,-x,1/2+z
y,x,1/2+z
x-y,-y,1/2+z
-x,-x+y,1/2+z
loop_
_atom_site_type_symbol
_atom_site_label
_atom_site_fract_x
_atom_site_fract_y
_atom_site_fract_z
Si Si1 0.080157 0.391493 0.596149
Si Si2 0.079516 0.159028 0.101183
Si Si3 0.842701 0.685400 0.348201
Si Si4 0.082313 0.474198 0.250000
Si Si5 0.919844 0.608510 0.096150
O O1 0.092756 0.423139 0.500000
O O2 0.115323 0.345059 0.604244
O O3 0.109744 0.453933 0.664822
O O4 0.000001 0.340516 0.614561
O O5 0.116129 0.116127 0.130266
O O6 0.116059 0.232112 0.148412
O O7 0.086007 0.172011 0.000000
O O8 0.830580 0.661160 0.250000
O O9 0.770264 0.654945 0.395754
O O10 0.113378 0.556689 0.250000
O O11 0.109743 0.453932 0.164821
O O12 0.000000 0.436033 0.250000
O O13 0.907244 0.576864 0.000000
#
# Coordination Sequence:
#
# PCOD8329552 Si02
#       5
#    24  24  24  24  24
#     4  10  20  34  52  75 106 142 177 215 262 315
#     4  10  21  36  52  70  96 137 193 254 310 358
#     4  12  22  33  51  74 105 142 181 233 285 328
#     4   9  18  33  52  76 105 132 161 198 242 304
#     4  10  20  34  52  75 106 142 177 215 262 315
#
# _framework density 17.831098999999998
#
# number of rings (size 3 to 8) (size 9 to 14) (size 15 to 20)
#    0.000    1.800    2.000    3.200    0.000    7.200 
#    0.000    4.000    0.000    1.200    0.000    0.000 
#    8.000    0.000    2.400    0.000    0.000    0.000 
#
# Total GULP energy -1488211.224396 kJ/mol
# GULP energy per Si atom -12401.760203 kJ/mol
# Density = 1.779051 g / cm^3
# Si number density = 17.831099 Si / 1000 Ang^3
#
#
#
# Elastic Constant Matrix: (Units=GPa)
#
#
# Indices 1 2 3 4 5 6 
#
# 1 89.8017 47.6447 44.6162 0.0000 0.0000 0.0000
# 2 47.6447 89.8017 44.6162 0.0000 0.0000 0.0000
# 3 44.6162 44.6162 126.2647 0.0000 0.0000 0.0000
# 4 0.0000 0.0000 0.0000 22.5850 0.0000 0.0000
# 5 0.0000 0.0000 0.0000 0.0000 22.5850 0.0000
# 6 0.0000 0.0000 0.0000 0.0000 0.0000 21.0785
#
#
#
# Elastic Compliance Matrix: (Units=1/GPa)
#
#
# Indices 1 2 3 4 5 6 
#
# 1 0.016581 -0.007140 -0.003336 0.000000 0.000000 0.000000
# 2 -0.007140 0.016581 -0.003336 0.000000 0.000000 0.000000
# 3 -0.003336 -0.003336 0.010278 0.000000 0.000000 0.000000
# 4 0.000000 0.000000 0.000000 0.044277 0.000000 0.000000
# 5 0.000000 0.000000 0.000000 0.000000 0.044277 0.000000
# 6 0.000000 0.000000 0.000000 0.000000 0.000000 0.047442
#
#
# Mechanical properties :
#
#
# Convention : Reuss Voigt Hill
#
# Bulk Modulus (GPa) = 63.22802 64.40250 63.81526
# Shear Modulus (GPa) = 23.54799 24.51573 24.03186
#
# Velocity S-wave (km/s) = 3.63797 3.71197 3.67515
# Velocity P-wave (km/s) = 7.29265 7.38702 7.33999
#
# Compressibility (1/GPa) = 0.01581577
#
# Stress axis : x y z
#
# Youngs Moduli (GPa) = 60.30932 60.30932 97.29905
#
# Poissons Ratio (x) = 0.43059 0.32461
# Poissons Ratio (y) = 0.43059 0.32461
# Poissons Ratio (z) = 0.20120 0.20120
#
# Static dielectric constant tensor:
#      x y z
#    x 3.188980 0.000000 0.000000 
#    y 0.000000 3.188980 0.000000 
#    z 0.000000 0.000000 3.521720 
# 
# 
# High freq. dielectric constant tensor:
#      x y z
#    x 1.665950 0.000000 0.000000 
#    y 0.000000 1.665950 0.000000 
#    z 0.000000 0.000000 1.708970 
# 
# From -- ./inp_files/3114.got.cif
#   From: 2010.03.12/outbox.cif.g09.slc.cpg/sg192_2_cif.got.tgz:3114.got - 2010.04.01 12:16:15.
