data_PCOD8329681
_publ_section_title
;
Structure prediction by ZEFSAII (Michael W. Deem and Ramdas Pophale) SiO2 
 PCOD8329681
Probable space group: P 6/M C C
;
_chemical_formula_sum "Si O2"
_cell_formula_units_Z 168
_cell_length_a 17.927256
_cell_length_b 17.927256
_cell_length_c 30.484123
_cell_angle_alpha 90.000000
_cell_angle_beta 90.000000
_cell_angle_gamma 120.000000
_cell_volume 8484.611815
_symmetry_space_group_name_H-M "P 6/M C C"
_symmetry_group_IT_number 192
_symmetry_cell_setting 'hexagonal'
loop_
_space_group_symop_operation_xyz
x,y,z
x-y,x,z
-y,x-y,z
-x,-y,z
-x+y,-x,z
y,-x+y,z
x-y,-y,1/2-z
-x,-x+y,1/2-z
y,x,1/2-z
-y,-x,1/2-z
-x+y,y,1/2-z
x,x-y,1/2-z
-x,-y,-z
-x+y,-x,-z
y,-x+y,-z
x,y,-z
x-y,x,-z
-y,x-y,-z
-x+y,y,1/2+z
x,x-y,1/2+z
-y,-x,1/2+z
y,x,1/2+z
x-y,-y,1/2+z
-x,-x+y,1/2+z
loop_
_atom_site_type_symbol
_atom_site_label
_atom_site_fract_x
_atom_site_fract_y
_atom_site_fract_z
Si Si1 0.839464 0.331811 0.250304
Si Si2 0.887928 0.632388 0.671297
Si Si3 0.716150 0.632574 0.330431
Si Si4 0.732459 0.107469 0.576037
Si Si5 0.041833 0.443249 0.084999
Si Si6 0.944205 0.807589 0.449028
Si Si7 0.610208 0.147202 0.000000
Si Si8 0.207636 0.727272 0.000000
O O1 0.738479 0.261521 0.250000
O O2 0.851224 0.425612 0.250000
O O3 0.877910 0.314869 0.206725
O O4 0.893462 0.328832 0.291470
O O5 0.818859 0.665803 0.674150
O O6 0.867911 0.583916 0.624500
O O7 0.988996 0.707286 0.674214
O O8 0.668686 0.581933 0.375557
O O9 0.804593 0.079757 0.580192
O O10 0.765776 0.187038 0.543018
O O11 0.642531 0.028500 0.560183
O O12 0.106004 0.491266 0.045466
O O13 0.000000 0.500000 0.102903
O O14 0.881239 0.842520 0.436385
O O15 0.937559 0.782060 0.500000
O O16 0.523245 0.149144 0.000000
O O17 0.692285 0.242875 0.000000
#
# Coordination Sequence:
#
# PCOD8329681 Si02
#       8
#    24  24  24  24  24  24  12  12
#     4  10  22  40  65  95 128 163 203 254 320 382
#     4  10  23  40  58  94 122 161 201 258 313 370
#     4  10  23  40  64  90 125 159 206 254 314 381
#     4  11  23  37  59  86 119 157 212 255 304 369
#     4  11  23  40  61  88 118 159 209 262 309 360
#     4  10  22  37  59  90 125 165 208 259 319 375
#     4  12  25  39  60  81 121 161 208 260 308 361
#     4  12  24  40  55  80 115 163 207 255 309 366
#
# _framework density 19.800552
#
# number of rings (size 3 to 8) (size 9 to 14) (size 15 to 20)
#    0.000    1.429    2.143    2.357   10.000    1.143 
#    0.000    0.000    0.000    3.714    0.000    0.000 
#    0.000    3.429    0.000    0.000    0.000    0.000 
#
# Total GULP energy -2082016.813525 kJ/mol
# GULP energy per Si atom -12392.957223 kJ/mol
# Density = 1.975549 g / cm^3
# Si number density = 19.800552 Si / 1000 Ang^3
#
#
#
# Elastic Constant Matrix: (Units=GPa)
#
#
# Indices 1 2 3 4 5 6 
#
# 1 117.2453 64.4302 48.0417 0.0000 0.0000 0.0000
# 2 64.4302 117.2453 48.0417 0.0000 0.0000 0.0000
# 3 48.0417 48.0417 125.3853 0.0000 0.0000 0.0000
# 4 0.0000 0.0000 0.0000 18.3195 0.0000 0.0000
# 5 0.0000 0.0000 0.0000 0.0000 18.3195 0.0000
# 6 0.0000 0.0000 0.0000 0.0000 0.0000 26.4075
#
#
#
# Elastic Compliance Matrix: (Units=1/GPa)
#
#
# Indices 1 2 3 4 5 6 
#
# 1 0.012919 -0.006015 -0.002645 0.000000 0.000000 0.000000
# 2 -0.006015 0.012919 -0.002645 0.000000 0.000000 0.000000
# 3 -0.002645 -0.002645 0.010002 0.000000 0.000000 0.000000
# 4 0.000000 0.000000 0.000000 0.054587 0.000000 0.000000
# 5 0.000000 0.000000 0.000000 0.000000 0.054587 0.000000
# 6 0.000000 0.000000 0.000000 0.000000 0.000000 0.037868
#
#
# Mechanical properties :
#
#
# Convention : Reuss Voigt Hill
#
# Bulk Modulus (GPa) = 75.59298 75.65591 75.62445
# Shear Modulus (GPa) = 23.82073 25.90010 24.86042
#
# Velocity S-wave (km/s) = 3.47224 3.62062 3.54721
# Velocity P-wave (km/s) = 7.37125 7.46796 7.41976
#
# Compressibility (1/GPa) = 0.01322874
#
# Stress axis : x y z
#
# Youngs Moduli (GPa) = 77.40782 77.40782 99.97734
#
# Poissons Ratio (x) = 0.46564 0.26444
# Poissons Ratio (y) = 0.46564 0.26444
# Poissons Ratio (z) = 0.20474 0.20474
#
# Static dielectric constant tensor:
#      x y z
#    x 3.644160 0.000000 0.000000 
#    y 0.000000 3.644160 0.000000 
#    z 0.000000 0.000000 3.719090 
# 
# 
# High freq. dielectric constant tensor:
#      x y z
#    x 1.770960 0.000000 0.000000 
#    y 0.000000 1.770960 0.000000 
#    z 0.000000 0.000000 1.778810 
# 
# From -- ./inp_files/7236.got.cif
#   From: 2010.03.12/outbox.cif.g09.slc.cpg/sg192_4_cif.got.tgz:7236.got - 2010.04.01 12:16:15.
