data_PCOD8329035
_publ_section_title
;
Structure prediction by ZEFSAII (Michael W. Deem and Ramdas Pophale) SiO2 
 PCOD8329035
Probable space group: P 6/M M M
;
_chemical_formula_sum "Si O2"
_cell_formula_units_Z 132
_cell_length_a 17.872217
_cell_length_b 17.872217
_cell_length_c 27.646994
_cell_angle_alpha 90.000000
_cell_angle_beta 90.000000
_cell_angle_gamma 120.000000
_cell_volume 7647.780378
_symmetry_space_group_name_H-M "P 6/M M M"
_symmetry_group_IT_number 191
_symmetry_cell_setting 'hexagonal'
loop_
_space_group_symop_operation_xyz
x,y,z
x-y,x,z
-y,x-y,z
-x,-y,z
-x+y,-x,z
y,-x+y,z
x-y,-y,-z
-x,-x+y,-z
y,x,-z
-y,-x,-z
-x+y,y,-z
x,x-y,-z
-x,-y,-z
-x+y,-x,-z
y,-x+y,-z
x,y,-z
x-y,x,-z
-y,x-y,-z
-x+y,y,z
x,x-y,z
-y,-x,z
y,x,z
x-y,-y,z
-x,-x+y,z
loop_
_atom_site_type_symbol
_atom_site_label
_atom_site_fract_x
_atom_site_fract_y
_atom_site_fract_z
Si Si1 0.495768 0.333311 0.918486
Si Si2 0.096919 0.361495 0.555424
Si Si3 0.360212 0.095097 0.000000
Si Si4 0.492918 0.331845 0.362258
Si Si5 0.636034 0.903320 0.725276
Si Si6 0.666800 0.504505 0.808107
O O1 0.525914 0.262957 0.925352
O O2 0.574844 0.425157 0.934085
O O3 0.415300 0.311212 0.952396
O O4 0.467951 0.335067 0.863314
O O5 0.105933 0.391906 0.500000
O O6 0.163546 0.327091 0.567388
O O7 0.119449 0.444777 0.587510
O O8 0.000000 0.283964 0.566486
O O9 0.326838 0.163419 0.000000
O O10 0.276583 0.000000 0.000000
O O11 0.525733 0.262867 0.360752
O O12 0.573212 0.426789 0.357234
O O13 0.428159 0.315625 0.318645
O O14 0.670608 0.835304 0.723758
O O15 0.586559 0.896159 0.775036
O O16 0.717766 0.000000 0.721613
O O17 0.736998 0.473996 0.801082
O O18 0.574693 0.425308 0.792355
#
# Coordination Sequence:
#
# PCOD8329035 Si02
#       6
#    24  24  12  24  24  24
#     4   9  17  29  46  69  98 131 162 188 215 254
#     4   9  18  32  49  69  93 122 156 194 237 281
#     4  10  21  35  49  66  89 117 150 190 237 283
#     4  10  20  33  49  70  97 128 159 189 222 263
#     4  10  21  35  50  69  93 121 153 191 236 281
#     4   9  17  29  46  69  98 131 163 191 219 255
#
# _framework density 17.259910000000001
#
# number of rings (size 3 to 8) (size 9 to 14) (size 15 to 20)
#    0.000    2.545    0.000    1.909    0.000    5.818 
#    0.000    5.455    0.000    1.545    0.000    1.273 
#    0.000    4.364    0.000    9.273    0.000    0.000 
#
# Total GULP energy -1636760.977519 kJ/mol
# GULP energy per Si atom -12399.704375 kJ/mol
# Density = 1.722063 g / cm^3
# Si number density = 17.259910 Si / 1000 Ang^3
#
#
#
# Elastic Constant Matrix: (Units=GPa)
#
#
# Indices 1 2 3 4 5 6 
#
# 1 102.5630 74.9791 42.7062 0.0000 0.0000 0.0000
# 2 74.9791 102.5630 42.7062 0.0000 0.0000 0.0000
# 3 42.7062 42.7062 86.6096 0.0000 0.0000 0.0000
# 4 0.0000 0.0000 0.0000 17.5579 0.0000 0.0000
# 5 0.0000 0.0000 0.0000 0.0000 17.5579 0.0000
# 6 0.0000 0.0000 0.0000 0.0000 0.0000 13.7919
#
#
#
# Elastic Compliance Matrix: (Units=1/GPa)
#
#
# Indices 1 2 3 4 5 6 
#
# 1 0.021819 -0.014435 -0.003641 0.000000 0.000000 0.000000
# 2 -0.014435 0.021819 -0.003641 0.000000 0.000000 0.000000
# 3 -0.003641 -0.003641 0.015137 0.000000 0.000000 0.000000
# 4 0.000000 0.000000 0.000000 0.056955 0.000000 0.000000
# 5 0.000000 0.000000 0.000000 0.000000 0.056955 0.000000
# 6 0.000000 0.000000 0.000000 0.000000 0.000000 0.072506
#
#
# Mechanical properties :
#
#
# Convention : Reuss Voigt Hill
#
# Bulk Modulus (GPa) = 65.18529 68.05764 66.62146
# Shear Modulus (GPa) = 17.02209 18.53779 17.77994
#
# Velocity S-wave (km/s) = 3.14382 3.28081 3.21304
# Velocity P-wave (km/s) = 7.14332 7.33950 7.24207
#
# Compressibility (1/GPa) = 0.01534088
#
# Stress axis : x y z
#
# Youngs Moduli (GPa) = 45.83244 45.83244 66.06434
#
# Poissons Ratio (x) = 0.66157 0.24054
# Poissons Ratio (y) = 0.66157 0.24054
# Poissons Ratio (z) = 0.16688 0.16688
#
# Static dielectric constant tensor:
#      x y z
#    x 3.078510 0.000000 0.000000 
#    y 0.000000 3.078510 0.000000 
#    z 0.000000 0.000000 3.511570 
# 
# 
# High freq. dielectric constant tensor:
#      x y z
#    x 1.644890 0.000000 0.000000 
#    y 0.000000 1.644890 0.000000 
#    z 0.000000 0.000000 1.686740 
# 
# From -- ./inp_files/9737.got.cif
#   From: 2010.03.12/outbox.cif.g09.slc.cpg/sg191_5_cif.got.tgz:9737.got - 2010.04.01 12:09:02.
