data_PCOD8329492
_publ_section_title
;
Structure prediction by ZEFSAII (Michael W. Deem and Ramdas Pophale) SiO2 
 PCOD8329492
Probable space group: P 6/M C C
;
_chemical_formula_sum "Si O2"
_cell_formula_units_Z 72
_cell_length_a 16.566573
_cell_length_b 16.566573
_cell_length_c 14.344428
_cell_angle_alpha 90.000000
_cell_angle_beta 90.000000
_cell_angle_gamma 120.000000
_cell_volume 3409.409946
_symmetry_space_group_name_H-M "P 6/M C C"
_symmetry_group_IT_number 192
_symmetry_cell_setting 'hexagonal'
loop_
_space_group_symop_operation_xyz
x,y,z
x-y,x,z
-y,x-y,z
-x,-y,z
-x+y,-x,z
y,-x+y,z
x-y,-y,1/2-z
-x,-x+y,1/2-z
y,x,1/2-z
-y,-x,1/2-z
-x+y,y,1/2-z
x,x-y,1/2-z
-x,-y,-z
-x+y,-x,-z
y,-x+y,-z
x,y,-z
x-y,x,-z
-y,x-y,-z
-x+y,y,1/2+z
x,x-y,1/2+z
-y,-x,1/2+z
y,x,1/2+z
x-y,-y,1/2+z
-x,-x+y,1/2+z
loop_
_atom_site_type_symbol
_atom_site_label
_atom_site_fract_x
_atom_site_fract_y
_atom_site_fract_z
Si Si1 0.024596 0.193954 0.389235
Si Si2 0.002952 0.638841 0.854520
Si Si3 0.859379 0.504484 0.500000
Si Si4 0.468391 0.315110 0.000000
O O1 0.024436 0.198536 0.500000
O O2 0.108300 0.180206 0.352060
O O3 0.038242 0.289854 0.349073
O O4 0.000000 0.602490 0.750000
O O5 0.903636 0.584220 0.907071
O O6 0.077033 0.621195 0.908692
O O7 0.782283 0.534816 0.500000
O O8 0.817448 0.394098 0.500000
#
# Coordination Sequence:
#
# PCOD8329492 Si02
#       4
#    24  24  12  12
#     4  10  19  33  54  83 119 158 201 248 298 352
#     4  11  23  40  64  91 122 163 206 250 304 369
#     4  11  24  43  66  92 122 157 202 255 310 366
#     4  11  24  43  66  92 122 157 202 255 310 366
#
# _framework density 21.118022
#
# number of rings (size 3 to 8) (size 9 to 14) (size 15 to 20)
#    0.000    1.333    3.333    4.667    0.000    9.333 
#    0.000    0.000    0.000    6.000    0.000    0.000 
#    0.000    0.000    0.000    0.000    0.000    0.000 
#
# Total GULP energy -893149.376668 kJ/mol
# GULP energy per Si atom -12404.852454 kJ/mol
# Density = 2.106996 g / cm^3
# Si number density = 21.118022 Si / 1000 Ang^3
#
#
#
# Elastic Constant Matrix: (Units=GPa)
#
#
# Indices 1 2 3 4 5 6 
#
# 1 82.4018 -6.0774 16.1098 0.0000 0.0000 0.0000
# 2 -6.0774 82.4018 16.1098 0.0000 0.0000 0.0000
# 3 16.1098 16.1098 135.2592 0.0000 0.0000 0.0000
# 4 0.0000 0.0000 0.0000 1.6069 0.0000 0.0000
# 5 0.0000 0.0000 0.0000 0.0000 1.6069 0.0000
# 6 0.0000 0.0000 0.0000 0.0000 0.0000 44.2396
#
#
#
# Elastic Compliance Matrix: (Units=1/GPa)
#
#
# Indices 1 2 3 4 5 6 
#
# 1 0.012549 0.001247 -0.001643 0.000000 0.000000 0.000000
# 2 0.001247 0.012549 -0.001643 0.000000 0.000000 0.000000
# 3 -0.001643 -0.001643 0.007785 0.000000 0.000000 0.000000
# 4 0.000000 0.000000 0.000000 0.622317 0.000000 0.000000
# 5 0.000000 0.000000 0.000000 0.000000 0.622317 0.000000
# 6 0.000000 0.000000 0.000000 0.000000 0.000000 0.022604
#
#
# Mechanical properties :
#
#
# Convention : Reuss Voigt Hill
#
# Bulk Modulus (GPa) = 34.71814 39.14968 36.93391
# Shear Modulus (GPa) = 3.80575 27.75207 15.77891
#
# Velocity S-wave (km/s) = 1.34389 3.62904 2.73642
# Velocity P-wave (km/s) = 4.34555 6.01155 5.24512
#
# Compressibility (1/GPa) = 0.02880339
#
# Stress axis : x y z
#
# Youngs Moduli (GPa) = 79.68870 79.68870 128.45865
#
# Poissons Ratio (x) = -0.09935 0.21107
# Poissons Ratio (y) = -0.09935 0.21107
# Poissons Ratio (z) = 0.13094 0.13094
#
# Static dielectric constant tensor:
#      x y z
#    x 3.850030 0.000000 0.000000 
#    y 0.000000 3.850030 0.000000 
#    z 0.000000 0.000000 3.803710 
# 
# 
# High freq. dielectric constant tensor:
#      x y z
#    x 1.829620 0.000000 0.000000 
#    y 0.000000 1.829620 0.000000 
#    z 0.000000 0.000000 1.823190 
# 
# From -- ./inp_files/2378.got.cif
#   From: 2010.03.12/outbox.cif.g09.slc.cpg/sg192_2_cif.got.tgz:2378.got - 2010.04.01 12:16:15.
