data_PCOD8329434
_publ_section_title
;
Structure prediction by ZEFSAII (Michael W. Deem and Ramdas Pophale) SiO2 
 PCOD8329434
Probable space group: P 6/M C C
;
_chemical_formula_sum "Si O2"
_cell_formula_units_Z 78
_cell_length_a 24.637728
_cell_length_b 24.637728
_cell_length_c 9.074550
_cell_angle_alpha 90.000000
_cell_angle_beta 90.000000
_cell_angle_gamma 120.000000
_cell_volume 4770.424669
_symmetry_space_group_name_H-M "P 6/M C C"
_symmetry_group_IT_number 192
_symmetry_cell_setting 'hexagonal'
loop_
_space_group_symop_operation_xyz
x,y,z
x-y,x,z
-y,x-y,z
-x,-y,z
-x+y,-x,z
y,-x+y,z
x-y,-y,1/2-z
-x,-x+y,1/2-z
y,x,1/2-z
-y,-x,1/2-z
-x+y,y,1/2-z
x,x-y,1/2-z
-x,-y,-z
-x+y,-x,-z
y,-x+y,-z
x,y,-z
x-y,x,-z
-y,x-y,-z
-x+y,y,1/2+z
x,x-y,1/2+z
-y,-x,1/2+z
y,x,1/2+z
x-y,-y,1/2+z
-x,-x+y,1/2+z
loop_
_atom_site_type_symbol
_atom_site_label
_atom_site_fract_x
_atom_site_fract_y
_atom_site_fract_z
Si Si1 0.366682 0.942140 0.164048
Si Si2 0.932779 0.180539 0.173788
Si Si3 0.393989 0.142362 0.829053
Si Si4 0.500000 0.500000 0.750000
O O1 0.319599 0.881074 0.256322
O O2 0.437832 0.953817 0.155249
O O3 0.367470 0.000000 0.250000
O O4 0.340392 0.937609 0.000000
O O5 0.885828 0.114173 0.250000
O O6 0.907206 0.228428 0.200693
O O7 0.000000 0.208207 0.250000
O O8 0.937678 0.170148 0.000000
O O9 0.414389 0.207195 0.750000
O O10 0.409845 0.154611 0.000000
#
# Coordination Sequence:
#
# PCOD8329434 Si02
#       4
#    24  24  24   6
#     4  10  19  31  48  69  98 131 167 205 247 296
#     4  10  20  33  49  70  95 126 161 200 243 292
#     4  10  20  32  48  70  99 131 165 203 248 298
#     4   8  22  32  50  72 102 136 174 208 256 300
#
# _framework density 16.350746000000001
#
# number of rings (size 3 to 8) (size 9 to 14) (size 15 to 20)
#    0.923    1.231    0.000    4.154    0.000    6.154 
#    0.000    0.000    0.000    0.308    0.000    2.154 
#    1.538    0.000    1.846    0.000    1.231    0.000 
#
# Total GULP energy -966525.321547 kJ/mol
# GULP energy per Si atom -12391.350276 kJ/mol
# Density = 1.631353 g / cm^3
# Si number density = 16.350746 Si / 1000 Ang^3
#
#
#
# Elastic Constant Matrix: (Units=GPa)
#
#
# Indices 1 2 3 4 5 6 
#
# 1 89.2567 38.1973 47.2855 0.0000 0.0000 0.0000
# 2 38.1973 89.2567 47.2855 0.0000 0.0000 0.0000
# 3 47.2855 47.2855 147.6043 0.0000 0.0000 0.0000
# 4 0.0000 0.0000 0.0000 23.2360 0.0000 0.0000
# 5 0.0000 0.0000 0.0000 0.0000 23.2360 0.0000
# 6 0.0000 0.0000 0.0000 0.0000 0.0000 25.5297
#
#
#
# Elastic Compliance Matrix: (Units=1/GPa)
#
#
# Indices 1 2 3 4 5 6 
#
# 1 0.014939 -0.004646 -0.003297 0.000000 0.000000 0.000000
# 2 -0.004646 0.014939 -0.003297 0.000000 0.000000 0.000000
# 3 -0.003297 -0.003297 0.008887 0.000000 0.000000 0.000000
# 4 0.000000 0.000000 0.000000 0.043037 0.000000 0.000000
# 5 0.000000 0.000000 0.000000 0.000000 0.043037 0.000000
# 6 0.000000 0.000000 0.000000 0.000000 0.000000 0.039170
#
#
# Mechanical properties :
#
#
# Convention : Reuss Voigt Hill
#
# Bulk Modulus (GPa) = 61.41181 65.73936 63.57558
# Shear Modulus (GPa) = 26.05282 27.29029 26.67156
#
# Velocity S-wave (km/s) = 3.99604 4.08984 4.04321
# Velocity P-wave (km/s) = 7.67669 7.91172 7.79510
#
# Compressibility (1/GPa) = 0.01628351
#
# Stress axis : x y z
#
# Youngs Moduli (GPa) = 66.93988 66.93988 112.51843
#
# Poissons Ratio (x) = 0.31102 0.37100
# Poissons Ratio (y) = 0.31102 0.37100
# Poissons Ratio (z) = 0.22072 0.22072
#
# Static dielectric constant tensor:
#      x y z
#    x 2.914270 0.000000 0.000000 
#    y 0.000000 2.914270 0.000000 
#    z 0.000000 0.000000 3.154200 
# 
# 
# High freq. dielectric constant tensor:
#      x y z
#    x 1.604710 0.000000 0.000000 
#    y 0.000000 1.604710 0.000000 
#    z 0.000000 0.000000 1.649870 
# 
# From -- ./inp_files/739.got.cif
#   From: 2010.03.12/outbox.cif.g09.slc.cpg/sg192_1_cif.got.tgz:739.got - 2010.04.01 12:16:15.
