data_PCOD8329540
_publ_section_title
;
Structure prediction by ZEFSAII (Michael W. Deem and Ramdas Pophale) SiO2 
 PCOD8329540
Probable space group: P 6/M C C
;
_chemical_formula_sum "Si O2"
_cell_formula_units_Z 152
_cell_length_a 18.787217
_cell_length_b 18.787217
_cell_length_c 25.884798
_cell_angle_alpha 90.000000
_cell_angle_beta 90.000000
_cell_angle_gamma 120.000000
_cell_volume 7912.255724
_symmetry_space_group_name_H-M "P 6/M C C"
_symmetry_group_IT_number 192
_symmetry_cell_setting 'hexagonal'
loop_
_space_group_symop_operation_xyz
x,y,z
x-y,x,z
-y,x-y,z
-x,-y,z
-x+y,-x,z
y,-x+y,z
x-y,-y,1/2-z
-x,-x+y,1/2-z
y,x,1/2-z
-y,-x,1/2-z
-x+y,y,1/2-z
x,x-y,1/2-z
-x,-y,-z
-x+y,-x,-z
y,-x+y,-z
x,y,-z
x-y,x,-z
-y,x-y,-z
-x+y,y,1/2+z
x,x-y,1/2+z
-y,-x,1/2+z
y,x,1/2+z
x-y,-y,1/2+z
-x,-x+y,1/2+z
loop_
_atom_site_type_symbol
_atom_site_label
_atom_site_fract_x
_atom_site_fract_y
_atom_site_fract_z
Si Si1 0.752840 0.003430 0.308395
Si Si2 0.993759 0.317058 0.058464
Si Si3 0.722029 0.589057 0.143508
Si Si4 0.115617 0.415540 0.857490
Si Si5 0.148767 0.570154 0.688578
Si Si6 0.333334 0.666667 0.688893
Si Si7 0.834744 0.837947 0.092994
O O1 0.760092 0.091169 0.319825
O O2 0.815282 0.993148 0.345865
O O3 0.778904 0.000000 0.250000
O O4 0.660141 0.930772 0.318228
O O5 0.073306 0.391106 0.086264
O O6 0.909429 0.297223 0.087153
O O7 0.003690 0.237137 0.059506
O O8 0.990010 0.343151 0.000000
O O9 0.788354 0.558621 0.139194
O O10 0.635924 0.521965 0.168499
O O11 0.102335 0.488618 0.836486
O O12 0.139990 0.569995 0.750000
O O13 0.241410 0.621517 0.668241
O O14 0.333334 0.666667 0.750000
O O15 0.841930 0.923233 0.077631
#
# Coordination Sequence:
#
# PCOD8329540 Si02
#       7
#    24  24  24  24  24   8  24
#     4  10  20  33  51  76 110 152 190 223 261 319
#     4  10  22  41  62  80 103 141 188 233 282 332
#     4  10  21  36  55  82 112 144 184 231 278 324
#     4  10  21  36  55  82 112 144 184 231 278 324
#     4  11  20  33  56  87 120 152 182 216 267 327
#     4   9  18  30  51  84 115 152 184 207 255 324
#     4  10  21  36  56  83 111 139 176 224 278 332
#
# _framework density 19.210704
#
# number of rings (size 3 to 8) (size 9 to 14) (size 15 to 20)
#    0.000    2.211    1.579    4.895    0.000    8.842 
#    0.000    5.526    0.000    1.895    0.000    0.000 
#    0.000    0.000    0.000    0.000    0.000    0.000 
#
# Total GULP energy -1884655.425032 kJ/mol
# GULP energy per Si atom -12399.048849 kJ/mol
# Density = 1.916698 g / cm^3
# Si number density = 19.210704 Si / 1000 Ang^3
#
#
#
# Elastic Constant Matrix: (Units=GPa)
#
#
# Indices 1 2 3 4 5 6 
#
# 1 67.7668 2.5497 9.9227 0.0000 0.0000 -0.0003
# 2 2.5497 67.7660 9.9223 0.0000 0.0000 0.0000
# 3 9.9227 9.9223 110.4798 0.0000 0.0000 0.0000
# 4 0.0000 0.0000 0.0000 12.2925 0.0000 0.0000
# 5 0.0000 0.0000 0.0000 0.0000 12.2925 0.0000
# 6 -0.0003 0.0000 0.0000 0.0000 0.0000 32.6081
#
#
#
# Elastic Compliance Matrix: (Units=1/GPa)
#
#
# Indices 1 2 3 4 5 6 
#
# 1 0.014962 -0.000371 -0.001311 0.000000 0.000000 0.000000
# 2 -0.000371 0.014963 -0.001310 0.000000 0.000000 0.000000
# 3 -0.001311 -0.001310 0.009287 0.000000 0.000000 0.000000
# 4 0.000000 0.000000 0.000000 0.081350 0.000000 0.000000
# 5 0.000000 0.000000 0.000000 0.000000 0.081350 0.000000
# 6 0.000000 0.000000 0.000000 0.000000 0.000000 0.030667
#
#
# Mechanical properties :
#
#
# Convention : Reuss Voigt Hill
#
# Bulk Modulus (GPa) = 30.09550 32.31133 31.20342
# Shear Modulus (GPa) = 20.02887 26.34648 23.18767
#
# Velocity S-wave (km/s) = 3.23242 3.70732 3.47799
# Velocity P-wave (km/s) = 5.44347 5.93141 5.69267
#
# Compressibility (1/GPa) = 0.03322756
#
# Stress axis : x y z
#
# Youngs Moduli (GPa) = 66.83451 66.83371 107.67943
#
# Poissons Ratio (x) = 0.02480 0.14111
# Poissons Ratio (y) = 0.02480 0.14111
# Poissons Ratio (z) = 0.08759 0.08758
#
# Static dielectric constant tensor:
#      x y z
#    x 3.515460 0.000000 0.000000 
#    y 0.000000 3.515460 0.000000 
#    z 0.000000 0.000000 3.223430 
# 
# 
# High freq. dielectric constant tensor:
#      x y z
#    x 1.749490 0.000000 0.000000 
#    y 0.000000 1.749490 0.000000 
#    z 0.000000 0.000000 1.721600 
# 
# From -- ./inp_files/7140.got.cif
#   From: 2010.03.12/outbox.cif.g09.slc.cpg/sg192_4_cif.got.tgz:7140.got - 2010.04.01 12:16:15.
