data_PCOD8329673
_publ_section_title
;
Structure prediction by ZEFSAII (Michael W. Deem and Ramdas Pophale) SiO2 
 PCOD8329673
Probable space group: P 6/M C C
;
_chemical_formula_sum "Si O2"
_cell_formula_units_Z 68
_cell_length_a 12.401586
_cell_length_b 12.401586
_cell_length_c 23.944969
_cell_angle_alpha 90.000000
_cell_angle_beta 90.000000
_cell_angle_gamma 120.000000
_cell_volume 3189.329349
_symmetry_space_group_name_H-M "P 6/M C C"
_symmetry_group_IT_number 192
_symmetry_cell_setting 'hexagonal'
loop_
_space_group_symop_operation_xyz
x,y,z
x-y,x,z
-y,x-y,z
-x,-y,z
-x+y,-x,z
y,-x+y,z
x-y,-y,1/2-z
-x,-x+y,1/2-z
y,x,1/2-z
-y,-x,1/2-z
-x+y,y,1/2-z
x,x-y,1/2-z
-x,-y,-z
-x+y,-x,-z
y,-x+y,-z
x,y,-z
x-y,x,-z
-y,x-y,-z
-x+y,y,1/2+z
x,x-y,1/2+z
-y,-x,1/2+z
y,x,1/2+z
x-y,-y,1/2+z
-x,-x+y,1/2+z
loop_
_atom_site_type_symbol
_atom_site_label
_atom_site_fract_x
_atom_site_fract_y
_atom_site_fract_z
Si Si1 0.666667 0.333334 0.936114
Si Si2 0.910833 0.548680 0.604251
Si Si3 0.879809 0.715539 0.685396
Si Si4 0.271358 0.246186 0.500000
O O1 0.579590 0.194249 0.918487
O O2 0.666667 0.333334 0.000000
O O3 0.847137 0.590073 0.652762
O O4 0.971642 0.652245 0.555341
O O5 0.000000 0.500000 0.629665
O O6 0.805885 0.783858 0.666770
O O7 0.842400 0.684799 0.750000
O O8 0.140979 0.245954 0.500000
#
# Coordination Sequence:
#
# PCOD8329673 Si02
#       4
#     8  24  24  12
#     4  12  24  42  64  89 124 174 228 265 326 403
#     4  12  25  42  65  96 132 176 227 278 333 406
#     4  10  21  41  68  98 131 170 218 276 339 400
#     4  12  24  40  64  96 135 178 226 286 344 406
#
# _framework density 21.321097999999999
#
# number of rings (size 3 to 8) (size 9 to 14) (size 15 to 20)
#    0.000    0.706    1.765    7.412    0.000    1.412 
#    0.000   15.882    0.000    0.000    0.000    0.000 
#    0.000    0.000    0.000    0.000    0.000    0.000 
#
# Total GULP energy -842387.303249 kJ/mol
# GULP energy per Si atom -12388.048577 kJ/mol
# Density = 2.127257 g / cm^3
# Si number density = 21.321098 Si / 1000 Ang^3
#
#
#
# Elastic Constant Matrix: (Units=GPa)
#
#
# Indices 1 2 3 4 5 6 
#
# 1 113.3579 18.7858 42.1883 -0.0001 -0.0004 0.0001
# 2 18.7858 113.3572 42.1881 0.0001 -0.0002 0.0000
# 3 42.1883 42.1881 81.7156 0.0000 -0.0004 0.0001
# 4 -0.0001 0.0001 0.0000 30.3568 -0.0004 -0.0001
# 5 -0.0004 -0.0002 -0.0004 -0.0004 30.3576 0.0001
# 6 0.0001 0.0000 0.0001 -0.0001 0.0001 47.2859
#
#
#
# Elastic Compliance Matrix: (Units=1/GPa)
#
#
# Indices 1 2 3 4 5 6 
#
# 1 0.010931 0.000358 -0.005828 0.000000 0.000000 0.000000
# 2 0.000358 0.010932 -0.005828 0.000000 0.000000 0.000000
# 3 -0.005828 -0.005828 0.018256 0.000000 0.000000 0.000000
# 4 0.000000 0.000000 0.000000 0.032942 0.000000 0.000000
# 5 0.000000 0.000000 0.000000 0.000000 0.032941 0.000000
# 6 0.000000 0.000000 0.000000 0.000000 0.000000 0.021148
#
#
# Mechanical properties :
#
#
# Convention : Reuss Voigt Hill
#
# Bulk Modulus (GPa) = 57.07604 57.19500 57.13552
# Shear Modulus (GPa) = 32.13630 35.28462 33.71046
#
# Velocity S-wave (km/s) = 3.88655 4.07248 3.98060
# Velocity P-wave (km/s) = 6.85334 6.99980 6.92696
#
# Compressibility (1/GPa) = 0.01752049
#
# Stress axis : x y z
#
# Youngs Moduli (GPa) = 91.47884 91.47840 54.77750
#
# Poissons Ratio (x) = -0.03271 0.31926
# Poissons Ratio (y) = -0.03271 0.31926
# Poissons Ratio (z) = 0.53317 0.53317
#
# Static dielectric constant tensor:
#      x y z
#    x 4.044410 0.000000 0.000000 
#    y 0.000000 4.044420 0.000000 
#    z 0.000000 0.000000 3.875000 
# 
# 
# High freq. dielectric constant tensor:
#      x y z
#    x 1.850100 0.000000 0.000000 
#    y 0.000000 1.850100 0.000000 
#    z 0.000000 0.000000 1.831460 
# 
# From -- ./inp_files/6735.got.cif
#   From: 2010.03.12/outbox.cif.g09.slc.cpg/sg192_4_cif.got.tgz:6735.got - 2010.04.01 12:16:15.
