data_PCOD8329052
_publ_section_title
;
Structure prediction by ZEFSAII (Michael W. Deem and Ramdas Pophale) SiO2 
 PCOD8329052
Probable space group: P 6/M M M
;
_chemical_formula_sum "Si O2"
_cell_formula_units_Z 84
_cell_length_a 17.648036
_cell_length_b 17.648036
_cell_length_c 17.920945
_cell_angle_alpha 90.000000
_cell_angle_beta 90.000000
_cell_angle_gamma 120.000000
_cell_volume 4833.751287
_symmetry_space_group_name_H-M "P 6/M M M"
_symmetry_group_IT_number 191
_symmetry_cell_setting 'hexagonal'
loop_
_space_group_symop_operation_xyz
x,y,z
x-y,x,z
-y,x-y,z
-x,-y,z
-x+y,-x,z
y,-x+y,z
x-y,-y,-z
-x,-x+y,-z
y,x,-z
-y,-x,-z
-x+y,y,-z
x,x-y,-z
-x,-y,-z
-x+y,-x,-z
y,-x+y,-z
x,y,-z
x-y,x,-z
-y,x-y,-z
-x+y,y,z
x,x-y,z
-y,-x,z
y,x,z
x-y,-y,z
-x,-x+y,z
loop_
_atom_site_type_symbol
_atom_site_label
_atom_site_fract_x
_atom_site_fract_y
_atom_site_fract_z
Si Si1 0.265893 0.364113 0.084141
Si Si2 0.730262 0.629963 0.359800
Si Si3 0.634789 0.102912 0.780806
Si Si4 0.156402 0.667948 0.500000
O O1 0.161656 0.323311 0.093148
O O2 0.287355 0.287355 0.103650
O O3 0.316102 0.445770 0.139746
O O4 0.296221 0.399314 0.000000
O O5 0.834753 0.669505 0.371858
O O6 0.709197 0.709197 0.352452
O O7 0.703796 0.569604 0.286286
O O8 0.675607 0.568653 0.428073
O O9 0.573480 0.146959 0.774589
O O10 0.574070 0.000000 0.775418
O O11 0.258072 0.741928 0.500000
O O12 0.147936 0.573968 0.500000
#
# Coordination Sequence:
#
# PCOD8329052 Si02
#       4
#    24  24  24  12
#     4   9  17  29  46  68  93 122 157 196 236 277
#     4  10  20  33  50  72  97 126 160 197 235 275
#     4   9  17  29  46  68  91 115 147 187 229 275
#     4  10  20  33  50  73 100 128 157 192 236 283
#
# _framework density 17.377808000000002
#
# number of rings (size 3 to 8) (size 9 to 14) (size 15 to 20)
#    0.000    2.571    0.000    2.286    0.000    2.857 
#    0.000    2.857    0.000    6.857    0.000    2.000 
#    0.000   10.286    0.000    0.286    0.000    1.143 
#
# Total GULP energy -1041228.828865 kJ/mol
# GULP energy per Si atom -12395.581296 kJ/mol
# Density = 1.733826 g / cm^3
# Si number density = 17.377808 Si / 1000 Ang^3
#
#
#
# Elastic Constant Matrix: (Units=GPa)
#
#
# Indices 1 2 3 4 5 6 
#
# 1 89.1895 53.8012 35.2050 0.0000 0.0000 0.0000
# 2 53.8012 89.1895 35.2050 0.0000 0.0000 0.0000
# 3 35.2050 35.2050 116.7987 0.0000 0.0000 0.0000
# 4 0.0000 0.0000 0.0000 20.1614 0.0000 0.0000
# 5 0.0000 0.0000 0.0000 0.0000 20.1614 0.0000
# 6 0.0000 0.0000 0.0000 0.0000 0.0000 17.6942
#
#
#
# Elastic Compliance Matrix: (Units=1/GPa)
#
#
# Indices 1 2 3 4 5 6 
#
# 1 0.018235 -0.010023 -0.002475 0.000000 0.000000 0.000000
# 2 -0.010023 0.018235 -0.002475 0.000000 0.000000 0.000000
# 3 -0.002475 -0.002475 0.010054 0.000000 0.000000 0.000000
# 4 0.000000 0.000000 0.000000 0.049600 0.000000 0.000000
# 5 0.000000 0.000000 0.000000 0.000000 0.049600 0.000000
# 6 0.000000 0.000000 0.000000 0.000000 0.000000 0.056516
#
#
# Mechanical properties :
#
#
# Convention : Reuss Voigt Hill
#
# Bulk Modulus (GPa) = 60.32345 60.40002 60.36173
# Shear Modulus (GPa) = 21.03384 23.00115 22.01749
#
# Velocity S-wave (km/s) = 3.48283 3.64207 3.56334
# Velocity P-wave (km/s) = 7.13875 7.24698 7.19307
#
# Compressibility (1/GPa) = 0.01657730
#
# Stress axis : x y z
#
# Youngs Moduli (GPa) = 54.83928 54.83928 99.46337
#
# Poissons Ratio (x) = 0.54964 0.24620
# Poissons Ratio (y) = 0.54964 0.24620
# Poissons Ratio (z) = 0.13575 0.13575
#
# Static dielectric constant tensor:
#      x y z
#    x 3.137980 0.000000 0.000000 
#    y 0.000000 3.137980 0.000000 
#    z 0.000000 0.000000 3.500830 
# 
# 
# High freq. dielectric constant tensor:
#      x y z
#    x 1.649850 0.000000 0.000000 
#    y 0.000000 1.649850 0.000000 
#    z 0.000000 0.000000 1.693670 
# 
# From -- ./inp_files/3977.got.cif
#   From: 2010.03.12/outbox.cif.g09.slc.cpg/sg191_2_cif.got.tgz:3977.got - 2010.04.01 12:09:02.
