data_PCOD8329694
_publ_section_title
;
Structure prediction by ZEFSAII (Michael W. Deem and Ramdas Pophale) SiO2 
 PCOD8329694
Probable space group: P 6/M C C
;
_chemical_formula_sum "Si O2"
_cell_formula_units_Z 84
_cell_length_a 17.125759
_cell_length_b 17.125759
_cell_length_c 14.259799
_cell_angle_alpha 90.000000
_cell_angle_beta 90.000000
_cell_angle_gamma 120.000000
_cell_volume 3621.960352
_symmetry_space_group_name_H-M "P 6/M C C"
_symmetry_group_IT_number 192
_symmetry_cell_setting 'hexagonal'
loop_
_space_group_symop_operation_xyz
x,y,z
x-y,x,z
-y,x-y,z
-x,-y,z
-x+y,-x,z
y,-x+y,z
x-y,-y,1/2-z
-x,-x+y,1/2-z
y,x,1/2-z
-y,-x,1/2-z
-x+y,y,1/2-z
x,x-y,1/2-z
-x,-y,-z
-x+y,-x,-z
y,-x+y,-z
x,y,-z
x-y,x,-z
-y,x-y,-z
-x+y,y,1/2+z
x,x-y,1/2+z
-y,-x,1/2+z
y,x,1/2+z
x-y,-y,1/2+z
-x,-x+y,1/2+z
loop_
_atom_site_type_symbol
_atom_site_label
_atom_site_fract_x
_atom_site_fract_y
_atom_site_fract_z
Si Si1 0.601277 0.963916 0.000000
Si Si2 0.336304 0.515149 0.303157
Si Si3 0.043180 0.733200 0.657190
Si Si4 0.550293 0.401597 0.000000
Si Si5 0.137588 0.928063 0.000000
O O1 0.655617 0.964721 0.907241
O O2 0.505074 0.872828 0.000000
O O3 0.594674 0.053501 0.000000
O O4 0.433451 0.566550 0.250000
O O5 0.270122 0.540243 0.250000
O O6 0.297973 0.409073 0.304163
O O7 0.348946 0.553835 0.408810
O O8 0.094175 0.823389 0.593856
O O9 0.000000 0.750993 0.750000
O O10 0.031458 0.867776 0.000000
#
# Coordination Sequence:
#
# PCOD8329694 Si02
#       5
#    12  24  24  12  12
#     4   8  16  35  61  92 132 171 227 279 350 401
#     4  11  24  40  63  99 146 195 247 288 358 419
#     4  10  22  41  70 105 136 179 238 300 358 426
#     4   9  18  36  57  88 129 181 228 292 336 404
#     4  11  27  49  76 105 143 184 237 297 385 466
#
# _framework density 23.191859000000001
#
# number of rings (size 3 to 8) (size 9 to 14) (size 15 to 20)
#    0.000    2.000    0.000    3.000    4.000    4.000 
#    0.000    0.000    0.000    1.714    0.000    0.000 
#    0.000    0.000    0.000    0.000    0.000    0.000 
#
# Total GULP energy -1041553.305391 kJ/mol
# GULP energy per Si atom -12399.444112 kJ/mol
# Density = 2.313907 g / cm^3
# Si number density = 23.191859 Si / 1000 Ang^3
#
#
#
# Elastic Constant Matrix: (Units=GPa)
#
#
# Indices 1 2 3 4 5 6 
#
# 1 89.9549 28.7983 37.7970 0.0000 0.0000 0.0000
# 2 28.7983 89.9549 37.7970 0.0000 0.0000 0.0000
# 3 37.7970 37.7970 193.3325 0.0000 0.0000 0.0000
# 4 0.0000 0.0000 0.0000 26.6736 0.0000 0.0000
# 5 0.0000 0.0000 0.0000 0.0000 26.6736 0.0000
# 6 0.0000 0.0000 0.0000 0.0000 0.0000 30.5783
#
#
#
# Elastic Compliance Matrix: (Units=1/GPa)
#
#
# Indices 1 2 3 4 5 6 
#
# 1 0.012985 -0.003367 -0.001880 0.000000 0.000000 0.000000
# 2 -0.003367 0.012985 -0.001880 0.000000 0.000000 0.000000
# 3 -0.001880 -0.001880 0.005908 0.000000 0.000000 0.000000
# 4 0.000000 0.000000 0.000000 0.037490 0.000000 0.000000
# 5 0.000000 0.000000 0.000000 0.000000 0.037490 0.000000
# 6 0.000000 0.000000 0.000000 0.000000 0.000000 0.032703
#
#
# Mechanical properties :
#
#
# Convention : Reuss Voigt Hill
#
# Bulk Modulus (GPa) = 56.74734 64.66965 60.70850
# Shear Modulus (GPa) = 31.31083 34.70843 33.00963
#
# Velocity S-wave (km/s) = 3.67833 3.87276 3.77680
# Velocity P-wave (km/s) = 6.52395 6.92408 6.72699
#
# Compressibility (1/GPa) = 0.01762197
#
# Stress axis : x y z
#
# Youngs Moduli (GPa) = 77.01420 77.01420 169.27229
#
# Poissons Ratio (x) = 0.25930 0.31828
# Poissons Ratio (y) = 0.25930 0.31828
# Poissons Ratio (z) = 0.14481 0.14481
#
# Static dielectric constant tensor:
#      x y z
#    x 3.932820 0.000000 0.000000 
#    y 0.000000 3.932820 0.000000 
#    z 0.000000 0.000000 4.565380 
# 
# 
# High freq. dielectric constant tensor:
#      x y z
#    x 1.896410 0.000000 0.000000 
#    y 0.000000 1.896410 0.000000 
#    z 0.000000 0.000000 1.939050 
# 
# From -- ./inp_files/2610.got.cif
#   From: 2010.03.12/outbox.cif.g09.slc.cpg/sg192_2_cif.got.tgz:2610.got - 2010.04.01 12:16:15.
