data_PCOD8329887
_publ_section_title
;
Structure prediction by ZEFSAII (Michael W. Deem and Ramdas Pophale) SiO2 
 PCOD8329887
Probable space group: P 63/M C M
;
_chemical_formula_sum "Si O2"
_cell_formula_units_Z 144
_cell_length_a 32.555093
_cell_length_b 32.555093
_cell_length_c 8.642170
_cell_angle_alpha 90.000000
_cell_angle_beta 90.000000
_cell_angle_gamma 120.000000
_cell_volume 7932.157290
_symmetry_space_group_name_H-M "P 63/M C M"
_symmetry_group_IT_number 193
_symmetry_cell_setting 'hexagonal'
loop_
_space_group_symop_operation_xyz
x,y,z
x-y,x,1/2+z
-y,x-y,z
-x,-y,1/2+z
-x+y,-x,z
y,-x+y,1/2+z
x-y,-y,1/2-z
-x,-x+y,1/2-z
y,x,1/2-z
-y,-x,-z
-x+y,y,-z
x,x-y,-z
-x,-y,-z
-x+y,-x,1/2-z
y,-x+y,-z
x,y,1/2-z
x-y,x,-z
-y,x-y,1/2-z
-x+y,y,1/2+z
x,x-y,1/2+z
-y,-x,1/2+z
y,x,z
x-y,-y,z
-x,-x+y,z
loop_
_atom_site_type_symbol
_atom_site_label
_atom_site_fract_x
_atom_site_fract_y
_atom_site_fract_z
Si Si1 0.721036 0.107209 0.567414
Si Si2 0.528230 0.144337 0.065960
Si Si3 0.106929 0.806479 0.433022
Si Si4 0.860742 0.807506 0.932805
Si Si5 0.051887 0.437928 0.067352
Si Si6 0.281447 0.806151 0.933451
O O1 0.726425 0.115553 0.750000
O O2 0.754772 0.087880 0.505801
O O3 0.667792 0.068016 0.519971
O O4 0.734827 0.156942 0.487851
O O5 0.529425 0.147710 0.250000
O O6 0.490194 0.090885 0.008600
O O7 0.579373 0.158746 0.000000
O O8 0.513251 0.180635 0.999346
O O9 0.159058 0.840942 0.500000
O O10 0.109619 0.803942 0.250000
O O11 0.071550 0.825105 0.486033
O O12 0.864675 0.810330 0.750000
O O13 0.840443 0.840443 0.996891
O O14 0.913183 0.826365 0.000000
O O15 0.048200 0.438993 0.250000
O O16 0.000000 0.421127 0.993026
O O17 0.282260 0.804799 0.750000
O O18 0.245255 0.754746 0.000000
#
# Coordination Sequence:
#
# PCOD8329887 Si02
#       6
#    24  24  24  24  24  24
#     4  10  19  31  48  72 103 137 174 214 254 297
#     4  10  20  35  55  79 106 136 172 213 258 307
#     4  10  19  31  47  68  97 131 166 203 244 292
#     4   9  19  35  53  74 100 129 163 204 249 298
#     4   8  16  31  49  70  99 135 174 215 255 294
#     4  11  21  35  55  78 104 134 170 211 258 309
#
# _framework density 18.153950999999999
#
# number of rings (size 3 to 8) (size 9 to 14) (size 15 to 20)
#    0.000    2.333    0.000    4.500    0.000    2.000 
#    0.000    0.000    0.000   17.500    0.000    2.333 
#    0.000    0.000    0.000    0.000    0.000    0.000 
#
# Total GULP energy -1785601.814149 kJ/mol
# GULP energy per Si atom -12400.012598 kJ/mol
# Density = 1.811263 g / cm^3
# Si number density = 18.153951 Si / 1000 Ang^3
#
#
#
# Elastic Constant Matrix: (Units=GPa)
#
#
# Indices 1 2 3 4 5 6 
#
# 1 113.0125 68.4847 36.6266 0.0000 0.0000 0.0000
# 2 68.4847 113.0125 36.6266 0.0000 0.0000 0.0000
# 3 36.6266 36.6266 85.5332 0.0000 0.0000 0.0000
# 4 0.0000 0.0000 0.0000 25.1466 0.0000 0.0000
# 5 0.0000 0.0000 0.0000 0.0000 25.1466 0.0000
# 6 0.0000 0.0000 0.0000 0.0000 0.0000 22.2639
#
#
#
# Elastic Compliance Matrix: (Units=1/GPa)
#
#
# Indices 1 2 3 4 5 6 
#
# 1 0.014559 -0.007898 -0.002852 0.000000 0.000000 0.000000
# 2 -0.007898 0.014559 -0.002852 0.000000 0.000000 0.000000
# 3 -0.002852 -0.002852 0.014134 0.000000 0.000000 0.000000
# 4 0.000000 0.000000 0.000000 0.039767 0.000000 0.000000
# 5 0.000000 0.000000 0.000000 0.000000 0.039767 0.000000
# 6 0.000000 0.000000 0.000000 0.000000 0.000000 0.044916
#
#
# Mechanical properties :
#
#
# Convention : Reuss Voigt Hill
#
# Bulk Modulus (GPa) = 62.31773 66.11487 64.21630
# Shear Modulus (GPa) = 24.96786 25.83278 25.40032
#
# Velocity S-wave (km/s) = 3.71258 3.77634 3.74460
# Velocity P-wave (km/s) = 7.26495 7.45066 7.35839
#
# Compressibility (1/GPa) = 0.01604680
#
# Stress axis : x y z
#
# Youngs Moduli (GPa) = 68.68415 68.68415 70.75050
#
# Poissons Ratio (x) = 0.54250 0.20180
# Poissons Ratio (y) = 0.54250 0.20180
# Poissons Ratio (z) = 0.19591 0.19591
#
# Static dielectric constant tensor:
#      x y z
#    x 3.381450 0.000000 0.000000 
#    y 0.000000 3.381450 0.000000 
#    z 0.000000 0.000000 3.249100 
# 
# 
# High freq. dielectric constant tensor:
#      x y z
#    x 1.696060 0.000000 0.000000 
#    y 0.000000 1.696060 0.000000 
#    z 0.000000 0.000000 1.700300 
# 
# From -- ./inp_files/1553.got.cif
#   From: 2010.03.12/outbox.cif.g09.slc.cpg/sg193_1_cif.got.tgz:1553.got - 2010.04.01 12:20:39.
