data_PCOD8329214
_publ_section_title
;
Structure prediction by ZEFSAII (Michael W. Deem and Ramdas Pophale) SiO2 
 PCOD8329214
Probable space group: P 6/M M M
;
_chemical_formula_sum "Si O2"
_cell_formula_units_Z 144
_cell_length_a 31.075056
_cell_length_b 31.075056
_cell_length_c 9.129874
_cell_angle_alpha 90.000000
_cell_angle_beta 90.000000
_cell_angle_gamma 120.000000
_cell_volume 7635.179569
_symmetry_space_group_name_H-M "P 6/M M M"
_symmetry_group_IT_number 191
_symmetry_cell_setting 'hexagonal'
loop_
_space_group_symop_operation_xyz
x,y,z
x-y,x,z
-y,x-y,z
-x,-y,z
-x+y,-x,z
y,-x+y,z
x-y,-y,-z
-x,-x+y,-z
y,x,-z
-y,-x,-z
-x+y,y,-z
x,x-y,-z
-x,-y,-z
-x+y,-x,-z
y,-x+y,-z
x,y,-z
x-y,x,-z
-y,x-y,-z
-x+y,y,z
x,x-y,z
-y,-x,z
y,x,z
x-y,-y,z
-x,-x+y,z
loop_
_atom_site_type_symbol
_atom_site_label
_atom_site_fract_x
_atom_site_fract_y
_atom_site_fract_z
Si Si1 0.753102 0.605201 0.331534
Si Si2 0.150029 0.204986 0.171929
Si Si3 0.421680 0.478626 0.669229
Si Si4 0.236798 0.943883 0.329880
Si Si5 0.666729 0.431942 0.331367
Si Si6 0.481267 0.335070 0.826508
O O1 0.737165 0.590223 0.500000
O O2 0.810306 0.620611 0.307744
O O3 0.745146 0.650743 0.283983
O O4 0.719296 0.558866 0.229176
O O5 0.093600 0.187200 0.219413
O O6 0.162960 0.162960 0.223823
O O7 0.186643 0.257396 0.244601
O O8 0.157234 0.213574 0.000000
O O9 0.405805 0.474336 0.500000
O O10 0.466374 0.533627 0.703188
O O11 0.438466 0.438466 0.705697
O O12 0.375188 0.466926 0.769913
O O13 0.223145 0.938232 0.500000
O O14 0.280074 0.000000 0.291548
O O15 0.669257 0.448273 0.500000
O O16 0.719259 0.438518 0.280748
O O17 0.625287 0.374714 0.309956
O O18 0.652104 0.465103 0.232582
O O19 0.482293 0.335936 0.000000
#
# Coordination Sequence:
#
# PCOD8329214 Si02
#       6
#    24  24  24  24  24  24
#     4  10  21  37  55  74 101 141 185 222 256 302
#     4   9  17  29  46  69  98 132 168 207 254 307
#     4   9  19  38  63  86 107 137 179 222 263 310
#     4   9  18  33  54  79 103 127 162 212 264 310
#     4  10  21  39  63  87 110 139 179 225 269 314
#     4  12  25  37  53  81 115 147 178 215 263 318
#
# _framework density 18.860067000000001
#
# number of rings (size 3 to 8) (size 9 to 14) (size 15 to 20)
#    0.000    2.167    0.000    3.667    0.000    8.667 
#    0.000    2.500    0.000    1.167    0.000    1.167 
#    0.000    0.000    0.000    4.167    0.000    4.333 
#
# Total GULP energy -1785979.242507 kJ/mol
# GULP energy per Si atom -12402.633629 kJ/mol
# Density = 1.881714 g / cm^3
# Si number density = 18.860067 Si / 1000 Ang^3
#
#
#
# Elastic Constant Matrix: (Units=GPa)
#
#
# Indices 1 2 3 4 5 6 
#
# 1 98.2371 40.1498 41.8991 0.0000 0.0000 0.0000
# 2 40.1498 98.2371 41.8991 0.0000 0.0000 0.0000
# 3 41.8991 41.8991 76.7002 0.0000 0.0000 0.0000
# 4 0.0000 0.0000 0.0000 20.7956 0.0000 0.0000
# 5 0.0000 0.0000 0.0000 0.0000 20.7956 0.0000
# 6 0.0000 0.0000 0.0000 0.0000 0.0000 29.0436
#
#
#
# Elastic Compliance Matrix: (Units=1/GPa)
#
#
# Indices 1 2 3 4 5 6 
#
# 1 0.014007 -0.003209 -0.005899 0.000000 0.000000 0.000000
# 2 -0.003209 0.014007 -0.005899 0.000000 0.000000 0.000000
# 3 -0.005899 -0.005899 0.019482 0.000000 0.000000 0.000000
# 4 0.000000 0.000000 0.000000 0.048087 0.000000 0.000000
# 5 0.000000 0.000000 0.000000 0.000000 0.048087 0.000000
# 6 0.000000 0.000000 0.000000 0.000000 0.000000 0.034431
#
#
# Mechanical properties :
#
#
# Convention : Reuss Voigt Hill
#
# Bulk Modulus (GPa) = 57.19612 57.89674 57.54643
# Shear Modulus (GPa) = 23.37098 24.07540 23.72319
#
# Velocity S-wave (km/s) = 3.52402 3.57673 3.55047
# Velocity P-wave (km/s) = 6.85205 6.91535 6.88377
#
# Compressibility (1/GPa) = 0.01748370
#
# Stress axis : x y z
#
# Youngs Moduli (GPa) = 71.39437 71.39437 51.32877
#
# Poissons Ratio (x) = 0.22909 0.30277
# Poissons Ratio (y) = 0.22909 0.30277
# Poissons Ratio (z) = 0.42113 0.42113
#
# Static dielectric constant tensor:
#      x y z
#    x 3.555570 0.000000 0.000000 
#    y 0.000000 3.555570 0.000000 
#    z 0.000000 0.000000 3.325620 
# 
# 
# High freq. dielectric constant tensor:
#      x y z
#    x 1.736340 0.000000 0.000000 
#    y 0.000000 1.736340 0.000000 
#    z 0.000000 0.000000 1.717350 
# 
# From -- ./inp_files/1930.got.cif
#   From: 2010.03.12/outbox.cif.g09.slc.cpg/sg191_1_cif.got.tgz:1930.got - 2010.04.01 12:09:02.
