data_PCOD8329054
_publ_section_title
;
Structure prediction by ZEFSAII (Michael W. Deem and Ramdas Pophale) SiO2 
 PCOD8329054
Probable space group: P 6/M M M
;
_chemical_formula_sum "Si O2"
_cell_formula_units_Z 132
_cell_length_a 17.540210
_cell_length_b 17.540210
_cell_length_c 28.649414
_cell_angle_alpha 90.000000
_cell_angle_beta 90.000000
_cell_angle_gamma 120.000000
_cell_volume 7633.363646
_symmetry_space_group_name_H-M "P 6/M M M"
_symmetry_group_IT_number 191
_symmetry_cell_setting 'hexagonal'
loop_
_space_group_symop_operation_xyz
x,y,z
x-y,x,z
-y,x-y,z
-x,-y,z
-x+y,-x,z
y,-x+y,z
x-y,-y,-z
-x,-x+y,-z
y,x,-z
-y,-x,-z
-x+y,y,-z
x,x-y,-z
-x,-y,-z
-x+y,-x,-z
y,-x+y,-z
x,y,-z
x-y,x,-z
-y,x-y,-z
-x+y,y,z
x,x-y,z
-y,-x,z
y,x,z
x-y,-y,z
-x,-x+y,z
loop_
_atom_site_type_symbol
_atom_site_label
_atom_site_fract_x
_atom_site_fract_y
_atom_site_fract_z
Si Si1 0.271356 0.369650 0.763411
Si Si2 0.510462 0.844470 0.849864
Si Si3 0.665175 0.158176 0.049277
Si Si4 0.467425 0.363569 0.500000
Si Si5 0.510548 0.668125 0.675493
Si Si6 0.630655 0.730301 0.411286
O O1 0.166735 0.333470 0.760100
O O2 0.287757 0.287757 0.755951
O O3 0.310229 0.412218 0.813415
O O4 0.323390 0.444145 0.725042
O O5 0.424747 0.849493 0.834858
O O6 0.484267 0.742134 0.851048
O O7 0.547190 0.890532 0.901158
O O8 0.597127 0.194253 0.052237
O O9 0.762041 0.237959 0.045445
O O10 0.647142 0.102548 0.000000
O O11 0.423819 0.423819 0.500000
O O12 0.573524 0.426477 0.500000
O O13 0.437895 0.303512 0.454050
O O14 0.478872 0.739436 0.670656
O O15 0.428203 0.571798 0.670745
O O16 0.579315 0.681176 0.635262
O O17 0.671308 0.835654 0.406717
O O18 0.710187 0.710187 0.419332
#
# Coordination Sequence:
#
# PCOD8329054 Si02
#       6
#    24  24  24  12  24  24
#     4  10  21  35  50  68  89 115 147 184 227 272
#     4   9  16  25  39  61  90 123 156 187 217 251
#     4   8  12  18  30  50  78 113 152 189 219 246
#     4   9  17  30  49  72  96 122 154 191 231 280
#     4  10  20  33  50  73 101 131 160 189 221 259
#     4  10  20  33  50  72  97 127 163 203 245 285
#
# _framework density 17.292508000000002
#
# number of rings (size 3 to 8) (size 9 to 14) (size 15 to 20)
#    0.000    2.636    0.000    2.455    0.000    5.455 
#    0.000    1.818    0.000    3.455    0.000    2.545 
#    0.000    6.545    0.000    0.000    0.000    0.727 
#
# Total GULP energy -1635415.592554 kJ/mol
# GULP energy per Si atom -12389.512065 kJ/mol
# Density = 1.725315 g / cm^3
# Si number density = 17.292508 Si / 1000 Ang^3
#
#
#
# Elastic Constant Matrix: (Units=GPa)
#
#
# Indices 1 2 3 4 5 6 
#
# 1 72.6456 50.0489 20.4662 0.0000 0.0000 0.0000
# 2 50.0489 72.6456 20.4662 0.0000 0.0000 0.0000
# 3 20.4662 20.4662 115.2060 0.0000 0.0000 0.0000
# 4 0.0000 0.0000 0.0000 9.7735 0.0000 0.0000
# 5 0.0000 0.0000 0.0000 0.0000 9.7735 0.0000
# 6 0.0000 0.0000 0.0000 0.0000 0.0000 11.2984
#
#
#
# Elastic Compliance Matrix: (Units=1/GPa)
#
#
# Indices 1 2 3 4 5 6 
#
# 1 0.026459 -0.017795 -0.001539 0.000000 0.000000 0.000000
# 2 -0.017795 0.026459 -0.001539 0.000000 0.000000 0.000000
# 3 -0.001539 -0.001539 0.009227 0.000000 0.000000 0.000000
# 4 0.000000 0.000000 0.000000 0.102318 0.000000 0.000000
# 5 0.000000 0.000000 0.000000 0.000000 0.102318 0.000000
# 6 0.000000 0.000000 0.000000 0.000000 0.000000 0.088508
#
#
# Mechanical properties :
#
#
# Convention : Reuss Voigt Hill
#
# Bulk Modulus (GPa) = 49.02426 49.16224 49.09325
# Shear Modulus (GPa) = 12.38128 17.47012 14.92570
#
# Velocity S-wave (km/s) = 2.67870 3.18192 2.94110
# Velocity P-wave (km/s) = 6.16270 6.48005 6.32336
#
# Compressibility (1/GPa) = 0.02039807
#
# Stress axis : x y z
#
# Youngs Moduli (GPa) = 37.79432 37.79432 108.37822
#
# Poissons Ratio (x) = 0.67256 0.16681
# Poissons Ratio (y) = 0.67256 0.16681
# Poissons Ratio (z) = 0.05817 0.05817
#
# Static dielectric constant tensor:
#      x y z
#    x 2.921480 0.000000 0.000000 
#    y 0.000000 2.921480 0.000000 
#    z 0.000000 0.000000 3.802710 
# 
# 
# High freq. dielectric constant tensor:
#      x y z
#    x 1.632100 0.000000 0.000000 
#    y 0.000000 1.632100 0.000000 
#    z 0.000000 0.000000 1.702330 
# 
# From -- ./inp_files/9808.got.cif
#   From: 2010.03.12/outbox.cif.g09.slc.cpg/sg191_5_cif.got.tgz:9808.got - 2010.04.01 12:09:02.
