data_PCOD8329932
_publ_section_title
;
Structure prediction by ZEFSAII (Michael W. Deem and Ramdas Pophale) SiO2 
 PCOD8329932
Probable space group: P 63/M C M
;
_chemical_formula_sum "Si O2"
_cell_formula_units_Z 104
_cell_length_a 19.400722
_cell_length_b 19.400722
_cell_length_c 18.417266
_cell_angle_alpha 90.000000
_cell_angle_beta 90.000000
_cell_angle_gamma 120.000000
_cell_volume 6003.321160
_symmetry_space_group_name_H-M "P 63/M C M"
_symmetry_group_IT_number 193
_symmetry_cell_setting 'hexagonal'
loop_
_space_group_symop_operation_xyz
x,y,z
x-y,x,1/2+z
-y,x-y,z
-x,-y,1/2+z
-x+y,-x,z
y,-x+y,1/2+z
x-y,-y,1/2-z
-x,-x+y,1/2-z
y,x,1/2-z
-y,-x,-z
-x+y,y,-z
x,x-y,-z
-x,-y,-z
-x+y,-x,1/2-z
y,-x+y,-z
x,y,1/2-z
x-y,x,-z
-y,x-y,1/2-z
-x+y,y,1/2+z
x,x-y,1/2+z
-y,-x,1/2+z
y,x,z
x-y,-y,z
-x,-x+y,z
loop_
_atom_site_type_symbol
_atom_site_label
_atom_site_fract_x
_atom_site_fract_y
_atom_site_fract_z
Si Si1 0.696149 0.602766 0.672121
Si Si2 0.906323 0.242924 0.524657
Si Si3 0.666667 0.333334 0.912750
Si Si4 0.518402 0.907507 0.949839
Si Si5 0.402359 0.580700 0.333686
O O1 0.740073 0.613719 0.750000
O O2 0.645632 0.645632 0.672280
O O3 0.760344 0.641468 0.608593
O O4 0.630395 0.512124 0.659508
O O5 0.848355 0.151646 0.500000
O O6 0.886189 0.304811 0.484777
O O7 0.000000 0.269812 0.514404
O O8 0.745363 0.338822 0.879037
O O9 0.666668 0.333334 0.000000
O O10 0.488246 0.860443 0.873541
O O11 0.559984 0.000000 0.933173
O O12 0.440270 0.880539 0.000000
O O13 0.411593 0.609913 0.250000
#
# Coordination Sequence:
#
# PCOD8329932 Si02
#       5
#    24  24   8  24  24
#     4   9  18  33  55  79 100 131 174 219 266 315
#     4  10  21  36  57  81 108 139 178 222 270 326
#     4  12  28  38  46  66  97 140 187 231 271 311
#     4  10  19  32  51  77 104 136 176 216 260 314
#     4  11  22  35  49  68 101 139 180 227 269 310
#
# _framework density 17.323744999999999
#
# number of rings (size 3 to 8) (size 9 to 14) (size 15 to 20)
#    0.000    1.846    2.308    2.077    3.231    1.385 
#    0.000    0.000    0.000    2.308    0.000    0.000 
#    0.000    0.000    0.000    0.000    0.000    0.231 
#
# Total GULP energy -1288837.224078 kJ/mol
# GULP energy per Si atom -12392.665616 kJ/mol
# Density = 1.728432 g / cm^3
# Si number density = 17.323745 Si / 1000 Ang^3
#
#
#
# Elastic Constant Matrix: (Units=GPa)
#
#
# Indices 1 2 3 4 5 6 
#
# 1 32.1004 48.2991 43.3407 0.0000 -0.0001 0.0003
# 2 48.2991 32.1011 43.3414 -0.0002 0.0001 0.0000
# 3 43.3407 43.3414 148.1221 0.0000 0.0001 -0.0001
# 4 0.0000 -0.0002 0.0000 21.3935 0.0000 -0.0001
# 5 -0.0001 0.0001 0.0001 0.0000 21.3935 -0.0001
# 6 0.0003 0.0000 -0.0001 -0.0001 -0.0001 -8.0986
#
#
#
# Elastic Compliance Matrix: (Units=1/GPa)
#
#
# Indices 1 2 3 4 5 6 
#
# 1 -0.021783 0.039952 -0.005317 0.000000 0.000000 -0.000001
# 2 0.039952 -0.021782 -0.005316 0.000000 0.000000 0.000001
# 3 -0.005317 -0.005316 0.009862 0.000000 0.000000 0.000000
# 4 0.000000 0.000000 0.000000 0.046743 0.000000 -0.000001
# 5 0.000000 0.000000 0.000000 0.000000 0.046743 -0.000001
# 6 -0.000001 0.000001 0.000000 -0.000001 -0.000001 -0.123478
#
#
# Mechanical properties :
#
#
# Convention : Reuss Voigt Hill
#
# Bulk Modulus (GPa) = 40.10286 53.58734 46.84510
# Shear Modulus (GPa) = -43.85194 12.09384 -15.87905
#
# Velocity S-wave (km/s) = -5.03668 2.64504 -3.03083
# Velocity P-wave (km/s) = 3.25958 6.35046 3.85379
#
# Compressibility (1/GPa) = 0.02493588
#
# Stress axis : x y z
#
# Youngs Moduli (GPa) = -45.90815 -45.90904 101.39453
#
# Poissons Ratio (x) = 1.83417 0.53908
# Poissons Ratio (y) = 1.83413 0.53906
# Poissons Ratio (z) = -0.24408 -0.24407
#
# Static dielectric constant tensor:
#      x y z
#    x 3.015650 0.000000 0.000000 
#    y 0.000000 3.015650 0.000000 
#    z 0.000000 0.000000 6.009550 
# 
# 
# High freq. dielectric constant tensor:
#      x y z
#    x 1.642820 0.000000 0.000000 
#    y 0.000000 1.642820 0.000000 
#    z 0.000000 0.000000 1.688640 
# 
# From -- ./inp_files/6311.got.cif
#   From: 2010.03.12/outbox.cif.g09.slc.cpg/sg193_4_cif.got.tgz:6311.got - 2010.04.01 12:20:39.
