data_PCOD8329541
_publ_section_title
;
Structure prediction by ZEFSAII (Michael W. Deem and Ramdas Pophale) SiO2 
 PCOD8329541
Probable space group: P 6/M C C
;
_chemical_formula_sum "Si O2"
_cell_formula_units_Z 104
_cell_length_a 20.588559
_cell_length_b 20.588559
_cell_length_c 15.327708
_cell_angle_alpha 90.000000
_cell_angle_beta 90.000000
_cell_angle_gamma 120.000000
_cell_volume 5626.777634
_symmetry_space_group_name_H-M "P 6/M C C"
_symmetry_group_IT_number 192
_symmetry_cell_setting 'hexagonal'
loop_
_space_group_symop_operation_xyz
x,y,z
x-y,x,z
-y,x-y,z
-x,-y,z
-x+y,-x,z
y,-x+y,z
x-y,-y,1/2-z
-x,-x+y,1/2-z
y,x,1/2-z
-y,-x,1/2-z
-x+y,y,1/2-z
x,x-y,1/2-z
-x,-y,-z
-x+y,-x,-z
y,-x+y,-z
x,y,-z
x-y,x,-z
-y,x-y,-z
-x+y,y,1/2+z
x,x-y,1/2+z
-y,-x,1/2+z
y,x,1/2+z
x-y,-y,1/2+z
-x,-x+y,1/2+z
loop_
_atom_site_type_symbol
_atom_site_label
_atom_site_fract_x
_atom_site_fract_y
_atom_site_fract_z
Si Si1 0.429664 0.141005 0.901636
Si Si2 0.916796 0.684782 0.750000
Si Si3 0.333334 0.666667 0.146093
Si Si4 0.417254 0.834507 0.353257
Si Si5 0.141004 0.429663 0.901636
O O1 0.363290 0.090751 0.835754
O O2 0.497773 0.124644 0.887972
O O3 0.457661 0.228831 0.882696
O O4 0.398823 0.118608 0.000000
O O5 0.856452 0.712904 0.750000
O O6 0.909250 0.636711 0.835755
O O7 0.000000 0.757178 0.750000
O O8 0.333334 0.666667 0.250000
O O9 0.249463 0.624729 0.109064
O O10 0.417859 0.835717 0.250000
O O11 0.502228 0.875358 0.387971
O O12 0.118606 0.398822 0.000000
#
# Coordination Sequence:
#
# PCOD8329541 Si02
#       5
#    24  24   8  24  24
#     4  10  20  33  51  77 110 148 190 233 272 310
#     4  10  22  41  63  84 107 135 169 211 262 326
#     4   9  18  21  43  71 103 148 197 253 283 311
#     4  11  17  29  47  73 110 151 197 245 286 307
#     4  10  20  33  51  77 110 148 190 233 272 310
#
# _framework density 18.483048
#
# number of rings (size 3 to 8) (size 9 to 14) (size 15 to 20)
#    0.000    1.846    4.615    0.692    0.000    0.923 
#    0.000    2.308    0.000    3.000    0.000    0.000 
#    0.000    0.000    0.000   11.538    0.000    0.000 
#
# Total GULP energy -1289617.721031 kJ/mol
# GULP energy per Si atom -12400.170395 kJ/mol
# Density = 1.844098 g / cm^3
# Si number density = 18.483048 Si / 1000 Ang^3
#
#
#
# Elastic Constant Matrix: (Units=GPa)
#
#
# Indices 1 2 3 4 5 6 
#
# 1 86.8168 54.5977 32.7582 0.0000 0.0000 -0.0001
# 2 54.5977 86.8170 32.7582 0.0000 0.0000 0.0000
# 3 32.7582 32.7582 121.7376 0.0000 0.0000 0.0000
# 4 0.0000 0.0000 0.0000 11.2614 0.0000 0.0000
# 5 0.0000 0.0000 0.0000 0.0000 11.2613 0.0000
# 6 -0.0001 0.0000 0.0000 0.0000 0.0000 16.1095
#
#
#
# Elastic Compliance Matrix: (Units=1/GPa)
#
#
# Indices 1 2 3 4 5 6 
#
# 1 0.019558 -0.011479 -0.002174 0.000000 0.000000 0.000000
# 2 -0.011479 0.019558 -0.002174 0.000000 0.000000 0.000000
# 3 -0.002174 -0.002174 0.009384 0.000000 0.000000 0.000000
# 4 0.000000 0.000000 0.000000 0.088799 0.000000 0.000000
# 5 0.000000 0.000000 0.000000 0.000000 0.088799 0.000000
# 6 0.000000 0.000000 0.000000 0.000000 0.000000 0.062075
#
#
# Mechanical properties :
#
#
# Convention : Reuss Voigt Hill
#
# Bulk Modulus (GPa) = 59.36127 59.51106 59.43616
# Shear Modulus (GPa) = 15.36365 19.41026 17.38695
#
# Velocity S-wave (km/s) = 2.88623 3.24414 3.07041
# Velocity P-wave (km/s) = 6.57977 6.80442 6.69304
#
# Compressibility (1/GPa) = 0.01684600
#
# Stress axis : x y z
#
# Youngs Moduli (GPa) = 51.13002 51.13016 106.56096
#
# Poissons Ratio (x) = 0.58694 0.23165
# Poissons Ratio (y) = 0.58694 0.23165
# Poissons Ratio (z) = 0.11115 0.11115
#
# Static dielectric constant tensor:
#      x y z
#    x 3.055370 0.000000 0.000000 
#    y 0.000000 3.055370 0.000000 
#    z 0.000000 0.000000 3.473730 
# 
# 
# High freq. dielectric constant tensor:
#      x y z
#    x 1.678170 0.000000 0.000000 
#    y 0.000000 1.678170 0.000000 
#    z 0.000000 0.000000 1.733770 
# 
# From -- ./inp_files/2847.got.cif
#   From: 2010.03.12/outbox.cif.g09.slc.cpg/sg192_2_cif.got.tgz:2847.got - 2010.04.01 12:16:15.
