data_PCOD8329012
_publ_section_title
;
Structure prediction by ZEFSAII (Michael W. Deem and Ramdas Pophale) SiO2 
 PCOD8329012
Probable space group: P 6/M M M
;
_chemical_formula_sum "Si O2"
_cell_formula_units_Z 132
_cell_length_a 17.717464
_cell_length_b 17.717464
_cell_length_c 28.186677
_cell_angle_alpha 90.000000
_cell_angle_beta 90.000000
_cell_angle_gamma 120.000000
_cell_volume 7662.625993
_symmetry_space_group_name_H-M "P 6/M M M"
_symmetry_group_IT_number 191
_symmetry_cell_setting 'hexagonal'
loop_
_space_group_symop_operation_xyz
x,y,z
x-y,x,z
-y,x-y,z
-x,-y,z
-x+y,-x,z
y,-x+y,z
x-y,-y,-z
-x,-x+y,-z
y,x,-z
-y,-x,-z
-x+y,y,-z
x,x-y,-z
-x,-y,-z
-x+y,-x,-z
y,-x+y,-z
x,y,-z
x-y,x,-z
-y,x-y,-z
-x+y,y,z
x,x-y,z
-y,-x,z
y,x,z
x-y,-y,z
-x,-x+y,z
loop_
_atom_site_type_symbol
_atom_site_label
_atom_site_fract_x
_atom_site_fract_y
_atom_site_fract_z
Si Si1 0.897190 0.532430 0.775341
Si Si2 0.839641 0.333335 0.945956
Si Si3 0.334425 0.497654 0.500000
Si Si4 0.665010 0.508268 0.397304
Si Si5 0.098441 0.365701 0.863560
Si Si6 0.901443 0.633816 0.312982
O O1 0.854591 0.427296 0.775223
O O2 0.867544 0.562040 0.822207
O O3 0.866906 0.562744 0.728988
O O4 0.000000 0.575565 0.774952
O O5 0.852149 0.426075 0.930993
O O6 0.738489 0.261512 0.939354
O O7 0.899897 0.311857 0.912870
O O8 0.869870 0.335090 0.000000
O O9 0.397671 0.602330 0.500000
O O10 0.235482 0.470964 0.500000
O O11 0.349924 0.461667 0.449996
O O12 0.743312 0.486624 0.398493
O O13 0.577766 0.422235 0.380215
O O14 0.685775 0.586152 0.361549
O O15 0.162812 0.325623 0.865522
O O16 0.000000 0.287386 0.854360
O O17 0.836756 0.673511 0.315947
O O18 0.000000 0.712338 0.303936
#
# Coordination Sequence:
#
# PCOD8329012 Si02
#       6
#    24  24  12  24  24  24
#     4   9  17  30  49  72  96 120 145 173 208 256
#     4   9  17  29  46  69  97 127 156 186 223 270
#     4   8  13  22  37  59  88 121 154 184 215 254
#     4   9  16  26  42  65  93 124 155 185 217 257
#     4  10  20  33  49  69  93 122 157 197 239 279
#     4  10  20  33  49  68  90 118 152 191 234 276
#
# _framework density 17.226471
#
# number of rings (size 3 to 8) (size 9 to 14) (size 15 to 20)
#    0.000    2.727    0.000    2.091    0.000    4.727 
#    0.000    1.364    0.000    7.091    0.000    0.000 
#    0.000    4.364    0.000    4.545    0.000   10.727 
#
# Total GULP energy -1635929.073050 kJ/mol
# GULP energy per Si atom -12393.402069 kJ/mol
# Density = 1.718726 g / cm^3
# Si number density = 17.226471 Si / 1000 Ang^3
#
#
#
# Elastic Constant Matrix: (Units=GPa)
#
#
# Indices 1 2 3 4 5 6 
#
# 1 74.0218 44.6290 30.4648 0.0000 0.0000 0.0000
# 2 44.6290 74.0218 30.4648 0.0000 0.0000 0.0000
# 3 30.4648 30.4648 106.5042 0.0000 0.0000 0.0000
# 4 0.0000 0.0000 0.0000 18.6510 0.0000 0.0000
# 5 0.0000 0.0000 0.0000 0.0000 18.6510 0.0000
# 6 0.0000 0.0000 0.0000 0.0000 0.0000 14.6964
#
#
#
# Elastic Compliance Matrix: (Units=1/GPa)
#
#
# Indices 1 2 3 4 5 6 
#
# 1 0.021951 -0.012071 -0.002826 0.000000 0.000000 0.000000
# 2 -0.012071 0.021951 -0.002826 0.000000 0.000000 0.000000
# 3 -0.002826 -0.002826 0.011006 0.000000 0.000000 0.000000
# 4 0.000000 0.000000 0.000000 0.053616 0.000000 0.000000
# 5 0.000000 0.000000 0.000000 0.000000 0.053616 0.000000
# 6 0.000000 0.000000 0.000000 0.000000 0.000000 0.068044
#
#
# Mechanical properties :
#
#
# Convention : Reuss Voigt Hill
#
# Bulk Modulus (GPa) = 51.38511 51.74054 51.56283
# Shear Modulus (GPa) = 18.37447 20.33231 19.35339
#
# Velocity S-wave (km/s) = 3.26949 3.43927 3.35545
# Velocity P-wave (km/s) = 6.64430 6.77290 6.70890
#
# Compressibility (1/GPa) = 0.01946089
#
# Stress axis : x y z
#
# Youngs Moduli (GPa) = 45.55697 45.55697 90.85991
#
# Poissons Ratio (x) = 0.54993 0.25676
# Poissons Ratio (y) = 0.54993 0.25676
# Poissons Ratio (z) = 0.12874 0.12874
#
# Static dielectric constant tensor:
#      x y z
#    x 2.929180 0.000000 0.000000 
#    y 0.000000 2.929180 0.000000 
#    z 0.000000 0.000000 3.580080 
# 
# 
# High freq. dielectric constant tensor:
#      x y z
#    x 1.633520 0.000000 0.000000 
#    y 0.000000 1.633520 0.000000 
#    z 0.000000 0.000000 1.688960 
# 
# From -- ./inp_files/9699.got.cif
#   From: 2010.03.12/outbox.cif.g09.slc.cpg/sg191_5_cif.got.tgz:9699.got - 2010.04.01 12:09:02.
