data_PCOD8329638
_publ_section_title
;
Structure prediction by ZEFSAII (Michael W. Deem and Ramdas Pophale) SiO2 
 PCOD8329638
Probable space group: P 6/M C C
;
_chemical_formula_sum "Si O2"
_cell_formula_units_Z 132
_cell_length_a 23.209867
_cell_length_b 23.209867
_cell_length_c 14.145423
_cell_angle_alpha 90.000000
_cell_angle_beta 90.000000
_cell_angle_gamma 120.000000
_cell_volume 6599.208870
_symmetry_space_group_name_H-M "P 6/M C C"
_symmetry_group_IT_number 192
_symmetry_cell_setting 'hexagonal'
loop_
_space_group_symop_operation_xyz
x,y,z
x-y,x,z
-y,x-y,z
-x,-y,z
-x+y,-x,z
y,-x+y,z
x-y,-y,1/2-z
-x,-x+y,1/2-z
y,x,1/2-z
-y,-x,1/2-z
-x+y,y,1/2-z
x,x-y,1/2-z
-x,-y,-z
-x+y,-x,-z
y,-x+y,-z
x,y,-z
x-y,x,-z
-y,x-y,-z
-x+y,y,1/2+z
x,x-y,1/2+z
-y,-x,1/2+z
y,x,1/2+z
x-y,-y,1/2+z
-x,-x+y,1/2+z
loop_
_atom_site_type_symbol
_atom_site_label
_atom_site_fract_x
_atom_site_fract_y
_atom_site_fract_z
Si Si1 0.931498 0.627749 0.774764
Si Si2 0.861123 0.000000 0.750000
Si Si3 0.350556 0.832084 0.758040
Si Si4 0.058175 0.256484 0.108166
Si Si5 0.749101 0.243859 0.607855
Si Si6 0.348836 0.206898 0.393877
O O1 0.887133 0.551082 0.802296
O O2 0.948237 0.680897 0.858026
O O3 0.906715 0.651842 0.684759
O O4 0.000000 0.630999 0.750000
O O5 0.869462 0.934731 0.750000
O O6 0.813177 0.989702 0.660868
O O7 0.428041 0.856082 0.750000
O O8 0.320775 0.811850 0.652464
O O9 0.311732 0.772325 0.833468
O O10 0.136640 0.281302 0.120456
O O11 0.035398 0.242238 0.000000
O O12 0.737956 0.256173 0.500000
O O13 0.800645 0.215502 0.619802
O O14 0.351226 0.234681 0.500000
#
# Coordination Sequence:
#
# PCOD8329638 Si02
#       6
#    24  12  24  24  24  24
#     4  11  21  36  58  89 128 160 200 256 312 367
#     4  12  27  48  68  94 133 172 208 246 306 380
#     4  10  21  36  57  85 123 166 212 255 312 386
#     4  11  23  40  66  96 121 157 208 262 312 363
#     4   9  18  36  60  83 113 159 211 265 320 371
#     4   9  18  36  63  91 118 153 202 261 318 365
#
# _framework density 20.002397999999999
#
# number of rings (size 3 to 8) (size 9 to 14) (size 15 to 20)
#    0.000    1.818    2.727    1.727    0.000    2.545 
#    4.364    0.000    0.000    1.091    0.000    7.636 
#    0.000    0.000    0.000    0.000    0.000    0.000 
#
# Total GULP energy -1635388.527925 kJ/mol
# GULP energy per Si atom -12389.307030 kJ/mol
# Density = 1.995687 g / cm^3
# Si number density = 20.002398 Si / 1000 Ang^3
#
#
#
# Elastic Constant Matrix: (Units=GPa)
#
#
# Indices 1 2 3 4 5 6 
#
# 1 108.9282 46.3973 39.4513 0.0000 0.0000 0.0000
# 2 46.3973 108.9282 39.4513 0.0000 0.0000 0.0000
# 3 39.4513 39.4513 134.2541 0.0000 0.0000 0.0000
# 4 0.0000 0.0000 0.0000 13.4648 0.0000 0.0000
# 5 0.0000 0.0000 0.0000 0.0000 13.4648 0.0000
# 6 0.0000 0.0000 0.0000 0.0000 0.0000 31.2654
#
#
#
# Elastic Compliance Matrix: (Units=1/GPa)
#
#
# Indices 1 2 3 4 5 6 
#
# 1 0.011780 -0.004212 -0.002224 0.000000 0.000000 0.000000
# 2 -0.004212 0.011780 -0.002224 0.000000 0.000000 0.000000
# 3 -0.002224 -0.002224 0.008756 0.000000 0.000000 0.000000
# 4 0.000000 0.000000 0.000000 0.074268 0.000000 0.000000
# 5 0.000000 0.000000 0.000000 0.000000 0.074268 0.000000
# 6 0.000000 0.000000 0.000000 0.000000 0.000000 0.031984
#
#
# Mechanical properties :
#
#
# Convention : Reuss Voigt Hill
#
# Bulk Modulus (GPa) = 66.68561 66.96780 66.82671
# Shear Modulus (GPa) = 21.26269 26.75971 24.01120
#
# Velocity S-wave (km/s) = 3.26392 3.66160 3.46846
# Velocity P-wave (km/s) = 6.90039 7.17140 7.03720
#
# Compressibility (1/GPa) = 0.01499574
#
# Stress axis : x y z
#
# Youngs Moduli (GPa) = 84.89019 84.89019 114.21363
#
# Poissons Ratio (x) = 0.35757 0.25399
# Poissons Ratio (y) = 0.35757 0.25399
# Poissons Ratio (z) = 0.18878 0.18878
#
# Static dielectric constant tensor:
#      x y z
#    x 3.537260 0.000000 0.000000 
#    y 0.000000 3.537260 0.000000 
#    z 0.000000 0.000000 3.692950 
# 
# 
# High freq. dielectric constant tensor:
#      x y z
#    x 1.764900 0.000000 0.000000 
#    y 0.000000 1.764900 0.000000 
#    z 0.000000 0.000000 1.784820 
# 
# From -- ./inp_files/3213.got.cif
#   From: 2010.03.12/outbox.cif.g09.slc.cpg/sg192_2_cif.got.tgz:3213.got - 2010.04.01 12:16:15.
