data_PCOD8329754
_publ_section_title
;
Structure prediction by ZEFSAII (Michael W. Deem and Ramdas Pophale) SiO2 
 PCOD8329754
Probable space group: P 63/M C M
;
_chemical_formula_sum "Si O2"
_cell_formula_units_Z 84
_cell_length_a 19.640406
_cell_length_b 19.640406
_cell_length_c 13.418697
_cell_angle_alpha 90.000000
_cell_angle_beta 90.000000
_cell_angle_gamma 120.000000
_cell_volume 4482.722969
_symmetry_space_group_name_H-M "P 63/M C M"
_symmetry_group_IT_number 193
_symmetry_cell_setting 'hexagonal'
loop_
_space_group_symop_operation_xyz
x,y,z
x-y,x,1/2+z
-y,x-y,z
-x,-y,1/2+z
-x+y,-x,z
y,-x+y,1/2+z
x-y,-y,1/2-z
-x,-x+y,1/2-z
y,x,1/2-z
-y,-x,-z
-x+y,y,-z
x,x-y,-z
-x,-y,-z
-x+y,-x,1/2-z
y,-x+y,-z
x,y,1/2-z
x-y,x,-z
-y,x-y,1/2-z
-x+y,y,1/2+z
x,x-y,1/2+z
-y,-x,1/2+z
y,x,z
x-y,-y,z
-x,-x+y,z
loop_
_atom_site_type_symbol
_atom_site_label
_atom_site_fract_x
_atom_site_fract_y
_atom_site_fract_z
Si Si1 0.445460 0.329452 0.137718
Si Si2 0.675369 0.912710 0.984162
Si Si3 0.572771 0.145542 0.500000
Si Si4 0.808200 0.287593 0.137263
O O1 0.436616 0.352218 0.250000
O O2 0.487481 0.276995 0.133180
O O3 0.359530 0.281227 0.089240
O O4 0.499789 0.408346 0.073580
O O5 0.605558 0.874376 0.903352
O O6 0.742496 0.000000 0.949538
O O7 0.713347 0.856674 0.000000
O O8 0.549680 0.197845 0.430196
O O9 0.831014 0.318823 0.250000
#
# Coordination Sequence:
#
# PCOD8329754 Si02
#       4
#    24  24  12  24
#     4   9  18  32  47  66  96 133 171 209 247 288
#     4   9  18  33  54  77  98 124 158 198 240 289
#     4  10  16  28  47  66  92 126 166 210 252 284
#     4   9  18  32  47  66  96 133 171 209 247 288
#
# _framework density 18.738610999999999
#
# number of rings (size 3 to 8) (size 9 to 14) (size 15 to 20)
#    0.000    2.857    0.000    3.429    0.000    1.143 
#    6.857   11.429    0.000   14.000    0.000    0.000 
#    0.000    0.000    0.000   14.286    0.000    0.000 
#
# Total GULP energy -1040926.916440 kJ/mol
# GULP energy per Si atom -12391.987100 kJ/mol
# Density = 1.869596 g / cm^3
# Si number density = 18.738611 Si / 1000 Ang^3
#
#
#
# Elastic Constant Matrix: (Units=GPa)
#
#
# Indices 1 2 3 4 5 6 
#
# 1 72.0696 62.0768 29.1217 0.0000 0.0000 0.0000
# 2 62.0768 72.0696 29.1217 0.0000 0.0000 0.0000
# 3 29.1217 29.1217 139.6820 0.0000 0.0000 0.0000
# 4 0.0000 0.0000 0.0000 8.8394 0.0000 0.0000
# 5 0.0000 0.0000 0.0000 0.0000 8.8394 0.0000
# 6 0.0000 0.0000 0.0000 0.0000 0.0000 4.9964
#
#
#
# Elastic Compliance Matrix: (Units=1/GPa)
#
#
# Indices 1 2 3 4 5 6 
#
# 1 0.054134 -0.045938 -0.001709 0.000000 0.000000 0.000000
# 2 -0.045938 0.054134 -0.001709 0.000000 0.000000 0.000000
# 3 -0.001709 -0.001709 0.007872 0.000000 0.000000 0.000000
# 4 0.000000 0.000000 0.000000 0.113130 0.000000 0.000000
# 5 0.000000 0.000000 0.000000 0.000000 0.113130 0.000000
# 6 0.000000 0.000000 0.000000 0.000000 0.000000 0.200144
#
#
# Mechanical properties :
#
#
# Convention : Reuss Voigt Hill
#
# Bulk Modulus (GPa) = 57.37489 58.27353 57.82421
# Shear Modulus (GPa) = 7.72720 15.43510 11.58115
#
# Velocity S-wave (km/s) = 2.03289 2.87314 2.48873
# Velocity P-wave (km/s) = 6.01624 6.49401 6.25969
#
# Compressibility (1/GPa) = 0.01742923
#
# Stress axis : x y z
#
# Youngs Moduli (GPa) = 18.47257 18.47257 127.03801
#
# Poissons Ratio (x) = 0.84859 0.21709
# Poissons Ratio (y) = 0.84859 0.21709
# Poissons Ratio (z) = 0.03157 0.03157
#
# Static dielectric constant tensor:
#      x y z
#    x 3.176730 0.000000 0.000000 
#    y 0.000000 3.176730 0.000000 
#    z 0.000000 0.000000 3.814120 
# 
# 
# High freq. dielectric constant tensor:
#      x y z
#    x 1.695460 0.000000 0.000000 
#    y 0.000000 1.695460 0.000000 
#    z 0.000000 0.000000 1.744690 
# 
# From -- ./inp_files/3309.got.cif
#   From: 2010.03.12/outbox.cif.g09.slc.cpg/sg193_2_cif.got.tgz:3309.got - 2010.04.01 12:20:39.
