data_PCOD8329287
_publ_section_title
;
Structure prediction by ZEFSAII (Michael W. Deem and Ramdas Pophale) SiO2 
 PCOD8329287
Probable space group: P 6/M M M
;
_chemical_formula_sum "Si O2"
_cell_formula_units_Z 168
_cell_length_a 23.260123
_cell_length_b 23.260123
_cell_length_c 23.992760
_cell_angle_alpha 90.000000
_cell_angle_beta 90.000000
_cell_angle_gamma 120.000000
_cell_volume 11241.774135
_symmetry_space_group_name_H-M "P 6/M M M"
_symmetry_group_IT_number 191
_symmetry_cell_setting 'hexagonal'
loop_
_space_group_symop_operation_xyz
x,y,z
x-y,x,z
-y,x-y,z
-x,-y,z
-x+y,-x,z
y,-x+y,z
x-y,-y,-z
-x,-x+y,-z
y,x,-z
-y,-x,-z
-x+y,y,-z
x,x-y,-z
-x,-y,-z
-x+y,-x,-z
y,-x+y,-z
x,y,-z
x-y,x,-z
-y,x-y,-z
-x+y,y,z
x,x-y,z
-y,-x,z
y,x,z
x-y,-y,z
-x,-x+y,z
loop_
_atom_site_type_symbol
_atom_site_label
_atom_site_fract_x
_atom_site_fract_y
_atom_site_fract_z
Si Si1 0.920675 0.395344 0.849248
Si Si2 0.199320 0.926221 0.437130
Si Si3 0.380489 0.302553 0.764474
Si Si4 0.475660 0.079026 0.438144
Si Si5 0.792304 0.077466 0.853727
Si Si6 0.306573 0.921803 0.061735
Si Si7 0.621943 0.701030 0.640557
O O1 0.891786 0.445893 0.847949
O O2 0.894495 0.345738 0.795941
O O3 0.894847 0.348644 0.904306
O O4 0.000000 0.436525 0.849095
O O5 0.224236 0.924433 0.500000
O O6 0.120192 0.879809 0.432479
O O7 0.232402 0.898695 0.394139
O O8 0.215964 0.000000 0.421219
O O9 0.349320 0.349320 0.758948
O O10 0.330003 0.236974 0.798522
O O11 0.391597 0.281860 0.702842
O O12 0.471106 0.104344 0.500000
O O13 0.551784 0.103568 0.422849
O O14 0.447988 0.108676 0.391665
O O15 0.433305 0.000000 0.437744
O O16 0.872280 0.127721 0.854580
O O17 0.760990 0.094276 0.906909
O O18 0.774243 0.000000 0.854668
O O19 0.352037 0.000000 0.057069
O O20 0.289427 0.889384 0.000000
O O21 0.658659 0.658659 0.642555
#
# Coordination Sequence:
#
# PCOD8329287 Si02
#       7
#    24  24  24  24  24  24  24
#     4   8  13  21  33  50  75 106 133 153 173 199
#     4   9  17  28  41  56  73  94 123 163 212 264
#     4   8  15  25  35  51  74  98 126 158 190 228
#     4   8  13  20  30  47  72 100 128 154 176 200
#     4   9  17  29  43  57  75 100 130 167 213 264
#     4   8  14  24  37  55  78 101 127 158 189 224
#     4   9  15  23  36  52  71  97 127 156 187 227
#
# _framework density 14.94426
#
# number of rings (size 3 to 8) (size 9 to 14) (size 15 to 20)
#    0.000    3.571    0.000    2.571    0.000    3.429 
#    0.000    4.286    0.000    0.286    0.000    1.000 
#    0.000    0.000    0.000   38.571    0.000   74.143 
#
# Total GULP energy -2081231.429520 kJ/mol
# GULP energy per Si atom -12388.282319 kJ/mol
# Density = 1.491025 g / cm^3
# Si number density = 14.944260 Si / 1000 Ang^3
#
#
#
# Elastic Constant Matrix: (Units=GPa)
#
#
# Indices 1 2 3 4 5 6 
#
# 1 60.9547 35.4268 36.3707 0.0000 0.0000 0.0000
# 2 35.4268 60.9547 36.3707 0.0000 0.0000 0.0000
# 3 36.3707 36.3707 126.2352 0.0000 0.0000 0.0000
# 4 0.0000 0.0000 0.0000 8.9328 0.0000 0.0000
# 5 0.0000 0.0000 0.0000 0.0000 8.9328 0.0000
# 6 0.0000 0.0000 0.0000 0.0000 0.0000 12.7639
#
#
#
# Elastic Compliance Matrix: (Units=1/GPa)
#
#
# Indices 1 2 3 4 5 6 
#
# 1 0.026216 -0.012957 -0.003820 0.000000 0.000000 0.000000
# 2 -0.012957 0.026216 -0.003820 0.000000 0.000000 0.000000
# 3 -0.003820 -0.003820 0.010123 0.000000 0.000000 0.000000
# 4 0.000000 0.000000 0.000000 0.111947 0.000000 0.000000
# 5 0.000000 0.000000 0.000000 0.000000 0.111947 0.000000
# 6 0.000000 0.000000 0.000000 0.000000 0.000000 0.078346
#
#
# Mechanical properties :
#
#
# Convention : Reuss Voigt Hill
#
# Bulk Modulus (GPa) = 46.81677 51.60902 49.21289
# Shear Modulus (GPa) = 12.10332 15.45763 13.78048
#
# Velocity S-wave (km/s) = 2.84896 3.21962 3.03995
# Velocity P-wave (km/s) = 6.49751 6.95921 6.73232
#
# Compressibility (1/GPa) = 0.02135987
#
# Stress axis : x y z
#
# Youngs Moduli (GPa) = 38.14502 38.14502 98.78527
#
# Poissons Ratio (x) = 0.49425 0.37736
# Poissons Ratio (y) = 0.49425 0.37736
# Poissons Ratio (z) = 0.14571 0.14571
#
# Static dielectric constant tensor:
#      x y z
#    x 2.582100 0.000000 0.000000 
#    y 0.000000 2.582100 0.000000 
#    z 0.000000 0.000000 3.422200 
# 
# 
# High freq. dielectric constant tensor:
#      x y z
#    x 1.528610 0.000000 0.000000 
#    y 0.000000 1.528610 0.000000 
#    z 0.000000 0.000000 1.586240 
# 
# From -- ./inp_files/9170.got.cif
#   From: 2010.03.12/outbox.cif.g09.slc.cpg/sg191_5_cif.got.tgz:9170.got - 2010.04.01 12:09:02.
