data_PCOD8329798
_publ_section_title
;
Structure prediction by ZEFSAII (Michael W. Deem and Ramdas Pophale) SiO2 
 PCOD8329798
Probable space group: P 63/M C M
;
_chemical_formula_sum "Si O2"
_cell_formula_units_Z 104
_cell_length_a 20.813344
_cell_length_b 20.813344
_cell_length_c 14.994194
_cell_angle_alpha 90.000000
_cell_angle_beta 90.000000
_cell_angle_gamma 120.000000
_cell_volume 5625.193701
_symmetry_space_group_name_H-M "P 63/M C M"
_symmetry_group_IT_number 193
_symmetry_cell_setting 'hexagonal'
loop_
_space_group_symop_operation_xyz
x,y,z
x-y,x,1/2+z
-y,x-y,z
-x,-y,1/2+z
-x+y,-x,z
y,-x+y,1/2+z
x-y,-y,1/2-z
-x,-x+y,1/2-z
y,x,1/2-z
-y,-x,-z
-x+y,y,-z
x,x-y,-z
-x,-y,-z
-x+y,-x,1/2-z
y,-x+y,-z
x,y,1/2-z
x-y,x,-z
-y,x-y,1/2-z
-x+y,y,1/2+z
x,x-y,1/2+z
-y,-x,1/2+z
y,x,z
x-y,-y,z
-x,-x+y,z
loop_
_atom_site_type_symbol
_atom_site_label
_atom_site_fract_x
_atom_site_fract_y
_atom_site_fract_z
Si Si1 0.291002 0.429649 0.146710
Si Si2 0.567533 0.856075 0.646570
Si Si3 0.581623 0.416977 0.148614
Si Si4 0.333333 0.666667 0.394730
Si Si5 0.311871 0.229514 0.501274
O O1 0.296297 0.410640 0.250000
O O2 0.229348 0.454278 0.135054
O O3 0.369534 0.497788 0.110095
O O4 0.269492 0.358050 0.087431
O O5 0.584489 0.880594 0.750000
O O6 0.498345 0.863138 0.606150
O O7 0.639582 0.908106 0.588831
O O8 0.573501 0.433086 0.250000
O O9 0.618254 0.366310 0.142910
O O10 0.333334 0.666667 0.500000
O O11 0.283834 0.141917 0.500000
O O12 0.240410 0.240410 0.503604
#
# Coordination Sequence:
#
# PCOD8329798 Si02
#       5
#    24  24  24   8  24
#     4   9  18  31  50  74 104 141 179 218 255 293
#     4   9  18  31  50  74 104 141 179 218 255 293
#     4  10  18  30  44  67 104 143 185 231 268 289
#     4  12  22  20  40  72 103 143 193 249 271 296
#     4  10  22  39  59  78 101 127 161 203 250 314
#
# _framework density 18.488251999999999
#
# number of rings (size 3 to 8) (size 9 to 14) (size 15 to 20)
#    0.000    2.308    2.308    0.692    3.231    0.923 
#    0.000    2.308    0.000    4.385    0.000    0.000 
#    0.000    0.000    0.000   11.538    0.000    0.000 
#
# Total GULP energy -1288751.374812 kJ/mol
# GULP energy per Si atom -12391.840142 kJ/mol
# Density = 1.844617 g / cm^3
# Si number density = 18.488252 Si / 1000 Ang^3
#
#
#
# Elastic Constant Matrix: (Units=GPa)
#
#
# Indices 1 2 3 4 5 6 
#
# 1 89.6579 54.7228 31.9170 0.0000 0.0000 0.0000
# 2 54.7228 89.6576 31.9171 0.0000 0.0000 0.0000
# 3 31.9170 31.9171 68.3520 0.0000 0.0000 0.0001
# 4 0.0000 0.0000 0.0000 14.9638 0.0000 0.0000
# 5 0.0000 0.0000 0.0000 0.0000 14.9638 0.0000
# 6 0.0000 0.0000 0.0001 0.0000 0.0000 17.4675
#
#
#
# Elastic Compliance Matrix: (Units=1/GPa)
#
#
# Indices 1 2 3 4 5 6 
#
# 1 0.018676 -0.009948 -0.004076 0.000000 0.000000 0.000000
# 2 -0.009948 0.018676 -0.004076 0.000000 0.000000 0.000000
# 3 -0.004076 -0.004076 0.018436 0.000000 0.000000 0.000000
# 4 0.000000 0.000000 0.000000 0.066828 0.000000 0.000000
# 5 0.000000 0.000000 0.000000 0.000000 0.066828 0.000000
# 6 0.000000 0.000000 0.000000 0.000000 0.000000 0.057249
#
#
# Mechanical properties :
#
#
# Convention : Reuss Voigt Hill
#
# Bulk Modulus (GPa) = 51.04608 53.86458 52.45533
# Shear Modulus (GPa) = 17.27575 18.08640 17.68108
#
# Velocity S-wave (km/s) = 3.06014 3.13111 3.09583
# Velocity P-wave (km/s) = 6.33687 6.50151 6.41971
#
# Compressibility (1/GPa) = 0.01959014
#
# Stress axis : x y z
#
# Youngs Moduli (GPa) = 53.54381 53.54356 54.24075
#
# Poissons Ratio (x) = 0.53267 0.22106
# Poissons Ratio (y) = 0.53267 0.22106
# Poissons Ratio (z) = 0.21822 0.21822
#
# Static dielectric constant tensor:
#      x y z
#    x 3.118190 0.000000 0.000000 
#    y 0.000000 3.118190 0.000000 
#    z 0.000000 0.000000 3.553610 
# 
# 
# High freq. dielectric constant tensor:
#      x y z
#    x 1.682610 0.000000 0.000000 
#    y 0.000000 1.682610 0.000000 
#    z 0.000000 0.000000 1.723650 
# 
# From -- ./inp_files/3660.got.cif
#   From: 2010.03.12/outbox.cif.g09.slc.cpg/sg193_2_cif.got.tgz:3660.got - 2010.04.01 12:20:39.
