data_PCOD8329706
_publ_section_title
;
Structure prediction by ZEFSAII (Michael W. Deem and Ramdas Pophale) SiO2 
 PCOD8329706
Probable space group: P 6/M C C
;
_chemical_formula_sum "Si O2"
_cell_formula_units_Z 104
_cell_length_a 17.389819
_cell_length_b 17.389819
_cell_length_c 20.261969
_cell_angle_alpha 90.000000
_cell_angle_beta 90.000000
_cell_angle_gamma 120.000000
_cell_volume 5306.429537
_symmetry_space_group_name_H-M "P 6/M C C"
_symmetry_group_IT_number 192
_symmetry_cell_setting 'hexagonal'
loop_
_space_group_symop_operation_xyz
x,y,z
x-y,x,z
-y,x-y,z
-x,-y,z
-x+y,-x,z
y,-x+y,z
x-y,-y,1/2-z
-x,-x+y,1/2-z
y,x,1/2-z
-y,-x,1/2-z
-x+y,y,1/2-z
x,x-y,1/2-z
-x,-y,-z
-x+y,-x,-z
y,-x+y,-z
x,y,-z
x-y,x,-z
-y,x-y,-z
-x+y,y,1/2+z
x,x-y,1/2+z
-y,-x,1/2+z
y,x,1/2+z
x-y,-y,1/2+z
-x,-x+y,1/2+z
loop_
_atom_site_type_symbol
_atom_site_label
_atom_site_fract_x
_atom_site_fract_y
_atom_site_fract_z
Si Si1 0.243152 0.312390 0.871100
Si Si2 0.181944 0.000000 0.750000
Si Si3 0.469350 0.250948 0.826114
Si Si4 0.571577 0.973120 0.324875
Si Si5 0.666668 0.333334 0.171168
Si Si6 0.154422 0.200144 0.000000
O O1 0.228386 0.241478 0.813883
O O2 0.207461 0.381102 0.860529
O O3 0.348892 0.372426 0.876833
O O4 0.199702 0.259508 0.936739
O O5 0.170378 0.085189 0.750000
O O6 0.456492 0.228246 0.750000
O O7 0.474835 0.344060 0.836554
O O8 0.564806 0.267581 0.853060
O O9 0.500000 0.000000 0.343576
O O10 0.606455 0.000000 0.250000
O O11 0.666668 0.333334 0.250000
O O12 0.165637 0.114872 0.000000
#
# Coordination Sequence:
#
# PCOD8329706 Si02
#       6
#    24  12  24  24   8  12
#     4  12  23  41  63  90 123 165 213 268 322 388
#     4  12  23  38  59  88 120 156 200 264 331 394
#     4  11  19  35  55  88 126 160 204 258 315 381
#     4  11  21  33  58  92 126 162 204 256 320 384
#     4   9  21  30  57  91 131 166 204 258 322 374
#     4  12  27  46  67  90 122 168 218 272 330 396
#
# _framework density 19.598866000000001
#
# number of rings (size 3 to 8) (size 9 to 14) (size 15 to 20)
#    0.000    0.692    3.462    6.462    6.462    0.000 
#    0.000    2.885    0.000    4.154    0.000    0.000 
#    0.000    0.000    0.000    0.000    0.000    0.000 
#
# Total GULP energy -1289213.267215 kJ/mol
# GULP energy per Si atom -12396.281416 kJ/mol
# Density = 1.955426 g / cm^3
# Si number density = 19.598866 Si / 1000 Ang^3
#
#
#
# Elastic Constant Matrix: (Units=GPa)
#
#
# Indices 1 2 3 4 5 6 
#
# 1 170.8850 74.2372 60.5252 0.0000 0.0000 -0.0002
# 2 74.2372 170.8846 60.5252 0.0000 -0.0002 -0.0001
# 3 60.5252 60.5252 103.2049 0.0000 0.0000 0.0001
# 4 0.0000 0.0000 0.0000 11.2939 0.0001 0.0001
# 5 0.0000 -0.0002 0.0000 0.0001 11.2939 0.0000
# 6 -0.0002 -0.0001 0.0001 0.0001 0.0000 48.3235
#
#
#
# Elastic Compliance Matrix: (Units=1/GPa)
#
#
# Indices 1 2 3 4 5 6 
#
# 1 0.008045 -0.002302 -0.003368 0.000000 0.000000 0.000000
# 2 -0.002302 0.008045 -0.003368 0.000000 0.000000 0.000000
# 3 -0.003368 -0.003368 0.013640 0.000000 0.000000 0.000000
# 4 0.000000 0.000000 0.000000 0.088543 0.000000 0.000000
# 5 0.000000 0.000000 0.000000 0.000000 0.088544 0.000000
# 6 0.000000 0.000000 0.000000 0.000000 0.000000 0.020694
#
#
# Mechanical properties :
#
#
# Convention : Reuss Voigt Hill
#
# Bulk Modulus (GPa) = 85.80959 92.83884 89.32421
# Shear Modulus (GPa) = 20.04248 30.82806 25.43527
#
# Velocity S-wave (km/s) = 3.20134 3.97035 3.60640
# Velocity P-wave (km/s) = 7.58569 8.27590 7.93830
#
# Compressibility (1/GPa) = 0.01165371
#
# Stress axis : x y z
#
# Youngs Moduli (GPa) = 124.30369 124.30321 73.31530
#
# Poissons Ratio (x) = 0.28615 0.24692
# Poissons Ratio (y) = 0.28615 0.24692
# Poissons Ratio (z) = 0.41864 0.41864
#
# Static dielectric constant tensor:
#      x y z
#    x 3.956040 0.000000 0.000000 
#    y 0.000000 3.956040 0.000000 
#    z 0.000000 0.000000 3.104460 
# 
# 
# High freq. dielectric constant tensor:
#      x y z
#    x 1.791460 0.000000 0.000000 
#    y 0.000000 1.791460 0.000000 
#    z 0.000000 0.000000 1.702900 
# 
# From -- ./inp_files/4890.got.cif
#   From: 2010.03.12/outbox.cif.g09.slc.cpg/sg192_3_cif.got.tgz:4890.got - 2010.04.01 12:16:15.
