data_PCOD8330348
_publ_section_title
;
Structure prediction by ZEFSAII (Michael W. Deem and Ramdas Pophale) SiO2 
 PCOD8330348
Probable space group: P 63/M M C
;
_chemical_formula_sum "Si O2"
_cell_formula_units_Z 108
_cell_length_a 31.702330
_cell_length_b 31.702330
_cell_length_c 8.922135
_cell_angle_alpha 90.000000
_cell_angle_beta 90.000000
_cell_angle_gamma 120.000000
_cell_volume 7765.721056
_symmetry_space_group_name_H-M "P 63/M M C"
_symmetry_group_IT_number 194
_symmetry_cell_setting 'hexagonal'
loop_
_space_group_symop_operation_xyz
x,y,z
x-y,x,1/2+z
-y,x-y,z
-x,-y,1/2+z
-x+y,-x,z
y,-x+y,1/2+z
x-y,-y,-z
-x,-x+y,-z
y,x,-z
-y,-x,1/2-z
-x+y,y,1/2-z
x,x-y,1/2-z
-x,-y,-z
-x+y,-x,1/2-z
y,-x+y,-z
x,y,1/2-z
x-y,x,-z
-y,x-y,1/2-z
-x+y,y,z
x,x-y,z
-y,-x,z
y,x,1/2+z
x-y,-y,1/2+z
-x,-x+y,1/2+z
loop_
_atom_site_type_symbol
_atom_site_label
_atom_site_fract_x
_atom_site_fract_y
_atom_site_fract_z
Si Si1 0.525296 0.474705 0.421501
Si Si2 0.947046 0.382096 0.426521
Si Si3 0.890560 0.611431 0.574139
Si Si4 0.389347 0.194674 0.081312
Si Si5 0.052292 0.777080 0.426155
Si Si6 0.863127 0.136874 0.081097
O O1 0.500000 0.500000 0.500000
O O2 0.518353 0.481648 0.250000
O O3 0.583085 0.506292 0.459560
O O4 0.951998 0.375513 0.250000
O O5 0.910768 0.331080 0.499313
O O6 0.000000 0.404040 0.500000
O O7 0.885387 0.602218 0.750000
O O8 0.837061 0.591955 0.506085
O O9 0.926173 0.668064 0.535892
O O10 0.410321 0.205161 0.250000
O O11 0.331526 0.165763 0.083165
O O12 0.048227 0.782388 0.250000
O O13 0.086188 0.830813 0.494312
O O14 0.000000 0.754608 0.500000
O O15 0.873625 0.126376 0.250000
#
# Coordination Sequence:
#
# PCOD8330348 Si02
#       6
#    12  24  24  12  24  12
#     4   8  16  28  40  54  74 100 129 162 199 236
#     4  10  18  28  41  57  77 102 133 167 201 236
#     4  10  19  29  41  58  79 103 132 166 200 235
#     4   9  17  29  43  57  75 101 130 161 198 237
#     4  10  19  29  41  57  78 103 132 164 197 232
#     4   9  17  29  43  57  75  99 128 161 198 235
#
# _framework density 13.907272000000001
#
# number of rings (size 3 to 8) (size 9 to 14) (size 15 to 20)
#    0.000    2.444    0.000    3.333    0.000    8.000 
#    0.000    0.000    0.000    0.000    0.000    0.000 
#    0.000    0.000    0.000    1.000    0.000   15.556 
#
# Total GULP energy -1338567.634634 kJ/mol
# GULP energy per Si atom -12394.144765 kJ/mol
# Density = 1.387562 g / cm^3
# Si number density = 13.907272 Si / 1000 Ang^3
#
#
#
# Elastic Constant Matrix: (Units=GPa)
#
#
# Indices 1 2 3 4 5 6 
#
# 1 42.2654 108.2531 54.5822 0.0000 0.0000 0.0000
# 2 108.2531 42.2654 54.5822 0.0000 0.0000 0.0000
# 3 54.5822 54.5822 95.4976 0.0000 0.0000 0.0000
# 4 0.0000 0.0000 0.0000 22.6640 0.0000 0.0000
# 5 0.0000 0.0000 0.0000 0.0000 22.6640 0.0000
# 6 0.0000 0.0000 0.0000 0.0000 0.0000 -32.9938
#
#
#
# Elastic Compliance Matrix: (Units=1/GPa)
#
#
# Indices 1 2 3 4 5 6 
#
# 1 -0.001903 0.013251 -0.006486 0.000000 0.000000 0.000000
# 2 0.013251 -0.001903 -0.006486 0.000000 0.000000 0.000000
# 3 -0.006486 -0.006486 0.017885 0.000000 0.000000 0.000000
# 4 0.000000 0.000000 0.000000 0.044123 0.000000 0.000000
# 5 0.000000 0.000000 0.000000 0.000000 0.044123 0.000000
# 6 0.000000 0.000000 0.000000 0.000000 0.000000 -0.030309
#
#
# Mechanical properties :
#
#
# Convention : Reuss Voigt Hill
#
# Bulk Modulus (GPa) = 68.31783 68.31817 68.31800
# Shear Modulus (GPa) = 65.50019 -0.02576 32.73722
#
# Velocity S-wave (km/s) = 6.87023 -0.13624 4.85703
# Velocity P-wave (km/s) = 10.59074 7.01470 8.98248
#
# Compressibility (1/GPa) = 0.01463747
#
# Stress axis : x y z
#
# Youngs Moduli (GPa) = -525.37304 -525.37305 55.91152
#
# Poissons Ratio (x) = 6.96168 0.36263
# Poissons Ratio (y) = 6.96168 0.36263
# Poissons Ratio (z) = -3.40744 -3.40744
#
# Static dielectric constant tensor:
#      x y z
#    x 2.799140 0.000000 0.000000 
#    y 0.000000 2.799140 0.000000 
#    z 0.000000 0.000000 2.957640 
# 
# 
# High freq. dielectric constant tensor:
#      x y z
#    x 1.505320 0.000000 0.000000 
#    y 0.000000 1.505320 0.000000 
#    z 0.000000 0.000000 1.554350 
# 
# From -- ./inp_files/1932.got.cif
#   From: 2010.03.12/outbox.cif.g09.slc.cpg/sg194_1_cif.got.tgz:1932.got - 2010.04.01 12:26:19.
