data_PCOD8330368
_publ_section_title
;
Structure prediction by ZEFSAII (Michael W. Deem and Ramdas Pophale) SiO2 
 PCOD8330368
Probable space group: P 63/M M C
;
_chemical_formula_sum "Si O2"
_cell_formula_units_Z 78
_cell_length_a 17.498679
_cell_length_b 17.498679
_cell_length_c 15.186277
_cell_angle_alpha 90.000000
_cell_angle_beta 90.000000
_cell_angle_gamma 120.000000
_cell_volume 4027.100591
_symmetry_space_group_name_H-M "P 63/M M C"
_symmetry_group_IT_number 194
_symmetry_cell_setting 'hexagonal'
loop_
_space_group_symop_operation_xyz
x,y,z
x-y,x,1/2+z
-y,x-y,z
-x,-y,1/2+z
-x+y,-x,z
y,-x+y,1/2+z
x-y,-y,-z
-x,-x+y,-z
y,x,-z
-y,-x,1/2-z
-x+y,y,1/2-z
x,x-y,1/2-z
-x,-y,-z
-x+y,-x,1/2-z
y,-x+y,-z
x,y,1/2-z
x-y,x,-z
-y,x-y,1/2-z
-x+y,y,z
x,x-y,z
-y,-x,z
y,x,1/2+z
x-y,-y,1/2+z
-x,-x+y,1/2+z
loop_
_atom_site_type_symbol
_atom_site_label
_atom_site_fract_x
_atom_site_fract_y
_atom_site_fract_z
Si Si1 0.905388 0.094613 0.347318
Si Si2 0.200181 0.799820 0.143905
Si Si3 0.099772 0.900229 0.354809
Si Si4 0.445100 0.062946 0.250000
Si Si5 0.819774 0.180227 0.250000
Si Si6 0.616448 0.056157 0.917593
O O1 0.927085 0.072916 0.250000
O O2 0.851791 0.148210 0.336867
O O3 0.000172 0.152700 0.394428
O O4 0.206653 0.793348 0.250000
O O5 0.149646 0.850355 0.112768
O O6 0.149157 0.704479 0.098061
O O7 0.100795 0.899206 0.250000
O O8 0.550292 0.100583 0.250000
O O9 0.427073 0.143338 0.250000
O O10 0.398592 0.003186 0.333242
O O11 0.539698 0.079396 0.932666
O O12 0.620539 0.000000 0.000000
#
# Coordination Sequence:
#
# PCOD8330368 Si02
#       6
#    12  12  12  12   6  24
#     4   8  15  22  41  70 113 142 182 229 279 341
#     4  11  20  34  65  92 120 160 217 269 309 382
#     4   9  15  26  43  78 114 148 190 241 285 340
#     4  10  20  37  58  81 115 156 202 261 322 375
#     4  10  18  28  50  80 102 146 200 238 284 378
#     4  10  22  40  61  88 125 164 203 258 332 391
#
# _framework density 19.368773999999998
#
# number of rings (size 3 to 8) (size 9 to 14) (size 15 to 20)
#    0.462    1.846    1.538    2.154    0.000    2.462 
#    1.385    1.538    0.000    0.000    0.000    1.077 
#    0.000    0.000    0.000    0.000    0.000    0.000 
#
# Total GULP energy -966728.440652 kJ/mol
# GULP energy per Si atom -12393.954367 kJ/mol
# Density = 1.932469 g / cm^3
# Si number density = 19.368774 Si / 1000 Ang^3
#
#
#
# Elastic Constant Matrix: (Units=GPa)
#
#
# Indices 1 2 3 4 5 6 
#
# 1 132.3883 76.0191 34.7477 0.0000 0.0000 0.0000
# 2 76.0191 132.3883 34.7477 0.0000 0.0000 0.0000
# 3 34.7477 34.7477 94.8667 0.0000 0.0000 0.0000
# 4 0.0000 0.0000 0.0000 -11.5133 0.0000 0.0000
# 5 0.0000 0.0000 0.0000 0.0000 -11.5133 0.0000
# 6 0.0000 0.0000 0.0000 0.0000 0.0000 28.1846
#
#
#
# Elastic Compliance Matrix: (Units=1/GPa)
#
#
# Indices 1 2 3 4 5 6 
#
# 1 0.011603 -0.006137 -0.002002 0.000000 0.000000 0.000000
# 2 -0.006137 0.011603 -0.002002 0.000000 0.000000 0.000000
# 3 -0.002002 -0.002002 0.012008 0.000000 0.000000 0.000000
# 4 0.000000 0.000000 0.000000 -0.086856 0.000000 0.000000
# 5 0.000000 0.000000 0.000000 0.000000 -0.086856 0.000000
# 6 0.000000 0.000000 0.000000 0.000000 0.000000 0.035480
#
#
# Mechanical properties :
#
#
# Convention : Reuss Voigt Hill
#
# Bulk Modulus (GPa) = 66.97325 72.29693 69.63509
# Shear Modulus (GPa) = -64.30227 15.30682 -24.49772
#
# Velocity S-wave (km/s) = -5.76810 2.81425 -3.56027
# Velocity P-wave (km/s) = 3.11582 6.92586 4.37374
#
# Compressibility (1/GPa) = 0.01493133
#
# Stress axis : x y z
#
# Youngs Moduli (GPa) = 86.18424 86.18424 83.27975
#
# Poissons Ratio (x) = 0.52893 0.16673
# Poissons Ratio (y) = 0.52893 0.16673
# Poissons Ratio (z) = 0.17254 0.17254
#
# Static dielectric constant tensor:
#      x y z
#    x 3.533160 0.000000 0.000000 
#    y 0.000000 3.533160 0.000000 
#    z 0.000000 0.000000 3.381160 
# 
# 
# High freq. dielectric constant tensor:
#      x y z
#    x 1.751610 0.000000 0.000000 
#    y 0.000000 1.751610 0.000000 
#    z 0.000000 0.000000 1.729370 
# 
# From -- ./inp_files/6349.got.cif
#   From: 2010.03.12/outbox.cif.g09.slc.cpg/sg194_4_cif.got.tgz:6349.got - 2010.04.01 12:26:19.
