data_PCOD8330790
_publ_section_title
;
Structure prediction by ZEFSAII (Michael W. Deem and Ramdas Pophale) SiO2 
 PCOD8330790
Probable space group: P 63/M M C
;
_chemical_formula_sum "Si O2"
_cell_formula_units_Z 168
_cell_length_a 21.623188
_cell_length_b 21.623188
_cell_length_c 25.265648
_cell_angle_alpha 90.000000
_cell_angle_beta 90.000000
_cell_angle_gamma 120.000000
_cell_volume 10230.586259
_symmetry_space_group_name_H-M "P 63/M M C"
_symmetry_group_IT_number 194
_symmetry_cell_setting 'hexagonal'
loop_
_space_group_symop_operation_xyz
x,y,z
x-y,x,1/2+z
-y,x-y,z
-x,-y,1/2+z
-x+y,-x,z
y,-x+y,1/2+z
x-y,-y,-z
-x,-x+y,-z
y,x,-z
-y,-x,1/2-z
-x+y,y,1/2-z
x,x-y,1/2-z
-x,-y,-z
-x+y,-x,1/2-z
y,-x+y,-z
x,y,1/2-z
x-y,x,-z
-y,x-y,1/2-z
-x+y,y,z
x,x-y,z
-y,-x,z
y,x,1/2+z
x-y,-y,1/2+z
-x,-x+y,1/2+z
loop_
_atom_site_type_symbol
_atom_site_label
_atom_site_fract_x
_atom_site_fract_y
_atom_site_fract_z
Si Si1 0.717847 0.137967 0.904034
Si Si2 0.090588 0.474322 0.310378
Si Si3 0.860866 0.000048 0.937030
Si Si4 0.998653 0.719391 0.437119
Si Si5 0.925466 0.533583 0.310262
Si Si6 0.716389 0.138076 0.098452
Si Si7 0.521120 0.188457 0.001093
O O1 0.799340 0.200661 0.905264
O O2 0.682917 0.138521 0.848020
O O3 0.715856 0.064087 0.911855
O O4 0.672475 0.147772 0.949892
O O5 0.103249 0.459524 0.250000
O O6 0.114261 0.557131 0.317525
O O7 0.007981 0.425441 0.326333
O O8 0.857796 0.928898 0.914471
O O9 0.792115 0.003219 0.917375
O O10 0.931337 0.068664 0.914347
O O11 0.863176 0.000000 0.000000
O O12 0.000000 0.715093 0.500000
O O13 0.925258 0.655837 0.415829
O O14 0.913686 0.549078 0.250000
O O15 0.901926 0.450963 0.317313
O O16 0.876121 0.550930 0.346720
O O17 0.791694 0.208306 0.105341
O O18 0.670123 0.146778 0.052576
O O19 0.592677 0.185353 0.999892
O O20 0.540638 0.270319 0.001715
#
# Coordination Sequence:
#
# PCOD8330790 Si02
#       7
#    24  24  24  24  24  24  24
#     4  11  21  33  51  76 104 135 172 207 251 307
#     4   9  18  34  55  76  99 129 166 209 256 302
#     4   9  17  28  45  65  90 128 173 213 248 289
#     4  11  20  33  47  69 104 142 168 207 253 299
#     4   9  18  34  55  76  99 129 166 209 256 302
#     4  11  21  33  51  76 104 135 172 207 251 307
#     4  10  21  35  51  73 102 136 170 205 247 298
#
# _framework density 16.421346
#
# number of rings (size 3 to 8) (size 9 to 14) (size 15 to 20)
#    0.000    2.000    2.857    2.857    0.000    2.286 
#    0.000    0.714    0.000    0.571    0.000    0.000 
#    0.000    0.000    0.000    0.000    0.000   10.143 
#
# Total GULP energy -2083568.301127 kJ/mol
# GULP energy per Si atom -12402.192269 kJ/mol
# Density = 1.638397 g / cm^3
# Si number density = 16.421346 Si / 1000 Ang^3
#
#
#
# Elastic Constant Matrix: (Units=GPa)
#
#
# Indices 1 2 3 4 5 6 
#
# 1 78.0881 26.8399 24.7595 0.0000 0.0000 0.0000
# 2 26.8399 78.0881 24.7595 0.0000 0.0000 0.0000
# 3 24.7595 24.7595 76.0723 0.0000 0.0000 0.0000
# 4 0.0000 0.0000 0.0000 20.2221 0.0000 0.0000
# 5 0.0000 0.0000 0.0000 0.0000 20.2221 0.0000
# 6 0.0000 0.0000 0.0000 0.0000 0.0000 25.6241
#
#
#
# Elastic Compliance Matrix: (Units=1/GPa)
#
#
# Indices 1 2 3 4 5 6 
#
# 1 0.015386 -0.004126 -0.003665 0.000000 0.000000 0.000000
# 2 -0.004126 0.015386 -0.003665 0.000000 0.000000 0.000000
# 3 -0.003665 -0.003665 0.015531 0.000000 0.000000 0.000000
# 4 0.000000 0.000000 0.000000 0.049451 0.000000 0.000000
# 5 0.000000 0.000000 0.000000 0.000000 0.049451 0.000000
# 6 0.000000 0.000000 0.000000 0.000000 0.000000 0.039026
#
#
# Mechanical properties :
#
#
# Convention : Reuss Voigt Hill
#
# Bulk Modulus (GPa) = 42.75044 42.77404 42.76224
# Shear Modulus (GPa) = 23.26227 23.60632 23.43430
#
# Velocity S-wave (km/s) = 3.76784 3.79560 3.78175
# Velocity P-wave (km/s) = 6.70961 6.73151 6.72056
#
# Compressibility (1/GPa) = 0.02339157
#
# Stress axis : x y z
#
# Youngs Moduli (GPa) = 64.99254 64.99254 64.38749
#
# Poissons Ratio (x) = 0.26819 0.23597
# Poissons Ratio (y) = 0.26819 0.23597
# Poissons Ratio (z) = 0.23818 0.23818
#
# Static dielectric constant tensor:
#      x y z
#    x 3.102050 0.000000 0.000000 
#    y 0.000000 3.102050 0.000000 
#    z 0.000000 0.000000 2.975490 
# 
# 
# High freq. dielectric constant tensor:
#      x y z
#    x 1.637170 0.000000 0.000000 
#    y 0.000000 1.637170 0.000000 
#    z 0.000000 0.000000 1.613220 
# 
# From -- ./inp_files/9797.got.cif
#   From: 2010.03.12/outbox.cif.g09.slc.cpg/sg194_5_cif.got.tgz:9797.got - 2010.04.01 12:26:19.
