data_PCOD8330895
_publ_section_title
;
Structure prediction by ZEFSAII (Michael W. Deem and Ramdas Pophale) SiO2 
 PCOD8330895
Probable space group: P 21 3
;
_chemical_formula_sum "Si O2"
_cell_formula_units_Z 64
_cell_length_a 14.485830
_cell_length_b 14.485830
_cell_length_c 14.485830
_cell_angle_alpha 90.000000
_cell_angle_beta 90.000000
_cell_angle_gamma 90.000000
_cell_volume 3039.696004
_symmetry_space_group_name_H-M "P 21 3"
_symmetry_group_IT_number 198
_symmetry_cell_setting 'cubic'
loop_
_space_group_symop_operation_xyz
x,y,z
z,x,y
y,z,x
1/2-y,-z,1/2+x
1/2+z,1/2-x,-y
-y,1/2+z,1/2-x
1/2-z,-x,1/2+y
-z,1/2+x,1/2-y
1/2+y,1/2-z,-x
1/2-x,-y,1/2+z
1/2+x,1/2-y,-z
-x,1/2+y,1/2-z
loop_
_atom_site_type_symbol
_atom_site_label
_atom_site_fract_x
_atom_site_fract_y
_atom_site_fract_z
Si Si1 0.546029 0.953972 0.046030
Si Si2 0.528624 0.011703 0.248066
Si Si3 0.785901 0.563343 0.523772
Si Si4 0.781784 0.218218 0.718217
Si Si5 0.920186 0.420187 0.079814
Si Si6 0.217335 0.265400 0.487057
Si Si7 0.856161 0.376117 0.450081
Si Si8 0.156179 0.156179 0.156180
O O1 0.539884 0.848675 0.012561
O O2 0.483129 0.016873 0.983128
O O3 0.475720 0.109055 0.244521
O O4 0.635406 0.033064 0.267631
O O5 0.489361 0.947299 0.327934
O O6 0.685106 0.550035 0.565558
O O7 0.835894 0.464663 0.514003
O O8 0.844898 0.625407 0.594259
O O9 0.780708 0.612687 0.424330
O O10 0.887943 0.234237 0.741861
O O11 0.718883 0.281118 0.781119
O O12 0.266822 0.189901 0.551709
#
# Coordination Sequence:
#
# PCOD8330895 Si02
#       8
#     4  12  12   4   4  12  12   4
#     4  12  25  46  66 105 150 172 229 300 358 407
#     4  12  24  44  70 101 140 185 226 293 359 415
#     4  10  25  46  68 100 142 187 236 288 346 430
#     4  12  25  46  72 108 132 178 250 288 337 446
#     4  12  27  46  70 105 142 187 231 288 373 407
#     4  12  25  43  71 105 140 178 237 290 355 423
#     4  11  23  46  69 100 140 184 242 286 344 427
#     4   9  24  43  70  96 136 187 237 285 340 413
#
# _framework density 21.054735999999998
#
# number of rings (size 3 to 8) (size 9 to 14) (size 15 to 20)
#    0.000    0.750    3.750    3.000    5.250    1.500 
#    3.375    0.000    0.000    0.000    0.000    0.000 
#    0.000    0.000    0.000    0.000    0.000    0.000 
#
# Total GULP energy -794100.853808 kJ/mol
# GULP energy per Si atom -12407.825841 kJ/mol
# Density = 2.100681 g / cm^3
# Si number density = 21.054736 Si / 1000 Ang^3
#
#
#
# Elastic Constant Matrix: (Units=GPa)
#
#
# Indices 1 2 3 4 5 6 
#
# 1 92.3041 30.7599 30.7585 0.0000 0.0000 0.0000
# 2 30.7599 92.3042 30.7589 0.0000 0.0000 0.0000
# 3 30.7585 30.7589 92.3065 0.0000 0.0000 0.0000
# 4 0.0000 0.0000 0.0000 32.4696 0.0000 0.0000
# 5 0.0000 0.0000 0.0000 0.0000 32.4716 0.0000
# 6 0.0000 0.0000 0.0000 0.0000 0.0000 32.4743
#
#
#
# Elastic Compliance Matrix: (Units=1/GPa)
#
#
# Indices 1 2 3 4 5 6 
#
# 1 0.012999 -0.003249 -0.003249 0.000000 0.000000 0.000000
# 2 -0.003249 0.012999 -0.003249 0.000000 0.000000 0.000000
# 3 -0.003249 -0.003249 0.012999 0.000000 0.000000 0.000000
# 4 0.000000 0.000000 0.000000 0.030798 0.000000 0.000000
# 5 0.000000 0.000000 0.000000 0.000000 0.030796 0.000000
# 6 0.000000 0.000000 0.000000 0.000000 0.000000 0.030794
#
#
# Mechanical properties :
#
#
# Convention : Reuss Voigt Hill
#
# Bulk Modulus (GPa) = 51.27440 51.27440 51.27440
# Shear Modulus (GPa) = 31.77023 31.79226 31.78124
#
# Velocity S-wave (km/s) = 3.88872 3.89006 3.88939
# Velocity P-wave (km/s) = 6.67597 6.67702 6.67649
#
# Compressibility (1/GPa) = 0.01950291
#
# Stress axis : x y z
#
# Youngs Moduli (GPa) = 76.92791 76.92779 76.93077
#
# Poissons Ratio (x) = 0.24996 0.24994
# Poissons Ratio (y) = 0.24996 0.24994
# Poissons Ratio (z) = 0.24993 0.24993
#
# Static dielectric constant tensor:
#      x y z
#    x 3.881700 0.000000 0.000000 
#    y 0.000000 3.881730 0.000000 
#    z 0.000000 0.000000 3.881710 
# 
# 
# High freq. dielectric constant tensor:
#      x y z
#    x 1.830870 0.000000 0.000000 
#    y 0.000000 1.830880 0.000000 
#    z 0.000000 0.000000 1.830870 
# 
# From -- ./inp_files/356.got.cif
#   From: 2010.03.12/outbox.cif.g09.slc.cpg/sg198_cif.got.tgz:356.got - 2010.04.01 12:33:50.
