data_PCOD8330569
_publ_section_title
;
Structure prediction by ZEFSAII (Michael W. Deem and Ramdas Pophale) SiO2 
 PCOD8330569
Probable space group: P 63/M M C
;
_chemical_formula_sum "Si O2"
_cell_formula_units_Z 120
_cell_length_a 19.894190
_cell_length_b 19.894190
_cell_length_c 20.002300
_cell_angle_alpha 90.000000
_cell_angle_beta 90.000000
_cell_angle_gamma 120.000000
_cell_volume 6855.878163
_symmetry_space_group_name_H-M "P 63/M M C"
_symmetry_group_IT_number 194
_symmetry_cell_setting 'hexagonal'
loop_
_space_group_symop_operation_xyz
x,y,z
x-y,x,1/2+z
-y,x-y,z
-x,-y,1/2+z
-x+y,-x,z
y,-x+y,1/2+z
x-y,-y,-z
-x,-x+y,-z
y,x,-z
-y,-x,1/2-z
-x+y,y,1/2-z
x,x-y,1/2-z
-x,-y,-z
-x+y,-x,1/2-z
y,-x+y,-z
x,y,1/2-z
x-y,x,-z
-y,x-y,1/2-z
-x+y,y,z
x,x-y,z
-y,-x,z
y,x,1/2+z
x-y,-y,1/2+z
-x,-x+y,1/2+z
loop_
_atom_site_type_symbol
_atom_site_label
_atom_site_fract_x
_atom_site_fract_y
_atom_site_fract_z
Si Si1 0.799637 0.045008 0.828687
Si Si2 0.514358 0.878432 0.606078
Si Si3 0.881222 0.762443 0.172085
Si Si4 0.639902 0.667424 0.072498
Si Si5 0.179599 0.665997 0.040433
Si Si6 0.204176 0.795825 0.826693
O O1 0.781316 0.046465 0.750000
O O2 0.877184 0.122817 0.850084
O O3 0.727490 0.033190 0.872072
O O4 0.811423 0.972117 0.846791
O O5 0.439573 0.879145 0.636019
O O6 0.491270 0.827927 0.539124
O O7 0.543370 0.838065 0.657871
O O8 0.579983 0.966825 0.593473
O O9 0.873368 0.746735 0.250000
O O10 0.838265 0.676529 0.136549
O O11 0.563934 0.675092 0.072248
O O12 0.682819 0.682819 0.000000
O O13 0.176125 0.588063 0.067661
O O14 0.260927 0.739074 0.062156
O O15 0.195371 0.804630 0.750000
#
# Coordination Sequence:
#
# PCOD8330569 Si02
#       6
#    24  24  12  24  24  12
#     4  10  20  36  57  81 109 141 178 221 269 325
#     4  10  20  34  51  73 104 141 179 222 266 312
#     4   9  18  34  56  78 103 139 181 217 261 319
#     4  10  20  34  55  82 107 135 179 231 270 314
#     4  10  19  32  51  75 105 139 175 216 268 321
#     4  11  20  34  54  74 104 143 181 220 264 321
#
# _framework density 17.503228
#
# number of rings (size 3 to 8) (size 9 to 14) (size 15 to 20)
#    0.000    2.000    3.000    1.400    0.000    2.800 
#    3.000    0.000    0.000    1.800    0.000    0.700 
#    0.000    1.600    0.000    0.000    0.000    0.000 
#
# Total GULP energy -1487600.764758 kJ/mol
# GULP energy per Si atom -12396.673040 kJ/mol
# Density = 1.746339 g / cm^3
# Si number density = 17.503228 Si / 1000 Ang^3
#
#
#
# Elastic Constant Matrix: (Units=GPa)
#
#
# Indices 1 2 3 4 5 6 
#
# 1 82.5316 50.5078 23.4179 0.0000 0.0000 0.0000
# 2 50.5078 82.5316 23.4179 0.0000 0.0000 0.0000
# 3 23.4179 23.4179 39.6925 0.0000 0.0000 0.0000
# 4 0.0000 0.0000 0.0000 20.5231 0.0000 0.0000
# 5 0.0000 0.0000 0.0000 0.0000 20.5231 0.0000
# 6 0.0000 0.0000 0.0000 0.0000 0.0000 16.0119
#
#
#
# Elastic Compliance Matrix: (Units=1/GPa)
#
#
# Indices 1 2 3 4 5 6 
#
# 1 0.020357 -0.010870 -0.005597 0.000000 0.000000 0.000000
# 2 -0.010870 0.020357 -0.005597 0.000000 0.000000 0.000000
# 3 -0.005597 -0.005597 0.031798 0.000000 0.000000 0.000000
# 4 0.000000 0.000000 0.000000 0.048726 0.000000 0.000000
# 5 0.000000 0.000000 0.000000 0.000000 0.048726 0.000000
# 6 0.000000 0.000000 0.000000 0.000000 0.000000 0.062454
#
#
# Mechanical properties :
#
#
# Convention : Reuss Voigt Hill
#
# Bulk Modulus (GPa) = 35.23177 44.38254 39.80716
# Shear Modulus (GPa) = 17.48212 18.57241 18.02727
#
# Velocity S-wave (km/s) = 3.16380 3.26096 3.21275
# Velocity P-wave (km/s) = 5.78952 6.29209 6.04603
#
# Compressibility (1/GPa) = 0.02838347
#
# Stress axis : x y z
#
# Youngs Moduli (GPa) = 49.12340 49.12340 31.44837
#
# Poissons Ratio (x) = 0.53396 0.17602
# Poissons Ratio (y) = 0.53396 0.17602
# Poissons Ratio (z) = 0.27495 0.27495
#
# Static dielectric constant tensor:
#      x y z
#    x 3.419490 0.000000 0.000000 
#    y 0.000000 3.419490 0.000000 
#    z 0.000000 0.000000 2.998220 
# 
# 
# High freq. dielectric constant tensor:
#      x y z
#    x 1.686200 0.000000 0.000000 
#    y 0.000000 1.686200 0.000000 
#    z 0.000000 0.000000 1.643070 
# 
# From -- ./inp_files/9384.got.cif
#   From: 2010.03.12/outbox.cif.g09.slc.cpg/sg194_5_cif.got.tgz:9384.got - 2010.04.01 12:26:19.
