data_PCOD8330845
_publ_section_title
;
Structure prediction by ZEFSAII (Michael W. Deem and Ramdas Pophale) SiO2 
 PCOD8330845
Probable space group: P 63/M M C
;
_chemical_formula_sum "Si O2"
_cell_formula_units_Z 100
_cell_length_a 26.598068
_cell_length_b 26.598068
_cell_length_c 8.617586
_cell_angle_alpha 90.000000
_cell_angle_beta 90.000000
_cell_angle_gamma 120.000000
_cell_volume 5279.787480
_symmetry_space_group_name_H-M "P 63/M M C"
_symmetry_group_IT_number 194
_symmetry_cell_setting 'hexagonal'
loop_
_space_group_symop_operation_xyz
x,y,z
x-y,x,1/2+z
-y,x-y,z
-x,-y,1/2+z
-x+y,-x,z
y,-x+y,1/2+z
x-y,-y,-z
-x,-x+y,-z
y,x,-z
-y,-x,1/2-z
-x+y,y,1/2-z
x,x-y,1/2-z
-x,-y,-z
-x+y,-x,1/2-z
y,-x+y,-z
x,y,1/2-z
x-y,x,-z
-y,x-y,1/2-z
-x+y,y,z
x,x-y,z
-y,-x,z
y,x,1/2+z
x-y,-y,1/2+z
-x,-x+y,1/2+z
loop_
_atom_site_type_symbol
_atom_site_label
_atom_site_fract_x
_atom_site_fract_y
_atom_site_fract_z
Si Si1 0.732275 0.464550 0.935166
Si Si2 0.333334 0.666667 0.433060
Si Si3 0.532445 0.467556 0.566622
Si Si4 0.521724 0.660410 0.566214
Si Si5 0.766384 0.939536 0.567125
Si Si6 0.638829 0.763849 0.566533
O O1 0.735490 0.470979 0.750000
O O2 0.699334 0.398667 0.994124
O O3 0.796135 0.491282 0.004558
O O4 0.333334 0.666667 0.250000
O O5 0.500000 0.500000 0.500000
O O6 0.530101 0.469900 0.750000
O O7 0.598848 0.498529 0.513669
O O8 0.512282 0.651606 0.750000
O O9 0.589735 0.699122 0.519118
O O10 0.768385 0.943689 0.750000
O O11 0.780341 0.890171 0.510308
O O12 0.702228 0.923679 0.505248
O O13 0.815210 0.000000 0.500000
O O14 0.641424 0.770059 0.750000
O O15 0.623354 0.811677 0.499151
#
# Coordination Sequence:
#
# PCOD8330845 Si02
#       6
#    12   4  12  24  24  24
#     4  11  21  36  58  87 120 156 194 245 305 354
#     4   9  21  36  49  68 106 150 187 233 295 348
#     4  12  27  46  61  81 115 156 200 248 299 360
#     4  11  21  38  63  87 112 149 194 241 293 353
#     4   9  18  33  54  80 112 147 179 217 268 316
#     4   8  15  31  55  81 109 141 178 225 279 331
#
# _framework density 18.940156000000002
#
# number of rings (size 3 to 8) (size 9 to 14) (size 15 to 20)
#    0.000    2.160    1.200    4.320    0.000    2.400 
#    0.000    6.600    0.000    0.240    0.000    0.000 
#    0.000    0.000    0.000    0.000    0.000    0.000 
#
# Total GULP energy -1239400.471329 kJ/mol
# GULP energy per Si atom -12394.004713 kJ/mol
# Density = 1.889705 g / cm^3
# Si number density = 18.940156 Si / 1000 Ang^3
#
#
#
# Elastic Constant Matrix: (Units=GPa)
#
#
# Indices 1 2 3 4 5 6 
#
# 1 154.6373 97.7373 46.6291 0.0000 0.0000 0.0000
# 2 97.7373 154.6370 46.6291 0.0000 0.0000 0.0000
# 3 46.6291 46.6291 75.7253 0.0000 0.0000 0.0000
# 4 0.0000 0.0000 0.0000 26.5252 0.0000 0.0000
# 5 0.0000 0.0000 0.0000 0.0000 26.5253 0.0000
# 6 0.0000 0.0000 0.0000 0.0000 0.0000 28.4500
#
#
#
# Elastic Compliance Matrix: (Units=1/GPa)
#
#
# Indices 1 2 3 4 5 6 
#
# 1 0.011352 -0.006223 -0.003159 0.000000 0.000000 0.000000
# 2 -0.006223 0.011352 -0.003159 0.000000 0.000000 0.000000
# 3 -0.003159 -0.003159 0.017096 0.000000 0.000000 0.000000
# 4 0.000000 0.000000 0.000000 0.037700 0.000000 0.000000
# 5 0.000000 0.000000 0.000000 0.000000 0.037700 0.000000
# 6 0.000000 0.000000 0.000000 0.000000 0.000000 0.035149
#
#
# Mechanical properties :
#
#
# Convention : Reuss Voigt Hill
#
# Bulk Modulus (GPa) = 67.93372 85.22117 76.57744
# Shear Modulus (GPa) = 27.72613 29.23372 28.47992
#
# Velocity S-wave (km/s) = 3.83022 3.93297 3.88194
# Velocity P-wave (km/s) = 7.45025 8.10660 7.78535
#
# Compressibility (1/GPa) = 0.01472023
#
# Stress axis : x y z
#
# Youngs Moduli (GPa) = 88.08924 88.08909 58.49475
#
# Poissons Ratio (x) = 0.54814 0.18476
# Poissons Ratio (y) = 0.54814 0.18476
# Poissons Ratio (z) = 0.27824 0.27824
#
# Static dielectric constant tensor:
#      x y z
#    x 3.853590 0.000000 0.000000 
#    y 0.000000 3.853590 0.000000 
#    z 0.000000 0.000000 3.268040 
# 
# 
# High freq. dielectric constant tensor:
#      x y z
#    x 1.739630 0.000000 0.000000 
#    y 0.000000 1.739630 0.000000 
#    z 0.000000 0.000000 1.717810 
# 
# From -- ./inp_files/1665.got.cif
#   From: 2010.03.12/outbox.cif.g09.slc.cpg/sg194_1_cif.got.tgz:1665.got - 2010.04.01 12:26:19.
