data_PCOD8330152
_publ_section_title
;
Structure prediction by ZEFSAII (Michael W. Deem and Ramdas Pophale) SiO2 
 PCOD8330152
Probable space group: P 63/M C M
;
_chemical_formula_sum "Si O2"
_cell_formula_units_Z 144
_cell_length_a 32.229318
_cell_length_b 32.229318
_cell_length_c 9.123032
_cell_angle_alpha 90.000000
_cell_angle_beta 90.000000
_cell_angle_gamma 120.000000
_cell_volume 8206.766198
_symmetry_space_group_name_H-M "P 63/M C M"
_symmetry_group_IT_number 193
_symmetry_cell_setting 'hexagonal'
loop_
_space_group_symop_operation_xyz
x,y,z
x-y,x,1/2+z
-y,x-y,z
-x,-y,1/2+z
-x+y,-x,z
y,-x+y,1/2+z
x-y,-y,1/2-z
-x,-x+y,1/2-z
y,x,1/2-z
-y,-x,-z
-x+y,y,-z
x,x-y,-z
-x,-y,-z
-x+y,-x,1/2-z
y,-x+y,-z
x,y,1/2-z
x-y,x,-z
-y,x-y,1/2-z
-x+y,y,1/2+z
x,x-y,1/2+z
-y,-x,1/2+z
y,x,z
x-y,-y,z
-x,-x+y,z
loop_
_atom_site_type_symbol
_atom_site_label
_atom_site_fract_x
_atom_site_fract_y
_atom_site_fract_z
Si Si1 0.192430 0.054621 0.578320
Si Si2 0.768799 0.715743 0.924168
Si Si3 0.722427 0.609248 0.919951
Si Si4 0.196570 0.721049 0.921835
Si Si5 0.610522 0.138349 0.578307
Si Si6 0.054970 0.611685 0.081044
O O1 0.175574 0.087787 0.500000
O O2 0.191883 0.062228 0.750000
O O3 0.245961 0.068620 0.526024
O O4 0.155409 0.000000 0.534863
O O5 0.765047 0.714554 0.750000
O O6 0.732244 0.732244 0.986805
O O7 0.754329 0.663115 0.981930
O O8 0.733045 0.604694 0.750000
O O9 0.667387 0.594635 0.942846
O O10 0.736936 0.576800 0.014805
O O11 0.202347 0.731251 0.750000
O O12 0.176899 0.665459 0.958002
O O13 0.247957 0.752044 0.000000
O O14 0.578729 0.157457 0.500000
O O15 0.600316 0.133508 0.750000
O O16 0.595982 0.086052 0.516718
O O17 0.060688 0.601296 0.250000
O O18 0.000000 0.581335 0.029729
#
# Coordination Sequence:
#
# PCOD8330152 Si02
#       6
#    24  24  24  24  24  24
#     4   9  18  32  49  69  93 121 153 191 236 284
#     4   8  14  26  45  69  97 130 167 202 235 273
#     4   9  16  28  48  72  99 133 170 205 237 272
#     4  10  21  36  53  74  99 127 159 196 240 289
#     4  10  21  36  54  75  98 126 160 199 245 293
#     4   9  17  29  47  72 101 135 174 209 239 274
#
# _framework density 17.546499000000001
#
# number of rings (size 3 to 8) (size 9 to 14) (size 15 to 20)
#    0.000    2.833    0.000    2.500    0.000    5.667 
#    0.000    2.500    0.000    3.000    0.000    0.000 
#    0.000    0.000    0.000    0.000    0.000    0.000 
#
# Total GULP energy -1785532.757188 kJ/mol
# GULP energy per Si atom -12399.533036 kJ/mol
# Density = 1.750656 g / cm^3
# Si number density = 17.546499 Si / 1000 Ang^3
#
#
#
# Elastic Constant Matrix: (Units=GPa)
#
#
# Indices 1 2 3 4 5 6 
#
# 1 106.5451 71.1501 52.8814 0.0000 0.0000 0.0000
# 2 71.1501 106.5451 52.8814 0.0000 0.0000 0.0000
# 3 52.8814 52.8814 70.6373 0.0000 0.0000 0.0000
# 4 0.0000 0.0000 0.0000 25.2689 0.0000 0.0000
# 5 0.0000 0.0000 0.0000 0.0000 25.2689 0.0000
# 6 0.0000 0.0000 0.0000 0.0000 0.0000 17.6975
#
#
#
# Elastic Compliance Matrix: (Units=1/GPa)
#
#
# Indices 1 2 3 4 5 6 
#
# 1 0.019202 -0.009051 -0.007599 0.000000 0.000000 0.000000
# 2 -0.009051 0.019202 -0.007599 0.000000 0.000000 0.000000
# 3 -0.007599 -0.007599 0.025535 0.000000 0.000000 0.000000
# 4 0.000000 0.000000 0.000000 0.039574 0.000000 0.000000
# 5 0.000000 0.000000 0.000000 0.000000 0.039574 0.000000
# 6 0.000000 0.000000 0.000000 0.000000 0.000000 0.056505
#
#
# Mechanical properties :
#
#
# Convention : Reuss Voigt Hill
#
# Bulk Modulus (GPa) = 64.76872 70.83926 67.80399
# Shear Modulus (GPa) = 19.74441 20.76800 20.25621
#
# Velocity S-wave (km/s) = 3.35813 3.44408 3.40138
# Velocity P-wave (km/s) = 7.21310 7.50170 7.35882
#
# Compressibility (1/GPa) = 0.01543955
#
# Stress axis : x y z
#
# Youngs Moduli (GPa) = 52.07917 52.07917 39.16262
#
# Poissons Ratio (x) = 0.47137 0.29760
# Poissons Ratio (y) = 0.47137 0.29760
# Poissons Ratio (z) = 0.39575 0.39575
#
# Static dielectric constant tensor:
#      x y z
#    x 3.262220 0.000000 0.000000 
#    y 0.000000 3.262220 0.000000 
#    z 0.000000 0.000000 3.066980 
# 
# 
# High freq. dielectric constant tensor:
#      x y z
#    x 1.671570 0.000000 0.000000 
#    y 0.000000 1.671570 0.000000 
#    z 0.000000 0.000000 1.662200 
# 
# From -- ./inp_files/1588.got.cif
#   From: 2010.03.12/outbox.cif.g09.slc.cpg/sg193_1_cif.got.tgz:1588.got - 2010.04.01 12:20:39.
