data_PCOD8330701
_publ_section_title
;
Structure prediction by ZEFSAII (Michael W. Deem and Ramdas Pophale) SiO2 
 PCOD8330701
Probable space group: P 63/M M C
;
_chemical_formula_sum "Si O2"
_cell_formula_units_Z 144
_cell_length_a 21.164355
_cell_length_b 21.164355
_cell_length_c 20.792020
_cell_angle_alpha 90.000000
_cell_angle_beta 90.000000
_cell_angle_gamma 120.000000
_cell_volume 8065.613204
_symmetry_space_group_name_H-M "P 63/M M C"
_symmetry_group_IT_number 194
_symmetry_cell_setting 'hexagonal'
loop_
_space_group_symop_operation_xyz
x,y,z
x-y,x,1/2+z
-y,x-y,z
-x,-y,1/2+z
-x+y,-x,z
y,-x+y,1/2+z
x-y,-y,-z
-x,-x+y,-z
y,x,-z
-y,-x,1/2-z
-x+y,y,1/2-z
x,x-y,1/2-z
-x,-y,-z
-x+y,-x,1/2-z
y,-x+y,-z
x,y,1/2-z
x-y,x,-z
-y,x-y,1/2-z
-x+y,y,z
x,x-y,z
-y,-x,z
y,x,1/2+z
x-y,-y,1/2+z
-x,-x+y,1/2+z
loop_
_atom_site_type_symbol
_atom_site_label
_atom_site_fract_x
_atom_site_fract_y
_atom_site_fract_z
Si Si1 0.587383 0.868495 0.068263
Si Si2 0.334707 0.522581 0.682229
Si Si3 0.000360 0.853533 0.177110
Si Si4 0.334543 0.816269 0.543252
Si Si5 0.186756 0.520248 0.323417
Si Si6 0.199319 0.950106 0.439078
O O1 0.592247 0.796124 0.068241
O O2 0.546207 0.870975 0.132646
O O3 0.668944 0.936977 0.066414
O O4 0.543056 0.870237 0.006151
O O5 0.348713 0.490668 0.750000
O O6 0.254695 0.509389 0.686483
O O7 0.391161 0.608840 0.678713
O O8 0.341872 0.488898 0.614431
O O9 0.002009 0.827111 0.250000
O O10 0.062992 0.937009 0.167849
O O11 0.010767 0.801596 0.127159
O O12 0.924331 0.848662 0.161770
O O13 0.405726 0.811451 0.525092
O O14 0.265285 0.734716 0.540361
O O15 0.163429 0.497033 0.250000
O O16 0.268741 0.537482 0.336419
O O17 0.184499 0.592250 0.342100
O O18 0.124447 0.875554 0.449293
O O19 0.208658 0.000000 0.500000
#
# Coordination Sequence:
#
# PCOD8330701 Si02
#       6
#    24  24  24  24  24  24
#     4   9  18  29  41  61  89 121 155 191 230 271
#     4   8  12  17  27  46  72 101 134 176 229 286
#     4   9  17  30  51  80 110 133 150 172 208 257
#     4   9  15  23  37  57  82 112 148 193 245 297
#     4   9  16  26  42  65  93 123 155 195 245 298
#     4  10  20  34  52  72  96 127 160 192 224 261
#
# _framework density 17.853570999999999
#
# number of rings (size 3 to 8) (size 9 to 14) (size 15 to 20)
#    0.000    3.000    0.000    1.667    0.000    4.000 
#    0.000    5.000    0.000    5.667    0.000    4.667 
#    0.000    2.667    0.000    0.000    0.000    0.667 
#
# Total GULP energy -1784064.685801 kJ/mol
# GULP energy per Si atom -12389.338096 kJ/mol
# Density = 1.781294 g / cm^3
# Si number density = 17.853571 Si / 1000 Ang^3
#
#
#
# Elastic Constant Matrix: (Units=GPa)
#
#
# Indices 1 2 3 4 5 6 
#
# 1 63.8044 36.6960 60.8648 0.0000 0.0000 0.0000
# 2 36.6960 63.8044 60.8648 0.0000 0.0000 0.0000
# 3 60.8648 60.8648 170.5804 0.0000 0.0000 0.0000
# 4 0.0000 0.0000 0.0000 18.4763 0.0000 0.0000
# 5 0.0000 0.0000 0.0000 0.0000 18.4763 0.0000
# 6 0.0000 0.0000 0.0000 0.0000 0.0000 13.5542
#
#
#
# Elastic Compliance Matrix: (Units=1/GPa)
#
#
# Indices 1 2 3 4 5 6 
#
# 1 0.027206 -0.009683 -0.006253 0.000000 0.000000 0.000000
# 2 -0.009683 0.027206 -0.006253 0.000000 0.000000 0.000000
# 3 -0.006253 -0.006253 0.010324 0.000000 0.000000 0.000000
# 4 0.000000 0.000000 0.000000 0.054123 0.000000 0.000000
# 5 0.000000 0.000000 0.000000 0.000000 0.054123 0.000000
# 6 0.000000 0.000000 0.000000 0.000000 0.000000 0.073778
#
#
# Mechanical properties :
#
#
# Convention : Reuss Voigt Hill
#
# Bulk Modulus (GPa) = 49.11325 68.33782 58.72554
# Shear Modulus (GPa) = 16.78281 19.41895 18.10088
#
# Velocity S-wave (km/s) = 3.06931 3.30158 3.18756
# Velocity P-wave (km/s) = 6.33479 7.27281 6.81995
#
# Compressibility (1/GPa) = 0.02036110
#
# Stress axis : x y z
#
# Youngs Moduli (GPa) = 36.75629 36.75629 96.85875
#
# Poissons Ratio (x) = 0.35590 0.60562
# Poissons Ratio (y) = 0.35590 0.60562
# Poissons Ratio (z) = 0.22982 0.22982
#
# Static dielectric constant tensor:
#      x y z
#    x 3.057310 0.000000 0.000000 
#    y 0.000000 3.057310 0.000000 
#    z 0.000000 0.000000 3.893400 
# 
# 
# High freq. dielectric constant tensor:
#      x y z
#    x 1.654230 0.000000 0.000000 
#    y 0.000000 1.654230 0.000000 
#    z 0.000000 0.000000 1.718580 
# 
# From -- ./inp_files/8197.got.cif
#   From: 2010.03.12/outbox.cif.g09.slc.cpg/sg194_5_cif.got.tgz:8197.got - 2010.04.01 12:26:19.
