data_PCOD8330884
_publ_section_title
;
Structure prediction by ZEFSAII (Michael W. Deem and Ramdas Pophale) SiO2 
 PCOD8330884
Probable space group: P 21 3
;
_chemical_formula_sum "Si O2"
_cell_formula_units_Z 96
_cell_length_a 17.546467
_cell_length_b 17.546467
_cell_length_c 17.546467
_cell_angle_alpha 90.000000
_cell_angle_beta 90.000000
_cell_angle_gamma 90.000000
_cell_volume 5402.180014
_symmetry_space_group_name_H-M "P 21 3"
_symmetry_group_IT_number 198
_symmetry_cell_setting 'cubic'
loop_
_space_group_symop_operation_xyz
x,y,z
z,x,y
y,z,x
1/2-y,-z,1/2+x
1/2+z,1/2-x,-y
-y,1/2+z,1/2-x
1/2-z,-x,1/2+y
-z,1/2+x,1/2-y
1/2+y,1/2-z,-x
1/2-x,-y,1/2+z
1/2+x,1/2-y,-z
-x,1/2+y,1/2-z
loop_
_atom_site_type_symbol
_atom_site_label
_atom_site_fract_x
_atom_site_fract_y
_atom_site_fract_z
Si Si1 0.668002 0.982144 0.523705
Si Si2 0.507744 0.245868 0.874826
Si Si3 0.712100 0.349165 0.382282
Si Si4 0.129373 0.750709 0.482514
Si Si5 0.221368 0.644162 0.374770
Si Si6 0.206748 0.992184 0.095961
Si Si7 0.381342 0.711145 0.074712
Si Si8 0.550718 0.880676 0.447037
O O1 0.727532 0.928407 0.568273
O O2 0.588214 0.939501 0.506317
O O3 0.705485 0.008112 0.444184
O O4 0.637832 0.048557 0.581389
O O5 0.521577 0.174212 0.819998
O O6 0.445260 0.221767 0.937616
O O7 0.481408 0.320114 0.827883
O O8 0.585533 0.263133 0.921268
O O9 0.671386 0.345737 0.301886
O O10 0.799892 0.324048 0.379812
O O11 0.720000 0.435146 0.414186
O O12 0.657222 0.294492 0.432157
O O13 0.182998 0.713365 0.418963
O O14 0.105394 0.693970 0.551381
O O15 0.141767 0.975527 0.033548
O O16 0.310122 0.651642 0.070642
#
# Coordination Sequence:
#
# PCOD8330884 Si02
#       8
#    12  12  12  12  12  12  12  12
#     4  11  19  33  56  87 117 141 185 238 298 345
#     4  11  21  36  53  84 115 153 196 233 295 337
#     4  12  20  35  55  87 117 143 197 237 300 335
#     4  10  19  31  54  77 110 149 191 232 281 346
#     4  11  19  32  56  82 110 151 181 242 284 344
#     4  11  21  33  55  83 118 149 187 247 284 346
#     4  10  19  33  54  84 115 149 181 249 300 335
#     4  10  18  31  53  82 112 143 182 230 292 340
#
# _framework density 17.770603999999999
#
# number of rings (size 3 to 8) (size 9 to 14) (size 15 to 20)
#    0.250    1.000    6.250    2.500    0.000    1.000 
#    0.000    2.500    0.000    0.500    0.000    0.000 
#    1.250    0.000    0.000    0.000    0.000    0.000 
#
# Total GULP energy -1189503.939285 kJ/mol
# GULP energy per Si atom -12390.666034 kJ/mol
# Density = 1.773016 g / cm^3
# Si number density = 17.770604 Si / 1000 Ang^3
#
#
#
# Elastic Constant Matrix: (Units=GPa)
#
#
# Indices 1 2 3 4 5 6 
#
# 1 61.9077 22.7883 22.7883 0.0000 0.0000 0.0000
# 2 22.7883 61.9077 22.7883 0.0000 0.0000 0.0000
# 3 22.7883 22.7883 61.9077 0.0000 0.0000 0.0000
# 4 0.0000 0.0000 0.0000 28.8320 0.0000 0.0000
# 5 0.0000 0.0000 0.0000 0.0000 28.8320 0.0000
# 6 0.0000 0.0000 0.0000 0.0000 0.0000 28.8320
#
#
#
# Elastic Compliance Matrix: (Units=1/GPa)
#
#
# Indices 1 2 3 4 5 6 
#
# 1 0.020143 -0.005420 -0.005420 0.000000 0.000000 0.000000
# 2 -0.005420 0.020143 -0.005420 0.000000 0.000000 0.000000
# 3 -0.005420 -0.005420 0.020143 0.000000 0.000000 0.000000
# 4 0.000000 0.000000 0.000000 0.034684 0.000000 0.000000
# 5 0.000000 0.000000 0.000000 0.000000 0.034684 0.000000
# 6 0.000000 0.000000 0.000000 0.000000 0.000000 0.034684
#
#
# Mechanical properties :
#
#
# Convention : Reuss Voigt Hill
#
# Bulk Modulus (GPa) = 35.82810 35.82810 35.82810
# Shear Modulus (GPa) = 24.23631 25.12309 24.67970
#
# Velocity S-wave (km/s) = 3.69703 3.76406 3.73069
# Velocity P-wave (km/s) = 6.19913 6.25268 6.22597
#
# Compressibility (1/GPa) = 0.02791106
#
# Stress axis : x y z
#
# Youngs Moduli (GPa) = 49.64488 49.64488 49.64488
#
# Poissons Ratio (x) = 0.26906 0.26906
# Poissons Ratio (y) = 0.26906 0.26906
# Poissons Ratio (z) = 0.26906 0.26906
#
# Static dielectric constant tensor:
#      x y z
#    x 3.256720 0.000000 0.000000 
#    y 0.000000 3.256720 0.000000 
#    z 0.000000 0.000000 3.256720 
# 
# 
# High freq. dielectric constant tensor:
#      x y z
#    x 1.671110 0.000000 0.000000 
#    y 0.000000 1.671110 0.000000 
#    z 0.000000 0.000000 1.671110 
# 
# From -- ./inp_files/441.got.cif
#   From: 2010.03.12/outbox.cif.g09.slc.cpg/sg198_cif.got.tgz:441.got - 2010.04.01 12:33:50.
