data_PCOD8330248
_publ_section_title
;
Structure prediction by ZEFSAII (Michael W. Deem and Ramdas Pophale) SiO2 
 PCOD8330248
Probable space group: P 63/M C M
;
_chemical_formula_sum "Si O2"
_cell_formula_units_Z 84
_cell_length_a 20.845230
_cell_length_b 20.845230
_cell_length_c 10.892318
_cell_angle_alpha 90.000000
_cell_angle_beta 90.000000
_cell_angle_gamma 120.000000
_cell_volume 4098.871718
_symmetry_space_group_name_H-M "P 63/M C M"
_symmetry_group_IT_number 193
_symmetry_cell_setting 'hexagonal'
loop_
_space_group_symop_operation_xyz
x,y,z
x-y,x,1/2+z
-y,x-y,z
-x,-y,1/2+z
-x+y,-x,z
y,-x+y,1/2+z
x-y,-y,1/2-z
-x,-x+y,1/2-z
y,x,1/2-z
-y,-x,-z
-x+y,y,-z
x,x-y,-z
-x,-y,-z
-x+y,-x,1/2-z
y,-x+y,-z
x,y,1/2-z
x-y,x,-z
-y,x-y,1/2-z
-x+y,y,1/2+z
x,x-y,1/2+z
-y,-x,1/2+z
y,x,z
x-y,-y,z
-x,-x+y,z
loop_
_atom_site_type_symbol
_atom_site_label
_atom_site_fract_x
_atom_site_fract_y
_atom_site_fract_z
Si Si1 0.665246 0.090203 0.250000
Si Si2 0.149661 0.299321 0.000000
Si Si3 0.301491 0.385249 0.614233
Si Si4 0.182561 0.517603 0.514707
Si Si5 0.814398 0.728867 0.750000
O O1 0.655366 0.132861 0.134438
O O2 0.748961 0.105288 0.250000
O O3 0.606285 0.000000 0.250000
O O4 0.111393 0.349285 0.012265
O O5 0.135357 0.252984 0.126103
O O6 0.267069 0.360717 0.750000
O O7 0.361178 0.361178 0.584849
O O8 0.342473 0.473665 0.601660
O O9 0.256960 0.513920 0.500000
O O10 0.204313 0.602157 0.500000
O O11 0.785854 0.785854 0.750000
#
# Coordination Sequence:
#
# PCOD8330248 Si02
#       5
#    12  12  24  24  12
#     4  11  24  42  66  93 123 160 220 281 335 404
#     4  12  20  38  64  92 132 170 221 266 331 406
#     4  11  23  39  62  91 124 165 211 267 332 400
#     4  12  27  44  65  89 124 170 224 281 339 402
#     4  11  22  38  61  95 135 182 220 265 333 398
#
# _framework density 20.493445000000001
#
# number of rings (size 3 to 8) (size 9 to 14) (size 15 to 20)
#    0.000    0.571    5.714    2.000    4.000    2.286 
#    0.000    0.000    0.000    0.000    0.000    0.000 
#    0.000    0.000    0.000   73.714    0.000    0.000 
#
# Total GULP energy -1040927.711531 kJ/mol
# GULP energy per Si atom -12391.996566 kJ/mol
# Density = 2.044680 g / cm^3
# Si number density = 20.493445 Si / 1000 Ang^3
#
#
#
# Elastic Constant Matrix: (Units=GPa)
#
#
# Indices 1 2 3 4 5 6 
#
# 1 99.7406 64.3016 54.1900 0.0000 0.0000 0.0000
# 2 64.3016 99.7406 54.1900 0.0000 0.0000 0.0000
# 3 54.1900 54.1900 142.7514 0.0000 0.0000 0.0000
# 4 0.0000 0.0000 0.0000 24.0570 0.0000 0.0000
# 5 0.0000 0.0000 0.0000 0.0000 24.0570 0.0000
# 6 0.0000 0.0000 0.0000 0.0000 0.0000 17.7195
#
#
#
# Elastic Compliance Matrix: (Units=1/GPa)
#
#
# Indices 1 2 3 4 5 6 
#
# 1 0.018177 -0.010040 -0.003089 0.000000 0.000000 0.000000
# 2 -0.010040 0.018177 -0.003089 0.000000 0.000000 0.000000
# 3 -0.003089 -0.003089 0.009350 0.000000 0.000000 0.000000
# 4 0.000000 0.000000 0.000000 0.041568 0.000000 0.000000
# 5 0.000000 0.000000 0.000000 0.000000 0.041568 0.000000
# 6 0.000000 0.000000 0.000000 0.000000 0.000000 0.056435
#
#
# Mechanical properties :
#
#
# Convention : Reuss Voigt Hill
#
# Bulk Modulus (GPa) = 75.36628 76.39953 75.88291
# Shear Modulus (GPa) = 22.50892 24.47009 23.48951
#
# Velocity S-wave (km/s) = 3.31773 3.45924 3.38922
# Velocity P-wave (km/s) = 7.17858 7.30179 7.24045
#
# Compressibility (1/GPa) = 0.01326853
#
# Stress axis : x y z
#
# Youngs Moduli (GPa) = 55.01427 55.01427 106.94888
#
# Poissons Ratio (x) = 0.55236 0.33034
# Poissons Ratio (y) = 0.55236 0.33034
# Poissons Ratio (z) = 0.16993 0.16993
#
# Static dielectric constant tensor:
#      x y z
#    x 3.610690 0.000000 0.000000 
#    y 0.000000 3.610690 0.000000 
#    z 0.000000 0.000000 3.805770 
# 
# 
# High freq. dielectric constant tensor:
#      x y z
#    x 1.783510 0.000000 0.000000 
#    y 0.000000 1.783510 0.000000 
#    z 0.000000 0.000000 1.828990 
# 
# From -- ./inp_files/2140.got.cif
#   From: 2010.03.12/outbox.cif.g09.slc.cpg/sg193_2_cif.got.tgz:2140.got - 2010.04.01 12:20:39.
