data_PCOD8330118
_publ_section_title
;
Structure prediction by ZEFSAII (Michael W. Deem and Ramdas Pophale) SiO2 
 PCOD8330118
Probable space group: P 63/M C M
;
_chemical_formula_sum "Si O2"
_cell_formula_units_Z 120
_cell_length_a 14.490327
_cell_length_b 14.490327
_cell_length_c 28.728354
_cell_angle_alpha 90.000000
_cell_angle_beta 90.000000
_cell_angle_gamma 120.000000
_cell_volume 5223.934799
_symmetry_space_group_name_H-M "P 63/M C M"
_symmetry_group_IT_number 193
_symmetry_cell_setting 'hexagonal'
loop_
_space_group_symop_operation_xyz
x,y,z
x-y,x,1/2+z
-y,x-y,z
-x,-y,1/2+z
-x+y,-x,z
y,-x+y,1/2+z
x-y,-y,1/2-z
-x,-x+y,1/2-z
y,x,1/2-z
-y,-x,-z
-x+y,y,-z
x,x-y,-z
-x,-y,-z
-x+y,-x,1/2-z
y,-x+y,-z
x,y,1/2-z
x-y,x,-z
-y,x-y,1/2-z
-x+y,y,1/2+z
x,x-y,1/2+z
-y,-x,1/2+z
y,x,z
x-y,-y,z
-x,-x+y,z
loop_
_atom_site_type_symbol
_atom_site_label
_atom_site_fract_x
_atom_site_fract_y
_atom_site_fract_z
Si Si1 0.449192 0.877119 0.108446
Si Si2 0.321304 0.446789 0.198407
Si Si3 0.468281 0.232860 0.448477
Si Si4 0.234468 0.117266 0.066950
Si Si5 0.120659 0.878994 0.322975
O O1 0.459635 0.834253 0.159665
O O2 0.332178 0.802996 0.087704
O O3 0.530199 0.866093 0.073542
O O4 0.478339 0.000000 0.110006
O O5 0.344387 0.499001 0.250000
O O6 0.374029 0.374029 0.190791
O O7 0.193922 0.365295 0.193041
O O8 0.521486 0.260743 0.500000
O O9 0.346484 0.141712 0.454447
O O10 0.198970 0.198970 0.047566
O O11 0.242252 0.122826 0.122023
O O12 0.147143 0.000000 0.050531
O O13 0.000000 0.832321 0.303695
O O14 0.194689 0.000000 0.304197
#
# Coordination Sequence:
#
# PCOD8330118 Si02
#       5
#    24  24  24  24  24
#     4  11  24  45  68  93 130 170 210 270 340 392
#     4   9  18  36  63  91 124 170 218 265 322 386
#     4  12  25  41  65  96 125 163 221 276 329 397
#     4  10  20  36  59  91 132 175 216 261 318 389
#     4   9  16  29  53  88 131 177 221 265 318 385
#
# _framework density 22.971191000000001
#
# number of rings (size 3 to 8) (size 9 to 14) (size 15 to 20)
#    0.000    1.800    2.000    2.600    0.000    6.000 
#    0.000    1.000    0.000    2.400    0.000    0.000 
#    0.000    0.000    0.000    0.000    0.000    0.000 
#
# Total GULP energy -1487429.601117 kJ/mol
# GULP energy per Si atom -12395.246676 kJ/mol
# Density = 2.291891 g / cm^3
# Si number density = 22.971191 Si / 1000 Ang^3
#
#
#
# Elastic Constant Matrix: (Units=GPa)
#
#
# Indices 1 2 3 4 5 6 
#
# 1 100.4244 38.0758 43.0059 0.0000 0.0000 0.0000
# 2 38.0758 100.4244 43.0059 0.0000 0.0000 0.0000
# 3 43.0059 43.0059 152.9377 0.0000 0.0000 0.0000
# 4 0.0000 0.0000 0.0000 -19.1513 0.0000 0.0000
# 5 0.0000 0.0000 0.0000 0.0000 -19.1513 0.0000
# 6 0.0000 0.0000 0.0000 0.0000 0.0000 31.1743
#
#
#
# Elastic Compliance Matrix: (Units=1/GPa)
#
#
# Indices 1 2 3 4 5 6 
#
# 1 0.012393 -0.003645 -0.002460 0.000000 0.000000 0.000000
# 2 -0.003645 0.012393 -0.002460 0.000000 0.000000 0.000000
# 3 -0.002460 -0.002460 0.007922 0.000000 0.000000 0.000000
# 4 0.000000 0.000000 0.000000 -0.052216 0.000000 0.000000
# 5 0.000000 0.000000 0.000000 0.000000 -0.052216 0.000000
# 6 0.000000 0.000000 0.000000 0.000000 0.000000 0.032078
#
#
# Mechanical properties :
#
#
# Convention : Reuss Voigt Hill
#
# Bulk Modulus (GPa) = 64.19222 66.88461 65.53841
# Shear Modulus (GPa) = -288.65639 13.88759 -137.38440
#
# Velocity S-wave (km/s) = -11.22199 2.46146 -7.74191
# Velocity P-wave (km/s) = 11.82816 6.10396 7.16404
#
# Compressibility (1/GPa) = 0.01557821
#
# Stress axis : x y z
#
# Youngs Moduli (GPa) = 80.68843 80.68843 126.23006
#
# Poissons Ratio (x) = 0.29415 0.31051
# Poissons Ratio (y) = 0.29415 0.31051
# Poissons Ratio (z) = 0.19848 0.19848
#
# Static dielectric constant tensor:
#      x y z
#    x 3.991440 0.000000 0.000000 
#    y 0.000000 3.991440 0.000000 
#    z 0.000000 0.000000 4.230360 
# 
# 
# High freq. dielectric constant tensor:
#      x y z
#    x 1.891090 0.000000 0.000000 
#    y 0.000000 1.891090 0.000000 
#    z 0.000000 0.000000 1.913890 
# 
# From -- ./inp_files/8943.got.cif
#   From: 2010.03.12/outbox.cif.g09.slc.cpg/sg193_5_cif.got.tgz:8943.got - 2010.04.01 12:20:39.
