data_PCOD8330937
_publ_section_title
;
Structure prediction by ZEFSAII (Michael W. Deem and Ramdas Pophale) SiO2 
 PCOD8330937
Probable space group: I M 3
;
_chemical_formula_sum "Si O2"
_cell_formula_units_Z 312
_cell_length_a 27.252845
_cell_length_b 27.252845
_cell_length_c 27.252845
_cell_angle_alpha 90.000000
_cell_angle_beta 90.000000
_cell_angle_gamma 90.000000
_cell_volume 20241.166558
_symmetry_space_group_name_H-M "I M 3"
_symmetry_group_IT_number 204
_symmetry_cell_setting 'cubic'
loop_
_space_group_symop_operation_xyz
x,y,z
z,x,y
y,z,x
-y,-z,x
z,-x,-y
-y,z,-x
-z,-x,y
-z,x,-y
y,-z,-x
-x,-y,z
x,-y,-z
-x,y,-z
-x,-y,-z
-z,-x,-y
-y,-z,-x
y,z,-x
-z,x,y
y,-z,x
z,x,-y
z,-x,y
-y,z,x
x,y,-z
-x,y,z
x,-y,z
1/2+x,1/2+y,1/2+z
1/2+z,1/2+x,1/2+y
1/2+y,1/2+z,1/2+x
1/2-y,1/2-z,1/2+x
1/2+z,1/2-x,1/2-y
1/2-y,1/2+z,1/2-x
1/2-z,1/2-x,1/2+y
1/2-z,1/2+x,1/2-y
1/2+y,1/2-z,1/2-x
1/2-x,1/2-y,1/2+z
1/2+x,1/2-y,1/2-z
1/2-x,1/2+y,1/2-z
1/2-x,1/2-y,1/2-z
1/2-z,1/2-x,1/2-y
1/2-y,1/2-z,1/2-x
1/2+y,1/2+z,1/2-x
1/2-z,1/2+x,1/2+y
1/2+y,1/2-z,1/2+x
1/2+z,1/2+x,1/2-y
1/2+z,1/2-x,1/2+y
1/2-y,1/2+z,1/2+x
1/2+x,1/2+y,1/2-z
1/2-x,1/2+y,1/2+z
1/2+x,1/2-y,1/2+z
loop_
_atom_site_type_symbol
_atom_site_label
_atom_site_fract_x
_atom_site_fract_y
_atom_site_fract_z
Si Si1 0.396305 0.056425 0.094955
Si Si2 0.292749 0.865004 0.772555
Si Si3 0.366870 0.055734 0.204752
Si Si4 0.944242 0.353287 0.850866
Si Si5 0.293711 0.640555 0.799088
Si Si6 0.214517 0.944631 0.444347
Si Si7 0.000000 0.557801 0.554119
O O1 0.391345 0.064166 0.152506
O O2 0.356660 0.091043 0.067536
O O3 0.451251 0.074006 0.082544
O O4 0.386240 0.000000 0.079055
O O5 0.315952 0.915335 0.791528
O O6 0.334157 0.841843 0.737585
O O7 0.242448 0.876222 0.744259
O O8 0.278855 0.831041 0.818618
O O9 0.407816 0.073177 0.243193
O O10 0.352035 0.000000 0.213950
O O11 0.907444 0.316961 0.822779
O O12 0.937321 0.408486 0.831168
O O13 0.000000 0.334261 0.843288
O O14 0.196989 0.933376 0.500000
O O15 0.235512 0.000000 0.440563
O O16 0.000000 0.500000 0.548417
O O17 0.000000 0.582466 0.500000
#
# Coordination Sequence:
#
# PCOD8330937 Si02
#       7
#    48  48  48  48  48  48  24
#     4  10  21  34  50  71  96 130 169 206 241 284
#     4  10  19  35  53  70  95 118 153 194 234 288
#     4  10  19  32  51  71  93 125 159 195 243 293
#     4  11  21  33  50  72  97 124 157 197 246 290
#     4  10  20  34  53  73  92 120 154 191 238 287
#     4   9  19  33  47  66  94 127 161 200 243 287
#     4   9  18  32  48  70  96 128 170 208 237 271
#
# _framework density 15.414132
#
# number of rings (size 3 to 8) (size 9 to 14) (size 15 to 20)
#    0.000    2.077    3.077    0.769    2.154    2.769 
#    0.000    0.000    0.000    0.000    0.000    0.000 
#    0.000    0.000    0.000    0.000    0.000    0.000 
#
# Total GULP energy -1934132.983929 kJ/mol
# GULP energy per Si atom -12398.288359 kJ/mol
# Density = 1.537905 g / cm^3
# Si number density = 15.414132 Si / 1000 Ang^3
#
#
#
# Elastic Constant Matrix: (Units=GPa)
#
#
# Indices 1 2 3 4 5 6 
#
# 1 81.0234 45.3913 45.3913 0.0000 0.0000 0.0000
# 2 45.3913 81.0234 45.3913 0.0000 0.0000 0.0000
# 3 45.3913 45.3913 81.0234 0.0000 0.0000 0.0000
# 4 0.0000 0.0000 0.0000 25.2937 0.0000 0.0000
# 5 0.0000 0.0000 0.0000 0.0000 25.2937 0.0000
# 6 0.0000 0.0000 0.0000 0.0000 0.0000 25.2937
#
#
#
# Elastic Compliance Matrix: (Units=1/GPa)
#
#
# Indices 1 2 3 4 5 6 
#
# 1 0.020650 -0.007415 -0.007415 0.000000 0.000000 0.000000
# 2 -0.007415 0.020650 -0.007415 0.000000 0.000000 0.000000
# 3 -0.007415 -0.007415 0.020650 0.000000 0.000000 0.000000
# 4 0.000000 0.000000 0.000000 0.039536 0.000000 0.000000
# 5 0.000000 0.000000 0.000000 0.000000 0.039536 0.000000
# 6 0.000000 0.000000 0.000000 0.000000 0.000000 0.039536
#
#
# Mechanical properties :
#
#
# Convention : Reuss Voigt Hill
#
# Bulk Modulus (GPa) = 57.26868 57.26868 57.26868
# Shear Modulus (GPa) = 21.65768 22.30263 21.98016
#
# Velocity S-wave (km/s) = 3.75247 3.80793 3.78030
# Velocity P-wave (km/s) = 7.48390 7.52116 7.50255
#
# Compressibility (1/GPa) = 0.01746155
#
# Stress axis : x y z
#
# Youngs Moduli (GPa) = 48.42643 48.42643 48.42643
#
# Poissons Ratio (x) = 0.35907 0.35907
# Poissons Ratio (y) = 0.35907 0.35907
# Poissons Ratio (z) = 0.35907 0.35907
#
# Static dielectric constant tensor:
#      x y z
#    x 2.909100 0.000000 0.000000 
#    y 0.000000 2.909100 0.000000 
#    z 0.000000 0.000000 2.909100 
# 
# 
# High freq. dielectric constant tensor:
#      x y z
#    x 1.581500 0.000000 0.000000 
#    y 0.000000 1.581500 0.000000 
#    z 0.000000 0.000000 1.581500 
# 
# From -- ./inp_files/665.got.cif
#   From: 2010.03.12/outbox.cif.g09.slc.cpg/sg204_cif.got.tgz:665.got - 2010.03.30 09:02:39.
