data_PCOD8330312
_publ_section_title
;
Structure prediction by ZEFSAII (Michael W. Deem and Ramdas Pophale) SiO2 
 PCOD8330312
Probable space group: P 63/M M C
;
_chemical_formula_sum "Si O2"
_cell_formula_units_Z 168
_cell_length_a 22.118425
_cell_length_b 22.118425
_cell_length_c 25.889756
_cell_angle_alpha 90.000000
_cell_angle_beta 90.000000
_cell_angle_gamma 120.000000
_cell_volume 10968.998736
_symmetry_space_group_name_H-M "P 63/M M C"
_symmetry_group_IT_number 194
_symmetry_cell_setting 'hexagonal'
loop_
_space_group_symop_operation_xyz
x,y,z
x-y,x,1/2+z
-y,x-y,z
-x,-y,1/2+z
-x+y,-x,z
y,-x+y,1/2+z
x-y,-y,-z
-x,-x+y,-z
y,x,-z
-y,-x,1/2-z
-x+y,y,1/2-z
x,x-y,1/2-z
-x,-y,-z
-x+y,-x,1/2-z
y,-x+y,-z
x,y,1/2-z
x-y,x,-z
-y,x-y,1/2-z
-x+y,y,z
x,x-y,z
-y,-x,z
y,x,1/2+z
x-y,-y,1/2+z
-x,-x+y,1/2+z
loop_
_atom_site_type_symbol
_atom_site_label
_atom_site_fract_x
_atom_site_fract_y
_atom_site_fract_z
Si Si1 0.453697 0.412482 0.946345
Si Si2 0.210870 0.278470 0.646744
Si Si3 0.854276 0.571513 0.500933
Si Si4 0.135471 0.134851 0.688953
Si Si5 0.576052 0.859398 0.690976
Si Si6 0.621564 0.521029 0.402889
Si Si7 0.203929 0.932057 0.969516
O O1 0.534405 0.465596 0.933424
O O2 0.446165 0.336120 0.950874
O O3 0.404117 0.421251 0.904356
O O4 0.431722 0.431722 0.000000
O O5 0.138311 0.276622 0.650334
O O6 0.201950 0.207792 0.671581
O O7 0.266950 0.345544 0.678586
O O8 0.235591 0.283382 0.587931
O O9 0.772982 0.545963 0.512733
O O10 0.857713 0.535469 0.447748
O O11 0.897391 0.654498 0.497589
O O12 0.132676 0.131651 0.750000
O O13 0.144446 0.072223 0.665904
O O14 0.063417 0.126833 0.667068
O O15 0.557457 0.866679 0.750000
O O16 0.568463 0.784232 0.681130
O O17 0.523725 0.868209 0.652673
O O18 0.555876 0.444125 0.411825
O O19 0.120888 0.879113 0.967872
O O20 0.216082 0.000000 0.000000
#
# Coordination Sequence:
#
# PCOD8330312 Si02
#       7
#    24  24  24  24  24  24  24
#     4   8  15  27  44  65  87 113 141 174 212 252
#     4   9  17  29  43  59  80 111 145 177 213 255
#     4  10  17  27  45  67  91 115 140 175 215 257
#     4   9  16  26  41  60  80 103 135 177 221 260
#     4  10  19  31  47  65  86 114 148 184 219 254
#     4  10  18  29  47  67  88 115 147 183 217 251
#     4  10  19  29  43  62  85 111 141 178 215 252
#
# _framework density 15.315892
#
# number of rings (size 3 to 8) (size 9 to 14) (size 15 to 20)
#    0.000    2.571    1.429    3.571    0.000    3.143 
#    0.000    0.000    0.000    5.286    0.000    0.000 
#    0.000    0.000    0.000    0.000    0.000    0.000 
#
# Total GULP energy -2082235.872270 kJ/mol
# GULP energy per Si atom -12394.261144 kJ/mol
# Density = 1.528103 g / cm^3
# Si number density = 15.315892 Si / 1000 Ang^3
#
#
#
# Elastic Constant Matrix: (Units=GPa)
#
#
# Indices 1 2 3 4 5 6 
#
# 1 71.7489 32.7339 21.2624 0.0000 0.0000 0.0000
# 2 32.7339 71.7489 21.2624 0.0000 0.0000 0.0000
# 3 21.2624 21.2624 54.3666 0.0000 0.0000 0.0000
# 4 0.0000 0.0000 0.0000 18.8688 0.0000 0.0000
# 5 0.0000 0.0000 0.0000 0.0000 18.8688 0.0000
# 6 0.0000 0.0000 0.0000 0.0000 0.0000 19.5075
#
#
#
# Elastic Compliance Matrix: (Units=1/GPa)
#
#
# Indices 1 2 3 4 5 6 
#
# 1 0.018507 -0.007124 -0.004452 0.000000 0.000000 0.000000
# 2 -0.007124 0.018507 -0.004452 0.000000 0.000000 0.000000
# 3 -0.004452 -0.004452 0.021876 0.000000 0.000000 0.000000
# 4 0.000000 0.000000 0.000000 0.052998 0.000000 0.000000
# 5 0.000000 0.000000 0.000000 0.000000 0.052998 0.000000
# 6 0.000000 0.000000 0.000000 0.000000 0.000000 0.051262
#
#
# Mechanical properties :
#
#
# Convention : Reuss Voigt Hill
#
# Bulk Modulus (GPa) = 37.26556 38.70907 37.98731
# Shear Modulus (GPa) = 19.44412 19.62275 19.53343
#
# Velocity S-wave (km/s) = 3.56692 3.58327 3.57511
# Velocity P-wave (km/s) = 6.43025 6.51525 6.47289
#
# Compressibility (1/GPa) = 0.02683443
#
# Stress axis : x y z
#
# Youngs Moduli (GPa) = 54.03371 54.03371 45.71276
#
# Poissons Ratio (x) = 0.38494 0.20350
# Poissons Ratio (y) = 0.38494 0.20350
# Poissons Ratio (z) = 0.24054 0.24054
#
# Static dielectric constant tensor:
#      x y z
#    x 2.986040 0.000000 0.000000 
#    y 0.000000 2.986040 0.000000 
#    z 0.000000 0.000000 2.831370 
# 
# 
# High freq. dielectric constant tensor:
#      x y z
#    x 1.574740 0.000000 0.000000 
#    y 0.000000 1.574740 0.000000 
#    z 0.000000 0.000000 1.560550 
# 
# From -- ./inp_files/11104.got.cif
#   From: 2010.03.12/outbox.cif.g09.slc.cpg/sg194_6_cif.got.tgz:11104.got - 2010.04.01 12:26:19.
