data_PCOD8330680
_publ_section_title
;
Structure prediction by ZEFSAII (Michael W. Deem and Ramdas Pophale) SiO2 
 PCOD8330680
Probable space group: P 63/M M C
;
_chemical_formula_sum "Si O2"
_cell_formula_units_Z 72
_cell_length_a 12.565422
_cell_length_b 12.565422
_cell_length_c 30.529288
_cell_angle_alpha 90.000000
_cell_angle_beta 90.000000
_cell_angle_gamma 120.000000
_cell_volume 4174.471158
_symmetry_space_group_name_H-M "P 63/M M C"
_symmetry_group_IT_number 194
_symmetry_cell_setting 'hexagonal'
loop_
_space_group_symop_operation_xyz
x,y,z
x-y,x,1/2+z
-y,x-y,z
-x,-y,1/2+z
-x+y,-x,z
y,-x+y,1/2+z
x-y,-y,-z
-x,-x+y,-z
y,x,-z
-y,-x,1/2-z
-x+y,y,1/2-z
x,x-y,1/2-z
-x,-y,-z
-x+y,-x,1/2-z
y,-x+y,-z
x,y,1/2-z
x-y,x,-z
-y,x-y,1/2-z
-x+y,y,z
x,x-y,z
-y,-x,z
y,x,1/2+z
x-y,-y,1/2+z
-x,-x+y,1/2+z
loop_
_atom_site_type_symbol
_atom_site_label
_atom_site_fract_x
_atom_site_fract_y
_atom_site_fract_z
Si Si1 0.418670 0.083746 0.040743
Si Si2 0.421962 0.333654 0.299944
Si Si3 0.579863 0.665620 0.377358
O O1 0.560715 0.121429 0.037616
O O2 0.409843 0.204922 0.039631
O O3 0.357980 0.012446 0.085285
O O4 0.343230 0.000000 0.000000
O O5 0.381236 0.334142 0.250000
O O6 0.407872 0.203936 0.312849
O O7 0.563831 0.436170 0.307353
O O8 0.334911 0.361019 0.330615
O O9 0.593233 0.796617 0.385110
O O10 0.436537 0.563464 0.378999
#
# Coordination Sequence:
#
# PCOD8330680 Si02
#       3
#    24  24  24
#     4  10  20  34  54  78 102 128 159 198 243 289
#     4   9  17  30  50  75 100 126 158 200 249 296
#     4  10  20  33  50  72  99 131 165 202 244 289
#
# _framework density 17.247693000000002
#
# number of rings (size 3 to 8) (size 9 to 14) (size 15 to 20)
#    0.000    2.333    0.000    3.000    0.000    2.000 
#    0.000    6.667    0.000   14.667    0.000    0.000 
#    0.000    0.000    0.000    0.000    0.000    0.000 
#
# Total GULP energy -893000.838036 kJ/mol
# GULP energy per Si atom -12402.789417 kJ/mol
# Density = 1.720844 g / cm^3
# Si number density = 17.247693 Si / 1000 Ang^3
#
#
#
# Elastic Constant Matrix: (Units=GPa)
#
#
# Indices 1 2 3 4 5 6 
#
# 1 109.9679 69.2381 51.1621 0.0000 0.0000 0.0000
# 2 69.2381 109.9679 51.1621 0.0000 0.0000 0.0000
# 3 51.1621 51.1621 106.6823 0.0000 0.0000 0.0000
# 4 0.0000 0.0000 0.0000 19.3415 0.0000 0.0000
# 5 0.0000 0.0000 0.0000 0.0000 19.3415 0.0000
# 6 0.0000 0.0000 0.0000 0.0000 0.0000 20.3649
#
#
#
# Elastic Compliance Matrix: (Units=1/GPa)
#
#
# Indices 1 2 3 4 5 6 
#
# 1 0.016118 -0.008434 -0.003685 0.000000 0.000000 0.000000
# 2 -0.008434 0.016118 -0.003685 0.000000 0.000000 0.000000
# 3 -0.003685 -0.003685 0.012908 0.000000 0.000000 0.000000
# 4 0.000000 0.000000 0.000000 0.051702 0.000000 0.000000
# 5 0.000000 0.000000 0.000000 0.000000 0.051702 0.000000
# 6 0.000000 0.000000 0.000000 0.000000 0.000000 0.049104
#
#
# Mechanical properties :
#
#
# Convention : Reuss Voigt Hill
#
# Bulk Modulus (GPa) = 73.87625 74.41585 74.14605
# Shear Modulus (GPa) = 21.38820 22.14666 21.76743
#
# Velocity S-wave (km/s) = 3.52527 3.58723 3.55639
# Velocity P-wave (km/s) = 7.71334 7.77153 7.74249
#
# Compressibility (1/GPa) = 0.01353615
#
# Stress axis : x y z
#
# Youngs Moduli (GPa) = 62.04163 62.04163 77.46948
#
# Poissons Ratio (x) = 0.52325 0.28549
# Poissons Ratio (y) = 0.52325 0.28549
# Poissons Ratio (z) = 0.22864 0.22864
#
# Static dielectric constant tensor:
#      x y z
#    x 3.023620 0.000000 0.000000 
#    y 0.000000 3.023620 0.000000 
#    z 0.000000 0.000000 3.529620 
# 
# 
# High freq. dielectric constant tensor:
#      x y z
#    x 1.653350 0.000000 0.000000 
#    y 0.000000 1.653350 0.000000 
#    z 0.000000 0.000000 1.687440 
# 
# From -- ./inp_files/11281.got.cif
#   From: 2010.03.12/outbox.cif.g09.slc.cpg/sg194_6_cif.got.tgz:11281.got - 2010.04.01 12:26:19.
