data_PCOD8330233
_publ_section_title
;
Structure prediction by ZEFSAII (Michael W. Deem and Ramdas Pophale) SiO2 
 PCOD8330233
Probable space group: P 63/M C M
;
_chemical_formula_sum "Si O2"
_cell_formula_units_Z 144
_cell_length_a 22.256631
_cell_length_b 22.256631
_cell_length_c 19.172474
_cell_angle_alpha 90.000000
_cell_angle_beta 90.000000
_cell_angle_gamma 120.000000
_cell_volume 8224.843447
_symmetry_space_group_name_H-M "P 63/M C M"
_symmetry_group_IT_number 193
_symmetry_cell_setting 'hexagonal'
loop_
_space_group_symop_operation_xyz
x,y,z
x-y,x,1/2+z
-y,x-y,z
-x,-y,1/2+z
-x+y,-x,z
y,-x+y,1/2+z
x-y,-y,1/2-z
-x,-x+y,1/2-z
y,x,1/2-z
-y,-x,-z
-x+y,y,-z
x,x-y,-z
-x,-y,-z
-x+y,-x,1/2-z
y,-x+y,-z
x,y,1/2-z
x-y,x,-z
-y,x-y,1/2-z
-x+y,y,1/2+z
x,x-y,1/2+z
-y,-x,1/2+z
y,x,z
x-y,-y,z
-x,-x+y,z
loop_
_atom_site_type_symbol
_atom_site_label
_atom_site_fract_x
_atom_site_fract_y
_atom_site_fract_z
Si Si1 0.080385 0.627264 0.947510
Si Si2 0.918766 0.499424 0.399893
Si Si3 0.918835 0.786565 0.577594
Si Si4 0.137781 0.423319 0.669312
Si Si5 0.000000 0.294657 0.831360
Si Si6 0.000000 0.844301 0.332912
Si Si7 0.374492 0.161167 0.423471
O O1 0.106500 0.582238 0.903551
O O2 0.113061 0.704636 0.920291
O O3 0.000000 0.594116 0.934423
O O4 0.095898 0.622510 0.028052
O O5 0.870657 0.509354 0.343031
O O6 0.000000 0.543452 0.379779
O O7 0.897511 0.795022 0.500000
O O8 0.904327 0.834406 0.631166
O O9 0.879295 0.705899 0.601322
O O10 0.000000 0.813102 0.579449
O O11 0.148792 0.414834 0.750000
O O12 0.200227 0.423502 0.628450
O O13 0.068249 0.358620 0.636315
O O14 0.000000 0.307710 0.750000
O O15 0.000000 0.225592 0.850261
O O16 0.000000 0.858740 0.250000
O O17 0.380005 0.190003 0.500000
#
# Coordination Sequence:
#
# PCOD8330233 Si02
#       7
#    24  24  24  24  12  12  24
#     4   9  18  33  53  80 114 142 175 219 267 323
#     4   9  17  31  53  80 109 140 171 217 269 317
#     4  11  23  38  57  81 112 148 187 238 296 347
#     4  11  20  32  54  83 112 142 180 229 276 318
#     4   9  18  32  52  78 112 141 174 232 280 317
#     4  11  22  40  59  79 109 147 193 241 290 345
#     4  11  21  33  55  85 114 147 184 224 276 338
#
# _framework density 17.507930999999999
#
# number of rings (size 3 to 8) (size 9 to 14) (size 15 to 20)
#    0.000    1.833    5.000    1.500    0.000    0.333 
#    0.500    1.250    0.000    3.167    4.333    0.000 
#    0.000    0.000    0.000    0.000    0.000    0.000 
#
# Total GULP energy -1785148.947909 kJ/mol
# GULP energy per Si atom -12396.867694 kJ/mol
# Density = 1.746808 g / cm^3
# Si number density = 17.507931 Si / 1000 Ang^3
#
#
#
# Elastic Constant Matrix: (Units=GPa)
#
#
# Indices 1 2 3 4 5 6 
#
# 1 82.4286 32.9218 30.9507 0.0000 0.0000 0.0000
# 2 32.9218 82.4286 30.9507 0.0000 0.0000 0.0000
# 3 30.9507 30.9507 70.8896 0.0000 0.0000 0.0000
# 4 0.0000 0.0000 0.0000 23.8037 0.0000 0.0000
# 5 0.0000 0.0000 0.0000 0.0000 23.8037 0.0000
# 6 0.0000 0.0000 0.0000 0.0000 0.0000 24.7534
#
#
#
# Elastic Compliance Matrix: (Units=1/GPa)
#
#
# Indices 1 2 3 4 5 6 
#
# 1 0.015761 -0.004439 -0.004943 0.000000 0.000000 0.000000
# 2 -0.004439 0.015761 -0.004943 0.000000 0.000000 0.000000
# 3 -0.004943 -0.004943 0.018423 0.000000 0.000000 0.000000
# 4 0.000000 0.000000 0.000000 0.042010 0.000000 0.000000
# 5 0.000000 0.000000 0.000000 0.000000 0.042010 0.000000
# 6 0.000000 0.000000 0.000000 0.000000 0.000000 0.040398
#
#
# Mechanical properties :
#
#
# Convention : Reuss Voigt Hill
#
# Bulk Modulus (GPa) = 46.96167 47.26589 47.11378
# Shear Modulus (GPa) = 23.79692 23.86707 23.83199
#
# Velocity S-wave (km/s) = 3.69074 3.69618 3.69346
# Velocity P-wave (km/s) = 6.71144 6.72838 6.71992
#
# Compressibility (1/GPa) = 0.02129396
#
# Stress axis : x y z
#
# Youngs Moduli (GPa) = 63.44935 63.44935 54.28025
#
# Poissons Ratio (x) = 0.28163 0.26832
# Poissons Ratio (y) = 0.28163 0.26832
# Poissons Ratio (z) = 0.31364 0.31364
#
# Static dielectric constant tensor:
#      x y z
#    x 3.272520 0.000000 0.000000 
#    y 0.000000 3.272520 0.000000 
#    z 0.000000 0.000000 3.011390 
# 
# 
# High freq. dielectric constant tensor:
#      x y z
#    x 1.668880 0.000000 0.000000 
#    y 0.000000 1.668880 0.000000 
#    z 0.000000 0.000000 1.661350 
# 
# From -- ./inp_files/6644.got.cif
#   From: 2010.03.12/outbox.cif.g09.slc.cpg/sg193_4_cif.got.tgz:6644.got - 2010.04.01 12:20:39.
