data_PCOD8330380
_publ_section_title
;
Structure prediction by ZEFSAII (Michael W. Deem and Ramdas Pophale) SiO2 
 PCOD8330380
Probable space group: P 63/M M C
;
_chemical_formula_sum "Si O2"
_cell_formula_units_Z 168
_cell_length_a 21.191416
_cell_length_b 21.191416
_cell_length_c 25.350954
_cell_angle_alpha 90.000000
_cell_angle_beta 90.000000
_cell_angle_gamma 120.000000
_cell_volume 9859.273016
_symmetry_space_group_name_H-M "P 63/M M C"
_symmetry_group_IT_number 194
_symmetry_cell_setting 'hexagonal'
loop_
_space_group_symop_operation_xyz
x,y,z
x-y,x,1/2+z
-y,x-y,z
-x,-y,1/2+z
-x+y,-x,z
y,-x+y,1/2+z
x-y,-y,-z
-x,-x+y,-z
y,x,-z
-y,-x,1/2-z
-x+y,y,1/2-z
x,x-y,1/2-z
-x,-y,-z
-x+y,-x,1/2-z
y,-x+y,-z
x,y,1/2-z
x-y,x,-z
-y,x-y,1/2-z
-x+y,y,z
x,x-y,z
-y,-x,z
y,x,1/2+z
x-y,-y,1/2+z
-x,-x+y,1/2+z
loop_
_atom_site_type_symbol
_atom_site_label
_atom_site_fract_x
_atom_site_fract_y
_atom_site_fract_z
Si Si1 0.673154 0.649730 0.691651
Si Si2 0.605687 0.874826 0.093536
Si Si3 0.764448 0.955248 0.053016
Si Si4 0.816697 0.482807 0.987869
Si Si5 0.214724 0.932380 0.631106
Si Si6 0.519631 0.892691 0.691764
Si Si7 0.710231 0.145878 0.410756
O O1 0.697354 0.639069 0.750000
O O2 0.696006 0.610674 0.648142
O O3 0.710076 0.737335 0.682552
O O4 0.586291 0.611725 0.688392
O O5 0.597179 0.798590 0.110421
O O6 0.677369 0.919652 0.057466
O O7 0.535642 0.862021 0.060418
O O8 0.787800 0.893900 0.056106
O O9 0.804322 0.012673 0.100581
O O10 0.793564 0.000000 0.000000
O O11 0.735334 0.470668 0.990698
O O12 0.811085 0.405543 0.978990
O O13 0.864299 0.520253 0.041180
O O14 0.141637 0.858364 0.647560
O O15 0.267786 0.916971 0.592923
O O16 0.517948 0.859224 0.750000
O O17 0.448520 0.897039 0.681211
O O18 0.525274 0.843737 0.645777
O O19 0.781348 0.218653 0.426165
#
# Coordination Sequence:
#
# PCOD8330380 Si02
#       7
#    24  24  24  24  24  24  24
#     4   9  18  31  48  71  94 116 149 190 228 275
#     4   9  19  33  48  68  93 120 150 188 236 282
#     4  10  18  29  47  68  92 123 157 190 224 267
#     4  10  19  31  47  67  92 122 158 199 240 282
#     4   9  17  30  48  69  95 124 151 185 230 274
#     4   9  17  29  44  64  95 130 157 186 227 270
#     4   9  17  29  47  69  91 121 161 199 233 270
#
# _framework density 17.039795999999999
#
# number of rings (size 3 to 8) (size 9 to 14) (size 15 to 20)
#    0.000    2.714    0.000    1.857    0.000    3.714 
#    0.000    2.857    0.000   11.857    0.000    0.000 
#    0.000    1.143    0.000    0.857    0.000    0.000 
#
# Total GULP energy -2082009.916671 kJ/mol
# GULP energy per Si atom -12392.916171 kJ/mol
# Density = 1.700101 g / cm^3
# Si number density = 17.039796 Si / 1000 Ang^3
#
#
#
# Elastic Constant Matrix: (Units=GPa)
#
#
# Indices 1 2 3 4 5 6 
#
# 1 58.5532 14.9429 29.9806 0.0000 0.0000 0.0000
# 2 14.9429 58.5532 29.9806 0.0000 0.0000 0.0000
# 3 29.9806 29.9806 101.3563 0.0000 0.0000 0.0000
# 4 0.0000 0.0000 0.0000 20.7354 0.0000 0.0000
# 5 0.0000 0.0000 0.0000 0.0000 20.7354 0.0000
# 6 0.0000 0.0000 0.0000 0.0000 0.0000 21.8051
#
#
#
# Elastic Compliance Matrix: (Units=1/GPa)
#
#
# Indices 1 2 3 4 5 6 
#
# 1 0.020432 -0.002498 -0.005305 0.000000 0.000000 0.000000
# 2 -0.002498 0.020432 -0.005305 0.000000 0.000000 0.000000
# 3 -0.005305 -0.005305 0.013004 0.000000 0.000000 0.000000
# 4 0.000000 0.000000 0.000000 0.048227 0.000000 0.000000
# 5 0.000000 0.000000 0.000000 0.000000 0.048227 0.000000
# 6 0.000000 0.000000 0.000000 0.000000 0.000000 0.045861
#
#
# Mechanical properties :
#
#
# Convention : Reuss Voigt Hill
#
# Bulk Modulus (GPa) = 36.16195 40.91899 38.54047
# Shear Modulus (GPa) = 21.58744 22.22577 21.90661
#
# Velocity S-wave (km/s) = 3.56319 3.61549 3.58944
# Velocity P-wave (km/s) = 6.18034 6.44166 6.31235
#
# Compressibility (1/GPa) = 0.02765338
#
# Stress axis : x y z
#
# Youngs Moduli (GPa) = 48.94235 48.94235 76.89690
#
# Poissons Ratio (x) = 0.12227 0.40792
# Poissons Ratio (y) = 0.12227 0.40792
# Poissons Ratio (z) = 0.25963 0.25963
#
# Static dielectric constant tensor:
#      x y z
#    x 3.134450 0.000000 0.000000 
#    y 0.000000 3.134450 0.000000 
#    z 0.000000 0.000000 3.298700 
# 
# 
# High freq. dielectric constant tensor:
#      x y z
#    x 1.643310 0.000000 0.000000 
#    y 0.000000 1.643310 0.000000 
#    z 0.000000 0.000000 1.658810 
# 
# From -- ./inp_files/9836.got.cif
#   From: 2010.03.12/outbox.cif.g09.slc.cpg/sg194_5_cif.got.tgz:9836.got - 2010.04.01 12:26:19.
