data_PCOD8330679
_publ_section_title
;
Structure prediction by ZEFSAII (Michael W. Deem and Ramdas Pophale) SiO2 
 PCOD8330679
Probable space group: P 63/M M C
;
_chemical_formula_sum "Si O2"
_cell_formula_units_Z 72
_cell_length_a 12.589103
_cell_length_b 12.589103
_cell_length_c 30.460343
_cell_angle_alpha 90.000000
_cell_angle_beta 90.000000
_cell_angle_gamma 120.000000
_cell_volume 4180.757666
_symmetry_space_group_name_H-M "P 63/M M C"
_symmetry_group_IT_number 194
_symmetry_cell_setting 'hexagonal'
loop_
_space_group_symop_operation_xyz
x,y,z
x-y,x,1/2+z
-y,x-y,z
-x,-y,1/2+z
-x+y,-x,z
y,-x+y,1/2+z
x-y,-y,-z
-x,-x+y,-z
y,x,-z
-y,-x,1/2-z
-x+y,y,1/2-z
x,x-y,1/2-z
-x,-y,-z
-x+y,-x,1/2-z
y,-x+y,-z
x,y,1/2-z
x-y,x,-z
-y,x-y,1/2-z
-x+y,y,z
x,x-y,z
-y,-x,z
y,x,1/2+z
x-y,-y,1/2+z
-x,-x+y,1/2+z
loop_
_atom_site_type_symbol
_atom_site_label
_atom_site_fract_x
_atom_site_fract_y
_atom_site_fract_z
Si Si1 0.243817 0.999907 0.799880
Si Si2 0.915884 0.334984 0.959360
Si Si3 0.913512 0.333812 0.122490
O O1 0.287623 0.002241 0.750000
O O2 0.258856 0.129428 0.813500
O O3 0.328646 0.970643 0.830911
O O4 0.101545 0.898456 0.805556
O O5 0.878234 0.439117 0.963058
O O6 0.795168 0.204833 0.960196
O O7 0.987340 0.346812 0.914687
O O8 0.000000 0.342911 0.000000
O O9 0.878303 0.439152 0.124842
O O10 0.791953 0.208048 0.110911
#
# Coordination Sequence:
#
# PCOD8330679 Si02
#       3
#    24  24  24
#     4   9  17  30  49  72  97 126 161 201 244 289
#     4  10  20  34  53  75  99 128 162 200 241 286
#     4  10  20  33  50  72  99 131 165 201 241 286
#
# _framework density 17.221758999999999
#
# number of rings (size 3 to 8) (size 9 to 14) (size 15 to 20)
#    0.000    2.333    0.000    3.000    0.000    2.000 
#    0.000    3.333    0.000   10.667    0.000    0.000 
#    0.000    0.000    0.000    0.000    0.000    0.000 
#
# Total GULP energy -892990.178717 kJ/mol
# GULP energy per Si atom -12402.641371 kJ/mol
# Density = 1.718256 g / cm^3
# Si number density = 17.221759 Si / 1000 Ang^3
#
#
#
# Elastic Constant Matrix: (Units=GPa)
#
#
# Indices 1 2 3 4 5 6 
#
# 1 110.3838 65.7178 54.2332 0.0000 0.0000 0.0000
# 2 65.7178 110.3838 54.2332 0.0000 0.0000 0.0000
# 3 54.2332 54.2332 104.0665 0.0000 0.0000 0.0000
# 4 0.0000 0.0000 0.0000 24.2964 0.0000 0.0000
# 5 0.0000 0.0000 0.0000 0.0000 24.2964 0.0000
# 6 0.0000 0.0000 0.0000 0.0000 0.0000 22.3330
#
#
#
# Elastic Compliance Matrix: (Units=1/GPa)
#
#
# Indices 1 2 3 4 5 6 
#
# 1 0.015376 -0.007013 -0.004358 0.000000 0.000000 0.000000
# 2 -0.007013 0.015376 -0.004358 0.000000 0.000000 0.000000
# 3 -0.004358 -0.004358 0.014152 0.000000 0.000000 0.000000
# 4 0.000000 0.000000 0.000000 0.041158 0.000000 0.000000
# 5 0.000000 0.000000 0.000000 0.000000 0.041158 0.000000
# 6 0.000000 0.000000 0.000000 0.000000 0.000000 0.044777
#
#
# Mechanical properties :
#
#
# Convention : Reuss Voigt Hill
#
# Bulk Modulus (GPa) = 74.37936 74.80030 74.58983
# Shear Modulus (GPa) = 24.04579 24.22848 24.13714
#
# Velocity S-wave (km/s) = 3.74069 3.75487 3.74779
# Velocity P-wave (km/s) = 7.87019 7.89472 7.88247
#
# Compressibility (1/GPa) = 0.01344459
#
# Stress axis : x y z
#
# Youngs Moduli (GPa) = 65.03792 65.03792 70.66259
#
# Poissons Ratio (x) = 0.45609 0.30797
# Poissons Ratio (y) = 0.45609 0.30797
# Poissons Ratio (z) = 0.28345 0.28345
#
# Static dielectric constant tensor:
#      x y z
#    x 3.127200 0.000000 0.000000 
#    y 0.000000 3.127200 0.000000 
#    z 0.000000 0.000000 3.428190 
# 
# 
# High freq. dielectric constant tensor:
#      x y z
#    x 1.662420 0.000000 0.000000 
#    y 0.000000 1.662420 0.000000 
#    z 0.000000 0.000000 1.679650 
# 
# From -- ./inp_files/11282.got.cif
#   From: 2010.03.12/outbox.cif.g09.slc.cpg/sg194_6_cif.got.tgz:11282.got - 2010.04.01 12:26:19.
