data_PCOD8330793
_publ_section_title
;
Structure prediction by ZEFSAII (Michael W. Deem and Ramdas Pophale) SiO2 
 PCOD8330793
Probable space group: P 63/M M C
;
_chemical_formula_sum "Si O2"
_cell_formula_units_Z 144
_cell_length_a 32.094539
_cell_length_b 32.094539
_cell_length_c 9.177197
_cell_angle_alpha 90.000000
_cell_angle_beta 90.000000
_cell_angle_gamma 120.000000
_cell_volume 8186.588669
_symmetry_space_group_name_H-M "P 63/M M C"
_symmetry_group_IT_number 194
_symmetry_cell_setting 'hexagonal'
loop_
_space_group_symop_operation_xyz
x,y,z
x-y,x,1/2+z
-y,x-y,z
-x,-y,1/2+z
-x+y,-x,z
y,-x+y,1/2+z
x-y,-y,-z
-x,-x+y,-z
y,x,-z
-y,-x,1/2-z
-x+y,y,1/2-z
x,x-y,1/2-z
-x,-y,-z
-x+y,-x,1/2-z
y,-x+y,-z
x,y,1/2-z
x-y,x,-z
-y,x-y,1/2-z
-x+y,y,z
x,x-y,z
-y,-x,z
y,x,1/2+z
x-y,-y,1/2+z
-x,-x+y,1/2+z
loop_
_atom_site_type_symbol
_atom_site_label
_atom_site_fract_x
_atom_site_fract_y
_atom_site_fract_z
Si Si1 0.382833 0.280687 0.916054
Si Si2 0.951583 0.808351 0.420559
Si Si3 0.103299 0.803222 0.921979
Si Si4 0.138563 0.617265 0.917677
Si Si5 0.192650 0.481088 0.080066
Si Si6 0.950616 0.559678 0.579926
O O1 0.368647 0.265227 0.750000
O O2 0.426337 0.272044 0.963214
O O3 0.398160 0.336048 0.941577
O O4 0.336154 0.248367 0.011445
O O5 0.961399 0.812915 0.250000
O O6 0.910765 0.821529 0.460751
O O7 0.934516 0.754013 0.472722
O O8 0.000000 0.846008 0.500000
O O9 0.102351 0.798583 0.750000
O O10 0.156794 0.843207 0.974241
O O11 0.130132 0.626141 0.750000
O O12 0.153266 0.576633 0.930598
O O13 0.182792 0.665633 0.984681
O O14 0.090257 0.601008 0.008620
O O15 0.186274 0.489216 0.250000
O O16 0.245837 0.491674 0.043931
O O17 0.954689 0.550298 0.750000
O O18 0.000000 0.573903 0.500000
#
# Coordination Sequence:
#
# PCOD8330793 Si02
#       6
#    24  24  24  24  24  24
#     4   9  18  31  47  70 100 132 166 204 243 284
#     4   9  19  35  52  72  98 125 157 197 237 281
#     4   9  18  31  46  67  97 131 164 198 236 279
#     4  10  21  36  54  77 103 131 166 208 254 306
#     4   9  18  33  53  77 104 133 166 206 251 298
#     4  10  21  36  52  71  98 133 172 213 256 299
#
# _framework density 17.589744
#
# number of rings (size 3 to 8) (size 9 to 14) (size 15 to 20)
#    0.000    2.667    0.000    3.500    0.000    8.000 
#    0.000    5.000    0.000    0.500    0.000    0.000 
#    0.000    0.000    0.000    0.000    0.000    0.000 
#
# Total GULP energy -1785732.004127 kJ/mol
# GULP energy per Si atom -12400.916695 kJ/mol
# Density = 1.754971 g / cm^3
# Si number density = 17.589744 Si / 1000 Ang^3
#
#
#
# Elastic Constant Matrix: (Units=GPa)
#
#
# Indices 1 2 3 4 5 6 
#
# 1 89.8421 50.4038 50.0094 0.0000 0.0000 0.0000
# 2 50.4038 89.8421 50.0094 0.0000 0.0000 0.0000
# 3 50.0094 50.0094 85.5270 0.0000 0.0000 0.0000
# 4 0.0000 0.0000 0.0000 31.8990 0.0000 0.0000
# 5 0.0000 0.0000 0.0000 0.0000 31.8990 0.0000
# 6 0.0000 0.0000 0.0000 0.0000 0.0000 19.7191
#
#
#
# Elastic Compliance Matrix: (Units=1/GPa)
#
#
# Indices 1 2 3 4 5 6 
#
# 1 0.018793 -0.006563 -0.007151 0.000000 0.000000 0.000000
# 2 -0.006563 0.018793 -0.007151 0.000000 0.000000 0.000000
# 3 -0.007151 -0.007151 0.020055 0.000000 0.000000 0.000000
# 4 0.000000 0.000000 0.000000 0.031349 0.000000 0.000000
# 5 0.000000 0.000000 0.000000 0.000000 0.031349 0.000000
# 6 0.000000 0.000000 0.000000 0.000000 0.000000 0.050712
#
#
# Mechanical properties :
#
#
# Convention : Reuss Voigt Hill
#
# Bulk Modulus (GPa) = 62.85083 62.89513 62.87298
# Shear Modulus (GPa) = 22.92665 24.35599 23.64132
#
# Velocity S-wave (km/s) = 3.61419 3.72515 3.67009
# Velocity P-wave (km/s) = 7.29559 7.37134 7.33356
#
# Compressibility (1/GPa) = 0.01591069
#
# Stress axis : x y z
#
# Youngs Moduli (GPa) = 53.21051 53.21051 49.86195
#
# Poissons Ratio (x) = 0.34921 0.35658
# Poissons Ratio (y) = 0.34921 0.35658
# Poissons Ratio (z) = 0.38053 0.38053
#
# Static dielectric constant tensor:
#      x y z
#    x 3.183070 0.000000 0.000000 
#    y 0.000000 3.183070 0.000000 
#    z 0.000000 0.000000 3.247140 
# 
# 
# High freq. dielectric constant tensor:
#      x y z
#    x 1.670090 0.000000 0.000000 
#    y 0.000000 1.670090 0.000000 
#    z 0.000000 0.000000 1.682730 
# 
# From -- ./inp_files/2120.got.cif
#   From: 2010.03.12/outbox.cif.g09.slc.cpg/sg194_2_cif.got.tgz:2120.got - 2010.04.01 12:26:19.
