data_PCOD8330806
_publ_section_title
;
Structure prediction by ZEFSAII (Michael W. Deem and Ramdas Pophale) SiO2 
 PCOD8330806
Probable space group: P 63/M M C
;
_chemical_formula_sum "Si O2"
_cell_formula_units_Z 144
_cell_length_a 21.346209
_cell_length_b 21.346209
_cell_length_c 20.214472
_cell_angle_alpha 90.000000
_cell_angle_beta 90.000000
_cell_angle_gamma 120.000000
_cell_volume 7976.907359
_symmetry_space_group_name_H-M "P 63/M M C"
_symmetry_group_IT_number 194
_symmetry_cell_setting 'hexagonal'
loop_
_space_group_symop_operation_xyz
x,y,z
x-y,x,1/2+z
-y,x-y,z
-x,-y,1/2+z
-x+y,-x,z
y,-x+y,1/2+z
x-y,-y,-z
-x,-x+y,-z
y,x,-z
-y,-x,1/2-z
-x+y,y,1/2-z
x,x-y,1/2-z
-x,-y,-z
-x+y,-x,1/2-z
y,-x+y,-z
x,y,1/2-z
x-y,x,-z
-y,x-y,1/2-z
-x+y,y,z
x,x-y,z
-y,-x,z
y,x,1/2+z
x-y,-y,1/2+z
-x,-x+y,1/2+z
loop_
_atom_site_type_symbol
_atom_site_label
_atom_site_fract_x
_atom_site_fract_y
_atom_site_fract_z
Si Si1 0.253974 0.055385 0.673897
Si Si2 0.799913 0.745530 0.060293
Si Si3 0.389563 0.463834 0.067359
Si Si4 0.666670 0.188205 0.326431
Si Si5 0.579084 0.717757 0.176016
Si Si6 0.411843 0.082208 0.068480
O O1 0.242333 0.030155 0.750000
O O2 0.229670 0.114835 0.662694
O O3 0.337783 0.089691 0.653664
O O4 0.206004 0.986116 0.629005
O O5 0.881468 0.762936 0.052282
O O6 0.747206 0.659690 0.059943
O O7 0.782091 0.782091 0.000000
O O8 0.470073 0.529928 0.064173
O O9 0.346119 0.473775 0.127209
O O10 0.391805 0.391306 0.081672
O O11 0.348401 0.458553 0.998870
O O12 0.666067 0.166890 0.250000
O O13 0.593266 0.186531 0.346001
O O14 0.731869 0.268132 0.341014
O O15 0.675255 0.130706 0.369776
O O16 0.568764 0.686136 0.250000
O O17 0.555353 0.777677 0.173290
#
# Coordination Sequence:
#
# PCOD8330806 Si02
#       6
#    24  24  24  24  24  24
#     4   9  18  36  60  84 113 147 184 228 273 323
#     4  12  23  37  59  86 115 147 184 230 282 331
#     4  11  21  35  56  80 113 150 184 230 285 340
#     4  10  21  37  56  78 108 148 190 229 273 330
#     4   9  18  34  57  83 111 144 186 234 279 330
#     4  11  21  38  53  80 112 146 187 234 281 330
#
# _framework density 18.052109000000002
#
# number of rings (size 3 to 8) (size 9 to 14) (size 15 to 20)
#    0.000    1.667    3.333    4.167    0.000    5.333 
#    0.000    0.000    0.000    3.333    0.000    0.000 
#    0.000    0.000    0.000    0.000    0.000    0.000 
#
# Total GULP energy -1785983.352127 kJ/mol
# GULP energy per Si atom -12402.662168 kJ/mol
# Density = 1.801102 g / cm^3
# Si number density = 18.052109 Si / 1000 Ang^3
#
#
#
# Elastic Constant Matrix: (Units=GPa)
#
#
# Indices 1 2 3 4 5 6 
#
# 1 73.4938 27.0611 43.4359 0.0000 0.0000 0.0000
# 2 27.0611 73.4938 43.4359 0.0000 0.0000 0.0000
# 3 43.4359 43.4359 105.2052 0.0000 0.0000 0.0000
# 4 0.0000 0.0000 0.0000 26.0943 0.0000 0.0000
# 5 0.0000 0.0000 0.0000 0.0000 26.0943 0.0000
# 6 0.0000 0.0000 0.0000 0.0000 0.0000 23.2164
#
#
#
# Elastic Compliance Matrix: (Units=1/GPa)
#
#
# Indices 1 2 3 4 5 6 
#
# 1 0.018498 -0.003039 -0.006382 0.000000 0.000000 0.000000
# 2 -0.003039 0.018498 -0.006382 0.000000 0.000000 0.000000
# 3 -0.006382 -0.006382 0.014775 0.000000 0.000000 0.000000
# 4 0.000000 0.000000 0.000000 0.038323 0.000000 0.000000
# 5 0.000000 0.000000 0.000000 0.000000 0.038323 0.000000
# 6 0.000000 0.000000 0.000000 0.000000 0.000000 0.043073
#
#
# Mechanical properties :
#
#
# Convention : Reuss Voigt Hill
#
# Bulk Modulus (GPa) = 49.59523 53.33985 51.46754
# Shear Modulus (GPa) = 23.83021 24.29830 24.06425
#
# Velocity S-wave (km/s) = 3.63723 3.67278 3.65505
# Velocity P-wave (km/s) = 6.72103 6.89910 6.81065
#
# Compressibility (1/GPa) = 0.02016323
#
# Stress axis : x y z
#
# Youngs Moduli (GPa) = 54.06090 54.06090 67.67975
#
# Poissons Ratio (x) = 0.16428 0.43196
# Poissons Ratio (y) = 0.16428 0.43196
# Poissons Ratio (z) = 0.34504 0.34504
#
# Static dielectric constant tensor:
#      x y z
#    x 3.197520 0.000000 0.000000 
#    y 0.000000 3.197520 0.000000 
#    z 0.000000 0.000000 3.513730 
# 
# 
# High freq. dielectric constant tensor:
#      x y z
#    x 1.686470 0.000000 0.000000 
#    y 0.000000 1.686470 0.000000 
#    z 0.000000 0.000000 1.714760 
# 
# From -- ./inp_files/8228.got.cif
#   From: 2010.03.12/outbox.cif.g09.slc.cpg/sg194_5_cif.got.tgz:8228.got - 2010.04.01 12:26:19.
