data_PCOD8330143
_publ_section_title
;
Structure prediction by ZEFSAII (Michael W. Deem and Ramdas Pophale) SiO2 
 PCOD8330143
Probable space group: P 63/M C M
;
_chemical_formula_sum "Si O2"
_cell_formula_units_Z 96
_cell_length_a 27.159202
_cell_length_b 27.159202
_cell_length_c 9.819104
_cell_angle_alpha 90.000000
_cell_angle_beta 90.000000
_cell_angle_gamma 120.000000
_cell_volume 6272.439803
_symmetry_space_group_name_H-M "P 63/M C M"
_symmetry_group_IT_number 193
_symmetry_cell_setting 'hexagonal'
loop_
_space_group_symop_operation_xyz
x,y,z
x-y,x,1/2+z
-y,x-y,z
-x,-y,1/2+z
-x+y,-x,z
y,-x+y,1/2+z
x-y,-y,1/2-z
-x,-x+y,1/2-z
y,x,1/2-z
-y,-x,-z
-x+y,y,-z
x,x-y,-z
-x,-y,-z
-x+y,-x,1/2-z
y,-x+y,-z
x,y,1/2-z
x-y,x,-z
-y,x-y,1/2-z
-x+y,y,1/2+z
x,x-y,1/2+z
-y,-x,1/2+z
y,x,z
x-y,-y,z
-x,-x+y,z
loop_
_atom_site_type_symbol
_atom_site_label
_atom_site_fract_x
_atom_site_fract_y
_atom_site_fract_z
Si Si1 0.602650 0.534874 0.250000
Si Si2 0.688142 0.755436 0.901756
Si Si3 0.932277 0.351157 0.523636
Si Si4 0.155339 0.933023 0.409830
Si Si5 0.067661 0.575343 0.250000
O O1 0.565039 0.565039 0.250000
O O2 0.645295 0.554914 0.376282
O O3 0.560195 0.466800 0.250000
O O4 0.694241 0.782228 0.750000
O O5 0.718072 0.718072 0.902488
O O6 0.621456 0.714765 0.935750
O O7 0.716831 0.803271 0.018549
O O8 0.909977 0.383358 0.620495
O O9 0.000000 0.382271 0.529976
O O10 0.097444 0.902557 0.500000
O O11 0.145918 0.914887 0.250000
O O12 0.179979 0.000000 0.422910
O O13 0.000000 0.538213 0.250000
#
# Coordination Sequence:
#
# PCOD8330143 Si02
#       5
#    12  24  24  24  12
#     4   9  16  20  28  44  67  98 135 180 218 245
#     4   9  16  27  42  59  81 109 138 169 207 250
#     4   9  15  22  32  47  69 100 136 174 214 249
#     4  10  21  35  53  75  95 114 136 164 204 258
#     4   9  14  22  30  42  65  98 139 176 214 251
#
# _framework density 15.30505
#
# number of rings (size 3 to 8) (size 9 to 14) (size 15 to 20)
#    0.000    2.750    1.250    1.500    1.750    4.500 
#    0.000    0.000    0.000    0.250    0.000    0.000 
#    0.000    0.000    0.000    0.000    0.000    0.000 
#
# Total GULP energy -1189501.419435 kJ/mol
# GULP energy per Si atom -12390.639786 kJ/mol
# Density = 1.527021 g / cm^3
# Si number density = 15.305050 Si / 1000 Ang^3
#
#
#
# Elastic Constant Matrix: (Units=GPa)
#
#
# Indices 1 2 3 4 5 6 
#
# 1 46.0714 19.3836 34.2746 0.0000 0.0000 0.0000
# 2 19.3836 46.0714 34.2746 0.0000 0.0000 0.0000
# 3 34.2746 34.2746 155.2139 0.0000 0.0000 0.0000
# 4 0.0000 0.0000 0.0000 20.2233 0.0000 0.0000
# 5 0.0000 0.0000 0.0000 0.0000 20.2233 0.0000
# 6 0.0000 0.0000 0.0000 0.0000 0.0000 13.3439
#
#
#
# Elastic Compliance Matrix: (Units=1/GPa)
#
#
# Indices 1 2 3 4 5 6 
#
# 1 0.028672 -0.008798 -0.004389 0.000000 0.000000 0.000000
# 2 -0.008798 0.028672 -0.004389 0.000000 0.000000 0.000000
# 3 -0.004389 -0.004389 0.008381 0.000000 0.000000 0.000000
# 4 0.000000 0.000000 0.000000 0.049448 0.000000 0.000000
# 5 0.000000 0.000000 0.000000 0.000000 0.049448 0.000000
# 6 0.000000 0.000000 0.000000 0.000000 0.000000 0.074941
#
#
# Mechanical properties :
#
#
# Convention : Reuss Voigt Hill
#
# Bulk Modulus (GPa) = 32.70750 47.02470 39.86610
# Shear Modulus (GPa) = 17.54981 21.38637 19.46809
#
# Velocity S-wave (km/s) = 3.38992 3.74216 3.57039
# Velocity P-wave (km/s) = 6.06126 7.03302 6.56514
#
# Compressibility (1/GPa) = 0.03057403
#
# Stress axis : x y z
#
# Youngs Moduli (GPa) = 34.87728 34.87728 119.31913
#
# Poissons Ratio (x) = 0.30686 0.52363
# Poissons Ratio (y) = 0.30686 0.52363
# Poissons Ratio (z) = 0.15306 0.15306
#
# Static dielectric constant tensor:
#      x y z
#    x 2.696190 0.000000 0.000000 
#    y 0.000000 2.696190 0.000000 
#    z 0.000000 0.000000 3.257860 
# 
# 
# High freq. dielectric constant tensor:
#      x y z
#    x 1.540860 0.000000 0.000000 
#    y 0.000000 1.540860 0.000000 
#    z 0.000000 0.000000 1.611940 
# 
# From -- ./inp_files/1241.got.cif
#   From: 2010.03.12/outbox.cif.g09.slc.cpg/sg193_1_cif.got.tgz:1241.got - 2010.04.01 12:20:39.
