data_PCOD8330146
_publ_section_title
;
Structure prediction by ZEFSAII (Michael W. Deem and Ramdas Pophale) SiO2 
 PCOD8330146
Probable space group: P 63/M C M
;
_chemical_formula_sum "Si O2"
_cell_formula_units_Z 168
_cell_length_a 20.342317
_cell_length_b 20.342317
_cell_length_c 24.054112
_cell_angle_alpha 90.000000
_cell_angle_beta 90.000000
_cell_angle_gamma 120.000000
_cell_volume 8620.268555
_symmetry_space_group_name_H-M "P 63/M C M"
_symmetry_group_IT_number 193
_symmetry_cell_setting 'hexagonal'
loop_
_space_group_symop_operation_xyz
x,y,z
x-y,x,1/2+z
-y,x-y,z
-x,-y,1/2+z
-x+y,-x,z
y,-x+y,1/2+z
x-y,-y,1/2-z
-x,-x+y,1/2-z
y,x,1/2-z
-y,-x,-z
-x+y,y,-z
x,x-y,-z
-x,-y,-z
-x+y,-x,1/2-z
y,-x+y,-z
x,y,1/2-z
x-y,x,-z
-y,x-y,1/2-z
-x+y,y,1/2+z
x,x-y,1/2+z
-y,-x,1/2+z
y,x,z
x-y,-y,z
-x,-x+y,z
loop_
_atom_site_type_symbol
_atom_site_label
_atom_site_fract_x
_atom_site_fract_y
_atom_site_fract_z
Si Si1 0.458810 0.910680 0.316127
Si Si2 0.465515 0.086769 0.000016
Si Si3 0.540269 0.846637 0.617094
Si Si4 0.452156 0.150747 0.615589
Si Si5 0.716985 0.802153 0.646948
Si Si6 0.916059 0.233315 0.310079
Si Si7 0.169679 0.084829 0.064079
O O1 0.450924 0.900426 0.250000
O O2 0.377188 0.862481 0.344760
O O3 0.507282 0.874230 0.338821
O O4 0.498295 0.000000 0.332642
O O5 0.460028 0.129958 0.053790
O O6 0.396009 0.000000 0.998711
O O7 0.543518 0.087035 0.000000
O O8 0.465676 0.133245 0.946653
O O9 0.517170 0.758166 0.620802
O O10 0.624724 0.898061 0.640102
O O11 0.364050 0.099354 0.628672
O O12 0.767019 0.767019 0.670249
O O13 0.711891 0.855647 0.693666
O O14 0.753663 0.855121 0.593595
O O15 0.912026 0.267833 0.250000
O O16 0.000000 0.246386 0.319896
O O17 0.101491 0.101491 0.076269
O O18 0.142905 0.000000 0.084856
O O19 0.190975 0.095488 0.000000
#
# Coordination Sequence:
#
# PCOD8330146 Si02
#       7
#    24  24  24  24  24  24  24
#     4  11  23  42  69  94 120 162 218 268 312 380
#     4  11  21  38  67  92 119 159 205 250 297 361
#     4  11  23  40  63  93 125 158 200 254 315 374
#     4  11  24  41  60  92 130 160 201 253 313 371
#     4  10  21  35  54  81 117 155 195 245 301 362
#     4  10  21  37  58  84 115 151 198 255 307 359
#     4   9  17  30  50  78 113 155 200 245 296 356
#
# _framework density 19.488952000000001
#
# number of rings (size 3 to 8) (size 9 to 14) (size 15 to 20)
#    0.000    1.571    1.429    4.000    0.000    7.143 
#    0.857    4.286    0.000    0.286    0.000    0.000 
#    0.000    0.000    0.000    0.000    0.000    0.000 
#
# Total GULP energy -2082912.863058 kJ/mol
# GULP energy per Si atom -12398.290852 kJ/mol
# Density = 1.944459 g / cm^3
# Si number density = 19.488952 Si / 1000 Ang^3
#
#
#
# Elastic Constant Matrix: (Units=GPa)
#
#
# Indices 1 2 3 4 5 6 
#
# 1 116.9938 62.1911 44.8586 0.0000 0.0000 0.0000
# 2 62.1911 116.9938 44.8586 0.0000 0.0000 0.0000
# 3 44.8586 44.8586 109.5109 0.0000 0.0000 0.0000
# 4 0.0000 0.0000 0.0000 37.6661 0.0000 0.0000
# 5 0.0000 0.0000 0.0000 0.0000 37.6661 0.0000
# 6 0.0000 0.0000 0.0000 0.0000 0.0000 27.4013
#
#
#
# Elastic Compliance Matrix: (Units=1/GPa)
#
#
# Indices 1 2 3 4 5 6 
#
# 1 0.012634 -0.005613 -0.002876 0.000000 0.000000 0.000000
# 2 -0.005613 0.012634 -0.002876 0.000000 0.000000 0.000000
# 3 -0.002876 -0.002876 0.011488 0.000000 0.000000 0.000000
# 4 0.000000 0.000000 0.000000 0.026549 0.000000 0.000000
# 5 0.000000 0.000000 0.000000 0.000000 0.026549 0.000000
# 6 0.000000 0.000000 0.000000 0.000000 0.000000 0.036495
#
#
# Mechanical properties :
#
#
# Convention : Reuss Voigt Hill
#
# Bulk Modulus (GPa) = 71.29838 71.92389 71.61113
# Shear Modulus (GPa) = 32.51954 33.31937 32.91945
#
# Velocity S-wave (km/s) = 4.08930 4.13928 4.11437
# Velocity P-wave (km/s) = 7.67854 7.73498 7.70681
#
# Compressibility (1/GPa) = 0.01402557
#
# Stress axis : x y z
#
# Youngs Moduli (GPa) = 79.15131 79.15131 87.05033
#
# Poissons Ratio (x) = 0.44430 0.25035
# Poissons Ratio (y) = 0.44430 0.25035
# Poissons Ratio (z) = 0.22763 0.22763
#
# Static dielectric constant tensor:
#      x y z
#    x 3.710390 0.000000 0.000000 
#    y 0.000000 3.710390 0.000000 
#    z 0.000000 0.000000 3.550210 
# 
# 
# High freq. dielectric constant tensor:
#      x y z
#    x 1.763850 0.000000 0.000000 
#    y 0.000000 1.763850 0.000000 
#    z 0.000000 0.000000 1.765290 
# 
# From -- ./inp_files/7732.got.cif
#   From: 2010.03.12/outbox.cif.g09.slc.cpg/sg193_4_cif.got.tgz:7732.got - 2010.04.01 12:20:39.
