data_PCOD8330112
_publ_section_title
;
Structure prediction by ZEFSAII (Michael W. Deem and Ramdas Pophale) SiO2 
 PCOD8330112
Probable space group: P 63/M C M
;
_chemical_formula_sum "Si O2"
_cell_formula_units_Z 132
_cell_length_a 23.053524
_cell_length_b 23.053524
_cell_length_c 15.574190
_cell_angle_alpha 90.000000
_cell_angle_beta 90.000000
_cell_angle_gamma 120.000000
_cell_volume 7168.210395
_symmetry_space_group_name_H-M "P 63/M C M"
_symmetry_group_IT_number 193
_symmetry_cell_setting 'hexagonal'
loop_
_space_group_symop_operation_xyz
x,y,z
x-y,x,1/2+z
-y,x-y,z
-x,-y,1/2+z
-x+y,-x,z
y,-x+y,1/2+z
x-y,-y,1/2-z
-x,-x+y,1/2-z
y,x,1/2-z
-y,-x,-z
-x+y,y,-z
x,x-y,-z
-x,-y,-z
-x+y,-x,1/2-z
y,-x+y,-z
x,y,1/2-z
x-y,x,-z
-y,x-y,1/2-z
-x+y,y,1/2+z
x,x-y,1/2+z
-y,-x,1/2+z
y,x,z
x-y,-y,z
-x,-x+y,z
loop_
_atom_site_type_symbol
_atom_site_label
_atom_site_fract_x
_atom_site_fract_y
_atom_site_fract_z
Si Si1 0.618676 0.835295 0.909522
Si Si2 0.238211 0.161995 0.845492
Si Si3 0.638933 0.076931 0.850266
Si Si4 0.277307 0.760233 0.851427
Si Si5 0.077920 0.155840 0.500000
Si Si6 0.611375 0.422528 0.150008
O O1 0.683207 0.870219 0.848766
O O2 0.590844 0.887174 0.911534
O O3 0.561040 0.762773 0.876639
O O4 0.642288 0.821144 0.000000
O O5 0.213069 0.132663 0.750000
O O6 0.222993 0.222993 0.862973
O O7 0.200522 0.104111 0.914810
O O8 0.661700 0.085523 0.750000
O O9 0.594462 0.112598 0.865691
O O10 0.594274 0.000000 0.876860
O O11 0.278539 0.758015 0.750000
O O12 0.352732 0.799205 0.890996
O O13 0.239921 0.684647 0.889152
O O14 0.109248 0.109248 0.487810
O O15 0.614023 0.409380 0.250000
#
# Coordination Sequence:
#
# PCOD8330112 Si02
#       6
#    24  24  24  24  12  24
#     4  11  20  31  47  75 105 136 173 222 272 316
#     4  10  20  36  59  84 111 144 181 220 262 309
#     4   9  17  31  52  73  93 124 171 221 261 303
#     4   9  16  28  47  70  99 132 171 218 272 329
#     4  10  21  38  60  88 118 146 174 208 254 312
#     4   8  14  25  45  71  94 123 164 213 265 317
#
# _framework density 18.414639000000001
#
# number of rings (size 3 to 8) (size 9 to 14) (size 15 to 20)
#    0.000    2.545    0.909    3.727    0.000    3.273 
#    0.000    3.636    0.000    5.455    0.000    2.545 
#    0.000    0.000    0.000    0.000    0.000    0.000 
#
# Total GULP energy -1635805.029671 kJ/mol
# GULP energy per Si atom -12392.462346 kJ/mol
# Density = 1.837273 g / cm^3
# Si number density = 18.414639 Si / 1000 Ang^3
#
#
#
# Elastic Constant Matrix: (Units=GPa)
#
#
# Indices 1 2 3 4 5 6 
#
# 1 113.7983 59.5624 37.7297 0.0000 0.0000 0.0000
# 2 59.5624 113.7983 37.7297 0.0000 0.0000 0.0000
# 3 37.7297 37.7297 66.3984 0.0000 0.0000 0.0000
# 4 0.0000 0.0000 0.0000 21.3216 0.0000 0.0000
# 5 0.0000 0.0000 0.0000 0.0000 21.3216 0.0000
# 6 0.0000 0.0000 0.0000 0.0000 0.0000 27.1179
#
#
#
# Elastic Compliance Matrix: (Units=1/GPa)
#
#
# Indices 1 2 3 4 5 6 
#
# 1 0.013051 -0.005387 -0.004355 0.000000 0.000000 0.000000
# 2 -0.005387 0.013051 -0.004355 0.000000 0.000000 0.000000
# 3 -0.004355 -0.004355 0.020010 0.000000 0.000000 0.000000
# 4 0.000000 0.000000 0.000000 0.046901 0.000000 0.000000
# 5 0.000000 0.000000 0.000000 0.000000 0.046901 0.000000
# 6 0.000000 0.000000 0.000000 0.000000 0.000000 0.036876
#
#
# Mechanical properties :
#
#
# Convention : Reuss Voigt Hill
#
# Bulk Modulus (GPa) = 55.80965 62.67099 59.24032
# Shear Modulus (GPa) = 23.70171 24.55045 24.12608
#
# Velocity S-wave (km/s) = 3.59153 3.65527 3.62354
# Velocity P-wave (km/s) = 6.89723 7.20568 7.05314
#
# Compressibility (1/GPa) = 0.01791805
#
# Stress axis : x y z
#
# Youngs Moduli (GPa) = 76.62287 76.62287 49.97563
#
# Poissons Ratio (x) = 0.41277 0.21764
# Poissons Ratio (y) = 0.41277 0.21764
# Poissons Ratio (z) = 0.33368 0.33368
#
# Static dielectric constant tensor:
#      x y z
#    x 3.474720 0.000000 0.000000 
#    y 0.000000 3.474720 0.000000 
#    z 0.000000 0.000000 3.149980 
# 
# 
# High freq. dielectric constant tensor:
#      x y z
#    x 1.709350 0.000000 0.000000 
#    y 0.000000 1.709350 0.000000 
#    z 0.000000 0.000000 1.691280 
# 
# From -- ./inp_files/4142.got.cif
#   From: 2010.03.12/outbox.cif.g09.slc.cpg/sg193_3_cif.got.tgz:4142.got - 2010.04.01 12:20:39.
