data_PCOD8330038
_publ_section_title
;
Structure prediction by ZEFSAII (Michael W. Deem and Ramdas Pophale) SiO2 
 PCOD8330038
Probable space group: P 63/M C M
;
_chemical_formula_sum "Si O2"
_cell_formula_units_Z 168
_cell_length_a 17.522121
_cell_length_b 17.522121
_cell_length_c 29.826314
_cell_angle_alpha 90.000000
_cell_angle_beta 90.000000
_cell_angle_gamma 120.000000
_cell_volume 7930.554745
_symmetry_space_group_name_H-M "P 63/M C M"
_symmetry_group_IT_number 193
_symmetry_cell_setting 'hexagonal'
loop_
_space_group_symop_operation_xyz
x,y,z
x-y,x,1/2+z
-y,x-y,z
-x,-y,1/2+z
-x+y,-x,z
y,-x+y,1/2+z
x-y,-y,1/2-z
-x,-x+y,1/2-z
y,x,1/2-z
-y,-x,-z
-x+y,y,-z
x,x-y,-z
-x,-y,-z
-x+y,-x,1/2-z
y,-x+y,-z
x,y,1/2-z
x-y,x,-z
-y,x-y,1/2-z
-x+y,y,1/2+z
x,x-y,1/2+z
-y,-x,1/2+z
y,x,z
x-y,-y,z
-x,-x+y,z
loop_
_atom_site_type_symbol
_atom_site_label
_atom_site_fract_x
_atom_site_fract_y
_atom_site_fract_z
Si Si1 0.101347 0.627728 0.392413
Si Si2 0.688204 0.586957 0.330128
Si Si3 0.898554 0.501996 0.539689
Si Si4 0.749785 0.851087 0.297735
Si Si5 0.601924 0.782995 0.080221
Si Si6 0.527993 0.104668 0.798569
Si Si7 0.795489 0.894917 0.605767
O O1 0.112337 0.548988 0.413438
O O2 0.153489 0.714421 0.422209
O O3 0.137612 0.643634 0.340843
O O4 0.000000 0.602865 0.393351
O O5 0.628010 0.628010 0.346007
O O6 0.764910 0.653573 0.297288
O O7 0.730016 0.571620 0.373904
O O8 0.630946 0.495060 0.304379
O O9 0.859235 0.429618 0.500000
O O10 0.848415 0.558497 0.540877
O O11 0.000000 0.571181 0.529281
O O12 0.757699 0.901279 0.250000
O O13 0.824609 0.824609 0.297848
O O14 0.765546 0.907261 0.343096
O O15 0.708365 0.840974 0.076086
O O16 0.515743 0.140346 0.750000
O O17 0.473612 0.000000 0.798499
O O18 0.849391 0.849391 0.586630
O O19 0.856858 0.000000 0.603914
#
# Coordination Sequence:
#
# PCOD8330038 Si02
#       7
#    24  24  24  24  24  24  24
#     4  10  21  37  56  83 120 159 201 247 300 366
#     4   9  15  27  50  77 103 138 191 249 303 360
#     4  10  21  40  66  92 117 149 189 240 304 373
#     4   8  14  24  40  67 102 142 195 257 311 355
#     4  11  20  35  58  84 118 156 195 246 308 365
#     4   9  16  29  52  77 104 147 201 251 300 358
#     4  10  20  33  52  79 115 161 211 259 306 360
#
# _framework density 21.183890999999999
#
# number of rings (size 3 to 8) (size 9 to 14) (size 15 to 20)
#    0.000    2.429    1.429    3.143    0.000    2.571 
#    0.857    3.571    0.000    4.286    0.000    0.000 
#    0.000    0.000    0.000   10.857    0.000    0.000 
#
# Total GULP energy -2081758.866271 kJ/mol
# GULP energy per Si atom -12391.421823 kJ/mol
# Density = 2.113568 g / cm^3
# Si number density = 21.183891 Si / 1000 Ang^3
#
#
#
# Elastic Constant Matrix: (Units=GPa)
#
#
# Indices 1 2 3 4 5 6 
#
# 1 99.4528 55.8770 26.9837 0.0000 0.0000 0.0000
# 2 55.8770 99.4528 26.9837 0.0000 0.0000 0.0000
# 3 26.9837 26.9837 69.1589 0.0000 0.0000 0.0000
# 4 0.0000 0.0000 0.0000 17.9674 0.0000 0.0000
# 5 0.0000 0.0000 0.0000 0.0000 17.9674 0.0000
# 6 0.0000 0.0000 0.0000 0.0000 0.0000 21.7879
#
#
#
# Elastic Compliance Matrix: (Units=1/GPa)
#
#
# Indices 1 2 3 4 5 6 
#
# 1 0.015198 -0.007751 -0.002906 0.000000 0.000000 0.000000
# 2 -0.007751 0.015198 -0.002906 0.000000 0.000000 0.000000
# 3 -0.002906 -0.002906 0.016727 0.000000 0.000000 0.000000
# 4 0.000000 0.000000 0.000000 0.055656 0.000000 0.000000
# 5 0.000000 0.000000 0.000000 0.000000 0.055656 0.000000
# 6 0.000000 0.000000 0.000000 0.000000 0.000000 0.045897
#
#
# Mechanical properties :
#
#
# Convention : Reuss Voigt Hill
#
# Bulk Modulus (GPa) = 50.00299 54.19481 52.09890
# Shear Modulus (GPa) = 20.99757 22.09257 21.54507
#
# Velocity S-wave (km/s) = 3.15176 3.23289 3.19258
# Velocity P-wave (km/s) = 6.07456 6.29079 6.18362
#
# Compressibility (1/GPa) = 0.01999881
#
# Stress axis : x y z
#
# Youngs Moduli (GPa) = 65.79817 65.79817 59.78374
#
# Poissons Ratio (x) = 0.50997 0.17372
# Poissons Ratio (y) = 0.50997 0.17372
# Poissons Ratio (z) = 0.19120 0.19120
#
# Static dielectric constant tensor:
#      x y z
#    x 3.590600 0.000000 0.000000 
#    y 0.000000 3.590600 0.000000 
#    z 0.000000 0.000000 3.923180 
# 
# 
# High freq. dielectric constant tensor:
#      x y z
#    x 1.807470 0.000000 0.000000 
#    y 0.000000 1.807470 0.000000 
#    z 0.000000 0.000000 1.820120 
# 
# From -- ./inp_files/9330.got.cif
#   From: 2010.03.12/outbox.cif.g09.slc.cpg/sg193_5_cif.got.tgz:9330.got - 2010.04.01 12:20:39.
