data_PCOD8330421
_publ_section_title
;
Structure prediction by ZEFSAII (Michael W. Deem and Ramdas Pophale) SiO2 
 PCOD8330421
Probable space group: P 63/M M C
;
_chemical_formula_sum "Si O2"
_cell_formula_units_Z 102
_cell_length_a 26.195895
_cell_length_b 26.195895
_cell_length_c 9.720428
_cell_angle_alpha 90.000000
_cell_angle_beta 90.000000
_cell_angle_gamma 120.000000
_cell_volume 5776.735747
_symmetry_space_group_name_H-M "P 63/M M C"
_symmetry_group_IT_number 194
_symmetry_cell_setting 'hexagonal'
loop_
_space_group_symop_operation_xyz
x,y,z
x-y,x,1/2+z
-y,x-y,z
-x,-y,1/2+z
-x+y,-x,z
y,-x+y,1/2+z
x-y,-y,-z
-x,-x+y,-z
y,x,-z
-y,-x,1/2-z
-x+y,y,1/2-z
x,x-y,1/2-z
-x,-y,-z
-x+y,-x,1/2-z
y,-x+y,-z
x,y,1/2-z
x-y,x,-z
-y,x-y,1/2-z
-x+y,y,z
x,x-y,z
-y,-x,z
y,x,1/2+z
x-y,-y,1/2+z
-x,-x+y,1/2+z
loop_
_atom_site_type_symbol
_atom_site_label
_atom_site_fract_x
_atom_site_fract_y
_atom_site_fract_z
Si Si1 0.295058 0.590115 0.250000
Si Si2 0.851132 0.366601 0.401485
Si Si3 0.184438 0.815563 0.086576
Si Si4 0.050525 0.619973 0.096307
Si Si5 0.748114 0.496227 0.492581
Si Si6 0.740278 0.689005 0.902987
O O1 0.366792 0.633209 0.250000
O O2 0.273219 0.546438 0.122544
O O3 0.880524 0.373188 0.250000
O O4 0.841931 0.420966 0.433296
O O5 0.887678 0.360290 0.525114
O O6 0.788472 0.307876 0.399374
O O7 0.187344 0.812657 0.250000
O O8 0.217192 0.782809 0.027451
O O9 0.216007 0.883593 0.035906
O O10 0.048948 0.595027 0.250000
O O11 0.041222 0.675195 0.107997
O O12 0.000000 0.569690 0.000000
O O13 0.761173 0.716114 0.750000
O O14 0.738495 0.738495 0.000000
#
# Coordination Sequence:
#
# PCOD8330421 Si02
#       6
#     6  24  12  24  12  24
#     4  10  24  38  56  88 104 130 170 238 292 346
#     4  11  25  41  57  77 103 135 172 216 272 333
#     4  10  18  33  57  84 108 145 178 221 265 322
#     4  10  20  36  59  82 108 137 171 215 267 321
#     4  12  21  40  59  76 107 132 175 219 278 339
#     4   9  18  33  52  79 111 142 176 217 264 310
#
# _framework density 17.657029999999999
#
# number of rings (size 3 to 8) (size 9 to 14) (size 15 to 20)
#    0.118    1.647    2.941    1.765    1.647    1.882 
#    0.706    0.588    0.000    0.000    0.000    0.000 
#    0.000    0.000    0.000    0.353    0.000    4.235 
#
# Total GULP energy -1264378.860675 kJ/mol
# GULP energy per Si atom -12395.871183 kJ/mol
# Density = 1.761684 g / cm^3
# Si number density = 17.657030 Si / 1000 Ang^3
#
#
#
# Elastic Constant Matrix: (Units=GPa)
#
#
# Indices 1 2 3 4 5 6 
#
# 1 45.4053 18.1715 28.7652 0.0000 0.0000 0.0000
# 2 18.1715 45.4053 28.7652 0.0000 0.0000 0.0000
# 3 28.7652 28.7652 109.9848 0.0000 0.0000 0.0000
# 4 0.0000 0.0000 0.0000 22.4725 0.0000 0.0000
# 5 0.0000 0.0000 0.0000 0.0000 22.4725 0.0000
# 6 0.0000 0.0000 0.0000 0.0000 0.0000 13.6169
#
#
#
# Elastic Compliance Matrix: (Units=1/GPa)
#
#
# Indices 1 2 3 4 5 6 
#
# 1 0.028662 -0.008057 -0.005389 0.000000 0.000000 0.000000
# 2 -0.008057 0.028662 -0.005389 0.000000 0.000000 0.000000
# 3 -0.005389 -0.005389 0.011911 0.000000 0.000000 0.000000
# 4 0.000000 0.000000 0.000000 0.044499 0.000000 0.000000
# 5 0.000000 0.000000 0.000000 0.000000 0.044499 0.000000
# 6 0.000000 0.000000 0.000000 0.000000 0.000000 0.073438
#
#
# Mechanical properties :
#
#
# Convention : Reuss Voigt Hill
#
# Bulk Modulus (GPa) = 31.67994 39.13327 35.40661
# Shear Modulus (GPa) = 17.86585 20.05194 18.95890
#
# Velocity S-wave (km/s) = 3.18437 3.37357 3.28034
# Velocity P-wave (km/s) = 5.61258 6.11439 5.86885
#
# Compressibility (1/GPa) = 0.03156572
#
# Stress axis : x y z
#
# Youngs Moduli (GPa) = 34.88900 34.88900 83.95529
#
# Poissons Ratio (x) = 0.28109 0.45245
# Poissons Ratio (y) = 0.28109 0.45245
# Poissons Ratio (z) = 0.18802 0.18802
#
# Static dielectric constant tensor:
#      x y z
#    x 3.201030 0.000000 0.000000 
#    y 0.000000 3.201030 0.000000 
#    z 0.000000 0.000000 3.664280 
# 
# 
# High freq. dielectric constant tensor:
#      x y z
#    x 1.659640 0.000000 0.000000 
#    y 0.000000 1.659640 0.000000 
#    z 0.000000 0.000000 1.692860 
# 
# From -- ./inp_files/1676.got.cif
#   From: 2010.03.12/outbox.cif.g09.slc.cpg/sg194_1_cif.got.tgz:1676.got - 2010.04.01 12:26:19.
