data_PCOD8330041
_publ_section_title
;
Structure prediction by ZEFSAII (Michael W. Deem and Ramdas Pophale) SiO2 
 PCOD8330041
Probable space group: P 63/M C M
;
_chemical_formula_sum "Si O2"
_cell_formula_units_Z 108
_cell_length_a 17.317346
_cell_length_b 17.317346
_cell_length_c 22.807014
_cell_angle_alpha 90.000000
_cell_angle_beta 90.000000
_cell_angle_gamma 120.000000
_cell_volume 5923.272725
_symmetry_space_group_name_H-M "P 63/M C M"
_symmetry_group_IT_number 193
_symmetry_cell_setting 'hexagonal'
loop_
_space_group_symop_operation_xyz
x,y,z
x-y,x,1/2+z
-y,x-y,z
-x,-y,1/2+z
-x+y,-x,z
y,-x+y,1/2+z
x-y,-y,1/2-z
-x,-x+y,1/2-z
y,x,1/2-z
-y,-x,-z
-x+y,y,-z
x,x-y,-z
-x,-y,-z
-x+y,-x,1/2-z
y,-x+y,-z
x,y,1/2-z
x-y,x,-z
-y,x-y,1/2-z
-x+y,y,1/2+z
x,x-y,1/2+z
-y,-x,1/2+z
y,x,z
x-y,-y,z
-x,-x+y,z
loop_
_atom_site_type_symbol
_atom_site_label
_atom_site_fract_x
_atom_site_fract_y
_atom_site_fract_z
Si Si1 0.191273 0.798147 0.931167
Si Si2 0.197144 0.098968 0.930108
Si Si3 0.769124 0.432511 0.250000
Si Si4 0.363870 0.899481 0.644582
Si Si5 0.404081 0.901007 0.444081
O O1 0.125585 0.830668 0.905171
O O2 0.286704 0.863312 0.903646
O O3 0.159179 0.695459 0.920103
O O4 0.191745 0.808256 0.000000
O O5 0.129037 0.129037 0.906052
O O6 0.165958 0.000000 0.906060
O O7 0.196761 0.098381 0.000000
O O8 0.669485 0.422089 0.250000
O O9 0.826472 0.490732 0.195278
O O10 0.449310 0.908295 0.613049
O O11 0.390362 0.000000 0.666690
O O12 0.429414 0.858827 0.500000
O O13 0.424100 0.000000 0.463088
#
# Coordination Sequence:
#
# PCOD8330041 Si02
#       5
#    24  24  12  24  24
#     4  11  20  32  51  80 113 150 187 232 282 349
#     4   9  17  28  45  70 105 146 185 224 269 329
#     4  10  23  42  62  80 108 142 197 250 300 360
#     4  11  22  38  58  82 111 149 193 243 301 356
#     4  10  20  34  51  76 112 151 191 234 286 350
#
# _framework density 18.233163999999999
#
# number of rings (size 3 to 8) (size 9 to 14) (size 15 to 20)
#    0.222    1.556    2.222    3.222    0.000    2.667 
#    1.333    1.111    0.000    0.000    0.000    0.000 
#    0.000    0.000    0.000    2.222    0.000    1.778 
#
# Total GULP energy -1338191.210298 kJ/mol
# GULP energy per Si atom -12390.659355 kJ/mol
# Density = 1.819166 g / cm^3
# Si number density = 18.233164 Si / 1000 Ang^3
#
#
#
# Elastic Constant Matrix: (Units=GPa)
#
#
# Indices 1 2 3 4 5 6 
#
# 1 119.3797 57.6240 22.6035 0.0000 0.0000 0.0000
# 2 57.6240 119.3797 22.6035 0.0000 0.0000 0.0000
# 3 22.6035 22.6035 57.4078 0.0000 0.0000 0.0000
# 4 0.0000 0.0000 0.0000 -29.2491 0.0000 0.0000
# 5 0.0000 0.0000 0.0000 0.0000 -29.2491 0.0000
# 6 0.0000 0.0000 0.0000 0.0000 0.0000 30.8779
#
#
#
# Elastic Compliance Matrix: (Units=1/GPa)
#
#
# Indices 1 2 3 4 5 6 
#
# 1 0.011237 -0.004956 -0.002473 0.000000 0.000000 0.000000
# 2 -0.004956 0.011237 -0.002473 0.000000 0.000000 0.000000
# 3 -0.002473 -0.002473 0.019367 0.000000 0.000000 0.000000
# 4 0.000000 0.000000 0.000000 -0.034189 0.000000 0.000000
# 5 0.000000 0.000000 0.000000 0.000000 -0.034189 0.000000
# 6 0.000000 0.000000 0.000000 0.000000 0.000000 0.032386
#
#
# Mechanical properties :
#
#
# Convention : Reuss Voigt Hill
#
# Bulk Modulus (GPa) = 45.37893 55.75880 50.56887
# Shear Modulus (GPa) = 151.52396 7.36501 79.44449
#
# Velocity S-wave (km/s) = 9.12600 2.01199 6.60803
# Velocity P-wave (km/s) = 11.66136 6.00374 9.27449
#
# Compressibility (1/GPa) = 0.02203666
#
# Stress axis : x y z
#
# Youngs Moduli (GPa) = 88.99145 88.99145 51.63480
#
# Poissons Ratio (x) = 0.44102 0.12770
# Poissons Ratio (y) = 0.44102 0.12770
# Poissons Ratio (z) = 0.22009 0.22009
#
# Static dielectric constant tensor:
#      x y z
#    x 4.058300 0.000000 0.000000 
#    y 0.000000 4.058300 0.000000 
#    z 0.000000 0.000000 2.932710 
# 
# 
# High freq. dielectric constant tensor:
#      x y z
#    x 1.715080 0.000000 0.000000 
#    y 0.000000 1.715080 0.000000 
#    z 0.000000 0.000000 1.657150 
# 
# From -- ./inp_files/6286.got.cif
#   From: 2010.03.12/outbox.cif.g09.slc.cpg/sg193_4_cif.got.tgz:6286.got - 2010.04.01 12:20:39.
