data_PCOD8330728
_publ_section_title
;
Structure prediction by ZEFSAII (Michael W. Deem and Ramdas Pophale) SiO2 
 PCOD8330728
Probable space group: P 63/M M C
;
_chemical_formula_sum "Si O2"
_cell_formula_units_Z 144
_cell_length_a 31.549897
_cell_length_b 31.549897
_cell_length_c 9.031388
_cell_angle_alpha 90.000000
_cell_angle_beta 90.000000
_cell_angle_gamma 120.000000
_cell_volume 7785.401667
_symmetry_space_group_name_H-M "P 63/M M C"
_symmetry_group_IT_number 194
_symmetry_cell_setting 'hexagonal'
loop_
_space_group_symop_operation_xyz
x,y,z
x-y,x,1/2+z
-y,x-y,z
-x,-y,1/2+z
-x+y,-x,z
y,-x+y,1/2+z
x-y,-y,-z
-x,-x+y,-z
y,x,-z
-y,-x,1/2-z
-x+y,y,1/2-z
x,x-y,1/2-z
-x,-y,-z
-x+y,-x,1/2-z
y,-x+y,-z
x,y,1/2-z
x-y,x,-z
-y,x-y,1/2-z
-x+y,y,z
x,x-y,z
-y,-x,z
y,x,1/2+z
x-y,-y,1/2+z
-x,-x+y,1/2+z
loop_
_atom_site_type_symbol
_atom_site_label
_atom_site_fract_x
_atom_site_fract_y
_atom_site_fract_z
Si Si1 0.096193 0.293028 0.583481
Si Si2 0.854370 0.243422 0.577546
Si Si3 0.657704 0.515447 0.575173
Si Si4 0.048479 0.853473 0.076193
Si Si5 0.473730 0.048051 0.082645
Si Si6 0.764636 0.431362 0.420715
O O1 0.076095 0.288331 0.750000
O O2 0.147656 0.295311 0.581964
O O3 0.103316 0.342656 0.510126
O O4 0.057846 0.246500 0.489122
O O5 0.865657 0.243581 0.750000
O O6 0.800890 0.199111 0.537192
O O7 0.855627 0.292431 0.526305
O O8 0.650560 0.512410 0.750000
O O9 0.613345 0.517701 0.501868
O O10 0.658349 0.467631 0.522445
O O11 0.040465 0.845283 0.250000
O O12 0.092761 0.907240 0.037531
O O13 0.000000 0.848365 0.000000
O O14 0.456220 0.048194 0.250000
O O15 0.523955 0.047910 0.082256
O O16 0.431906 0.000000 0.000000
O O17 0.778710 0.446423 0.250000
O O18 0.717133 0.434266 0.467091
O O19 0.752781 0.376390 0.449013
#
# Coordination Sequence:
#
# PCOD8330728 Si02
#       6
#    24  24  24  24  24  24
#     4   9  17  30  50  75 101 131 169 211 253 300
#     4   9  18  33  51  72 103 141 177 214 258 308
#     4  11  22  35  54  81 111 142 177 219 268 324
#     4  10  20  34  54  80 110 144 181 223 270 317
#     4  10  21  38  59  80 102 130 166 210 261 316
#     4  10  21  37  56  78 107 145 189 236 284 332
#
# _framework density 18.496154000000001
#
# number of rings (size 3 to 8) (size 9 to 14) (size 15 to 20)
#    0.000    2.167    0.000    3.167    0.000    9.333 
#    0.000    2.500    0.000    5.167    0.000    0.000 
#    0.000    0.000    0.000    0.000    0.000    0.000 
#
# Total GULP energy -1785986.247166 kJ/mol
# GULP energy per Si atom -12402.682272 kJ/mol
# Density = 1.845406 g / cm^3
# Si number density = 18.496154 Si / 1000 Ang^3
#
#
#
# Elastic Constant Matrix: (Units=GPa)
#
#
# Indices 1 2 3 4 5 6 
#
# 1 80.1071 41.2817 47.4059 0.0000 0.0000 0.0000
# 2 41.2817 80.1071 47.4059 0.0000 0.0000 0.0000
# 3 47.4059 47.4059 103.1117 0.0000 0.0000 0.0000
# 4 0.0000 0.0000 0.0000 28.9972 0.0000 0.0000
# 5 0.0000 0.0000 0.0000 0.0000 28.9972 0.0000
# 6 0.0000 0.0000 0.0000 0.0000 0.0000 19.4127
#
#
#
# Elastic Compliance Matrix: (Units=1/GPa)
#
#
# Indices 1 2 3 4 5 6 
#
# 1 0.019305 -0.006451 -0.005910 0.000000 0.000000 0.000000
# 2 -0.006451 0.019305 -0.005910 0.000000 0.000000 0.000000
# 3 -0.005910 -0.005910 0.015132 0.000000 0.000000 0.000000
# 4 0.000000 0.000000 0.000000 0.034486 0.000000 0.000000
# 5 0.000000 0.000000 0.000000 0.000000 0.034486 0.000000
# 6 0.000000 0.000000 0.000000 0.000000 0.000000 0.051513
#
#
# Mechanical properties :
#
#
# Convention : Reuss Voigt Hill
#
# Bulk Modulus (GPa) = 58.13499 59.50142 58.81820
# Shear Modulus (GPa) = 23.09454 23.96358 23.52906
#
# Velocity S-wave (km/s) = 3.53741 3.60335 3.57053
# Velocity P-wave (km/s) = 6.94143 7.03929 6.99053
#
# Compressibility (1/GPa) = 0.01720134
#
# Stress axis : x y z
#
# Youngs Moduli (GPa) = 51.80001 51.80001 66.08489
#
# Poissons Ratio (x) = 0.33418 0.39053
# Poissons Ratio (y) = 0.33418 0.39053
# Poissons Ratio (z) = 0.30611 0.30611
#
# Static dielectric constant tensor:
#      x y z
#    x 3.412290 0.000000 0.000000 
#    y 0.000000 3.412290 0.000000 
#    z 0.000000 0.000000 3.549290 
# 
# 
# High freq. dielectric constant tensor:
#      x y z
#    x 1.711120 0.000000 0.000000 
#    y 0.000000 1.711120 0.000000 
#    z 0.000000 0.000000 1.728350 
# 
# From -- ./inp_files/2123.got.cif
#   From: 2010.03.12/outbox.cif.g09.slc.cpg/sg194_2_cif.got.tgz:2123.got - 2010.04.01 12:26:19.
