data_PCOD8330388
_publ_section_title
;
Structure prediction by ZEFSAII (Michael W. Deem and Ramdas Pophale) SiO2 
 PCOD8330388
Probable space group: P 63/M M C
;
_chemical_formula_sum "Si O2"
_cell_formula_units_Z 88
_cell_length_a 25.593777
_cell_length_b 25.593777
_cell_length_c 9.155813
_cell_angle_alpha 90.000000
_cell_angle_beta 90.000000
_cell_angle_gamma 120.000000
_cell_volume 5193.932591
_symmetry_space_group_name_H-M "P 63/M M C"
_symmetry_group_IT_number 194
_symmetry_cell_setting 'hexagonal'
loop_
_space_group_symop_operation_xyz
x,y,z
x-y,x,1/2+z
-y,x-y,z
-x,-y,1/2+z
-x+y,-x,z
y,-x+y,1/2+z
x-y,-y,-z
-x,-x+y,-z
y,x,-z
-y,-x,1/2-z
-x+y,y,1/2-z
x,x-y,1/2-z
-x,-y,-z
-x+y,-x,1/2-z
y,-x+y,-z
x,y,1/2-z
x-y,x,-z
-y,x-y,1/2-z
-x+y,y,z
x,x-y,z
-y,-x,z
y,x,1/2+z
x-y,-y,1/2+z
-x,-x+y,1/2+z
loop_
_atom_site_type_symbol
_atom_site_label
_atom_site_fract_x
_atom_site_fract_y
_atom_site_fract_z
Si Si1 0.605094 0.394907 0.083057
Si Si2 0.819552 0.058849 0.078914
Si Si3 0.525296 0.702350 0.583037
Si Si4 0.117393 0.758598 0.085842
Si Si5 0.333334 0.666667 0.078465
O O1 0.617194 0.382807 0.250000
O O2 0.533451 0.362833 0.053973
O O3 0.632669 0.367332 0.974316
O O4 0.807307 0.047061 0.250000
O O5 0.886231 0.113770 0.046784
O O6 0.768344 0.070786 0.011011
O O7 0.814139 0.000000 0.000000
O O8 0.546858 0.709120 0.750000
O O9 0.509522 0.754761 0.544662
O O10 0.579054 0.706437 0.483657
O O11 0.091928 0.740003 0.250000
O O12 0.180707 0.819294 0.085596
O O13 0.333334 0.666667 0.250000
#
# Coordination Sequence:
#
# PCOD8330388 Si02
#       5
#    12  24  24  24   4
#     4  10  18  30  42  54  79 121 164 202 252 312
#     4  10  20  34  54  80 108 136 166 195 229 271
#     4   9  16  26  42  59  81 116 160 204 247 299
#     4   9  17  29  45  66  95 125 156 197 244 286
#     4  12  22  26  34  54  82 113 157 210 256 308
#
# _framework density 16.942845999999999
#
# number of rings (size 3 to 8) (size 9 to 14) (size 15 to 20)
#    0.000    2.455    1.364    2.045    0.000    6.000 
#    0.000    0.000    0.000    0.273    0.000    0.955 
#    0.000    0.000    0.000    0.000    0.000    0.000 
#
# Total GULP energy -1091121.028524 kJ/mol
# GULP energy per Si atom -12399.102597 kJ/mol
# Density = 1.690428 g / cm^3
# Si number density = 16.942846 Si / 1000 Ang^3
#
#
#
# Elastic Constant Matrix: (Units=GPa)
#
#
# Indices 1 2 3 4 5 6 
#
# 1 78.9297 41.8658 54.8001 0.0000 0.0000 0.0000
# 2 41.8658 78.9299 54.8001 0.0000 0.0000 0.0000
# 3 54.8001 54.8001 127.8320 -0.0001 0.0000 0.0000
# 4 0.0000 0.0000 -0.0001 22.7679 0.0000 0.0000
# 5 0.0000 0.0000 0.0000 0.0000 22.7679 0.0000
# 6 0.0000 0.0000 0.0000 0.0000 0.0000 18.5320
#
#
#
# Elastic Compliance Matrix: (Units=1/GPa)
#
#
# Indices 1 2 3 4 5 6 
#
# 1 0.020264 -0.006716 -0.005808 0.000000 0.000000 0.000000
# 2 -0.006716 0.020264 -0.005808 0.000000 0.000000 0.000000
# 3 -0.005808 -0.005808 0.012802 0.000000 0.000000 0.000000
# 4 0.000000 0.000000 0.000000 0.043921 0.000000 0.000000
# 5 0.000000 0.000000 0.000000 0.000000 0.043921 0.000000
# 6 0.000000 0.000000 0.000000 0.000000 0.000000 0.053961
#
#
# Mechanical properties :
#
#
# Convention : Reuss Voigt Hill
#
# Bulk Modulus (GPa) = 59.99931 65.40264 62.70098
# Shear Modulus (GPa) = 21.06559 21.76194 21.41377
#
# Velocity S-wave (km/s) = 3.52992 3.58779 3.55897
# Velocity P-wave (km/s) = 7.21827 7.47320 7.34684
#
# Compressibility (1/GPa) = 0.01666686
#
# Stress axis : x y z
#
# Youngs Moduli (GPa) = 49.34801 49.34815 78.11078
#
# Poissons Ratio (x) = 0.33143 0.45366
# Poissons Ratio (y) = 0.33143 0.45366
# Poissons Ratio (z) = 0.28661 0.28661
#
# Static dielectric constant tensor:
#      x y z
#    x 3.001450 0.000000 0.000000 
#    y 0.000000 3.001450 0.000000 
#    z 0.000000 0.000000 3.304830 
# 
# 
# High freq. dielectric constant tensor:
#      x y z
#    x 1.625940 0.000000 0.000000 
#    y 0.000000 1.625940 0.000000 
#    z 0.000000 0.000000 1.663840 
# 
# From -- ./inp_files/1461.got.cif
#   From: 2010.03.12/outbox.cif.g09.slc.cpg/sg194_1_cif.got.tgz:1461.got - 2010.04.01 12:26:19.
