data_PCOD8330668
_publ_section_title
;
Structure prediction by ZEFSAII (Michael W. Deem and Ramdas Pophale) SiO2 
 PCOD8330668
Probable space group: P 63/M M C
;
_chemical_formula_sum "Si O2"
_cell_formula_units_Z 72
_cell_length_a 12.612351
_cell_length_b 12.612351
_cell_length_c 30.402000
_cell_angle_alpha 90.000000
_cell_angle_beta 90.000000
_cell_angle_gamma 120.000000
_cell_volume 4188.175612
_symmetry_space_group_name_H-M "P 63/M M C"
_symmetry_group_IT_number 194
_symmetry_cell_setting 'hexagonal'
loop_
_space_group_symop_operation_xyz
x,y,z
x-y,x,1/2+z
-y,x-y,z
-x,-y,1/2+z
-x+y,-x,z
y,-x+y,1/2+z
x-y,-y,-z
-x,-x+y,-z
y,x,-z
-y,-x,1/2-z
-x+y,y,1/2-z
x,x-y,1/2-z
-x,-y,-z
-x+y,-x,1/2-z
y,-x+y,-z
x,y,1/2-z
x-y,x,-z
-y,x-y,1/2-z
-x+y,y,z
x,x-y,z
-y,-x,z
y,x,1/2+z
x-y,-y,1/2+z
-x,-x+y,1/2+z
loop_
_atom_site_type_symbol
_atom_site_label
_atom_site_fract_x
_atom_site_fract_y
_atom_site_fract_z
Si Si1 0.581712 0.667271 0.959283
Si Si2 0.245536 0.998840 0.877284
Si Si3 0.577580 0.667033 0.699788
O O1 0.565144 0.782572 0.968336
O O2 0.449417 0.550584 0.953240
O O3 0.657276 0.681910 0.915441
O O4 0.654379 0.654379 0.000000
O O5 0.259526 0.129763 0.884592
O O6 0.306690 0.998256 0.830845
O O7 0.102648 0.897352 0.877913
O O8 0.618388 0.668186 0.750000
O O9 0.538960 0.769480 0.691910
O O10 0.462240 0.537761 0.687000
#
# Coordination Sequence:
#
# PCOD8330668 Si02
#       3
#    24  24  24
#     4  10  20  34  53  76 101 129 161 198 240 286
#     4  10  20  33  49  70  97 129 164 201 241 285
#     4   9  17  30  50  75 100 126 158 199 246 293
#
# _framework density 17.191257
#
# number of rings (size 3 to 8) (size 9 to 14) (size 15 to 20)
#    0.000    2.333    0.000    3.000    0.000    2.000 
#    0.000    3.333    0.000   14.667    0.000    0.000 
#    0.000    0.000    0.000    0.000    0.000    0.000 
#
# Total GULP energy -893009.427461 kJ/mol
# GULP energy per Si atom -12402.908715 kJ/mol
# Density = 1.715213 g / cm^3
# Si number density = 17.191257 Si / 1000 Ang^3
#
#
#
# Elastic Constant Matrix: (Units=GPa)
#
#
# Indices 1 2 3 4 5 6 
#
# 1 97.5723 60.1914 55.4481 0.0000 0.0000 0.0000
# 2 60.1914 97.5723 55.4481 0.0000 0.0000 0.0000
# 3 55.4481 55.4481 106.4987 0.0000 0.0000 0.0000
# 4 0.0000 0.0000 0.0000 24.9313 0.0000 0.0000
# 5 0.0000 0.0000 0.0000 0.0000 24.9313 0.0000
# 6 0.0000 0.0000 0.0000 0.0000 0.0000 18.6905
#
#
#
# Elastic Compliance Matrix: (Units=1/GPa)
#
#
# Indices 1 2 3 4 5 6 
#
# 1 0.018374 -0.008377 -0.005205 0.000000 0.000000 0.000000
# 2 -0.008377 0.018374 -0.005205 0.000000 0.000000 0.000000
# 3 -0.005205 -0.005205 0.014810 0.000000 0.000000 0.000000
# 4 0.000000 0.000000 0.000000 0.040110 0.000000 0.000000
# 5 0.000000 0.000000 0.000000 0.000000 0.040110 0.000000
# 6 0.000000 0.000000 0.000000 0.000000 0.000000 0.053503
#
#
# Mechanical properties :
#
#
# Convention : Reuss Voigt Hill
#
# Bulk Modulus (GPa) = 71.50927 71.53537 71.52232
# Shear Modulus (GPa) = 21.97625 22.41435 22.19530
#
# Velocity S-wave (km/s) = 3.57926 3.61477 3.59706
# Velocity P-wave (km/s) = 7.66604 7.68920 7.67763
#
# Compressibility (1/GPa) = 0.01398420
#
# Stress axis : x y z
#
# Youngs Moduli (GPa) = 54.42326 54.42326 67.52288
#
# Poissons Ratio (x) = 0.45591 0.35146
# Poissons Ratio (y) = 0.45591 0.35146
# Poissons Ratio (z) = 0.28328 0.28328
#
# Static dielectric constant tensor:
#      x y z
#    x 3.106930 0.000000 0.000000 
#    y 0.000000 3.106930 0.000000 
#    z 0.000000 0.000000 3.438310 
# 
# 
# High freq. dielectric constant tensor:
#      x y z
#    x 1.658740 0.000000 0.000000 
#    y 0.000000 1.658740 0.000000 
#    z 0.000000 0.000000 1.680540 
# 
# From -- ./inp_files/11283.got.cif
#   From: 2010.03.12/outbox.cif.g09.slc.cpg/sg194_6_cif.got.tgz:11283.got - 2010.04.01 12:26:19.
