data_PCOD8330515
_publ_section_title
;
Structure prediction by ZEFSAII (Michael W. Deem and Ramdas Pophale) SiO2 
 PCOD8330515
Probable space group: P 63/M M C
;
_chemical_formula_sum "Si O2"
_cell_formula_units_Z 144
_cell_length_a 22.172206
_cell_length_b 22.172206
_cell_length_c 19.915771
_cell_angle_alpha 90.000000
_cell_angle_beta 90.000000
_cell_angle_gamma 120.000000
_cell_volume 8479.018161
_symmetry_space_group_name_H-M "P 63/M M C"
_symmetry_group_IT_number 194
_symmetry_cell_setting 'hexagonal'
loop_
_space_group_symop_operation_xyz
x,y,z
x-y,x,1/2+z
-y,x-y,z
-x,-y,1/2+z
-x+y,-x,z
y,-x+y,1/2+z
x-y,-y,-z
-x,-x+y,-z
y,x,-z
-y,-x,1/2-z
-x+y,y,1/2-z
x,x-y,1/2-z
-x,-y,-z
-x+y,-x,1/2-z
y,-x+y,-z
x,y,1/2-z
x-y,x,-z
-y,x-y,1/2-z
-x+y,y,z
x,x-y,z
-y,-x,z
y,x,1/2+z
x-y,-y,1/2+z
-x,-x+y,1/2+z
loop_
_atom_site_type_symbol
_atom_site_label
_atom_site_fract_x
_atom_site_fract_y
_atom_site_fract_z
Si Si1 0.287127 0.076321 0.670177
Si Si2 0.451510 0.044556 0.061568
Si Si3 0.667035 0.471576 0.471450
Si Si4 0.947707 0.591778 0.827241
Si Si5 0.133520 0.134449 0.829868
Si Si6 0.469883 0.803222 0.370287
O O1 0.291047 0.079939 0.750000
O O2 0.302542 0.151271 0.642332
O O3 0.344371 0.059066 0.642004
O O4 0.210290 0.016470 0.646278
O O5 0.524753 0.049505 0.049674
O O6 0.467231 0.124278 0.061952
O O7 0.419661 0.008062 0.132102
O O8 0.400711 0.000000 0.000000
O O9 0.739856 0.479712 0.446226
O O10 0.605314 0.394687 0.451188
O O11 0.667470 0.482290 0.550807
O O12 0.971459 0.604173 0.750000
O O13 0.874038 0.521676 0.832480
O O14 0.130367 0.133324 0.750000
O O15 0.118412 0.059206 0.855701
O O16 0.075144 0.150288 0.860069
O O17 0.391380 0.782760 0.351806
O O18 0.482281 0.741141 0.345056
#
# Coordination Sequence:
#
# PCOD8330515 Si02
#       6
#    24  24  24  24  24  24
#     4   8  15  27  40  58  89 126 160 192 227 275
#     4  10  19  34  52  71  97 127 161 203 244 282
#     4   9  17  31  53  77  99 124 159 204 252 298
#     4  11  21  32  48  70  97 133 171 199 232 285
#     4   8  12  19  34  56  81 110 147 191 236 278
#     4  10  19  31  48  72 101 131 162 196 236 286
#
# _framework density 16.983098999999999
#
# number of rings (size 3 to 8) (size 9 to 14) (size 15 to 20)
#    0.000    2.667    1.667    2.500    0.000    4.333 
#    0.000    0.833    0.000    2.500    0.000    0.000 
#    0.000    1.333    0.000    0.000    0.000    8.833 
#
# Total GULP energy -1784986.955805 kJ/mol
# GULP energy per Si atom -12395.742749 kJ/mol
# Density = 1.694444 g / cm^3
# Si number density = 16.983099 Si / 1000 Ang^3
#
#
#
# Elastic Constant Matrix: (Units=GPa)
#
#
# Indices 1 2 3 4 5 6 
#
# 1 92.2702 39.6407 21.9137 0.0000 0.0000 0.0000
# 2 39.6407 92.2702 21.9137 0.0000 0.0000 0.0000
# 3 21.9137 21.9137 39.7392 0.0000 0.0000 0.0000
# 4 0.0000 0.0000 0.0000 14.0713 0.0000 0.0000
# 5 0.0000 0.0000 0.0000 0.0000 14.0713 0.0000
# 6 0.0000 0.0000 0.0000 0.0000 0.0000 26.3147
#
#
#
# Elastic Compliance Matrix: (Units=1/GPa)
#
#
# Indices 1 2 3 4 5 6 
#
# 1 0.014141 -0.004860 -0.005118 0.000000 0.000000 0.000000
# 2 -0.004860 0.014141 -0.005118 0.000000 0.000000 0.000000
# 3 -0.005118 -0.005118 0.030809 0.000000 0.000000 0.000000
# 4 0.000000 0.000000 0.000000 0.071067 0.000000 0.000000
# 5 0.000000 0.000000 0.000000 0.000000 0.071067 0.000000
# 6 0.000000 0.000000 0.000000 0.000000 0.000000 0.038002
#
#
# Mechanical properties :
#
#
# Convention : Reuss Voigt Hill
#
# Bulk Modulus (GPa) = 34.60322 43.46843 39.03583
# Shear Modulus (GPa) = 17.91791 20.27890 19.09840
#
# Velocity S-wave (km/s) = 3.25167 3.45927 3.35707
# Velocity P-wave (km/s) = 5.87513 6.45028 6.16941
#
# Compressibility (1/GPa) = 0.02889904
#
# Stress axis : x y z
#
# Youngs Moduli (GPa) = 70.71610 70.71610 32.45839
#
# Poissons Ratio (x) = 0.34366 0.16612
# Poissons Ratio (y) = 0.34366 0.16612
# Poissons Ratio (z) = 0.36193 0.36193
#
# Static dielectric constant tensor:
#      x y z
#    x 3.370330 0.000000 0.000000 
#    y 0.000000 3.370330 0.000000 
#    z 0.000000 0.000000 2.656550 
# 
# 
# High freq. dielectric constant tensor:
#      x y z
#    x 1.657060 0.000000 0.000000 
#    y 0.000000 1.657060 0.000000 
#    z 0.000000 0.000000 1.597500 
# 
# From -- ./inp_files/8231.got.cif
#   From: 2010.03.12/outbox.cif.g09.slc.cpg/sg194_5_cif.got.tgz:8231.got - 2010.04.01 12:26:19.
