data_PCOD8330187
_publ_section_title
;
Structure prediction by ZEFSAII (Michael W. Deem and Ramdas Pophale) SiO2 
 PCOD8330187
Probable space group: P 63/M C M
;
_chemical_formula_sum "Si O2"
_cell_formula_units_Z 168
_cell_length_a 21.611277
_cell_length_b 21.611277
_cell_length_c 24.094729
_cell_angle_alpha 90.000000
_cell_angle_beta 90.000000
_cell_angle_gamma 120.000000
_cell_volume 9745.711199
_symmetry_space_group_name_H-M "P 63/M C M"
_symmetry_group_IT_number 193
_symmetry_cell_setting 'hexagonal'
loop_
_space_group_symop_operation_xyz
x,y,z
x-y,x,1/2+z
-y,x-y,z
-x,-y,1/2+z
-x+y,-x,z
y,-x+y,1/2+z
x-y,-y,1/2-z
-x,-x+y,1/2-z
y,x,1/2-z
-y,-x,-z
-x+y,y,-z
x,x-y,-z
-x,-y,-z
-x+y,-x,1/2-z
y,-x+y,-z
x,y,1/2-z
x-y,x,-z
-y,x-y,1/2-z
-x+y,y,1/2+z
x,x-y,1/2+z
-y,-x,1/2+z
y,x,z
x-y,-y,z
-x,-x+y,z
loop_
_atom_site_type_symbol
_atom_site_label
_atom_site_fract_x
_atom_site_fract_y
_atom_site_fract_z
Si Si1 0.157131 0.078563 0.434635
Si Si2 0.678491 0.839188 0.566229
Si Si3 0.914555 0.596371 0.607660
Si Si4 0.389991 0.474514 0.498610
Si Si5 0.336123 0.525617 0.684309
Si Si6 0.477029 0.669694 0.684365
Si Si7 0.317002 0.914848 0.608374
O O1 0.145596 0.072798 0.500000
O O2 0.125303 0.125303 0.408438
O O3 0.239135 0.113953 0.420367
O O4 0.116020 0.000000 0.407700
O O5 0.662033 0.831017 0.500000
O O6 0.646508 0.880931 0.599209
O O7 0.655189 0.764448 0.595816
O O8 0.890633 0.547672 0.553281
O O9 0.879428 0.543935 0.659706
O O10 0.000000 0.642625 0.615925
O O11 0.440439 0.559562 0.500000
O O12 0.435675 0.435675 0.496060
O O13 0.342012 0.454605 0.444245
O O14 0.335708 0.517996 0.750000
O O15 0.406848 0.597426 0.664317
O O16 0.266833 0.529350 0.663841
O O17 0.483602 0.670398 0.750000
O O18 0.548855 0.673967 0.661115
O O19 0.362252 0.000000 0.618126
#
# Coordination Sequence:
#
# PCOD8330187 Si02
#       7
#    24  24  24  24  24  24  24
#     4   9  17  28  45  69 101 141 184 227 268 313
#     4  11  20  33  51  76 109 147 185 220 265 321
#     4  11  21  34  54  79 107 141 180 220 265 319
#     4   9  18  31  48  74 105 136 170 211 258 308
#     4  10  21  38  59  81 106 138 177 220 267 318
#     4  10  21  38  59  81 106 138 177 220 267 318
#     4  11  21  34  54  79 107 141 180 220 265 319
#
# _framework density 17.238351999999999
#
# number of rings (size 3 to 8) (size 9 to 14) (size 15 to 20)
#    0.000    1.857    2.857    2.143    0.000    5.143 
#    0.000    1.429    0.000    0.000    0.000    0.000 
#    0.000    0.000    0.000    0.000    0.000   10.143 
#
# Total GULP energy -2082889.153062 kJ/mol
# GULP energy per Si atom -12398.149721 kJ/mol
# Density = 1.719912 g / cm^3
# Si number density = 17.238352 Si / 1000 Ang^3
#
#
#
# Elastic Constant Matrix: (Units=GPa)
#
#
# Indices 1 2 3 4 5 6 
#
# 1 89.0941 24.4016 19.2810 0.0000 0.0000 0.0000
# 2 24.4016 89.0941 19.2810 0.0000 0.0000 0.0000
# 3 19.2810 19.2810 33.6620 0.0000 0.0000 0.0000
# 4 0.0000 0.0000 0.0000 22.6847 0.0000 0.0000
# 5 0.0000 0.0000 0.0000 0.0000 22.6847 0.0000
# 6 0.0000 0.0000 0.0000 0.0000 0.0000 32.3463
#
#
#
# Elastic Compliance Matrix: (Units=1/GPa)
#
#
# Indices 1 2 3 4 5 6 
#
# 1 0.013199 -0.002259 -0.006266 0.000000 0.000000 0.000000
# 2 -0.002259 0.013199 -0.006266 0.000000 0.000000 0.000000
# 3 -0.006266 -0.006266 0.036885 0.000000 0.000000 0.000000
# 4 0.000000 0.000000 0.000000 0.044083 0.000000 0.000000
# 5 0.000000 0.000000 0.000000 0.000000 0.044083 0.000000
# 6 0.000000 0.000000 0.000000 0.000000 0.000000 0.030915
#
#
# Mechanical properties :
#
#
# Convention : Reuss Voigt Hill
#
# Bulk Modulus (GPa) = 29.67317 37.53083 33.60200
# Shear Modulus (GPa) = 22.40348 25.46893 23.93621
#
# Velocity S-wave (km/s) = 3.60895 3.84794 3.73036
# Velocity P-wave (km/s) = 5.88361 6.44680 6.17163
#
# Compressibility (1/GPa) = 0.03370047
#
# Stress axis : x y z
#
# Youngs Moduli (GPa) = 75.76425 75.76425 27.11101
#
# Poissons Ratio (x) = 0.17114 0.16988
# Poissons Ratio (y) = 0.17114 0.16988
# Poissons Ratio (z) = 0.47475 0.47475
#
# Static dielectric constant tensor:
#      x y z
#    x 3.345610 0.000000 0.000000 
#    y 0.000000 3.345610 0.000000 
#    z 0.000000 0.000000 2.971310 
# 
# 
# High freq. dielectric constant tensor:
#      x y z
#    x 1.676820 0.000000 0.000000 
#    y 0.000000 1.676820 0.000000 
#    z 0.000000 0.000000 1.633720 
# 
# From -- ./inp_files/7713.got.cif
#   From: 2010.03.12/outbox.cif.g09.slc.cpg/sg193_4_cif.got.tgz:7713.got - 2010.04.01 12:20:39.
