data_PCOD8330373
_publ_section_title
;
Structure prediction by ZEFSAII (Michael W. Deem and Ramdas Pophale) SiO2 
 PCOD8330373
Probable space group: P 63/M M C
;
_chemical_formula_sum "Si O2"
_cell_formula_units_Z 168
_cell_length_a 25.103741
_cell_length_b 25.103741
_cell_length_c 20.341367
_cell_angle_alpha 90.000000
_cell_angle_beta 90.000000
_cell_angle_gamma 120.000000
_cell_volume 11101.653246
_symmetry_space_group_name_H-M "P 63/M M C"
_symmetry_group_IT_number 194
_symmetry_cell_setting 'hexagonal'
loop_
_space_group_symop_operation_xyz
x,y,z
x-y,x,1/2+z
-y,x-y,z
-x,-y,1/2+z
-x+y,-x,z
y,-x+y,1/2+z
x-y,-y,-z
-x,-x+y,-z
y,x,-z
-y,-x,1/2-z
-x+y,y,1/2-z
x,x-y,1/2-z
-x,-y,-z
-x+y,-x,1/2-z
y,-x+y,-z
x,y,1/2-z
x-y,x,-z
-y,x-y,1/2-z
-x+y,y,z
x,x-y,z
-y,-x,z
y,x,1/2+z
x-y,-y,1/2+z
-x,-x+y,1/2+z
loop_
_atom_site_type_symbol
_atom_site_label
_atom_site_fract_x
_atom_site_fract_y
_atom_site_fract_z
Si Si1 0.372230 0.316830 0.325997
Si Si2 0.000049 0.877866 0.172030
Si Si3 0.231912 0.242988 0.609960
Si Si4 0.576975 0.726515 0.563205
Si Si5 0.099914 0.608449 0.498732
Si Si6 0.299612 0.090174 0.507835
Si Si7 0.994729 0.437142 0.892804
O O1 0.382582 0.309891 0.250000
O O2 0.300257 0.270480 0.341566
O O3 0.414296 0.296013 0.365719
O O4 0.395853 0.389030 0.340478
O O5 0.999987 0.877563 0.250000
O O6 0.938756 0.877511 0.146040
O O7 0.002116 0.817809 0.148824
O O8 0.060541 0.939460 0.145646
O O9 0.192540 0.254470 0.554875
O O10 0.283069 0.235366 0.571073
O O11 0.567784 0.783892 0.574643
O O12 0.519723 0.674656 0.521837
O O13 0.634007 0.739415 0.517085
O O14 0.129125 0.564563 0.498473
O O15 0.071572 0.606869 0.426797
O O16 0.045921 0.586528 0.551488
O O17 0.298498 0.149249 0.532999
O O18 0.995535 0.497768 0.861495
#
# Coordination Sequence:
#
# PCOD8330373 Si02
#       7
#    24  24  24  24  24  24  24
#     4  10  19  28  39  59  87 116 142 167 199 243
#     4  10  20  33  47  60  75  99 134 175 217 263
#     4  10  18  29  44  61  81 102 128 165 211 258
#     4   9  17  28  41  59  83 111 142 172 201 237
#     4   8  13  24  43  63  81 103 134 172 211 246
#     4   9  17  28  43  61  79 100 127 162 204 251
#     4   8  14  25  42  63  85 109 137 169 205 246
#
# _framework density 15.132880999999999
#
# number of rings (size 3 to 8) (size 9 to 14) (size 15 to 20)
#    0.000    2.857    0.000    3.143    0.000    5.143 
#    0.000    0.000    0.000    0.286    0.000    5.000 
#    0.000    0.000    0.000    0.429    0.000    0.000 
#
# Total GULP energy -2081752.576846 kJ/mol
# GULP energy per Si atom -12391.384386 kJ/mol
# Density = 1.509844 g / cm^3
# Si number density = 15.132881 Si / 1000 Ang^3
#
#
#
# Elastic Constant Matrix: (Units=GPa)
#
#
# Indices 1 2 3 4 5 6 
#
# 1 75.6354 44.5243 35.0497 0.0000 0.0000 0.0000
# 2 44.5243 75.6354 35.0497 0.0000 0.0000 0.0000
# 3 35.0497 35.0497 50.6506 0.0000 0.0000 0.0000
# 4 0.0000 0.0000 0.0000 16.3867 0.0000 0.0000
# 5 0.0000 0.0000 0.0000 0.0000 16.3867 0.0000
# 6 0.0000 0.0000 0.0000 0.0000 0.0000 15.5555
#
#
#
# Elastic Compliance Matrix: (Units=1/GPa)
#
#
# Indices 1 2 3 4 5 6 
#
# 1 0.023050 -0.009093 -0.009658 0.000000 0.000000 0.000000
# 2 -0.009093 0.023050 -0.009658 0.000000 0.000000 0.000000
# 3 -0.009658 -0.009658 0.033109 0.000000 0.000000 0.000000
# 4 0.000000 0.000000 0.000000 0.061025 0.000000 0.000000
# 5 0.000000 0.000000 0.000000 0.000000 0.061025 0.000000
# 6 0.000000 0.000000 0.000000 0.000000 0.000000 0.064286
#
#
# Mechanical properties :
#
#
# Convention : Reuss Voigt Hill
#
# Bulk Modulus (GPa) = 44.66037 47.90763 46.28400
# Shear Modulus (GPa) = 15.15954 15.48564 15.32259
#
# Velocity S-wave (km/s) = 3.16850 3.20239 3.18549
# Velocity P-wave (km/s) = 6.55454 6.73799 6.64690
#
# Compressibility (1/GPa) = 0.02239122
#
# Stress axis : x y z
#
# Youngs Moduli (GPa) = 43.38462 43.38462 30.20315
#
# Poissons Ratio (x) = 0.39451 0.29169
# Poissons Ratio (y) = 0.39451 0.29169
# Poissons Ratio (z) = 0.41899 0.41899
#
# Static dielectric constant tensor:
#      x y z
#    x 2.974470 0.000000 0.000000 
#    y 0.000000 2.974470 0.000000 
#    z 0.000000 0.000000 2.775810 
# 
# 
# High freq. dielectric constant tensor:
#      x y z
#    x 1.570530 0.000000 0.000000 
#    y 0.000000 1.570530 0.000000 
#    z 0.000000 0.000000 1.560220 
# 
# From -- ./inp_files/8572.got.cif
#   From: 2010.03.12/outbox.cif.g09.slc.cpg/sg194_5_cif.got.tgz:8572.got - 2010.04.01 12:26:19.
