data_PCOD8330463
_publ_section_title
;
Structure prediction by ZEFSAII (Michael W. Deem and Ramdas Pophale) SiO2 
 PCOD8330463
Probable space group: P 63/M M C
;
_chemical_formula_sum "Si O2"
_cell_formula_units_Z 168
_cell_length_a 18.248317
_cell_length_b 18.248317
_cell_length_c 28.547071
_cell_angle_alpha 90.000000
_cell_angle_beta 90.000000
_cell_angle_gamma 120.000000
_cell_volume 8232.615269
_symmetry_space_group_name_H-M "P 63/M M C"
_symmetry_group_IT_number 194
_symmetry_cell_setting 'hexagonal'
loop_
_space_group_symop_operation_xyz
x,y,z
x-y,x,1/2+z
-y,x-y,z
-x,-y,1/2+z
-x+y,-x,z
y,-x+y,1/2+z
x-y,-y,-z
-x,-x+y,-z
y,x,-z
-y,-x,1/2-z
-x+y,y,1/2-z
x,x-y,1/2-z
-x,-y,-z
-x+y,-x,1/2-z
y,-x+y,-z
x,y,1/2-z
x-y,x,-z
-y,x-y,1/2-z
-x+y,y,z
x,x-y,z
-y,-x,z
y,x,1/2+z
x-y,-y,1/2+z
-x,-x+y,1/2+z
loop_
_atom_site_type_symbol
_atom_site_label
_atom_site_fract_x
_atom_site_fract_y
_atom_site_fract_z
Si Si1 0.305580 0.857882 0.430663
Si Si2 0.974857 0.683149 0.053329
Si Si3 0.298614 0.065010 0.195819
Si Si4 0.986131 0.573093 0.196485
Si Si5 0.493619 0.666092 0.170195
Si Si6 0.833534 0.334592 0.466971
Si Si7 0.829471 0.997911 0.882737
O O1 0.204829 0.795172 0.436764
O O2 0.340972 0.832184 0.386267
O O3 0.351749 0.855171 0.477869
O O4 0.322392 0.951042 0.419938
O O5 0.892071 0.590188 0.057226
O O6 0.964395 0.756977 0.077336
O O7 0.000000 0.710633 0.000000
O O8 0.280949 0.035729 0.250000
O O9 0.322140 0.161070 0.189255
O O10 0.381391 0.063254 0.175364
O O11 0.214336 0.002855 0.166726
O O12 0.959006 0.551376 0.250000
O O13 0.967938 0.483969 0.171783
O O14 0.084378 0.643351 0.193384
O O15 0.519598 0.759799 0.187187
O O16 0.399342 0.600659 0.187700
O O17 0.848481 0.424241 0.446179
O O18 0.736200 0.263801 0.458896
O O19 0.864215 0.932108 0.881253
O O20 0.907905 0.092096 0.892281
#
# Coordination Sequence:
#
# PCOD8330463 Si02
#       7
#    24  24  24  24  24  24  24
#     4   9  18  31  49  74 100 130 172 222 273 318
#     4  10  21  36  55  77 107 144 183 222 263 314
#     4   9  19  37  61  86 110 139 175 216 267 323
#     4   9  18  32  50  74 104 137 173 212 253 302
#     4  10  19  30  45  68 100 137 176 216 257 302
#     4  10  20  34  52  74 102 137 178 225 275 323
#     4  11  23  39  59  83 111 142 177 219 268 322
#
# _framework density 20.406638000000001
#
# number of rings (size 3 to 8) (size 9 to 14) (size 15 to 20)
#    0.000    2.286    0.000    2.571    0.000    7.143 
#    0.000    3.571    0.000    2.857    0.000    2.000 
#    0.000    0.000    0.000    0.000    0.000    0.000 
#
# Total GULP energy -2082115.000286 kJ/mol
# GULP energy per Si atom -12393.541668 kJ/mol
# Density = 2.036019 g / cm^3
# Si number density = 20.406638 Si / 1000 Ang^3
#
#
#
# Elastic Constant Matrix: (Units=GPa)
#
#
# Indices 1 2 3 4 5 6 
#
# 1 112.9367 59.1328 20.4530 0.0000 0.0000 0.0000
# 2 59.1328 112.9367 20.4530 0.0000 0.0000 0.0000
# 3 20.4530 20.4530 41.5094 0.0000 0.0000 0.0000
# 4 0.0000 0.0000 0.0000 21.0564 0.0000 0.0000
# 5 0.0000 0.0000 0.0000 0.0000 21.0564 0.0000
# 6 0.0000 0.0000 0.0000 0.0000 0.0000 26.9019
#
#
#
# Elastic Compliance Matrix: (Units=1/GPa)
#
#
# Indices 1 2 3 4 5 6 
#
# 1 0.012584 -0.006002 -0.003243 0.000000 0.000000 0.000000
# 2 -0.006002 0.012584 -0.003243 0.000000 0.000000 0.000000
# 3 -0.003243 -0.003243 0.027287 0.000000 0.000000 0.000000
# 4 0.000000 0.000000 0.000000 0.047492 0.000000 0.000000
# 5 0.000000 0.000000 0.000000 0.000000 0.047492 0.000000
# 6 0.000000 0.000000 0.000000 0.000000 0.000000 0.037172
#
#
# Mechanical properties :
#
#
# Convention : Reuss Voigt Hill
#
# Bulk Modulus (GPa) = 36.39186 51.94003 44.16595
# Shear Modulus (GPa) = 22.85735 24.95920 23.90827
#
# Velocity S-wave (km/s) = 3.35041 3.50107 3.42657
# Velocity P-wave (km/s) = 5.73054 6.46924 6.11106
#
# Compressibility (1/GPa) = 0.02747867
#
# Stress axis : x y z
#
# Youngs Moduli (GPa) = 79.46375 79.46375 36.64712
#
# Poissons Ratio (x) = 0.47692 0.11886
# Poissons Ratio (y) = 0.47692 0.11886
# Poissons Ratio (z) = 0.25774 0.25774
#
# Static dielectric constant tensor:
#      x y z
#    x 3.713050 0.000000 0.000000 
#    y 0.000000 3.713050 0.000000 
#    z 0.000000 0.000000 3.583110 
# 
# 
# High freq. dielectric constant tensor:
#      x y z
#    x 1.793660 0.000000 0.000000 
#    y 0.000000 1.793660 0.000000 
#    z 0.000000 0.000000 1.782720 
# 
# From -- ./inp_files/12248.got.cif
#   From: 2010.03.12/outbox.cif.g09.slc.cpg/sg194_7_cif.got.tgz:12248.got - 2010.04.01 12:26:19.
