data_PCOD8330071
_publ_section_title
;
Structure prediction by ZEFSAII (Michael W. Deem and Ramdas Pophale) SiO2 
 PCOD8330071
Probable space group: P 63/M C M
;
_chemical_formula_sum "Si O2"
_cell_formula_units_Z 168
_cell_length_a 17.444690
_cell_length_b 17.444690
_cell_length_c 32.734066
_cell_angle_alpha 90.000000
_cell_angle_beta 90.000000
_cell_angle_gamma 120.000000
_cell_volume 8626.946364
_symmetry_space_group_name_H-M "P 63/M C M"
_symmetry_group_IT_number 193
_symmetry_cell_setting 'hexagonal'
loop_
_space_group_symop_operation_xyz
x,y,z
x-y,x,1/2+z
-y,x-y,z
-x,-y,1/2+z
-x+y,-x,z
y,-x+y,1/2+z
x-y,-y,1/2-z
-x,-x+y,1/2-z
y,x,1/2-z
-y,-x,-z
-x+y,y,-z
x,x-y,-z
-x,-y,-z
-x+y,-x,1/2-z
y,-x+y,-z
x,y,1/2-z
x-y,x,-z
-y,x-y,1/2-z
-x+y,y,1/2+z
x,x-y,1/2+z
-y,-x,1/2+z
y,x,z
x-y,-y,z
-x,-x+y,z
loop_
_atom_site_type_symbol
_atom_site_label
_atom_site_fract_x
_atom_site_fract_y
_atom_site_fract_z
Si Si1 0.897832 0.266539 0.918768
Si Si2 0.546396 0.897107 0.650321
Si Si3 0.198392 0.099537 0.796890
Si Si4 0.591733 0.488758 0.795499
Si Si5 0.508145 0.840307 0.007471
Si Si6 0.901743 0.626173 0.931870
Si Si7 0.228443 0.384874 0.329571
O O1 0.871907 0.326143 0.946996
O O2 0.830431 0.163189 0.929305
O O3 0.879966 0.281292 0.872210
O O4 0.000000 0.293026 0.925719
O O5 0.448120 0.860910 0.669183
O O6 0.548168 0.879246 0.601631
O O7 0.588761 0.846559 0.672772
O O8 0.606021 0.000000 0.661253
O O9 0.226475 0.123766 0.750000
O O10 0.165639 0.165639 0.814588
O O11 0.280900 0.103327 0.820322
O O12 0.116972 0.000000 0.801266
O O13 0.569172 0.445725 0.750000
O O14 0.552257 0.552257 0.802291
O O15 0.697270 0.551337 0.797844
O O16 0.430321 0.860641 0.000000
O O17 0.473182 0.736591 0.000000
O O18 0.586934 0.897754 0.976266
O O19 0.000000 0.707679 0.924106
#
# Coordination Sequence:
#
# PCOD8330071 Si02
#       7
#    24  24  24  24  24  24  24
#     4  10  21  35  54  83 114 146 185 228 274 333
#     4   9  20  38  57  77 105 142 185 231 282 335
#     4  10  20  34  55  84 117 151 189 238 295 352
#     4  10  21  36  54  76 105 141 182 230 279 328
#     4  10  21  36  56  84 114 146 182 228 282 340
#     4   9  19  36  57  81 111 147 184 228 283 335
#     4  11  21  36  56  81 109 146 188 234 280 337
#
# _framework density 19.473866000000001
#
# number of rings (size 3 to 8) (size 9 to 14) (size 15 to 20)
#    0.000    2.143    0.000    2.857    2.000    4.571 
#    0.857    1.429    0.000    0.286    0.000    0.000 
#    0.000    3.429    0.000    0.000    0.000    0.000 
#
# Total GULP energy -2082453.385805 kJ/mol
# GULP energy per Si atom -12395.555868 kJ/mol
# Density = 1.942954 g / cm^3
# Si number density = 19.473866 Si / 1000 Ang^3
#
#
#
# Elastic Constant Matrix: (Units=GPa)
#
#
# Indices 1 2 3 4 5 6 
#
# 1 97.4333 50.6192 36.9288 0.0000 0.0000 0.0000
# 2 50.6192 97.4333 36.9288 0.0000 0.0000 0.0000
# 3 36.9288 36.9288 92.1143 0.0000 0.0000 0.0000
# 4 0.0000 0.0000 0.0000 23.7446 0.0000 0.0000
# 5 0.0000 0.0000 0.0000 0.0000 23.7446 0.0000
# 6 0.0000 0.0000 0.0000 0.0000 0.0000 23.4070
#
#
#
# Elastic Compliance Matrix: (Units=1/GPa)
#
#
# Indices 1 2 3 4 5 6 
#
# 1 0.014902 -0.006459 -0.003385 0.000000 0.000000 0.000000
# 2 -0.006459 0.014902 -0.003385 0.000000 0.000000 0.000000
# 3 -0.003385 -0.003385 0.013570 0.000000 0.000000 0.000000
# 4 0.000000 0.000000 0.000000 0.042115 0.000000 0.000000
# 5 0.000000 0.000000 0.000000 0.000000 0.042115 0.000000
# 6 0.000000 0.000000 0.000000 0.000000 0.000000 0.042722
#
#
# Mechanical properties :
#
#
# Convention : Reuss Voigt Hill
#
# Bulk Modulus (GPa) = 59.11318 59.54827 59.33073
# Shear Modulus (GPa) = 24.70088 25.01286 24.85687
#
# Velocity S-wave (km/s) = 3.56534 3.58779 3.57658
# Velocity P-wave (km/s) = 6.88258 6.91432 6.89847
#
# Compressibility (1/GPa) = 0.01691670
#
# Stress axis : x y z
#
# Youngs Moduli (GPa) = 67.10506 67.10506 73.69198
#
# Poissons Ratio (x) = 0.43344 0.24943
# Poissons Ratio (y) = 0.43344 0.24943
# Poissons Ratio (z) = 0.22714 0.22714
#
# Static dielectric constant tensor:
#      x y z
#    x 3.487290 0.000000 0.000000 
#    y 0.000000 3.487290 0.000000 
#    z 0.000000 0.000000 3.671850 
# 
# 
# High freq. dielectric constant tensor:
#      x y z
#    x 1.749270 0.000000 0.000000 
#    y 0.000000 1.749270 0.000000 
#    z 0.000000 0.000000 1.762960 
# 
# From -- ./inp_files/9346.got.cif
#   From: 2010.03.12/outbox.cif.g09.slc.cpg/sg193_5_cif.got.tgz:9346.got - 2010.04.01 12:20:39.
