data_PCOD8330743
_publ_section_title
;
Structure prediction by ZEFSAII (Michael W. Deem and Ramdas Pophale) SiO2 
 PCOD8330743
Probable space group: P 63/M M C
;
_chemical_formula_sum "Si O2"
_cell_formula_units_Z 82
_cell_length_a 15.266690
_cell_length_b 15.266690
_cell_length_c 23.921456
_cell_angle_alpha 90.000000
_cell_angle_beta 90.000000
_cell_angle_gamma 120.000000
_cell_volume 4828.453081
_symmetry_space_group_name_H-M "P 63/M M C"
_symmetry_group_IT_number 194
_symmetry_cell_setting 'hexagonal'
loop_
_space_group_symop_operation_xyz
x,y,z
x-y,x,1/2+z
-y,x-y,z
-x,-y,1/2+z
-x+y,-x,z
y,-x+y,1/2+z
x-y,-y,-z
-x,-x+y,-z
y,x,-z
-y,-x,1/2-z
-x+y,y,1/2-z
x,x-y,1/2-z
-x,-y,-z
-x+y,-x,1/2-z
y,-x+y,-z
x,y,1/2-z
x-y,x,-z
-y,x-y,1/2-z
-x+y,y,z
x,x-y,z
-y,-x,z
y,x,1/2+z
x-y,-y,1/2+z
-x,-x+y,1/2+z
loop_
_atom_site_type_symbol
_atom_site_label
_atom_site_fract_x
_atom_site_fract_y
_atom_site_fract_z
Si Si1 0.666667 0.333334 0.815991
Si Si2 0.225090 0.450180 0.053034
Si Si3 0.601474 0.398527 0.250000
Si Si4 0.135708 0.567854 0.387613
Si Si5 0.112244 0.887756 0.436230
Si Si6 0.106295 0.553148 0.631909
Si Si7 0.774906 0.549812 0.079606
Si Si8 0.888099 0.111902 0.069525
O O1 0.666667 0.333334 0.750000
O O2 0.607739 0.215478 0.835883
O O3 0.338372 0.497808 0.073825
O O4 0.170181 0.340361 0.080575
O O5 0.229660 0.459319 0.986770
O O6 0.551824 0.275912 0.250000
O O7 0.564903 0.435098 0.197231
O O8 0.016245 0.508123 0.372490
O O9 0.110283 0.889718 0.502871
O O10 0.002160 0.832233 0.408588
O O11 0.159697 0.662723 0.603562
O O12 0.833179 0.666358 0.096582
#
# Coordination Sequence:
#
# PCOD8330743 Si02
#       8
#     4  12   6  12  12  12  12  12
#     4   9  21  42  57  78  99 135 189 241 287 334
#     4  10  20  35  48  77 114 143 173 217 251 323
#     4  10  20  42  56  74 108 136 180 250 278 322
#     4  10  22  36  56  77 108 141 182 229 274 323
#     4   9  16  28  43  64  99 133 172 207 237 288
#     4  12  22  36  57  82 104 146 184 226 280 329
#     4  11  21  32  52  77 112 146 175 205 264 328
#     4   9  17  27  44  67  94 136 172 204 242 291
#
# _framework density 16.982665000000001
#
# number of rings (size 3 to 8) (size 9 to 14) (size 15 to 20)
#    0.146    1.756    1.463    3.512    1.024    5.854 
#    0.000    0.000    0.000    0.000    0.000    0.000 
#    0.000    0.000    0.000    0.146    0.000    0.146 
#
# Total GULP energy -1016227.073054 kJ/mol
# GULP energy per Si atom -12393.013086 kJ/mol
# Density = 1.694401 g / cm^3
# Si number density = 16.982665 Si / 1000 Ang^3
#
#
#
# Elastic Constant Matrix: (Units=GPa)
#
#
# Indices 1 2 3 4 5 6 
#
# 1 177.3336 93.0370 49.7424 0.0000 0.0000 0.0000
# 2 93.0370 177.3336 49.7423 0.0000 0.0000 0.0000
# 3 49.7424 49.7423 88.0926 0.0000 0.0000 0.0000
# 4 0.0000 0.0000 0.0000 11.6310 0.0000 0.0000
# 5 0.0000 0.0000 0.0000 0.0000 11.6310 0.0000
# 6 0.0000 0.0000 0.0000 0.0000 0.0000 42.1483
#
#
#
# Elastic Compliance Matrix: (Units=1/GPa)
#
#
# Indices 1 2 3 4 5 6 
#
# 1 0.008266 -0.003597 -0.002636 0.000000 0.000000 0.000000
# 2 -0.003597 0.008266 -0.002636 0.000000 0.000000 0.000000
# 3 -0.002636 -0.002636 0.014329 0.000000 0.000000 0.000000
# 4 0.000000 0.000000 0.000000 0.085977 0.000000 0.000000
# 5 0.000000 0.000000 0.000000 0.000000 0.085977 0.000000
# 6 0.000000 0.000000 0.000000 0.000000 0.000000 0.023726
#
#
# Mechanical properties :
#
#
# Convention : Reuss Voigt Hill
#
# Bulk Modulus (GPa) = 76.21198 91.97814 84.09506
# Shear Modulus (GPa) = 20.10830 29.76458 24.93644
#
# Velocity S-wave (km/s) = 3.44473 4.19100 3.83606
# Velocity P-wave (km/s) = 7.79714 8.81459 8.32143
#
# Compressibility (1/GPa) = 0.01312130
#
# Stress axis : x y z
#
# Youngs Moduli (GPa) = 120.98112 120.98108 69.78960
#
# Poissons Ratio (x) = 0.43518 0.18398
# Poissons Ratio (y) = 0.43518 0.18398
# Poissons Ratio (z) = 0.31893 0.31893
#
# Static dielectric constant tensor:
#      x y z
#    x 3.454120 0.000000 0.000000 
#    y 0.000000 3.454120 0.000000 
#    z 0.000000 0.000000 2.825210 
# 
# 
# High freq. dielectric constant tensor:
#      x y z
#    x 1.673540 0.000000 0.000000 
#    y 0.000000 1.673540 0.000000 
#    z 0.000000 0.000000 1.614240 
# 
# From -- ./inp_files/9117.got.cif
#   From: 2010.03.12/outbox.cif.g09.slc.cpg/sg194_5_cif.got.tgz:9117.got - 2010.04.01 12:26:19.
