data_PCOD8330770
_publ_section_title
;
Structure prediction by ZEFSAII (Michael W. Deem and Ramdas Pophale) SiO2 
 PCOD8330770
Probable space group: P 63/M M C
;
_chemical_formula_sum "Si O2"
_cell_formula_units_Z 144
_cell_length_a 31.528761
_cell_length_b 31.528761
_cell_length_c 8.706844
_cell_angle_alpha 90.000000
_cell_angle_beta 90.000000
_cell_angle_gamma 120.000000
_cell_volume 7495.579311
_symmetry_space_group_name_H-M "P 63/M M C"
_symmetry_group_IT_number 194
_symmetry_cell_setting 'hexagonal'
loop_
_space_group_symop_operation_xyz
x,y,z
x-y,x,1/2+z
-y,x-y,z
-x,-y,1/2+z
-x+y,-x,z
y,-x+y,1/2+z
x-y,-y,-z
-x,-x+y,-z
y,x,-z
-y,-x,1/2-z
-x+y,y,1/2-z
x,x-y,1/2-z
-x,-y,-z
-x+y,-x,1/2-z
y,-x+y,-z
x,y,1/2-z
x-y,x,-z
-y,x-y,1/2-z
-x+y,y,z
x,x-y,z
-y,-x,z
y,x,1/2+z
x-y,-y,1/2+z
-x,-x+y,1/2+z
loop_
_atom_site_type_symbol
_atom_site_label
_atom_site_fract_x
_atom_site_fract_y
_atom_site_fract_z
Si Si1 0.856430 0.241685 0.929513
Si Si2 0.333293 0.571369 0.567151
Si Si3 0.524821 0.857718 0.568550
Si Si4 0.145043 0.949722 0.930843
Si Si5 0.948396 0.425932 0.931091
Si Si6 0.948812 0.241938 0.432003
O O1 0.860698 0.253774 0.750000
O O2 0.812755 0.187246 0.965638
O O3 0.845951 0.279344 0.020389
O O4 0.906550 0.247330 0.989324
O O5 0.332354 0.572053 0.750000
O O6 0.283439 0.566878 0.501022
O O7 0.378991 0.621010 0.502831
O O8 0.338774 0.526116 0.508552
O O9 0.524890 0.863706 0.750000
O O10 0.533226 0.907178 0.491967
O O11 0.142482 0.952707 0.750000
O O12 0.095038 0.904963 0.997577
O O13 0.189339 0.941279 0.980099
O O14 0.152139 0.000000 0.000000
O O15 0.951596 0.423720 0.750000
O O16 0.936650 0.468325 0.983034
O O17 0.000000 0.436715 0.000000
O O18 0.947622 0.247933 0.250000
O O19 0.000000 0.284332 0.500000
#
# Coordination Sequence:
#
# PCOD8330770 Si02
#       6
#    24  24  24  24  24  24
#     4  11  24  40  57  79 110 148 189 231 276 329
#     4   9  17  30  51  80 112 143 176 217 265 316
#     4  11  22  36  56  82 113 148 187 229 273 327
#     4   9  18  32  51  77 107 138 174 217 265 316
#     4  10  21  38  60  85 113 145 183 229 281 334
#     4  10  20  36  58  83 111 142 179 224 274 328
#
# _framework density 19.211324999999999
#
# number of rings (size 3 to 8) (size 9 to 14) (size 15 to 20)
#    0.000    2.000    0.000    3.667    0.000    6.667 
#    0.000    3.333    0.000    0.167    0.000    0.000 
#    0.000    8.000    0.000    0.000    0.000    0.000 
#
# Total GULP energy -1786153.205584 kJ/mol
# GULP energy per Si atom -12403.841705 kJ/mol
# Density = 1.916760 g / cm^3
# Si number density = 19.211325 Si / 1000 Ang^3
#
#
#
# Elastic Constant Matrix: (Units=GPa)
#
#
# Indices 1 2 3 4 5 6 
#
# 1 129.2080 60.0035 25.9350 0.0000 0.0000 0.0000
# 2 60.0035 129.2080 25.9350 0.0000 0.0000 0.0000
# 3 25.9350 25.9350 41.5182 0.0000 0.0000 0.0000
# 4 0.0000 0.0000 0.0000 27.3291 0.0000 0.0000
# 5 0.0000 0.0000 0.0000 0.0000 27.3291 0.0000
# 6 0.0000 0.0000 0.0000 0.0000 0.0000 34.6022
#
#
#
# Elastic Compliance Matrix: (Units=1/GPa)
#
#
# Indices 1 2 3 4 5 6 
#
# 1 0.010414 -0.004036 -0.003984 0.000000 0.000000 0.000000
# 2 -0.004036 0.010414 -0.003984 0.000000 0.000000 0.000000
# 3 -0.003984 -0.003984 0.029063 0.000000 0.000000 0.000000
# 4 0.000000 0.000000 0.000000 0.036591 0.000000 0.000000
# 5 0.000000 0.000000 0.000000 0.000000 0.036591 0.000000
# 6 0.000000 0.000000 0.000000 0.000000 0.000000 0.028900
#
#
# Mechanical properties :
#
#
# Convention : Reuss Voigt Hill
#
# Bulk Modulus (GPa) = 38.63599 58.18677 48.41138
# Shear Modulus (GPa) = 27.08465 30.38945 28.73705
#
# Velocity S-wave (km/s) = 3.75884 3.98156 3.87180
# Velocity P-wave (km/s) = 6.24445 7.17570 6.72621
#
# Compressibility (1/GPa) = 0.02588261
#
# Stress axis : x y z
#
# Youngs Moduli (GPa) = 96.02884 96.02884 34.40845
#
# Poissons Ratio (x) = 0.38761 0.13707
# Poissons Ratio (y) = 0.38761 0.13707
# Poissons Ratio (z) = 0.38254 0.38254
#
# Static dielectric constant tensor:
#      x y z
#    x 3.653990 0.000000 0.000000 
#    y 0.000000 3.653990 0.000000 
#    z 0.000000 0.000000 3.411950 
# 
# 
# High freq. dielectric constant tensor:
#      x y z
#    x 1.754410 0.000000 0.000000 
#    y 0.000000 1.754410 0.000000 
#    z 0.000000 0.000000 1.738030 
# 
# From -- ./inp_files/2090.got.cif
#   From: 2010.03.12/outbox.cif.g09.slc.cpg/sg194_2_cif.got.tgz:2090.got - 2010.04.01 12:26:19.
