data_PCOD8330947
_publ_section_title
;
Structure prediction by ZEFSAII (Michael W. Deem and Ramdas Pophale) SiO2 
 PCOD8330947
Probable space group: P A 3
;
_chemical_formula_sum "Si O2"
_cell_formula_units_Z 120
_cell_length_a 18.191179
_cell_length_b 18.191179
_cell_length_c 18.191179
_cell_angle_alpha 90.000000
_cell_angle_beta 90.000000
_cell_angle_gamma 90.000000
_cell_volume 6019.806644
_symmetry_space_group_name_H-M "P A 3"
_symmetry_group_IT_number 205
_symmetry_cell_setting 'cubic'
loop_
_space_group_symop_operation_xyz
x,y,z
z,x,y
y,z,x
1/2-y,-z,1/2+x
1/2+z,1/2-x,-y
-y,1/2+z,1/2-x
1/2-z,-x,1/2+y
-z,1/2+x,1/2-y
1/2+y,1/2-z,-x
1/2-x,-y,1/2+z
1/2+x,1/2-y,-z
-x,1/2+y,1/2-z
-x,-y,-z
-z,-x,-y
-y,-z,-x
1/2+y,z,1/2-x
1/2-z,1/2+x,y
y,1/2-z,1/2+x
1/2+z,x,1/2-y
z,1/2-x,1/2+y
1/2-y,1/2+z,x
1/2+x,y,1/2-z
1/2-x,1/2+y,z
x,1/2-y,1/2+z
loop_
_atom_site_type_symbol
_atom_site_label
_atom_site_fract_x
_atom_site_fract_y
_atom_site_fract_z
Si Si1 0.392063 0.384732 0.032799
Si Si2 0.468582 0.842037 0.762739
Si Si3 0.267755 0.129347 0.015613
Si Si4 0.085411 0.779060 0.506522
Si Si5 0.228178 0.090405 0.555328
O O1 0.450776 0.415548 0.090984
O O2 0.315463 0.423168 0.051372
O O3 0.383217 0.297250 0.037550
O O4 0.413666 0.909555 0.748033
O O5 0.488659 0.793866 0.691995
O O6 0.544338 0.873654 0.797126
O O7 0.432404 0.790650 0.824701
O O8 0.265115 0.076277 0.944523
O O9 0.349974 0.161825 0.013358
O O10 0.018468 0.808395 0.557096
#
# Coordination Sequence:
#
# PCOD8330947 Si02
#       5
#    24  24  24  24  24
#     4  10  19  34  56  83 114 151 193 243 299 357
#     4  11  22  39  60  87 119 161 206 252 311 368
#     4  11  22  39  61  89 122 162 207 257 311 377
#     4  10  21  37  59  84 120 155 197 251 308 362
#     4  10  21  37  58  81 117 155 195 252 302 363
#
# _framework density 19.934194999999999
#
# number of rings (size 3 to 8) (size 9 to 14) (size 15 to 20)
#    0.000    1.600    2.000    3.400    0.000    0.000 
#    0.000    4.000    0.000    6.400    0.000    0.000 
#    0.000    0.000    0.000    0.000    0.000    0.000 
#
# Total GULP energy -1487757.203477 kJ/mol
# GULP energy per Si atom -12397.976696 kJ/mol
# Density = 1.988882 g / cm^3
# Si number density = 19.934195 Si / 1000 Ang^3
#
#
#
# Elastic Constant Matrix: (Units=GPa)
#
#
# Indices 1 2 3 4 5 6 
#
# 1 76.2209 16.8467 16.8467 0.0000 0.0000 0.0000
# 2 16.8467 76.2209 16.8467 0.0000 0.0000 0.0000
# 3 16.8467 16.8467 76.2209 0.0000 0.0000 0.0000
# 4 0.0000 0.0000 0.0000 27.8170 0.0000 0.0000
# 5 0.0000 0.0000 0.0000 0.0000 27.8170 0.0000
# 6 0.0000 0.0000 0.0000 0.0000 0.0000 27.8170
#
#
#
# Elastic Compliance Matrix: (Units=1/GPa)
#
#
# Indices 1 2 3 4 5 6 
#
# 1 0.014261 -0.002581 -0.002581 0.000000 0.000000 0.000000
# 2 -0.002581 0.014261 -0.002581 0.000000 0.000000 0.000000
# 3 -0.002581 -0.002581 0.014261 0.000000 0.000000 0.000000
# 4 0.000000 0.000000 0.000000 0.035949 0.000000 0.000000
# 5 0.000000 0.000000 0.000000 0.000000 0.035949 0.000000
# 6 0.000000 0.000000 0.000000 0.000000 0.000000 0.035949
#
#
# Mechanical properties :
#
#
# Convention : Reuss Voigt Hill
#
# Bulk Modulus (GPa) = 36.63812 36.63812 36.63812
# Shear Modulus (GPa) = 28.53601 28.56502 28.55052
#
# Velocity S-wave (km/s) = 3.78764 3.78956 3.78860
# Velocity P-wave (km/s) = 6.12762 6.12920 6.12841
#
# Compressibility (1/GPa) = 0.02729398
#
# Stress axis : x y z
#
# Youngs Moduli (GPa) = 70.12188 70.12188 70.12188
#
# Poissons Ratio (x) = 0.18102 0.18102
# Poissons Ratio (y) = 0.18102 0.18102
# Poissons Ratio (z) = 0.18102 0.18102
#
# Static dielectric constant tensor:
#      x y z
#    x 3.562750 0.000000 0.000000 
#    y 0.000000 3.562750 0.000000 
#    z 0.000000 0.000000 3.562750 
# 
# 
# High freq. dielectric constant tensor:
#      x y z
#    x 1.778380 0.000000 0.000000 
#    y 0.000000 1.778380 0.000000 
#    z 0.000000 0.000000 1.778380 
# 
# From -- ./inp_files/467.got.cif
#   From: 2010.03.12/outbox.cif.g09.slc.cpg/sg205_cif.got.tgz:467.got - 2010.03.30 09:02:58.
