data_PCOD8330773
_publ_section_title
;
Structure prediction by ZEFSAII (Michael W. Deem and Ramdas Pophale) SiO2 
 PCOD8330773
Probable space group: P 63/M M C
;
_chemical_formula_sum "Si O2"
_cell_formula_units_Z 168
_cell_length_a 17.478869
_cell_length_b 17.478869
_cell_length_c 28.962934
_cell_angle_alpha 90.000000
_cell_angle_beta 90.000000
_cell_angle_gamma 120.000000
_cell_volume 7663.017921
_symmetry_space_group_name_H-M "P 63/M M C"
_symmetry_group_IT_number 194
_symmetry_cell_setting 'hexagonal'
loop_
_space_group_symop_operation_xyz
x,y,z
x-y,x,1/2+z
-y,x-y,z
-x,-y,1/2+z
-x+y,-x,z
y,-x+y,1/2+z
x-y,-y,-z
-x,-x+y,-z
y,x,-z
-y,-x,1/2-z
-x+y,y,1/2-z
x,x-y,1/2-z
-x,-y,-z
-x+y,-x,1/2-z
y,-x+y,-z
x,y,1/2-z
x-y,x,-z
-y,x-y,1/2-z
-x+y,y,z
x,x-y,z
-y,-x,z
y,x,1/2+z
x-y,-y,1/2+z
-x,-x+y,1/2+z
loop_
_atom_site_type_symbol
_atom_site_label
_atom_site_fract_x
_atom_site_fract_y
_atom_site_fract_z
Si Si1 0.660594 0.987778 0.054315
Si Si2 0.601992 0.961227 0.199187
Si Si3 0.021426 0.802679 0.200493
Si Si4 0.164746 0.666668 0.577265
Si Si5 0.835959 0.502270 0.183770
Si Si6 0.995853 0.171540 0.101242
Si Si7 0.336251 0.491108 0.386495
O O1 0.571602 0.900826 0.070816
O O2 0.665296 0.073533 0.075365
O O3 0.742130 0.978707 0.071878
O O4 0.664783 0.000000 0.000000
O O5 0.555982 0.937495 0.250000
O O6 0.675969 0.933054 0.196675
O O7 0.532618 0.905950 0.159371
O O8 0.650917 0.066704 0.192176
O O9 0.968461 0.782116 0.250000
O O10 0.096474 0.903527 0.201450
O O11 0.965843 0.788500 0.153868
O O12 0.158614 0.579307 0.553729
O O13 0.244796 0.755205 0.553807
O O14 0.184981 0.666920 0.630469
O O15 0.760737 0.521473 0.205036
O O16 0.829624 0.414812 0.206891
O O17 0.912015 0.087986 0.077937
O O18 0.077740 0.155481 0.100774
O O19 0.242084 0.484168 0.377639
O O20 0.408685 0.591316 0.399745
#
# Coordination Sequence:
#
# PCOD8330773 Si02
#       7
#    24  24  24  24  24  24  24
#     4  12  26  45  70  96 126 169 221 272 324 390
#     4  11  22  38  65  97 132 175 226 277 326 385
#     4   9  18  35  61  93 128 166 210 263 323 385
#     4  10  20  37  63  96 130 164 204 257 320 385
#     4  10  20  36  58  88 127 172 220 270 325 386
#     4  11  23  41  65  96 132 172 219 274 335 397
#     4  12  26  47  72 101 136 174 219 274 336 400
#
# _framework density 21.923476999999998
#
# number of rings (size 3 to 8) (size 9 to 14) (size 15 to 20)
#    0.000    1.286    2.857    2.714    0.000    8.857 
#    0.000    1.429    0.000    5.143    0.000    0.000 
#    0.000    0.000    0.000    0.000    0.000    0.000 
#
# Total GULP energy -2081775.352091 kJ/mol
# GULP energy per Si atom -12391.519953 kJ/mol
# Density = 2.187358 g / cm^3
# Si number density = 21.923477 Si / 1000 Ang^3
#
#
#
# Elastic Constant Matrix: (Units=GPa)
#
#
# Indices 1 2 3 4 5 6 
#
# 1 111.7969 45.7665 28.0951 0.0000 0.0000 0.0000
# 2 45.7665 111.7969 28.0951 0.0000 0.0000 0.0000
# 3 28.0951 28.0951 112.1473 0.0000 0.0000 0.0000
# 4 0.0000 0.0000 0.0000 -143.1079 0.0000 0.0000
# 5 0.0000 0.0000 0.0000 0.0000 -143.1079 0.0000
# 6 0.0000 0.0000 0.0000 0.0000 0.0000 33.0152
#
#
#
# Elastic Compliance Matrix: (Units=1/GPa)
#
#
# Indices 1 2 3 4 5 6 
#
# 1 0.011057 -0.004088 -0.001746 0.000000 0.000000 0.000000
# 2 -0.004088 0.011057 -0.001746 0.000000 0.000000 0.000000
# 3 -0.001746 -0.001746 0.009792 0.000000 0.000000 0.000000
# 4 0.000000 0.000000 0.000000 -0.006988 0.000000 0.000000
# 5 0.000000 0.000000 0.000000 0.000000 -0.006988 0.000000
# 6 0.000000 0.000000 0.000000 0.000000 0.000000 0.030289
#
#
# Mechanical properties :
#
#
# Convention : Reuss Voigt Hill
#
# Bulk Modulus (GPa) = 59.71422 59.96163 59.83792
# Shear Modulus (GPa) = 72.50556 -35.05449 18.72553
#
# Velocity S-wave (km/s) = 5.75707 -4.00302 2.92572
# Velocity P-wave (km/s) = 8.45509 2.45850 6.22627
#
# Compressibility (1/GPa) = 0.01674643
#
# Stress axis : x y z
#
# Youngs Moduli (GPa) = 90.44117 90.44117 102.12800
#
# Poissons Ratio (x) = 0.36969 0.17831
# Poissons Ratio (y) = 0.36969 0.17831
# Poissons Ratio (z) = 0.15791 0.15791
#
# Static dielectric constant tensor:
#      x y z
#    x 3.985110 0.000000 0.000000 
#    y 0.000000 3.985110 0.000000 
#    z 0.000000 0.000000 4.148150 
# 
# 
# High freq. dielectric constant tensor:
#      x y z
#    x 1.863580 0.000000 0.000000 
#    y 0.000000 1.863580 0.000000 
#    z 0.000000 0.000000 1.852550 
# 
# From -- ./inp_files/12240.got.cif
#   From: 2010.03.12/outbox.cif.g09.slc.cpg/sg194_7_cif.got.tgz:12240.got - 2010.04.01 12:26:19.
