data_PCOD8330798
_publ_section_title
;
Structure prediction by ZEFSAII (Michael W. Deem and Ramdas Pophale) SiO2 
 PCOD8330798
Probable space group: P 63/M M C
;
_chemical_formula_sum "Si O2"
_cell_formula_units_Z 156
_cell_length_a 20.928423
_cell_length_b 20.928423
_cell_length_c 21.359383
_cell_angle_alpha 90.000000
_cell_angle_beta 90.000000
_cell_angle_gamma 120.000000
_cell_volume 8102.001964
_symmetry_space_group_name_H-M "P 63/M M C"
_symmetry_group_IT_number 194
_symmetry_cell_setting 'hexagonal'
loop_
_space_group_symop_operation_xyz
x,y,z
x-y,x,1/2+z
-y,x-y,z
-x,-y,1/2+z
-x+y,-x,z
y,-x+y,1/2+z
x-y,-y,-z
-x,-x+y,-z
y,x,-z
-y,-x,1/2-z
-x+y,y,1/2-z
x,x-y,1/2-z
-x,-y,-z
-x+y,-x,1/2-z
y,-x+y,-z
x,y,1/2-z
x-y,x,-z
-y,x-y,1/2-z
-x+y,y,z
x,x-y,z
-y,-x,z
y,x,1/2+z
x-y,-y,1/2+z
-x,-x+y,1/2+z
loop_
_atom_site_type_symbol
_atom_site_label
_atom_site_fract_x
_atom_site_fract_y
_atom_site_fract_z
Si Si1 0.596813 0.727154 0.517387
Si Si2 0.627109 0.519331 0.121682
Si Si3 0.601473 0.058732 0.916466
Si Si4 0.182078 0.516313 0.750000
Si Si5 0.738592 0.795377 0.179264
Si Si6 0.808158 0.046298 0.439195
Si Si7 0.433958 0.145452 0.678659
O O1 0.590134 0.795067 0.486899
O O2 0.536686 0.691824 0.572526
O O3 0.583666 0.663334 0.468925
O O4 0.675947 0.756851 0.547699
O O5 0.563625 0.436376 0.109374
O O6 0.598072 0.576737 0.111581
O O7 0.659472 0.527855 0.191058
O O8 0.531063 0.062126 0.943942
O O9 0.637628 0.118628 0.861300
O O10 0.256904 0.513808 0.750000
O O11 0.202653 0.601327 0.750000
O O12 0.757453 0.779856 0.250000
O O13 0.760234 0.880117 0.174800
O O14 0.782810 0.781098 0.125520
O O15 0.652288 0.743277 0.165860
O O16 0.892310 0.107691 0.428608
O O17 0.806090 0.000000 0.500000
O O18 0.454406 0.143545 0.750000
O O19 0.456191 0.228096 0.658730
#
# Coordination Sequence:
#
# PCOD8330798 Si02
#       7
#    24  24  24  12  24  24  24
#     4  11  22  37  57  81 109 144 184 227 279 330
#     4  10  21  36  56  81 111 145 182 226 278 330
#     4  11  22  35  56  82 112 147 184 229 281 336
#     4  10  21  38  58  80 109 148 190 228 266 318
#     4   9  18  35  59  84 111 145 182 222 270 328
#     4  11  22  35  55  82 111 145 184 228 278 330
#     4   9  18  33  55  82 109 142 184 227 275 331
#
# _framework density 19.2545
#
# number of rings (size 3 to 8) (size 9 to 14) (size 15 to 20)
#    0.000    1.846    0.000    6.077    1.077    4.308 
#    1.385    0.000    0.000    9.231    0.000    0.000 
#    0.000    0.000    0.000    0.000    0.000    0.000 
#
# Total GULP energy -1934060.132886 kJ/mol
# GULP energy per Si atom -12397.821365 kJ/mol
# Density = 1.921068 g / cm^3
# Si number density = 19.254500 Si / 1000 Ang^3
#
#
#
# Elastic Constant Matrix: (Units=GPa)
#
#
# Indices 1 2 3 4 5 6 
#
# 1 82.6532 38.4785 48.5564 0.0000 0.0000 0.0000
# 2 38.4785 82.6532 48.5564 0.0000 0.0000 0.0000
# 3 48.5564 48.5564 126.1944 0.0000 0.0000 0.0000
# 4 0.0000 0.0000 0.0000 36.3968 0.0000 0.0000
# 5 0.0000 0.0000 0.0000 0.0000 36.3968 0.0000
# 6 0.0000 0.0000 0.0000 0.0000 0.0000 22.0874
#
#
#
# Elastic Compliance Matrix: (Units=1/GPa)
#
#
# Indices 1 2 3 4 5 6 
#
# 1 0.017288 -0.005350 -0.004593 0.000000 0.000000 0.000000
# 2 -0.005350 0.017288 -0.004593 0.000000 0.000000 0.000000
# 3 -0.004593 -0.004593 0.011459 0.000000 0.000000 0.000000
# 4 0.000000 0.000000 0.000000 0.027475 0.000000 0.000000
# 5 0.000000 0.000000 0.000000 0.000000 0.027475 0.000000
# 6 0.000000 0.000000 0.000000 0.000000 0.000000 0.045275
#
#
# Mechanical properties :
#
#
# Convention : Reuss Voigt Hill
#
# Bulk Modulus (GPa) = 58.95699 62.52035 60.73867
# Shear Modulus (GPa) = 27.62637 29.37014 28.49825
#
# Velocity S-wave (km/s) = 3.79199 3.90983 3.85136
# Velocity P-wave (km/s) = 7.06106 7.27484 7.16875
#
# Compressibility (1/GPa) = 0.01696152
#
# Stress axis : x y z
#
# Youngs Moduli (GPa) = 57.84437 57.84437 87.26605
#
# Poissons Ratio (x) = 0.30945 0.40086
# Poissons Ratio (y) = 0.30945 0.40086
# Poissons Ratio (z) = 0.26571 0.26571
#
# Static dielectric constant tensor:
#      x y z
#    x 3.505310 0.000000 0.000000 
#    y 0.000000 3.505310 0.000000 
#    z 0.000000 0.000000 3.745500 
# 
# 
# High freq. dielectric constant tensor:
#      x y z
#    x 1.738600 0.000000 0.000000 
#    y 0.000000 1.738600 0.000000 
#    z 0.000000 0.000000 1.766100 
# 
# From -- ./inp_files/8391.got.cif
#   From: 2010.03.12/outbox.cif.g09.slc.cpg/sg194_5_cif.got.tgz:8391.got - 2010.04.01 12:26:19.
