data_PCOD8330037
_publ_section_title
;
Structure prediction by ZEFSAII (Michael W. Deem and Ramdas Pophale) SiO2 
 PCOD8330037
Probable space group: P 63/M C M
;
_chemical_formula_sum "Si O2"
_cell_formula_units_Z 144
_cell_length_a 30.956272
_cell_length_b 30.956272
_cell_length_c 8.662162
_cell_angle_alpha 90.000000
_cell_angle_beta 90.000000
_cell_angle_gamma 120.000000
_cell_volume 7188.764247
_symmetry_space_group_name_H-M "P 63/M C M"
_symmetry_group_IT_number 193
_symmetry_cell_setting 'hexagonal'
loop_
_space_group_symop_operation_xyz
x,y,z
x-y,x,1/2+z
-y,x-y,z
-x,-y,1/2+z
-x+y,-x,z
y,-x+y,1/2+z
x-y,-y,1/2-z
-x,-x+y,1/2-z
y,x,1/2-z
-y,-x,-z
-x+y,y,-z
x,x-y,-z
-x,-y,-z
-x+y,-x,1/2-z
y,-x+y,-z
x,y,1/2-z
x-y,x,-z
-y,x-y,1/2-z
-x+y,y,1/2+z
x,x-y,1/2+z
-y,-x,1/2+z
y,x,z
x-y,-y,z
-x,-x+y,z
loop_
_atom_site_type_symbol
_atom_site_label
_atom_site_fract_x
_atom_site_fract_y
_atom_site_fract_z
Si Si1 0.147979 0.482747 0.568058
Si Si2 0.708654 0.943805 0.571809
Si Si3 0.425854 0.759028 0.566737
Si Si4 0.150606 0.391920 0.431220
Si Si5 0.942893 0.425037 0.068989
Si Si6 0.798586 0.854265 0.569080
O O1 0.152642 0.490797 0.750000
O O2 0.185193 0.534731 0.485952
O O3 0.162222 0.441640 0.520312
O O4 0.091837 0.464173 0.512147
O O5 0.720333 0.940387 0.750000
O O6 0.650800 0.906294 0.535048
O O7 0.741790 0.926797 0.475528
O O8 0.721839 0.000000 0.527559
O O9 0.371840 0.743679 0.500000
O O10 0.442811 0.721406 0.500000
O O11 0.423403 0.755755 0.750000
O O12 0.186746 0.373492 0.500000
O O13 0.160265 0.403293 0.250000
O O14 0.932015 0.420338 0.250000
O O15 0.000000 0.440849 0.033480
O O16 0.929790 0.464895 0.000000
O O17 0.816696 0.908348 0.500000
O O18 0.802451 0.859435 0.750000
O O19 0.834657 0.834657 0.503940
#
# Coordination Sequence:
#
# PCOD8330037 Si02
#       6
#    24  24  24  24  24  24
#     4  12  25  41  61  87 119 156 197 240 288 341
#     4   9  19  36  58  83 112 147 186 230 280 333
#     4  12  25  44  67  93 123 155 193 237 289 345
#     4  11  23  39  58  82 114 153 195 237 284 339
#     4  10  21  39  63  90 120 154 193 238 288 341
#     4  10  20  33  52  79 109 142 182 228 278 332
#
# _framework density 20.031258999999999
#
# number of rings (size 3 to 8) (size 9 to 14) (size 15 to 20)
#    0.000    1.333    0.000    6.167    0.000    5.333 
#    0.000    1.667    0.000    0.167    0.000    0.000 
#    0.000    0.000    0.000    0.000    0.000    0.000 
#
# Total GULP energy -1786521.830886 kJ/mol
# GULP energy per Si atom -12406.401603 kJ/mol
# Density = 1.998567 g / cm^3
# Si number density = 20.031259 Si / 1000 Ang^3
#
#
#
# Elastic Constant Matrix: (Units=GPa)
#
#
# Indices 1 2 3 4 5 6 
#
# 1 96.3064 34.6482 42.0607 0.0000 0.0000 0.0000
# 2 34.6482 96.3064 42.0607 0.0000 0.0000 0.0000
# 3 42.0607 42.0607 125.9683 0.0000 0.0000 0.0000
# 4 0.0000 0.0000 0.0000 34.1361 0.0000 0.0000
# 5 0.0000 0.0000 0.0000 0.0000 34.1361 0.0000
# 6 0.0000 0.0000 0.0000 0.0000 0.0000 30.8291
#
#
#
# Elastic Compliance Matrix: (Units=1/GPa)
#
#
# Indices 1 2 3 4 5 6 
#
# 1 0.012970 -0.003249 -0.003246 0.000000 0.000000 0.000000
# 2 -0.003249 0.012970 -0.003246 0.000000 0.000000 0.000000
# 3 -0.003246 -0.003246 0.010106 0.000000 0.000000 0.000000
# 4 0.000000 0.000000 0.000000 0.029294 0.000000 0.000000
# 5 0.000000 0.000000 0.000000 0.000000 0.029294 0.000000
# 6 0.000000 0.000000 0.000000 0.000000 0.000000 0.032437
#
#
# Mechanical properties :
#
#
# Convention : Reuss Voigt Hill
#
# Bulk Modulus (GPa) = 60.36813 61.79115 61.07964
# Shear Modulus (GPa) = 32.87865 33.14102 33.00984
#
# Velocity S-wave (km/s) = 4.05577 4.07192 4.06386
# Velocity P-wave (km/s) = 7.22044 7.28160 7.25109
#
# Compressibility (1/GPa) = 0.01656503
#
# Stress axis : x y z
#
# Youngs Moduli (GPa) = 77.10159 77.10159 98.94963
#
# Poissons Ratio (x) = 0.25047 0.32119
# Poissons Ratio (y) = 0.25047 0.32119
# Poissons Ratio (z) = 0.25027 0.25027
#
# Static dielectric constant tensor:
#      x y z
#    x 3.693250 0.000000 0.000000 
#    y 0.000000 3.693250 0.000000 
#    z 0.000000 0.000000 3.715830 
# 
# 
# High freq. dielectric constant tensor:
#      x y z
#    x 1.783360 0.000000 0.000000 
#    y 0.000000 1.783360 0.000000 
#    z 0.000000 0.000000 1.793790 
# 
# From -- ./inp_files/1514.got.cif
#   From: 2010.03.12/outbox.cif.g09.slc.cpg/sg193_1_cif.got.tgz:1514.got - 2010.04.01 12:20:39.
