data_PCOD8330042
_publ_section_title
;
Structure prediction by ZEFSAII (Michael W. Deem and Ramdas Pophale) SiO2 
 PCOD8330042
Probable space group: P 63/M C M
;
_chemical_formula_sum "Si O2"
_cell_formula_units_Z 144
_cell_length_a 22.546228
_cell_length_b 22.546228
_cell_length_c 19.630027
_cell_angle_alpha 90.000000
_cell_angle_beta 90.000000
_cell_angle_gamma 120.000000
_cell_volume 8641.702629
_symmetry_space_group_name_H-M "P 63/M C M"
_symmetry_group_IT_number 193
_symmetry_cell_setting 'hexagonal'
loop_
_space_group_symop_operation_xyz
x,y,z
x-y,x,1/2+z
-y,x-y,z
-x,-y,1/2+z
-x+y,-x,z
y,-x+y,1/2+z
x-y,-y,1/2-z
-x,-x+y,1/2-z
y,x,1/2-z
-y,-x,-z
-x+y,y,-z
x,x-y,-z
-x,-y,-z
-x+y,-x,1/2-z
y,-x+y,-z
x,y,1/2-z
x-y,x,-z
-y,x-y,1/2-z
-x+y,y,1/2+z
x,x-y,1/2+z
-y,-x,1/2+z
y,x,z
x-y,-y,z
-x,-x+y,z
loop_
_atom_site_type_symbol
_atom_site_label
_atom_site_fract_x
_atom_site_fract_y
_atom_site_fract_z
Si Si1 0.918708 0.417736 0.825921
Si Si2 0.611754 0.918066 0.408118
Si Si3 0.273321 0.192369 0.326418
Si Si4 0.631328 0.549766 0.173752
Si Si5 0.079247 0.226518 0.069578
Si Si6 0.634713 0.714214 0.057232
O O1 0.891468 0.390790 0.750000
O O2 0.888947 0.352646 0.876044
O O3 0.895406 0.471925 0.848743
O O4 0.000000 0.454626 0.826233
O O5 0.654227 0.890608 0.365150
O O6 0.600330 0.887936 0.484581
O O7 0.654409 0.000000 0.408900
O O8 0.286701 0.174938 0.250000
O O9 0.235640 0.235640 0.322978
O O10 0.223806 0.122398 0.366660
O O11 0.659654 0.550437 0.250000
O O12 0.594578 0.594578 0.175335
O O13 0.693576 0.580429 0.119300
O O14 0.091326 0.302387 0.068451
O O15 0.000000 0.170321 0.080359
O O16 0.104700 0.209400 0.000000
O O17 0.658472 0.658472 0.055009
#
# Coordination Sequence:
#
# PCOD8330042 Si02
#       6
#    24  24  24  24  24  24
#     4   8  13  21  35  56  85 122 156 180 201 231
#     4   9  15  25  41  63  89 116 149 184 220 265
#     4  10  20  34  52  72  92 115 148 196 252 311
#     4   8  14  24  36  55  87 123 155 182 205 237
#     4  11  21  35  53  70  90 117 153 198 253 317
#     4   9  17  27  42  62  85 115 148 186 228 272
#
# _framework density 16.663383
#
# number of rings (size 3 to 8) (size 9 to 14) (size 15 to 20)
#    0.000    2.833    1.667    2.000    0.000    3.667 
#    0.000    5.000    0.000    3.000    0.000    0.000 
#    0.000    0.000    0.000    1.000    3.667    8.667 
#
# Total GULP energy -1784666.382063 kJ/mol
# GULP energy per Si atom -12393.516542 kJ/mol
# Density = 1.662546 g / cm^3
# Si number density = 16.663383 Si / 1000 Ang^3
#
#
#
# Elastic Constant Matrix: (Units=GPa)
#
#
# Indices 1 2 3 4 5 6 
#
# 1 43.2655 7.2608 28.8308 0.0000 0.0000 0.0000
# 2 7.2608 43.2655 28.8308 0.0000 0.0000 0.0000
# 3 28.8308 28.8308 134.2575 0.0000 0.0000 0.0000
# 4 0.0000 0.0000 0.0000 22.3690 0.0000 0.0000
# 5 0.0000 0.0000 0.0000 0.0000 22.3690 0.0000
# 6 0.0000 0.0000 0.0000 0.0000 0.0000 18.0023
#
#
#
# Elastic Compliance Matrix: (Units=1/GPa)
#
#
# Indices 1 2 3 4 5 6 
#
# 1 0.026995 -0.000779 -0.005630 0.000000 0.000000 0.000000
# 2 -0.000779 0.026995 -0.005630 0.000000 0.000000 0.000000
# 3 -0.005630 -0.005630 0.009866 0.000000 0.000000 0.000000
# 4 0.000000 0.000000 0.000000 0.044705 0.000000 0.000000
# 5 0.000000 0.000000 0.000000 0.000000 0.044705 0.000000
# 6 0.000000 0.000000 0.000000 0.000000 0.000000 0.055548
#
#
# Mechanical properties :
#
#
# Convention : Reuss Voigt Hill
#
# Bulk Modulus (GPa) = 25.13822 38.95928 32.04875
# Shear Modulus (GPa) = 20.31269 22.93914 21.62591
#
# Velocity S-wave (km/s) = 3.49521 3.71431 3.60642
# Velocity P-wave (km/s) = 5.60422 6.46728 6.05116
#
# Compressibility (1/GPa) = 0.03978007
#
# Stress axis : x y z
#
# Youngs Moduli (GPa) = 37.04343 37.04343 101.35515
#
# Poissons Ratio (x) = 0.02885 0.57061
# Poissons Ratio (y) = 0.02885 0.57061
# Poissons Ratio (z) = 0.20855 0.20855
#
# Static dielectric constant tensor:
#      x y z
#    x 2.888970 0.000000 0.000000 
#    y 0.000000 2.888970 0.000000 
#    z 0.000000 0.000000 3.538310 
# 
# 
# High freq. dielectric constant tensor:
#      x y z
#    x 1.602120 0.000000 0.000000 
#    y 0.000000 1.602120 0.000000 
#    z 0.000000 0.000000 1.658310 
# 
# From -- ./inp_files/5579.got.cif
#   From: 2010.03.12/outbox.cif.g09.slc.cpg/sg193_3_cif.got.tgz:5579.got - 2010.04.01 12:20:39.
