data_PCOD8330257
_publ_section_title
;
Structure prediction by ZEFSAII (Michael W. Deem and Ramdas Pophale) SiO2 
 PCOD8330257
Probable space group: P 63/M C M
;
_chemical_formula_sum "Si O2"
_cell_formula_units_Z 56
_cell_length_a 13.771238
_cell_length_b 13.771238
_cell_length_c 17.397018
_cell_angle_alpha 90.000000
_cell_angle_beta 90.000000
_cell_angle_gamma 120.000000
_cell_volume 2857.270863
_symmetry_space_group_name_H-M "P 63/M C M"
_symmetry_group_IT_number 193
_symmetry_cell_setting 'hexagonal'
loop_
_space_group_symop_operation_xyz
x,y,z
x-y,x,1/2+z
-y,x-y,z
-x,-y,1/2+z
-x+y,-x,z
y,-x+y,1/2+z
x-y,-y,1/2-z
-x,-x+y,1/2-z
y,x,1/2-z
-y,-x,-z
-x+y,y,-z
x,x-y,-z
-x,-y,-z
-x+y,-x,1/2-z
y,-x+y,-z
x,y,1/2-z
x-y,x,-z
-y,x-y,1/2-z
-x+y,y,1/2+z
x,x-y,1/2+z
-y,-x,1/2+z
y,x,z
x-y,-y,z
-x,-x+y,z
loop_
_atom_site_type_symbol
_atom_site_label
_atom_site_fract_x
_atom_site_fract_y
_atom_site_fract_z
Si Si1 0.212326 0.439488 0.090227
Si Si2 0.461337 0.461337 0.911389
Si Si3 0.666668 0.333334 0.341007
Si Si4 0.330944 0.000000 0.660189
O O1 0.100690 0.440309 0.112246
O O2 0.317670 0.550381 0.126109
O O3 0.224611 0.336166 0.123674
O O4 0.220455 0.440909 0.000000
O O5 0.554347 0.554347 0.857006
O O6 0.500000 0.500000 0.000000
O O7 0.666667 0.333334 0.250000
O O8 0.311065 0.000000 0.750000
#
# Coordination Sequence:
#
# PCOD8330257 Si02
#       4
#    24  12   8  12
#     4  12  22  39  61  89 126 171 218 263 331 404
#     4  12  22  40  68  95 121 176 222 267 327 403
#     4  12  22  32  55  90 127 164 208 273 331 389
#     4  12  26  40  58  93 133 163 213 279 329 389
#
# _framework density 19.599121
#
# number of rings (size 3 to 8) (size 9 to 14) (size 15 to 20)
#    0.000    0.000    8.571    2.571    0.000    1.714 
#    0.000    0.000    0.000    0.857    0.000    3.000 
#    0.000    0.000    0.000    0.000    0.000    0.000 
#
# Total GULP energy -694154.343028 kJ/mol
# GULP energy per Si atom -12395.613268 kJ/mol
# Density = 1.955451 g / cm^3
# Si number density = 19.599121 Si / 1000 Ang^3
#
#
#
# Elastic Constant Matrix: (Units=GPa)
#
#
# Indices 1 2 3 4 5 6 
#
# 1 103.3854 25.9249 25.3902 0.0003 -0.0002 0.0002
# 2 25.9249 103.3857 25.3908 -0.0002 0.0002 -0.0001
# 3 25.3902 25.3908 163.3193 0.0005 -0.0002 0.0001
# 4 0.0003 -0.0002 0.0005 9.2470 -0.0004 -0.0002
# 5 -0.0002 0.0002 -0.0002 -0.0004 9.2475 -0.0002
# 6 0.0002 -0.0001 0.0001 -0.0002 -0.0002 38.7306
#
#
#
# Elastic Compliance Matrix: (Units=1/GPa)
#
#
# Indices 1 2 3 4 5 6 
#
# 1 0.010573 -0.002337 -0.001280 0.000000 0.000000 0.000000
# 2 -0.002337 0.010573 -0.001280 0.000000 0.000000 0.000000
# 3 -0.001280 -0.001280 0.006521 0.000000 0.000000 0.000000
# 4 0.000000 0.000000 0.000000 0.108143 0.000004 0.000001
# 5 0.000000 0.000000 0.000000 0.000004 0.108137 0.000001
# 6 0.000000 0.000000 0.000000 0.000001 0.000001 0.025819
#
#
# Mechanical properties :
#
#
# Convention : Reuss Voigt Hill
#
# Bulk Modulus (GPa) = 55.95449 58.16693 57.06071
# Shear Modulus (GPa) = 17.51196 31.00401 24.25798
#
# Velocity S-wave (km/s) = 2.99240 3.98164 3.52192
# Velocity P-wave (km/s) = 6.36795 7.13307 6.76134
#
# Compressibility (1/GPa) = 0.01787167
#
# Stress axis : x y z
#
# Youngs Moduli (GPa) = 94.58077 94.58085 153.34833
#
# Poissons Ratio (x) = 0.22102 0.19635
# Poissons Ratio (y) = 0.22102 0.19636
# Poissons Ratio (z) = 0.12110 0.12111
#
# Static dielectric constant tensor:
#      x y z
#    x 4.486230 0.000040 0.000010 
#    y 0.000040 4.486410 -0.000020 
#    z 0.000010 -0.000020 3.479060 
# 
# 
# High freq. dielectric constant tensor:
#      x y z
#    x 1.753260 0.000000 0.000000 
#    y 0.000000 1.753260 0.000000 
#    z 0.000000 0.000000 1.766650 
# 
# From -- ./inp_files/3009.got.cif
#   From: 2010.03.12/outbox.cif.g09.slc.cpg/sg193_2_cif.got.tgz:3009.got - 2010.04.01 12:20:39.
