data_PCOD8330329
_publ_section_title
;
Structure prediction by ZEFSAII (Michael W. Deem and Ramdas Pophale) SiO2 
 PCOD8330329
Probable space group: P 63/M M C
;
_chemical_formula_sum "Si O2"
_cell_formula_units_Z 168
_cell_length_a 23.171430
_cell_length_b 23.171430
_cell_length_c 20.963895
_cell_angle_alpha 90.000000
_cell_angle_beta 90.000000
_cell_angle_gamma 120.000000
_cell_volume 9747.837501
_symmetry_space_group_name_H-M "P 63/M M C"
_symmetry_group_IT_number 194
_symmetry_cell_setting 'hexagonal'
loop_
_space_group_symop_operation_xyz
x,y,z
x-y,x,1/2+z
-y,x-y,z
-x,-y,1/2+z
-x+y,-x,z
y,-x+y,1/2+z
x-y,-y,-z
-x,-x+y,-z
y,x,-z
-y,-x,1/2-z
-x+y,y,1/2-z
x,x-y,1/2-z
-x,-y,-z
-x+y,-x,1/2-z
y,-x+y,-z
x,y,1/2-z
x-y,x,-z
-y,x-y,1/2-z
-x+y,y,z
x,x-y,z
-y,-x,z
y,x,1/2+z
x-y,-y,1/2+z
-x,-x+y,1/2+z
loop_
_atom_site_type_symbol
_atom_site_label
_atom_site_fract_x
_atom_site_fract_y
_atom_site_fract_z
Si Si1 0.124915 0.743127 0.131395
Si Si2 0.001052 0.251138 0.322278
Si Si3 0.200544 0.037069 0.060634
Si Si4 0.396568 0.923657 0.174898
Si Si5 0.734913 0.075055 0.492883
Si Si6 0.598023 0.072038 0.176152
Si Si7 0.613019 0.873949 0.863331
O O1 0.194874 0.805127 0.154382
O O2 0.064817 0.740610 0.172122
O O3 0.125481 0.674416 0.142086
O O4 0.115884 0.751277 0.057194
O O5 0.999769 0.224746 0.250000
O O6 0.006867 0.204237 0.377292
O O7 0.933354 0.252869 0.333274
O O8 0.183234 0.091617 0.087038
O O9 0.273281 0.073036 0.029624
O O10 0.152543 0.000000 0.000000
O O11 0.385056 0.918950 0.250000
O O12 0.450847 0.901693 0.156361
O O13 0.421943 0.998654 0.148365
O O14 0.721901 0.115579 0.438400
O O15 0.672540 0.000000 0.500000
O O16 0.583467 0.060160 0.250000
O O17 0.548419 0.096837 0.147732
O O18 0.674994 0.126215 0.165404
O O19 0.608694 0.804347 0.847307
#
# Coordination Sequence:
#
# PCOD8330329 Si02
#       7
#    24  24  24  24  24  24  24
#     4  12  21  32  52  79 111 140 174 222 275 327
#     4  11  21  32  47  75 110 138 174 221 272 333
#     4  10  19  33  51  71  99 144 183 213 265 325
#     4   9  18  34  52  69  97 137 176 212 257 318
#     4  10  17  32  51  71 102 142 177 209 255 323
#     4   9  17  31  50  70  97 134 174 215 261 316
#     4  11  20  31  50  75 104 138 178 222 271 322
#
# _framework density 17.234591999999999
#
# number of rings (size 3 to 8) (size 9 to 14) (size 15 to 20)
#    0.000    1.714    5.714    4.286    0.000    3.143 
#    0.000    0.714    0.000    3.286    0.000    0.000 
#    0.000    0.000    0.000    0.000    0.000    0.000 
#
# Total GULP energy -2081769.479235 kJ/mol
# GULP energy per Si atom -12391.484995 kJ/mol
# Density = 1.719537 g / cm^3
# Si number density = 17.234592 Si / 1000 Ang^3
#
#
#
# Elastic Constant Matrix: (Units=GPa)
#
#
# Indices 1 2 3 4 5 6 
#
# 1 94.8061 50.6911 19.9442 0.0000 0.0000 0.0000
# 2 50.6911 94.8061 19.9442 0.0000 0.0000 0.0000
# 3 19.9442 19.9442 92.2294 0.0000 0.0000 0.0000
# 4 0.0000 0.0000 0.0000 13.8502 0.0000 0.0000
# 5 0.0000 0.0000 0.0000 0.0000 13.8502 0.0000
# 6 0.0000 0.0000 0.0000 0.0000 0.0000 22.0575
#
#
#
# Elastic Compliance Matrix: (Units=1/GPa)
#
#
# Indices 1 2 3 4 5 6 
#
# 1 0.014987 -0.007681 -0.001580 0.000000 0.000000 0.000000
# 2 -0.007681 0.014987 -0.001580 0.000000 0.000000 0.000000
# 3 -0.001580 -0.001580 0.011526 0.000000 0.000000 0.000000
# 4 0.000000 0.000000 0.000000 0.072201 0.000000 0.000000
# 5 0.000000 0.000000 0.000000 0.000000 0.072201 0.000000
# 6 0.000000 0.000000 0.000000 0.000000 0.000000 0.045336
#
#
# Mechanical properties :
#
#
# Convention : Reuss Voigt Hill
#
# Bulk Modulus (GPa) = 50.45813 51.44450 50.95132
# Shear Modulus (GPa) = 19.26590 22.70240 20.98415
#
# Velocity S-wave (km/s) = 3.34707 3.63334 3.49314
# Velocity P-wave (km/s) = 6.65417 6.89318 6.77473
#
# Compressibility (1/GPa) = 0.01981841
#
# Stress axis : x y z
#
# Youngs Moduli (GPa) = 66.72425 66.72425 86.76170
#
# Poissons Ratio (x) = 0.51250 0.13708
# Poissons Ratio (y) = 0.51250 0.13708
# Poissons Ratio (z) = 0.10542 0.10542
#
# Static dielectric constant tensor:
#      x y z
#    x 3.088930 0.000000 0.000000 
#    y 0.000000 3.088930 0.000000 
#    z 0.000000 0.000000 3.397240 
# 
# 
# High freq. dielectric constant tensor:
#      x y z
#    x 1.636030 0.000000 0.000000 
#    y 0.000000 1.636030 0.000000 
#    z 0.000000 0.000000 1.667060 
# 
# From -- ./inp_files/8637.got.cif
#   From: 2010.03.12/outbox.cif.g09.slc.cpg/sg194_5_cif.got.tgz:8637.got - 2010.04.01 12:26:19.
