data_PCOD8330894
_publ_section_title
;
Structure prediction by ZEFSAII (Michael W. Deem and Ramdas Pophale) SiO2 
 PCOD8330894
Probable space group: P 21 3
;
_chemical_formula_sum "Si O2"
_cell_formula_units_Z 24
_cell_length_a 10.385281
_cell_length_b 10.385281
_cell_length_c 10.385281
_cell_angle_alpha 90.000000
_cell_angle_beta 90.000000
_cell_angle_gamma 90.000000
_cell_volume 1120.094735
_symmetry_space_group_name_H-M "P 21 3"
_symmetry_group_IT_number 198
_symmetry_cell_setting 'cubic'
loop_
_space_group_symop_operation_xyz
x,y,z
z,x,y
y,z,x
1/2-y,-z,1/2+x
1/2+z,1/2-x,-y
-y,1/2+z,1/2-x
1/2-z,-x,1/2+y
-z,1/2+x,1/2-y
1/2+y,1/2-z,-x
1/2-x,-y,1/2+z
1/2+x,1/2-y,-z
-x,1/2+y,1/2-z
loop_
_atom_site_type_symbol
_atom_site_label
_atom_site_fract_x
_atom_site_fract_y
_atom_site_fract_z
Si Si1 0.897344 0.701813 0.530200
Si Si2 0.102656 0.701812 0.030200
O O1 0.796795 0.584284 0.503711
O O2 0.819947 0.834629 0.530809
O O3 0.969191 0.680053 0.665371
O O4 0.203205 0.584284 0.003711
#
# Coordination Sequence:
#
# PCOD8330894 Si02
#       2
#    12  12
#     4  10  25  40  69  92 132 165 218 261 321 379
#     4  10  25  40  69  92 132 165 218 261 321 379
#
# _framework density 21.426758
#
# number of rings (size 3 to 8) (size 9 to 14) (size 15 to 20)
#    2.000    0.000    0.000    1.000   14.000    0.000 
#    0.000    5.000    0.000    0.000    0.000    0.000 
#    0.000    0.000    0.000    0.000    0.000    0.000 
#
# Total GULP energy -297400.892987 kJ/mol
# GULP energy per Si atom -12391.703874 kJ/mol
# Density = 2.137799 g / cm^3
# Si number density = 21.426758 Si / 1000 Ang^3
#
#
#
# Elastic Constant Matrix: (Units=GPa)
#
#
# Indices 1 2 3 4 5 6 
#
# 1 110.8849 1.9827 1.9827 0.0000 0.0000 0.0000
# 2 1.9827 110.8849 1.9827 0.0000 0.0000 0.0000
# 3 1.9827 1.9827 110.8849 0.0000 0.0000 0.0000
# 4 0.0000 0.0000 0.0000 24.1451 0.0000 0.0000
# 5 0.0000 0.0000 0.0000 0.0000 24.1451 0.0000
# 6 0.0000 0.0000 0.0000 0.0000 0.0000 24.1451
#
#
#
# Elastic Compliance Matrix: (Units=1/GPa)
#
#
# Indices 1 2 3 4 5 6 
#
# 1 0.009024 -0.000159 -0.000159 0.000000 0.000000 0.000000
# 2 -0.000159 0.009024 -0.000159 0.000000 0.000000 0.000000
# 3 -0.000159 -0.000159 0.009024 0.000000 0.000000 0.000000
# 4 0.000000 0.000000 0.000000 0.041416 0.000000 0.000000
# 5 0.000000 0.000000 0.000000 0.000000 0.041416 0.000000
# 6 0.000000 0.000000 0.000000 0.000000 0.000000 0.041416
#
#
# Mechanical properties :
#
#
# Convention : Reuss Voigt Hill
#
# Bulk Modulus (GPa) = 38.28347 38.28347 38.28347
# Shear Modulus (GPa) = 31.05992 36.26748 33.66370
#
# Velocity S-wave (km/s) = 3.81147 4.11862 3.96802
# Velocity P-wave (km/s) = 6.10538 6.36579 6.23694
#
# Compressibility (1/GPa) = 0.02612094
#
# Stress axis : x y z
#
# Youngs Moduli (GPa) = 110.81527 110.81527 110.81527
#
# Poissons Ratio (x) = 0.01757 0.01757
# Poissons Ratio (y) = 0.01757 0.01757
# Poissons Ratio (z) = 0.01757 0.01757
#
# Static dielectric constant tensor:
#      x y z
#    x 3.649400 0.000000 0.000000 
#    y 0.000000 3.649400 0.000000 
#    z 0.000000 0.000000 3.649400 
# 
# 
# High freq. dielectric constant tensor:
#      x y z
#    x 1.832520 0.000000 0.000000 
#    y 0.000000 1.832520 0.000000 
#    z 0.000000 0.000000 1.832520 
# 
# From -- ./inp_files/31.got.cif
#   From: 2010.03.12/outbox.cif.g09.slc.cpg/sg198_cif.got.tgz:31.got - 2010.04.01 12:33:50.
