data_PCOD8330147
_publ_section_title
;
Structure prediction by ZEFSAII (Michael W. Deem and Ramdas Pophale) SiO2 
 PCOD8330147
Probable space group: P 63/M C M
;
_chemical_formula_sum "Si O2"
_cell_formula_units_Z 120
_cell_length_a 15.421016
_cell_length_b 15.421016
_cell_length_c 29.226853
_cell_angle_alpha 90.000000
_cell_angle_beta 90.000000
_cell_angle_gamma 120.000000
_cell_volume 6019.198456
_symmetry_space_group_name_H-M "P 63/M C M"
_symmetry_group_IT_number 193
_symmetry_cell_setting 'hexagonal'
loop_
_space_group_symop_operation_xyz
x,y,z
x-y,x,1/2+z
-y,x-y,z
-x,-y,1/2+z
-x+y,-x,z
y,-x+y,1/2+z
x-y,-y,1/2-z
-x,-x+y,1/2-z
y,x,1/2-z
-y,-x,-z
-x+y,y,-z
x,x-y,-z
-x,-y,-z
-x+y,-x,1/2-z
y,-x+y,-z
x,y,1/2-z
x-y,x,-z
-y,x-y,1/2-z
-x+y,y,1/2+z
x,x-y,1/2+z
-y,-x,1/2+z
y,x,z
x-y,-y,z
-x,-x+y,z
loop_
_atom_site_type_symbol
_atom_site_label
_atom_site_fract_x
_atom_site_fract_y
_atom_site_fract_z
Si Si1 0.781250 0.343722 0.363983
Si Si2 0.117563 0.732990 0.699255
Si Si3 0.346938 0.232085 0.456143
Si Si4 0.884359 0.456104 0.050853
Si Si5 0.117622 0.881707 0.368914
O O1 0.760504 0.436719 0.357862
O O2 0.855622 0.343595 0.326072
O O3 0.827149 0.360889 0.415190
O O4 0.166280 0.759532 0.750000
O O5 0.154106 0.834426 0.670651
O O6 0.000000 0.676609 0.703758
O O7 0.366925 0.183463 0.500000
O O8 0.276921 0.276921 0.471430
O O9 0.451054 0.320148 0.435639
O O10 0.292663 0.148837 0.417222
O O11 0.000000 0.486371 0.052970
O O12 0.841342 0.420671 0.000000
O O13 0.000000 0.827382 0.359499
O O14 0.161182 0.000000 0.368623
#
# Coordination Sequence:
#
# PCOD8330147 Si02
#       5
#    24  24  24  24  24
#     4  10  23  37  58  86 115 157 199 252 297 346
#     4  10  22  41  64  88 118 156 197 246 308 372
#     4  10  21  35  55  84 120 160 201 243 298 361
#     4  10  22  36  54  83 118 157 203 249 298 354
#     4  10  21  38  62  90 121 156 199 252 310 375
#
# _framework density 19.936208000000001
#
# number of rings (size 3 to 8) (size 9 to 14) (size 15 to 20)
#    0.400    1.600    0.000    2.600    5.600    1.200 
#    0.000    1.000    0.000    4.400    0.000    0.000 
#    0.000    0.000    0.000    0.000    0.000    0.000 
#
# Total GULP energy -1487574.342427 kJ/mol
# GULP energy per Si atom -12396.452854 kJ/mol
# Density = 1.989083 g / cm^3
# Si number density = 19.936208 Si / 1000 Ang^3
#
#
#
# Elastic Constant Matrix: (Units=GPa)
#
#
# Indices 1 2 3 4 5 6 
#
# 1 71.0494 30.7586 50.9341 0.0000 0.0000 0.0000
# 2 30.7586 71.0494 50.9341 0.0000 0.0000 0.0000
# 3 50.9341 50.9341 145.3269 0.0000 0.0000 0.0000
# 4 0.0000 0.0000 0.0000 28.3460 0.0000 0.0000
# 5 0.0000 0.0000 0.0000 0.0000 28.3460 0.0000
# 6 0.0000 0.0000 0.0000 0.0000 0.0000 20.1454
#
#
#
# Elastic Compliance Matrix: (Units=1/GPa)
#
#
# Indices 1 2 3 4 5 6 
#
# 1 0.019973 -0.004846 -0.005302 0.000000 0.000000 0.000000
# 2 -0.004846 0.019973 -0.005302 0.000000 0.000000 0.000000
# 3 -0.005302 -0.005302 0.010597 0.000000 0.000000 0.000000
# 4 0.000000 0.000000 0.000000 0.035278 0.000000 0.000000
# 5 0.000000 0.000000 0.000000 0.000000 0.035278 0.000000
# 6 0.000000 0.000000 0.000000 0.000000 0.000000 0.049639
#
#
# Mechanical properties :
#
#
# Convention : Reuss Voigt Hill
#
# Bulk Modulus (GPa) = 50.90398 61.40880 56.15639
# Shear Modulus (GPa) = 24.01675 25.68739 24.85207
#
# Velocity S-wave (km/s) = 3.47462 3.59343 3.53452
# Velocity P-wave (km/s) = 6.45648 6.93445 6.69973
#
# Compressibility (1/GPa) = 0.01964483
#
# Stress axis : x y z
#
# Youngs Moduli (GPa) = 50.06641 50.06641 94.36272
#
# Poissons Ratio (x) = 0.24263 0.50030
# Poissons Ratio (y) = 0.24263 0.50030
# Poissons Ratio (z) = 0.26544 0.26544
#
# Static dielectric constant tensor:
#      x y z
#    x 3.578830 0.000000 0.000000 
#    y 0.000000 3.578830 0.000000 
#    z 0.000000 0.000000 3.762330 
# 
# 
# High freq. dielectric constant tensor:
#      x y z
#    x 1.777470 0.000000 0.000000 
#    y 0.000000 1.777470 0.000000 
#    z 0.000000 0.000000 1.771940 
# 
# From -- ./inp_files/8958.got.cif
#   From: 2010.03.12/outbox.cif.g09.slc.cpg/sg193_5_cif.got.tgz:8958.got - 2010.04.01 12:20:39.
