data_PCOD8330157
_publ_section_title
;
Structure prediction by ZEFSAII (Michael W. Deem and Ramdas Pophale) SiO2 
 PCOD8330157
Probable space group: P 63/M C M
;
_chemical_formula_sum "Si O2"
_cell_formula_units_Z 108
_cell_length_a 21.289470
_cell_length_b 21.289470
_cell_length_c 15.833515
_cell_angle_alpha 90.000000
_cell_angle_beta 90.000000
_cell_angle_gamma 120.000000
_cell_volume 6214.950432
_symmetry_space_group_name_H-M "P 63/M C M"
_symmetry_group_IT_number 193
_symmetry_cell_setting 'hexagonal'
loop_
_space_group_symop_operation_xyz
x,y,z
x-y,x,1/2+z
-y,x-y,z
-x,-y,1/2+z
-x+y,-x,z
y,-x+y,1/2+z
x-y,-y,1/2-z
-x,-x+y,1/2-z
y,x,1/2-z
-y,-x,-z
-x+y,y,-z
x,x-y,-z
-x,-y,-z
-x+y,-x,1/2-z
y,-x+y,-z
x,y,1/2-z
x-y,x,-z
-y,x-y,1/2-z
-x+y,y,1/2+z
x,x-y,1/2+z
-y,-x,1/2+z
y,x,z
x-y,-y,z
-x,-x+y,z
loop_
_atom_site_type_symbol
_atom_site_label
_atom_site_fract_x
_atom_site_fract_y
_atom_site_fract_z
Si Si1 0.146763 0.146763 0.153226
Si Si2 0.582178 0.502177 0.917015
Si Si3 0.148682 0.148682 0.847094
Si Si4 0.130285 0.406442 0.495600
Si Si5 0.915287 0.377866 0.156703
Si Si6 0.000000 0.755245 0.001997
O O1 0.172823 0.172823 0.250000
O O2 0.139922 0.069410 0.136896
O O3 0.202692 0.202692 0.085906
O O4 0.565325 0.565325 0.890499
O O5 0.549542 0.436911 0.848110
O O6 0.538096 0.461905 0.000000
O O7 0.668489 0.542544 0.931147
O O8 0.174879 0.174879 0.750000
O O9 0.205512 0.205512 0.914446
O O10 0.208275 0.416550 0.500000
O O11 0.125619 0.435946 0.404379
O O12 0.070721 0.323041 0.506065
O O13 0.901845 0.345181 0.250000
O O14 0.000000 0.419974 0.131291
#
# Coordination Sequence:
#
# PCOD8330157 Si02
#       6
#    12  24  12  24  24  12
#     4  10  21  38  54  71  94 131 186 242 288 334
#     4   8  14  30  52  74  97 126 166 214 258 302
#     4  10  21  36  56  73  92 131 188 244 288 330
#     4  11  20  32  52  79 112 150 178 212 263 322
#     4   9  17  33  58  83 102 128 175 231 268 303
#     4  12  22  36  50  76 114 148 180 220 276 330
#
# _framework density 17.377452000000002
#
# number of rings (size 3 to 8) (size 9 to 14) (size 15 to 20)
#    0.000    2.222    2.222    3.556    0.000    1.778 
#    0.000    4.444    0.000   12.000    0.000    0.000 
#    0.000    0.000    0.000    0.000    0.000    0.000 
#
# Total GULP energy -1338220.095598 kJ/mol
# GULP energy per Si atom -12390.926811 kJ/mol
# Density = 1.733790 g / cm^3
# Si number density = 17.377452 Si / 1000 Ang^3
#
#
#
# Elastic Constant Matrix: (Units=GPa)
#
#
# Indices 1 2 3 4 5 6 
#
# 1 -52.1552 244.7794 52.0211 0.0000 0.0000 0.0000
# 2 244.7794 -52.1552 52.0211 0.0000 0.0000 0.0000
# 3 52.0211 52.0211 96.5997 0.0000 0.0000 0.0000
# 4 0.0000 0.0000 0.0000 18.9536 0.0000 0.0000
# 5 0.0000 0.0000 0.0000 0.0000 18.9536 0.0000
# 6 0.0000 0.0000 0.0000 0.0000 0.0000 -148.4673
#
#
#
# Elastic Compliance Matrix: (Units=1/GPa)
#
#
# Indices 1 2 3 4 5 6 
#
# 1 0.001977 0.005344 -0.003942 0.000000 0.000000 0.000000
# 2 0.005344 0.001977 -0.003942 0.000000 0.000000 0.000000
# 3 -0.003942 -0.003942 0.014598 0.000000 0.000000 0.000000
# 4 0.000000 0.000000 0.000000 0.052760 0.000000 0.000000
# 5 0.000000 0.000000 0.000000 0.000000 0.052760 0.000000
# 6 0.000000 0.000000 0.000000 0.000000 0.000000 -0.006735
#
#
# Mechanical properties :
#
#
# Convention : Reuss Voigt Hill
#
# Bulk Modulus (GPa) = 74.23829 76.65919 75.44874
# Shear Modulus (GPa) = 39.39862 -45.88084 -3.24111
#
# Velocity S-wave (km/s) = 4.76671 -5.14391 -1.36718
# Velocity P-wave (km/s) = 8.55039 2.98834 6.40466
#
# Compressibility (1/GPa) = 0.01347014
#
# Stress axis : x y z
#
# Youngs Moduli (GPa) = 505.92435 505.92435 68.50149
#
# Poissons Ratio (x) = -2.70382 0.27007
# Poissons Ratio (y) = -2.70382 0.27007
# Poissons Ratio (z) = 1.99459 1.99459
#
# Static dielectric constant tensor:
#      x y z
#    x 3.256300 0.000000 0.000000 
#    y 0.000000 3.256300 0.000000 
#    z 0.000000 0.000000 3.633470 
# 
# 
# High freq. dielectric constant tensor:
#      x y z
#    x 1.661700 0.000000 0.000000 
#    y 0.000000 1.661700 0.000000 
#    z 0.000000 0.000000 1.669020 
# 
# From -- ./inp_files/5322.got.cif
#   From: 2010.03.12/outbox.cif.g09.slc.cpg/sg193_3_cif.got.tgz:5322.got - 2010.04.01 12:20:39.
