data_PCOD8330308
_publ_section_title
;
Structure prediction by ZEFSAII (Michael W. Deem and Ramdas Pophale) SiO2 
 PCOD8330308
Probable space group: P 63/M M C
;
_chemical_formula_sum "Si O2"
_cell_formula_units_Z 144
_cell_length_a 22.413166
_cell_length_b 22.413166
_cell_length_c 19.705933
_cell_angle_alpha 90.000000
_cell_angle_beta 90.000000
_cell_angle_gamma 120.000000
_cell_volume 8573.024185
_symmetry_space_group_name_H-M "P 63/M M C"
_symmetry_group_IT_number 194
_symmetry_cell_setting 'hexagonal'
loop_
_space_group_symop_operation_xyz
x,y,z
x-y,x,1/2+z
-y,x-y,z
-x,-y,1/2+z
-x+y,-x,z
y,-x+y,1/2+z
x-y,-y,-z
-x,-x+y,-z
y,x,-z
-y,-x,1/2-z
-x+y,y,1/2-z
x,x-y,1/2-z
-x,-y,-z
-x+y,-x,1/2-z
y,-x+y,-z
x,y,1/2-z
x-y,x,-z
-y,x-y,1/2-z
-x+y,y,z
x,x-y,z
-y,-x,z
y,x,1/2+z
x-y,-y,1/2+z
-x,-x+y,1/2+z
loop_
_atom_site_type_symbol
_atom_site_label
_atom_site_fract_x
_atom_site_fract_y
_atom_site_fract_z
Si Si1 0.159037 0.181694 0.423388
Si Si2 0.108476 0.216951 0.832334
Si Si3 0.323308 0.031380 0.927649
Si Si4 0.047071 0.523535 0.599081
Si Si5 0.449091 0.898181 0.447501
Si Si6 0.628632 0.814316 0.674251
Si Si7 0.296998 0.454079 0.463072
Si Si8 0.420743 0.324928 0.112779
O O1 0.153808 0.153808 0.500000
O O2 0.085848 0.171695 0.402792
O O3 0.178120 0.144911 0.364935
O O4 0.215491 0.261342 0.420264
O O5 0.105102 0.210203 0.750000
O O6 0.147987 0.295974 0.862474
O O7 0.390566 0.105471 0.915604
O O8 0.321598 0.974308 0.876838
O O9 0.325458 0.000000 0.000000
O O10 0.068318 0.534159 0.521197
O O11 0.079142 0.480585 0.634272
O O12 0.963420 0.481710 0.604382
O O13 0.480552 0.848167 0.437463
O O14 0.653243 0.826622 0.750000
O O15 0.581402 0.733031 0.661508
O O16 0.235122 0.470244 0.455505
O O17 0.303341 0.433925 0.539353
#
# Coordination Sequence:
#
# PCOD8330308 Si02
#       8
#    24  12  24  12  12  12  24  24
#     4  11  21  35  56  79 103 132 175 228 272 312
#     4  11  24  40  55  77 108 142 175 218 273 328
#     4   9  17  26  48  75  99 125 160 214 266 312
#     4   9  16  28  49  69  97 125 164 216 260 304
#     4   9  16  26  40  67  99 137 163 197 253 313
#     4  11  22  36  54  73 101 136 174 215 263 320
#     4  10  17  26  43  70 104 133 164 208 256 310
#     4  10  17  31  50  71  96 128 168 213 266 310
#
# _framework density 16.796873999999999
#
# number of rings (size 3 to 8) (size 9 to 14) (size 15 to 20)
#    0.000    2.000    5.000    0.500    0.000    0.333 
#    1.000    0.833    0.000    0.333    0.000    0.000 
#    0.000    0.000    0.000    0.000    0.000    0.167 
#
# Total GULP energy -1784386.917785 kJ/mol
# GULP energy per Si atom -12391.575818 kJ/mol
# Density = 1.675864 g / cm^3
# Si number density = 16.796874 Si / 1000 Ang^3
#
#
#
# Elastic Constant Matrix: (Units=GPa)
#
#
# Indices 1 2 3 4 5 6 
#
# 1 120.8461 84.7104 20.5586 0.0000 0.0000 0.0000
# 2 84.7104 120.8461 20.5586 0.0000 0.0000 0.0000
# 3 20.5586 20.5586 41.5871 0.0000 0.0000 0.0000
# 4 0.0000 0.0000 0.0000 12.0229 0.0000 0.0000
# 5 0.0000 0.0000 0.0000 0.0000 12.0229 0.0000
# 6 0.0000 0.0000 0.0000 0.0000 0.0000 18.0679
#
#
#
# Elastic Compliance Matrix: (Units=1/GPa)
#
#
# Indices 1 2 3 4 5 6 
#
# 1 0.016536 -0.011137 -0.002669 0.000000 0.000000 0.000000
# 2 -0.011137 0.016536 -0.002669 0.000000 0.000000 0.000000
# 3 -0.002669 -0.002669 0.026685 0.000000 0.000000 0.000000
# 4 0.000000 0.000000 0.000000 0.083174 0.000000 0.000000
# 5 0.000000 0.000000 0.000000 0.000000 0.083174 0.000000
# 6 0.000000 0.000000 0.000000 0.000000 0.000000 0.055347
#
#
# Mechanical properties :
#
#
# Convention : Reuss Voigt Hill
#
# Bulk Modulus (GPa) = 37.30422 59.43716 48.37069
# Shear Modulus (GPa) = 15.46370 18.91954 17.19162
#
# Velocity S-wave (km/s) = 3.03748 3.35979 3.20269
# Velocity P-wave (km/s) = 5.87869 7.10729 6.52198
#
# Compressibility (1/GPa) = 0.02680662
#
# Stress axis : x y z
#
# Youngs Moduli (GPa) = 60.47386 60.47386 37.47479
#
# Poissons Ratio (x) = 0.67352 0.10001
# Poissons Ratio (y) = 0.67352 0.10001
# Poissons Ratio (z) = 0.16139 0.16139
#
# Static dielectric constant tensor:
#      x y z
#    x 3.484510 0.000000 0.000000 
#    y 0.000000 3.484510 0.000000 
#    z 0.000000 0.000000 2.654040 
# 
# 
# High freq. dielectric constant tensor:
#      x y z
#    x 1.653800 0.000000 0.000000 
#    y 0.000000 1.653800 0.000000 
#    z 0.000000 0.000000 1.585350 
# 
# From -- ./inp_files/8349.got.cif
#   From: 2010.03.12/outbox.cif.g09.slc.cpg/sg194_5_cif.got.tgz:8349.got - 2010.04.01 12:26:19.
