data_PCOD8330069
_publ_section_title
;
Structure prediction by ZEFSAII (Michael W. Deem and Ramdas Pophale) SiO2 
 PCOD8330069
Probable space group: P 63/M C M
;
_chemical_formula_sum "Si O2"
_cell_formula_units_Z 120
_cell_length_a 23.571791
_cell_length_b 23.571791
_cell_length_c 13.535928
_cell_angle_alpha 90.000000
_cell_angle_beta 90.000000
_cell_angle_gamma 120.000000
_cell_volume 6513.341224
_symmetry_space_group_name_H-M "P 63/M C M"
_symmetry_group_IT_number 193
_symmetry_cell_setting 'hexagonal'
loop_
_space_group_symop_operation_xyz
x,y,z
x-y,x,1/2+z
-y,x-y,z
-x,-y,1/2+z
-x+y,-x,z
y,-x+y,1/2+z
x-y,-y,1/2-z
-x,-x+y,1/2-z
y,x,1/2-z
-y,-x,-z
-x+y,y,-z
x,x-y,-z
-x,-y,-z
-x+y,-x,1/2-z
y,-x+y,-z
x,y,1/2-z
x-y,x,-z
-y,x-y,1/2-z
-x+y,y,1/2+z
x,x-y,1/2+z
-y,-x,1/2+z
y,x,z
x-y,-y,z
-x,-x+y,z
loop_
_atom_site_type_symbol
_atom_site_label
_atom_site_fract_x
_atom_site_fract_y
_atom_site_fract_z
Si Si1 0.549631 0.927884 0.861174
Si Si2 0.805490 0.383704 0.365712
Si Si3 0.333501 0.258857 0.542926
Si Si4 0.482232 0.762413 0.132673
Si Si5 0.839621 0.205769 0.635668
O O1 0.563712 0.910834 0.750000
O O2 0.474865 0.880004 0.890477
O O3 0.597960 0.921909 0.937030
O O4 0.558983 0.000000 0.863985
O O5 0.791147 0.380145 0.250000
O O6 0.758743 0.311255 0.410093
O O7 0.793946 0.440184 0.412727
O O8 0.273851 0.273851 0.562002
O O9 0.329747 0.202104 0.614469
O O10 0.331600 0.237591 0.428877
O O11 0.480344 0.763090 0.250000
O O12 0.558041 0.799728 0.099973
O O13 0.859379 0.217901 0.750000
#
# Coordination Sequence:
#
# PCOD8330069 Si02
#       5
#    24  24  24  24  24
#     4   9  16  28  48  71  94 126 172 220 262 312
#     4   9  15  25  43  68  95 125 165 210 266 329
#     4  10  20  34  55  78 103 137 176 218 265 314
#     4   9  16  27  45  69  96 130 167 214 274 331
#     4  10  20  35  54  77 106 137 173 218 266 317
#
# _framework density 18.423724
#
# number of rings (size 3 to 8) (size 9 to 14) (size 15 to 20)
#    0.000    2.600    2.000    1.000    0.000    3.200 
#    0.000    2.000    0.000    6.000    0.000    0.000 
#    0.000    0.000    0.000   19.200    0.000   41.600 
#
# Total GULP energy -1487292.049627 kJ/mol
# GULP energy per Si atom -12394.100414 kJ/mol
# Density = 1.838179 g / cm^3
# Si number density = 18.423724 Si / 1000 Ang^3
#
#
#
# Elastic Constant Matrix: (Units=GPa)
#
#
# Indices 1 2 3 4 5 6 
#
# 1 94.6970 61.3108 19.8858 0.0000 0.0000 0.0000
# 2 61.3108 94.6970 19.8858 0.0000 0.0000 0.0000
# 3 19.8858 19.8858 57.1026 0.0000 0.0000 0.0000
# 4 0.0000 0.0000 0.0000 15.1333 0.0000 0.0000
# 5 0.0000 0.0000 0.0000 0.0000 15.1333 0.0000
# 6 0.0000 0.0000 0.0000 0.0000 0.0000 16.6931
#
#
#
# Elastic Compliance Matrix: (Units=1/GPa)
#
#
# Indices 1 2 3 4 5 6 
#
# 1 0.018493 -0.011459 -0.002450 0.000000 0.000000 0.000000
# 2 -0.011459 0.018493 -0.002450 0.000000 0.000000 0.000000
# 3 -0.002450 -0.002450 0.019219 0.000000 0.000000 0.000000
# 4 0.000000 0.000000 0.000000 0.066080 0.000000 0.000000
# 5 0.000000 0.000000 0.000000 0.000000 0.066080 0.000000
# 6 0.000000 0.000000 0.000000 0.000000 0.000000 0.059905
#
#
# Mechanical properties :
#
#
# Convention : Reuss Voigt Hill
#
# Bulk Modulus (GPa) = 42.57393 49.85128 46.21260
# Shear Modulus (GPa) = 17.31204 19.08620 18.19912
#
# Velocity S-wave (km/s) = 3.06871 3.22212 3.14635
# Velocity P-wave (km/s) = 5.97615 6.39998 6.19169
#
# Compressibility (1/GPa) = 0.02348855
#
# Stress axis : x y z
#
# Youngs Moduli (GPa) = 54.07308 54.07308 52.03307
#
# Poissons Ratio (x) = 0.61963 0.12747
# Poissons Ratio (y) = 0.61963 0.12747
# Poissons Ratio (z) = 0.13246 0.13246
#
# Static dielectric constant tensor:
#      x y z
#    x 3.357810 0.000000 0.000000 
#    y 0.000000 3.357810 0.000000 
#    z 0.000000 0.000000 3.338260 
# 
# 
# High freq. dielectric constant tensor:
#      x y z
#    x 1.688260 0.000000 0.000000 
#    y 0.000000 1.688260 0.000000 
#    z 0.000000 0.000000 1.726450 
# 
# From -- ./inp_files/3997.got.cif
#   From: 2010.03.12/outbox.cif.g09.slc.cpg/sg193_2_cif.got.tgz:3997.got - 2010.04.01 12:20:39.
