data_PCOD8330991
_publ_section_title
;
Structure prediction by ZEFSAII (Michael W. Deem and Ramdas Pophale) SiO2 
 PCOD8330991
Probable space group: P 42 3 2
;
_chemical_formula_sum "Si O2"
_cell_formula_units_Z 114
_cell_length_a 17.262959
_cell_length_b 17.262959
_cell_length_c 17.262959
_cell_angle_alpha 90.000000
_cell_angle_beta 90.000000
_cell_angle_gamma 90.000000
_cell_volume 5144.530155
_symmetry_space_group_name_H-M "P 42 3 2"
_symmetry_group_IT_number 208
_symmetry_cell_setting 'cubic'
loop_
_space_group_symop_operation_xyz
x,y,z
1/2-y,1/2+x,1/2+z
-x,-y,z
1/2+y,1/2-x,1/2+z
1/2+x,1/2-z,1/2+y
x,-y,-z
1/2+x,1/2+z,1/2-y
1/2+z,1/2+y,1/2-x
-x,y,-z
1/2-z,1/2+y,1/2+x
z,x,y
y,z,x
-y,-z,x
z,-x,-y
-y,z,-x
-z,-x,y
-z,x,-y
y,-z,-x
1/2+y,1/2+x,1/2-z
1/2-y,1/2-x,1/2-z
1/2-x,1/2+z,1/2+y
1/2-x,1/2-z,1/2-y
1/2+z,1/2-y,1/2+x
1/2-z,1/2-y,1/2-x
loop_
_atom_site_type_symbol
_atom_site_label
_atom_site_fract_x
_atom_site_fract_y
_atom_site_fract_z
Si Si1 0.301902 0.301902 0.301902
Si Si2 0.500000 0.500000 0.500000
Si Si3 0.413447 0.461307 0.772380
Si Si4 0.396206 0.396207 0.603795
Si Si5 0.912766 0.513183 0.091410
Si Si6 0.164718 0.667859 0.601928
Si Si7 0.662041 0.127843 0.339347
O O1 0.250000 0.250000 0.250000
O O2 0.243472 0.354131 0.351914
O O3 0.448091 0.448091 0.551911
O O4 0.500000 0.500000 0.779632
O O5 0.390621 0.438995 0.685628
O O6 0.343303 0.513693 0.807234
O O7 0.404637 0.384074 0.822856
O O8 0.896852 0.600823 0.117299
O O9 0.851560 0.460911 0.137458
O O10 0.000000 0.500000 0.117860
O O11 0.900844 0.500000 0.000000
O O12 0.126265 0.750000 0.626265
O O13 0.650196 0.150196 0.250000
O O14 0.750000 0.139707 0.360294
#
# Coordination Sequence:
#
# PCOD8330991 Si02
#       7
#     8   2  24   8  24  24  24
#     4   9  24  46  68 109 144 180 235 317 376 444
#     4  12  24  52  64 124 152 214 240 292 352 508
#     4  12  26  46  76 111 152 202 252 316 387 464
#     4  12  27  45  74 113 162 196 251 307 387 472
#     4  11  24  47  71 103 145 193 248 304 370 447
#     4  11  24  46  75 106 146 195 248 310 384 448
#     4  12  26  48  75 108 150 195 255 314 389 463
#
# _framework density 22.159458000000001
#
# number of rings (size 3 to 8) (size 9 to 14) (size 15 to 20)
#    0.000    0.632    3.158    4.000    2.947    0.421 
#   22.737    0.000    0.000    0.000    0.000    0.000 
#    0.000    0.000    0.000    0.000    0.000    0.000 
#
# Total GULP energy -1412653.429519 kJ/mol
# GULP energy per Si atom -12391.696750 kJ/mol
# Density = 2.210902 g / cm^3
# Si number density = 22.159458 Si / 1000 Ang^3
#
#
#
# Elastic Constant Matrix: (Units=GPa)
#
#
# Indices 1 2 3 4 5 6 
#
# 1 134.2444 62.0827 62.0816 0.0000 0.0000 0.0000
# 2 62.0827 134.2444 62.0816 0.0000 0.0000 0.0000
# 3 62.0816 62.0816 134.2450 0.0000 0.0000 0.0000
# 4 0.0000 0.0000 0.0000 45.1947 0.0000 0.0000
# 5 0.0000 0.0000 0.0000 0.0000 45.1947 0.0000
# 6 0.0000 0.0000 0.0000 0.0000 0.0000 45.1947
#
#
#
# Elastic Compliance Matrix: (Units=1/GPa)
#
#
# Indices 1 2 3 4 5 6 
#
# 1 0.010528 -0.003329 -0.003329 0.000000 0.000000 0.000000
# 2 -0.003329 0.010528 -0.003329 0.000000 0.000000 0.000000
# 3 -0.003329 -0.003329 0.010528 0.000000 0.000000 0.000000
# 4 0.000000 0.000000 0.000000 0.022126 0.000000 0.000000
# 5 0.000000 0.000000 0.000000 0.000000 0.022126 0.000000
# 6 0.000000 0.000000 0.000000 0.000000 0.000000 0.022126
#
#
# Mechanical properties :
#
#
# Convention : Reuss Voigt Hill
#
# Bulk Modulus (GPa) = 86.13618 86.13618 86.13618
# Shear Modulus (GPa) = 41.04759 41.54935 41.29847
#
# Velocity S-wave (km/s) = 4.30859 4.33484 4.32174
# Velocity P-wave (km/s) = 7.98169 8.00062 7.99116
#
# Compressibility (1/GPa) = 0.01160952
#
# Stress axis : x y z
#
# Youngs Moduli (GPa) = 94.98119 94.98119 94.98267
#
# Poissons Ratio (x) = 0.31623 0.31622
# Poissons Ratio (y) = 0.31623 0.31622
# Poissons Ratio (z) = 0.31621 0.31621
#
# Static dielectric constant tensor:
#      x y z
#    x 3.985510 0.000000 0.000000 
#    y 0.000000 3.985510 0.000000 
#    z 0.000000 0.000000 3.985530 
# 
# 
# High freq. dielectric constant tensor:
#      x y z
#    x 1.880770 0.000000 0.000000 
#    y 0.000000 1.880770 0.000000 
#    z 0.000000 0.000000 1.880770 
# 
# From -- ./inp_files/1010.got.cif
#   From: 2010.03.12/outbox.cif.g09.slc.cpg/sg208_cif.got.tgz:1010.got - 2010.03.30 09:03:42.
