data_PCOD8330591
_publ_section_title
;
Structure prediction by ZEFSAII (Michael W. Deem and Ramdas Pophale) SiO2 
 PCOD8330591
Probable space group: P 63/M M C
;
_chemical_formula_sum "Si O2"
_cell_formula_units_Z 60
_cell_length_a 21.364586
_cell_length_b 21.364586
_cell_length_c 7.608849
_cell_angle_alpha 90.000000
_cell_angle_beta 90.000000
_cell_angle_gamma 120.000000
_cell_volume 3007.728010
_symmetry_space_group_name_H-M "P 63/M M C"
_symmetry_group_IT_number 194
_symmetry_cell_setting 'hexagonal'
loop_
_space_group_symop_operation_xyz
x,y,z
x-y,x,1/2+z
-y,x-y,z
-x,-y,1/2+z
-x+y,-x,z
y,-x+y,1/2+z
x-y,-y,-z
-x,-x+y,-z
y,x,-z
-y,-x,1/2-z
-x+y,y,1/2-z
x,x-y,1/2-z
-x,-y,-z
-x+y,-x,1/2-z
y,-x+y,-z
x,y,1/2-z
x-y,x,-z
-y,x-y,1/2-z
-x+y,y,z
x,x-y,z
-y,-x,z
y,x,1/2+z
x-y,-y,1/2+z
-x,-x+y,1/2+z
loop_
_atom_site_type_symbol
_atom_site_label
_atom_site_fract_x
_atom_site_fract_y
_atom_site_fract_z
Si Si1 0.188151 0.664213 0.250000
Si Si2 0.076833 0.293927 0.045815
Si Si3 0.645632 0.080340 0.053923
O O1 0.253417 0.746583 0.250000
O O2 0.219939 0.609970 0.250000
O O3 0.139700 0.648100 0.422914
O O4 0.083640 0.314210 0.250000
O O5 0.138065 0.276129 0.985136
O O6 0.084546 0.361822 0.939645
O O7 0.000000 0.223721 0.000000
O O8 0.629076 0.097138 0.250000
O O9 0.583226 0.000000 0.000000
#
# Coordination Sequence:
#
# PCOD8330591 Si02
#       3
#    12  24  24
#     4  12  27  46  66  92 131 174 214 254 308 384
#     4  10  19  32  53  82 117 151 191 243 302 366
#     4  11  21  40  67  97 124 156 204 265 328 372
#
# _framework density 19.948612000000001
#
# number of rings (size 3 to 8) (size 9 to 14) (size 15 to 20)
#    0.000    1.200    4.000    5.000    0.000    7.200 
#    0.000    0.000    0.000    2.800    0.000    0.000 
#    0.000    0.000    0.000    0.000    0.000    0.000 
#
# Total GULP energy -744112.560629 kJ/mol
# GULP energy per Si atom -12401.876010 kJ/mol
# Density = 1.990321 g / cm^3
# Si number density = 19.948612 Si / 1000 Ang^3
#
#
#
# Elastic Constant Matrix: (Units=GPa)
#
#
# Indices 1 2 3 4 5 6 
#
# 1 93.1347 43.2794 34.0118 0.0000 0.0000 0.0000
# 2 43.2794 93.1347 34.0118 0.0000 0.0000 0.0000
# 3 34.0118 34.0118 156.8580 0.0000 0.0000 0.0000
# 4 0.0000 0.0000 0.0000 14.2989 0.0000 0.0000
# 5 0.0000 0.0000 0.0000 0.0000 14.2989 0.0000
# 6 0.0000 0.0000 0.0000 0.0000 0.0000 24.9276
#
#
#
# Elastic Compliance Matrix: (Units=1/GPa)
#
#
# Indices 1 2 3 4 5 6 
#
# 1 0.014139 -0.005919 -0.001782 0.000000 0.000000 0.000000
# 2 -0.005919 0.014139 -0.001782 0.000000 0.000000 0.000000
# 3 -0.001782 -0.001782 0.007148 0.000000 0.000000 0.000000
# 4 0.000000 0.000000 0.000000 0.069936 0.000000 0.000000
# 5 0.000000 0.000000 0.000000 0.000000 0.069936 0.000000
# 6 0.000000 0.000000 0.000000 0.000000 0.000000 0.040116
#
#
# Mechanical properties :
#
#
# Convention : Reuss Voigt Hill
#
# Bulk Modulus (GPa) = 60.76115 62.85928 61.81021
# Shear Modulus (GPa) = 20.84495 26.16003 23.50249
#
# Velocity S-wave (km/s) = 3.23605 3.62521 3.43614
# Velocity P-wave (km/s) = 6.66991 7.00728 6.84067
#
# Compressibility (1/GPa) = 0.01645789
#
# Stress axis : x y z
#
# Youngs Moduli (GPa) = 70.72787 70.72787 139.89781
#
# Poissons Ratio (x) = 0.41866 0.24933
# Poissons Ratio (y) = 0.41866 0.24933
# Poissons Ratio (z) = 0.12605 0.12605
#
# Static dielectric constant tensor:
#      x y z
#    x 3.595180 0.000000 0.000000 
#    y 0.000000 3.595180 0.000000 
#    z 0.000000 0.000000 3.721280 
# 
# 
# High freq. dielectric constant tensor:
#      x y z
#    x 1.763550 0.000000 0.000000 
#    y 0.000000 1.763550 0.000000 
#    z 0.000000 0.000000 1.794330 
# 
# From -- ./inp_files/762.got.cif
#   From: 2010.03.12/outbox.cif.g09.slc.cpg/sg194_1_cif.got.tgz:762.got - 2010.04.01 12:26:19.
