data_PCOD8330367
_publ_section_title
;
Structure prediction by ZEFSAII (Michael W. Deem and Ramdas Pophale) SiO2 
 PCOD8330367
Probable space group: P 63/M M C
;
_chemical_formula_sum "Si O2"
_cell_formula_units_Z 96
_cell_length_a 19.780202
_cell_length_b 19.780202
_cell_length_c 18.054502
_cell_angle_alpha 90.000000
_cell_angle_beta 90.000000
_cell_angle_gamma 120.000000
_cell_volume 6117.550882
_symmetry_space_group_name_H-M "P 63/M M C"
_symmetry_group_IT_number 194
_symmetry_cell_setting 'hexagonal'
loop_
_space_group_symop_operation_xyz
x,y,z
x-y,x,1/2+z
-y,x-y,z
-x,-y,1/2+z
-x+y,-x,z
y,-x+y,1/2+z
x-y,-y,-z
-x,-x+y,-z
y,x,-z
-y,-x,1/2-z
-x+y,y,1/2-z
x,x-y,1/2-z
-x,-y,-z
-x+y,-x,1/2-z
y,-x+y,-z
x,y,1/2-z
x-y,x,-z
-y,x-y,1/2-z
-x+y,y,z
x,x-y,z
-y,-x,z
y,x,1/2+z
x-y,-y,1/2+z
-x,-x+y,1/2+z
loop_
_atom_site_type_symbol
_atom_site_label
_atom_site_fract_x
_atom_site_fract_y
_atom_site_fract_z
Si Si1 0.465927 0.534074 0.332326
Si Si2 0.224193 0.296819 0.047542
Si Si3 0.649643 0.643373 0.333466
Si Si4 0.094265 0.547133 0.007200
Si Si5 0.292357 0.856070 0.935031
O O1 0.445004 0.554997 0.250000
O O2 0.559127 0.577070 0.339951
O O3 0.438825 0.561176 0.405931
O O4 0.133274 0.266548 0.068077
O O5 0.277757 0.324485 0.120644
O O6 0.230248 0.230248 0.000000
O O7 0.256547 0.372588 0.998254
O O8 0.673630 0.671669 0.250000
O O9 0.696888 0.601834 0.360847
O O10 0.132466 0.504633 0.965437
O O11 0.000000 0.500000 0.000000
O O12 0.234601 0.765400 0.916184
#
# Coordination Sequence:
#
# PCOD8330367 Si02
#       5
#    12  24  24  12  24
#     4  10  18  28  48  74  94 120 164 206 244 288
#     4   9  17  30  47  69  95 123 155 197 242 291
#     4  10  18  29  46  69  95 124 159 201 247 291
#     4  12  16  32  54  66  90 132 172 208 238 286
#     4  10  19  30  46  69  96 126 161 203 245 284
#
# _framework density 15.692555
#
# number of rings (size 3 to 8) (size 9 to 14) (size 15 to 20)
#    0.000    2.000    5.000    0.750    0.000    1.000 
#    0.750    0.000    0.000    1.000    0.000    0.000 
#    0.000    0.000    0.000    0.750    0.000    0.000 
#
# Total GULP energy -1189345.282820 kJ/mol
# GULP energy per Si atom -12389.013363 kJ/mol
# Density = 1.565684 g / cm^3
# Si number density = 15.692555 Si / 1000 Ang^3
#
#
#
# Elastic Constant Matrix: (Units=GPa)
#
#
# Indices 1 2 3 4 5 6 
#
# 1 899.2758 -744.6119 41.5573 0.0000 0.0000 -0.0002
# 2 -744.6119 899.2758 41.5573 0.0000 0.0000 0.0002
# 3 41.5573 41.5573 118.4526 0.0000 0.0000 0.0000
# 4 0.0000 0.0000 0.0000 14.5851 0.0000 0.0000
# 5 0.0000 0.0000 0.0000 0.0000 14.5851 0.0000
# 6 -0.0002 0.0002 0.0000 0.0000 0.0000 821.9441
#
#
#
# Elastic Compliance Matrix: (Units=1/GPa)
#
#
# Indices 1 2 3 4 5 6 
#
# 1 0.004288 0.003680 -0.002795 0.000000 0.000000 0.000000
# 2 0.003680 0.004288 -0.002795 0.000000 0.000000 0.000000
# 3 -0.002795 -0.002795 0.010404 0.000000 0.000000 0.000000
# 4 0.000000 0.000000 0.000000 0.068563 0.000000 0.000000
# 5 0.000000 0.000000 0.000000 0.000000 0.068563 0.000000
# 6 0.000000 0.000000 0.000000 0.000000 0.000000 0.001217
#
#
# Mechanical properties :
#
#
# Convention : Reuss Voigt Hill
#
# Bulk Modulus (GPa) = 65.97288 66.00106 65.98697
# Shear Modulus (GPa) = 30.08476 342.12298 186.10387
#
# Velocity S-wave (km/s) = 4.38326 14.78139 10.90189
# Velocity P-wave (km/s) = 8.23101 18.26114 14.16366
#
# Compressibility (1/GPa) = 0.01515774
#
# Stress axis : x y z
#
# Youngs Moduli (GPa) = 233.20465 233.20465 96.12022
#
# Poissons Ratio (x) = -0.85814 0.26869
# Poissons Ratio (y) = -0.85814 0.26869
# Poissons Ratio (z) = 0.65190 0.65190
#
# Static dielectric constant tensor:
#      x y z
#    x 3.126790 0.000000 0.000000 
#    y 0.000000 3.126790 0.000000 
#    z 0.000000 0.000000 3.264990 
# 
# 
# High freq. dielectric constant tensor:
#      x y z
#    x 1.582180 0.000000 0.000000 
#    y 0.000000 1.582180 0.000000 
#    z 0.000000 0.000000 1.613090 
# 
# From -- ./inp_files/6500.got.cif
#   From: 2010.03.12/outbox.cif.g09.slc.cpg/sg194_4_cif.got.tgz:6500.got - 2010.04.01 12:26:19.
