data_PCOD8330888
_publ_section_title
;
Structure prediction by ZEFSAII (Michael W. Deem and Ramdas Pophale) SiO2 
 PCOD8330888
Probable space group: P 21 3
;
_chemical_formula_sum "Si O2"
_cell_formula_units_Z 64
_cell_length_a 14.257827
_cell_length_b 14.257827
_cell_length_c 14.257827
_cell_angle_alpha 90.000000
_cell_angle_beta 90.000000
_cell_angle_gamma 90.000000
_cell_volume 2898.411355
_symmetry_space_group_name_H-M "P 21 3"
_symmetry_group_IT_number 198
_symmetry_cell_setting 'cubic'
loop_
_space_group_symop_operation_xyz
x,y,z
z,x,y
y,z,x
1/2-y,-z,1/2+x
1/2+z,1/2-x,-y
-y,1/2+z,1/2-x
1/2-z,-x,1/2+y
-z,1/2+x,1/2-y
1/2+y,1/2-z,-x
1/2-x,-y,1/2+z
1/2+x,1/2-y,-z
-x,1/2+y,1/2-z
loop_
_atom_site_type_symbol
_atom_site_label
_atom_site_fract_x
_atom_site_fract_y
_atom_site_fract_z
Si Si1 0.399103 0.399104 0.399103
Si Si2 0.226367 0.726367 0.773635
Si Si3 0.568348 0.068348 0.431654
Si Si4 0.078431 0.529394 0.282781
Si Si5 0.503237 0.805273 0.800664
Si Si6 0.441290 0.941290 0.558712
Si Si7 0.723336 0.989640 0.552006
Si Si8 0.655773 0.679728 0.402437
O O1 0.336118 0.336118 0.336118
O O2 0.478298 0.441775 0.331464
O O3 0.299602 0.659360 0.723728
O O4 0.531668 0.174777 0.448925
O O5 0.504922 0.004922 0.495078
O O6 0.164662 0.502612 0.351297
O O7 0.056967 0.445226 0.210219
O O8 0.093591 0.630119 0.229351
O O9 0.980475 0.550225 0.336566
O O10 0.525946 0.728394 0.880208
O O11 0.465534 0.743398 0.713709
O O12 0.431048 0.885104 0.837999
#
# Coordination Sequence:
#
# PCOD8330888 Si02
#       8
#     4   4   4  12  12   4  12  12
#     4  12  24  42  67  97 132 175 223 276 343 410
#     4   9  18  37  64  87 114 168 226 253 316 407
#     4   9  21  42  67  97 126 178 229 264 336 397
#     4  11  21  40  65  92 132 175 219 283 341 402
#     4  11  24  40  66  99 132 177 232 279 335 410
#     4   9  18  34  64  90 123 168 232 268 321 397
#     4  11  25  42  68  98 135 176 223 286 335 412
#     4  10  21  39  65  92 128 177 224 273 331 405
#
# _framework density 22.081064000000001
#
# number of rings (size 3 to 8) (size 9 to 14) (size 15 to 20)
#    0.000    1.500    1.875    4.875    5.250    0.000 
#    2.250    0.000    4.125    0.000    0.000    0.000 
#    0.000    0.000    0.000    0.000    0.000    0.000 
#
# Total GULP energy -793139.626169 kJ/mol
# GULP energy per Si atom -12392.806659 kJ/mol
# Density = 2.203081 g / cm^3
# Si number density = 22.081064 Si / 1000 Ang^3
#
#
#
# Elastic Constant Matrix: (Units=GPa)
#
#
# Indices 1 2 3 4 5 6 
#
# 1 76.6175 12.5863 12.5861 0.0000 0.0000 0.0000
# 2 12.5863 76.6146 12.5870 0.0000 0.0000 0.0000
# 3 12.5861 12.5870 76.6120 0.0000 0.0000 0.0000
# 4 0.0000 0.0000 0.0000 36.3207 0.0000 0.0000
# 5 0.0000 0.0000 0.0000 0.0000 36.3224 0.0000
# 6 0.0000 0.0000 0.0000 0.0000 0.0000 36.3210
#
#
#
# Elastic Compliance Matrix: (Units=1/GPa)
#
#
# Indices 1 2 3 4 5 6 
#
# 1 0.013686 -0.001931 -0.001931 0.000000 0.000000 0.000000
# 2 -0.001931 0.013687 -0.001931 0.000000 0.000000 0.000000
# 3 -0.001931 -0.001931 0.013687 0.000000 0.000000 0.000000
# 4 0.000000 0.000000 0.000000 0.027533 0.000000 0.000000
# 5 0.000000 0.000000 0.000000 0.000000 0.027531 0.000000
# 6 0.000000 0.000000 0.000000 0.000000 0.000000 0.027532
#
#
# Mechanical properties :
#
#
# Convention : Reuss Voigt Hill
#
# Bulk Modulus (GPa) = 33.92920 33.92920 33.92920
# Shear Modulus (GPa) = 34.46650 34.59848 34.53249
#
# Velocity S-wave (km/s) = 3.95512 3.96268 3.95890
# Velocity P-wave (km/s) = 6.02133 6.02796 6.02464
#
# Compressibility (1/GPa) = 0.02947314
#
# Stress axis : x y z
#
# Youngs Moduli (GPa) = 73.06571 73.06250 73.06010
#
# Poissons Ratio (x) = 0.14109 0.14109
# Poissons Ratio (y) = 0.14110 0.14111
# Poissons Ratio (z) = 0.14110 0.14112
#
# Static dielectric constant tensor:
#      x y z
#    x 4.141530 0.000000 0.000000 
#    y 0.000000 4.141490 0.000000 
#    z 0.000000 0.000000 4.141680 
# 
# 
# High freq. dielectric constant tensor:
#      x y z
#    x 1.861150 0.000000 0.000000 
#    y 0.000000 1.861150 0.000000 
#    z 0.000000 0.000000 1.861150 
# 
# From -- ./inp_files/375.got.cif
#   From: 2010.03.12/outbox.cif.g09.slc.cpg/sg198_cif.got.tgz:375.got - 2010.04.01 12:33:50.
