data_PCOD8330537
_publ_section_title
;
Structure prediction by ZEFSAII (Michael W. Deem and Ramdas Pophale) SiO2 
 PCOD8330537
Probable space group: P 63/M M C
;
_chemical_formula_sum "Si O2"
_cell_formula_units_Z 108
_cell_length_a 27.487844
_cell_length_b 27.487844
_cell_length_c 8.972716
_cell_angle_alpha 90.000000
_cell_angle_beta 90.000000
_cell_angle_gamma 120.000000
_cell_volume 5871.322128
_symmetry_space_group_name_H-M "P 63/M M C"
_symmetry_group_IT_number 194
_symmetry_cell_setting 'hexagonal'
loop_
_space_group_symop_operation_xyz
x,y,z
x-y,x,1/2+z
-y,x-y,z
-x,-y,1/2+z
-x+y,-x,z
y,-x+y,1/2+z
x-y,-y,-z
-x,-x+y,-z
y,x,-z
-y,-x,1/2-z
-x+y,y,1/2-z
x,x-y,1/2-z
-x,-y,-z
-x+y,-x,1/2-z
y,-x+y,-z
x,y,1/2-z
x-y,x,-z
-y,x-y,1/2-z
-x+y,y,z
x,x-y,z
-y,-x,z
y,x,1/2+z
x-y,-y,1/2+z
-x,-x+y,1/2+z
loop_
_atom_site_type_symbol
_atom_site_label
_atom_site_fract_x
_atom_site_fract_y
_atom_site_fract_z
Si Si1 0.883206 0.542025 0.923896
Si Si2 0.227829 0.666738 0.074027
Si Si3 0.769558 0.828844 0.925744
Si Si4 0.470327 0.529674 0.073542
Si Si5 0.717085 0.658974 0.425356
O O1 0.895943 0.557496 0.750000
O O2 0.818002 0.502622 0.961140
O O3 0.911477 0.505807 0.979572
O O4 0.898146 0.597676 0.015525
O O5 0.233041 0.663799 0.250000
O O6 0.211929 0.605965 0.006312
O O7 0.286464 0.713537 0.003667
O O8 0.778560 0.829631 0.750000
O O9 0.778836 0.889418 0.980128
O O10 0.705939 0.780978 0.969070
O O11 0.815014 0.815014 0.000000
O O12 0.472012 0.527989 0.250000
O O13 0.500000 0.500000 0.000000
O O14 0.673550 0.673550 0.500000
O O15 0.708761 0.656626 0.250000
#
# Coordination Sequence:
#
# PCOD8330537 Si02
#       5
#    24  24  24  12  24
#     4  10  19  32  48  70 101 131 166 215 263 310
#     4   9  16  28  47  70  95 124 160 205 257 309
#     4   9  19  36  57  82 113 147 182 221 264 310
#     4  10  20  32  46  64  92 128 162 204 258 310
#     4  10  20  34  52  75 104 139 175 212 256 307
#
# _framework density 18.394494999999999
#
# number of rings (size 3 to 8) (size 9 to 14) (size 15 to 20)
#    0.000    2.444    1.111    1.556    0.000    5.778 
#    0.000    0.000    0.000    0.222    0.000    0.000 
#    0.000    1.778    0.000    0.000    0.000    0.000 
#
# Total GULP energy -1338354.900747 kJ/mol
# GULP energy per Si atom -12392.175007 kJ/mol
# Density = 1.835263 g / cm^3
# Si number density = 18.394495 Si / 1000 Ang^3
#
#
#
# Elastic Constant Matrix: (Units=GPa)
#
#
# Indices 1 2 3 4 5 6 
#
# 1 122.3250 79.0161 33.3672 0.0000 0.0000 0.0000
# 2 79.0161 122.3250 33.3672 0.0000 0.0000 0.0000
# 3 33.3672 33.3672 36.8223 0.0000 0.0000 0.0000
# 4 0.0000 0.0000 0.0000 21.6619 0.0000 0.0000
# 5 0.0000 0.0000 0.0000 0.0000 21.6619 0.0000
# 6 0.0000 0.0000 0.0000 0.0000 0.0000 21.6544
#
#
#
# Elastic Compliance Matrix: (Units=1/GPa)
#
#
# Indices 1 2 3 4 5 6 
#
# 1 0.015094 -0.007996 -0.006433 0.000000 0.000000 0.000000
# 2 -0.007996 0.015094 -0.006433 0.000000 0.000000 0.000000
# 3 -0.006433 -0.006433 0.038816 0.000000 0.000000 0.000000
# 4 0.000000 0.000000 0.000000 0.046164 0.000000 0.000000
# 5 0.000000 0.000000 0.000000 0.000000 0.046164 0.000000
# 6 0.000000 0.000000 0.000000 0.000000 0.000000 0.046180
#
#
# Mechanical properties :
#
#
# Convention : Reuss Voigt Hill
#
# Bulk Modulus (GPa) = 36.65360 63.66371 50.15865
# Shear Modulus (GPa) = 19.35519 22.04375 20.69947
#
# Velocity S-wave (km/s) = 3.24732 3.46553 3.35820
# Velocity P-wave (km/s) = 5.83351 7.12029 6.50878
#
# Compressibility (1/GPa) = 0.02728245
#
# Stress axis : x y z
#
# Youngs Moduli (GPa) = 66.24983 66.24983 25.76278
#
# Poissons Ratio (x) = 0.52970 0.16572
# Poissons Ratio (y) = 0.52970 0.16572
# Poissons Ratio (z) = 0.42617 0.42617
#
# Static dielectric constant tensor:
#      x y z
#    x 3.570510 0.000000 0.000000 
#    y 0.000000 3.570510 0.000000 
#    z 0.000000 0.000000 3.142940 
# 
# 
# High freq. dielectric constant tensor:
#      x y z
#    x 1.715850 0.000000 0.000000 
#    y 0.000000 1.715850 0.000000 
#    z 0.000000 0.000000 1.680220 
# 
# From -- ./inp_files/3200.got.cif
#   From: 2010.03.12/outbox.cif.g09.slc.cpg/sg194_2_cif.got.tgz:3200.got - 2010.04.01 12:26:19.
