data_PCOD8330938
_publ_section_title
;
Structure prediction by ZEFSAII (Michael W. Deem and Ramdas Pophale) SiO2 
 PCOD8330938
Probable space group: I M 3
;
_chemical_formula_sum "Si O2"
_cell_formula_units_Z 312
_cell_length_a 27.159840
_cell_length_b 27.159840
_cell_length_c 27.159840
_cell_angle_alpha 90.000000
_cell_angle_beta 90.000000
_cell_angle_gamma 90.000000
_cell_volume 20034.643619
_symmetry_space_group_name_H-M "I M 3"
_symmetry_group_IT_number 204
_symmetry_cell_setting 'cubic'
loop_
_space_group_symop_operation_xyz
x,y,z
z,x,y
y,z,x
-y,-z,x
z,-x,-y
-y,z,-x
-z,-x,y
-z,x,-y
y,-z,-x
-x,-y,z
x,-y,-z
-x,y,-z
-x,-y,-z
-z,-x,-y
-y,-z,-x
y,z,-x
-z,x,y
y,-z,x
z,x,-y
z,-x,y
-y,z,x
x,y,-z
-x,y,z
x,-y,z
1/2+x,1/2+y,1/2+z
1/2+z,1/2+x,1/2+y
1/2+y,1/2+z,1/2+x
1/2-y,1/2-z,1/2+x
1/2+z,1/2-x,1/2-y
1/2-y,1/2+z,1/2-x
1/2-z,1/2-x,1/2+y
1/2-z,1/2+x,1/2-y
1/2+y,1/2-z,1/2-x
1/2-x,1/2-y,1/2+z
1/2+x,1/2-y,1/2-z
1/2-x,1/2+y,1/2-z
1/2-x,1/2-y,1/2-z
1/2-z,1/2-x,1/2-y
1/2-y,1/2-z,1/2-x
1/2+y,1/2+z,1/2-x
1/2-z,1/2+x,1/2+y
1/2+y,1/2-z,1/2+x
1/2+z,1/2+x,1/2-y
1/2+z,1/2-x,1/2+y
1/2-y,1/2+z,1/2+x
1/2+x,1/2+y,1/2-z
1/2-x,1/2+y,1/2+z
1/2+x,1/2-y,1/2+z
loop_
_atom_site_type_symbol
_atom_site_label
_atom_site_fract_x
_atom_site_fract_y
_atom_site_fract_z
Si Si1 0.218676 0.297097 0.862879
Si Si2 0.785276 0.943433 0.444054
Si Si3 0.057039 0.348665 0.844547
Si Si4 0.863193 0.704820 0.785234
Si Si5 0.443984 0.412559 0.123197
Si Si6 0.055491 0.198177 0.371511
Si Si7 0.052483 0.443022 0.500000
O O1 0.247931 0.247622 0.875612
O O2 0.173313 0.280455 0.829162
O O3 0.252562 0.337450 0.836684
O O4 0.199583 0.321884 0.912749
O O5 0.802005 0.930162 0.500000
O O6 0.829688 0.933034 0.405997
O O7 0.737745 0.911874 0.427575
O O8 0.768591 0.000000 0.440788
O O9 0.085328 0.314055 0.806442
O O10 0.077056 0.337591 0.900174
O O11 0.000000 0.334867 0.840978
O O12 0.500000 0.423666 0.143011
O O13 0.440435 0.356385 0.104495
O O14 0.428629 0.450295 0.080336
O O15 0.000000 0.208875 0.354611
O O16 0.042288 0.500000 0.500000
O O17 0.000000 0.414618 0.500000
#
# Coordination Sequence:
#
# PCOD8330938 Si02
#       7
#    48  48  48  48  48  48  24
#     4  10  19  34  52  69  96 118 153 193 234 285
#     4   9  19  34  48  66  94 125 159 198 242 292
#     4  11  20  32  51  72  96 124 157 194 241 287
#     4  10  20  33  52  72  92 121 153 190 236 284
#     4  10  20  33  50  70  95 127 161 200 243 288
#     4  10  19  32  52  71  92 125 159 194 243 295
#     4   9  18  32  48  70  98 126 166 210 240 275
#
# _framework density 15.573024
#
# number of rings (size 3 to 8) (size 9 to 14) (size 15 to 20)
#    0.000    2.077    3.846    0.308    0.000    3.077 
#    0.000    3.077    0.000    0.000    0.000    0.000 
#    0.000    0.000    0.000    0.000    0.000    0.000 
#
# Total GULP energy -1933389.311682 kJ/mol
# GULP energy per Si atom -12393.521229 kJ/mol
# Density = 1.553758 g / cm^3
# Si number density = 15.573024 Si / 1000 Ang^3
#
#
#
# Elastic Constant Matrix: (Units=GPa)
#
#
# Indices 1 2 3 4 5 6 
#
# 1 83.8580 36.9524 36.9524 0.0000 0.0000 0.0000
# 2 36.9524 83.8580 36.9524 0.0000 0.0000 0.0000
# 3 36.9524 36.9524 83.8580 0.0000 0.0000 0.0000
# 4 0.0000 0.0000 0.0000 18.4421 0.0000 0.0000
# 5 0.0000 0.0000 0.0000 0.0000 18.4421 0.0000
# 6 0.0000 0.0000 0.0000 0.0000 0.0000 18.4421
#
#
#
# Elastic Compliance Matrix: (Units=1/GPa)
#
#
# Indices 1 2 3 4 5 6 
#
# 1 0.016326 -0.004994 -0.004994 0.000000 0.000000 0.000000
# 2 -0.004994 0.016326 -0.004994 0.000000 0.000000 0.000000
# 3 -0.004994 -0.004994 0.016326 0.000000 0.000000 0.000000
# 4 0.000000 0.000000 0.000000 0.054224 0.000000 0.000000
# 5 0.000000 0.000000 0.000000 0.000000 0.054224 0.000000
# 6 0.000000 0.000000 0.000000 0.000000 0.000000 0.054224
#
#
# Mechanical properties :
#
#
# Convention : Reuss Voigt Hill
#
# Bulk Modulus (GPa) = 52.58760 52.58760 52.58760
# Shear Modulus (GPa) = 20.16546 20.44639 20.30593
#
# Velocity S-wave (km/s) = 3.60237 3.62738 3.61490
# Velocity P-wave (km/s) = 7.15154 7.16837 7.15996
#
# Compressibility (1/GPa) = 0.01901589
#
# Stress axis : x y z
#
# Youngs Moduli (GPa) = 61.25269 61.25269 61.25269
#
# Poissons Ratio (x) = 0.30587 0.30587
# Poissons Ratio (y) = 0.30587 0.30587
# Poissons Ratio (z) = 0.30587 0.30587
#
# Static dielectric constant tensor:
#      x y z
#    x 2.966050 0.000000 0.000000 
#    y 0.000000 2.966050 0.000000 
#    z 0.000000 0.000000 2.966050 
# 
# 
# High freq. dielectric constant tensor:
#      x y z
#    x 1.588230 0.000000 0.000000 
#    y 0.000000 1.588230 0.000000 
#    z 0.000000 0.000000 1.588230 
# 
# From -- ./inp_files/661.got.cif
#   From: 2010.03.12/outbox.cif.g09.slc.cpg/sg204_cif.got.tgz:661.got - 2010.03.30 09:02:39.
