data_PCOD8330712
_publ_section_title
;
Structure prediction by ZEFSAII (Michael W. Deem and Ramdas Pophale) SiO2 
 PCOD8330712
Probable space group: P 63/M M C
;
_chemical_formula_sum "Si O2"
_cell_formula_units_Z 126
_cell_length_a 31.149619
_cell_length_b 31.149619
_cell_length_c 7.926050
_cell_angle_alpha 90.000000
_cell_angle_beta 90.000000
_cell_angle_gamma 120.000000
_cell_volume 6660.286595
_symmetry_space_group_name_H-M "P 63/M M C"
_symmetry_group_IT_number 194
_symmetry_cell_setting 'hexagonal'
loop_
_space_group_symop_operation_xyz
x,y,z
x-y,x,1/2+z
-y,x-y,z
-x,-y,1/2+z
-x+y,-x,z
y,-x+y,1/2+z
x-y,-y,-z
-x,-x+y,-z
y,x,-z
-y,-x,1/2-z
-x+y,y,1/2-z
x,x-y,1/2-z
-x,-y,-z
-x+y,-x,1/2-z
y,-x+y,-z
x,y,1/2-z
x-y,x,-z
-y,x-y,1/2-z
-x+y,y,z
x,x-y,z
-y,-x,z
y,x,1/2+z
x-y,-y,1/2+z
-x,-x+y,1/2+z
loop_
_atom_site_type_symbol
_atom_site_label
_atom_site_fract_x
_atom_site_fract_y
_atom_site_fract_z
Si Si1 0.342615 0.471239 0.060400
Si Si2 0.797820 0.946843 0.944522
Si Si3 0.795854 0.492438 0.250000
Si Si4 0.396557 0.793113 0.750000
Si Si5 0.690495 0.796736 0.057807
Si Si6 0.568497 0.136994 0.936509
Si Si7 0.944554 0.311267 0.060401
O O1 0.325199 0.476634 0.250000
O O2 0.402368 0.508828 0.040881
O O3 0.313251 0.483644 0.917507
O O4 0.335094 0.416684 0.047418
O O5 0.784141 0.945686 0.750000
O O6 0.816507 0.908254 0.984635
O O7 0.748699 0.933428 0.049488
O O8 0.842004 0.000000 0.000000
O O9 0.753871 0.507742 0.250000
O O10 0.767648 0.431256 0.250000
O O11 0.410888 0.821775 0.576584
O O12 0.672812 0.783113 0.250000
O O13 0.680624 0.840312 0.990986
O O14 0.660077 0.748162 0.946412
O O15 0.580976 0.161952 0.750000
O O16 0.946300 0.328727 0.250000
O O17 0.000000 0.329370 0.000000
#
# Coordination Sequence:
#
# PCOD8330712 Si02
#       7
#    24  24  12   6  24  12  24
#     4  10  20  38  59  85 115 151 199 244 293 352
#     4  10  20  34  53  77 103 133 171 216 264 319
#     4  10  20  36  58  88 120 158 199 241 299 350
#     4   8  16  32  54  80 114 152 190 234 278 344
#     4  10  21  37  56  78 106 144 186 227 276 334
#     4   8  16  32  59  81 105 145 188 236 282 334
#     4  12  24  39  57  81 114 152 192 240 296 350
#
# _framework density 18.918106000000002
#
# number of rings (size 3 to 8) (size 9 to 14) (size 15 to 20)
#    0.000    1.905    0.952    3.429    0.000    3.429 
#    0.286    0.476    0.000    0.190    0.000    0.000 
#    0.000    0.000    0.000    0.000    0.000    0.000 
#
# Total GULP energy -1561219.422094 kJ/mol
# GULP energy per Si atom -12390.630334 kJ/mol
# Density = 1.887505 g / cm^3
# Si number density = 18.918106 Si / 1000 Ang^3
#
#
#
# Elastic Constant Matrix: (Units=GPa)
#
#
# Indices 1 2 3 4 5 6 
#
# 1 106.7012 68.8691 31.9418 0.0000 0.0000 0.0000
# 2 68.8691 106.7012 31.9418 0.0000 0.0000 0.0000
# 3 31.9418 31.9418 103.2632 0.0000 0.0000 0.0000
# 4 0.0000 0.0000 0.0000 23.8008 0.0000 0.0000
# 5 0.0000 0.0000 0.0000 0.0000 23.8008 0.0000
# 6 0.0000 0.0000 0.0000 0.0000 0.0000 18.9161
#
#
#
# Elastic Compliance Matrix: (Units=1/GPa)
#
#
# Indices 1 2 3 4 5 6 
#
# 1 0.016425 -0.010007 -0.001985 0.000000 0.000000 0.000000
# 2 -0.010007 0.016425 -0.001985 0.000000 0.000000 0.000000
# 3 -0.001985 -0.001985 0.010912 0.000000 0.000000 0.000000
# 4 0.000000 0.000000 0.000000 0.042015 0.000000 0.000000
# 5 0.000000 0.000000 0.000000 0.000000 0.042015 0.000000
# 6 0.000000 0.000000 0.000000 0.000000 0.000000 0.052865
#
#
# Mechanical properties :
#
#
# Convention : Reuss Voigt Hill
#
# Bulk Modulus (GPa) = 63.26202 64.68568 63.97385
# Shear Modulus (GPa) = 23.37721 25.56438 24.47080
#
# Velocity S-wave (km/s) = 3.51907 3.68002 3.60044
# Velocity P-wave (km/s) = 7.07279 7.23349 7.15359
#
# Compressibility (1/GPa) = 0.01580727
#
# Stress axis : x y z
#
# Youngs Moduli (GPa) = 60.88161 60.88161 91.64076
#
# Poissons Ratio (x) = 0.60926 0.18193
# Poissons Ratio (y) = 0.60926 0.18193
# Poissons Ratio (z) = 0.12087 0.12087
#
# Static dielectric constant tensor:
#      x y z
#    x 3.507540 0.000000 0.000000 
#    y 0.000000 3.507540 0.000000 
#    z 0.000000 0.000000 3.685700 
# 
# 
# High freq. dielectric constant tensor:
#      x y z
#    x 1.719100 0.000000 0.000000 
#    y 0.000000 1.719100 0.000000 
#    z 0.000000 0.000000 1.758170 
# 
# From -- ./inp_files/2053.got.cif
#   From: 2010.03.12/outbox.cif.g09.slc.cpg/sg194_2_cif.got.tgz:2053.got - 2010.04.01 12:26:19.
