data_PCOD8330415
_publ_section_title
;
Structure prediction by ZEFSAII (Michael W. Deem and Ramdas Pophale) SiO2 
 PCOD8330415
Probable space group: P 63/M M C
;
_chemical_formula_sum "Si O2"
_cell_formula_units_Z 120
_cell_length_a 18.021548
_cell_length_b 18.021548
_cell_length_c 23.891142
_cell_angle_alpha 90.000000
_cell_angle_beta 90.000000
_cell_angle_gamma 120.000000
_cell_volume 6719.728511
_symmetry_space_group_name_H-M "P 63/M M C"
_symmetry_group_IT_number 194
_symmetry_cell_setting 'hexagonal'
loop_
_space_group_symop_operation_xyz
x,y,z
x-y,x,1/2+z
-y,x-y,z
-x,-y,1/2+z
-x+y,-x,z
y,-x+y,1/2+z
x-y,-y,-z
-x,-x+y,-z
y,x,-z
-y,-x,1/2-z
-x+y,y,1/2-z
x,x-y,1/2-z
-x,-y,-z
-x+y,-x,1/2-z
y,-x+y,-z
x,y,1/2-z
x-y,x,-z
-y,x-y,1/2-z
-x+y,y,z
x,x-y,z
-y,-x,z
y,x,1/2+z
x-y,-y,1/2+z
-x,-x+y,1/2+z
loop_
_atom_site_type_symbol
_atom_site_label
_atom_site_fract_x
_atom_site_fract_y
_atom_site_fract_z
Si Si1 0.367275 0.467092 0.010557
Si Si2 0.503066 0.834518 0.609664
Si Si3 0.587221 0.004082 0.185262
Si Si4 0.000023 0.829313 0.565840
Si Si5 0.907007 0.645566 0.610692
O O1 0.433883 0.566118 0.027716
O O2 0.297804 0.418605 0.058225
O O3 0.421409 0.421409 0.000000
O O4 0.318118 0.462075 0.953532
O O5 0.405196 0.810392 0.611863
O O6 0.509812 0.754906 0.631980
O O7 0.560015 0.911432 0.650927
O O8 0.612018 0.021153 0.250000
O O9 0.487901 0.975802 0.175200
O O10 0.605046 0.931064 0.162444
O O11 0.925398 0.850796 0.581065
O O12 0.983262 0.741548 0.595389
O O13 0.000000 0.814225 0.500000
O O14 0.091353 0.908648 0.585761
O O15 0.825513 0.651026 0.630668
#
# Coordination Sequence:
#
# PCOD8330415 Si02
#       5
#    24  24  24  24  24
#     4  10  18  32  53  78 109 143 174 206 257 322
#     4  10  20  34  55  81 110 141 174 213 258 313
#     4  10  22  40  58  75 100 139 181 217 262 317
#     4   9  18  31  48  73 108 145 176 207 251 306
#     4  11  21  33  53  82 108 134 174 224 268 308
#
# _framework density 17.857863999999999
#
# number of rings (size 3 to 8) (size 9 to 14) (size 15 to 20)
#    0.000    2.000    2.000    2.200    0.000    2.400 
#    0.000    0.000    0.000    5.600    0.000    0.000 
#    0.000    1.600    0.000    0.000    0.000    0.000 
#
# Total GULP energy -1487954.801916 kJ/mol
# GULP energy per Si atom -12399.623349 kJ/mol
# Density = 1.781722 g / cm^3
# Si number density = 17.857864 Si / 1000 Ang^3
#
#
#
# Elastic Constant Matrix: (Units=GPa)
#
#
# Indices 1 2 3 4 5 6 
#
# 1 90.6374 49.4384 37.3982 0.0000 0.0000 0.0000
# 2 49.4384 90.6374 37.3982 0.0000 0.0000 0.0000
# 3 37.3982 37.3982 65.9985 0.0000 0.0000 0.0000
# 4 0.0000 0.0000 0.0000 20.3915 0.0000 0.0000
# 5 0.0000 0.0000 0.0000 0.0000 20.3915 0.0000
# 6 0.0000 0.0000 0.0000 0.0000 0.0000 20.5995
#
#
#
# Elastic Compliance Matrix: (Units=1/GPa)
#
#
# Indices 1 2 3 4 5 6 
#
# 1 0.017254 -0.007018 -0.005800 0.000000 0.000000 0.000000
# 2 -0.007018 0.017254 -0.005800 0.000000 0.000000 0.000000
# 3 -0.005800 -0.005800 0.021725 0.000000 0.000000 0.000000
# 4 0.000000 0.000000 0.000000 0.049040 0.000000 0.000000
# 5 0.000000 0.000000 0.000000 0.000000 0.049040 0.000000
# 6 0.000000 0.000000 0.000000 0.000000 0.000000 0.048545
#
#
# Mechanical properties :
#
#
# Convention : Reuss Voigt Hill
#
# Bulk Modulus (GPa) = 52.64160 55.08256 53.86208
# Shear Modulus (GPa) = 20.28981 20.47905 20.38443
#
# Velocity S-wave (km/s) = 3.37439 3.39009 3.38225
# Velocity P-wave (km/s) = 6.68761 6.79967 6.74387
#
# Compressibility (1/GPa) = 0.01899638
#
# Stress axis : x y z
#
# Youngs Moduli (GPa) = 57.95646 57.95646 46.02893
#
# Poissons Ratio (x) = 0.40674 0.26699
# Poissons Ratio (y) = 0.40674 0.26699
# Poissons Ratio (z) = 0.33617 0.33617
#
# Static dielectric constant tensor:
#      x y z
#    x 3.334390 0.000000 0.000000 
#    y 0.000000 3.334390 0.000000 
#    z 0.000000 0.000000 2.632140 
# 
# 
# High freq. dielectric constant tensor:
#      x y z
#    x 1.694080 0.000000 0.000000 
#    y 0.000000 1.694080 0.000000 
#    z 0.000000 0.000000 1.663450 
# 
# From -- ./inp_files/11878.got.cif
#   From: 2010.03.12/outbox.cif.g09.slc.cpg/sg194_6_cif.got.tgz:11878.got - 2010.04.01 12:26:19.
