data_PCOD8330206
_publ_section_title
;
Structure prediction by ZEFSAII (Michael W. Deem and Ramdas Pophale) SiO2 
 PCOD8330206
Probable space group: P 63/M C M
;
_chemical_formula_sum "Si O2"
_cell_formula_units_Z 120
_cell_length_a 15.326963
_cell_length_b 15.326963
_cell_length_c 29.451482
_cell_angle_alpha 90.000000
_cell_angle_beta 90.000000
_cell_angle_gamma 120.000000
_cell_volume 5991.699209
_symmetry_space_group_name_H-M "P 63/M C M"
_symmetry_group_IT_number 193
_symmetry_cell_setting 'hexagonal'
loop_
_space_group_symop_operation_xyz
x,y,z
x-y,x,1/2+z
-y,x-y,z
-x,-y,1/2+z
-x+y,-x,z
y,-x+y,1/2+z
x-y,-y,1/2-z
-x,-x+y,1/2-z
y,x,1/2-z
-y,-x,-z
-x+y,y,-z
x,x-y,-z
-x,-y,-z
-x+y,-x,1/2-z
y,-x+y,-z
x,y,1/2-z
x-y,x,-z
-y,x-y,1/2-z
-x+y,y,1/2+z
x,x-y,1/2+z
-y,-x,1/2+z
y,x,z
x-y,-y,z
-x,-x+y,z
loop_
_atom_site_type_symbol
_atom_site_label
_atom_site_fract_x
_atom_site_fract_y
_atom_site_fract_z
Si Si1 0.883658 0.388018 0.959242
Si Si2 0.113210 0.810514 0.453501
Si Si3 0.435366 0.881352 0.364528
Si Si4 0.880625 0.586567 0.300764
Si Si5 0.884525 0.649375 0.863035
O O1 0.871035 0.280463 0.969017
O O2 0.832092 0.387073 0.911436
O O3 0.000000 0.474795 0.956671
O O4 0.830862 0.415431 0.000000
O O5 0.127327 0.872674 0.500000
O O6 0.192096 0.874025 0.414017
O O7 0.000000 0.769980 0.434909
O O8 0.476832 0.839818 0.324247
O O9 0.320898 0.853623 0.358646
O O10 0.508116 0.000000 0.366527
O O11 0.835111 0.567879 0.250000
O O12 0.849945 0.658368 0.328563
O O13 0.000000 0.646107 0.298935
O O14 0.000000 0.721851 0.847738
#
# Coordination Sequence:
#
# PCOD8330206 Si02
#       5
#    24  24  24  24  24
#     4   9  16  29  52  77 105 145 190 234 285 345
#     4  11  21  35  57  85 121 166 213 257 308 365
#     4   9  18  35  56  81 112 145 187 238 293 356
#     4  10  21  40  64  86 115 159 203 247 304 366
#     4  11  22  37  61  90 122 159 204 253 304 368
#
# _framework density 20.027708000000001
#
# number of rings (size 3 to 8) (size 9 to 14) (size 15 to 20)
#    0.000    2.000    2.000    2.400    0.000    4.400 
#    1.200    2.000    0.000    9.200    0.000    0.000 
#    0.000    0.000    0.000    0.000    0.000    0.000 
#
# Total GULP energy -1487519.222261 kJ/mol
# GULP energy per Si atom -12395.993519 kJ/mol
# Density = 1.998212 g / cm^3
# Si number density = 20.027708 Si / 1000 Ang^3
#
#
#
# Elastic Constant Matrix: (Units=GPa)
#
#
# Indices 1 2 3 4 5 6 
#
# 1 64.7181 19.9643 30.5456 0.0000 0.0000 0.0000
# 2 19.9643 64.7181 30.5456 0.0000 0.0000 0.0000
# 3 30.5456 30.5456 155.0591 0.0000 0.0000 0.0000
# 4 0.0000 0.0000 0.0000 26.0430 0.0000 0.0000
# 5 0.0000 0.0000 0.0000 0.0000 26.0430 0.0000
# 6 0.0000 0.0000 0.0000 0.0000 0.0000 22.3769
#
#
#
# Elastic Compliance Matrix: (Units=1/GPa)
#
#
# Indices 1 2 3 4 5 6 
#
# 1 0.018055 -0.004290 -0.002712 0.000000 0.000000 0.000000
# 2 -0.004290 0.018055 -0.002712 0.000000 0.000000 0.000000
# 3 -0.002712 -0.002712 0.007517 0.000000 0.000000 0.000000
# 4 0.000000 0.000000 0.000000 0.038398 0.000000 0.000000
# 5 0.000000 0.000000 0.000000 0.000000 0.038398 0.000000
# 6 0.000000 0.000000 0.000000 0.000000 0.000000 0.044689
#
#
# Mechanical properties :
#
#
# Convention : Reuss Voigt Hill
#
# Bulk Modulus (GPa) = 41.32044 49.62291 45.47167
# Shear Modulus (GPa) = 25.95987 28.45523 27.20755
#
# Velocity S-wave (km/s) = 3.60418 3.77343 3.68978
# Velocity P-wave (km/s) = 6.16414 6.61936 6.39580
#
# Compressibility (1/GPa) = 0.02420110
#
# Stress axis : x y z
#
# Youngs Moduli (GPa) = 55.38707 55.38707 133.02303
#
# Poissons Ratio (x) = 0.23759 0.36071
# Poissons Ratio (y) = 0.23759 0.36071
# Poissons Ratio (z) = 0.15019 0.15019
#
# Static dielectric constant tensor:
#      x y z
#    x 3.452310 0.000000 0.000000 
#    y 0.000000 3.452310 0.000000 
#    z 0.000000 0.000000 3.931730 
# 
# 
# High freq. dielectric constant tensor:
#      x y z
#    x 1.762440 0.000000 0.000000 
#    y 0.000000 1.762440 0.000000 
#    z 0.000000 0.000000 1.785930 
# 
# From -- ./inp_files/8923.got.cif
#   From: 2010.03.12/outbox.cif.g09.slc.cpg/sg193_5_cif.got.tgz:8923.got - 2010.04.01 12:20:39.
