data_PCOD8330251
_publ_section_title
;
Structure prediction by ZEFSAII (Michael W. Deem and Ramdas Pophale) SiO2 
 PCOD8330251
Probable space group: P 63/M C M
;
_chemical_formula_sum "Si O2"
_cell_formula_units_Z 168
_cell_length_a 29.433295
_cell_length_b 29.433295
_cell_length_c 14.496217
_cell_angle_alpha 90.000000
_cell_angle_beta 90.000000
_cell_angle_gamma 120.000000
_cell_volume 10875.846758
_symmetry_space_group_name_H-M "P 63/M C M"
_symmetry_group_IT_number 193
_symmetry_cell_setting 'hexagonal'
loop_
_space_group_symop_operation_xyz
x,y,z
x-y,x,1/2+z
-y,x-y,z
-x,-y,1/2+z
-x+y,-x,z
y,-x+y,1/2+z
x-y,-y,1/2-z
-x,-x+y,1/2-z
y,x,1/2-z
-y,-x,-z
-x+y,y,-z
x,x-y,-z
-x,-y,-z
-x+y,-x,1/2-z
y,-x+y,-z
x,y,1/2-z
x-y,x,-z
-y,x-y,1/2-z
-x+y,y,1/2+z
x,x-y,1/2+z
-y,-x,1/2+z
y,x,z
x-y,-y,z
-x,-x+y,z
loop_
_atom_site_type_symbol
_atom_site_label
_atom_site_fract_x
_atom_site_fract_y
_atom_site_fract_z
Si Si1 0.382414 0.242466 0.645425
Si Si2 0.139949 0.757534 0.354575
Si Si3 0.658763 0.716423 0.000000
Si Si4 0.508739 0.855966 0.643035
Si Si5 0.855966 0.347227 0.643035
Si Si6 0.058471 0.609345 1.000000
Si Si7 0.227762 0.562543 0.500000
O O1 0.363825 0.235758 0.750000
O O2 0.381958 0.190979 0.607918
O O3 0.340577 0.251431 0.589775
O O4 0.440915 0.290113 0.632578
O O5 0.128067 0.764242 0.250000
O O6 0.089145 0.748569 0.410225
O O7 0.150802 0.709887 0.367421
O O8 0.710137 0.710137 0.000000
O O9 0.607594 0.659993 0.000000
O O10 0.494463 0.858079 0.750000
O O11 0.519559 0.909545 0.591711
O O12 0.461657 0.806378 0.592565
O O13 0.858079 0.363616 0.750000
O O14 0.909545 0.389985 0.591711
O O15 0.806378 0.344722 0.592565
O O16 0.000000 0.557945 1.000000
O O17 0.276297 0.552593 0.500000
O O18 0.248926 0.624463 0.500000
#
# Coordination Sequence:
#
# PCOD8330251 Si02
#       7
#    24  24  24  24  24  24  24
#     4   9  16  26  42  62  81 104 136 170 202 238
#     4   9  16  26  42  62  81 104 136 170 202 238
#     4   9  16  24  35  55  85 114 134 160 201 243
#     4   9  18  32  50  70  91 115 141 171 206 245
#     4   9  18  32  50  70  91 115 141 171 206 245
#     4   8  15  27  45  72  99 119 140 165 196 238
#     4  11  23  37  52  69  89 111 137 172 215 262
#
# _framework density 15.447072
#
# number of rings (size 3 to 8) (size 9 to 14) (size 15 to 20)
#    0.000    2.857    0.000    2.286    0.000    3.429 
#    0.000    5.714    0.000    8.571    0.000    8.000 
#    0.000    0.000    0.000    0.000    0.000    0.000 
#
# Total GULP energy -2082460.679872 kJ/mol
# GULP energy per Si atom -12395.599285 kJ/mol
# Density = 1.541191 g / cm^3
# Si number density = 15.447072 Si / 1000 Ang^3
#
#
#
# Elastic Constant Matrix: (Units=GPa)
#
#
# Indices 1 2 3 4 5 6 
#
# 1 61.4994 40.1695 38.0600 0.0000 0.0000 0.0000
# 2 40.1695 61.4994 38.0600 0.0000 0.0000 0.0000
# 3 38.0600 38.0600 120.4481 0.0000 0.0000 0.0000
# 4 0.0000 0.0000 0.0000 15.6839 0.0000 0.0000
# 5 0.0000 0.0000 0.0000 0.0000 15.6839 0.0000
# 6 0.0000 0.0000 0.0000 0.0000 0.0000 10.6649
#
#
#
# Elastic Compliance Matrix: (Units=1/GPa)
#
#
# Indices 1 2 3 4 5 6 
#
# 1 0.029883 -0.016999 -0.004071 0.000000 0.000000 0.000000
# 2 -0.016999 0.029883 -0.004071 0.000000 0.000000 0.000000
# 3 -0.004071 -0.004071 0.010875 0.000000 0.000000 0.000000
# 4 0.000000 0.000000 0.000000 0.063760 0.000000 0.000000
# 5 0.000000 0.000000 0.000000 0.000000 0.063760 0.000000
# 6 0.000000 0.000000 0.000000 0.000000 0.000000 0.093765
#
#
# Mechanical properties :
#
#
# Convention : Reuss Voigt Hill
#
# Bulk Modulus (GPa) = 49.11964 52.89178 51.00571
# Shear Modulus (GPa) = 14.32681 16.88369 15.60525
#
# Velocity S-wave (km/s) = 3.04875 3.30965 3.18188
# Velocity P-wave (km/s) = 6.65289 6.99428 6.82572
#
# Compressibility (1/GPa) = 0.02035845
#
# Stress axis : x y z
#
# Youngs Moduli (GPa) = 33.46352 33.46352 91.95242
#
# Poissons Ratio (x) = 0.56886 0.37435
# Poissons Ratio (y) = 0.56886 0.37435
# Poissons Ratio (z) = 0.13624 0.13624
#
# Static dielectric constant tensor:
#      x y z
#    x 2.902810 0.000000 0.000000 
#    y 0.000000 2.902810 0.000000 
#    z 0.000000 0.000000 3.191400 
# 
# 
# High freq. dielectric constant tensor:
#      x y z
#    x 1.563980 0.000000 0.000000 
#    y 0.000000 1.563980 0.000000 
#    z 0.000000 0.000000 1.606630 
# 
# From -- ./inp_files/4402.got.cif
#   From: 2010.03.12/outbox.cif.g09.slc.cpg/sg193_3_cif.got.tgz:4402.got - 2010.04.01 12:20:39.
