data_PCOD8330100
_publ_section_title
;
Structure prediction by ZEFSAII (Michael W. Deem and Ramdas Pophale) SiO2 
 PCOD8330100
Probable space group: P 63/M C M
;
_chemical_formula_sum "Si O2"
_cell_formula_units_Z 144
_cell_length_a 21.264690
_cell_length_b 21.264690
_cell_length_c 18.123164
_cell_angle_alpha 90.000000
_cell_angle_beta 90.000000
_cell_angle_gamma 120.000000
_cell_volume 7097.130058
_symmetry_space_group_name_H-M "P 63/M C M"
_symmetry_group_IT_number 193
_symmetry_cell_setting 'hexagonal'
loop_
_space_group_symop_operation_xyz
x,y,z
x-y,x,1/2+z
-y,x-y,z
-x,-y,1/2+z
-x+y,-x,z
y,-x+y,1/2+z
x-y,-y,1/2-z
-x,-x+y,1/2-z
y,x,1/2-z
-y,-x,-z
-x+y,y,-z
x,x-y,-z
-x,-y,-z
-x+y,-x,1/2-z
y,-x+y,-z
x,y,1/2-z
x-y,x,-z
-y,x-y,1/2-z
-x+y,y,1/2+z
x,x-y,1/2+z
-y,-x,1/2+z
y,x,z
x-y,-y,z
-x,-x+y,z
loop_
_atom_site_type_symbol
_atom_site_label
_atom_site_fract_x
_atom_site_fract_y
_atom_site_fract_z
Si Si1 0.827413 0.747175 0.834460
Si Si2 0.778627 0.469131 0.332987
Si Si3 0.360404 0.565875 0.923122
Si Si4 0.079948 0.687674 0.373773
Si Si5 0.189993 0.916186 0.440603
Si Si6 0.332136 0.918876 0.042346
O O1 0.818968 0.723599 0.750000
O O2 0.817995 0.817995 0.844474
O O3 0.765517 0.680131 0.880574
O O4 0.904001 0.758968 0.864442
O O5 0.744882 0.453662 0.250000
O O6 0.802118 0.410744 0.354187
O O7 0.722013 0.458839 0.398369
O O8 0.851361 0.547675 0.328990
O O9 0.364277 0.493074 0.926288
O O10 0.387130 0.612871 0.000000
O O11 0.084219 0.661826 0.454949
O O12 0.000000 0.630705 0.338720
O O13 0.129396 0.870605 0.500000
O O14 0.249028 0.889793 0.432290
O O15 0.230496 0.000000 0.463931
O O16 0.382536 0.000000 0.072831
#
# Coordination Sequence:
#
# PCOD8330100 Si02
#       6
#    24  24  24  24  24  24
#     4  10  20  35  58  89 123 157 197 244 294 351
#     4  12  26  43  62  89 125 160 200 252 297 346
#     4  12  25  42  65  89 117 162 209 244 293 360
#     4  10  20  38  64  94 122 152 196 249 303 354
#     4  11  21  36  61  89 120 155 195 246 301 355
#     4  10  22  39  63  95 123 149 194 256 307 355
#
# _framework density 20.289891999999998
#
# number of rings (size 3 to 8) (size 9 to 14) (size 15 to 20)
#    0.000    1.167    3.333    3.333    0.000    2.333 
#    0.000    0.833    0.000    6.500    0.000    0.000 
#    0.000    0.000    0.000    0.000    0.000    0.000 
#
# Total GULP energy -1784707.596450 kJ/mol
# GULP energy per Si atom -12393.802753 kJ/mol
# Density = 2.024371 g / cm^3
# Si number density = 20.289892 Si / 1000 Ang^3
#
#
#
# Elastic Constant Matrix: (Units=GPa)
#
#
# Indices 1 2 3 4 5 6 
#
# 1 100.6970 43.2444 37.1677 0.0000 0.0000 0.0000
# 2 43.2444 100.6970 37.1677 0.0000 0.0000 0.0000
# 3 37.1677 37.1677 75.5972 0.0000 0.0000 0.0000
# 4 0.0000 0.0000 0.0000 26.0890 0.0000 0.0000
# 5 0.0000 0.0000 0.0000 0.0000 26.0890 0.0000
# 6 0.0000 0.0000 0.0000 0.0000 0.0000 28.7263
#
#
#
# Elastic Compliance Matrix: (Units=1/GPa)
#
#
# Indices 1 2 3 4 5 6 
#
# 1 0.013359 -0.004047 -0.004578 0.000000 0.000000 0.000000
# 2 -0.004047 0.013359 -0.004578 0.000000 0.000000 0.000000
# 3 -0.004578 -0.004578 0.017730 0.000000 0.000000 0.000000
# 4 0.000000 0.000000 0.000000 0.038330 0.000000 0.000000
# 5 0.000000 0.000000 0.000000 0.000000 0.038330 0.000000
# 6 0.000000 0.000000 0.000000 0.000000 0.000000 0.034811
#
#
# Mechanical properties :
#
#
# Convention : Reuss Voigt Hill
#
# Bulk Modulus (GPa) = 55.43095 56.90565 56.16830
# Shear Modulus (GPa) = 26.54794 26.80829 26.67812
#
# Velocity S-wave (km/s) = 3.62115 3.63886 3.63002
# Velocity P-wave (km/s) = 6.69794 6.76478 6.73145
#
# Compressibility (1/GPa) = 0.01804046
#
# Stress axis : x y z
#
# Youngs Moduli (GPa) = 74.85826 74.85826 56.40272
#
# Poissons Ratio (x) = 0.30296 0.25821
# Poissons Ratio (y) = 0.30296 0.25821
# Poissons Ratio (z) = 0.34270 0.34270
#
# Static dielectric constant tensor:
#      x y z
#    x 3.811400 0.000000 0.000000 
#    y 0.000000 3.811400 0.000000 
#    z 0.000000 0.000000 3.675950 
# 
# 
# High freq. dielectric constant tensor:
#      x y z
#    x 1.788820 0.000000 0.000000 
#    y 0.000000 1.788820 0.000000 
#    z 0.000000 0.000000 1.785380 
# 
# From -- ./inp_files/6557.got.cif
#   From: 2010.03.12/outbox.cif.g09.slc.cpg/sg193_4_cif.got.tgz:6557.got - 2010.04.01 12:20:39.
