data_PCOD8330055
_publ_section_title
;
Structure prediction by ZEFSAII (Michael W. Deem and Ramdas Pophale) SiO2 
 PCOD8330055
Probable space group: P 63/M C M
;
_chemical_formula_sum "Si O2"
_cell_formula_units_Z 144
_cell_length_a 30.338558
_cell_length_b 30.338558
_cell_length_c 8.936512
_cell_angle_alpha 90.000000
_cell_angle_beta 90.000000
_cell_angle_gamma 120.000000
_cell_volume 7123.419883
_symmetry_space_group_name_H-M "P 63/M C M"
_symmetry_group_IT_number 193
_symmetry_cell_setting 'hexagonal'
loop_
_space_group_symop_operation_xyz
x,y,z
x-y,x,1/2+z
-y,x-y,z
-x,-y,1/2+z
-x+y,-x,z
y,-x+y,1/2+z
x-y,-y,1/2-z
-x,-x+y,1/2-z
y,x,1/2-z
-y,-x,-z
-x+y,y,-z
x,x-y,-z
-x,-y,-z
-x+y,-x,1/2-z
y,-x+y,-z
x,y,1/2-z
x-y,x,-z
-y,x-y,1/2-z
-x+y,y,1/2+z
x,x-y,1/2+z
-y,-x,1/2+z
y,x,z
x-y,-y,z
-x,-x+y,z
loop_
_atom_site_type_symbol
_atom_site_label
_atom_site_fract_x
_atom_site_fract_y
_atom_site_fract_z
Si Si1 0.749432 0.691738 0.912121
Si Si2 0.756596 0.335618 0.917393
Si Si3 0.084770 0.676039 0.925600
Si Si4 0.846976 0.788038 0.572073
Si Si5 0.812778 0.534234 0.419108
Si Si6 0.427938 0.486828 0.415430
O O1 0.750271 0.666795 0.750000
O O2 0.731894 0.731894 0.878569
O O3 0.806749 0.728533 0.976108
O O4 0.708160 0.649712 0.023558
O O5 0.739302 0.338438 0.750000
O O6 0.804667 0.326924 0.916545
O O7 0.707803 0.292198 0.000000
O O8 0.777498 0.388749 0.000000
O O9 0.077629 0.666921 0.750000
O O10 0.142313 0.711897 0.972306
O O11 0.063928 0.621133 0.000357
O O12 0.901999 0.803998 0.500000
O O13 0.853137 0.790540 0.750000
O O14 0.826818 0.826818 0.519824
O O15 0.765440 0.530880 0.500000
O O16 0.820156 0.555937 0.250000
O O17 0.458215 0.541786 0.500000
O O18 0.411007 0.495199 0.250000
O O19 0.467604 0.467604 0.395601
#
# Coordination Sequence:
#
# PCOD8330055 Si02
#       6
#    24  24  24  24  24  24
#     4   9  19  37  58  80 111 150 191 238 288 335
#     4  10  20  34  54  76  98 124 157 200 249 306
#     4  12  24  36  55  82 111 145 185 229 280 343
#     4   9  19  36  59  89 124 162 204 249 298 350
#     4  10  22  40  57  74 100 134 172 215 264 317
#     4  10  21  38  59  82 110 144 183 231 286 342
#
# _framework density 20.215009999999999
#
# number of rings (size 3 to 8) (size 9 to 14) (size 15 to 20)
#    0.000    2.000    0.000    4.667    0.000    7.667 
#    0.000    5.000    0.000    0.167    0.000    0.000 
#    0.000    0.000    0.000    0.000    0.000    0.000 
#
# Total GULP energy -1784142.079304 kJ/mol
# GULP energy per Si atom -12389.875551 kJ/mol
# Density = 2.016900 g / cm^3
# Si number density = 20.215010 Si / 1000 Ang^3
#
#
#
# Elastic Constant Matrix: (Units=GPa)
#
#
# Indices 1 2 3 4 5 6 
#
# 1 85.2538 35.6874 39.6126 0.0000 0.0000 0.0000
# 2 35.6874 85.2538 39.6126 0.0000 0.0000 0.0000
# 3 39.6126 39.6126 142.9355 0.0000 0.0000 0.0000
# 4 0.0000 0.0000 0.0000 26.8453 0.0000 0.0000
# 5 0.0000 0.0000 0.0000 0.0000 26.8453 0.0000
# 6 0.0000 0.0000 0.0000 0.0000 0.0000 24.7832
#
#
#
# Elastic Compliance Matrix: (Units=1/GPa)
#
#
# Indices 1 2 3 4 5 6 
#
# 1 0.015139 -0.005036 -0.002800 0.000000 0.000000 0.000000
# 2 -0.005036 0.015139 -0.002800 0.000000 0.000000 0.000000
# 3 -0.002800 -0.002800 0.008548 0.000000 0.000000 0.000000
# 4 0.000000 0.000000 0.000000 0.037251 0.000000 0.000000
# 5 0.000000 0.000000 0.000000 0.000000 0.037251 0.000000
# 6 0.000000 0.000000 0.000000 0.000000 0.000000 0.040350
#
#
# Mechanical properties :
#
#
# Convention : Reuss Voigt Hill
#
# Bulk Modulus (GPa) = 56.96720 60.36316 58.66518
# Shear Modulus (GPa) = 27.65496 28.93010 28.29253
#
# Velocity S-wave (km/s) = 3.70272 3.78712 3.74516
# Velocity P-wave (km/s) = 6.82070 7.00346 6.91268
#
# Compressibility (1/GPa) = 0.01755396
#
# Stress axis : x y z
#
# Youngs Moduli (GPa) = 66.05561 66.05561 116.98630
#
# Poissons Ratio (x) = 0.33267 0.32754
# Poissons Ratio (y) = 0.33267 0.32754
# Poissons Ratio (z) = 0.18494 0.18494
#
# Static dielectric constant tensor:
#      x y z
#    x 3.690850 0.000000 0.000000 
#    y 0.000000 3.690850 0.000000 
#    z 0.000000 0.000000 3.934770 
# 
# 
# High freq. dielectric constant tensor:
#      x y z
#    x 1.781990 0.000000 0.000000 
#    y 0.000000 1.781990 0.000000 
#    z 0.000000 0.000000 1.794340 
# 
# From -- ./inp_files/1489.got.cif
#   From: 2010.03.12/outbox.cif.g09.slc.cpg/sg193_1_cif.got.tgz:1489.got - 2010.04.01 12:20:39.
