data_PCOD8330412
_publ_section_title
;
Structure prediction by ZEFSAII (Michael W. Deem and Ramdas Pophale) SiO2 
 PCOD8330412
Probable space group: P 63/M M C
;
_chemical_formula_sum "Si O2"
_cell_formula_units_Z 168
_cell_length_a 21.223239
_cell_length_b 21.223239
_cell_length_c 23.415176
_cell_angle_alpha 90.000000
_cell_angle_beta 90.000000
_cell_angle_gamma 120.000000
_cell_volume 9133.797687
_symmetry_space_group_name_H-M "P 63/M M C"
_symmetry_group_IT_number 194
_symmetry_cell_setting 'hexagonal'
loop_
_space_group_symop_operation_xyz
x,y,z
x-y,x,1/2+z
-y,x-y,z
-x,-y,1/2+z
-x+y,-x,z
y,-x+y,1/2+z
x-y,-y,-z
-x,-x+y,-z
y,x,-z
-y,-x,1/2-z
-x+y,y,1/2-z
x,x-y,1/2-z
-x,-y,-z
-x+y,-x,1/2-z
y,-x+y,-z
x,y,1/2-z
x-y,x,-z
-y,x-y,1/2-z
-x+y,y,z
x,x-y,z
-y,-x,z
y,x,1/2+z
x-y,-y,1/2+z
-x,-x+y,1/2+z
loop_
_atom_site_type_symbol
_atom_site_label
_atom_site_fract_x
_atom_site_fract_y
_atom_site_fract_z
Si Si1 0.911399 0.574023 0.684324
Si Si2 0.520399 0.334104 0.908488
Si Si3 0.266407 0.384011 0.894124
Si Si4 0.070690 0.607724 0.685211
Si Si5 0.000681 0.142700 0.184963
Si Si6 0.114789 0.377930 0.475528
Si Si7 0.252804 0.970991 0.376185
O O1 0.892113 0.564617 0.750000
O O2 0.844017 0.504091 0.655397
O O3 0.917537 0.649317 0.662934
O O4 0.985958 0.574743 0.670003
O O5 0.536325 0.268163 0.913766
O O6 0.592791 0.407210 0.926839
O O7 0.454193 0.323608 0.948688
O O8 0.194300 0.388599 0.888454
O O9 0.330057 0.451775 0.859798
O O10 0.256732 0.311759 0.864298
O O11 0.288258 0.381226 0.959490
O O12 0.085553 0.638832 0.750000
O O13 0.091717 0.545859 0.678793
O O14 0.996022 0.166807 0.250000
O O15 0.921428 0.078573 0.164741
O O16 0.055705 0.111409 0.182627
O O17 0.033619 0.211516 0.142076
O O18 0.184983 0.369965 0.472210
O O19 0.051953 0.307491 0.441972
#
# Coordination Sequence:
#
# PCOD8330412 Si02
#       7
#    24  24  24  24  24  24  24
#     4   9  18  32  49  70  96 125 160 204 248 291
#     4  10  20  33  49  69  96 130 166 203 242 287
#     4  10  20  33  51  77 105 129 159 206 258 304
#     4   9  18  33  53  75  99 130 165 198 241 301
#     4  10  20  33  50  74 105 140 178 219 261 307
#     4   9  19  34  50  71  99 131 169 210 251 298
#     4  10  18  32  52  74  99 132 169 209 258 309
#
# _framework density 18.393225000000001
#
# number of rings (size 3 to 8) (size 9 to 14) (size 15 to 20)
#    0.000    2.429    0.000    2.429    0.000    3.714 
#    0.000    0.000    0.000    6.286    0.000    0.000 
#    0.000    6.857    0.000    0.000    0.000    0.000 
#
# Total GULP energy -2082824.910219 kJ/mol
# GULP energy per Si atom -12397.767323 kJ/mol
# Density = 1.835136 g / cm^3
# Si number density = 18.393225 Si / 1000 Ang^3
#
#
#
# Elastic Constant Matrix: (Units=GPa)
#
#
# Indices 1 2 3 4 5 6 
#
# 1 84.7962 32.0661 33.5421 0.0000 0.0000 0.0000
# 2 32.0661 84.7962 33.5421 0.0000 0.0000 0.0000
# 3 33.5421 33.5421 79.6376 0.0000 0.0000 0.0000
# 4 0.0000 0.0000 0.0000 25.8043 0.0000 0.0000
# 5 0.0000 0.0000 0.0000 0.0000 25.8043 0.0000
# 6 0.0000 0.0000 0.0000 0.0000 0.0000 26.3651
#
#
#
# Elastic Compliance Matrix: (Units=1/GPa)
#
#
# Indices 1 2 3 4 5 6 
#
# 1 0.015125 -0.003839 -0.004753 0.000000 0.000000 0.000000
# 2 -0.003839 0.015125 -0.004753 0.000000 0.000000 0.000000
# 3 -0.004753 -0.004753 0.016561 0.000000 0.000000 0.000000
# 4 0.000000 0.000000 0.000000 0.038753 0.000000 0.000000
# 5 0.000000 0.000000 0.000000 0.000000 0.038753 0.000000
# 6 0.000000 0.000000 0.000000 0.000000 0.000000 0.037929
#
#
# Mechanical properties :
#
#
# Convention : Reuss Voigt Hill
#
# Bulk Modulus (GPa) = 49.70441 49.72564 49.71503
# Shear Modulus (GPa) = 25.55648 25.60006 25.57827
#
# Velocity S-wave (km/s) = 3.73158 3.73476 3.73317
# Velocity P-wave (km/s) = 6.75634 6.75954 6.75794
#
# Compressibility (1/GPa) = 0.02011894
#
# Stress axis : x y z
#
# Youngs Moduli (GPa) = 66.11523 66.11523 60.38291
#
# Poissons Ratio (x) = 0.25384 0.28702
# Poissons Ratio (y) = 0.25384 0.28702
# Poissons Ratio (z) = 0.31427 0.31427
#
# Static dielectric constant tensor:
#      x y z
#    x 3.268200 0.000000 0.000000 
#    y 0.000000 3.268200 0.000000 
#    z 0.000000 0.000000 3.449700 
# 
# 
# High freq. dielectric constant tensor:
#      x y z
#    x 1.705600 0.000000 0.000000 
#    y 0.000000 1.705600 0.000000 
#    z 0.000000 0.000000 1.709110 
# 
# From -- ./inp_files/9820.got.cif
#   From: 2010.03.12/outbox.cif.g09.slc.cpg/sg194_5_cif.got.tgz:9820.got - 2010.04.01 12:26:19.
