data_PCOD8330467
_publ_section_title
;
Structure prediction by ZEFSAII (Michael W. Deem and Ramdas Pophale) SiO2 
 PCOD8330467
Probable space group: P 63/M M C
;
_chemical_formula_sum "Si O2"
_cell_formula_units_Z 108
_cell_length_a 18.027222
_cell_length_b 18.027222
_cell_length_c 21.089285
_cell_angle_alpha 90.000000
_cell_angle_beta 90.000000
_cell_angle_gamma 120.000000
_cell_volume 5935.401492
_symmetry_space_group_name_H-M "P 63/M M C"
_symmetry_group_IT_number 194
_symmetry_cell_setting 'hexagonal'
loop_
_space_group_symop_operation_xyz
x,y,z
x-y,x,1/2+z
-y,x-y,z
-x,-y,1/2+z
-x+y,-x,z
y,-x+y,1/2+z
x-y,-y,-z
-x,-x+y,-z
y,x,-z
-y,-x,1/2-z
-x+y,y,1/2-z
x,x-y,1/2-z
-x,-y,-z
-x+y,-x,1/2-z
y,-x+y,-z
x,y,1/2-z
x-y,x,-z
-y,x-y,1/2-z
-x+y,y,z
x,x-y,z
-y,-x,z
y,x,1/2+z
x-y,-y,1/2+z
-x,-x+y,1/2+z
loop_
_atom_site_type_symbol
_atom_site_label
_atom_site_fract_x
_atom_site_fract_y
_atom_site_fract_z
Si Si1 0.495824 0.333458 0.023236
Si Si2 0.242757 0.923072 0.176662
Si Si3 0.500641 0.834022 0.378385
Si Si4 0.509085 0.841261 0.750000
Si Si5 0.900556 0.629314 0.132335
O O1 0.519977 0.259989 0.035790
O O2 0.577282 0.422719 0.043465
O O3 0.415145 0.316140 0.066265
O O4 0.470286 0.335277 0.950536
O O5 0.237294 0.941603 0.250000
O O6 0.148028 0.851973 0.151238
O O7 0.307524 0.886828 0.168372
O O8 0.280249 0.011260 0.137972
O O9 0.425671 0.851342 0.356724
O O10 0.465777 0.732888 0.373519
O O11 0.422718 0.845436 0.750000
O O12 0.484615 0.742308 0.750000
O O13 0.564939 0.890350 0.811263
O O14 0.826677 0.653354 0.134904
#
# Coordination Sequence:
#
# PCOD8330467 Si02
#       5
#    24  24  24  12  24
#     4   9  17  30  49  74 105 139 171 201 235 281
#     4  10  21  37  53  70  93 126 166 209 258 303
#     4   9  18  32  50  72 100 135 173 209 243 281
#     4  10  19  30  45  70 104 138 166 190 221 270
#     4  10  20  34  52  74  98 127 163 201 247 303
#
# _framework density 18.195905
#
# number of rings (size 3 to 8) (size 9 to 14) (size 15 to 20)
#    0.000    2.444    1.111    1.222    0.000    4.889 
#    0.000    4.444    0.000    1.778    0.000    0.000 
#    0.000    0.000    0.000   11.111    0.000    2.667 
#
# Total GULP energy -1339194.400455 kJ/mol
# GULP energy per Si atom -12399.948152 kJ/mol
# Density = 1.815449 g / cm^3
# Si number density = 18.195905 Si / 1000 Ang^3
#
#
#
# Elastic Constant Matrix: (Units=GPa)
#
#
# Indices 1 2 3 4 5 6 
#
# 1 80.7679 43.7672 8.2731 0.0000 0.0000 0.0000
# 2 43.7672 80.7679 8.2731 0.0000 0.0000 0.0000
# 3 8.2731 8.2731 20.9715 0.0000 0.0000 0.0000
# 4 0.0000 0.0000 0.0000 22.9580 0.0000 0.0000
# 5 0.0000 0.0000 0.0000 0.0000 22.9580 0.0000
# 6 0.0000 0.0000 0.0000 0.0000 0.0000 18.5003
#
#
#
# Elastic Compliance Matrix: (Units=1/GPa)
#
#
# Indices 1 2 3 4 5 6 
#
# 1 0.017750 -0.009276 -0.003343 0.000000 0.000000 0.000000
# 2 -0.009276 0.017750 -0.003343 0.000000 0.000000 0.000000
# 3 -0.003343 -0.003343 0.050321 0.000000 0.000000 0.000000
# 4 0.000000 0.000000 0.000000 0.043558 0.000000 0.000000
# 5 0.000000 0.000000 0.000000 0.000000 0.043558 0.000000
# 6 0.000000 0.000000 0.000000 0.000000 0.000000 0.054053
#
#
# Mechanical properties :
#
#
# Convention : Reuss Voigt Hill
#
# Bulk Modulus (GPa) = 18.55372 33.68159 26.11765
# Shear Modulus (GPa) = 18.05832 21.02953 19.54392
#
# Velocity S-wave (km/s) = 3.15372 3.40329 3.28088
# Velocity P-wave (km/s) = 4.84562 5.83043 5.36069
#
# Compressibility (1/GPa) = 0.05389756
#
# Stress axis : x y z
#
# Youngs Moduli (GPa) = 56.33714 56.33714 19.87229
#
# Poissons Ratio (x) = 0.52260 0.06643
# Poissons Ratio (y) = 0.52260 0.06643
# Poissons Ratio (z) = 0.18833 0.18833
#
# Static dielectric constant tensor:
#      x y z
#    x 3.253660 0.000000 0.000000 
#    y 0.000000 3.253660 0.000000 
#    z 0.000000 0.000000 3.401620 
# 
# 
# High freq. dielectric constant tensor:
#      x y z
#    x 1.688450 0.000000 0.000000 
#    y 0.000000 1.688450 0.000000 
#    z 0.000000 0.000000 1.706330 
# 
# From -- ./inp_files/7912.got.cif
#   From: 2010.03.12/outbox.cif.g09.slc.cpg/sg194_4_cif.got.tgz:7912.got - 2010.04.01 12:26:19.
