data_PCOD8330313
_publ_section_title
;
Structure prediction by ZEFSAII (Michael W. Deem and Ramdas Pophale) SiO2 
 PCOD8330313
Probable space group: P 63/M M C
;
_chemical_formula_sum "Si O2"
_cell_formula_units_Z 132
_cell_length_a 24.595993
_cell_length_b 24.595993
_cell_length_c 14.576817
_cell_angle_alpha 90.000000
_cell_angle_beta 90.000000
_cell_angle_gamma 120.000000
_cell_volume 7636.987062
_symmetry_space_group_name_H-M "P 63/M M C"
_symmetry_group_IT_number 194
_symmetry_cell_setting 'hexagonal'
loop_
_space_group_symop_operation_xyz
x,y,z
x-y,x,1/2+z
-y,x-y,z
-x,-y,1/2+z
-x+y,-x,z
y,-x+y,1/2+z
x-y,-y,-z
-x,-x+y,-z
y,x,-z
-y,-x,1/2-z
-x+y,y,1/2-z
x,x-y,1/2-z
-x,-y,-z
-x+y,-x,1/2-z
y,-x+y,-z
x,y,1/2-z
x-y,x,-z
-y,x-y,1/2-z
-x+y,y,z
x,x-y,z
-y,-x,z
y,x,1/2+z
x-y,-y,1/2+z
-x,-x+y,1/2+z
loop_
_atom_site_type_symbol
_atom_site_label
_atom_site_fract_x
_atom_site_fract_y
_atom_site_fract_z
Si Si1 0.604673 0.865205 0.444192
Si Si2 0.338956 0.106026 0.250000
Si Si3 0.063087 0.813570 0.055098
Si Si4 0.672406 0.112346 0.377762
Si Si5 0.571537 0.016256 0.250000
Si Si6 0.089553 0.397454 0.250000
Si Si7 0.331860 0.540176 0.750000
Si Si8 0.251443 0.228421 0.750000
O O1 0.590356 0.795178 0.465368
O O2 0.677740 0.915062 0.460461
O O3 0.563756 0.883238 0.512244
O O4 0.583618 0.867012 0.340223
O O5 0.340575 0.170288 0.250000
O O6 0.373933 0.102241 0.159473
O O7 0.266257 0.052401 0.250000
O O8 0.117491 0.882510 0.023590
O O9 0.050265 0.816509 0.162593
O O10 0.000000 0.794505 0.000000
O O11 0.606773 0.054345 0.342498
O O12 0.678275 0.176588 0.340156
O O13 0.501995 0.003989 0.250000
O O14 0.565914 0.948801 0.250000
O O15 0.040923 0.323777 0.250000
O O16 0.401158 0.598843 0.750000
O O17 0.281928 0.563856 0.750000
#
# Coordination Sequence:
#
# PCOD8330313 Si02
#       8
#    24  12  24  24  12  12  12  12
#     4  10  20  33  53  78 102 132 172 215 263 312
#     4  10  17  27  47  78 104 127 160 207 261 308
#     4  10  21  33  50  73 103 131 164 208 253 307
#     4  10  18  32  51  73 101 137 168 211 255 306
#     4  10  21  37  51  76 108 145 183 214 256 320
#     4  10  20  35  51  69 102 143 172 213 249 300
#     4  10  19  32  50  74 102 130 161 204 256 310
#     4  10  18  33  49  71  99 133 167 198 257 302
#
# _framework density 17.284303000000001
#
# number of rings (size 3 to 8) (size 9 to 14) (size 15 to 20)
#    0.000    2.182    1.818    5.000    2.545    4.364 
#    0.000    2.727    0.000    0.182    0.000    0.000 
#    0.000    0.000    0.000    2.182    0.000    0.000 
#
# Total GULP energy -1636678.571835 kJ/mol
# GULP energy per Si atom -12399.080090 kJ/mol
# Density = 1.724496 g / cm^3
# Si number density = 17.284303 Si / 1000 Ang^3
#
#
#
# Elastic Constant Matrix: (Units=GPa)
#
#
# Indices 1 2 3 4 5 6 
#
# 1 77.7981 31.0867 34.2145 0.0000 0.0000 0.0000
# 2 31.0867 77.7981 34.2145 0.0000 0.0000 0.0000
# 3 34.2145 34.2145 128.5881 0.0000 0.0000 0.0000
# 4 0.0000 0.0000 0.0000 9.8530 0.0000 0.0000
# 5 0.0000 0.0000 0.0000 0.0000 9.8530 0.0000
# 6 0.0000 0.0000 0.0000 0.0000 0.0000 23.3557
#
#
#
# Elastic Compliance Matrix: (Units=1/GPa)
#
#
# Indices 1 2 3 4 5 6 
#
# 1 0.016218 -0.005190 -0.002934 0.000000 0.000000 0.000000
# 2 -0.005190 0.016218 -0.002934 0.000000 0.000000 0.000000
# 3 -0.002934 -0.002934 0.009338 0.000000 0.000000 0.000000
# 4 0.000000 0.000000 0.000000 0.101492 0.000000 0.000000
# 5 0.000000 0.000000 0.000000 0.000000 0.101492 0.000000
# 6 0.000000 0.000000 0.000000 0.000000 0.000000 0.042816
#
#
# Mechanical properties :
#
#
# Convention : Reuss Voigt Hill
#
# Bulk Modulus (GPa) = 50.87204 53.69063 52.28134
# Shear Modulus (GPa) = 15.81058 20.92359 18.36708
#
# Velocity S-wave (km/s) = 3.02774 3.48308 3.26336
# Velocity P-wave (km/s) = 6.45905 6.87797 6.67180
#
# Compressibility (1/GPa) = 0.01965716
#
# Stress axis : x y z
#
# Youngs Moduli (GPa) = 61.65961 61.65961 107.08582
#
# Poissons Ratio (x) = 0.32001 0.31423
# Poissons Ratio (y) = 0.32001 0.31423
# Poissons Ratio (z) = 0.18093 0.18093
#
# Static dielectric constant tensor:
#      x y z
#    x 3.033030 0.000000 0.000000 
#    y 0.000000 3.033030 0.000000 
#    z 0.000000 0.000000 3.276660 
# 
# 
# High freq. dielectric constant tensor:
#      x y z
#    x 1.646400 0.000000 0.000000 
#    y 0.000000 1.646400 0.000000 
#    z 0.000000 0.000000 1.668100 
# 
# From -- ./inp_files/5342.got.cif
#   From: 2010.03.12/outbox.cif.g09.slc.cpg/sg194_3_cif.got.tgz:5342.got - 2010.04.01 12:26:19.
