data_PCOD8330687
_publ_section_title
;
Structure prediction by ZEFSAII (Michael W. Deem and Ramdas Pophale) SiO2 
 PCOD8330687
Probable space group: P 63/M M C
;
_chemical_formula_sum "Si O2"
_cell_formula_units_Z 144
_cell_length_a 31.602442
_cell_length_b 31.602442
_cell_length_c 9.041211
_cell_angle_alpha 90.000000
_cell_angle_beta 90.000000
_cell_angle_gamma 120.000000
_cell_volume 7819.851797
_symmetry_space_group_name_H-M "P 63/M M C"
_symmetry_group_IT_number 194
_symmetry_cell_setting 'hexagonal'
loop_
_space_group_symop_operation_xyz
x,y,z
x-y,x,1/2+z
-y,x-y,z
-x,-y,1/2+z
-x+y,-x,z
y,-x+y,1/2+z
x-y,-y,-z
-x,-x+y,-z
y,x,-z
-y,-x,1/2-z
-x+y,y,1/2-z
x,x-y,1/2-z
-x,-y,-z
-x+y,-x,1/2-z
y,-x+y,-z
x,y,1/2-z
x-y,x,-z
-y,x-y,1/2-z
-x+y,y,z
x,x-y,z
-y,-x,z
y,x,1/2+z
x-y,-y,1/2+z
-x,-x+y,1/2+z
loop_
_atom_site_type_symbol
_atom_site_label
_atom_site_fract_x
_atom_site_fract_y
_atom_site_fract_z
Si Si1 0.345155 0.858391 0.074166
Si Si2 0.290019 0.195237 0.914113
Si Si3 0.047234 0.573587 0.915846
Si Si4 0.848845 0.603542 0.925898
Si Si5 0.764389 0.333381 0.420277
Si Si6 0.194237 0.048475 0.076932
O O1 0.349430 0.862091 0.250000
O O2 0.297034 0.858463 0.014570
O O3 0.391425 0.904310 0.005063
O O4 0.343479 0.809190 0.024200
O O5 0.279166 0.208147 0.750000
O O6 0.292417 0.146209 0.905639
O O7 0.343150 0.237023 0.974108
O O8 0.247212 0.188827 0.023239
O O9 0.049443 0.593783 0.750000
O O10 0.042500 0.521250 0.906835
O O11 0.000000 0.569111 0.000000
O O12 0.845573 0.602337 0.750000
O O13 0.797339 0.594678 0.991906
O O14 0.779025 0.332612 0.250000
O O15 0.750887 0.375444 0.446081
O O16 0.717710 0.282291 0.466325
O O17 0.190880 0.040209 0.250000
O O18 0.185876 0.092938 0.031023
O O19 0.151781 0.000000 0.000000
#
# Coordination Sequence:
#
# PCOD8330687 Si02
#       6
#    24  24  24  24  24  24
#     4  11  21  33  53  81 110 138 171 213 262 320
#     4   8  14  28  50  71  93 126 165 201 239 285
#     4  10  21  38  58  77  98 126 163 208 257 310
#     4   8  15  29  49  73 102 136 171 206 248 299
#     4  10  21  37  55  75 103 142 187 232 277 324
#     4  10  20  33  51  77 106 135 171 214 256 300
#
# _framework density 18.414670000000001
#
# number of rings (size 3 to 8) (size 9 to 14) (size 15 to 20)
#    0.000    2.500    0.000    3.667    0.000    6.000 
#    0.000    2.500    0.000    5.167    0.000    0.000 
#    0.000    0.000    0.000    0.000    0.000    0.000 
#
# Total GULP energy -1785332.271213 kJ/mol
# GULP energy per Si atom -12398.140772 kJ/mol
# Density = 1.837276 g / cm^3
# Si number density = 18.414670 Si / 1000 Ang^3
#
#
#
# Elastic Constant Matrix: (Units=GPa)
#
#
# Indices 1 2 3 4 5 6 
#
# 1 86.0159 34.5577 41.8802 0.0000 0.0000 0.0000
# 2 34.5577 86.0159 41.8802 0.0000 0.0000 0.0000
# 3 41.8802 41.8802 86.2440 0.0000 0.0000 0.0000
# 4 0.0000 0.0000 0.0000 23.5784 0.0000 0.0000
# 5 0.0000 0.0000 0.0000 0.0000 23.5784 0.0000
# 6 0.0000 0.0000 0.0000 0.0000 0.0000 25.7291
#
#
#
# Elastic Compliance Matrix: (Units=1/GPa)
#
#
# Indices 1 2 3 4 5 6 
#
# 1 0.015974 -0.003459 -0.006078 0.000000 0.000000 0.000000
# 2 -0.003459 0.015974 -0.006078 0.000000 0.000000 0.000000
# 3 -0.006078 -0.006078 0.017498 0.000000 0.000000 0.000000
# 4 0.000000 0.000000 0.000000 0.042412 0.000000 0.000000
# 5 0.000000 0.000000 0.000000 0.000000 0.042412 0.000000
# 6 0.000000 0.000000 0.000000 0.000000 0.000000 0.038867
#
#
# Mechanical properties :
#
#
# Convention : Reuss Voigt Hill
#
# Bulk Modulus (GPa) = 54.88930 54.99022 54.93976
# Shear Modulus (GPa) = 23.76001 23.90767 23.83384
#
# Velocity S-wave (km/s) = 3.59594 3.60710 3.60152
# Velocity P-wave (km/s) = 6.86390 6.87570 6.86980
#
# Compressibility (1/GPa) = 0.01821849
#
# Stress axis : x y z
#
# Youngs Moduli (GPa) = 62.59979 62.59979 57.15057
#
# Poissons Ratio (x) = 0.21652 0.34734
# Poissons Ratio (y) = 0.21652 0.34734
# Poissons Ratio (z) = 0.38046 0.38046
#
# Static dielectric constant tensor:
#      x y z
#    x 3.463050 0.000000 0.000000 
#    y 0.000000 3.463050 0.000000 
#    z 0.000000 0.000000 3.344740 
# 
# 
# High freq. dielectric constant tensor:
#      x y z
#    x 1.708050 0.000000 0.000000 
#    y 0.000000 1.708050 0.000000 
#    z 0.000000 0.000000 1.704100 
# 
# From -- ./inp_files/2145.got.cif
#   From: 2010.03.12/outbox.cif.g09.slc.cpg/sg194_2_cif.got.tgz:2145.got - 2010.04.01 12:26:19.
