data_PCOD8330155
_publ_section_title
;
Structure prediction by ZEFSAII (Michael W. Deem and Ramdas Pophale) SiO2 
 PCOD8330155
Probable space group: P 63/M C M
;
_chemical_formula_sum "Si O2"
_cell_formula_units_Z 96
_cell_length_a 14.464217
_cell_length_b 14.464217
_cell_length_c 24.846628
_cell_angle_alpha 90.000000
_cell_angle_beta 90.000000
_cell_angle_gamma 120.000000
_cell_volume 4501.818141
_symmetry_space_group_name_H-M "P 63/M C M"
_symmetry_group_IT_number 193
_symmetry_cell_setting 'hexagonal'
loop_
_space_group_symop_operation_xyz
x,y,z
x-y,x,1/2+z
-y,x-y,z
-x,-y,1/2+z
-x+y,-x,z
y,-x+y,1/2+z
x-y,-y,1/2-z
-x,-x+y,1/2-z
y,x,1/2-z
-y,-x,-z
-x+y,y,-z
x,x-y,-z
-x,-y,-z
-x+y,-x,1/2-z
y,-x+y,-z
x,y,1/2-z
x-y,x,-z
-y,x-y,1/2-z
-x+y,y,1/2+z
x,x-y,1/2+z
-y,-x,1/2+z
y,x,z
x-y,-y,z
-x,-x+y,z
loop_
_atom_site_type_symbol
_atom_site_label
_atom_site_fract_x
_atom_site_fract_y
_atom_site_fract_z
Si Si1 0.120682 0.603133 0.359837
Si Si2 0.550487 0.731880 0.189306
Si Si3 0.121220 0.880192 0.633359
Si Si4 0.727663 0.119902 0.043285
O O1 0.135169 0.500665 0.353354
O O2 0.197784 0.691318 0.317282
O O3 0.146597 0.650022 0.420715
O O4 0.000000 0.572749 0.346252
O O5 0.533796 0.687635 0.250000
O O6 0.676111 0.802945 0.178069
O O7 0.179718 0.876792 0.579626
O O8 0.000000 0.842666 0.618544
O O9 0.177199 0.000000 0.656783
O O10 0.657707 0.000000 0.017879
O O11 0.785721 0.214280 0.000000
#
# Coordination Sequence:
#
# PCOD8330155 Si02
#       4
#    24  24  24  24
#     4  10  22  39  59  87 120 151 191 244 296 347
#     4  11  22  37  59  85 114 153 199 244 293 348
#     4  10  21  36  55  82 117 156 198 242 288 340
#     4   9  18  35  60  88 119 154 192 237 290 348
#
# _framework density 21.324718000000001
#
# number of rings (size 3 to 8) (size 9 to 14) (size 15 to 20)
#    0.000    2.000    0.000    5.250    0.000    5.000 
#    0.000    5.000    0.000   19.000    0.000    0.000 
#    0.000    1.000    0.000    0.000    0.000    0.000 
#
# Total GULP energy -1190332.003467 kJ/mol
# GULP energy per Si atom -12399.291703 kJ/mol
# Density = 2.127618 g / cm^3
# Si number density = 21.324718 Si / 1000 Ang^3
#
#
#
# Elastic Constant Matrix: (Units=GPa)
#
#
# Indices 1 2 3 4 5 6 
#
# 1 124.7410 52.3396 53.2299 0.0000 0.0000 0.0000
# 2 52.3396 124.7410 53.2299 0.0000 0.0000 0.0000
# 3 53.2299 53.2299 105.5438 0.0000 0.0000 0.0000
# 4 0.0000 0.0000 0.0000 23.4150 0.0000 0.0000
# 5 0.0000 0.0000 0.0000 0.0000 23.4150 0.0000
# 6 0.0000 0.0000 0.0000 0.0000 0.0000 36.2007
#
#
#
# Elastic Compliance Matrix: (Units=1/GPa)
#
#
# Indices 1 2 3 4 5 6 
#
# 1 0.010958 -0.002854 -0.004087 0.000000 0.000000 0.000000
# 2 -0.002854 0.010958 -0.004087 0.000000 0.000000 0.000000
# 3 -0.004087 -0.004087 0.013598 0.000000 0.000000 0.000000
# 4 0.000000 0.000000 0.000000 0.042708 0.000000 0.000000
# 5 0.000000 0.000000 0.000000 0.000000 0.042708 0.000000
# 6 0.000000 0.000000 0.000000 0.000000 0.000000 0.027624
#
#
# Mechanical properties :
#
#
# Convention : Reuss Voigt Hill
#
# Bulk Modulus (GPa) = 74.31110 74.73608 74.52359
# Shear Modulus (GPa) = 28.55579 29.68789 29.12184
#
# Velocity S-wave (km/s) = 3.66333 3.73524 3.69946
# Velocity P-wave (km/s) = 7.26749 7.32977 7.29869
#
# Compressibility (1/GPa) = 0.01345694
#
# Stress axis : x y z
#
# Youngs Moduli (GPa) = 91.25604 91.25604 73.54226
#
# Poissons Ratio (x) = 0.26042 0.30060
# Poissons Ratio (y) = 0.26042 0.30060
# Poissons Ratio (z) = 0.37300 0.37300
#
# Static dielectric constant tensor:
#      x y z
#    x 3.968940 0.000000 0.000000 
#    y 0.000000 3.968940 0.000000 
#    z 0.000000 0.000000 3.461790 
# 
# 
# High freq. dielectric constant tensor:
#      x y z
#    x 1.844260 0.000000 0.000000 
#    y 0.000000 1.844260 0.000000 
#    z 0.000000 0.000000 1.805820 
# 
# From -- ./inp_files/8084.got.cif
#   From: 2010.03.12/outbox.cif.g09.slc.cpg/sg193_5_cif.got.tgz:8084.got - 2010.04.01 12:20:39.
