data_PCOD8330271
_publ_section_title
;
Structure prediction by ZEFSAII (Michael W. Deem and Ramdas Pophale) SiO2 
 PCOD8330271
Probable space group: P 63/M C M
;
_chemical_formula_sum "Si O2"
_cell_formula_units_Z 120
_cell_length_a 21.307670
_cell_length_b 21.307670
_cell_length_c 18.247860
_cell_angle_alpha 90.000000
_cell_angle_beta 90.000000
_cell_angle_gamma 120.000000
_cell_volume 7174.877593
_symmetry_space_group_name_H-M "P 63/M C M"
_symmetry_group_IT_number 193
_symmetry_cell_setting 'hexagonal'
loop_
_space_group_symop_operation_xyz
x,y,z
x-y,x,1/2+z
-y,x-y,z
-x,-y,1/2+z
-x+y,-x,z
y,-x+y,1/2+z
x-y,-y,1/2-z
-x,-x+y,1/2-z
y,x,1/2-z
-y,-x,-z
-x+y,y,-z
x,x-y,-z
-x,-y,-z
-x+y,-x,1/2-z
y,-x+y,-z
x,y,1/2-z
x-y,x,-z
-y,x-y,1/2-z
-x+y,y,1/2+z
x,x-y,1/2+z
-y,-x,1/2+z
y,x,z
x-y,-y,z
-x,-x+y,z
loop_
_atom_site_type_symbol
_atom_site_label
_atom_site_fract_x
_atom_site_fract_y
_atom_site_fract_z
Si Si1 0.689309 0.214582 0.833170
Si Si2 0.464077 0.640511 0.662057
Si Si3 0.215021 0.295531 0.975585
Si Si4 0.084212 0.702140 0.108537
Si Si5 0.638811 0.847983 0.668645
O O1 0.678262 0.229990 0.750000
O O2 0.747542 0.292217 0.866486
O O3 0.608374 0.177559 0.867188
O O4 0.720778 0.160957 0.840614
O O5 0.477337 0.643090 0.750000
O O6 0.533097 0.644001 0.620740
O O7 0.230222 0.230222 0.988941
O O8 0.221982 0.313059 0.889681
O O9 0.270910 0.365824 0.023707
O O10 0.134115 0.772538 0.158036
O O11 0.000000 0.665836 0.132197
O O12 0.733874 0.866937 0.500000
O O13 0.669034 0.876494 0.750000
#
# Coordination Sequence:
#
# PCOD8330271 Si02
#       5
#    24  24  24  24  24
#     4   8  14  24  38  59  85 114 151 192 230 264
#     4   9  15  24  41  62  86 118 155 193 229 268
#     4   9  18  33  51  69  91 118 145 174 212 259
#     4   9  17  29  45  66  91 118 148 183 223 263
#     4   9  17  29  46  67  90 116 146 182 222 263
#
# _framework density 16.725023
#
# number of rings (size 3 to 8) (size 9 to 14) (size 15 to 20)
#    0.000    3.200    0.000    2.200    0.000    3.600 
#    0.000    2.000    0.000    6.200    0.000    2.800 
#    0.000    0.000    0.000    0.600    0.000    0.000 
#
# Total GULP energy -1486834.301449 kJ/mol
# GULP energy per Si atom -12390.285845 kJ/mol
# Density = 1.668696 g / cm^3
# Si number density = 16.725023 Si / 1000 Ang^3
#
#
#
# Elastic Constant Matrix: (Units=GPa)
#
#
# Indices 1 2 3 4 5 6 
#
# 1 89.5043 54.3226 37.5187 0.0000 0.0000 0.0000
# 2 54.3226 89.5043 37.5187 0.0000 0.0000 0.0000
# 3 37.5187 37.5187 89.7040 0.0000 0.0000 0.0000
# 4 0.0000 0.0000 0.0000 16.0906 0.0000 0.0000
# 5 0.0000 0.0000 0.0000 0.0000 16.0906 0.0000
# 6 0.0000 0.0000 0.0000 0.0000 0.0000 17.5908
#
#
#
# Elastic Compliance Matrix: (Units=1/GPa)
#
#
# Indices 1 2 3 4 5 6 
#
# 1 0.018659 -0.009765 -0.003720 0.000000 0.000000 0.000000
# 2 -0.009765 0.018659 -0.003720 0.000000 0.000000 0.000000
# 3 -0.003720 -0.003720 0.014259 0.000000 0.000000 0.000000
# 4 0.000000 0.000000 0.000000 0.062148 0.000000 0.000000
# 5 0.000000 0.000000 0.000000 0.000000 0.062148 0.000000
# 6 0.000000 0.000000 0.000000 0.000000 0.000000 0.056848
#
#
# Mechanical properties :
#
#
# Convention : Reuss Voigt Hill
#
# Bulk Modulus (GPa) = 58.24980 58.60361 58.42670
# Shear Modulus (GPa) = 18.32492 19.24456 18.78474
#
# Velocity S-wave (km/s) = 3.31366 3.39580 3.35498
# Velocity P-wave (km/s) = 7.03875 7.10569 7.07230
#
# Compressibility (1/GPa) = 0.01716744
#
# Stress axis : x y z
#
# Youngs Moduli (GPa) = 53.59443 53.59443 70.12971
#
# Poissons Ratio (x) = 0.52336 0.26086
# Poissons Ratio (y) = 0.52336 0.26086
# Poissons Ratio (z) = 0.19935 0.19935
#
# Static dielectric constant tensor:
#      x y z
#    x 3.040880 0.000000 0.000000 
#    y 0.000000 3.040880 0.000000 
#    z 0.000000 0.000000 3.063550 
# 
# 
# High freq. dielectric constant tensor:
#      x y z
#    x 1.627770 0.000000 0.000000 
#    y 0.000000 1.627770 0.000000 
#    z 0.000000 0.000000 1.626620 
# 
# From -- ./inp_files/4039.got.cif
#   From: 2010.03.12/outbox.cif.g09.slc.cpg/sg193_3_cif.got.tgz:4039.got - 2010.04.01 12:20:39.
