data_PCOD8330414
_publ_section_title
;
Structure prediction by ZEFSAII (Michael W. Deem and Ramdas Pophale) SiO2 
 PCOD8330414
Probable space group: P 63/M M C
;
_chemical_formula_sum "Si O2"
_cell_formula_units_Z 168
_cell_length_a 22.044124
_cell_length_b 22.044124
_cell_length_c 23.739758
_cell_angle_alpha 90.000000
_cell_angle_beta 90.000000
_cell_angle_gamma 120.000000
_cell_volume 9990.623892
_symmetry_space_group_name_H-M "P 63/M M C"
_symmetry_group_IT_number 194
_symmetry_cell_setting 'hexagonal'
loop_
_space_group_symop_operation_xyz
x,y,z
x-y,x,1/2+z
-y,x-y,z
-x,-y,1/2+z
-x+y,-x,z
y,-x+y,1/2+z
x-y,-y,-z
-x,-x+y,-z
y,x,-z
-y,-x,1/2-z
-x+y,y,1/2-z
x,x-y,1/2-z
-x,-y,-z
-x+y,-x,1/2-z
y,-x+y,-z
x,y,1/2-z
x-y,x,-z
-y,x-y,1/2-z
-x+y,y,z
x,x-y,z
-y,-x,z
y,x,1/2+z
x-y,-y,1/2+z
-x,-x+y,1/2+z
loop_
_atom_site_type_symbol
_atom_site_label
_atom_site_fract_x
_atom_site_fract_y
_atom_site_fract_z
Si Si1 0.739328 0.119125 0.885633
Si Si2 0.997486 0.721381 0.183753
Si Si3 0.708937 0.922891 0.005234
Si Si4 0.861896 0.000083 0.682994
Si Si5 0.528123 0.193982 0.060687
Si Si6 0.806332 0.472185 0.929291
Si Si7 0.878784 0.619245 0.393961
O O1 0.811207 0.188794 0.873759
O O2 0.744370 0.079755 0.940562
O O3 0.678069 0.137942 0.894400
O O4 0.723424 0.069451 0.831796
O O5 0.986281 0.713658 0.250000
O O6 0.999005 0.791881 0.161537
O O7 0.934889 0.653091 0.155345
O O8 0.737198 0.868599 0.010054
O O9 0.659271 0.906946 0.952221
O O10 0.776298 0.000000 0.000000
O O11 0.863730 0.000871 0.750000
O O12 0.862011 0.931006 0.660052
O O13 0.930259 0.069742 0.659563
O O14 0.593083 0.186165 0.081368
O O15 0.546424 0.273212 0.071523
O O16 0.460640 0.139833 0.096521
O O17 0.512301 0.175750 0.994988
O O18 0.727587 0.455175 0.917611
O O19 0.813182 0.406591 0.908548
O O20 0.810722 0.621444 0.373842
#
# Coordination Sequence:
#
# PCOD8330414 Si02
#       7
#    24  24  24  24  24  24  24
#     4  10  19  32  51  74 102 132 165 205 249 301
#     4  11  22  34  50  69  95 134 178 218 252 289
#     4  10  18  32  53  74  97 131 169 207 253 306
#     4   9  17  30  48  70  94 118 149 195 253 307
#     4   9  16  28  49  79 110 134 157 192 246 309
#     4   9  16  28  49  79 110 134 157 192 246 309
#     4  10  19  32  51  74 102 132 165 205 249 301
#
# _framework density 16.815767000000001
#
# number of rings (size 3 to 8) (size 9 to 14) (size 15 to 20)
#    0.000    2.286    2.857    1.286    0.000    3.429 
#    0.000    0.714    0.000    4.429    0.000    0.000 
#    0.000    2.286    0.000    0.000    0.000    0.000 
#
# Total GULP energy -2083155.114301 kJ/mol
# GULP energy per Si atom -12399.732823 kJ/mol
# Density = 1.677749 g / cm^3
# Si number density = 16.815767 Si / 1000 Ang^3
#
#
#
# Elastic Constant Matrix: (Units=GPa)
#
#
# Indices 1 2 3 4 5 6 
#
# 1 108.9715 57.7124 15.7878 0.0000 0.0000 0.0000
# 2 57.7124 108.9715 15.7878 0.0000 0.0000 0.0000
# 3 15.7878 15.7878 33.2075 0.0000 0.0000 0.0000
# 4 0.0000 0.0000 0.0000 20.0197 0.0000 0.0000
# 5 0.0000 0.0000 0.0000 0.0000 20.0197 0.0000
# 6 0.0000 0.0000 0.0000 0.0000 0.0000 25.6296
#
#
#
# Elastic Compliance Matrix: (Units=1/GPa)
#
#
# Indices 1 2 3 4 5 6 
#
# 1 0.013051 -0.006458 -0.003135 0.000000 0.000000 0.000000
# 2 -0.006458 0.013051 -0.003135 0.000000 0.000000 0.000000
# 3 -0.003135 -0.003135 0.033094 0.000000 0.000000 0.000000
# 4 0.000000 0.000000 0.000000 0.049951 0.000000 0.000000
# 5 0.000000 0.000000 0.000000 0.000000 0.049951 0.000000
# 6 0.000000 0.000000 0.000000 0.000000 0.000000 0.039017
#
#
# Mechanical properties :
#
#
# Convention : Reuss Voigt Hill
#
# Bulk Modulus (GPa) = 29.63641 47.74736 38.69189
# Shear Modulus (GPa) = 21.29320 23.92460 22.60890
#
# Velocity S-wave (km/s) = 3.56232 3.77603 3.67073
# Velocity P-wave (km/s) = 5.88070 6.88964 6.40507
#
# Compressibility (1/GPa) = 0.03374227
#
# Stress axis : x y z
#
# Youngs Moduli (GPa) = 76.62275 76.62275 30.21672
#
# Poissons Ratio (x) = 0.49481 0.09472
# Poissons Ratio (y) = 0.49481 0.09472
# Poissons Ratio (z) = 0.24018 0.24018
#
# Static dielectric constant tensor:
#      x y z
#    x 3.230120 0.000000 0.000000 
#    y 0.000000 3.230120 0.000000 
#    z 0.000000 0.000000 2.849930 
# 
# 
# High freq. dielectric constant tensor:
#      x y z
#    x 1.647300 0.000000 0.000000 
#    y 0.000000 1.647300 0.000000 
#    z 0.000000 0.000000 1.612520 
# 
# From -- ./inp_files/9857.got.cif
#   From: 2010.03.12/outbox.cif.g09.slc.cpg/sg194_5_cif.got.tgz:9857.got - 2010.04.01 12:26:19.
