data_PCOD8330396
_publ_section_title
;
Structure prediction by ZEFSAII (Michael W. Deem and Ramdas Pophale) SiO2 
 PCOD8330396
Probable space group: P 63/M M C
;
_chemical_formula_sum "Si O2"
_cell_formula_units_Z 144
_cell_length_a 22.786053
_cell_length_b 22.786053
_cell_length_c 18.847856
_cell_angle_alpha 90.000000
_cell_angle_beta 90.000000
_cell_angle_gamma 120.000000
_cell_volume 8474.826056
_symmetry_space_group_name_H-M "P 63/M M C"
_symmetry_group_IT_number 194
_symmetry_cell_setting 'hexagonal'
loop_
_space_group_symop_operation_xyz
x,y,z
x-y,x,1/2+z
-y,x-y,z
-x,-y,1/2+z
-x+y,-x,z
y,-x+y,1/2+z
x-y,-y,-z
-x,-x+y,-z
y,x,-z
-y,-x,1/2-z
-x+y,y,1/2-z
x,x-y,1/2-z
-x,-y,-z
-x+y,-x,1/2-z
y,-x+y,-z
x,y,1/2-z
x-y,x,-z
-y,x-y,1/2-z
-x+y,y,z
x,x-y,z
-y,-x,z
y,x,1/2+z
x-y,-y,1/2+z
-x,-x+y,1/2+z
loop_
_atom_site_type_symbol
_atom_site_label
_atom_site_fract_x
_atom_site_fract_y
_atom_site_fract_z
Si Si1 0.417369 0.963645 0.330506
Si Si2 0.196318 0.531811 0.538902
Si Si3 0.664189 0.593665 0.533704
Si Si4 0.929629 0.205051 0.477326
Si Si5 0.469750 0.113582 0.170301
Si Si6 0.671411 0.902256 0.672107
O O1 0.388539 0.949577 0.250000
O O2 0.465078 0.930155 0.343888
O O3 0.352344 0.932686 0.382414
O O4 0.469075 0.043808 0.341631
O O5 0.263329 0.526658 0.527635
O O6 0.210620 0.605310 0.512765
O O7 0.134283 0.473035 0.496222
O O8 0.174292 0.522818 0.621175
O O9 0.605749 0.605749 0.500000
O O10 0.737856 0.658092 0.518306
O O11 0.867485 0.132516 0.498892
O O12 0.937428 0.213946 0.391987
O O13 0.000000 0.210014 0.500000
O O14 0.490160 0.141289 0.250000
O O15 0.393171 0.092413 0.151616
O O16 0.701712 0.935308 0.750000
O O17 0.646234 0.823117 0.674385
#
# Coordination Sequence:
#
# PCOD8330396 Si02
#       6
#    24  24  24  24  24  24
#     4  10  20  33  50  75 103 129 164 211 262 313
#     4  12  24  36  49  68 100 139 176 211 251 303
#     4  11  20  34  56  80  99 125 165 217 268 305
#     4  10  19  33  53  80 109 136 168 208 260 312
#     4  10  18  30  49  72  99 131 169 211 252 297
#     4   9  16  28  48  72  97 129 172 214 250 295
#
# _framework density 16.991499999999998
#
# number of rings (size 3 to 8) (size 9 to 14) (size 15 to 20)
#    0.000    1.667    3.333    3.167    0.000    2.667 
#    0.000    0.000    0.000    4.667    0.000    0.000 
#    0.000    1.333    0.000    0.000    0.000    0.167 
#
# Total GULP energy -1784553.656392 kJ/mol
# GULP energy per Si atom -12392.733725 kJ/mol
# Density = 1.695283 g / cm^3
# Si number density = 16.991500 Si / 1000 Ang^3
#
#
#
# Elastic Constant Matrix: (Units=GPa)
#
#
# Indices 1 2 3 4 5 6 
#
# 1 92.6388 50.8417 45.5660 0.0000 0.0000 0.0000
# 2 50.8417 92.6388 45.5660 0.0000 0.0000 0.0000
# 3 45.5660 45.5660 97.3919 0.0000 0.0000 0.0000
# 4 0.0000 0.0000 0.0000 18.2858 0.0000 0.0000
# 5 0.0000 0.0000 0.0000 0.0000 18.2858 0.0000
# 6 0.0000 0.0000 0.0000 0.0000 0.0000 20.8986
#
#
#
# Elastic Compliance Matrix: (Units=1/GPa)
#
#
# Indices 1 2 3 4 5 6 
#
# 1 0.016921 -0.007004 -0.004640 0.000000 0.000000 0.000000
# 2 -0.007004 0.016921 -0.004640 0.000000 0.000000 0.000000
# 3 -0.004640 -0.004640 0.014609 0.000000 0.000000 0.000000
# 4 0.000000 0.000000 0.000000 0.054687 0.000000 0.000000
# 5 0.000000 0.000000 0.000000 0.000000 0.054687 0.000000
# 6 0.000000 0.000000 0.000000 0.000000 0.000000 0.047850
#
#
# Mechanical properties :
#
#
# Convention : Reuss Voigt Hill
#
# Bulk Modulus (GPa) = 62.95706 62.95745 62.95725
# Shear Modulus (GPa) = 20.53080 20.87376 20.70228
#
# Velocity S-wave (km/s) = 3.47983 3.50877 3.49433
# Velocity P-wave (km/s) = 7.29919 7.31766 7.30843
#
# Compressibility (1/GPa) = 0.01588384
#
# Stress axis : x y z
#
# Youngs Moduli (GPa) = 59.09913 59.09913 68.45049
#
# Poissons Ratio (x) = 0.41395 0.31758
# Poissons Ratio (y) = 0.41395 0.31758
# Poissons Ratio (z) = 0.27419 0.27419
#
# Static dielectric constant tensor:
#      x y z
#    x 3.053110 0.000000 0.000000 
#    y 0.000000 3.053110 0.000000 
#    z 0.000000 0.000000 3.420150 
# 
# 
# High freq. dielectric constant tensor:
#      x y z
#    x 1.630870 0.000000 0.000000 
#    y 0.000000 1.630870 0.000000 
#    z 0.000000 0.000000 1.660570 
# 
# From -- ./inp_files/8237.got.cif
#   From: 2010.03.12/outbox.cif.g09.slc.cpg/sg194_5_cif.got.tgz:8237.got - 2010.04.01 12:26:19.
