data_PCOD8330805
_publ_section_title
;
Structure prediction by ZEFSAII (Michael W. Deem and Ramdas Pophale) SiO2 
 PCOD8330805
Probable space group: P 63/M M C
;
_chemical_formula_sum "Si O2"
_cell_formula_units_Z 144
_cell_length_a 31.554574
_cell_length_b 31.554574
_cell_length_c 9.159810
_cell_angle_alpha 90.000000
_cell_angle_beta 90.000000
_cell_angle_gamma 120.000000
_cell_volume 7898.447572
_symmetry_space_group_name_H-M "P 63/M M C"
_symmetry_group_IT_number 194
_symmetry_cell_setting 'hexagonal'
loop_
_space_group_symop_operation_xyz
x,y,z
x-y,x,1/2+z
-y,x-y,z
-x,-y,1/2+z
-x+y,-x,z
y,-x+y,1/2+z
x-y,-y,-z
-x,-x+y,-z
y,x,-z
-y,-x,1/2-z
-x+y,y,1/2-z
x,x-y,1/2-z
-x,-y,-z
-x+y,-x,1/2-z
y,-x+y,-z
x,y,1/2-z
x-y,x,-z
-y,x-y,1/2-z
-x+y,y,z
x,x-y,z
-y,-x,z
y,x,1/2+z
x-y,-y,1/2+z
-x,-x+y,1/2+z
loop_
_atom_site_type_symbol
_atom_site_label
_atom_site_fract_x
_atom_site_fract_y
_atom_site_fract_z
Si Si1 0.854792 0.049075 0.077139
Si Si2 0.488435 0.346137 0.923528
Si Si3 0.573753 0.526520 0.414901
Si Si4 0.666594 0.235655 0.082421
Si Si5 0.100741 0.798541 0.588608
Si Si6 0.754215 0.604561 0.578732
O O1 0.853316 0.042780 0.250000
O O2 0.907804 0.092197 0.026565
O O3 0.812379 0.061087 0.027735
O O4 0.845938 0.000000 0.000000
O O5 0.491493 0.353136 0.750000
O O6 0.441131 0.296107 0.973771
O O7 0.485569 0.390066 0.997581
O O8 0.536248 0.345586 0.977423
O O9 0.568723 0.568723 0.500000
O O10 0.593011 0.544457 0.250000
O O11 0.521885 0.478116 0.407631
O O12 0.667877 0.220466 0.250000
O O13 0.625338 0.250676 0.061594
O O14 0.718226 0.281775 0.036200
O O15 0.085734 0.775559 0.750000
O O16 0.151878 0.848123 0.595415
O O17 0.104988 0.759280 0.487399
O O18 0.755892 0.610858 0.750000
O O19 0.797935 0.595869 0.524002
#
# Coordination Sequence:
#
# PCOD8330805 Si02
#       6
#    24  24  24  24  24  24
#     4   9  18  32  50  75 105 134 169 213 256 301
#     4  11  22  35  53  79 110 141 174 214 261 317
#     4  10  21  38  59  80 101 127 163 208 257 309
#     4  10  21  37  56  78 106 142 185 232 280 328
#     4   8  15  29  48  69  94 125 161 201 244 290
#     4   9  18  32  49  71 101 135 170 208 250 298
#
# _framework density 18.231432000000002
#
# number of rings (size 3 to 8) (size 9 to 14) (size 15 to 20)
#    0.000    2.500    0.000    3.167    0.000    7.333 
#    0.000    4.167    0.000    3.167    0.000    0.000 
#    0.000    0.000    0.000    0.000    0.000    0.000 
#
# Total GULP energy -1785417.679292 kJ/mol
# GULP energy per Si atom -12398.733884 kJ/mol
# Density = 1.818994 g / cm^3
# Si number density = 18.231432 Si / 1000 Ang^3
#
#
#
# Elastic Constant Matrix: (Units=GPa)
#
#
# Indices 1 2 3 4 5 6 
#
# 1 85.0967 31.7887 38.1728 0.0000 0.0000 0.0000
# 2 31.7887 85.0967 38.1728 0.0000 0.0000 0.0000
# 3 38.1728 38.1728 69.8696 0.0000 0.0000 0.0000
# 4 0.0000 0.0000 0.0000 27.7942 0.0000 0.0000
# 5 0.0000 0.0000 0.0000 0.0000 27.7942 0.0000
# 6 0.0000 0.0000 0.0000 0.0000 0.0000 26.6540
#
#
#
# Elastic Compliance Matrix: (Units=1/GPa)
#
#
# Indices 1 2 3 4 5 6 
#
# 1 0.016031 -0.002728 -0.007268 0.000000 0.000000 0.000000
# 2 -0.002728 0.016031 -0.007268 0.000000 0.000000 0.000000
# 3 -0.007268 -0.007268 0.022254 0.000000 0.000000 0.000000
# 4 0.000000 0.000000 0.000000 0.035979 0.000000 0.000000
# 5 0.000000 0.000000 0.000000 0.000000 0.035979 0.000000
# 6 0.000000 0.000000 0.000000 0.000000 0.000000 0.037518
#
#
# Mechanical properties :
#
#
# Convention : Reuss Voigt Hill
#
# Bulk Modulus (GPa) = 50.53633 50.70353 50.61993
# Shear Modulus (GPa) = 24.40053 25.24370 24.82211
#
# Velocity S-wave (km/s) = 3.66235 3.72509 3.69386
# Velocity P-wave (km/s) = 6.75746 6.80979 6.78367
#
# Compressibility (1/GPa) = 0.01978775
#
# Stress axis : x y z
#
# Youngs Moduli (GPa) = 62.38047 62.38047 44.93633
#
# Poissons Ratio (x) = 0.17019 0.32658
# Poissons Ratio (y) = 0.17019 0.32658
# Poissons Ratio (z) = 0.45336 0.45336
#
# Static dielectric constant tensor:
#      x y z
#    x 3.388720 0.000000 0.000000 
#    y 0.000000 3.388720 0.000000 
#    z 0.000000 0.000000 3.422020 
# 
# 
# High freq. dielectric constant tensor:
#      x y z
#    x 1.698650 0.000000 0.000000 
#    y 0.000000 1.698650 0.000000 
#    z 0.000000 0.000000 1.706980 
# 
# From -- ./inp_files/2089.got.cif
#   From: 2010.03.12/outbox.cif.g09.slc.cpg/sg194_2_cif.got.tgz:2089.got - 2010.04.01 12:26:19.
