data_PCOD8330154
_publ_section_title
;
Structure prediction by ZEFSAII (Michael W. Deem and Ramdas Pophale) SiO2 
 PCOD8330154
Probable space group: P 63/M C M
;
_chemical_formula_sum "Si O2"
_cell_formula_units_Z 120
_cell_length_a 15.087377
_cell_length_b 15.087377
_cell_length_c 32.411532
_cell_angle_alpha 90.000000
_cell_angle_beta 90.000000
_cell_angle_gamma 120.000000
_cell_volume 6389.364672
_symmetry_space_group_name_H-M "P 63/M C M"
_symmetry_group_IT_number 193
_symmetry_cell_setting 'hexagonal'
loop_
_space_group_symop_operation_xyz
x,y,z
x-y,x,1/2+z
-y,x-y,z
-x,-y,1/2+z
-x+y,-x,z
y,-x+y,1/2+z
x-y,-y,1/2-z
-x,-x+y,1/2-z
y,x,1/2-z
-y,-x,-z
-x+y,y,-z
x,x-y,-z
-x,-y,-z
-x+y,-x,1/2-z
y,-x+y,-z
x,y,1/2-z
x-y,x,-z
-y,x-y,1/2-z
-x+y,y,1/2+z
x,x-y,1/2+z
-y,-x,1/2+z
y,x,z
x-y,-y,z
-x,-x+y,z
loop_
_atom_site_type_symbol
_atom_site_label
_atom_site_fract_x
_atom_site_fract_y
_atom_site_fract_z
Si Si1 0.560462 0.117262 0.702741
Si Si2 0.206807 0.324258 0.541572
Si Si3 0.460006 0.753187 0.927701
Si Si4 0.879680 0.760735 0.871991
Si Si5 0.229724 0.771968 0.161892
O O1 0.538486 0.131887 0.750000
O O2 0.503244 0.157521 0.673284
O O3 0.682146 0.176022 0.696042
O O4 0.518430 0.000000 0.691366
O O5 0.140543 0.281085 0.500000
O O6 0.294564 0.294564 0.542882
O O7 0.262804 0.447383 0.541033
O O8 0.132003 0.277162 0.580659
O O9 0.369641 0.780697 0.934877
O O10 0.498739 0.783873 0.881346
O O11 0.833942 0.833942 0.862704
O O12 0.828150 0.665167 0.840631
O O13 0.000000 0.823049 0.863425
#
# Coordination Sequence:
#
# PCOD8330154 Si02
#       5
#    24  24  24  24  24
#     4  11  22  34  54  83 112 145 180 218 273 332
#     4  10  21  36  55  80 111 144 188 237 285 336
#     4   9  18  36  55  75 104 148 183 221 276 334
#     4  10  21  37  59  83 110 147 192 241 286 329
#     4  11  19  37  56  81 112 149 181 226 275 333
#
# _framework density 18.781210000000002
#
# number of rings (size 3 to 8) (size 9 to 14) (size 15 to 20)
#    0.400    1.400    2.000    3.000    0.000    1.600 
#    0.000    3.000    0.000    3.200    0.000    0.000 
#    0.000    9.600    0.000    0.000    0.000    0.000 
#
# Total GULP energy -1488041.066539 kJ/mol
# GULP energy per Si atom -12400.342221 kJ/mol
# Density = 1.873846 g / cm^3
# Si number density = 18.781210 Si / 1000 Ang^3
#
#
#
# Elastic Constant Matrix: (Units=GPa)
#
#
# Indices 1 2 3 4 5 6 
#
# 1 109.4785 42.6692 19.0550 0.0000 0.0000 0.0000
# 2 42.6692 109.4785 19.0550 0.0000 0.0000 0.0000
# 3 19.0550 19.0550 53.3774 0.0000 0.0000 0.0000
# 4 0.0000 0.0000 0.0000 17.7908 0.0000 0.0000
# 5 0.0000 0.0000 0.0000 0.0000 17.7908 0.0000
# 6 0.0000 0.0000 0.0000 0.0000 0.0000 33.4046
#
#
#
# Elastic Compliance Matrix: (Units=1/GPa)
#
#
# Indices 1 2 3 4 5 6 
#
# 1 0.011093 -0.003875 -0.002577 0.000000 0.000000 0.000000
# 2 -0.003875 0.011093 -0.002577 0.000000 0.000000 0.000000
# 3 -0.002577 -0.002577 0.020574 0.000000 0.000000 0.000000
# 4 0.000000 0.000000 0.000000 0.056209 0.000000 0.000000
# 5 0.000000 0.000000 0.000000 0.000000 0.056209 0.000000
# 6 0.000000 0.000000 0.000000 0.000000 0.000000 0.029936
#
#
# Mechanical properties :
#
#
# Convention : Reuss Voigt Hill
#
# Bulk Modulus (GPa) = 40.48041 48.21030 44.34535
# Shear Modulus (GPa) = 23.65124 26.56757 25.10940
#
# Velocity S-wave (km/s) = 3.55252 3.76517 3.66039
# Velocity P-wave (km/s) = 6.19900 6.68036 6.44418
#
# Compressibility (1/GPa) = 0.02470331
#
# Stress axis : x y z
#
# Youngs Moduli (GPa) = 90.14706 90.14706 48.60456
#
# Poissons Ratio (x) = 0.34932 0.12524
# Poissons Ratio (y) = 0.34932 0.12524
# Poissons Ratio (z) = 0.23228 0.23228
#
# Static dielectric constant tensor:
#      x y z
#    x 3.417710 0.000000 0.000000 
#    y 0.000000 3.417710 0.000000 
#    z 0.000000 0.000000 3.346850 
# 
# 
# High freq. dielectric constant tensor:
#      x y z
#    x 1.729670 0.000000 0.000000 
#    y 0.000000 1.729670 0.000000 
#    z 0.000000 0.000000 1.719940 
# 
# From -- ./inp_files/8955.got.cif
#   From: 2010.03.12/outbox.cif.g09.slc.cpg/sg193_5_cif.got.tgz:8955.got - 2010.04.01 12:20:39.
