data_PCOD8330407
_publ_section_title
;
Structure prediction by ZEFSAII (Michael W. Deem and Ramdas Pophale) SiO2 
 PCOD8330407
Probable space group: P 63/M M C
;
_chemical_formula_sum "Si O2"
_cell_formula_units_Z 192
_cell_length_a 25.258125
_cell_length_b 25.258125
_cell_length_c 20.254390
_cell_angle_alpha 90.000000
_cell_angle_beta 90.000000
_cell_angle_gamma 120.000000
_cell_volume 11190.565052
_symmetry_space_group_name_H-M "P 63/M M C"
_symmetry_group_IT_number 194
_symmetry_cell_setting 'hexagonal'
loop_
_space_group_symop_operation_xyz
x,y,z
x-y,x,1/2+z
-y,x-y,z
-x,-y,1/2+z
-x+y,-x,z
y,-x+y,1/2+z
x-y,-y,-z
-x,-x+y,-z
y,x,-z
-y,-x,1/2-z
-x+y,y,1/2-z
x,x-y,1/2-z
-x,-y,-z
-x+y,-x,1/2-z
y,-x+y,-z
x,y,1/2-z
x-y,x,-z
-y,x-y,1/2-z
-x+y,y,z
x,x-y,z
-y,-x,z
y,x,1/2+z
x-y,-y,1/2+z
-x,-x+y,1/2+z
loop_
_atom_site_type_symbol
_atom_site_label
_atom_site_fract_x
_atom_site_fract_y
_atom_site_fract_z
Si Si1 0.096808 0.645312 0.024753
Si Si2 0.209040 0.164872 0.323984
Si Si3 0.541793 0.206751 0.440397
Si Si4 0.209420 0.166559 0.940685
Si Si5 0.651845 0.536693 0.175338
Si Si6 0.340160 0.108665 0.516296
Si Si7 0.110339 0.767731 0.863157
Si Si8 0.432772 0.448453 0.911419
O O1 0.108240 0.710560 0.048325
O O2 0.058099 0.598861 0.085150
O O3 0.162092 0.651823 0.004159
O O4 0.052352 0.623529 0.961353
O O5 0.184454 0.160301 0.250000
O O6 0.201183 0.100592 0.348150
O O7 0.169308 0.182239 0.370544
O O8 0.280183 0.215847 0.326383
O O9 0.613185 0.226369 0.439065
O O10 0.535513 0.267757 0.445350
O O11 0.509283 0.169302 0.373740
O O12 0.205278 0.102639 0.948229
O O13 0.279503 0.220772 0.946503
O O14 0.169783 0.169783 0.000000
O O15 0.644549 0.511407 0.250000
O O16 0.709070 0.604048 0.171456
O O17 0.592391 0.543871 0.159156
O O18 0.351560 0.175780 0.527230
O O19 0.334209 0.091406 0.439497
O O20 0.179896 0.820105 0.854669
O O21 0.486068 0.513933 0.935366
#
# Coordination Sequence:
#
# PCOD8330407 Si02
#       8
#    24  24  24  24  24  24  24  24
#     4  10  18  31  52  70  97 130 162 212 267 313
#     4  10  21  36  55  77 104 136 171 212 256 306
#     4  11  22  36  53  73 100 136 180 227 270 309
#     4  11  22  34  54  78 106 134 166 210 256 315
#     4  11  22  34  51  72 101 144 181 215 255 302
#     4  10  19  30  50  78 102 127 164 205 256 314
#     4  10  18  32  50  74 103 131 167 211 255 303
#     4  10  20  31  46  71  96 127 171 213 256 306
#
# _framework density 17.157309999999999
#
# number of rings (size 3 to 8) (size 9 to 14) (size 15 to 20)
#    0.000    1.625    3.750    4.250    3.500    2.750 
#    0.000    0.000    0.000    3.000    0.000    0.000 
#    0.000    1.500    0.000    0.250    0.000    2.625 
#
# Total GULP energy -2379639.296850 kJ/mol
# GULP energy per Si atom -12393.954671 kJ/mol
# Density = 1.711826 g / cm^3
# Si number density = 17.157310 Si / 1000 Ang^3
#
#
#
# Elastic Constant Matrix: (Units=GPa)
#
#
# Indices 1 2 3 4 5 6 
#
# 1 84.6884 48.3948 34.3599 0.0000 0.0000 0.0000
# 2 48.3948 84.6884 34.3599 0.0000 0.0000 0.0000
# 3 34.3599 34.3599 51.5986 0.0000 0.0000 0.0000
# 4 0.0000 0.0000 0.0000 9.3156 0.0000 0.0000
# 5 0.0000 0.0000 0.0000 0.0000 9.3156 0.0000
# 6 0.0000 0.0000 0.0000 0.0000 0.0000 18.1468
#
#
#
# Elastic Compliance Matrix: (Units=1/GPa)
#
#
# Indices 1 2 3 4 5 6 
#
# 1 0.019502 -0.008051 -0.007626 0.000000 0.000000 0.000000
# 2 -0.008051 0.019502 -0.007626 0.000000 0.000000 0.000000
# 3 -0.007626 -0.007626 0.029537 0.000000 0.000000 0.000000
# 4 0.000000 0.000000 0.000000 0.107347 0.000000 0.000000
# 5 0.000000 0.000000 0.000000 0.000000 0.107347 0.000000
# 6 0.000000 0.000000 0.000000 0.000000 0.000000 0.055106
#
#
# Mechanical properties :
#
#
# Convention : Reuss Voigt Hill
#
# Bulk Modulus (GPa) = 45.58543 50.57828 48.08185
# Shear Modulus (GPa) = 12.74667 14.27964 13.51315
#
# Velocity S-wave (km/s) = 2.72863 2.88805 2.80947
# Velocity P-wave (km/s) = 6.04599 6.37685 6.21362
#
# Compressibility (1/GPa) = 0.02193684
#
# Stress axis : x y z
#
# Youngs Moduli (GPa) = 51.27560 51.27560 33.85627
#
# Poissons Ratio (x) = 0.41280 0.25818
# Poissons Ratio (y) = 0.41280 0.25818
# Poissons Ratio (z) = 0.39102 0.39102
#
# Static dielectric constant tensor:
#      x y z
#    x 3.321220 0.000000 0.000000 
#    y 0.000000 3.321220 0.000000 
#    z 0.000000 0.000000 2.738420 
# 
# 
# High freq. dielectric constant tensor:
#      x y z
#    x 1.664140 0.000000 0.000000 
#    y 0.000000 1.664140 0.000000 
#    z 0.000000 0.000000 1.625210 
# 
# From -- ./inp_files/8728.got.cif
#   From: 2010.03.12/outbox.cif.g09.slc.cpg/sg194_5_cif.got.tgz:8728.got - 2010.04.01 12:26:19.
