data_PCOD8330578
_publ_section_title
;
Structure prediction by ZEFSAII (Michael W. Deem and Ramdas Pophale) SiO2 
 PCOD8330578
Probable space group: P 63/M M C
;
_chemical_formula_sum "Si O2"
_cell_formula_units_Z 108
_cell_length_a 17.129200
_cell_length_b 17.129200
_cell_length_c 23.725030
_cell_angle_alpha 90.000000
_cell_angle_beta 90.000000
_cell_angle_gamma 120.000000
_cell_volume 6028.531887
_symmetry_space_group_name_H-M "P 63/M M C"
_symmetry_group_IT_number 194
_symmetry_cell_setting 'hexagonal'
loop_
_space_group_symop_operation_xyz
x,y,z
x-y,x,1/2+z
-y,x-y,z
-x,-y,1/2+z
-x+y,-x,z
y,-x+y,1/2+z
x-y,-y,-z
-x,-x+y,-z
y,x,-z
-y,-x,1/2-z
-x+y,y,1/2-z
x,x-y,1/2-z
-x,-y,-z
-x+y,-x,1/2-z
y,-x+y,-z
x,y,1/2-z
x-y,x,-z
-y,x-y,1/2-z
-x+y,y,z
x,x-y,z
-y,-x,z
y,x,1/2+z
x-y,-y,1/2+z
-x,-x+y,1/2+z
loop_
_atom_site_type_symbol
_atom_site_label
_atom_site_fract_x
_atom_site_fract_y
_atom_site_fract_z
Si Si1 0.271177 0.901826 0.686636
Si Si2 0.998743 0.823038 0.646278
Si Si3 0.566181 0.612969 0.364925
Si Si4 0.152546 0.487356 0.250000
Si Si5 0.931006 0.685774 0.950977
O O1 0.299789 0.894332 0.750000
O O2 0.196913 0.803088 0.663805
O O3 0.227994 0.967117 0.687595
O O4 0.357585 0.941894 0.645398
O O5 0.907905 0.815810 0.671790
O O6 0.979202 0.776870 0.585138
O O7 0.072654 0.927347 0.638744
O O8 0.473083 0.526918 0.383906
O O9 0.558869 0.654031 0.305650
O O10 0.598196 0.687733 0.413682
O O11 0.236403 0.472806 0.250000
O O12 0.186427 0.593214 0.250000
O O13 0.834783 0.669565 0.974079
O O14 0.000000 0.696523 0.000000
#
# Coordination Sequence:
#
# PCOD8330578 Si02
#       5
#    24  24  24  12  24
#     4   9  17  30  46  68  98 132 166 204 249 295
#     4   9  17  28  43  66  97 134 172 207 242 281
#     4  10  20  34  54  79 103 132 172 215 260 319
#     4  10  19  32  51  78 110 138 164 198 247 308
#     4  10  20  34  52  75 102 136 175 216 258 304
#
# _framework density 17.914809000000002
#
# number of rings (size 3 to 8) (size 9 to 14) (size 15 to 20)
#    0.000    2.444    1.111    1.667    0.000    2.667 
#    0.000    0.000    0.000    5.778    0.000    1.556 
#    0.000    0.000    0.000    0.000    0.000    0.000 
#
# Total GULP energy -1338810.021998 kJ/mol
# GULP energy per Si atom -12396.389093 kJ/mol
# Density = 1.787403 g / cm^3
# Si number density = 17.914809 Si / 1000 Ang^3
#
#
#
# Elastic Constant Matrix: (Units=GPa)
#
#
# Indices 1 2 3 4 5 6 
#
# 1 82.5209 38.6061 27.8402 0.0000 0.0000 0.0000
# 2 38.6061 82.5209 27.8402 0.0000 0.0000 0.0000
# 3 27.8402 27.8402 69.2397 0.0000 0.0000 0.0000
# 4 0.0000 0.0000 0.0000 17.9392 0.0000 0.0000
# 5 0.0000 0.0000 0.0000 0.0000 17.9392 0.0000
# 6 0.0000 0.0000 0.0000 0.0000 0.0000 21.9574
#
#
#
# Elastic Compliance Matrix: (Units=1/GPa)
#
#
# Indices 1 2 3 4 5 6 
#
# 1 0.016450 -0.006322 -0.004072 0.000000 0.000000 0.000000
# 2 -0.006322 0.016450 -0.004072 0.000000 0.000000 0.000000
# 3 -0.004072 -0.004072 0.017717 0.000000 0.000000 0.000000
# 4 0.000000 0.000000 0.000000 0.055744 0.000000 0.000000
# 5 0.000000 0.000000 0.000000 0.000000 0.055744 0.000000
# 6 0.000000 0.000000 0.000000 0.000000 0.000000 0.045543
#
#
# Mechanical properties :
#
#
# Convention : Reuss Voigt Hill
#
# Bulk Modulus (GPa) = 46.11701 46.98383 46.55042
# Shear Modulus (GPa) = 20.50802 20.90017 20.70410
#
# Velocity S-wave (km/s) = 3.38709 3.41932 3.40324
# Velocity P-wave (km/s) = 6.41052 6.47087 6.44077
#
# Compressibility (1/GPa) = 0.02168397
#
# Stress axis : x y z
#
# Youngs Moduli (GPa) = 60.79198 60.79198 56.44189
#
# Poissons Ratio (x) = 0.38431 0.22984
# Poissons Ratio (y) = 0.38431 0.22984
# Poissons Ratio (z) = 0.24756 0.24756
#
# Static dielectric constant tensor:
#      x y z
#    x 3.312640 0.000000 0.000000 
#    y 0.000000 3.312640 0.000000 
#    z 0.000000 0.000000 3.077710 
# 
# 
# High freq. dielectric constant tensor:
#      x y z
#    x 1.684360 0.000000 0.000000 
#    y 0.000000 1.684360 0.000000 
#    z 0.000000 0.000000 1.674240 
# 
# From -- ./inp_files/7903.got.cif
#   From: 2010.03.12/outbox.cif.g09.slc.cpg/sg194_4_cif.got.tgz:7903.got - 2010.04.01 12:26:19.
