data_PCOD8330387
_publ_section_title
;
Structure prediction by ZEFSAII (Michael W. Deem and Ramdas Pophale) SiO2 
 PCOD8330387
Probable space group: P 63/M M C
;
_chemical_formula_sum "Si O2"
_cell_formula_units_Z 88
_cell_length_a 25.559063
_cell_length_b 25.559063
_cell_length_c 9.707292
_cell_angle_alpha 90.000000
_cell_angle_beta 90.000000
_cell_angle_gamma 120.000000
_cell_volume 5491.848931
_symmetry_space_group_name_H-M "P 63/M M C"
_symmetry_group_IT_number 194
_symmetry_cell_setting 'hexagonal'
loop_
_space_group_symop_operation_xyz
x,y,z
x-y,x,1/2+z
-y,x-y,z
-x,-y,1/2+z
-x+y,-x,z
y,-x+y,1/2+z
x-y,-y,-z
-x,-x+y,-z
y,x,-z
-y,-x,1/2-z
-x+y,y,1/2-z
x,x-y,1/2-z
-x,-y,-z
-x+y,-x,1/2-z
y,-x+y,-z
x,y,1/2-z
x-y,x,-z
-y,x-y,1/2-z
-x+y,y,z
x,x-y,z
-y,-x,z
y,x,1/2+z
x-y,-y,1/2+z
-x,-x+y,1/2+z
loop_
_atom_site_type_symbol
_atom_site_label
_atom_site_fract_x
_atom_site_fract_y
_atom_site_fract_z
Si Si1 0.607467 0.392534 0.091923
Si Si2 0.822175 0.056863 0.911112
Si Si3 0.524736 0.702013 0.593829
Si Si4 0.122801 0.752930 0.097581
Si Si5 0.333334 0.666667 0.082736
O O1 0.620628 0.379373 0.250000
O O2 0.535720 0.361946 0.069020
O O3 0.632990 0.367011 0.976080
O O4 0.817611 0.041193 0.750000
O O5 0.888177 0.111824 0.947387
O O6 0.770720 0.073538 0.952213
O O7 0.812279 0.000000 0.000000
O O8 0.547049 0.708876 0.750000
O O9 0.510349 0.755175 0.555609
O O10 0.578636 0.704599 0.502803
O O11 0.106483 0.724258 0.250000
O O12 0.186760 0.813241 0.100376
O O13 0.333334 0.666667 0.250000
#
# Coordination Sequence:
#
# PCOD8330387 Si02
#       5
#    12  24  24  24   4
#     4  10  18  30  40  50  79 117 148 190 243 286
#     4   9  18  32  50  74 102 130 154 181 220 257
#     4   9  16  25  40  57  76 110 151 186 228 281
#     4   8  15  28  43  60  88 117 141 180 229 267
#     4  12  22  26  34  54  76 107 157 198 232 290
#
# _framework density 16.023747
#
# number of rings (size 3 to 8) (size 9 to 14) (size 15 to 20)
#    0.000    3.000    1.364    2.045    0.000    2.727 
#    0.000    2.727    0.000    0.273    0.000    0.955 
#    0.000    0.000    0.000    0.000    0.000    0.000 
#
# Total GULP energy -1090729.227028 kJ/mol
# GULP energy per Si atom -12394.650307 kJ/mol
# Density = 1.598728 g / cm^3
# Si number density = 16.023747 Si / 1000 Ang^3
#
#
#
# Elastic Constant Matrix: (Units=GPa)
#
#
# Indices 1 2 3 4 5 6 
#
# 1 79.8444 43.6944 53.7004 0.0000 0.0000 0.0000
# 2 43.6944 79.8445 53.7005 0.0000 0.0000 0.0000
# 3 53.7004 53.7005 90.6110 -0.0001 0.0000 0.0000
# 4 0.0000 0.0000 -0.0001 26.1703 0.0000 0.0000
# 5 0.0000 0.0000 0.0000 0.0000 26.1703 0.0000
# 6 0.0000 0.0000 0.0000 0.0000 0.0000 18.0750
#
#
#
# Elastic Compliance Matrix: (Units=1/GPa)
#
#
# Indices 1 2 3 4 5 6 
#
# 1 0.022180 -0.005482 -0.009896 0.000000 0.000000 0.000000
# 2 -0.005482 0.022180 -0.009896 0.000000 0.000000 0.000000
# 3 -0.009896 -0.009896 0.022766 0.000000 0.000000 0.000000
# 4 0.000000 0.000000 0.000000 0.038211 0.000000 0.000000
# 5 0.000000 0.000000 0.000000 0.000000 0.038211 0.000000
# 6 0.000000 0.000000 0.000000 0.000000 0.000000 0.055325
#
#
# Mechanical properties :
#
#
# Convention : Reuss Voigt Hill
#
# Bulk Modulus (GPa) = 60.32192 61.38784 60.85488
# Shear Modulus (GPa) = 19.61185 20.69678 20.15431
#
# Velocity S-wave (km/s) = 3.50226 3.59783 3.55036
# Velocity P-wave (km/s) = 7.35401 7.46008 7.40724
#
# Compressibility (1/GPa) = 0.01657772
#
# Stress axis : x y z
#
# Youngs Moduli (GPa) = 45.08530 45.08541 43.92548
#
# Poissons Ratio (x) = 0.24717 0.43469
# Poissons Ratio (y) = 0.24717 0.43468
# Poissons Ratio (z) = 0.44616 0.44616
#
# Static dielectric constant tensor:
#      x y z
#    x 2.842330 0.000000 0.000000 
#    y 0.000000 2.842330 0.000000 
#    z 0.000000 0.000000 3.162980 
# 
# 
# High freq. dielectric constant tensor:
#      x y z
#    x 1.587520 0.000000 0.000000 
#    y 0.000000 1.587520 0.000000 
#    z 0.000000 0.000000 1.617750 
# 
# From -- ./inp_files/1463.got.cif
#   From: 2010.03.12/outbox.cif.g09.slc.cpg/sg194_1_cif.got.tgz:1463.got - 2010.04.01 12:26:19.
