data_PCOD8330709
_publ_section_title
;
Structure prediction by ZEFSAII (Michael W. Deem and Ramdas Pophale) SiO2 
 PCOD8330709
Probable space group: P 63/M M C
;
_chemical_formula_sum "Si O2"
_cell_formula_units_Z 132
_cell_length_a 17.901003
_cell_length_b 17.901003
_cell_length_c 25.771187
_cell_angle_alpha 90.000000
_cell_angle_beta 90.000000
_cell_angle_gamma 120.000000
_cell_volume 7151.872849
_symmetry_space_group_name_H-M "P 63/M M C"
_symmetry_group_IT_number 194
_symmetry_cell_setting 'hexagonal'
loop_
_space_group_symop_operation_xyz
x,y,z
x-y,x,1/2+z
-y,x-y,z
-x,-y,1/2+z
-x+y,-x,z
y,-x+y,1/2+z
x-y,-y,-z
-x,-x+y,-z
y,x,-z
-y,-x,1/2-z
-x+y,y,1/2-z
x,x-y,1/2-z
-x,-y,-z
-x+y,-x,1/2-z
y,-x+y,-z
x,y,1/2-z
x-y,x,-z
-y,x-y,1/2-z
-x+y,y,z
x,x-y,z
-y,-x,z
y,x,1/2+z
x-y,-y,1/2+z
-x,-x+y,1/2+z
loop_
_atom_site_type_symbol
_atom_site_label
_atom_site_fract_x
_atom_site_fract_y
_atom_site_fract_z
Si Si1 0.676120 0.752207 0.690457
Si Si2 0.332778 0.495916 0.960307
Si Si3 0.000000 0.827800 0.500000
Si Si4 0.597541 0.021888 0.122653
Si Si5 0.825855 0.999269 0.611810
Si Si6 0.667429 0.161827 0.580381
O O1 0.698364 0.746675 0.750000
O O2 0.648078 0.824039 0.682379
O O3 0.599171 0.660055 0.672023
O O4 0.759029 0.773132 0.656451
O O5 0.241749 0.483498 0.941177
O O6 0.404571 0.595430 0.951872
O O7 0.355108 0.433058 0.928170
O O8 0.327963 0.469776 0.020156
O O9 0.920650 0.841300 0.510485
O O10 0.990973 0.779064 0.444998
O O11 0.513974 0.027947 0.136616
O O12 0.571538 0.922865 0.112363
O O13 0.854684 0.927342 0.614758
O O14 0.908003 0.091998 0.621470
O O15 0.592691 0.185381 0.589709
O O16 0.757839 0.242162 0.599454
#
# Coordination Sequence:
#
# PCOD8330709 Si02
#       6
#    24  24  12  24  24  24
#     4  10  22  39  55  72 100 137 174 214 261 309
#     4   9  16  28  48  75 106 138 169 205 252 311
#     4   8  13  24  44  72 103 134 168 208 248 288
#     4  10  20  34  53  75  99 128 170 220 266 313
#     4   9  17  31  52  78 107 140 177 213 250 291
#     4   9  17  30  49  75 106 139 171 205 251 309
#
# _framework density 18.456703000000001
#
# number of rings (size 3 to 8) (size 9 to 14) (size 15 to 20)
#    0.000    2.727    0.000    1.727    0.000    6.545 
#    3.273    0.000    0.000    1.455    0.000    0.000 
#    0.000    1.455    0.000    0.000    0.000    0.364 
#
# Total GULP energy -1636145.279246 kJ/mol
# GULP energy per Si atom -12395.039994 kJ/mol
# Density = 1.841470 g / cm^3
# Si number density = 18.456703 Si / 1000 Ang^3
#
#
#
# Elastic Constant Matrix: (Units=GPa)
#
#
# Indices 1 2 3 4 5 6 
#
# 1 96.7620 53.5524 55.3280 0.0000 0.0000 0.0000
# 2 53.5524 96.7620 55.3280 0.0000 0.0000 0.0000
# 3 55.3280 55.3280 121.1698 0.0000 0.0000 0.0000
# 4 0.0000 0.0000 0.0000 26.4381 0.0000 0.0000
# 5 0.0000 0.0000 0.0000 0.0000 26.4381 0.0000
# 6 0.0000 0.0000 0.0000 0.0000 0.0000 21.6048
#
#
#
# Elastic Compliance Matrix: (Units=1/GPa)
#
#
# Indices 1 2 3 4 5 6 
#
# 1 0.016582 -0.006561 -0.004576 0.000000 0.000000 0.000000
# 2 -0.006561 0.016582 -0.004576 0.000000 0.000000 0.000000
# 3 -0.004576 -0.004576 0.012432 0.000000 0.000000 0.000000
# 4 0.000000 0.000000 0.000000 0.037824 0.000000 0.000000
# 5 0.000000 0.000000 0.000000 0.000000 0.037824 0.000000
# 6 0.000000 0.000000 0.000000 0.000000 0.000000 0.046286
#
#
# Mechanical properties :
#
#
# Convention : Reuss Voigt Hill
#
# Bulk Modulus (GPa) = 70.56758 71.45674 71.01216
# Shear Modulus (GPa) = 24.54841 24.92858 24.73849
#
# Velocity S-wave (km/s) = 3.65095 3.67911 3.66505
# Velocity P-wave (km/s) = 7.48930 7.53974 7.51457
#
# Compressibility (1/GPa) = 0.01417081
#
# Stress axis : x y z
#
# Youngs Moduli (GPa) = 60.30576 60.30576 80.43928
#
# Poissons Ratio (x) = 0.39566 0.36808
# Poissons Ratio (y) = 0.39566 0.36808
# Poissons Ratio (z) = 0.27595 0.27595
#
# Static dielectric constant tensor:
#      x y z
#    x 3.354240 0.000000 0.000000 
#    y 0.000000 3.354240 0.000000 
#    z 0.000000 0.000000 3.280040 
# 
# 
# High freq. dielectric constant tensor:
#      x y z
#    x 1.713390 0.000000 0.000000 
#    y 0.000000 1.713390 0.000000 
#    z 0.000000 0.000000 1.693090 
# 
# From -- ./inp_files/9545.got.cif
#   From: 2010.03.12/outbox.cif.g09.slc.cpg/sg194_5_cif.got.tgz:9545.got - 2010.04.01 12:26:19.
