data_PCOD8330141
_publ_section_title
;
Structure prediction by ZEFSAII (Michael W. Deem and Ramdas Pophale) SiO2 
 PCOD8330141
Probable space group: P 63/M C M
;
_chemical_formula_sum "Si O2"
_cell_formula_units_Z 104
_cell_length_a 21.503489
_cell_length_b 21.503489
_cell_length_c 14.386636
_cell_angle_alpha 90.000000
_cell_angle_beta 90.000000
_cell_angle_gamma 120.000000
_cell_volume 5761.130985
_symmetry_space_group_name_H-M "P 63/M C M"
_symmetry_group_IT_number 193
_symmetry_cell_setting 'hexagonal'
loop_
_space_group_symop_operation_xyz
x,y,z
x-y,x,1/2+z
-y,x-y,z
-x,-y,1/2+z
-x+y,-x,z
y,-x+y,1/2+z
x-y,-y,1/2-z
-x,-x+y,1/2-z
y,x,1/2-z
-y,-x,-z
-x+y,y,-z
x,x-y,-z
-x,-y,-z
-x+y,-x,1/2-z
y,-x+y,-z
x,y,1/2-z
x-y,x,-z
-y,x-y,1/2-z
-x+y,y,1/2+z
x,x-y,1/2+z
-y,-x,1/2+z
y,x,z
x-y,-y,z
-x,-x+y,z
loop_
_atom_site_type_symbol
_atom_site_label
_atom_site_fract_x
_atom_site_fract_y
_atom_site_fract_z
Si Si1 0.348992 0.348992 0.860477
Si Si2 0.535957 0.648599 0.643953
Si Si3 0.262239 0.870546 0.476783
Si Si4 0.486989 0.759764 0.851328
Si Si5 0.333334 0.666668 0.608456
Si Si6 0.509743 0.509743 0.142302
O O1 0.344225 0.344225 0.750000
O O2 0.346742 0.277979 0.900910
O O3 0.420558 0.420558 0.900611
O O4 0.565691 0.654686 0.750000
O O5 0.600721 0.692846 0.570814
O O6 0.486784 0.684868 0.636622
O O7 0.492999 0.564584 0.613561
O O8 0.176754 0.823247 0.500000
O O9 0.285663 0.816287 0.431473
O O10 0.518506 0.794801 0.750000
O O11 0.404047 0.737455 0.855319
O O12 0.333334 0.666667 0.500000
O O13 0.522463 0.522463 0.250000
#
# Coordination Sequence:
#
# PCOD8330141 Si02
#       6
#    12  24  24  24   8  12
#     4  11  23  37  58  80 105 139 178 223 274 320
#     4   9  18  33  49  68  94 129 167 222 283 331
#     4  10  21  37  53  77 103 135 176 225 275 334
#     4  10  21  35  49  66  95 130 172 225 287 347
#     4  12  22  32  46  63  85 128 176 224 286 357
#     4   9  19  33  51  74  97 127 176 225 269 324
#
# _framework density 18.052011
#
# number of rings (size 3 to 8) (size 9 to 14) (size 15 to 20)
#    0.000    2.077    0.000    4.154    3.231    2.769 
#    4.154    0.000    0.000    0.000    0.000    0.000 
#    0.000    0.000    0.000    0.346    0.000    0.462 
#
# Total GULP energy -1288627.749059 kJ/mol
# GULP energy per Si atom -12390.651433 kJ/mol
# Density = 1.801092 g / cm^3
# Si number density = 18.052011 Si / 1000 Ang^3
#
#
#
# Elastic Constant Matrix: (Units=GPa)
#
#
# Indices 1 2 3 4 5 6 
#
# 1 71.4807 29.2500 31.2079 -0.0001 0.0001 0.0001
# 2 29.2500 71.4816 31.2079 0.0002 0.0000 0.0004
# 3 31.2079 31.2079 110.2054 0.0000 -0.0002 0.0000
# 4 -0.0001 0.0002 0.0000 26.4745 0.0002 0.0000
# 5 0.0001 0.0000 -0.0002 0.0002 26.4747 0.0001
# 6 0.0001 0.0004 0.0000 0.0000 0.0001 21.1163
#
#
#
# Elastic Compliance Matrix: (Units=1/GPa)
#
#
# Indices 1 2 3 4 5 6 
#
# 1 0.017860 -0.005820 -0.003410 0.000000 0.000000 0.000000
# 2 -0.005820 0.017859 -0.003409 0.000000 0.000000 0.000000
# 3 -0.003410 -0.003409 0.011005 0.000000 0.000000 0.000000
# 4 0.000000 0.000000 0.000000 0.037772 0.000000 0.000000
# 5 0.000000 0.000000 0.000000 0.000000 0.037772 0.000000
# 6 0.000000 0.000000 0.000000 0.000000 0.000000 0.047357
#
#
# Mechanical properties :
#
#
# Convention : Reuss Voigt Hill
#
# Bulk Modulus (GPa) = 46.62643 48.49992 47.56317
# Shear Modulus (GPa) = 24.74622 25.57991 25.16306
#
# Velocity S-wave (km/s) = 3.70649 3.76841 3.73757
# Velocity P-wave (km/s) = 6.64849 6.77197 6.71051
#
# Compressibility (1/GPa) = 0.02144706
#
# Stress axis : x y z
#
# Youngs Moduli (GPa) = 55.99189 55.99272 90.86810
#
# Poissons Ratio (x) = 0.32585 0.30982
# Poissons Ratio (y) = 0.32585 0.30981
# Poissons Ratio (z) = 0.19091 0.19090
#
# Static dielectric constant tensor:
#      x y z
#    x 3.193490 0.000010 0.000000 
#    y 0.000010 3.193490 0.000000 
#    z 0.000000 0.000000 3.674200 
# 
# 
# High freq. dielectric constant tensor:
#      x y z
#    x 1.656280 0.000000 0.000000 
#    y 0.000000 1.656280 0.000000 
#    z 0.000000 0.000000 1.729410 
# 
# From -- ./inp_files/3747.got.cif
#   From: 2010.03.12/outbox.cif.g09.slc.cpg/sg193_2_cif.got.tgz:3747.got - 2010.04.01 12:20:39.
