data_PCOD8330469
_publ_section_title
;
Structure prediction by ZEFSAII (Michael W. Deem and Ramdas Pophale) SiO2 
 PCOD8330469
Probable space group: P 63/M M C
;
_chemical_formula_sum "Si O2"
_cell_formula_units_Z 160
_cell_length_a 25.474113
_cell_length_b 25.474113
_cell_length_c 18.451635
_cell_angle_alpha 90.000000
_cell_angle_beta 90.000000
_cell_angle_gamma 120.000000
_cell_volume 10369.638789
_symmetry_space_group_name_H-M "P 63/M M C"
_symmetry_group_IT_number 194
_symmetry_cell_setting 'hexagonal'
loop_
_space_group_symop_operation_xyz
x,y,z
x-y,x,1/2+z
-y,x-y,z
-x,-y,1/2+z
-x+y,-x,z
y,-x+y,1/2+z
x-y,-y,-z
-x,-x+y,-z
y,x,-z
-y,-x,1/2-z
-x+y,y,1/2-z
x,x-y,1/2-z
-x,-y,-z
-x+y,-x,1/2-z
y,-x+y,-z
x,y,1/2-z
x-y,x,-z
-y,x-y,1/2-z
-x+y,y,z
x,x-y,z
-y,-x,z
y,x,1/2+z
x-y,-y,1/2+z
-x,-x+y,1/2+z
loop_
_atom_site_type_symbol
_atom_site_label
_atom_site_fract_x
_atom_site_fract_y
_atom_site_fract_z
Si Si1 0.736076 0.472152 0.663810
Si Si2 0.749989 0.621739 0.462054
Si Si3 0.333334 0.666667 0.164158
Si Si4 0.750340 0.935396 0.029242
Si Si5 0.377264 0.322523 0.168971
Si Si6 0.693761 0.133736 0.605822
Si Si7 0.937159 0.688698 0.667830
Si Si8 0.543651 0.575419 0.166973
O O1 0.737678 0.475356 0.750000
O O2 0.701343 0.402686 0.636009
O O3 0.803684 0.504856 0.633099
O O4 0.808921 0.617841 0.446327
O O5 0.767545 0.688722 0.488595
O O6 0.714245 0.606211 0.387068
O O7 0.708711 0.571783 0.520931
O O8 0.333334 0.666667 0.250000
O O9 0.768999 0.884500 0.013151
O O10 0.738816 0.936196 0.115405
O O11 0.803902 0.000000 0.000000
O O12 0.384224 0.303098 0.250000
O O13 0.309538 0.309264 0.156542
O O14 0.423835 0.393500 0.156058
O O15 0.738892 0.117652 0.649897
O O16 0.623894 0.083809 0.615548
O O17 0.929205 0.704860 0.750000
O O18 0.538092 0.592337 0.250000
O O19 0.490848 0.509153 0.145144
#
# Coordination Sequence:
#
# PCOD8330469 Si02
#       8
#    12  24   4  24  24  24  24  24
#     4  11  20  34  48  66  93 127 170 208 244 284
#     4  10  19  32  47  69  97 128 159 192 238 286
#     4   9  24  36  48  66  90 132 172 206 250 297
#     4  10  19  31  48  68  95 128 157 193 237 281
#     4   9  17  31  50  68  96 129 156 195 239 289
#     4  10  19  30  46  67  94 126 157 202 239 281
#     4   9  17  29  46  72  96 122 157 193 238 287
#     4   9  18  31  48  71  96 127 162 196 240 289
#
# _framework density 15.42966
#
# number of rings (size 3 to 8) (size 9 to 14) (size 15 to 20)
#    0.000    2.400    2.250    2.250    2.100    0.600 
#    0.000    1.500    0.000    0.600    0.000    0.000 
#    0.000    0.000    0.000    0.075    0.000    0.000 
#
# Total GULP energy -1984079.563663 kJ/mol
# GULP energy per Si atom -12400.497273 kJ/mol
# Density = 1.539454 g / cm^3
# Si number density = 15.429660 Si / 1000 Ang^3
#
#
#
# Elastic Constant Matrix: (Units=GPa)
#
#
# Indices 1 2 3 4 5 6 
#
# 1 77.2297 41.0615 49.8533 0.0000 0.0000 0.0000
# 2 41.0615 77.2296 49.8533 0.0000 0.0000 0.0000
# 3 49.8533 49.8533 102.8092 0.0000 0.0000 0.0000
# 4 0.0000 0.0000 0.0000 21.1746 0.0000 0.0000
# 5 0.0000 0.0000 0.0000 0.0000 21.1745 0.0000
# 6 0.0000 0.0000 0.0000 0.0000 0.0000 18.0841
#
#
#
# Elastic Compliance Matrix: (Units=1/GPa)
#
#
# Indices 1 2 3 4 5 6 
#
# 1 0.020973 -0.006676 -0.006933 0.000000 0.000000 0.000000
# 2 -0.006676 0.020973 -0.006933 0.000000 0.000000 0.000000
# 3 -0.006933 -0.006933 0.016451 0.000000 0.000000 0.000000
# 4 0.000000 0.000000 0.000000 0.047226 0.000000 0.000000
# 5 0.000000 0.000000 0.000000 0.000000 0.047227 0.000000
# 6 0.000000 0.000000 0.000000 0.000000 0.000000 0.055297
#
#
# Mechanical properties :
#
#
# Convention : Reuss Voigt Hill
#
# Bulk Modulus (GPa) = 57.75843 59.86719 58.81281
# Shear Modulus (GPa) = 19.60775 19.85333 19.73054
#
# Velocity S-wave (km/s) = 3.56867 3.59095 3.57983
# Velocity P-wave (km/s) = 7.38209 7.48849 7.43548
#
# Compressibility (1/GPa) = 0.01731349
#
# Stress axis : x y z
#
# Youngs Moduli (GPa) = 47.68025 47.68017 60.78827
#
# Poissons Ratio (x) = 0.31829 0.42145
# Poissons Ratio (y) = 0.31829 0.42145
# Poissons Ratio (z) = 0.33057 0.33057
#
# Static dielectric constant tensor:
#      x y z
#    x 2.806180 0.000000 0.000000 
#    y 0.000000 2.806180 0.000000 
#    z 0.000000 0.000000 2.937990 
# 
# 
# High freq. dielectric constant tensor:
#      x y z
#    x 1.572940 0.000000 0.000000 
#    y 0.000000 1.572940 0.000000 
#    z 0.000000 0.000000 1.588290 
# 
# From -- ./inp_files/7161.got.cif
#   From: 2010.03.12/outbox.cif.g09.slc.cpg/sg194_4_cif.got.tgz:7161.got - 2010.04.01 12:26:19.
