data_PCOD8330810
_publ_section_title
;
Structure prediction by ZEFSAII (Michael W. Deem and Ramdas Pophale) SiO2 
 PCOD8330810
Probable space group: P 63/M M C
;
_chemical_formula_sum "Si O2"
_cell_formula_units_Z 84
_cell_length_a 20.980411
_cell_length_b 20.980411
_cell_length_c 10.809935
_cell_angle_alpha 90.000000
_cell_angle_beta 90.000000
_cell_angle_gamma 120.000000
_cell_volume 4120.801524
_symmetry_space_group_name_H-M "P 63/M M C"
_symmetry_group_IT_number 194
_symmetry_cell_setting 'hexagonal'
loop_
_space_group_symop_operation_xyz
x,y,z
x-y,x,1/2+z
-y,x-y,z
-x,-y,1/2+z
-x+y,-x,z
y,-x+y,1/2+z
x-y,-y,-z
-x,-x+y,-z
y,x,-z
-y,-x,1/2-z
-x+y,y,1/2-z
x,x-y,1/2-z
-x,-y,-z
-x+y,-x,1/2-z
y,-x+y,-z
x,y,1/2-z
x-y,x,-z
-y,x-y,1/2-z
-x+y,y,z
x,x-y,z
-y,-x,z
y,x,1/2+z
x-y,-y,1/2+z
-x,-x+y,1/2+z
loop_
_atom_site_type_symbol
_atom_site_label
_atom_site_fract_x
_atom_site_fract_y
_atom_site_fract_z
Si Si1 0.181726 0.517716 0.750000
Si Si2 0.743047 0.946387 0.610283
Si Si3 0.194470 0.667314 0.106570
Si Si4 0.413993 0.080113 0.460825
O O1 0.252708 0.505415 0.750000
O O2 0.209147 0.604574 0.750000
O O3 0.127353 0.479937 0.633984
O O4 0.767398 0.980307 0.750000
O O5 0.750206 0.875103 0.598961
O O6 0.659451 0.925223 0.590926
O O7 0.792776 0.000000 0.500000
O O8 0.208367 0.669119 0.250000
O O9 0.177290 0.588645 0.051235
O O10 0.268778 0.731223 0.041854
O O11 0.127992 0.684183 0.085660
O O12 0.400990 0.000000 0.500000
#
# Coordination Sequence:
#
# PCOD8330810 Si02
#       4
#    12  24  24  24
#     4  12  25  42  64  88 121 164 212 260 310 374
#     4  10  21  39  64  93 129 168 210 260 316 379
#     4  10  21  37  58  82 111 147 191 244 303 370
#     4  11  24  39  59  86 117 157 200 252 315 373
#
# _framework density 20.384383
#
# number of rings (size 3 to 8) (size 9 to 14) (size 15 to 20)
#    0.000    1.429    1.429    3.857    2.000    5.143 
#    0.000    2.857    0.000    0.286    0.000    0.000 
#    0.000    0.000    0.000    0.000    0.000    0.000 
#
# Total GULP energy -1040619.089443 kJ/mol
# GULP energy per Si atom -12388.322493 kJ/mol
# Density = 2.033799 g / cm^3
# Si number density = 20.384383 Si / 1000 Ang^3
#
#
#
# Elastic Constant Matrix: (Units=GPa)
#
#
# Indices 1 2 3 4 5 6 
#
# 1 100.6340 55.0416 57.1709 0.0000 0.0000 0.0000
# 2 55.0416 100.6340 57.1709 0.0000 0.0000 0.0000
# 3 57.1709 57.1709 103.6904 0.0000 0.0000 0.0000
# 4 0.0000 0.0000 0.0000 27.1891 0.0000 0.0000
# 5 0.0000 0.0000 0.0000 0.0000 27.1891 0.0000
# 6 0.0000 0.0000 0.0000 0.0000 0.0000 22.7962
#
#
#
# Elastic Compliance Matrix: (Units=1/GPa)
#
#
# Indices 1 2 3 4 5 6 
#
# 1 0.016364 -0.005569 -0.005952 0.000000 0.000000 0.000000
# 2 -0.005569 0.016364 -0.005952 0.000000 0.000000 0.000000
# 3 -0.005952 -0.005952 0.016208 0.000000 0.000000 0.000000
# 4 0.000000 0.000000 0.000000 0.036779 0.000000 0.000000
# 5 0.000000 0.000000 0.000000 0.000000 0.036779 0.000000
# 6 0.000000 0.000000 0.000000 0.000000 0.000000 0.043867
#
#
# Mechanical properties :
#
#
# Convention : Reuss Voigt Hill
#
# Bulk Modulus (GPa) = 71.48053 71.52500 71.50277
# Shear Modulus (GPa) = 24.27511 24.47323 24.37417
#
# Velocity S-wave (km/s) = 3.45464 3.46871 3.46168
# Velocity P-wave (km/s) = 7.14529 7.15590 7.15060
#
# Compressibility (1/GPa) = 0.01398982
#
# Stress axis : x y z
#
# Youngs Moduli (GPa) = 61.10810 61.10810 61.69904
#
# Poissons Ratio (x) = 0.34031 0.36724
# Poissons Ratio (y) = 0.34031 0.36724
# Poissons Ratio (z) = 0.36373 0.36373
#
# Static dielectric constant tensor:
#      x y z
#    x 3.749550 0.000000 0.000000 
#    y 0.000000 3.749550 0.000000 
#    z 0.000000 0.000000 4.191000 
# 
# 
# High freq. dielectric constant tensor:
#      x y z
#    x 1.788600 0.000000 0.000000 
#    y 0.000000 1.788600 0.000000 
#    z 0.000000 0.000000 1.816520 
# 
# From -- ./inp_files/2763.got.cif
#   From: 2010.03.12/outbox.cif.g09.slc.cpg/sg194_2_cif.got.tgz:2763.got - 2010.04.01 12:26:19.
