data_PCOD8330611
_publ_section_title
;
Structure prediction by ZEFSAII (Michael W. Deem and Ramdas Pophale) SiO2 
 PCOD8330611
Probable space group: P 63/M M C
;
_chemical_formula_sum "Si O2"
_cell_formula_units_Z 72
_cell_length_a 15.007974
_cell_length_b 15.007974
_cell_length_c 20.292205
_cell_angle_alpha 90.000000
_cell_angle_beta 90.000000
_cell_angle_gamma 120.000000
_cell_volume 3958.257197
_symmetry_space_group_name_H-M "P 63/M M C"
_symmetry_group_IT_number 194
_symmetry_cell_setting 'hexagonal'
loop_
_space_group_symop_operation_xyz
x,y,z
x-y,x,1/2+z
-y,x-y,z
-x,-y,1/2+z
-x+y,-x,z
y,-x+y,1/2+z
x-y,-y,-z
-x,-x+y,-z
y,x,-z
-y,-x,1/2-z
-x+y,y,1/2-z
x,x-y,1/2-z
-x,-y,-z
-x+y,-x,1/2-z
y,-x+y,-z
x,y,1/2-z
x-y,x,-z
-y,x-y,1/2-z
-x+y,y,z
x,x-y,z
-y,-x,z
y,x,1/2+z
x-y,-y,1/2+z
-x,-x+y,1/2+z
loop_
_atom_site_type_symbol
_atom_site_label
_atom_site_fract_x
_atom_site_fract_y
_atom_site_fract_z
Si Si1 0.976989 0.488495 0.829735
Si Si2 0.999107 0.790573 0.250000
Si Si3 0.397024 0.602977 0.827289
Si Si4 0.000000 0.788465 0.000000
Si Si5 0.932714 0.275245 0.628462
O O1 0.966803 0.483402 0.750000
O O2 0.923463 0.546907 0.862776
O O3 0.093775 0.546888 0.858616
O O4 0.098021 0.901980 0.250000
O O5 0.995092 0.725832 0.186395
O O6 0.903685 0.807370 0.250000
O O7 0.450191 0.725096 0.847014
O O8 0.405783 0.594218 0.750000
O O9 0.015177 0.729813 0.060989
O O10 0.901334 0.802667 0.010622
O O11 0.817973 0.182028 0.635026
#
# Coordination Sequence:
#
# PCOD8330611 Si02
#       5
#    12  12  12  12  24
#     4  11  20  35  59  81 115 161 191 253 314 345
#     4  10  19  33  54  84 118 148 186 245 303 366
#     4   7  14  28  43  71 107 135 177 224 272 356
#     4  10  21  39  62  90 122 160 192 239 293 370
#     4  10  22  38  56  84 117 150 206 247 290 357
#
# _framework density 18.189824000000002
#
# number of rings (size 3 to 8) (size 9 to 14) (size 15 to 20)
#    0.333    2.000    1.667    1.333    0.000    3.333 
#    1.000    3.333    0.000    0.000    0.000    0.000 
#    0.000    0.000    0.000    0.000    0.000    0.000 
#
# Total GULP energy -892306.374422 kJ/mol
# GULP energy per Si atom -12393.144089 kJ/mol
# Density = 1.814842 g / cm^3
# Si number density = 18.189824 Si / 1000 Ang^3
#
#
#
# Elastic Constant Matrix: (Units=GPa)
#
#
# Indices 1 2 3 4 5 6 
#
# 1 86.4762 44.1822 51.5558 0.0000 0.0000 0.0000
# 2 44.1822 86.4762 51.5558 0.0000 0.0000 0.0000
# 3 51.5558 51.5558 117.8607 0.0000 0.0000 0.0000
# 4 0.0000 0.0000 0.0000 17.0120 0.0000 0.0000
# 5 0.0000 0.0000 0.0000 0.0000 17.0120 0.0000
# 6 0.0000 0.0000 0.0000 0.0000 0.0000 21.1470
#
#
#
# Elastic Compliance Matrix: (Units=1/GPa)
#
#
# Indices 1 2 3 4 5 6 
#
# 1 0.017666 -0.005978 -0.005113 0.000000 0.000000 0.000000
# 2 -0.005978 0.017666 -0.005113 0.000000 0.000000 0.000000
# 3 -0.005113 -0.005113 0.012958 0.000000 0.000000 0.000000
# 4 0.000000 0.000000 0.000000 0.058782 0.000000 0.000000
# 5 0.000000 0.000000 0.000000 0.000000 0.058782 0.000000
# 6 0.000000 0.000000 0.000000 0.000000 0.000000 0.047288
#
#
# Mechanical properties :
#
#
# Convention : Reuss Voigt Hill
#
# Bulk Modulus (GPa) = 62.96020 65.04452 64.00236
# Shear Modulus (GPa) = 19.93273 20.60215 20.26744
#
# Velocity S-wave (km/s) = 3.31390 3.36909 3.34161
# Velocity P-wave (km/s) = 7.02358 7.13938 7.08172
#
# Compressibility (1/GPa) = 0.01588305
#
# Stress axis : x y z
#
# Youngs Moduli (GPa) = 56.60511 56.60511 77.17454
#
# Poissons Ratio (x) = 0.33837 0.39458
# Poissons Ratio (y) = 0.33837 0.39458
# Poissons Ratio (z) = 0.28942 0.28942
#
# Static dielectric constant tensor:
#      x y z
#    x 3.415940 0.000000 0.000000 
#    y 0.000000 3.415940 0.000000 
#    z 0.000000 0.000000 3.308020 
# 
# 
# High freq. dielectric constant tensor:
#      x y z
#    x 1.704550 0.000000 0.000000 
#    y 0.000000 1.704550 0.000000 
#    z 0.000000 0.000000 1.689650 
# 
# From -- ./inp_files/6159.got.cif
#   From: 2010.03.12/outbox.cif.g09.slc.cpg/sg194_4_cif.got.tgz:6159.got - 2010.04.01 12:26:19.
