data_PCOD8330169
_publ_section_title
;
Structure prediction by ZEFSAII (Michael W. Deem and Ramdas Pophale) SiO2 
 PCOD8330169
Probable space group: P 63/M C M
;
_chemical_formula_sum "Si O2"
_cell_formula_units_Z 72
_cell_length_a 12.609236
_cell_length_b 12.609236
_cell_length_c 28.197371
_cell_angle_alpha 90.000000
_cell_angle_beta 90.000000
_cell_angle_gamma 120.000000
_cell_volume 3882.547670
_symmetry_space_group_name_H-M "P 63/M C M"
_symmetry_group_IT_number 193
_symmetry_cell_setting 'hexagonal'
loop_
_space_group_symop_operation_xyz
x,y,z
x-y,x,1/2+z
-y,x-y,z
-x,-y,1/2+z
-x+y,-x,z
y,-x+y,1/2+z
x-y,-y,1/2-z
-x,-x+y,1/2-z
y,x,1/2-z
-y,-x,-z
-x+y,y,-z
x,x-y,-z
-x,-y,-z
-x+y,-x,1/2-z
y,-x+y,-z
x,y,1/2-z
x-y,x,-z
-y,x-y,1/2-z
-x+y,y,1/2+z
x,x-y,1/2+z
-y,-x,1/2+z
y,x,z
x-y,-y,z
-x,-x+y,z
loop_
_atom_site_type_symbol
_atom_site_label
_atom_site_fract_x
_atom_site_fract_y
_atom_site_fract_z
Si Si1 0.766190 0.282292 0.135338
Si Si2 0.677212 0.141537 0.969554
Si Si3 0.138964 0.278686 0.804479
O O1 0.803848 0.423909 0.147076
O O2 0.787856 0.281310 0.079779
O O3 0.841493 0.235769 0.165431
O O4 0.626370 0.000000 0.959982
O O5 0.802190 0.197811 0.000000
O O6 0.583018 0.166035 0.000000
O O7 0.150908 0.320164 0.750000
O O8 0.171630 0.171630 0.810381
O O9 0.000000 0.226116 0.822697
#
# Coordination Sequence:
#
# PCOD8330169 Si02
#       3
#    24  24  24
#     4  10  21  37  57  84 120 150 192 237 297 360
#     4  11  20  35  57  82 114 152 195 240 290 353
#     4  10  22  40  61  84 113 153 199 246 298 358
#
# _framework density 18.544525
#
# number of rings (size 3 to 8) (size 9 to 14) (size 15 to 20)
#    0.667    1.000    3.333    1.667    0.000    6.667 
#    0.000    3.333    0.000    0.333    0.000    0.000 
#    0.000    0.000    0.000    0.000    0.000    0.000 
#
# Total GULP energy -892078.754475 kJ/mol
# GULP energy per Si atom -12389.982701 kJ/mol
# Density = 1.850232 g / cm^3
# Si number density = 18.544525 Si / 1000 Ang^3
#
#
#
# Elastic Constant Matrix: (Units=GPa)
#
#
# Indices 1 2 3 4 5 6 
#
# 1 92.1736 36.7949 42.1964 0.0000 0.0000 0.0000
# 2 36.7949 92.1736 42.1964 0.0000 0.0000 0.0000
# 3 42.1964 42.1964 88.8212 0.0000 0.0000 0.0000
# 4 0.0000 0.0000 0.0000 20.6591 0.0000 0.0000
# 5 0.0000 0.0000 0.0000 0.0000 20.6591 0.0000
# 6 0.0000 0.0000 0.0000 0.0000 0.0000 27.6893
#
#
#
# Elastic Compliance Matrix: (Units=1/GPa)
#
#
# Indices 1 2 3 4 5 6 
#
# 1 0.014655 -0.003403 -0.005345 0.000000 0.000000 0.000000
# 2 -0.003403 0.014655 -0.005345 0.000000 0.000000 0.000000
# 3 -0.005345 -0.005345 0.016337 0.000000 0.000000 0.000000
# 4 0.000000 0.000000 0.000000 0.048405 0.000000 0.000000
# 5 0.000000 0.000000 0.000000 0.000000 0.048405 0.000000
# 6 0.000000 0.000000 0.000000 0.000000 0.000000 0.036115
#
#
# Mechanical properties :
#
#
# Convention : Reuss Voigt Hill
#
# Bulk Modulus (GPa) = 57.27585 57.28262 57.27924
# Shear Modulus (GPa) = 23.52079 23.93357 23.72718
#
# Velocity S-wave (km/s) = 3.56524 3.59639 3.58085
# Velocity P-wave (km/s) = 6.92102 6.94274 6.93189
#
# Compressibility (1/GPa) = 0.01745936
#
# Stress axis : x y z
#
# Youngs Moduli (GPa) = 68.23815 68.23815 61.20928
#
# Poissons Ratio (x) = 0.23221 0.32718
# Poissons Ratio (y) = 0.23221 0.32718
# Poissons Ratio (z) = 0.36475 0.36475
#
# Static dielectric constant tensor:
#      x y z
#    x 3.336450 0.000000 0.000000 
#    y 0.000000 3.336450 0.000000 
#    z 0.000000 0.000000 3.388630 
# 
# 
# High freq. dielectric constant tensor:
#      x y z
#    x 1.712040 0.000000 0.000000 
#    y 0.000000 1.712040 0.000000 
#    z 0.000000 0.000000 1.721430 
# 
# From -- ./inp_files/8638.got.cif
#   From: 2010.03.12/outbox.cif.g09.slc.cpg/sg193_5_cif.got.tgz:8638.got - 2010.04.01 12:20:39.
