data_PCOD8330704
_publ_section_title
;
Structure prediction by ZEFSAII (Michael W. Deem and Ramdas Pophale) SiO2 
 PCOD8330704
Probable space group: P 63/M M C
;
_chemical_formula_sum "Si O2"
_cell_formula_units_Z 132
_cell_length_a 17.919192
_cell_length_b 17.919192
_cell_length_c 27.166307
_cell_angle_alpha 90.000000
_cell_angle_beta 90.000000
_cell_angle_gamma 120.000000
_cell_volume 7554.367037
_symmetry_space_group_name_H-M "P 63/M M C"
_symmetry_group_IT_number 194
_symmetry_cell_setting 'hexagonal'
loop_
_space_group_symop_operation_xyz
x,y,z
x-y,x,1/2+z
-y,x-y,z
-x,-y,1/2+z
-x+y,-x,z
y,-x+y,1/2+z
x-y,-y,-z
-x,-x+y,-z
y,x,-z
-y,-x,1/2-z
-x+y,y,1/2-z
x,x-y,1/2-z
-x,-y,-z
-x+y,-x,1/2-z
y,-x+y,-z
x,y,1/2-z
x-y,x,-z
-y,x-y,1/2-z
-x+y,y,z
x,x-y,z
-y,-x,z
y,x,1/2+z
x-y,-y,1/2+z
-x,-x+y,1/2+z
loop_
_atom_site_type_symbol
_atom_site_label
_atom_site_fract_x
_atom_site_fract_y
_atom_site_fract_z
Si Si1 0.334195 0.834490 0.805933
Si Si2 0.159638 0.491758 0.059714
Si Si3 0.741964 0.091177 0.016946
Si Si4 0.275081 0.897692 0.345717
Si Si5 0.748990 0.082924 0.130937
Si Si6 0.487730 0.332186 0.750000
O O1 0.340041 0.865550 0.750000
O O2 0.425056 0.850112 0.825094
O O3 0.266268 0.733732 0.810940
O O4 0.309852 0.891190 0.838850
O O5 0.260026 0.520052 0.060766
O O6 0.150941 0.575471 0.059602
O O7 0.111560 0.435353 0.107305
O O8 0.113217 0.437475 0.010712
O O9 0.838936 0.161065 0.001503
O O10 0.727443 0.090214 0.074733
O O11 0.729152 0.000000 0.000000
O O12 0.176664 0.823337 0.342956
O O13 0.326181 0.895191 0.297493
O O14 0.269368 0.985094 0.351759
O O15 0.851665 0.148336 0.141551
O O16 0.577182 0.422819 0.750000
O O17 0.509981 0.254991 0.750000
#
# Coordination Sequence:
#
# PCOD8330704 Si02
#       6
#    24  24  24  24  24  12
#     4   9  18  32  50  72 101 137 175 212 251 297
#     4  10  20  34  52  75 104 140 178 217 259 308
#     4  10  20  36  55  76 102 135 173 215 266 318
#     4  10  21  37  55  77 105 137 176 218 265 315
#     4  10  21  36  53  77 105 135 171 213 265 317
#     4  10  21  36  55  80 112 148 184 222 263 304
#
# _framework density 17.473336
#
# number of rings (size 3 to 8) (size 9 to 14) (size 15 to 20)
#    0.000    2.182    1.818    1.000    1.273    3.273 
#    0.000    1.818    0.000    2.727    0.000    0.000 
#    0.000    0.000    0.000    0.000    0.000    0.000 
#
# Total GULP energy -1636471.937264 kJ/mol
# GULP energy per Si atom -12397.514676 kJ/mol
# Density = 1.743357 g / cm^3
# Si number density = 17.473336 Si / 1000 Ang^3
#
#
#
# Elastic Constant Matrix: (Units=GPa)
#
#
# Indices 1 2 3 4 5 6 
#
# 1 105.8096 75.3043 45.5816 0.0000 0.0000 0.0000
# 2 75.3043 105.8096 45.5816 0.0000 0.0000 0.0000
# 3 45.5816 45.5816 85.8987 0.0000 0.0000 0.0000
# 4 0.0000 0.0000 0.0000 20.5897 0.0000 0.0000
# 5 0.0000 0.0000 0.0000 0.0000 20.5897 0.0000
# 6 0.0000 0.0000 0.0000 0.0000 0.0000 15.2526
#
#
#
# Elastic Compliance Matrix: (Units=1/GPa)
#
#
# Indices 1 2 3 4 5 6 
#
# 1 0.020157 -0.012624 -0.003998 0.000000 0.000000 0.000000
# 2 -0.012624 0.020157 -0.003998 0.000000 0.000000 0.000000
# 3 -0.003998 -0.003998 0.015884 0.000000 0.000000 0.000000
# 4 0.000000 0.000000 0.000000 0.048568 0.000000 0.000000
# 5 0.000000 0.000000 0.000000 0.000000 0.048568 0.000000
# 6 0.000000 0.000000 0.000000 0.000000 0.000000 0.065562
#
#
# Mechanical properties :
#
#
# Convention : Reuss Voigt Hill
#
# Bulk Modulus (GPa) = 66.84113 70.05034 68.44574
# Shear Modulus (GPa) = 18.85919 20.02309 19.44114
#
# Velocity S-wave (km/s) = 3.28885 3.38882 3.33921
# Velocity P-wave (km/s) = 7.26349 7.44909 7.35688
#
# Compressibility (1/GPa) = 0.01496085
#
# Stress axis : x y z
#
# Youngs Moduli (GPa) = 49.60955 49.60955 62.95528
#
# Poissons Ratio (x) = 0.62626 0.25167
# Poissons Ratio (y) = 0.62626 0.25167
# Poissons Ratio (z) = 0.19832 0.19832
#
# Static dielectric constant tensor:
#      x y z
#    x 3.299640 0.000000 0.000000 
#    y 0.000000 3.299640 0.000000 
#    z 0.000000 0.000000 3.381360 
# 
# 
# High freq. dielectric constant tensor:
#      x y z
#    x 1.665640 0.000000 0.000000 
#    y 0.000000 1.665640 0.000000 
#    z 0.000000 0.000000 1.691390 
# 
# From -- ./inp_files/10819.got.cif
#   From: 2010.03.12/outbox.cif.g09.slc.cpg/sg194_6_cif.got.tgz:10819.got - 2010.04.01 12:26:19.
