data_PCOD8330015
_publ_section_title
;
Structure prediction by ZEFSAII (Michael W. Deem and Ramdas Pophale) SiO2 
 PCOD8330015
Probable space group: P 63/M C M
;
_chemical_formula_sum "Si O2"
_cell_formula_units_Z 132
_cell_length_a 25.201251
_cell_length_b 25.201251
_cell_length_c 13.761751
_cell_angle_alpha 90.000000
_cell_angle_beta 90.000000
_cell_angle_gamma 120.000000
_cell_volume 7569.174665
_symmetry_space_group_name_H-M "P 63/M C M"
_symmetry_group_IT_number 193
_symmetry_cell_setting 'hexagonal'
loop_
_space_group_symop_operation_xyz
x,y,z
x-y,x,1/2+z
-y,x-y,z
-x,-y,1/2+z
-x+y,-x,z
y,-x+y,1/2+z
x-y,-y,1/2-z
-x,-x+y,1/2-z
y,x,1/2-z
-y,-x,-z
-x+y,y,-z
x,x-y,-z
-x,-y,-z
-x+y,-x,1/2-z
y,-x+y,-z
x,y,1/2-z
x-y,x,-z
-y,x-y,1/2-z
-x+y,y,1/2+z
x,x-y,1/2+z
-y,-x,1/2+z
y,x,z
x-y,-y,z
-x,-x+y,z
loop_
_atom_site_type_symbol
_atom_site_label
_atom_site_fract_x
_atom_site_fract_y
_atom_site_fract_z
Si Si1 0.533025 0.183132 0.974452
Si Si2 0.743898 0.514342 0.363434
Si Si3 0.234875 0.367919 0.363459
Si Si4 0.929906 0.164385 0.639122
Si Si5 0.929475 0.858950 0.000000
Si Si6 0.556710 0.929342 0.135130
O O1 0.529802 0.229808 0.896917
O O2 0.503970 0.115186 0.927120
O O3 0.603444 0.206888 0.000000
O O4 0.498894 0.183400 0.074368
O O5 0.726737 0.503450 0.250000
O O6 0.795924 0.584450 0.386206
O O7 0.235344 0.357023 0.250000
O O8 0.189705 0.301537 0.410400
O O9 0.304314 0.393495 0.399464
O O10 0.911776 0.146859 0.750000
O O11 0.917505 0.101671 0.591751
O O12 0.000000 0.217505 0.626213
O O13 0.901493 0.901493 0.026214
O O14 0.542385 0.917230 0.250000
O O15 0.580468 0.000000 0.108869
#
# Coordination Sequence:
#
# PCOD8330015 Si02
#       6
#    24  24  24  24  12  24
#     4  10  20  33  50  72 101 127 166 213 248 284
#     4   9  19  35  53  72  96 132 168 200 250 306
#     4   8  14  28  50  73  97 121 150 193 243 297
#     4   9  17  29  47  72  96 115 144 192 243 286
#     4  10  21  34  46  62  88 126 168 202 234 276
#     4   9  17  30  50  75 101 130 161 194 241 300
#
# _framework density 17.439153000000001
#
# number of rings (size 3 to 8) (size 9 to 14) (size 15 to 20)
#    0.000    2.909    0.000    2.273    0.000    7.273 
#    4.364    0.000    0.000    1.636    0.000    2.545 
#    0.000    0.000    0.000    0.000    0.000    0.000 
#
# Total GULP energy -1636049.068346 kJ/mol
# GULP energy per Si atom -12394.311124 kJ/mol
# Density = 1.739946 g / cm^3
# Si number density = 17.439153 Si / 1000 Ang^3
#
#
#
# Elastic Constant Matrix: (Units=GPa)
#
#
# Indices 1 2 3 4 5 6 
#
# 1 86.2767 43.5433 35.1286 0.0000 0.0000 0.0000
# 2 43.5433 86.2767 35.1286 0.0000 0.0000 0.0000
# 3 35.1286 35.1286 84.9354 0.0000 0.0000 0.0000
# 4 0.0000 0.0000 0.0000 24.0947 0.0000 0.0000
# 5 0.0000 0.0000 0.0000 0.0000 24.0947 0.0000
# 6 0.0000 0.0000 0.0000 0.0000 0.0000 21.3667
#
#
#
# Elastic Compliance Matrix: (Units=1/GPa)
#
#
# Indices 1 2 3 4 5 6 
#
# 1 0.016663 -0.006738 -0.004105 0.000000 0.000000 0.000000
# 2 -0.006738 0.016663 -0.004105 0.000000 0.000000 0.000000
# 3 -0.004105 -0.004105 0.015169 0.000000 0.000000 0.000000
# 4 0.000000 0.000000 0.000000 0.041503 0.000000 0.000000
# 5 0.000000 0.000000 0.000000 0.000000 0.041503 0.000000
# 6 0.000000 0.000000 0.000000 0.000000 0.000000 0.046802
#
#
# Mechanical properties :
#
#
# Convention : Reuss Voigt Hill
#
# Bulk Modulus (GPa) = 53.76600 53.89888 53.83244
# Shear Modulus (GPa) = 23.32124 23.49041 23.40583
#
# Velocity S-wave (km/s) = 3.66087 3.67412 3.66750
# Velocity P-wave (km/s) = 6.98332 6.99806 6.99070
#
# Compressibility (1/GPa) = 0.01859911
#
# Stress axis : x y z
#
# Youngs Moduli (GPa) = 60.01450 60.01450 65.92417
#
# Poissons Ratio (x) = 0.40439 0.27060
# Poissons Ratio (y) = 0.40439 0.27060
# Poissons Ratio (z) = 0.24634 0.24634
#
# Static dielectric constant tensor:
#      x y z
#    x 3.236380 0.000000 0.000000 
#    y 0.000000 3.236380 0.000000 
#    z 0.000000 0.000000 3.255970 
# 
# 
# High freq. dielectric constant tensor:
#      x y z
#    x 1.663830 0.000000 0.000000 
#    y 0.000000 1.663830 0.000000 
#    z 0.000000 0.000000 1.662950 
# 
# From -- ./inp_files/4128.got.cif
#   From: 2010.03.12/outbox.cif.g09.slc.cpg/sg193_3_cif.got.tgz:4128.got - 2010.04.01 12:20:39.
