data_PCOD8330382
_publ_section_title
;
Structure prediction by ZEFSAII (Michael W. Deem and Ramdas Pophale) SiO2 
 PCOD8330382
Probable space group: P 63/M M C
;
_chemical_formula_sum "Si O2"
_cell_formula_units_Z 168
_cell_length_a 24.035172
_cell_length_b 24.035172
_cell_length_c 19.140697
_cell_angle_alpha 90.000000
_cell_angle_beta 90.000000
_cell_angle_gamma 120.000000
_cell_volume 9575.971587
_symmetry_space_group_name_H-M "P 63/M M C"
_symmetry_group_IT_number 194
_symmetry_cell_setting 'hexagonal'
loop_
_space_group_symop_operation_xyz
x,y,z
x-y,x,1/2+z
-y,x-y,z
-x,-y,1/2+z
-x+y,-x,z
y,-x+y,1/2+z
x-y,-y,-z
-x,-x+y,-z
y,x,-z
-y,-x,1/2-z
-x+y,y,1/2-z
x,x-y,1/2-z
-x,-y,-z
-x+y,-x,1/2-z
y,-x+y,-z
x,y,1/2-z
x-y,x,-z
-y,x-y,1/2-z
-x+y,y,z
x,x-y,z
-y,-x,z
y,x,1/2+z
x-y,-y,1/2+z
-x,-x+y,1/2+z
loop_
_atom_site_type_symbol
_atom_site_label
_atom_site_fract_x
_atom_site_fract_y
_atom_site_fract_z
Si Si1 0.697964 0.952346 0.327630
Si Si2 0.295070 0.915675 0.827147
Si Si3 0.861659 0.597857 0.028314
Si Si4 0.494411 0.116250 0.935838
Si Si5 0.841358 0.282932 0.827355
Si Si6 0.436669 0.997064 0.327502
Si Si7 0.736902 0.931589 0.031036
O O1 0.714553 0.937662 0.250000
O O2 0.620836 0.911577 0.338759
O O3 0.735924 0.935262 0.384679
O O4 0.720211 0.026834 0.335713
O O5 0.272227 0.884118 0.750000
O O6 0.260127 0.863575 0.887600
O O7 0.370172 0.942257 0.837386
O O8 0.789517 0.579034 0.004790
O O9 0.880911 0.545378 0.002610
O O10 0.913362 0.666561 0.996677
O O11 0.565298 0.130596 0.958977
O O12 0.498171 0.169089 0.880444
O O13 0.456891 0.049984 0.893364
O O14 0.831330 0.301561 0.750000
O O15 0.790868 0.209133 0.844501
O O16 0.408254 0.964469 0.250000
O O17 0.512583 0.025165 0.327779
O O18 0.755105 0.877553 0.009548
O O19 0.790177 0.000000 0.000000
#
# Coordination Sequence:
#
# PCOD8330382 Si02
#       7
#    24  24  24  24  24  24  24
#     4  10  18  30  51  80 111 144 178 214 260 319
#     4  10  19  33  53  74 104 136 163 207 264 328
#     4  11  23  37  53  74 101 137 181 225 271 320
#     4  11  21  32  49  72 101 137 174 213 261 313
#     4  10  18  29  48  74 104 140 181 216 252 310
#     4   9  17  29  47  74 105 133 160 192 243 314
#     4  11  21  35  56  81 113 149 185 226 270 317
#
# _framework density 17.543911000000001
#
# number of rings (size 3 to 8) (size 9 to 14) (size 15 to 20)
#    0.000    1.714    4.286    1.286    0.000    2.571 
#    0.000    1.429    0.000    2.857    0.000    0.000 
#    0.000    0.000    0.000    0.000    0.000    0.000 
#
# Total GULP energy -2081802.263244 kJ/mol
# GULP energy per Si atom -12391.680138 kJ/mol
# Density = 1.750398 g / cm^3
# Si number density = 17.543911 Si / 1000 Ang^3
#
#
#
# Elastic Constant Matrix: (Units=GPa)
#
#
# Indices 1 2 3 4 5 6 
#
# 1 60.7424 32.7132 32.5360 0.0000 0.0000 0.0000
# 2 32.7132 60.7424 32.5360 0.0000 0.0000 0.0000
# 3 32.5360 32.5360 120.9288 0.0000 0.0000 0.0000
# 4 0.0000 0.0000 0.0000 20.0714 0.0000 0.0000
# 5 0.0000 0.0000 0.0000 0.0000 20.0714 0.0000
# 6 0.0000 0.0000 0.0000 0.0000 0.0000 14.0146
#
#
#
# Elastic Compliance Matrix: (Units=1/GPa)
#
#
# Indices 1 2 3 4 5 6 
#
# 1 0.024422 -0.011255 -0.003543 0.000000 0.000000 0.000000
# 2 -0.011255 0.024422 -0.003543 0.000000 0.000000 0.000000
# 3 -0.003543 -0.003543 0.010176 0.000000 0.000000 0.000000
# 4 0.000000 0.000000 0.000000 0.049822 0.000000 0.000000
# 5 0.000000 0.000000 0.000000 0.000000 0.049822 0.000000
# 6 0.000000 0.000000 0.000000 0.000000 0.000000 0.071354
#
#
# Mechanical properties :
#
#
# Convention : Reuss Voigt Hill
#
# Bulk Modulus (GPa) = 44.76448 48.66489 46.71469
# Shear Modulus (GPa) = 18.23851 20.47335 19.35593
#
# Velocity S-wave (km/s) = 3.22777 3.41981 3.32518
# Velocity P-wave (km/s) = 6.28191 6.58731 6.43642
#
# Compressibility (1/GPa) = 0.02233914
#
# Stress axis : x y z
#
# Youngs Moduli (GPa) = 40.94665 40.94665 98.27435
#
# Poissons Ratio (x) = 0.46086 0.34814
# Poissons Ratio (y) = 0.46086 0.34814
# Poissons Ratio (z) = 0.14506 0.14506
#
# Static dielectric constant tensor:
#      x y z
#    x 3.009270 0.000000 0.000000 
#    y 0.000000 3.009270 0.000000 
#    z 0.000000 0.000000 3.536230 
# 
# 
# High freq. dielectric constant tensor:
#      x y z
#    x 1.643030 0.000000 0.000000 
#    y 0.000000 1.643030 0.000000 
#    z 0.000000 0.000000 1.696090 
# 
# From -- ./inp_files/8623.got.cif
#   From: 2010.03.12/outbox.cif.g09.slc.cpg/sg194_5_cif.got.tgz:8623.got - 2010.04.01 12:26:19.
