data_PCOD8330281
_publ_section_title
;
Structure prediction by ZEFSAII (Michael W. Deem and Ramdas Pophale) SiO2 
 PCOD8330281
Probable space group: P 63/M C M
;
_chemical_formula_sum "Si O2"
_cell_formula_units_Z 192
_cell_length_a 30.364899
_cell_length_b 30.364899
_cell_length_c 15.158069
_cell_angle_alpha 90.000000
_cell_angle_beta 90.000000
_cell_angle_gamma 120.000000
_cell_volume 12103.701180
_symmetry_space_group_name_H-M "P 63/M C M"
_symmetry_group_IT_number 193
_symmetry_cell_setting 'hexagonal'
loop_
_space_group_symop_operation_xyz
x,y,z
x-y,x,1/2+z
-y,x-y,z
-x,-y,1/2+z
-x+y,-x,z
y,-x+y,1/2+z
x-y,-y,1/2-z
-x,-x+y,1/2-z
y,x,1/2-z
-y,-x,-z
-x+y,y,-z
x,x-y,-z
-x,-y,-z
-x+y,-x,1/2-z
y,-x+y,-z
x,y,1/2-z
x-y,x,-z
-y,x-y,1/2-z
-x+y,y,1/2+z
x,x-y,1/2+z
-y,-x,1/2+z
y,x,z
x-y,-y,z
-x,-x+y,z
loop_
_atom_site_type_symbol
_atom_site_label
_atom_site_fract_x
_atom_site_fract_y
_atom_site_fract_z
Si Si1 0.531519 0.664371 0.148516
Si Si2 0.270245 0.326662 1.000000
Si Si3 0.333183 0.567631 0.145199
Si Si4 0.131486 0.766575 0.350090
Si Si5 0.568962 0.943466 0.500000
Si Si6 0.868514 0.635089 0.850090
Si Si7 0.567631 0.234448 0.145199
Si Si8 0.468481 0.335629 0.351484
O O1 0.526554 0.646328 0.250000
O O2 0.538810 0.624784 0.088203
O O3 0.577848 0.721230 0.135872
O O4 0.481614 0.664490 0.114282
O O5 0.277317 0.277317 1.000000
O O6 0.324598 0.376596 0.000000
O O7 0.239496 0.325613 0.912729
O O8 0.239496 0.325613 0.087271
O O9 0.331896 0.569135 0.250000
O O10 0.282682 0.565365 0.106172
O O11 0.382287 0.617713 0.107862
O O12 0.335510 0.518386 0.114282
O O13 0.114527 0.767596 0.250000
O O14 0.182069 0.817931 0.375694
O O15 0.143382 0.721230 0.364128
O O16 0.538810 0.914026 0.411797
O O17 0.576164 0.000000 0.500000
O O18 0.885473 0.653069 0.750000
O O19 0.569135 0.237240 0.250000
O O20 0.473446 0.353672 0.250000
#
# Coordination Sequence:
#
# PCOD8330281 Si02
#       8
#    24  24  24  24  24  24  24  24
#     4   9  17  29  46  66  87 111 137 167 203 244
#     4   9  17  27  39  58  83 107 132 166 208 252
#     4   9  16  27  45  68  92 115 138 165 200 245
#     4   9  16  26  41  60  81 106 137 171 206 245
#     4   9  18  31  46  65  85 106 136 170 205 245
#     4   9  16  26  41  60  81 106 137 171 206 245
#     4   9  16  27  45  68  92 115 138 165 200 245
#     4   9  17  29  46  66  87 111 137 167 203 244
#
# _framework density 15.862916999999999
#
# number of rings (size 3 to 8) (size 9 to 14) (size 15 to 20)
#    0.000    3.000    0.000    1.375    0.000    5.000 
#    0.000    7.500    0.000    1.500    0.000    5.250 
#    0.000    0.000    0.000    0.000    0.000    0.000 
#
# Total GULP energy -2380388.306124 kJ/mol
# GULP energy per Si atom -12397.855761 kJ/mol
# Density = 1.582681 g / cm^3
# Si number density = 15.862917 Si / 1000 Ang^3
#
#
#
# Elastic Constant Matrix: (Units=GPa)
#
#
# Indices 1 2 3 4 5 6 
#
# 1 88.3116 68.0437 49.5927 0.0000 0.0000 0.0000
# 2 68.0437 88.3116 49.5927 0.0000 0.0000 0.0000
# 3 49.5927 49.5927 86.6934 0.0000 0.0000 0.0000
# 4 0.0000 0.0000 0.0000 12.7866 0.0000 0.0000
# 5 0.0000 0.0000 0.0000 0.0000 12.7866 0.0000
# 6 0.0000 0.0000 0.0000 0.0000 0.0000 10.1339
#
#
#
# Elastic Compliance Matrix: (Units=1/GPa)
#
#
# Indices 1 2 3 4 5 6 
#
# 1 0.029689 -0.019650 -0.005742 0.000000 0.000000 0.000000
# 2 -0.019650 0.029689 -0.005742 0.000000 0.000000 0.000000
# 3 -0.005742 -0.005742 0.018105 0.000000 0.000000 0.000000
# 4 0.000000 0.000000 0.000000 0.078207 0.000000 0.000000
# 5 0.000000 0.000000 0.000000 0.000000 0.078207 0.000000
# 6 0.000000 0.000000 0.000000 0.000000 0.000000 0.098678
#
#
# Mechanical properties :
#
#
# Convention : Reuss Voigt Hill
#
# Bulk Modulus (GPa) = 65.73811 66.41943 66.07877
# Shear Modulus (GPa) = 12.50264 13.54727 13.02495
#
# Velocity S-wave (km/s) = 2.81048 2.92553 2.86858
# Velocity P-wave (km/s) = 7.21547 7.30571 7.26073
#
# Compressibility (1/GPa) = 0.01521188
#
# Stress axis : x y z
#
# Youngs Moduli (GPa) = 33.68274 33.68274 55.23392
#
# Poissons Ratio (x) = 0.66188 0.31718
# Poissons Ratio (y) = 0.66188 0.31718
# Poissons Ratio (z) = 0.19342 0.19342
#
# Static dielectric constant tensor:
#      x y z
#    x 2.962290 0.000000 0.000000 
#    y 0.000000 2.962290 0.000000 
#    z 0.000000 0.000000 3.068660 
# 
# 
# High freq. dielectric constant tensor:
#      x y z
#    x 1.580280 0.000000 0.000000 
#    y 0.000000 1.580280 0.000000 
#    z 0.000000 0.000000 1.615710 
# 
# From -- ./inp_files/4500.got.cif
#   From: 2010.03.12/outbox.cif.g09.slc.cpg/sg193_3_cif.got.tgz:4500.got - 2010.04.01 12:20:39.
