data_PCOD8330111
_publ_section_title
;
Structure prediction by ZEFSAII (Michael W. Deem and Ramdas Pophale) SiO2 
 PCOD8330111
Probable space group: P 63/M C M
;
_chemical_formula_sum "Si O2"
_cell_formula_units_Z 72
_cell_length_a 16.369671
_cell_length_b 16.369671
_cell_length_c 15.577200
_cell_angle_alpha 90.000000
_cell_angle_beta 90.000000
_cell_angle_gamma 120.000000
_cell_volume 3614.930313
_symmetry_space_group_name_H-M "P 63/M C M"
_symmetry_group_IT_number 193
_symmetry_cell_setting 'hexagonal'
loop_
_space_group_symop_operation_xyz
x,y,z
x-y,x,1/2+z
-y,x-y,z
-x,-y,1/2+z
-x+y,-x,z
y,-x+y,1/2+z
x-y,-y,1/2-z
-x,-x+y,1/2-z
y,x,1/2-z
-y,-x,-z
-x+y,y,-z
x,x-y,-z
-x,-y,-z
-x+y,-x,1/2-z
y,-x+y,-z
x,y,1/2-z
x-y,x,-z
-y,x-y,1/2-z
-x+y,y,1/2+z
x,x-y,1/2+z
-y,-x,1/2+z
y,x,z
x-y,-y,z
-x,-x+y,z
loop_
_atom_site_type_symbol
_atom_site_label
_atom_site_fract_x
_atom_site_fract_y
_atom_site_fract_z
Si Si1 0.775750 0.888014 0.250000
Si Si2 0.786365 0.674927 0.583758
Si Si3 0.489143 0.888286 0.084857
Si Si4 0.395919 0.609107 0.250000
O O1 0.837241 0.837241 0.250000
O O2 0.707719 0.854926 0.167308
O O3 0.846529 0.000000 0.250000
O O4 0.850036 0.700072 0.500000
O O5 0.730784 0.730784 0.577841
O O6 0.712354 0.563344 0.588160
O O7 0.420575 0.851363 0.166139
O O8 0.542373 0.000000 0.087543
O O9 0.424687 0.849373 0.000000
O O10 0.440984 0.722315 0.250000
#
# Coordination Sequence:
#
# PCOD8330111 Si02
#       4
#    12  24  24  12
#     4  10  20  36  58  85 119 158 198 241 290 347
#     4  10  21  36  59  85 117 155 193 242 292 344
#     4  10  22  41  62  84 116 156 192 236 293 352
#     4  10  24  36  58  89 111 146 187 235 289 333
#
# _framework density 19.917396
#
# number of rings (size 3 to 8) (size 9 to 14) (size 15 to 20)
#    0.333    1.667    0.000    2.667    4.667    2.667 
#    0.000    0.000    0.000    5.333    0.000    0.000 
#    0.000    0.000    0.000    0.000    0.000    0.000 
#
# Total GULP energy -892842.171483 kJ/mol
# GULP energy per Si atom -12400.585715 kJ/mol
# Density = 1.987206 g / cm^3
# Si number density = 19.917396 Si / 1000 Ang^3
#
#
#
# Elastic Constant Matrix: (Units=GPa)
#
#
# Indices 1 2 3 4 5 6 
#
# 1 58.6734 28.7827 50.1702 0.0000 0.0000 0.0000
# 2 28.7827 58.6734 50.1702 0.0000 0.0000 0.0000
# 3 50.1702 50.1702 203.2802 0.0000 0.0000 0.0000
# 4 0.0000 0.0000 0.0000 26.9149 0.0000 0.0000
# 5 0.0000 0.0000 0.0000 0.0000 26.9149 0.0000
# 6 0.0000 0.0000 0.0000 0.0000 0.0000 14.9454
#
#
#
# Elastic Compliance Matrix: (Units=1/GPa)
#
#
# Indices 1 2 3 4 5 6 
#
# 1 0.024703 -0.008752 -0.003937 0.000000 0.000000 0.000000
# 2 -0.008752 0.024703 -0.003937 0.000000 0.000000 0.000000
# 3 -0.003937 -0.003937 0.006863 0.000000 0.000000 0.000000
# 4 0.000000 0.000000 0.000000 0.037154 0.000000 0.000000
# 5 0.000000 0.000000 0.000000 0.000000 0.037154 0.000000
# 6 0.000000 0.000000 0.000000 0.000000 0.000000 0.066910
#
#
# Mechanical properties :
#
#
# Convention : Reuss Voigt Hill
#
# Bulk Modulus (GPa) = 43.44506 64.31925 53.88216
# Shear Modulus (GPa) = 20.97216 26.52195 23.74705
#
# Velocity S-wave (km/s) = 3.24845 3.65306 3.45668
# Velocity P-wave (km/s) = 5.99415 7.08211 6.56072
#
# Compressibility (1/GPa) = 0.02301757
#
# Stress axis : x y z
#
# Youngs Moduli (GPa) = 40.48068 40.48068 145.71860
#
# Poissons Ratio (x) = 0.35429 0.57366
# Poissons Ratio (y) = 0.35429 0.57366
# Poissons Ratio (z) = 0.15936 0.15936
#
# Static dielectric constant tensor:
#      x y z
#    x 3.555460 0.000000 0.000000 
#    y 0.000000 3.555460 0.000000 
#    z 0.000000 0.000000 4.236790 
# 
# 
# High freq. dielectric constant tensor:
#      x y z
#    x 1.771900 0.000000 0.000000 
#    y 0.000000 1.771900 0.000000 
#    z 0.000000 0.000000 1.793620 
# 
# From -- ./inp_files/3278.got.cif
#   From: 2010.03.12/outbox.cif.g09.slc.cpg/sg193_2_cif.got.tgz:3278.got - 2010.04.01 12:20:39.
