data_PCOD8330022
_publ_section_title
;
Structure prediction by ZEFSAII (Michael W. Deem and Ramdas Pophale) SiO2 
 PCOD8330022
Probable space group: P 63/M C M
;
_chemical_formula_sum "Si O2"
_cell_formula_units_Z 144
_cell_length_a 32.355453
_cell_length_b 32.355453
_cell_length_c 8.746439
_cell_angle_alpha 90.000000
_cell_angle_beta 90.000000
_cell_angle_gamma 120.000000
_cell_volume 7929.702107
_symmetry_space_group_name_H-M "P 63/M C M"
_symmetry_group_IT_number 193
_symmetry_cell_setting 'hexagonal'
loop_
_space_group_symop_operation_xyz
x,y,z
x-y,x,1/2+z
-y,x-y,z
-x,-y,1/2+z
-x+y,-x,z
y,-x+y,1/2+z
x-y,-y,1/2-z
-x,-x+y,1/2-z
y,x,1/2-z
-y,-x,-z
-x+y,y,-z
x,x-y,-z
-x,-y,-z
-x+y,-x,1/2-z
y,-x+y,-z
x,y,1/2-z
x-y,x,-z
-y,x-y,1/2-z
-x+y,y,1/2+z
x,x-y,1/2+z
-y,-x,1/2+z
y,x,z
x-y,-y,z
-x,-x+y,z
loop_
_atom_site_type_symbol
_atom_site_label
_atom_site_fract_x
_atom_site_fract_y
_atom_site_fract_z
Si Si1 0.704253 0.895733 0.569545
Si Si2 0.805215 0.945529 0.429007
Si Si3 0.431429 0.053495 0.074032
Si Si4 0.527537 0.383773 0.570655
Si Si5 0.279709 0.899140 0.927767
Si Si6 0.282895 0.477023 0.429852
O O1 0.687628 0.843814 0.500000
O O2 0.707592 0.893296 0.750000
O O3 0.755600 0.934580 0.504819
O O4 0.665986 0.911066 0.524488
O O5 0.823977 0.911989 0.500000
O O6 0.796307 0.934941 0.250000
O O7 0.844811 0.000000 0.462635
O O8 0.422469 0.061438 0.250000
O O9 0.485990 0.090126 0.028015
O O10 0.421214 0.000000 0.044901
O O11 0.395394 0.061820 0.970265
O O12 0.576521 0.423480 0.500000
O O13 0.533920 0.382171 0.750000
O O14 0.515284 0.333209 0.501060
O O15 0.270855 0.902939 0.750000
O O16 0.270353 0.846824 0.972359
O O17 0.243441 0.486883 0.500000
O O18 0.285484 0.484685 0.250000
#
# Coordination Sequence:
#
# PCOD8330022 Si02
#       6
#    24  24  24  24  24  24
#     4  11  21  33  51  74 103 138 174 212 253 300
#     4  10  21  37  57  80 105 134 169 209 253 302
#     4   9  19  35  52  72 101 138 179 221 265 309
#     4  10  20  35  55  78 105 136 172 215 261 311
#     4  10  20  33  50  74 105 140 178 219 260 304
#     4  10  20  34  54  79 105 135 171 211 259 311
#
# _framework density 18.159573000000002
#
# number of rings (size 3 to 8) (size 9 to 14) (size 15 to 20)
#    0.000    2.000    0.000    5.000    0.000    6.667 
#    0.000    0.000    0.000    0.500    0.000    2.333 
#    0.000    0.000    0.000    0.000    0.000    0.000 
#
# Total GULP energy -1786139.832200 kJ/mol
# GULP energy per Si atom -12403.748835 kJ/mol
# Density = 1.811824 g / cm^3
# Si number density = 18.159573 Si / 1000 Ang^3
#
#
#
# Elastic Constant Matrix: (Units=GPa)
#
#
# Indices 1 2 3 4 5 6 
#
# 1 108.3042 66.6607 52.6895 0.0000 0.0000 0.0000
# 2 66.6607 108.3042 52.6895 0.0000 0.0000 0.0000
# 3 52.6895 52.6895 110.7962 0.0000 0.0000 0.0000
# 4 0.0000 0.0000 0.0000 29.6928 0.0000 0.0000
# 5 0.0000 0.0000 0.0000 0.0000 29.6928 0.0000
# 6 0.0000 0.0000 0.0000 0.0000 0.0000 20.8217
#
#
#
# Elastic Compliance Matrix: (Units=1/GPa)
#
#
# Indices 1 2 3 4 5 6 
#
# 1 0.016011 -0.008002 -0.003809 0.000000 0.000000 0.000000
# 2 -0.008002 0.016011 -0.003809 0.000000 0.000000 0.000000
# 3 -0.003809 -0.003809 0.012648 0.000000 0.000000 0.000000
# 4 0.000000 0.000000 0.000000 0.033678 0.000000 0.000000
# 5 0.000000 0.000000 0.000000 0.000000 0.033678 0.000000
# 6 0.000000 0.000000 0.000000 0.000000 0.000000 0.048027
#
#
# Mechanical properties :
#
#
# Convention : Reuss Voigt Hill
#
# Bulk Modulus (GPa) = 74.45171 74.60931 74.53051
# Shear Modulus (GPa) = 25.54004 26.39914 25.96959
#
# Velocity S-wave (km/s) = 3.75430 3.81692 3.78574
# Velocity P-wave (km/s) = 7.73826 7.78458 7.76146
#
# Compressibility (1/GPa) = 0.01343153
#
# Stress axis : x y z
#
# Youngs Moduli (GPa) = 62.45535 62.45535 79.06210
#
# Poissons Ratio (x) = 0.49976 0.30114
# Poissons Ratio (y) = 0.49976 0.30114
# Poissons Ratio (z) = 0.23789 0.23789
#
# Static dielectric constant tensor:
#      x y z
#    x 3.263790 0.000000 0.000000 
#    y 0.000000 3.263790 0.000000 
#    z 0.000000 0.000000 3.480100 
# 
# 
# High freq. dielectric constant tensor:
#      x y z
#    x 1.693520 0.000000 0.000000 
#    y 0.000000 1.693520 0.000000 
#    z 0.000000 0.000000 1.720150 
# 
# From -- ./inp_files/1583.got.cif
#   From: 2010.03.12/outbox.cif.g09.slc.cpg/sg193_1_cif.got.tgz:1583.got - 2010.04.01 12:20:39.
