data_PCOD8330601
_publ_section_title
;
Structure prediction by ZEFSAII (Michael W. Deem and Ramdas Pophale) SiO2 
 PCOD8330601
Probable space group: P 63/M M C
;
_chemical_formula_sum "Si O2"
_cell_formula_units_Z 100
_cell_length_a 26.097055
_cell_length_b 26.097055
_cell_length_c 9.612706
_cell_angle_alpha 90.000000
_cell_angle_beta 90.000000
_cell_angle_gamma 120.000000
_cell_volume 5669.689732
_symmetry_space_group_name_H-M "P 63/M M C"
_symmetry_group_IT_number 194
_symmetry_cell_setting 'hexagonal'
loop_
_space_group_symop_operation_xyz
x,y,z
x-y,x,1/2+z
-y,x-y,z
-x,-y,1/2+z
-x+y,-x,z
y,-x+y,1/2+z
x-y,-y,-z
-x,-x+y,-z
y,x,-z
-y,-x,1/2-z
-x+y,y,1/2-z
x,x-y,1/2-z
-x,-y,-z
-x+y,-x,1/2-z
y,-x+y,-z
x,y,1/2-z
x-y,x,-z
-y,x-y,1/2-z
-x+y,y,z
x,x-y,z
-y,-x,z
y,x,1/2+z
x-y,-y,1/2+z
-x,-x+y,1/2+z
loop_
_atom_site_type_symbol
_atom_site_label
_atom_site_fract_x
_atom_site_fract_y
_atom_site_fract_z
Si Si1 0.333334 0.666667 0.583373
Si Si2 0.332362 0.867293 0.913467
Si Si3 0.470172 0.940343 0.587589
Si Si4 0.229292 0.173245 0.589722
Si Si5 0.465234 0.732617 0.914849
Si Si6 0.241433 0.876484 0.088609
O O1 0.333334 0.666667 0.750000
O O2 0.300271 0.600541 0.523168
O O3 0.322365 0.870414 0.750000
O O4 0.401300 0.901826 0.951823
O O5 0.302877 0.799965 0.967275
O O6 0.299465 0.896253 0.995445
O O7 0.478403 0.956805 0.750000
O O8 0.500000 0.000000 0.500000
O O9 0.185701 0.185701 0.500000
O O10 0.216308 0.177949 0.750000
O O11 0.215550 0.107775 0.552816
O O12 0.297138 0.220108 0.554665
O O13 0.462506 0.731253 0.750000
O O14 0.258229 0.879208 0.250000
O O15 0.189510 0.810491 0.049350
#
# Coordination Sequence:
#
# PCOD8330601 Si02
#       6
#     4  24  12  24  12  24
#     4   9  15  24  42  69 100 128 154 198 268 329
#     4  10  19  33  53  76 100 128 169 219 263 309
#     4  10  23  39  52  70 102 140 178 216 256 310
#     4   9  19  35  54  79 110 140 171 208 249 294
#     4   9  16  27  47  75 101 124 158 210 269 317
#     4   9  18  33  52  75 104 135 166 205 257 312
#
# _framework density 17.637651000000002
#
# number of rings (size 3 to 8) (size 9 to 14) (size 15 to 20)
#    0.000    2.640    1.200    2.160    0.000    6.240 
#    0.000    7.200    0.000    0.240    0.000    0.840 
#    0.000    0.000    0.000    0.000    0.000    0.000 
#
# Total GULP energy -1240035.507445 kJ/mol
# GULP energy per Si atom -12400.355074 kJ/mol
# Density = 1.759751 g / cm^3
# Si number density = 17.637651 Si / 1000 Ang^3
#
#
#
# Elastic Constant Matrix: (Units=GPa)
#
#
# Indices 1 2 3 4 5 6 
#
# 1 91.2311 110.3464 61.7798 0.0000 0.0000 -0.0005
# 2 110.3464 91.2310 61.7797 0.0000 0.0000 0.0005
# 3 61.7798 61.7797 61.4639 0.0000 0.0000 -0.0001
# 4 0.0000 0.0000 0.0000 31.3324 0.0000 0.0000
# 5 0.0000 0.0000 0.0000 0.0000 31.3324 0.0000
# 6 -0.0005 0.0005 -0.0001 0.0000 0.0000 -9.5571
#
#
#
# Elastic Compliance Matrix: (Units=1/GPa)
#
#
# Indices 1 2 3 4 5 6 
#
# 1 -0.019696 0.032618 -0.012989 0.000000 0.000000 0.000003
# 2 0.032618 -0.019696 -0.012989 0.000000 0.000000 -0.000003
# 3 -0.012989 -0.012989 0.042381 0.000000 0.000000 0.000000
# 4 0.000000 0.000000 0.000000 0.031916 0.000000 0.000000
# 5 0.000000 0.000000 0.000000 0.000000 0.031916 0.000000
# 6 0.000003 -0.000003 0.000000 0.000000 0.000000 -0.104634
#
#
# Mechanical properties :
#
#
# Convention : Reuss Voigt Hill
#
# Bulk Modulus (GPa) = 61.46130 79.08196 70.27163
# Shear Modulus (GPa) = -109.48416 11.28955 -49.09730
#
# Velocity S-wave (km/s) = -7.88726 2.53273 -5.28177
# Velocity P-wave (km/s) = 6.92985 7.31350 1.65294
#
# Compressibility (1/GPa) = 0.01627040
#
# Stress axis : x y z
#
# Youngs Moduli (GPa) = -50.77253 -50.77281 23.59523
#
# Poissons Ratio (x) = 1.65613 0.30648
# Poissons Ratio (y) = 1.65612 0.30648
# Poissons Ratio (z) = -0.65949 -0.65950
#
# Static dielectric constant tensor:
#      x y z
#    x 3.239750 0.000000 0.000000 
#    y 0.000000 3.239750 0.000000 
#    z 0.000000 0.000000 2.999680 
# 
# 
# High freq. dielectric constant tensor:
#      x y z
#    x 1.681640 0.000000 0.000000 
#    y 0.000000 1.681640 0.000000 
#    z 0.000000 0.000000 1.660670 
# 
# From -- ./inp_files/1672.got.cif
#   From: 2010.03.12/outbox.cif.g09.slc.cpg/sg194_1_cif.got.tgz:1672.got - 2010.04.01 12:26:19.
