data_PCOD8330678
_publ_section_title
;
Structure prediction by ZEFSAII (Michael W. Deem and Ramdas Pophale) SiO2 
 PCOD8330678
Probable space group: P 63/M M C
;
_chemical_formula_sum "Si O2"
_cell_formula_units_Z 144
_cell_length_a 32.294964
_cell_length_b 32.294964
_cell_length_c 8.891177
_cell_angle_alpha 90.000000
_cell_angle_beta 90.000000
_cell_angle_gamma 120.000000
_cell_volume 8030.812702
_symmetry_space_group_name_H-M "P 63/M M C"
_symmetry_group_IT_number 194
_symmetry_cell_setting 'hexagonal'
loop_
_space_group_symop_operation_xyz
x,y,z
x-y,x,1/2+z
-y,x-y,z
-x,-y,1/2+z
-x+y,-x,z
y,-x+y,1/2+z
x-y,-y,-z
-x,-x+y,-z
y,x,-z
-y,-x,1/2-z
-x+y,y,1/2-z
x,x-y,1/2-z
-x,-y,-z
-x+y,-x,1/2-z
y,-x+y,-z
x,y,1/2-z
x-y,x,-z
-y,x-y,1/2-z
-x+y,y,z
x,x-y,z
-y,-x,z
y,x,1/2+z
x-y,-y,1/2+z
-x,-x+y,1/2+z
loop_
_atom_site_type_symbol
_atom_site_label
_atom_site_fract_x
_atom_site_fract_y
_atom_site_fract_z
Si Si1 0.382079 0.857467 0.426566
Si Si2 0.714190 0.190820 0.076361
Si Si3 0.526103 0.953753 0.917572
Si Si4 0.855841 0.806886 0.426591
Si Si5 0.864235 0.231577 0.075409
Si Si6 0.718908 0.950051 0.071336
O O1 0.384251 0.863105 0.250000
O O2 0.422912 0.845823 0.482873
O O3 0.330466 0.815947 0.478465
O O4 0.389692 0.906637 0.496003
O O5 0.699483 0.184706 0.250000
O O6 0.756041 0.243960 0.041790
O O7 0.731060 0.153123 0.032201
O O8 0.543462 0.951846 0.750000
O O9 0.478639 0.957278 0.914954
O O10 0.568152 0.000000 0.000000
O O11 0.848388 0.848388 0.500000
O O12 0.843851 0.802607 0.250000
O O13 0.910188 0.820376 0.455822
O O14 0.820611 0.756400 0.504380
O O15 0.878838 0.236566 0.250000
O O16 0.821989 0.178012 0.042115
O O17 0.909415 0.243694 0.972113
O O18 0.724272 0.954889 0.250000
O O19 0.728852 0.000000 0.000000
#
# Coordination Sequence:
#
# PCOD8330678 Si02
#       6
#    24  24  24  24  24  24
#     4  10  20  33  51  77 107 137 169 206 250 299
#     4   9  19  36  57  79 102 131 168 210 254 298
#     4   9  16  27  45  69  98 131 165 201 239 281
#     4  10  20  33  50  72  98 129 165 208 258 309
#     4   9  18  34  54  74  99 130 163 202 248 296
#     4  11  21  32  49  73 102 135 169 206 248 295
#
# _framework density 17.930937
#
# number of rings (size 3 to 8) (size 9 to 14) (size 15 to 20)
#    0.000    2.333    0.000    5.500    0.000    7.667 
#    0.000    2.500    0.000    4.500    0.000    0.000 
#    0.000    0.000    0.000    0.000    0.000    0.000 
#
# Total GULP energy -1785701.758098 kJ/mol
# GULP energy per Si atom -12400.706653 kJ/mol
# Density = 1.789013 g / cm^3
# Si number density = 17.930937 Si / 1000 Ang^3
#
#
#
# Elastic Constant Matrix: (Units=GPa)
#
#
# Indices 1 2 3 4 5 6 
#
# 1 89.4190 45.0118 48.4234 0.0000 0.0000 0.0000
# 2 45.0118 89.4190 48.4234 0.0000 0.0000 0.0000
# 3 48.4234 48.4234 113.6121 0.0000 0.0000 0.0000
# 4 0.0000 0.0000 0.0000 29.5205 0.0000 0.0000
# 5 0.0000 0.0000 0.0000 0.0000 29.5205 0.0000
# 6 0.0000 0.0000 0.0000 0.0000 0.0000 22.2036
#
#
#
# Elastic Compliance Matrix: (Units=1/GPa)
#
#
# Indices 1 2 3 4 5 6 
#
# 1 0.016627 -0.005892 -0.004575 0.000000 0.000000 0.000000
# 2 -0.005892 0.016627 -0.004575 0.000000 0.000000 0.000000
# 3 -0.004575 -0.004575 0.012702 0.000000 0.000000 0.000000
# 4 0.000000 0.000000 0.000000 0.033875 0.000000 0.000000
# 5 0.000000 0.000000 0.000000 0.000000 0.033875 0.000000
# 6 0.000000 0.000000 0.000000 0.000000 0.000000 0.045038
#
#
# Mechanical properties :
#
#
# Convention : Reuss Voigt Hill
#
# Bulk Modulus (GPa) = 63.01040 64.01859 63.51449
# Shear Modulus (GPa) = 25.75739 26.28836 26.02287
#
# Velocity S-wave (km/s) = 3.79420 3.83311 3.81370
# Velocity P-wave (km/s) = 7.37642 7.44115 7.40885
#
# Compressibility (1/GPa) = 0.01587040
#
# Stress axis : x y z
#
# Youngs Moduli (GPa) = 60.14335 60.14335 78.72693
#
# Poissons Ratio (x) = 0.35436 0.36021
# Poissons Ratio (y) = 0.35436 0.36021
# Poissons Ratio (z) = 0.27518 0.27518
#
# Static dielectric constant tensor:
#      x y z
#    x 3.194690 0.000000 0.000000 
#    y 0.000000 3.194690 0.000000 
#    z 0.000000 0.000000 3.355590 
# 
# 
# High freq. dielectric constant tensor:
#      x y z
#    x 1.679400 0.000000 0.000000 
#    y 0.000000 1.679400 0.000000 
#    z 0.000000 0.000000 1.702810 
# 
# From -- ./inp_files/2108.got.cif
#   From: 2010.03.12/outbox.cif.g09.slc.cpg/sg194_2_cif.got.tgz:2108.got - 2010.04.01 12:26:19.
