data_PCOD8330502
_publ_section_title
;
Structure prediction by ZEFSAII (Michael W. Deem and Ramdas Pophale) SiO2 
 PCOD8330502
Probable space group: P 63/M M C
;
_chemical_formula_sum "Si O2"
_cell_formula_units_Z 168
_cell_length_a 21.886667
_cell_length_b 21.886667
_cell_length_c 23.573252
_cell_angle_alpha 90.000000
_cell_angle_beta 90.000000
_cell_angle_gamma 120.000000
_cell_volume 9779.336522
_symmetry_space_group_name_H-M "P 63/M M C"
_symmetry_group_IT_number 194
_symmetry_cell_setting 'hexagonal'
loop_
_space_group_symop_operation_xyz
x,y,z
x-y,x,1/2+z
-y,x-y,z
-x,-y,1/2+z
-x+y,-x,z
y,-x+y,1/2+z
x-y,-y,-z
-x,-x+y,-z
y,x,-z
-y,-x,1/2-z
-x+y,y,1/2-z
x,x-y,1/2-z
-x,-y,-z
-x+y,-x,1/2-z
y,-x+y,-z
x,y,1/2-z
x-y,x,-z
-y,x-y,1/2-z
-x+y,y,z
x,x-y,z
-y,-x,z
y,x,1/2+z
x-y,-y,1/2+z
-x,-x+y,1/2+z
loop_
_atom_site_type_symbol
_atom_site_label
_atom_site_fract_x
_atom_site_fract_y
_atom_site_fract_z
Si Si1 0.866691 0.867035 0.934807
Si Si2 0.013065 0.680321 0.313481
Si Si3 0.376913 0.483547 0.921244
Si Si4 0.714710 0.572089 0.969589
Si Si5 0.949148 0.405417 0.888062
Si Si6 0.786155 0.714183 0.587292
Si Si7 0.570532 0.856554 0.685621
O O1 0.851164 0.925582 0.906886
O O2 0.797327 0.790013 0.930374
O O3 0.935285 0.870569 0.904945
O O4 0.884770 0.884770 0.000000
O O5 0.037514 0.706372 0.250000
O O6 0.039810 0.625892 0.329843
O O7 0.052207 0.746793 0.353468
O O8 0.928654 0.645177 0.320057
O O9 0.435403 0.564598 0.934421
O O10 0.413573 0.435335 0.923911
O O11 0.342833 0.482636 0.859957
O O12 0.314694 0.453010 0.967445
O O13 0.776902 0.553803 0.957569
O O14 0.651324 0.533422 0.924417
O O15 0.744651 0.656147 0.961768
O O16 0.933796 0.466898 0.870818
O O17 0.860476 0.720952 0.598839
O O18 0.540678 0.850439 0.750000
O O19 0.582419 0.791210 0.672064
#
# Coordination Sequence:
#
# PCOD8330502 Si02
#       7
#    24  24  24  24  24  24  24
#     4   9  17  29  45  65  90 123 163 203 239 276
#     4   9  18  31  48  71  95 120 155 195 232 276
#     4  10  19  31  51  74  93 121 161 200 232 267
#     4  10  19  31  47  68  97 127 153 186 232 286
#     4   9  18  32  50  71  95 121 151 191 235 277
#     4   9  19  32  45  67  98 128 157 192 237 285
#     4   9  18  32  48  68  97 129 158 192 236 280
#
# _framework density 17.179079000000002
#
# number of rings (size 3 to 8) (size 9 to 14) (size 15 to 20)
#    0.000    2.714    0.000    1.429    0.000    6.571 
#    0.000    4.286    0.000    5.143    0.000    0.000 
#    0.000    1.143    0.000    0.857    0.000    0.000 
#
# Total GULP energy -2081994.146288 kJ/mol
# GULP energy per Si atom -12392.822299 kJ/mol
# Density = 1.713998 g / cm^3
# Si number density = 17.179079 Si / 1000 Ang^3
#
#
#
# Elastic Constant Matrix: (Units=GPa)
#
#
# Indices 1 2 3 4 5 6 
#
# 1 86.8771 47.7437 40.6108 0.0000 0.0000 0.0000
# 2 47.7437 86.8771 40.6108 0.0000 0.0000 0.0000
# 3 40.6108 40.6108 91.1386 0.0000 0.0000 0.0000
# 4 0.0000 0.0000 0.0000 17.2466 0.0000 0.0000
# 5 0.0000 0.0000 0.0000 0.0000 17.2466 0.0000
# 6 0.0000 0.0000 0.0000 0.0000 0.0000 19.5667
#
#
#
# Elastic Compliance Matrix: (Units=1/GPa)
#
#
# Indices 1 2 3 4 5 6 
#
# 1 0.017857 -0.007697 -0.004527 0.000000 0.000000 0.000000
# 2 -0.007697 0.017857 -0.004527 0.000000 0.000000 0.000000
# 3 -0.004527 -0.004527 0.015007 0.000000 0.000000 0.000000
# 4 0.000000 0.000000 0.000000 0.057982 0.000000 0.000000
# 5 0.000000 0.000000 0.000000 0.000000 0.057982 0.000000
# 6 0.000000 0.000000 0.000000 0.000000 0.000000 0.051107
#
#
# Mechanical properties :
#
#
# Convention : Reuss Voigt Hill
#
# Bulk Modulus (GPa) = 58.07963 58.09149 58.08556
# Shear Modulus (GPa) = 19.45272 19.87382 19.66327
#
# Velocity S-wave (km/s) = 3.36869 3.40496 3.38687
# Velocity P-wave (km/s) = 7.00089 7.02474 7.01283
#
# Compressibility (1/GPa) = 0.01721774
#
# Stress axis : x y z
#
# Youngs Moduli (GPa) = 56.00164 56.00164 66.63670
#
# Poissons Ratio (x) = 0.43105 0.30167
# Poissons Ratio (y) = 0.43105 0.30167
# Poissons Ratio (z) = 0.25352 0.25352
#
# Static dielectric constant tensor:
#      x y z
#    x 3.270670 0.000000 0.000000 
#    y 0.000000 3.270670 0.000000 
#    z 0.000000 0.000000 3.057790 
# 
# 
# High freq. dielectric constant tensor:
#      x y z
#    x 1.658060 0.000000 0.000000 
#    y 0.000000 1.658060 0.000000 
#    z 0.000000 0.000000 1.644800 
# 
# From -- ./inp_files/9866.got.cif
#   From: 2010.03.12/outbox.cif.g09.slc.cpg/sg194_5_cif.got.tgz:9866.got - 2010.04.01 12:26:19.
