data_PCOD8330651
_publ_section_title
;
Structure prediction by ZEFSAII (Michael W. Deem and Ramdas Pophale) SiO2 
 PCOD8330651
Probable space group: P 63/M M C
;
_chemical_formula_sum "Si O2"
_cell_formula_units_Z 192
_cell_length_a 26.419282
_cell_length_b 26.419282
_cell_length_c 20.049607
_cell_angle_alpha 90.000000
_cell_angle_beta 90.000000
_cell_angle_gamma 120.000000
_cell_volume 12119.327376
_symmetry_space_group_name_H-M "P 63/M M C"
_symmetry_group_IT_number 194
_symmetry_cell_setting 'hexagonal'
loop_
_space_group_symop_operation_xyz
x,y,z
x-y,x,1/2+z
-y,x-y,z
-x,-y,1/2+z
-x+y,-x,z
y,-x+y,1/2+z
x-y,-y,-z
-x,-x+y,-z
y,x,-z
-y,-x,1/2-z
-x+y,y,1/2-z
x,x-y,1/2-z
-x,-y,-z
-x+y,-x,1/2-z
y,-x+y,-z
x,y,1/2-z
x-y,x,-z
-y,x-y,1/2-z
-x+y,y,z
x,x-y,z
-y,-x,z
y,x,1/2+z
x-y,-y,1/2+z
-x,-x+y,1/2+z
loop_
_atom_site_type_symbol
_atom_site_label
_atom_site_fract_x
_atom_site_fract_y
_atom_site_fract_z
Si Si1 0.337281 0.079363 0.172879
Si Si2 0.160867 0.203246 0.439732
Si Si3 0.732772 0.151720 0.441402
Si Si4 0.045710 0.678782 0.326191
Si Si5 0.029167 0.457934 0.103605
Si Si6 0.396942 0.907655 0.966684
Si Si7 0.837832 0.790829 0.173803
Si Si8 0.338397 0.227651 0.565343
O O1 0.353380 0.096236 0.250000
O O2 0.388812 0.129851 0.130173
O O3 0.277035 0.076871 0.153486
O O4 0.330966 0.017424 0.155721
O O5 0.168207 0.168207 0.500000
O O6 0.095630 0.191259 0.441697
O O7 0.169289 0.178780 0.370009
O O8 0.208019 0.271246 0.447182
O O9 0.779714 0.220287 0.449315
O O10 0.668115 0.143271 0.447855
O O11 0.740730 0.113191 0.498174
O O12 0.062700 0.698327 0.250000
O O13 0.045684 0.618553 0.338396
O O14 0.093534 0.729068 0.372472
O O15 0.033297 0.516649 0.133074
O O16 0.963843 0.414019 0.078726
O O17 0.074652 0.474140 0.043478
O O18 0.442031 0.884061 0.953732
O O19 0.824289 0.799015 0.250000
O O20 0.905613 0.811225 0.163079
O O21 0.346112 0.173056 0.583669
#
# Coordination Sequence:
#
# PCOD8330651 Si02
#       8
#    24  24  24  24  24  24  24  24
#     4  10  20  32  48  74 102 131 160 192 242 292
#     4  11  22  35  52  73  96 121 154 198 246 297
#     4  11  20  31  51  73  96 128 161 201 247 288
#     4  11  20  31  49  71 104 139 161 198 242 272
#     4   9  17  30  49  70  95 133 168 196 232 276
#     4   9  17  30  49  70  94 125 162 202 240 278
#     4  10  20  35  53  71  94 124 158 195 237 293
#     4  10  22  34  48  73  99 128 165 198 236 291
#
# _framework density 15.842464
#
# number of rings (size 3 to 8) (size 9 to 14) (size 15 to 20)
#    0.000    1.875    3.750    2.250    0.000    2.500 
#    0.000    1.250    0.000    2.875    0.000    0.000 
#    0.000    0.000    0.000    0.000    0.000   11.375 
#
# Total GULP energy -2381264.473323 kJ/mol
# GULP energy per Si atom -12402.419132 kJ/mol
# Density = 1.580641 g / cm^3
# Si number density = 15.842464 Si / 1000 Ang^3
#
#
#
# Elastic Constant Matrix: (Units=GPa)
#
#
# Indices 1 2 3 4 5 6 
#
# 1 88.3318 41.8756 40.2812 0.0000 0.0000 0.0000
# 2 41.8756 88.3318 40.2812 0.0000 0.0000 0.0000
# 3 40.2812 40.2812 77.3469 0.0000 0.0000 0.0000
# 4 0.0000 0.0000 0.0000 21.9817 0.0000 0.0000
# 5 0.0000 0.0000 0.0000 0.0000 21.9817 0.0000
# 6 0.0000 0.0000 0.0000 0.0000 0.0000 23.2281
#
#
#
# Elastic Compliance Matrix: (Units=1/GPa)
#
#
# Indices 1 2 3 4 5 6 
#
# 1 0.016428 -0.005097 -0.005901 0.000000 0.000000 0.000000
# 2 -0.005097 0.016428 -0.005901 0.000000 0.000000 0.000000
# 3 -0.005901 -0.005901 0.019075 0.000000 0.000000 0.000000
# 4 0.000000 0.000000 0.000000 0.045492 0.000000 0.000000
# 5 0.000000 0.000000 0.000000 0.000000 0.045492 0.000000
# 6 0.000000 0.000000 0.000000 0.000000 0.000000 0.043051
#
#
# Mechanical properties :
#
#
# Convention : Reuss Voigt Hill
#
# Bulk Modulus (GPa) = 55.14773 55.43182 55.28977
# Shear Modulus (GPa) = 22.14237 22.20982 22.17610
#
# Velocity S-wave (km/s) = 3.74258 3.74828 3.74543
# Velocity P-wave (km/s) = 7.31858 7.33472 7.32665
#
# Compressibility (1/GPa) = 0.01813311
#
# Stress axis : x y z
#
# Youngs Moduli (GPa) = 60.87008 60.87008 52.42403
#
# Poissons Ratio (x) = 0.31027 0.30936
# Poissons Ratio (y) = 0.31027 0.30936
# Poissons Ratio (z) = 0.35920 0.35920
#
# Static dielectric constant tensor:
#      x y z
#    x 2.928460 0.000000 0.000000 
#    y 0.000000 2.928460 0.000000 
#    z 0.000000 0.000000 2.981150 
# 
# 
# High freq. dielectric constant tensor:
#      x y z
#    x 1.594150 0.000000 0.000000 
#    y 0.000000 1.594150 0.000000 
#    z 0.000000 0.000000 1.610800 
# 
# From -- ./inp_files/8705.got.cif
#   From: 2010.03.12/outbox.cif.g09.slc.cpg/sg194_5_cif.got.tgz:8705.got - 2010.04.01 12:26:19.
