data_PCOD8330423
_publ_section_title
;
Structure prediction by ZEFSAII (Michael W. Deem and Ramdas Pophale) SiO2 
 PCOD8330423
Probable space group: P 63/M M C
;
_chemical_formula_sum "Si O2"
_cell_formula_units_Z 108
_cell_length_a 18.371452
_cell_length_b 18.371452
_cell_length_c 22.935427
_cell_angle_alpha 90.000000
_cell_angle_beta 90.000000
_cell_angle_gamma 120.000000
_cell_volume 6703.852134
_symmetry_space_group_name_H-M "P 63/M M C"
_symmetry_group_IT_number 194
_symmetry_cell_setting 'hexagonal'
loop_
_space_group_symop_operation_xyz
x,y,z
x-y,x,1/2+z
-y,x-y,z
-x,-y,1/2+z
-x+y,-x,z
y,-x+y,1/2+z
x-y,-y,-z
-x,-x+y,-z
y,x,-z
-y,-x,1/2-z
-x+y,y,1/2-z
x,x-y,1/2-z
-x,-y,-z
-x+y,-x,1/2-z
y,-x+y,-z
x,y,1/2-z
x-y,x,-z
-y,x-y,1/2-z
-x+y,y,z
x,x-y,z
-y,-x,z
y,x,1/2+z
x-y,-y,1/2+z
-x,-x+y,1/2+z
loop_
_atom_site_type_symbol
_atom_site_label
_atom_site_fract_x
_atom_site_fract_y
_atom_site_fract_z
Si Si1 0.439141 0.301639 0.315371
Si Si2 0.068319 0.534160 0.391211
Si Si3 0.437500 0.562501 0.598076
Si Si4 0.947786 0.052215 0.818568
Si Si5 0.855156 0.710311 0.819762
Si Si6 0.387715 0.612286 0.479103
Si Si7 0.332159 0.947765 0.316579
O O1 0.477594 0.329494 0.250000
O O2 0.407874 0.203937 0.326202
O O3 0.506782 0.356196 0.363335
O O4 0.359588 0.314391 0.321980
O O5 0.145631 0.572816 0.435800
O O6 0.077976 0.468358 0.351668
O O7 0.974464 0.487232 0.419797
O O8 0.407886 0.592115 0.542599
O O9 0.940187 0.059814 0.750000
O O10 0.901988 0.098013 0.848403
O O11 0.047710 0.095419 0.835448
O O12 0.857528 0.715055 0.750000
O O13 0.899295 0.659945 0.843367
O O14 0.428423 0.714212 0.471281
O O15 0.333906 0.921674 0.250000
#
# Coordination Sequence:
#
# PCOD8330423 Si02
#       7
#    24  12  12  12  12  12  24
#     4   9  17  29  47  73 101 127 154 184 226 278
#     4  10  20  34  52  66  91 124 158 195 242 293
#     4  10  18  34  52  70  95 125 157 185 235 289
#     4   7  12  22  35  55  87 124 151 179 219 269
#     4   9  16  25  41  64  87 119 161 191 227 270
#     4  10  23  35  50  71  90 118 153 202 243 276
#     4   9  18  30  47  68  92 126 159 199 236 277
#
# _framework density 16.110140999999999
#
# number of rings (size 3 to 8) (size 9 to 14) (size 15 to 20)
#    0.444    2.444    0.000    1.667    1.556    3.556 
#    0.667    4.444    0.000    0.000    0.000    0.000 
#    0.000    0.000    0.000    0.000    0.000   10.444 
#
# Total GULP energy -1337966.535652 kJ/mol
# GULP energy per Si atom -12388.579034 kJ/mol
# Density = 1.607347 g / cm^3
# Si number density = 16.110141 Si / 1000 Ang^3
#
#
#
# Elastic Constant Matrix: (Units=GPa)
#
#
# Indices 1 2 3 4 5 6 
#
# 1 123.2085 74.1833 47.1322 0.0000 0.0000 0.0000
# 2 74.1833 123.2085 47.1322 0.0000 0.0000 0.0000
# 3 47.1322 47.1322 65.3318 0.0000 0.0000 0.0000
# 4 0.0000 0.0000 0.0000 16.1402 0.0000 0.0000
# 5 0.0000 0.0000 0.0000 0.0000 16.1402 0.0000
# 6 0.0000 0.0000 0.0000 0.0000 0.0000 24.5126
#
#
#
# Elastic Compliance Matrix: (Units=1/GPa)
#
#
# Indices 1 2 3 4 5 6 
#
# 1 0.014063 -0.006334 -0.005576 0.000000 0.000000 0.000000
# 2 -0.006334 0.014063 -0.005576 0.000000 0.000000 0.000000
# 3 -0.005576 -0.005576 0.023351 0.000000 0.000000 0.000000
# 4 0.000000 0.000000 0.000000 0.061957 0.000000 0.000000
# 5 0.000000 0.000000 0.000000 0.000000 0.061957 0.000000
# 6 0.000000 0.000000 0.000000 0.000000 0.000000 0.040795
#
#
# Mechanical properties :
#
#
# Convention : Reuss Voigt Hill
#
# Bulk Modulus (GPa) = 60.58394 72.07156 66.32775
# Shear Modulus (GPa) = 19.48090 20.91199 20.19645
#
# Velocity S-wave (km/s) = 3.48117 3.60677 3.54453
# Velocity P-wave (km/s) = 7.33797 7.88536 7.61659
#
# Compressibility (1/GPa) = 0.01650603
#
# Stress axis : x y z
#
# Youngs Moduli (GPa) = 71.10743 71.10743 42.82385
#
# Poissons Ratio (x) = 0.45043 0.23877
# Poissons Ratio (y) = 0.45043 0.23877
# Poissons Ratio (z) = 0.39648 0.39648
#
# Static dielectric constant tensor:
#      x y z
#    x 3.181870 0.000000 0.000000 
#    y 0.000000 3.181870 0.000000 
#    z 0.000000 0.000000 2.760060 
# 
# 
# High freq. dielectric constant tensor:
#      x y z
#    x 1.623060 0.000000 0.000000 
#    y 0.000000 1.623060 0.000000 
#    z 0.000000 0.000000 1.580470 
# 
# From -- ./inp_files/9373.got.cif
#   From: 2010.03.12/outbox.cif.g09.slc.cpg/sg194_5_cif.got.tgz:9373.got - 2010.04.01 12:26:19.
