data_PCOD8330819
_publ_section_title
;
Structure prediction by ZEFSAII (Michael W. Deem and Ramdas Pophale) SiO2 
 PCOD8330819
Probable space group: P 63/M M C
;
_chemical_formula_sum "Si O2"
_cell_formula_units_Z 156
_cell_length_a 20.708121
_cell_length_b 20.708121
_cell_length_c 21.525498
_cell_angle_alpha 90.000000
_cell_angle_beta 90.000000
_cell_angle_gamma 120.000000
_cell_volume 7994.019943
_symmetry_space_group_name_H-M "P 63/M M C"
_symmetry_group_IT_number 194
_symmetry_cell_setting 'hexagonal'
loop_
_space_group_symop_operation_xyz
x,y,z
x-y,x,1/2+z
-y,x-y,z
-x,-y,1/2+z
-x+y,-x,z
y,-x+y,1/2+z
x-y,-y,-z
-x,-x+y,-z
y,x,-z
-y,-x,1/2-z
-x+y,y,1/2-z
x,x-y,1/2-z
-x,-y,-z
-x+y,-x,1/2-z
y,-x+y,-z
x,y,1/2-z
x-y,x,-z
-y,x-y,1/2-z
-x+y,y,z
x,x-y,z
-y,-x,z
y,x,1/2+z
x-y,-y,1/2+z
-x,-x+y,1/2+z
loop_
_atom_site_type_symbol
_atom_site_label
_atom_site_fract_x
_atom_site_fract_y
_atom_site_fract_z
Si Si1 0.414534 0.086612 0.320451
Si Si2 0.406925 0.324323 0.976177
Si Si3 0.750299 0.949210 0.440078
Si Si4 0.254757 0.054044 0.179356
Si Si5 0.068983 0.460969 0.353931
Si Si6 0.482552 0.815110 0.923044
Si Si7 0.818314 0.484803 0.750000
O O1 0.440780 0.091683 0.250000
O O2 0.344314 0.098955 0.327902
O O3 0.486230 0.150151 0.355707
O O4 0.386003 0.004363 0.346755
O O5 0.338560 0.248539 0.949305
O O6 0.467849 0.367358 0.922949
O O7 0.378927 0.378927 0.000000
O O8 0.448819 0.306718 0.029861
O O9 0.774257 0.887129 0.436785
O O10 0.790531 0.000000 0.500000
O O11 0.774741 0.992603 0.374488
O O12 0.234034 0.019434 0.250000
O O13 0.227101 0.113551 0.170467
O O14 0.047650 0.523825 0.339567
O O15 0.134287 0.469677 0.309229
O O16 0.412746 0.825492 0.940583
O O17 0.455618 0.727809 0.923102
O O18 0.742091 0.484181 0.750000
O O19 0.800426 0.400213 0.750000
#
# Coordination Sequence:
#
# PCOD8330819 Si02
#       7
#    24  24  24  24  24  24  12
#     4  11  21  38  63  92 120 152 199 254 313 360
#     4  11  22  39  62  92 118 151 197 250 312 360
#     4  11  22  38  62  92 126 161 202 254 308 367
#     4  10  21  39  63  92 127 162 201 250 311 377
#     4  11  21  36  58  89 122 153 194 246 299 354
#     4  12  26  42  60  84 121 166 210 253 302 365
#     4  10  23  40  60  84 121 166 204 242 290 358
#
# _framework density 19.514588
#
# number of rings (size 3 to 8) (size 9 to 14) (size 15 to 20)
#    0.000    1.077    3.846    3.462    0.000    4.000 
#    0.000    0.000    0.000    5.538    0.000    0.000 
#    0.000    0.000    0.000    0.000    0.000    0.000 
#
# Total GULP energy -1934694.049463 kJ/mol
# GULP energy per Si atom -12401.884932 kJ/mol
# Density = 1.947017 g / cm^3
# Si number density = 19.514588 Si / 1000 Ang^3
#
#
#
# Elastic Constant Matrix: (Units=GPa)
#
#
# Indices 1 2 3 4 5 6 
#
# 1 82.5002 35.6809 36.4677 0.0000 0.0000 0.0000
# 2 35.6809 82.5002 36.4677 0.0000 0.0000 0.0000
# 3 36.4677 36.4677 133.4030 0.0000 0.0000 0.0000
# 4 0.0000 0.0000 0.0000 26.1785 0.0000 0.0000
# 5 0.0000 0.0000 0.0000 0.0000 26.1785 0.0000
# 6 0.0000 0.0000 0.0000 0.0000 0.0000 23.4097
#
#
#
# Elastic Compliance Matrix: (Units=1/GPa)
#
#
# Indices 1 2 3 4 5 6 
#
# 1 0.015769 -0.005590 -0.002783 0.000000 0.000000 0.000000
# 2 -0.005590 0.015769 -0.002783 0.000000 0.000000 0.000000
# 3 -0.002783 -0.002783 0.009017 0.000000 0.000000 0.000000
# 4 0.000000 0.000000 0.000000 0.038199 0.000000 0.000000
# 5 0.000000 0.000000 0.000000 0.000000 0.038199 0.000000
# 6 0.000000 0.000000 0.000000 0.000000 0.000000 0.042717
#
#
# Mechanical properties :
#
#
# Convention : Reuss Voigt Hill
#
# Bulk Modulus (GPa) = 54.80984 57.29289 56.05137
# Shear Modulus (GPa) = 26.58690 27.80581 27.19636
#
# Velocity S-wave (km/s) = 3.69509 3.77884 3.73720
# Velocity P-wave (km/s) = 6.80827 6.96149 6.88530
#
# Compressibility (1/GPa) = 0.01824490
#
# Stress axis : x y z
#
# Youngs Moduli (GPa) = 63.41651 63.41651 110.89698
#
# Poissons Ratio (x) = 0.35449 0.30857
# Poissons Ratio (y) = 0.35449 0.30857
# Poissons Ratio (z) = 0.17646 0.17646
#
# Static dielectric constant tensor:
#      x y z
#    x 3.412540 0.000000 0.000000 
#    y 0.000000 3.412540 0.000000 
#    z 0.000000 0.000000 3.795550 
# 
# 
# High freq. dielectric constant tensor:
#      x y z
#    x 1.748240 0.000000 0.000000 
#    y 0.000000 1.748240 0.000000 
#    z 0.000000 0.000000 1.780640 
# 
# From -- ./inp_files/8375.got.cif
#   From: 2010.03.12/outbox.cif.g09.slc.cpg/sg194_5_cif.got.tgz:8375.got - 2010.04.01 12:26:19.
