data_PCOD8330408
_publ_section_title
;
Structure prediction by ZEFSAII (Michael W. Deem and Ramdas Pophale) SiO2 
 PCOD8330408
Probable space group: P 63/M M C
;
_chemical_formula_sum "Si O2"
_cell_formula_units_Z 168
_cell_length_a 22.599370
_cell_length_b 22.599370
_cell_length_c 21.067387
_cell_angle_alpha 90.000000
_cell_angle_beta 90.000000
_cell_angle_gamma 120.000000
_cell_volume 9318.241674
_symmetry_space_group_name_H-M "P 63/M M C"
_symmetry_group_IT_number 194
_symmetry_cell_setting 'hexagonal'
loop_
_space_group_symop_operation_xyz
x,y,z
x-y,x,1/2+z
-y,x-y,z
-x,-y,1/2+z
-x+y,-x,z
y,-x+y,1/2+z
x-y,-y,-z
-x,-x+y,-z
y,x,-z
-y,-x,1/2-z
-x+y,y,1/2-z
x,x-y,1/2-z
-x,-y,-z
-x+y,-x,1/2-z
y,-x+y,-z
x,y,1/2-z
x-y,x,-z
-y,x-y,1/2-z
-x+y,y,z
x,x-y,z
-y,-x,z
y,x,1/2+z
x-y,-y,1/2+z
-x,-x+y,1/2+z
loop_
_atom_site_type_symbol
_atom_site_label
_atom_site_fract_x
_atom_site_fract_y
_atom_site_fract_z
Si Si1 0.283053 0.850227 0.610933
Si Si2 0.790925 0.074991 0.918564
Si Si3 0.333714 0.802645 0.144537
Si Si4 0.077440 0.685726 0.321800
Si Si5 0.285193 0.076956 0.064115
Si Si6 0.045146 0.588460 0.824351
Si Si7 0.533420 0.199746 0.498632
O O1 0.224747 0.775254 0.634840
O O2 0.252201 0.900389 0.606689
O O3 0.345613 0.881817 0.659880
O O4 0.311121 0.845397 0.542140
O O5 0.871008 0.128993 0.905237
O O6 0.746608 0.090509 0.869085
O O7 0.774362 0.996893 0.911837
O O8 0.772019 0.081468 0.991102
O O9 0.404289 0.808578 0.167494
O O10 0.274124 0.725877 0.157750
O O11 0.319761 0.854747 0.183806
O O12 0.337545 0.823086 0.071005
O O13 0.060760 0.700078 0.250000
O O14 0.016170 0.614982 0.350367
O O15 0.255394 0.127697 0.074791
O O16 0.037952 0.579157 0.750000
O O17 0.040362 0.520181 0.854759
O O18 0.593599 0.187198 0.474326
O O19 0.559929 0.279965 0.491412
#
# Coordination Sequence:
#
# PCOD8330408 Si02
#       7
#    24  24  24  24  24  24  24
#     4  10  18  31  52  75  99 128 165 214 263 309
#     4  10  19  33  55  80 107 139 171 206 251 303
#     4  10  20  34  50  69  95 129 169 213 260 311
#     4  11  22  36  52  72 100 136 175 217 259 302
#     4   9  18  33  54  80 109 136 165 206 255 306
#     4  10  21  36  51  69  99 138 176 214 260 312
#     4   9  17  29  47  71  98 127 162 205 257 311
#
# _framework density 18.029153000000001
#
# number of rings (size 3 to 8) (size 9 to 14) (size 15 to 20)
#    0.000    2.143    1.429    2.429    0.000    5.714 
#    0.000    0.000    0.000    5.286    0.000    2.000 
#    0.000    0.000    0.000    0.000    0.000    0.000 
#
# Total GULP energy -2082787.856935 kJ/mol
# GULP energy per Si atom -12397.546767 kJ/mol
# Density = 1.798812 g / cm^3
# Si number density = 18.029153 Si / 1000 Ang^3
#
#
#
# Elastic Constant Matrix: (Units=GPa)
#
#
# Indices 1 2 3 4 5 6 
#
# 1 109.5644 50.4847 26.7994 0.0000 0.0000 0.0000
# 2 50.4847 109.5644 26.7994 0.0000 0.0000 0.0000
# 3 26.7994 26.7994 32.9992 0.0000 0.0000 0.0000
# 4 0.0000 0.0000 0.0000 21.6778 0.0000 0.0000
# 5 0.0000 0.0000 0.0000 0.0000 21.6778 0.0000
# 6 0.0000 0.0000 0.0000 0.0000 0.0000 29.5399
#
#
#
# Elastic Compliance Matrix: (Units=1/GPa)
#
#
# Indices 1 2 3 4 5 6 
#
# 1 0.012754 -0.004172 -0.006970 0.000000 0.000000 0.000000
# 2 -0.004172 0.012754 -0.006970 0.000000 0.000000 0.000000
# 3 -0.006970 -0.006970 0.041624 0.000000 0.000000 0.000000
# 4 0.000000 0.000000 0.000000 0.046130 0.000000 0.000000
# 5 0.000000 0.000000 0.000000 0.000000 0.046130 0.000000
# 6 0.000000 0.000000 0.000000 0.000000 0.000000 0.033853
#
#
# Mechanical properties :
#
#
# Convention : Reuss Voigt Hill
#
# Bulk Modulus (GPa) = 32.35237 51.14391 41.74814
# Shear Modulus (GPa) = 20.85311 24.44872 22.65092
#
# Velocity S-wave (km/s) = 3.40462 3.68648 3.54835
# Velocity P-wave (km/s) = 5.78262 6.82269 6.32407
#
# Compressibility (1/GPa) = 0.03090963
#
# Stress axis : x y z
#
# Youngs Moduli (GPa) = 78.40531 78.40531 24.02432
#
# Poissons Ratio (x) = 0.32711 0.16745
# Poissons Ratio (y) = 0.32711 0.16745
# Poissons Ratio (z) = 0.54647 0.54647
#
# Static dielectric constant tensor:
#      x y z
#    x 3.390100 0.000000 0.000000 
#    y 0.000000 3.390100 0.000000 
#    z 0.000000 0.000000 3.110120 
# 
# 
# High freq. dielectric constant tensor:
#      x y z
#    x 1.693190 0.000000 0.000000 
#    y 0.000000 1.693190 0.000000 
#    z 0.000000 0.000000 1.679790 
# 
# From -- ./inp_files/9803.got.cif
#   From: 2010.03.12/outbox.cif.g09.slc.cpg/sg194_5_cif.got.tgz:9803.got - 2010.04.01 12:26:19.
