data_PCOD8330079
_publ_section_title
;
Structure prediction by ZEFSAII (Michael W. Deem and Ramdas Pophale) SiO2 
 PCOD8330079
Probable space group: P 63/M C M
;
_chemical_formula_sum "Si O2"
_cell_formula_units_Z 132
_cell_length_a 22.777072
_cell_length_b 22.777072
_cell_length_c 16.099155
_cell_angle_alpha 90.000000
_cell_angle_beta 90.000000
_cell_angle_gamma 120.000000
_cell_volume 7233.183829
_symmetry_space_group_name_H-M "P 63/M C M"
_symmetry_group_IT_number 193
_symmetry_cell_setting 'hexagonal'
loop_
_space_group_symop_operation_xyz
x,y,z
x-y,x,1/2+z
-y,x-y,z
-x,-y,1/2+z
-x+y,-x,z
y,-x+y,1/2+z
x-y,-y,1/2-z
-x,-x+y,1/2-z
y,x,1/2-z
-y,-x,-z
-x+y,y,-z
x,x-y,-z
-x,-y,-z
-x+y,-x,1/2-z
y,-x+y,-z
x,y,1/2-z
x-y,x,-z
-y,x-y,1/2-z
-x+y,y,1/2+z
x,x-y,1/2+z
-y,-x,1/2+z
y,x,z
x-y,-y,z
-x,-x+y,z
loop_
_atom_site_type_symbol
_atom_site_label
_atom_site_fract_x
_atom_site_fract_y
_atom_site_fract_z
Si Si1 0.148518 0.770787 0.345902
Si Si2 0.231902 0.079892 0.916565
Si Si3 0.803490 0.392683 0.906915
Si Si4 0.614751 0.539016 0.844777
Si Si5 0.922453 0.842999 0.250000
Si Si6 0.514302 0.245282 0.345021
O O1 0.154651 0.795565 0.250000
O O2 0.122746 0.809921 0.404734
O O3 0.093466 0.691796 0.352555
O O4 0.220052 0.780845 0.383679
O O5 0.200405 0.092945 0.834036
O O6 0.205575 0.000000 0.926696
O O7 0.212330 0.106165 0.000000
O O8 0.878323 0.403478 0.901963
O O9 0.748991 0.320530 0.870295
O O10 0.804414 0.456445 0.862063
O O11 0.780810 0.390405 0.000000
O O12 0.598837 0.513504 0.750000
O O13 0.567659 0.567659 0.876626
O O14 0.874029 0.874029 0.250000
O O15 0.000000 0.902828 0.250000
O O16 0.500105 0.249297 0.250000
#
# Coordination Sequence:
#
# PCOD8330079 Si02
#       6
#    24  24  24  24  12  24
#     4   9  18  34  56  81 104 139 188 237 278 316
#     4  11  22  36  58  86 117 149 184 227 279 335
#     4  11  21  32  49  76 107 136 170 221 280 324
#     4   9  18  33  54  76 102 138 183 226 263 312
#     4  10  21  38  60  84 114 146 182 222 270 330
#     4  10  20  35  54  74 103 141 184 227 274 333
#
# _framework density 18.249226
#
# number of rings (size 3 to 8) (size 9 to 14) (size 15 to 20)
#    0.000    2.000    0.909    4.818    0.000    4.000 
#    0.000    0.000    0.000    5.091    0.000    0.000 
#    0.000    0.000    0.000    0.000    0.000    0.000 
#
# Total GULP energy -1636290.647907 kJ/mol
# GULP energy per Si atom -12396.141272 kJ/mol
# Density = 1.820769 g / cm^3
# Si number density = 18.249226 Si / 1000 Ang^3
#
#
#
# Elastic Constant Matrix: (Units=GPa)
#
#
# Indices 1 2 3 4 5 6 
#
# 1 92.4042 57.9294 33.2599 0.0000 0.0000 0.0000
# 2 57.9294 92.4042 33.2599 0.0000 0.0000 0.0000
# 3 33.2599 33.2599 82.9335 0.0000 0.0000 0.0000
# 4 0.0000 0.0000 0.0000 -115.7966 0.0000 0.0000
# 5 0.0000 0.0000 0.0000 0.0000 -115.7966 0.0000
# 6 0.0000 0.0000 0.0000 0.0000 0.0000 17.2374
#
#
#
# Elastic Compliance Matrix: (Units=1/GPa)
#
#
# Indices 1 2 3 4 5 6 
#
# 1 0.018547 -0.010460 -0.003243 0.000000 0.000000 0.000000
# 2 -0.010460 0.018547 -0.003243 0.000000 0.000000 0.000000
# 3 -0.003243 -0.003243 0.014659 0.000000 0.000000 0.000000
# 4 0.000000 0.000000 0.000000 -0.008636 0.000000 0.000000
# 5 0.000000 0.000000 0.000000 0.000000 -0.008636 0.000000
# 6 0.000000 0.000000 0.000000 0.000000 0.000000 0.058013
#
#
# Mechanical properties :
#
#
# Convention : Reuss Voigt Hill
#
# Bulk Modulus (GPa) = 55.99036 57.40448 56.69742
# Shear Modulus (GPa) = 37.78126 -33.31832 2.23147
#
# Velocity S-wave (km/s) = 4.55498 -4.27750 1.10699
# Velocity P-wave (km/s) = 7.64274 2.66985 5.72449
#
# Compressibility (1/GPa) = 0.01786022
#
# Stress axis : x y z
#
# Youngs Moduli (GPa) = 53.91755 53.91755 68.21656
#
# Poissons Ratio (x) = 0.56397 0.22124
# Poissons Ratio (y) = 0.56397 0.22124
# Poissons Ratio (z) = 0.17487 0.17487
#
# Static dielectric constant tensor:
#      x y z
#    x 3.285600 0.000000 0.000000 
#    y 0.000000 3.285600 0.000000 
#    z 0.000000 0.000000 3.304080 
# 
# 
# High freq. dielectric constant tensor:
#      x y z
#    x 1.704220 0.000000 0.000000 
#    y 0.000000 1.704220 0.000000 
#    z 0.000000 0.000000 1.702800 
# 
# From -- ./inp_files/4139.got.cif
#   From: 2010.03.12/outbox.cif.g09.slc.cpg/sg193_3_cif.got.tgz:4139.got - 2010.04.01 12:20:39.
