data_PCOD8330425
_publ_section_title
;
Structure prediction by ZEFSAII (Michael W. Deem and Ramdas Pophale) SiO2 
 PCOD8330425
Probable space group: P 63/M M C
;
_chemical_formula_sum "Si O2"
_cell_formula_units_Z 108
_cell_length_a 22.143737
_cell_length_b 22.143737
_cell_length_c 13.966970
_cell_angle_alpha 90.000000
_cell_angle_beta 90.000000
_cell_angle_gamma 120.000000
_cell_volume 5931.092011
_symmetry_space_group_name_H-M "P 63/M M C"
_symmetry_group_IT_number 194
_symmetry_cell_setting 'hexagonal'
loop_
_space_group_symop_operation_xyz
x,y,z
x-y,x,1/2+z
-y,x-y,z
-x,-y,1/2+z
-x+y,-x,z
y,-x+y,1/2+z
x-y,-y,-z
-x,-x+y,-z
y,x,-z
-y,-x,1/2-z
-x+y,y,1/2-z
x,x-y,1/2-z
-x,-y,-z
-x+y,-x,1/2-z
y,-x+y,-z
x,y,1/2-z
x-y,x,-z
-y,x-y,1/2-z
-x+y,y,z
x,x-y,z
-y,-x,z
y,x,1/2+z
x-y,-y,1/2+z
-x,-x+y,1/2+z
loop_
_atom_site_type_symbol
_atom_site_label
_atom_site_fract_x
_atom_site_fract_y
_atom_site_fract_z
Si Si1 0.930122 0.342850 0.051123
Si Si2 0.283509 0.213574 0.540449
Si Si3 0.344604 0.473695 0.250000
Si Si4 0.586307 0.553419 0.250000
Si Si5 0.196361 0.664764 0.052029
Si Si6 0.679132 0.771831 0.250000
O O1 0.938473 0.359380 0.162970
O O2 0.915682 0.265664 0.023902
O O3 0.866108 0.350976 0.018281
O O4 0.000000 0.401313 0.000000
O O5 0.215911 0.215911 0.500000
O O6 0.271766 0.135883 0.534114
O O7 0.293714 0.243104 0.650029
O O8 0.407033 0.457375 0.250000
O O9 0.349384 0.519122 0.159876
O O10 0.270569 0.403776 0.250000
O O11 0.529848 0.470153 0.250000
O O12 0.224282 0.612141 0.026626
O O13 0.256707 0.743294 0.036550
O O14 0.706341 0.853171 0.250000
#
# Coordination Sequence:
#
# PCOD8330425 Si02
#       6
#    24  24  12  12  24  12
#     4  11  22  38  61  83 108 143 189 236 288 334
#     4  10  20  36  59  88 118 152 192 236 288 348
#     4  12  20  34  59  84 109 146 184 230 289 342
#     4  12  24  38  55  85 117 142 182 238 291 341
#     4  12  24  38  55  80 113 150 188 230 281 341
#     4  10  18  34  57  81 113 150 187 230 288 343
#
# _framework density 18.209126999999999
#
# number of rings (size 3 to 8) (size 9 to 14) (size 15 to 20)
#    0.000    0.889    4.444    4.889    0.000    0.889 
#    0.000    5.000    0.000    0.222    0.000    1.556 
#    0.000    0.000    0.000    0.000    0.000    0.000 
#
# Total GULP energy -1338829.941565 kJ/mol
# GULP energy per Si atom -12396.573533 kJ/mol
# Density = 1.816768 g / cm^3
# Si number density = 18.209127 Si / 1000 Ang^3
#
#
#
# Elastic Constant Matrix: (Units=GPa)
#
#
# Indices 1 2 3 4 5 6 
#
# 1 95.4027 47.1855 52.0332 0.0000 0.0000 0.0000
# 2 47.1855 95.4027 52.0332 0.0000 0.0000 0.0000
# 3 52.0332 52.0332 137.7436 0.0000 0.0000 0.0000
# 4 0.0000 0.0000 0.0000 24.2793 0.0000 0.0000
# 5 0.0000 0.0000 0.0000 0.0000 24.2793 0.0000
# 6 0.0000 0.0000 0.0000 0.0000 0.0000 24.1086
#
#
#
# Elastic Compliance Matrix: (Units=1/GPa)
#
#
# Indices 1 2 3 4 5 6 
#
# 1 0.015211 -0.005528 -0.003658 0.000000 0.000000 0.000000
# 2 -0.005528 0.015211 -0.003658 0.000000 0.000000 0.000000
# 3 -0.003658 -0.003658 0.010023 0.000000 0.000000 0.000000
# 4 0.000000 0.000000 0.000000 0.041187 0.000000 0.000000
# 5 0.000000 0.000000 0.000000 0.000000 0.041187 0.000000
# 6 0.000000 0.000000 0.000000 0.000000 0.000000 0.041479
#
#
# Mechanical properties :
#
#
# Convention : Reuss Voigt Hill
#
# Bulk Modulus (GPa) = 67.75994 70.11695 68.93844
# Shear Modulus (GPa) = 25.65337 26.35323 26.00330
#
# Velocity S-wave (km/s) = 3.75750 3.80841 3.78304
# Velocity P-wave (km/s) = 7.49119 7.61109 7.55138
#
# Compressibility (1/GPa) = 0.01475798
#
# Stress axis : x y z
#
# Youngs Moduli (GPa) = 65.74143 65.74143 99.76779
#
# Poissons Ratio (x) = 0.36344 0.36492
# Poissons Ratio (y) = 0.36344 0.36492
# Poissons Ratio (z) = 0.24046 0.24046
#
# Static dielectric constant tensor:
#      x y z
#    x 3.313910 0.000000 0.000000 
#    y 0.000000 3.313910 0.000000 
#    z 0.000000 0.000000 3.595850 
# 
# 
# High freq. dielectric constant tensor:
#      x y z
#    x 1.694940 0.000000 0.000000 
#    y 0.000000 1.694940 0.000000 
#    z 0.000000 0.000000 1.712270 
# 
# From -- ./inp_files/3262.got.cif
#   From: 2010.03.12/outbox.cif.g09.slc.cpg/sg194_2_cif.got.tgz:3262.got - 2010.04.01 12:26:19.
