data_PCOD8330297
_publ_section_title
;
Structure prediction by ZEFSAII (Michael W. Deem and Ramdas Pophale) SiO2 
 PCOD8330297
Probable space group: P 63/M M C
;
_chemical_formula_sum "Si O2"
_cell_formula_units_Z 108
_cell_length_a 21.630650
_cell_length_b 21.630650
_cell_length_c 22.260913
_cell_angle_alpha 90.000000
_cell_angle_beta 90.000000
_cell_angle_gamma 120.000000
_cell_volume 9020.128912
_symmetry_space_group_name_H-M "P 63/M M C"
_symmetry_group_IT_number 194
_symmetry_cell_setting 'hexagonal'
loop_
_space_group_symop_operation_xyz
x,y,z
x-y,x,1/2+z
-y,x-y,z
-x,-y,1/2+z
-x+y,-x,z
y,-x+y,1/2+z
x-y,-y,-z
-x,-x+y,-z
y,x,-z
-y,-x,1/2-z
-x+y,y,1/2-z
x,x-y,1/2-z
-x,-y,-z
-x+y,-x,1/2-z
y,-x+y,-z
x,y,1/2-z
x-y,x,-z
-y,x-y,1/2-z
-x+y,y,z
x,x-y,z
-y,-x,z
y,x,1/2+z
x-y,-y,1/2+z
-x,-x+y,1/2+z
loop_
_atom_site_type_symbol
_atom_site_label
_atom_site_fract_x
_atom_site_fract_y
_atom_site_fract_z
Si Si1 0.476999 0.810109 0.395458
Si Si2 0.619887 0.093590 0.360020
Si Si3 0.602358 0.544930 0.681765
Si Si4 0.811988 0.479379 0.250000
Si Si5 0.523582 0.333246 0.033178
O O1 0.397469 0.794937 0.383086
O O2 0.478544 0.739272 0.377974
O O3 0.535132 0.874130 0.354713
O O4 0.498939 0.832095 0.464537
O O5 0.544260 0.088520 0.354801
O O6 0.670892 0.145940 0.308288
O O7 0.655315 0.124403 0.424958
O O8 0.607323 0.014069 0.350040
O O9 0.628845 0.567397 0.750000
O O10 0.528278 0.471723 0.680694
O O11 0.733603 0.467205 0.250000
O O12 0.805240 0.402620 0.250000
O O13 0.519549 0.259775 0.050996
O O14 0.604508 0.395493 0.044794
#
# Coordination Sequence:
#
# PCOD8330297 Si02
#       5
#    24  24  24  12  24
#     4   9  17  27  39  53  68  85 107 139 180 220
#     4   9  16  25  36  48  65  89 113 135 164 203
#     4   9  16  27  39  49  64  86 110 138 171 206
#     4  10  17  24  34  50  69  90 114 140 168 200
#     4   9  16  25  36  51  70  90 111 138 173 211
#
# _framework density 11.973221000000001
#
# number of rings (size 3 to 8) (size 9 to 14) (size 15 to 20)
#    0.000    2.889    1.111    1.222    0.000    3.111 
#    0.000    6.667    0.000    1.333    0.000    0.000 
#    0.000    0.000    0.000    0.000    0.000    0.000 
#
# Total GULP energy -1338833.400291 kJ/mol
# GULP energy per Si atom -12396.605558 kJ/mol
# Density = 1.194597 g / cm^3
# Si number density = 11.973221 Si / 1000 Ang^3
#
#
#
# Elastic Constant Matrix: (Units=GPa)
#
#
# Indices 1 2 3 4 5 6 
#
# 1 55.2716 34.0715 41.9568 0.0000 0.0000 0.0000
# 2 34.0715 55.2716 41.9568 0.0000 0.0000 0.0000
# 3 41.9568 41.9568 81.6820 0.0000 0.0000 0.0000
# 4 0.0000 0.0000 0.0000 18.4936 0.0000 0.0000
# 5 0.0000 0.0000 0.0000 0.0000 18.4936 0.0000
# 6 0.0000 0.0000 0.0000 0.0000 0.0000 10.6001
#
#
#
# Elastic Compliance Matrix: (Units=1/GPa)
#
#
# Indices 1 2 3 4 5 6 
#
# 1 0.034398 -0.012772 -0.011109 0.000000 0.000000 0.000000
# 2 -0.012772 0.034398 -0.011109 0.000000 0.000000 0.000000
# 3 -0.011109 -0.011109 0.023655 0.000000 0.000000 0.000000
# 4 0.000000 0.000000 0.000000 0.054073 0.000000 0.000000
# 5 0.000000 0.000000 0.000000 0.000000 0.054073 0.000000
# 6 0.000000 0.000000 0.000000 0.000000 0.000000 0.094339
#
#
# Mechanical properties :
#
#
# Convention : Reuss Voigt Hill
#
# Bulk Modulus (GPa) = 44.49790 47.57729 46.03760
# Shear Modulus (GPa) = 13.42630 14.46681 13.94656
#
# Velocity S-wave (km/s) = 3.35231 3.47978 3.41664
# Velocity P-wave (km/s) = 7.22697 7.48117 7.35517
#
# Compressibility (1/GPa) = 0.02247297
#
# Stress axis : x y z
#
# Youngs Moduli (GPa) = 29.07155 29.07155 42.27492
#
# Poissons Ratio (x) = 0.37129 0.46961
# Poissons Ratio (y) = 0.37129 0.46961
# Poissons Ratio (z) = 0.32294 0.32294
#
# Static dielectric constant tensor:
#      x y z
#    x 2.324620 0.000000 0.000000 
#    y 0.000000 2.324620 0.000000 
#    z 0.000000 0.000000 2.657900 
# 
# 
# High freq. dielectric constant tensor:
#      x y z
#    x 1.418430 0.000000 0.000000 
#    y 0.000000 1.418430 0.000000 
#    z 0.000000 0.000000 1.470010 
# 
# From -- ./inp_files/8040.got.cif
#   From: 2010.03.12/outbox.cif.g09.slc.cpg/sg194_5_cif.got.tgz:8040.got - 2010.04.01 12:26:19.
