data_PCOD8330460
_publ_section_title
;
Structure prediction by ZEFSAII (Michael W. Deem and Ramdas Pophale) SiO2 
 PCOD8330460
Probable space group: P 63/M M C
;
_chemical_formula_sum "Si O2"
_cell_formula_units_Z 132
_cell_length_a 18.006675
_cell_length_b 18.006675
_cell_length_c 27.209589
_cell_angle_alpha 90.000000
_cell_angle_beta 90.000000
_cell_angle_gamma 120.000000
_cell_volume 7640.462803
_symmetry_space_group_name_H-M "P 63/M M C"
_symmetry_group_IT_number 194
_symmetry_cell_setting 'hexagonal'
loop_
_space_group_symop_operation_xyz
x,y,z
x-y,x,1/2+z
-y,x-y,z
-x,-y,1/2+z
-x+y,-x,z
y,-x+y,1/2+z
x-y,-y,-z
-x,-x+y,-z
y,x,-z
-y,-x,1/2-z
-x+y,y,1/2-z
x,x-y,1/2-z
-x,-y,-z
-x+y,-x,1/2-z
y,-x+y,-z
x,y,1/2-z
x-y,x,-z
-y,x-y,1/2-z
-x+y,y,z
x,x-y,z
-y,-x,z
y,x,1/2+z
x-y,-y,1/2+z
-x,-x+y,1/2+z
loop_
_atom_site_type_symbol
_atom_site_label
_atom_site_fract_x
_atom_site_fract_y
_atom_site_fract_z
Si Si1 0.668666 0.505441 0.880176
Si Si2 0.166046 0.667815 0.582956
Si Si3 0.656640 0.744304 0.307585
Si Si4 0.506770 0.668307 0.750000
Si Si5 0.267947 0.365248 0.837824
Si Si6 0.458435 0.088676 0.518391
O O1 0.735732 0.471464 0.880525
O O2 0.574423 0.425578 0.874854
O O3 0.684549 0.566274 0.833869
O O4 0.681856 0.559056 0.930708
O O5 0.147435 0.573718 0.598309
O O6 0.262596 0.737405 0.598970
O O7 0.099166 0.688897 0.610373
O O8 0.158437 0.675386 0.524533
O O9 0.642492 0.724516 0.250000
O O10 0.689705 0.844853 0.318335
O O11 0.725236 0.719696 0.328925
O O12 0.425416 0.574585 0.750000
O O13 0.475603 0.737802 0.750000
O O14 0.563494 0.678887 0.702702
O O15 0.167330 0.334660 0.835968
O O16 0.535283 0.070566 0.529331
O O17 0.376301 0.000000 0.500000
#
# Coordination Sequence:
#
# PCOD8330460 Si02
#       6
#    24  24  24  12  24  24
#     4  10  20  33  49  69  96 131 170 209 248 290
#     4  10  19  30  46  70 102 138 172 204 239 285
#     4  10  21  37  54  73  95 122 159 205 256 302
#     4  10  19  30  45  68 100 136 168 196 225 264
#     4  10  20  34  52  74  99 128 161 197 243 295
#     4   9  17  29  45  65  91 125 168 214 252 285
#
# _framework density 17.276440999999998
#
# number of rings (size 3 to 8) (size 9 to 14) (size 15 to 20)
#    0.000    2.182    0.909    2.636    0.000    3.273 
#    0.000    3.636    0.000    1.455    0.000    0.000 
#    0.000    0.000    0.000    0.000    0.000   37.818 
#
# Total GULP energy -1636516.879046 kJ/mol
# GULP energy per Si atom -12397.855144 kJ/mol
# Density = 1.723712 g / cm^3
# Si number density = 17.276441 Si / 1000 Ang^3
#
#
#
# Elastic Constant Matrix: (Units=GPa)
#
#
# Indices 1 2 3 4 5 6 
#
# 1 91.0082 58.9967 37.6508 0.0000 0.0000 0.0000
# 2 58.9967 91.0082 37.6508 0.0000 0.0000 0.0000
# 3 37.6508 37.6508 87.1992 0.0000 0.0000 0.0000
# 4 0.0000 0.0000 0.0000 22.7011 0.0000 0.0000
# 5 0.0000 0.0000 0.0000 0.0000 22.7011 0.0000
# 6 0.0000 0.0000 0.0000 0.0000 0.0000 16.0058
#
#
#
# Elastic Compliance Matrix: (Units=1/GPa)
#
#
# Indices 1 2 3 4 5 6 
#
# 1 0.019875 -0.011364 -0.003675 0.000000 0.000000 0.000000
# 2 -0.011364 0.019875 -0.003675 0.000000 0.000000 0.000000
# 3 -0.003675 -0.003675 0.014642 0.000000 0.000000 0.000000
# 4 0.000000 0.000000 0.000000 0.044051 0.000000 0.000000
# 5 0.000000 0.000000 0.000000 0.000000 0.044051 0.000000
# 6 0.000000 0.000000 0.000000 0.000000 0.000000 0.062477
#
#
# Mechanical properties :
#
#
# Convention : Reuss Voigt Hill
#
# Bulk Modulus (GPa) = 58.94785 59.75691 59.35238
# Shear Modulus (GPa) = 20.15701 21.27607 20.71654
#
# Velocity S-wave (km/s) = 3.41945 3.51309 3.46659
# Velocity P-wave (km/s) = 7.05582 7.14979 7.10296
#
# Compressibility (1/GPa) = 0.01696415
#
# Stress axis : x y z
#
# Youngs Moduli (GPa) = 50.31449 50.31449 68.29872
#
# Poissons Ratio (x) = 0.57176 0.25100
# Poissons Ratio (y) = 0.57176 0.25100
# Poissons Ratio (z) = 0.18491 0.18491
#
# Static dielectric constant tensor:
#      x y z
#    x 3.109070 0.000000 0.000000 
#    y 0.000000 3.109070 0.000000 
#    z 0.000000 0.000000 3.464190 
# 
# 
# High freq. dielectric constant tensor:
#      x y z
#    x 1.645530 0.000000 0.000000 
#    y 0.000000 1.645530 0.000000 
#    z 0.000000 0.000000 1.684190 
# 
# From -- ./inp_files/10775.got.cif
#   From: 2010.03.12/outbox.cif.g09.slc.cpg/sg194_6_cif.got.tgz:10775.got - 2010.04.01 12:26:19.
