data_PCOD8330812
_publ_section_title
;
Structure prediction by ZEFSAII (Michael W. Deem and Ramdas Pophale) SiO2 
 PCOD8330812
Probable space group: P 63/M M C
;
_chemical_formula_sum "Si O2"
_cell_formula_units_Z 144
_cell_length_a 21.357717
_cell_length_b 21.357717
_cell_length_c 18.921314
_cell_angle_alpha 90.000000
_cell_angle_beta 90.000000
_cell_angle_gamma 120.000000
_cell_volume 7474.662360
_symmetry_space_group_name_H-M "P 63/M M C"
_symmetry_group_IT_number 194
_symmetry_cell_setting 'hexagonal'
loop_
_space_group_symop_operation_xyz
x,y,z
x-y,x,1/2+z
-y,x-y,z
-x,-y,1/2+z
-x+y,-x,z
y,-x+y,1/2+z
x-y,-y,-z
-x,-x+y,-z
y,x,-z
-y,-x,1/2-z
-x+y,y,1/2-z
x,x-y,1/2-z
-x,-y,-z
-x+y,-x,1/2-z
y,-x+y,-z
x,y,1/2-z
x-y,x,-z
-y,x-y,1/2-z
-x+y,y,z
x,x-y,z
-y,-x,z
y,x,1/2+z
x-y,-y,1/2+z
-x,-x+y,1/2+z
loop_
_atom_site_type_symbol
_atom_site_label
_atom_site_fract_x
_atom_site_fract_y
_atom_site_fract_z
Si Si1 0.863217 0.583352 0.057742
Si Si2 0.208102 0.930203 0.333132
Si Si3 0.606710 0.532850 0.567570
Si Si4 0.395268 0.457894 0.833303
Si Si5 0.193380 0.246631 0.564693
Si Si6 0.708382 0.558785 0.672824
O O1 0.776447 0.552894 0.044136
O O2 0.872406 0.551540 0.133010
O O3 0.901099 0.668506 0.055599
O O4 0.907727 0.565656 0.999709
O O5 0.215610 0.937576 0.250000
O O6 0.125839 0.874161 0.355849
O O7 0.258170 0.897864 0.359933
O O8 0.230527 0.007717 0.363964
O O9 0.531738 0.468263 0.538522
O O10 0.593947 0.587357 0.617547
O O11 0.645592 0.503647 0.620711
O O12 0.383109 0.434001 0.750000
O O13 0.459242 0.540759 0.838995
O O14 0.208238 0.208238 0.500000
O O15 0.107412 0.214823 0.571450
O O16 0.675314 0.554558 0.750000
O O17 0.767210 0.534419 0.677051
#
# Coordination Sequence:
#
# PCOD8330812 Si02
#       6
#    24  24  24  24  24  24
#     4  11  23  37  56  81 109 144 182 225 276 326
#     4   9  18  34  56  79 104 135 168 204 249 303
#     4  11  21  34  55  81 109 141 178 222 274 329
#     4  10  21  37  58  84 113 145 181 224 277 335
#     4  11  22  34  52  77 104 135 170 211 260 309
#     4   9  17  30  51  79 109 141 175 212 259 318
#
# _framework density 19.265084999999999
#
# number of rings (size 3 to 8) (size 9 to 14) (size 15 to 20)
#    0.000    1.833    0.000    6.500    0.000    7.667 
#    0.000    1.667    0.000    9.000    0.000    0.000 
#    0.000    0.000    0.000    0.000    0.000    0.000 
#
# Total GULP energy -1783994.243069 kJ/mol
# GULP energy per Si atom -12388.848910 kJ/mol
# Density = 1.922124 g / cm^3
# Si number density = 19.265085 Si / 1000 Ang^3
#
#
#
# Elastic Constant Matrix: (Units=GPa)
#
#
# Indices 1 2 3 4 5 6 
#
# 1 57.1095 22.6156 34.6037 0.0000 0.0000 0.0000
# 2 22.6156 57.1095 34.6037 0.0000 0.0000 0.0000
# 3 34.6037 34.6037 94.8217 0.0000 0.0000 0.0000
# 4 0.0000 0.0000 0.0000 23.6290 0.0000 0.0000
# 5 0.0000 0.0000 0.0000 0.0000 23.6290 0.0000
# 6 0.0000 0.0000 0.0000 0.0000 0.0000 17.2469
#
#
#
# Elastic Compliance Matrix: (Units=1/GPa)
#
#
# Indices 1 2 3 4 5 6 
#
# 1 0.023675 -0.005316 -0.006700 0.000000 0.000000 0.000000
# 2 -0.005316 0.023675 -0.006700 0.000000 0.000000 0.000000
# 3 -0.006700 -0.006700 0.015436 0.000000 0.000000 0.000000
# 4 0.000000 0.000000 0.000000 0.042321 0.000000 0.000000
# 5 0.000000 0.000000 0.000000 0.000000 0.042321 0.000000
# 6 0.000000 0.000000 0.000000 0.000000 0.000000 0.057981
#
#
# Mechanical properties :
#
#
# Convention : Reuss Voigt Hill
#
# Bulk Modulus (GPa) = 39.44016 43.63184 41.53600
# Shear Modulus (GPa) = 19.89720 20.71549 20.30635
#
# Velocity S-wave (km/s) = 3.21723 3.28271 3.25013
# Velocity P-wave (km/s) = 5.85812 6.08815 5.97424
#
# Compressibility (1/GPa) = 0.02535486
#
# Stress axis : x y z
#
# Youngs Moduli (GPa) = 42.23889 42.23889 64.78316
#
# Poissons Ratio (x) = 0.22453 0.43404
# Poissons Ratio (y) = 0.22453 0.43404
# Poissons Ratio (z) = 0.28299 0.28299
#
# Static dielectric constant tensor:
#      x y z
#    x 3.684230 0.000000 0.000000 
#    y 0.000000 3.684230 0.000000 
#    z 0.000000 0.000000 3.762940 
# 
# 
# High freq. dielectric constant tensor:
#      x y z
#    x 1.732550 0.000000 0.000000 
#    y 0.000000 1.732550 0.000000 
#    z 0.000000 0.000000 1.766610 
# 
# From -- ./inp_files/8269.got.cif
#   From: 2010.03.12/outbox.cif.g09.slc.cpg/sg194_5_cif.got.tgz:8269.got - 2010.04.01 12:26:19.
