data_PCOD8330370
_publ_section_title
;
Structure prediction by ZEFSAII (Michael W. Deem and Ramdas Pophale) SiO2 
 PCOD8330370
Probable space group: P 63/M M C
;
_chemical_formula_sum "Si O2"
_cell_formula_units_Z 132
_cell_length_a 17.060199
_cell_length_b 17.060199
_cell_length_c 36.118508
_cell_angle_alpha 90.000000
_cell_angle_beta 90.000000
_cell_angle_gamma 120.000000
_cell_volume 9103.923907
_symmetry_space_group_name_H-M "P 63/M M C"
_symmetry_group_IT_number 194
_symmetry_cell_setting 'hexagonal'
loop_
_space_group_symop_operation_xyz
x,y,z
x-y,x,1/2+z
-y,x-y,z
-x,-y,1/2+z
-x+y,-x,z
y,-x+y,1/2+z
x-y,-y,-z
-x,-x+y,-z
y,x,-z
-y,-x,1/2-z
-x+y,y,1/2-z
x,x-y,1/2-z
-x,-y,-z
-x+y,-x,1/2-z
y,-x+y,-z
x,y,1/2-z
x-y,x,-z
-y,x-y,1/2-z
-x+y,y,z
x,x-y,z
-y,-x,z
y,x,1/2+z
x-y,-y,1/2+z
-x,-x+y,1/2+z
loop_
_atom_site_type_symbol
_atom_site_label
_atom_site_fract_x
_atom_site_fract_y
_atom_site_fract_z
Si Si1 0.153504 0.666315 0.342912
Si Si2 0.057456 0.758450 0.463181
Si Si3 0.813722 0.814022 0.750000
Si Si4 0.760968 0.053010 0.677619
Si Si5 0.155364 0.489043 0.429727
Si Si6 0.999070 0.184141 0.106912
O O1 0.142761 0.571381 0.329785
O O2 0.254568 0.745433 0.332793
O O3 0.077564 0.680727 0.322191
O O4 0.135916 0.667140 0.386422
O O5 0.144033 0.855968 0.469854
O O6 0.086282 0.685197 0.452489
O O7 0.000000 0.726351 0.500000
O O8 0.996110 0.762920 0.430483
O O9 0.913618 0.827235 0.750000
O O10 0.756430 0.758022 0.785568
O O11 0.824480 0.912240 0.750000
O O12 0.854118 0.145883 0.675313
O O13 0.753368 0.993106 0.641913
O O14 0.258276 0.516552 0.438438
O O15 0.140470 0.570235 0.442839
O O16 0.916065 0.083936 0.107758
O O17 0.088991 0.177982 0.109044
#
# Coordination Sequence:
#
# PCOD8330370 Si02
#       6
#    24  24  12  24  24  24
#     4   9  15  26  44  66  89 115 144 173 206 250
#     4  10  19  30  42  59  84 113 144 178 216 254
#     4  10  19  30  45  64  88 118 150 182 213 248
#     4   9  17  29  43  62  87 113 142 176 215 248
#     4   9  16  27  44  64  85 109 140 176 212 254
#     4  10  18  29  43  59  80 110 147 182 213 249
#
# _framework density 14.499242000000001
#
# number of rings (size 3 to 8) (size 9 to 14) (size 15 to 20)
#    0.000    2.545    1.818    1.727    0.000    1.818 
#    0.000    2.273    0.000    2.909    0.000    1.273 
#    0.000    0.000    0.000   11.273    0.000    0.000 
#
# Total GULP energy -1636622.989979 kJ/mol
# GULP energy per Si atom -12398.659015 kJ/mol
# Density = 1.446624 g / cm^3
# Si number density = 14.499242 Si / 1000 Ang^3
#
#
#
# Elastic Constant Matrix: (Units=GPa)
#
#
# Indices 1 2 3 4 5 6 
#
# 1 73.3564 30.4629 47.9694 0.0000 0.0000 0.0000
# 2 30.4629 73.3564 47.9694 0.0000 0.0000 0.0000
# 3 47.9694 47.9694 92.5657 0.0000 0.0000 0.0000
# 4 0.0000 0.0000 0.0000 19.5984 0.0000 0.0000
# 5 0.0000 0.0000 0.0000 0.0000 19.5984 0.0000
# 6 0.0000 0.0000 0.0000 0.0000 0.0000 21.4467
#
#
#
# Elastic Compliance Matrix: (Units=1/GPa)
#
#
# Indices 1 2 3 4 5 6 
#
# 1 0.020899 -0.002415 -0.009579 0.000000 0.000000 0.000000
# 2 -0.002415 0.020899 -0.009579 0.000000 0.000000 0.000000
# 3 -0.009579 -0.009579 0.020731 0.000000 0.000000 0.000000
# 4 0.000000 0.000000 0.000000 0.051025 0.000000 0.000000
# 5 0.000000 0.000000 0.000000 0.000000 0.051025 0.000000
# 6 0.000000 0.000000 0.000000 0.000000 0.000000 0.046627
#
#
# Mechanical properties :
#
#
# Convention : Reuss Voigt Hill
#
# Bulk Modulus (GPa) = 51.58977 54.67576 53.13276
# Shear Modulus (GPa) = 19.17107 19.65383 19.41245
#
# Velocity S-wave (km/s) = 3.64017 3.68572 3.66301
# Velocity P-wave (km/s) = 7.30247 7.47689 7.39019
#
# Compressibility (1/GPa) = 0.01938369
#
# Stress axis : x y z
#
# Youngs Moduli (GPa) = 47.85011 47.85011 48.23757
#
# Poissons Ratio (x) = 0.11556 0.46205
# Poissons Ratio (y) = 0.11556 0.46205
# Poissons Ratio (z) = 0.45834 0.45834
#
# Static dielectric constant tensor:
#      x y z
#    x 2.739190 0.000000 0.000000 
#    y 0.000000 2.739190 0.000000 
#    z 0.000000 0.000000 2.856990 
# 
# 
# High freq. dielectric constant tensor:
#      x y z
#    x 1.540070 0.000000 0.000000 
#    y 0.000000 1.540070 0.000000 
#    z 0.000000 0.000000 1.550430 
# 
# From -- ./inp_files/12010.got.cif
#   From: 2010.03.12/outbox.cif.g09.slc.cpg/sg194_7_cif.got.tgz:12010.got - 2010.04.01 12:26:19.
