data_PCOD8330051
_publ_section_title
;
Structure prediction by ZEFSAII (Michael W. Deem and Ramdas Pophale) SiO2 
 PCOD8330051
Probable space group: P 63/M C M
;
_chemical_formula_sum "Si O2"
_cell_formula_units_Z 144
_cell_length_a 23.288834
_cell_length_b 23.288834
_cell_length_c 17.348704
_cell_angle_alpha 90.000000
_cell_angle_beta 90.000000
_cell_angle_gamma 120.000000
_cell_volume 8148.790631
_symmetry_space_group_name_H-M "P 63/M C M"
_symmetry_group_IT_number 193
_symmetry_cell_setting 'hexagonal'
loop_
_space_group_symop_operation_xyz
x,y,z
x-y,x,1/2+z
-y,x-y,z
-x,-y,1/2+z
-x+y,-x,z
y,-x+y,1/2+z
x-y,-y,1/2-z
-x,-x+y,1/2-z
y,x,1/2-z
-y,-x,-z
-x+y,y,-z
x,x-y,-z
-x,-y,-z
-x+y,-x,1/2-z
y,-x+y,-z
x,y,1/2-z
x-y,x,-z
-y,x-y,1/2-z
-x+y,y,1/2+z
x,x-y,1/2+z
-y,-x,1/2+z
y,x,z
x-y,-y,z
-x,-x+y,z
loop_
_atom_site_type_symbol
_atom_site_label
_atom_site_fract_x
_atom_site_fract_y
_atom_site_fract_z
Si Si1 0.820590 0.742358 0.436943
Si Si2 0.747062 0.137875 0.659852
Si Si3 0.518885 0.593072 0.338854
Si Si4 0.404561 0.809489 0.590034
Si Si5 0.073982 0.928365 0.839013
Si Si6 0.255719 0.743595 0.407852
O O1 0.867203 0.734405 0.500000
O O2 0.775773 0.775773 0.465312
O O3 0.774858 0.672523 0.395582
O O4 0.871283 0.787393 0.372771
O O5 0.765179 0.136431 0.750000
O O6 0.669005 0.097129 0.645626
O O7 0.773296 0.213590 0.632563
O O8 0.499000 0.580826 0.250000
O O9 0.550293 0.550293 0.368583
O O10 0.451849 0.566278 0.387466
O O11 0.399520 0.799039 0.500000
O O12 0.331655 0.786405 0.622737
O O13 0.437506 0.767620 0.622474
O O14 0.090326 0.930708 0.750000
O O15 0.000000 0.914378 0.853106
O O16 0.123500 0.000000 0.877226
O O17 0.251138 0.748863 0.500000
#
# Coordination Sequence:
#
# PCOD8330051 Si02
#       6
#    24  24  24  24  24  24
#     4  11  22  35  52  74 100 129 163 206 257 310
#     4  10  20  34  53  75  99 132 174 217 256 298
#     4   9  18  32  49  70  97 129 167 210 251 289
#     4   9  17  29  49  74 101 132 162 198 243 294
#     4   9  17  30  49  72  97 125 157 194 239 295
#     4   9  17  31  50  76 107 136 168 206 252 300
#
# _framework density 17.671333000000001
#
# number of rings (size 3 to 8) (size 9 to 14) (size 15 to 20)
#    0.000    2.500    0.000    2.500    0.000    4.667 
#    0.000    0.000    0.000    6.667    0.000    2.333 
#    0.000    0.000    0.000    0.000    0.000    0.000 
#
# Total GULP energy -1784432.616380 kJ/mol
# GULP energy per Si atom -12391.893169 kJ/mol
# Density = 1.763111 g / cm^3
# Si number density = 17.671333 Si / 1000 Ang^3
#
#
#
# Elastic Constant Matrix: (Units=GPa)
#
#
# Indices 1 2 3 4 5 6 
#
# 1 109.7974 54.4894 34.1320 0.0000 0.0000 0.0000
# 2 54.4894 109.7974 34.1320 0.0000 0.0000 0.0000
# 3 34.1320 34.1320 32.4696 0.0000 0.0000 0.0000
# 4 0.0000 0.0000 0.0000 57.2993 0.0000 0.0000
# 5 0.0000 0.0000 0.0000 0.0000 57.2993 0.0000
# 6 0.0000 0.0000 0.0000 0.0000 0.0000 27.6540
#
#
#
# Elastic Compliance Matrix: (Units=1/GPa)
#
#
# Indices 1 2 3 4 5 6 
#
# 1 0.014444 -0.003636 -0.011361 0.000000 0.000000 0.000000
# 2 -0.003636 0.014444 -0.011361 0.000000 0.000000 0.000000
# 3 -0.011361 -0.011361 0.054683 0.000000 0.000000 0.000000
# 4 0.000000 0.000000 0.000000 0.017452 0.000000 0.000000
# 5 0.000000 0.000000 0.000000 0.000000 0.017452 0.000000
# 6 0.000000 0.000000 0.000000 0.000000 0.000000 0.036161
#
#
# Mechanical properties :
#
#
# Convention : Reuss Voigt Hill
#
# Bulk Modulus (GPa) = 32.40997 55.28571 43.84784
# Shear Modulus (GPa) = 22.97386 37.07125 30.02256
#
# Velocity S-wave (km/s) = 3.60955 4.58516 4.12629
# Velocity P-wave (km/s) = 5.97930 7.70617 6.89700
#
# Compressibility (1/GPa) = 0.03085470
#
# Stress axis : x y z
#
# Youngs Moduli (GPa) = 69.23253 69.23253 18.28713
#
# Poissons Ratio (x) = 0.25176 0.20776
# Poissons Ratio (y) = 0.25176 0.20776
# Poissons Ratio (z) = 0.78655 0.78655
#
# Static dielectric constant tensor:
#      x y z
#    x 3.420920 0.000000 0.000000 
#    y 0.000000 3.420920 0.000000 
#    z 0.000000 0.000000 3.187830 
# 
# 
# High freq. dielectric constant tensor:
#      x y z
#    x 1.684230 0.000000 0.000000 
#    y 0.000000 1.684230 0.000000 
#    z 0.000000 0.000000 1.670070 
# 
# From -- ./inp_files/6567.got.cif
#   From: 2010.03.12/outbox.cif.g09.slc.cpg/sg193_4_cif.got.tgz:6567.got - 2010.04.01 12:20:39.
