data_PCOD8330217
_publ_section_title
;
Structure prediction by ZEFSAII (Michael W. Deem and Ramdas Pophale) SiO2 
 PCOD8330217
Probable space group: P 63/M C M
;
_chemical_formula_sum "Si O2"
_cell_formula_units_Z 120
_cell_length_a 19.068474
_cell_length_b 19.068474
_cell_length_c 18.559515
_cell_angle_alpha 90.000000
_cell_angle_beta 90.000000
_cell_angle_gamma 120.000000
_cell_volume 5844.254671
_symmetry_space_group_name_H-M "P 63/M C M"
_symmetry_group_IT_number 193
_symmetry_cell_setting 'hexagonal'
loop_
_space_group_symop_operation_xyz
x,y,z
x-y,x,1/2+z
-y,x-y,z
-x,-y,1/2+z
-x+y,-x,z
y,-x+y,1/2+z
x-y,-y,1/2-z
-x,-x+y,1/2-z
y,x,1/2-z
-y,-x,-z
-x+y,y,-z
x,x-y,-z
-x,-y,-z
-x+y,-x,1/2-z
y,-x+y,-z
x,y,1/2-z
x-y,x,-z
-y,x-y,1/2-z
-x+y,y,1/2+z
x,x-y,1/2+z
-y,-x,1/2+z
y,x,z
x-y,-y,z
-x,-x+y,z
loop_
_atom_site_type_symbol
_atom_site_label
_atom_site_fract_x
_atom_site_fract_y
_atom_site_fract_z
Si Si1 0.632498 0.632498 0.336085
Si Si2 0.835750 0.335665 0.416644
Si Si3 0.849041 0.753443 0.578887
Si Si4 0.722184 0.628843 0.828136
Si Si5 0.490101 0.667713 0.918339
Si Si6 0.797832 0.000000 0.834392
O O1 0.617096 0.617096 0.250000
O O2 0.642279 0.559518 0.371438
O O3 0.715219 0.715219 0.352182
O O4 0.806433 0.400757 0.405097
O O5 0.755120 0.252890 0.394983
O O6 0.853560 0.332544 0.500980
O O7 0.867596 0.735192 0.500000
O O8 0.804785 0.804785 0.572357
O O9 0.796472 0.666300 0.616230
O O10 0.925831 0.801046 0.629576
O O11 0.750294 0.613903 0.750000
O O12 0.690777 0.690777 0.817377
O O13 0.652431 0.546018 0.862780
O O14 0.812452 0.000000 0.750000
#
# Coordination Sequence:
#
# PCOD8330217 Si02
#       6
#    12  24  24  24  24  12
#     4  11  26  43  65  98 132 168 218 275 330 390
#     4  10  23  40  65  96 131 171 220 266 326 392
#     4  11  23  40  65  94 124 164 216 265 319 389
#     4  10  23  39  60  90 124 162 209 262 315 377
#     4  10  22  40  65  92 129 170 213 265 320 390
#     4  11  24  42  64  90 132 171 205 265 335 389
#
# _framework density 20.532985
#
# number of rings (size 3 to 8) (size 9 to 14) (size 15 to 20)
#    0.000    1.600    1.000    2.200    8.400    6.800 
#    0.600    0.500    0.000    2.400    0.000    0.000 
#    0.000    0.000    0.000    0.000    0.000    0.000 
#
# Total GULP energy -1487239.829930 kJ/mol
# GULP energy per Si atom -12393.665249 kJ/mol
# Density = 2.048625 g / cm^3
# Si number density = 20.532985 Si / 1000 Ang^3
#
#
#
# Elastic Constant Matrix: (Units=GPa)
#
#
# Indices 1 2 3 4 5 6 
#
# 1 82.9047 35.6315 57.8784 0.0000 0.0000 0.0000
# 2 35.6315 82.9047 57.8784 0.0000 0.0000 0.0000
# 3 57.8784 57.8784 165.2688 0.0000 0.0000 0.0000
# 4 0.0000 0.0000 0.0000 49.6647 0.0000 0.0000
# 5 0.0000 0.0000 0.0000 0.0000 49.6647 0.0000
# 6 0.0000 0.0000 0.0000 0.0000 0.0000 23.6366
#
#
#
# Elastic Compliance Matrix: (Units=1/GPa)
#
#
# Indices 1 2 3 4 5 6 
#
# 1 0.016987 -0.004166 -0.004490 0.000000 0.000000 0.000000
# 2 -0.004166 0.016987 -0.004490 0.000000 0.000000 0.000000
# 3 -0.004490 -0.004490 0.009196 0.000000 0.000000 0.000000
# 4 0.000000 0.000000 0.000000 0.020135 0.000000 0.000000
# 5 0.000000 0.000000 0.000000 0.000000 0.020135 0.000000
# 6 0.000000 0.000000 0.000000 0.000000 0.000000 0.042307
#
#
# Mechanical properties :
#
#
# Convention : Reuss Voigt Hill
#
# Bulk Modulus (GPa) = 59.25036 70.42831 64.83934
# Shear Modulus (GPa) = 31.71259 36.57253 34.14256
#
# Velocity S-wave (km/s) = 3.93424 4.22496 4.08219
# Velocity P-wave (km/s) = 7.03964 7.62725 7.33932
#
# Compressibility (1/GPa) = 0.01687753
#
# Stress axis : x y z
#
# Youngs Moduli (GPa) = 58.86750 58.86750 108.74761
#
# Poissons Ratio (x) = 0.24526 0.48828
# Poissons Ratio (y) = 0.24526 0.48828
# Poissons Ratio (z) = 0.26431 0.26431
#
# Static dielectric constant tensor:
#      x y z
#    x 3.750370 0.000000 0.000000 
#    y 0.000000 3.750370 0.000000 
#    z 0.000000 0.000000 4.019490 
# 
# 
# High freq. dielectric constant tensor:
#      x y z
#    x 1.805210 0.000000 0.000000 
#    y 0.000000 1.805210 0.000000 
#    z 0.000000 0.000000 1.814420 
# 
# From -- ./inp_files/5368.got.cif
#   From: 2010.03.12/outbox.cif.g09.slc.cpg/sg193_3_cif.got.tgz:5368.got - 2010.04.01 12:20:39.
