data_PCOD8330282
_publ_section_title
;
Structure prediction by ZEFSAII (Michael W. Deem and Ramdas Pophale) SiO2 
 PCOD8330282
Probable space group: P 63/M C M
;
_chemical_formula_sum "Si O2"
_cell_formula_units_Z 80
_cell_length_a 12.846532
_cell_length_b 12.846532
_cell_length_c 34.957216
_cell_angle_alpha 90.000000
_cell_angle_beta 90.000000
_cell_angle_gamma 120.000000
_cell_volume 4996.193796
_symmetry_space_group_name_H-M "P 63/M C M"
_symmetry_group_IT_number 193
_symmetry_cell_setting 'hexagonal'
loop_
_space_group_symop_operation_xyz
x,y,z
x-y,x,1/2+z
-y,x-y,z
-x,-y,1/2+z
-x+y,-x,z
y,-x+y,1/2+z
x-y,-y,1/2-z
-x,-x+y,1/2-z
y,x,1/2-z
-y,-x,-z
-x+y,y,-z
x,x-y,-z
-x,-y,-z
-x+y,-x,1/2-z
y,-x+y,-z
x,y,1/2-z
x-y,x,-z
-y,x-y,1/2-z
-x+y,y,1/2+z
x,x-y,1/2+z
-y,-x,1/2+z
y,x,z
x-y,-y,z
-x,-x+y,z
loop_
_atom_site_type_symbol
_atom_site_label
_atom_site_fract_x
_atom_site_fract_y
_atom_site_fract_z
Si Si1 0.333334 0.666667 0.295163
Si Si2 0.495374 0.864592 0.848932
Si Si3 0.724226 0.862910 0.456509
Si Si4 0.864809 0.577280 0.388583
O O1 0.333334 0.666668 0.250000
O O2 0.381176 0.800175 0.311236
O O3 0.405287 0.849003 0.884510
O O4 0.582726 0.814235 0.860801
O O5 0.579199 0.000000 0.836629
O O6 0.677426 0.838713 0.500000
O O7 0.775024 0.775024 0.444052
O O8 0.609301 0.840359 0.431162
O O9 0.832524 0.000000 0.452179
O O10 0.000000 0.675477 0.375348
#
# Coordination Sequence:
#
# PCOD8330282 Si02
#       4
#     8  24  24  24
#     4   9  18  30  45  69  94 113 142 177 207 252
#     4   9  17  30  47  65  89 118 144 177 219 257
#     4   9  16  26  41  62  88 117 150 189 229 265
#     4   9  17  29  45  64  86 115 150 183 218 262
#
# _framework density 16.012188999999999
#
# number of rings (size 3 to 8) (size 9 to 14) (size 15 to 20)
#    0.000    3.000    0.000    1.800    0.000    1.800 
#    0.000    1.500    0.000    7.800    0.000    0.000 
#    0.000    0.000    0.000    1.800    0.000    0.000 
#
# Total GULP energy -991218.607752 kJ/mol
# GULP energy per Si atom -12390.232597 kJ/mol
# Density = 1.597574 g / cm^3
# Si number density = 16.012189 Si / 1000 Ang^3
#
#
#
# Elastic Constant Matrix: (Units=GPa)
#
#
# Indices 1 2 3 4 5 6 
#
# 1 92.0180 55.6677 51.0196 0.0001 0.0000 -0.0001
# 2 55.6677 92.0180 51.0194 0.0000 -0.0001 0.0001
# 3 51.0196 51.0194 101.1356 0.0001 -0.0001 -0.0001
# 4 0.0001 0.0000 0.0001 15.1349 0.0000 0.0000
# 5 0.0000 -0.0001 -0.0001 0.0000 15.1348 0.0000
# 6 -0.0001 0.0001 -0.0001 0.0000 0.0000 18.1755
#
#
#
# Elastic Compliance Matrix: (Units=1/GPa)
#
#
# Indices 1 2 3 4 5 6 
#
# 1 0.018952 -0.008558 -0.005243 0.000000 0.000000 0.000000
# 2 -0.008558 0.018952 -0.005243 0.000000 0.000000 0.000000
# 3 -0.005243 -0.005243 0.015178 0.000000 0.000000 0.000000
# 4 0.000000 0.000000 0.000000 0.066073 0.000000 0.000000
# 5 0.000000 0.000000 0.000000 0.000000 0.066073 0.000000
# 6 0.000000 0.000000 0.000000 0.000000 0.000000 0.055019
#
#
# Mechanical properties :
#
#
# Convention : Reuss Voigt Hill
#
# Bulk Modulus (GPa) = 66.70121 66.73164 66.71643
# Shear Modulus (GPa) = 17.64706 18.18671 17.91688
#
# Velocity S-wave (km/s) = 3.32339 3.37383 3.34870
# Velocity P-wave (km/s) = 7.51489 7.54605 7.53049
#
# Compressibility (1/GPa) = 0.01499223
#
# Stress axis : x y z
#
# Youngs Moduli (GPa) = 52.76493 52.76506 65.88520
#
# Poissons Ratio (x) = 0.45157 0.34546
# Poissons Ratio (y) = 0.45157 0.34546
# Poissons Ratio (z) = 0.27667 0.27666
#
# Static dielectric constant tensor:
#      x y z
#    x 3.147890 0.000000 0.000000 
#    y 0.000000 3.147890 0.000000 
#    z 0.000000 0.000000 2.768110 
# 
# 
# High freq. dielectric constant tensor:
#      x y z
#    x 1.617600 0.000000 0.000000 
#    y 0.000000 1.617600 0.000000 
#    z 0.000000 0.000000 1.580860 
# 
# From -- ./inp_files/8735.got.cif
#   From: 2010.03.12/outbox.cif.g09.slc.cpg/sg193_5_cif.got.tgz:8735.got - 2010.04.01 12:20:39.
