data_PCOD8330980
_publ_section_title
;
Structure prediction by ZEFSAII (Michael W. Deem and Ramdas Pophale) SiO2 
 PCOD8330980
Probable space group: P 42 3 2
;
_chemical_formula_sum "Si O2"
_cell_formula_units_Z 104
_cell_length_a 17.802766
_cell_length_b 17.802766
_cell_length_c 17.802766
_cell_angle_alpha 90.000000
_cell_angle_beta 90.000000
_cell_angle_gamma 90.000000
_cell_volume 5642.381547
_symmetry_space_group_name_H-M "P 42 3 2"
_symmetry_group_IT_number 208
_symmetry_cell_setting 'cubic'
loop_
_space_group_symop_operation_xyz
x,y,z
1/2-y,1/2+x,1/2+z
-x,-y,z
1/2+y,1/2-x,1/2+z
1/2+x,1/2-z,1/2+y
x,-y,-z
1/2+x,1/2+z,1/2-y
1/2+z,1/2+y,1/2-x
-x,y,-z
1/2-z,1/2+y,1/2+x
z,x,y
y,z,x
-y,-z,x
z,-x,-y
-y,z,-x
-z,-x,y
-z,x,-y
y,-z,-x
1/2+y,1/2+x,1/2-z
1/2-y,1/2-x,1/2-z
1/2-x,1/2+z,1/2+y
1/2-x,1/2-z,1/2-y
1/2+z,1/2-y,1/2+x
1/2-z,1/2-y,1/2-x
loop_
_atom_site_type_symbol
_atom_site_label
_atom_site_fract_x
_atom_site_fract_y
_atom_site_fract_z
Si Si1 0.198815 0.198815 0.198816
Si Si2 0.835879 0.040952 0.574475
Si Si3 0.662278 0.901610 0.173817
Si Si4 0.084127 0.321195 0.804654
Si Si5 0.204859 0.321339 0.927335
O O1 0.250000 0.250000 0.250000
O O2 0.253712 0.134750 0.161488
O O3 0.750000 0.062521 0.562521
O O4 0.880708 0.114388 0.597891
O O5 0.869169 0.000000 0.500000
O O6 0.846500 0.987706 0.646107
O O7 0.629723 0.870278 0.250000
O O8 0.661308 0.991688 0.170798
O O9 0.114071 0.385930 0.750000
O O10 0.142588 0.296592 0.867624
O O11 0.060872 0.252165 0.753594
O O12 0.250000 0.393031 0.893031
#
# Coordination Sequence:
#
# PCOD8330980 Si02
#       5
#     8  24  24  24  24
#     4   9  18  36  60  81 111 159 207 249 288 354
#     4  11  21  37  61  79 114 160 194 234 287 364
#     4  11  22  36  57  86 117 152 201 250 296 349
#     4  10  19  38  58  79 107 149 195 231 292 353
#     4  10  22  36  58  83 111 148 193 252 293 353
#
# _framework density 18.431933999999998
#
# number of rings (size 3 to 8) (size 9 to 14) (size 15 to 20)
#    0.000    1.615    2.308    5.308    3.231    3.231 
#    0.000    1.154    0.000    0.000    0.000    0.000 
#    0.000    0.000    0.000    0.000    0.000    0.000 
#
# Total GULP energy -1289046.538254 kJ/mol
# GULP energy per Si atom -12394.678252 kJ/mol
# Density = 1.838998 g / cm^3
# Si number density = 18.431934 Si / 1000 Ang^3
#
#
#
# Elastic Constant Matrix: (Units=GPa)
#
#
# Indices 1 2 3 4 5 6 
#
# 1 94.3636 46.8827 46.8827 0.0000 0.0000 0.0000
# 2 46.8827 94.3636 46.8827 0.0000 0.0000 0.0000
# 3 46.8827 46.8827 94.3637 0.0000 0.0000 0.0000
# 4 0.0000 0.0000 0.0000 16.6052 0.0000 0.0000
# 5 0.0000 0.0000 0.0000 0.0000 16.6052 0.0000
# 6 0.0000 0.0000 0.0000 0.0000 0.0000 16.6051
#
#
#
# Elastic Compliance Matrix: (Units=1/GPa)
#
#
# Indices 1 2 3 4 5 6 
#
# 1 0.015813 -0.005249 -0.005249 0.000000 0.000000 0.000000
# 2 -0.005249 0.015813 -0.005249 0.000000 0.000000 0.000000
# 3 -0.005249 -0.005249 0.015813 0.000000 0.000000 0.000000
# 4 0.000000 0.000000 0.000000 0.060222 0.000000 0.000000
# 5 0.000000 0.000000 0.000000 0.000000 0.060222 0.000000
# 6 0.000000 0.000000 0.000000 0.000000 0.000000 0.060222
#
#
# Mechanical properties :
#
#
# Convention : Reuss Voigt Hill
#
# Bulk Modulus (GPa) = 62.70966 62.70966 62.70966
# Shear Modulus (GPa) = 18.87426 19.45928 19.16677
#
# Velocity S-wave (km/s) = 3.20347 3.25274 3.22820
# Velocity P-wave (km/s) = 6.91224 6.94285 6.92756
#
# Compressibility (1/GPa) = 0.01594651
#
# Stress axis : x y z
#
# Youngs Moduli (GPa) = 63.24082 63.24082 63.24093
#
# Poissons Ratio (x) = 0.33192 0.33192
# Poissons Ratio (y) = 0.33192 0.33192
# Poissons Ratio (z) = 0.33192 0.33192
#
# Static dielectric constant tensor:
#      x y z
#    x 3.391180 0.000000 0.000000 
#    y 0.000000 3.391180 0.000000 
#    z 0.000000 0.000000 3.391180 
# 
# 
# High freq. dielectric constant tensor:
#      x y z
#    x 1.709450 0.000000 0.000000 
#    y 0.000000 1.709450 0.000000 
#    z 0.000000 0.000000 1.709450 
# 
# From -- ./inp_files/879.got.cif
#   From: 2010.03.12/outbox.cif.g09.slc.cpg/sg208_cif.got.tgz:879.got - 2010.03.30 09:03:42.
