data_PCOD8330481
_publ_section_title
;
Structure prediction by ZEFSAII (Michael W. Deem and Ramdas Pophale) SiO2 
 PCOD8330481
Probable space group: P 63/M M C
;
_chemical_formula_sum "Si O2"
_cell_formula_units_Z 120
_cell_length_a 22.899168
_cell_length_b 22.899168
_cell_length_c 14.438075
_cell_angle_alpha 90.000000
_cell_angle_beta 90.000000
_cell_angle_gamma 120.000000
_cell_volume 6556.609699
_symmetry_space_group_name_H-M "P 63/M M C"
_symmetry_group_IT_number 194
_symmetry_cell_setting 'hexagonal'
loop_
_space_group_symop_operation_xyz
x,y,z
x-y,x,1/2+z
-y,x-y,z
-x,-y,1/2+z
-x+y,-x,z
y,-x+y,1/2+z
x-y,-y,-z
-x,-x+y,-z
y,x,-z
-y,-x,1/2-z
-x+y,y,1/2-z
x,x-y,1/2-z
-x,-y,-z
-x+y,-x,1/2-z
y,-x+y,-z
x,y,1/2-z
x-y,x,-z
-y,x-y,1/2-z
-x+y,y,z
x,x-y,z
-y,-x,z
y,x,1/2+z
x-y,-y,1/2+z
-x,-x+y,1/2+z
loop_
_atom_site_type_symbol
_atom_site_label
_atom_site_fract_x
_atom_site_fract_y
_atom_site_fract_z
Si Si1 0.971630 0.242359 0.101533
Si Si2 0.059656 0.596528 0.858807
Si Si3 0.000518 0.871114 0.609988
Si Si4 0.861226 0.591602 0.461655
Si Si5 0.676019 0.612171 0.648121
O O1 0.975092 0.179949 0.147917
O O2 0.897181 0.232884 0.090200
O O3 0.017832 0.307697 0.162298
O O4 0.000000 0.251684 0.000000
O O5 0.072226 0.609377 0.750000
O O6 0.062326 0.531163 0.891558
O O7 0.119323 0.660697 0.910963
O O8 0.985822 0.584875 0.885291
O O9 0.054516 0.945485 0.646101
O O10 0.000000 0.870274 0.500000
O O11 0.926116 0.852232 0.647274
O O12 0.781092 0.562184 0.455531
O O13 0.879858 0.594985 0.570568
O O14 0.678586 0.582499 0.750000
#
# Coordination Sequence:
#
# PCOD8330481 Si02
#       5
#    24  24  24  24  24
#     4   8  15  27  42  60  86 120 158 202 249 294
#     4   9  18  34  56  79 102 130 166 209 254 297
#     4   9  15  22  34  53  77 107 148 200 254 302
#     4  10  19  30  47  73 104 136 166 200 247 302
#     4   9  18  31  47  71 100 129 165 206 247 294
#
# _framework density 18.302140999999999
#
# number of rings (size 3 to 8) (size 9 to 14) (size 15 to 20)
#    0.000    3.000    0.000    2.600    0.000    8.000 
#    0.000    0.000    0.000    2.200    0.000    0.000 
#    0.000    1.600    0.000    1.200    0.000    2.400 
#
# Total GULP energy -1486901.473362 kJ/mol
# GULP energy per Si atom -12390.845611 kJ/mol
# Density = 1.826048 g / cm^3
# Si number density = 18.302141 Si / 1000 Ang^3
#
#
#
# Elastic Constant Matrix: (Units=GPa)
#
#
# Indices 1 2 3 4 5 6 
#
# 1 104.0233 60.1475 17.5475 0.0000 0.0000 0.0000
# 2 60.1475 104.0233 17.5475 0.0000 0.0000 0.0000
# 3 17.5475 17.5475 48.2401 0.0000 0.0000 0.0000
# 4 0.0000 0.0000 0.0000 11.8305 0.0000 0.0000
# 5 0.0000 0.0000 0.0000 0.0000 11.8305 0.0000
# 6 0.0000 0.0000 0.0000 0.0000 0.0000 21.9379
#
#
#
# Elastic Compliance Matrix: (Units=1/GPa)
#
#
# Indices 1 2 3 4 5 6 
#
# 1 0.014698 -0.008093 -0.002403 0.000000 0.000000 0.000000
# 2 -0.008093 0.014698 -0.002403 0.000000 0.000000 0.000000
# 3 -0.002403 -0.002403 0.022478 0.000000 0.000000 0.000000
# 4 0.000000 0.000000 0.000000 0.084527 0.000000 0.000000
# 5 0.000000 0.000000 0.000000 0.000000 0.084527 0.000000
# 6 0.000000 0.000000 0.000000 0.000000 0.000000 0.045583
#
#
# Mechanical properties :
#
#
# Convention : Reuss Voigt Hill
#
# Bulk Modulus (GPa) = 38.34792 49.64130 43.99461
# Shear Modulus (GPa) = 16.61124 19.85605 18.23365
#
# Velocity S-wave (km/s) = 3.01593 3.29736 3.15978
# Velocity P-wave (km/s) = 5.75551 6.45592 6.11575
#
# Compressibility (1/GPa) = 0.02607704
#
# Stress axis : x y z
#
# Youngs Moduli (GPa) = 68.03552 68.03552 44.48890
#
# Poissons Ratio (x) = 0.55064 0.10689
# Poissons Ratio (y) = 0.55064 0.10689
# Poissons Ratio (z) = 0.16346 0.16346
#
# Static dielectric constant tensor:
#      x y z
#    x 3.435300 0.000000 0.000000 
#    y 0.000000 3.435300 0.000000 
#    z 0.000000 0.000000 3.043570 
# 
# 
# High freq. dielectric constant tensor:
#      x y z
#    x 1.683280 0.000000 0.000000 
#    y 0.000000 1.683280 0.000000 
#    z 0.000000 0.000000 1.711100 
# 
# From -- ./inp_files/5064.got.cif
#   From: 2010.03.12/outbox.cif.g09.slc.cpg/sg194_3_cif.got.tgz:5064.got - 2010.04.01 12:26:19.
