data_PCOD8330627
_publ_section_title
;
Structure prediction by ZEFSAII (Michael W. Deem and Ramdas Pophale) SiO2 
 PCOD8330627
Probable space group: P 63/M M C
;
_chemical_formula_sum "Si O2"
_cell_formula_units_Z 156
_cell_length_a 20.463196
_cell_length_b 20.463196
_cell_length_c 21.017279
_cell_angle_alpha 90.000000
_cell_angle_beta 90.000000
_cell_angle_gamma 120.000000
_cell_volume 7621.738588
_symmetry_space_group_name_H-M "P 63/M M C"
_symmetry_group_IT_number 194
_symmetry_cell_setting 'hexagonal'
loop_
_space_group_symop_operation_xyz
x,y,z
x-y,x,1/2+z
-y,x-y,z
-x,-y,1/2+z
-x+y,-x,z
y,-x+y,1/2+z
x-y,-y,-z
-x,-x+y,-z
y,x,-z
-y,-x,1/2-z
-x+y,y,1/2-z
x,x-y,1/2-z
-x,-y,-z
-x+y,-x,1/2-z
y,-x+y,-z
x,y,1/2-z
x-y,x,-z
-y,x-y,1/2-z
-x+y,y,z
x,x-y,z
-y,-x,z
y,x,1/2+z
x-y,-y,1/2+z
-x,-x+y,1/2+z
loop_
_atom_site_type_symbol
_atom_site_label
_atom_site_fract_x
_atom_site_fract_y
_atom_site_fract_z
Si Si1 0.854494 0.001669 0.648929
Si Si2 0.817747 0.333378 0.983223
Si Si3 0.733179 0.938196 0.452594
Si Si4 0.727069 0.789995 0.750000
Si Si5 0.883286 0.370533 0.250000
Si Si6 0.472631 0.100804 0.387751
Si Si7 0.664270 0.599276 0.887902
Si Si8 0.357882 0.388488 0.250000
O O1 0.879652 0.939826 0.641094
O O2 0.779045 0.971304 0.688863
O O3 0.837290 0.022773 0.580303
O O4 0.924201 0.075800 0.680834
O O5 0.794458 0.397229 0.983905
O O6 0.745666 0.254335 0.965210
O O7 0.846015 0.325943 0.053355
O O8 0.881643 0.355409 0.929767
O O9 0.718475 0.859238 0.484367
O O10 0.665641 0.917823 0.404023
O O11 0.734451 0.000000 0.500000
O O12 0.689983 0.844992 0.750000
O O13 0.667223 0.701549 0.750000
O O14 0.845386 0.422693 0.250000
O O15 0.862422 0.328129 0.319655
O O16 0.975327 0.423594 0.250000
O O17 0.543773 0.087545 0.384560
O O18 0.397718 0.021545 0.400535
O O19 0.667804 0.584404 0.812316
#
# Coordination Sequence:
#
# PCOD8330627 Si02
#       8
#    24  24  24  12  12  24  24  12
#     4  10  20  34  52  72  98 137 185 233 278 332
#     4  11  23  40  60  86 119 158 199 242 293 348
#     4  11  22  35  51  74 106 142 182 230 287 347
#     4  10  19  35  54  78 109 144 184 230 291 354
#     4   8  16  32  57  88 118 152 186 222 270 331
#     4   9  18  35  61  89 119 151 188 232 277 335
#     4  11  21  37  60  86 114 146 190 238 294 355
#     4  10  20  37  57  86 118 150 188 236 299 355
#
# _framework density 20.467772
#
# number of rings (size 3 to 8) (size 9 to 14) (size 15 to 20)
#    0.000    1.846    1.538    3.308    0.000    1.846 
#    0.000    6.538    0.000    2.462    0.000    2.154 
#    0.000    0.000    0.000    0.231    0.000    0.000 
#
# Total GULP energy -1932895.234867 kJ/mol
# GULP energy per Si atom -12390.354070 kJ/mol
# Density = 2.042119 g / cm^3
# Si number density = 20.467772 Si / 1000 Ang^3
#
#
#
# Elastic Constant Matrix: (Units=GPa)
#
#
# Indices 1 2 3 4 5 6 
#
# 1 61.9006 17.2204 21.4460 0.0000 0.0000 0.0000
# 2 17.2204 61.9006 21.4460 0.0000 0.0000 0.0000
# 3 21.4460 21.4460 130.4055 0.0000 0.0000 0.0000
# 4 0.0000 0.0000 0.0000 20.2974 0.0000 0.0000
# 5 0.0000 0.0000 0.0000 0.0000 20.2974 0.0000
# 6 0.0000 0.0000 0.0000 0.0000 0.0000 22.3401
#
#
#
# Elastic Compliance Matrix: (Units=1/GPa)
#
#
# Indices 1 2 3 4 5 6 
#
# 1 0.018129 -0.004253 -0.002282 0.000000 0.000000 0.000000
# 2 -0.004253 0.018129 -0.002282 0.000000 0.000000 0.000000
# 3 -0.002282 -0.002282 0.008419 0.000000 0.000000 0.000000
# 4 0.000000 0.000000 0.000000 0.049267 0.000000 0.000000
# 5 0.000000 0.000000 0.000000 0.000000 0.049267 0.000000
# 6 0.000000 0.000000 0.000000 0.000000 0.000000 0.044763
#
#
# Mechanical properties :
#
#
# Convention : Reuss Voigt Hill
#
# Bulk Modulus (GPa) = 36.97827 41.60350 39.29089
# Shear Modulus (GPa) = 23.29686 25.52659 24.41173
#
# Velocity S-wave (km/s) = 3.37741 3.53535 3.45728
# Velocity P-wave (km/s) = 5.77192 6.08567 5.93087
#
# Compressibility (1/GPa) = 0.02704291
#
# Stress axis : x y z
#
# Youngs Moduli (GPa) = 55.16141 55.16141 118.77943
#
# Poissons Ratio (x) = 0.23458 0.27105
# Poissons Ratio (y) = 0.23458 0.27105
# Poissons Ratio (z) = 0.12588 0.12588
#
# Static dielectric constant tensor:
#      x y z
#    x 3.561600 0.000000 0.000000 
#    y 0.000000 3.561600 0.000000 
#    z 0.000000 0.000000 3.924160 
# 
# 
# High freq. dielectric constant tensor:
#      x y z
#    x 1.786980 0.000000 0.000000 
#    y 0.000000 1.786980 0.000000 
#    z 0.000000 0.000000 1.808560 
# 
# From -- ./inp_files/8432.got.cif
#   From: 2010.03.12/outbox.cif.g09.slc.cpg/sg194_5_cif.got.tgz:8432.got - 2010.04.01 12:26:19.
