data_PCOD8330379
_publ_section_title
;
Structure prediction by ZEFSAII (Michael W. Deem and Ramdas Pophale) SiO2 
 PCOD8330379
Probable space group: P 63/M M C
;
_chemical_formula_sum "Si O2"
_cell_formula_units_Z 96
_cell_length_a 16.659293
_cell_length_b 16.659293
_cell_length_c 23.494396
_cell_angle_alpha 90.000000
_cell_angle_beta 90.000000
_cell_angle_gamma 120.000000
_cell_volume 5646.873376
_symmetry_space_group_name_H-M "P 63/M M C"
_symmetry_group_IT_number 194
_symmetry_cell_setting 'hexagonal'
loop_
_space_group_symop_operation_xyz
x,y,z
x-y,x,1/2+z
-y,x-y,z
-x,-y,1/2+z
-x+y,-x,z
y,-x+y,1/2+z
x-y,-y,-z
-x,-x+y,-z
y,x,-z
-y,-x,1/2-z
-x+y,y,1/2-z
x,x-y,1/2-z
-x,-y,-z
-x+y,-x,1/2-z
y,-x+y,-z
x,y,1/2-z
x-y,x,-z
-y,x-y,1/2-z
-x+y,y,z
x,x-y,z
-y,-x,z
y,x,1/2+z
x-y,-y,1/2+z
-x,-x+y,1/2+z
loop_
_atom_site_type_symbol
_atom_site_label
_atom_site_fract_x
_atom_site_fract_y
_atom_site_fract_z
Si Si1 0.515595 0.666392 0.185363
Si Si2 0.000025 0.181849 0.066866
Si Si3 0.480437 0.333927 0.480258
Si Si4 0.345519 0.972592 0.087059
O O1 0.550243 0.671780 0.250000
O O2 0.531361 0.765681 0.165063
O O3 0.406786 0.593214 0.180547
O O4 0.572058 0.632986 0.145983
O O5 0.902886 0.097115 0.087245
O O6 0.078851 0.157701 0.083146
O O7 0.017151 0.273410 0.098793
O O8 0.000000 0.200173 0.000000
O O9 0.474535 0.237268 0.464923
O O10 0.586997 0.413004 0.486453
O O11 0.427664 0.323457 0.539068
O O12 0.432835 0.361612 0.430089
#
# Coordination Sequence:
#
# PCOD8330379 Si02
#       4
#    24  24  24  24
#     4  10  20  34  52  74 100 130 165 206 250 295
#     4  10  18  29  46  70  99 131 164 199 239 286
#     4  11  21  33  49  71 100 132 164 199 243 296
#     4  11  20  32  51  73 100 130 164 203 249 294
#
# _framework density 17.000558000000002
#
# number of rings (size 3 to 8) (size 9 to 14) (size 15 to 20)
#    0.000    1.500    2.500    6.750    0.000    2.000 
#    0.000    2.500    0.000    3.000    0.000    0.000 
#    0.000    4.000    0.000    0.000    0.000    0.000 
#
# Total GULP energy -1190696.901069 kJ/mol
# GULP energy per Si atom -12403.092719 kJ/mol
# Density = 1.696186 g / cm^3
# Si number density = 17.000558 Si / 1000 Ang^3
#
#
#
# Elastic Constant Matrix: (Units=GPa)
#
#
# Indices 1 2 3 4 5 6 
#
# 1 110.9831 40.3095 39.7876 0.0000 0.0000 0.0000
# 2 40.3095 110.9831 39.7876 0.0000 0.0000 0.0000
# 3 39.7876 39.7876 70.6769 0.0000 0.0000 0.0000
# 4 0.0000 0.0000 0.0000 20.0357 0.0000 0.0000
# 5 0.0000 0.0000 0.0000 0.0000 20.0357 0.0000
# 6 0.0000 0.0000 0.0000 0.0000 0.0000 35.3368
#
#
#
# Elastic Compliance Matrix: (Units=1/GPa)
#
#
# Indices 1 2 3 4 5 6 
#
# 1 0.011770 -0.002380 -0.005286 0.000000 0.000000 0.000000
# 2 -0.002380 0.011770 -0.005286 0.000000 0.000000 0.000000
# 3 -0.005286 -0.005286 0.020101 0.000000 0.000000 0.000000
# 4 0.000000 0.000000 0.000000 0.049911 0.000000 0.000000
# 5 0.000000 0.000000 0.000000 0.000000 0.049911 0.000000
# 6 0.000000 0.000000 0.000000 0.000000 0.000000 0.028299
#
#
# Mechanical properties :
#
#
# Convention : Reuss Voigt Hill
#
# Bulk Modulus (GPa) = 56.38209 59.15693 57.76951
# Shear Modulus (GPa) = 24.56068 26.59884 25.57976
#
# Velocity S-wave (km/s) = 3.80504 3.95978 3.88318
# Velocity P-wave (km/s) = 7.24854 7.46854 7.35936
#
# Compressibility (1/GPa) = 0.01773613
#
# Stress axis : x y z
#
# Youngs Moduli (GPa) = 84.96315 84.96315 49.74984
#
# Poissons Ratio (x) = 0.20219 0.26298
# Poissons Ratio (y) = 0.20219 0.26298
# Poissons Ratio (z) = 0.44913 0.44913
#
# Static dielectric constant tensor:
#      x y z
#    x 3.259020 0.000000 0.000000 
#    y 0.000000 3.259020 0.000000 
#    z 0.000000 0.000000 2.859530 
# 
# 
# High freq. dielectric constant tensor:
#      x y z
#    x 1.666040 0.000000 0.000000 
#    y 0.000000 1.666040 0.000000 
#    z 0.000000 0.000000 1.609510 
# 
# From -- ./inp_files/10498.got.cif
#   From: 2010.03.12/outbox.cif.g09.slc.cpg/sg194_6_cif.got.tgz:10498.got - 2010.04.01 12:26:19.
