data_PCOD8330417
_publ_section_title
;
Structure prediction by ZEFSAII (Michael W. Deem and Ramdas Pophale) SiO2 
 PCOD8330417
Probable space group: P 63/M M C
;
_chemical_formula_sum "Si O2"
_cell_formula_units_Z 60
_cell_length_a 20.885321
_cell_length_b 20.885321
_cell_length_c 8.399117
_cell_angle_alpha 90.000000
_cell_angle_beta 90.000000
_cell_angle_gamma 120.000000
_cell_volume 3172.828310
_symmetry_space_group_name_H-M "P 63/M M C"
_symmetry_group_IT_number 194
_symmetry_cell_setting 'hexagonal'
loop_
_space_group_symop_operation_xyz
x,y,z
x-y,x,1/2+z
-y,x-y,z
-x,-y,1/2+z
-x+y,-x,z
y,-x+y,1/2+z
x-y,-y,-z
-x,-x+y,-z
y,x,-z
-y,-x,1/2-z
-x+y,y,1/2-z
x,x-y,1/2-z
-x,-y,-z
-x+y,-x,1/2-z
y,-x+y,-z
x,y,1/2-z
x-y,x,-z
-y,x-y,1/2-z
-x+y,y,z
x,x-y,z
-y,-x,z
y,x,1/2+z
x-y,-y,1/2+z
-x,-x+y,1/2+z
loop_
_atom_site_type_symbol
_atom_site_label
_atom_site_fract_x
_atom_site_fract_y
_atom_site_fract_z
Si Si1 0.590547 0.916903 0.061646
Si Si2 0.082169 0.164337 0.434574
Si Si3 0.541621 0.083241 0.439531
Si Si4 0.163442 0.326884 0.565344
O O1 0.597616 0.913821 0.250000
O O2 0.504063 0.879261 0.009795
O O3 0.624383 0.872999 0.976581
O O4 0.634964 0.000000 0.000000
O O5 0.127130 0.127130 0.500000
O O6 0.075278 0.150555 0.250000
O O7 0.125599 0.251198 0.468184
O O8 0.543456 0.086912 0.250000
O O9 0.500000 0.000000 0.500000
O O10 0.153056 0.306112 0.750000
#
# Coordination Sequence:
#
# PCOD8330417 Si02
#       4
#    24  12  12  12
#     4  11  21  36  56  82 112 146 183 226 275 331
#     4  12  25  43  62  84 112 151 198 249 303 361
#     4  10  18  32  54  81 108 139 174 215 260 313
#     4  12  24  39  57  83 115 150 189 238 290 342
#
# _framework density 18.910571999999998
#
# number of rings (size 3 to 8) (size 9 to 14) (size 15 to 20)
#    0.000    0.800    0.000   12.800    0.000    0.000 
#    0.000    0.000    0.000    0.800    0.000    5.600 
#    0.000    0.000    0.000    0.000    0.000    0.000 
#
# Total GULP energy -744051.535947 kJ/mol
# GULP energy per Si atom -12400.858932 kJ/mol
# Density = 1.886753 g / cm^3
# Si number density = 18.910572 Si / 1000 Ang^3
#
#
#
# Elastic Constant Matrix: (Units=GPa)
#
#
# Indices 1 2 3 4 5 6 
#
# 1 138.9769 28.4749 9.9327 0.0000 0.0000 0.0000
# 2 28.4749 138.9769 9.9327 0.0000 0.0000 0.0000
# 3 9.9327 9.9327 124.3092 0.0000 0.0000 0.0000
# 4 0.0000 0.0000 0.0000 35.3466 0.0000 0.0000
# 5 0.0000 0.0000 0.0000 0.0000 35.3466 0.0000
# 6 0.0000 0.0000 0.0000 0.0000 0.0000 55.2510
#
#
#
# Elastic Compliance Matrix: (Units=1/GPa)
#
#
# Indices 1 2 3 4 5 6 
#
# 1 0.007539 -0.001510 -0.000482 0.000000 0.000000 0.000000
# 2 -0.001510 0.007539 -0.000482 0.000000 0.000000 0.000000
# 3 -0.000482 -0.000482 0.008121 0.000000 0.000000 0.000000
# 4 0.000000 0.000000 0.000000 0.028291 0.000000 0.000000
# 5 0.000000 0.000000 0.000000 0.000000 0.028291 0.000000
# 6 0.000000 0.000000 0.000000 0.000000 0.000000 0.018099
#
#
# Mechanical properties :
#
#
# Convention : Reuss Voigt Hill
#
# Bulk Modulus (GPa) = 54.78693 55.43817 55.11255
# Shear Modulus (GPa) = 45.90800 48.78369 47.34584
#
# Velocity S-wave (km/s) = 4.93245 5.08459 5.00910
# Velocity P-wave (km/s) = 7.84049 7.99064 7.91592
#
# Compressibility (1/GPa) = 0.01825253
#
# Stress axis : x y z
#
# Youngs Moduli (GPa) = 132.63802 132.63802 123.13084
#
# Poissons Ratio (x) = 0.20032 0.05932
# Poissons Ratio (y) = 0.20032 0.05932
# Poissons Ratio (z) = 0.06390 0.06390
#
# Static dielectric constant tensor:
#      x y z
#    x 3.968300 0.000000 0.000000 
#    y 0.000000 3.968300 0.000000 
#    z 0.000000 0.000000 3.739020 
# 
# 
# High freq. dielectric constant tensor:
#      x y z
#    x 1.731470 0.000000 0.000000 
#    y 0.000000 1.731470 0.000000 
#    z 0.000000 0.000000 1.763390 
# 
# From -- ./inp_files/820.got.cif
#   From: 2010.03.12/outbox.cif.g09.slc.cpg/sg194_1_cif.got.tgz:820.got - 2010.04.01 12:26:19.
