data_PCOD8330238
_publ_section_title
;
Structure prediction by ZEFSAII (Michael W. Deem and Ramdas Pophale) SiO2 
 PCOD8330238
Probable space group: P 63/M C M
;
_chemical_formula_sum "Si O2"
_cell_formula_units_Z 80
_cell_length_a 17.974019
_cell_length_b 17.974019
_cell_length_c 15.047652
_cell_angle_alpha 90.000000
_cell_angle_beta 90.000000
_cell_angle_gamma 120.000000
_cell_volume 4210.074330
_symmetry_space_group_name_H-M "P 63/M C M"
_symmetry_group_IT_number 193
_symmetry_cell_setting 'hexagonal'
loop_
_space_group_symop_operation_xyz
x,y,z
x-y,x,1/2+z
-y,x-y,z
-x,-y,1/2+z
-x+y,-x,z
y,-x+y,1/2+z
x-y,-y,1/2-z
-x,-x+y,1/2-z
y,x,1/2-z
-y,-x,-z
-x+y,y,-z
x,x-y,-z
-x,-y,-z
-x+y,-x,1/2-z
y,-x+y,-z
x,y,1/2-z
x-y,x,-z
-y,x-y,1/2-z
-x+y,y,1/2+z
x,x-y,1/2+z
-y,-x,1/2+z
y,x,z
x-y,-y,z
-x,-x+y,z
loop_
_atom_site_type_symbol
_atom_site_label
_atom_site_fract_x
_atom_site_fract_y
_atom_site_fract_z
Si Si1 0.335049 0.827890 0.851337
Si Si2 0.527612 0.899055 0.849128
Si Si3 0.333334 0.666667 0.104112
Si Si4 0.261463 0.361822 0.495487
O O1 0.331159 0.853429 0.750000
O O2 0.431836 0.863603 0.884914
O O3 0.291429 0.723837 0.861259
O O4 0.293661 0.871893 0.909244
O O5 0.529906 0.864098 0.750000
O O6 0.569334 0.000000 0.846856
O O7 0.579662 0.873075 0.916412
O O8 0.333334 0.666667 0.000000
O O9 0.157362 0.314723 0.500000
O O10 0.290841 0.290841 0.491536
#
# Coordination Sequence:
#
# PCOD8330238 Si02
#       4
#    24  24   8  24
#     4  11  21  33  51  78 113 150 185 220 256 298
#     4   9  18  33  53  77 106 141 179 217 259 307
#     4  12  22  32  49  75 112 158 200 227 250 285
#     4  11  23  38  56  77 102 134 174 222 275 331
#
# _framework density 19.002039
#
# number of rings (size 3 to 8) (size 9 to 14) (size 15 to 20)
#    0.000    1.500    0.000    7.200    0.000    7.800 
#    0.000    0.000    0.000    0.300    0.000    0.000 
#    0.000    0.000    0.000    6.900    0.000    0.000 
#
# Total GULP energy -992012.325140 kJ/mol
# GULP energy per Si atom -12400.154064 kJ/mol
# Density = 1.895879 g / cm^3
# Si number density = 19.002039 Si / 1000 Ang^3
#
#
#
# Elastic Constant Matrix: (Units=GPa)
#
#
# Indices 1 2 3 4 5 6 
#
# 1 74.8613 65.3074 40.2129 -0.0002 -0.0001 0.0003
# 2 65.3074 74.8619 40.2127 0.0002 0.0002 -0.0002
# 3 40.2129 40.2127 100.6774 0.0000 -0.0003 0.0001
# 4 -0.0002 0.0002 0.0000 7.2702 0.0003 -0.0002
# 5 -0.0001 0.0002 -0.0003 0.0003 7.2710 0.0002
# 6 0.0003 -0.0002 0.0001 -0.0002 0.0002 4.7755
#
#
#
# Elastic Compliance Matrix: (Units=1/GPa)
#
#
# Indices 1 2 3 4 5 6 
#
# 1 0.056961 -0.047705 -0.003697 0.000003 0.000002 -0.000006
# 2 -0.047705 0.056960 -0.003697 -0.000003 -0.000003 0.000005
# 3 -0.003697 -0.003697 0.012886 0.000000 0.000001 0.000000
# 4 0.000003 -0.000003 0.000000 0.137549 -0.000007 0.000005
# 5 0.000002 -0.000003 0.000001 -0.000007 0.137533 -0.000005
# 6 -0.000006 0.000005 0.000000 0.000005 -0.000005 0.209401
#
#
# Mechanical properties :
#
#
# Convention : Reuss Voigt Hill
#
# Bulk Modulus (GPa) = 60.20675 60.20739 60.20707
# Shear Modulus (GPa) = 6.87736 10.84119 8.85927
#
# Velocity S-wave (km/s) = 1.90450 2.39116 2.16157
# Velocity P-wave (km/s) = 6.04891 6.27511 6.16305
#
# Compressibility (1/GPa) = 0.01660943
#
# Stress axis : x y z
#
# Youngs Moduli (GPa) = 17.55591 17.55614 77.60434
#
# Poissons Ratio (x) = 0.83752 0.28691
# Poissons Ratio (y) = 0.83751 0.28687
# Poissons Ratio (z) = 0.06491 0.06490
#
# Static dielectric constant tensor:
#      x y z
#    x 3.424310 0.000000 0.000000 
#    y 0.000000 3.424300 0.000000 
#    z 0.000000 0.000000 3.872860 
# 
# 
# High freq. dielectric constant tensor:
#      x y z
#    x 1.717390 0.000000 0.000000 
#    y 0.000000 1.717390 0.000000 
#    z 0.000000 0.000000 1.757360 
# 
# From -- ./inp_files/3451.got.cif
#   From: 2010.03.12/outbox.cif.g09.slc.cpg/sg193_2_cif.got.tgz:3451.got - 2010.04.01 12:20:39.
