data_PCOD8330814
_publ_section_title
;
Structure prediction by ZEFSAII (Michael W. Deem and Ramdas Pophale) SiO2 
 PCOD8330814
Probable space group: P 63/M M C
;
_chemical_formula_sum "Si O2"
_cell_formula_units_Z 144
_cell_length_a 31.146820
_cell_length_b 31.146820
_cell_length_c 8.915784
_cell_angle_alpha 90.000000
_cell_angle_beta 90.000000
_cell_angle_gamma 120.000000
_cell_volume 7490.617075
_symmetry_space_group_name_H-M "P 63/M M C"
_symmetry_group_IT_number 194
_symmetry_cell_setting 'hexagonal'
loop_
_space_group_symop_operation_xyz
x,y,z
x-y,x,1/2+z
-y,x-y,z
-x,-y,1/2+z
-x+y,-x,z
y,-x+y,1/2+z
x-y,-y,-z
-x,-x+y,-z
y,x,-z
-y,-x,1/2-z
-x+y,y,1/2-z
x,x-y,1/2-z
-x,-y,-z
-x+y,-x,1/2-z
y,-x+y,-z
x,y,1/2-z
x-y,x,-z
-y,x-y,1/2-z
-x+y,y,z
x,x-y,z
-y,-x,z
y,x,1/2+z
x-y,-y,1/2+z
-x,-x+y,1/2+z
loop_
_atom_site_type_symbol
_atom_site_label
_atom_site_fract_x
_atom_site_fract_y
_atom_site_fract_z
Si Si1 0.294985 0.050029 0.426760
Si Si2 0.147121 0.197290 0.572691
Si Si3 0.853021 0.246161 0.423287
Si Si4 0.575308 0.051612 0.425721
Si Si5 0.431847 0.765107 0.577474
Si Si6 0.144710 0.480598 0.426504
O O1 0.294298 0.044227 0.250000
O O2 0.250710 0.059138 0.480059
O O3 0.346634 0.095991 0.480977
O O4 0.288692 0.000000 0.500000
O O5 0.153754 0.153754 0.500000
O O6 0.146704 0.192121 0.750000
O O7 0.095874 0.191748 0.513626
O O8 0.856851 0.262328 0.250000
O O9 0.810292 0.189709 0.444913
O O10 0.840251 0.280690 0.523961
O O11 0.582177 0.047881 0.250000
O O12 0.532107 0.064213 0.460991
O O13 0.626042 0.093770 0.494300
O O14 0.563045 0.000000 0.500000
O O15 0.448346 0.779372 0.750000
O O16 0.374963 0.749926 0.555292
O O17 0.437674 0.718837 0.526968
O O18 0.465432 0.811967 0.474389
O O19 0.137395 0.479560 0.250000
#
# Coordination Sequence:
#
# PCOD8330814 Si02
#       6
#    24  24  24  24  24  24
#     4   9  18  33  54  79 105 135 173 217 267 320
#     4   9  17  30  49  74 103 133 168 212 260 311
#     4  10  21  38  58  77 103 144 189 229 271 322
#     4  10  21  39  63  88 113 143 182 228 276 325
#     4  10  21  39  63  88 113 143 182 228 278 332
#     4  12  25  38  55  82 116 151 186 225 270 324
#
# _framework density 19.224049999999998
#
# number of rings (size 3 to 8) (size 9 to 14) (size 15 to 20)
#    0.000    2.000    0.000    3.667    0.000   10.333 
#    0.000    1.667    0.000    4.167    0.000    0.000 
#    0.000    0.000    0.000    0.000    0.000    0.000 
#
# Total GULP energy -1786311.006553 kJ/mol
# GULP energy per Si atom -12404.937546 kJ/mol
# Density = 1.918030 g / cm^3
# Si number density = 19.224050 Si / 1000 Ang^3
#
#
#
# Elastic Constant Matrix: (Units=GPa)
#
#
# Indices 1 2 3 4 5 6 
#
# 1 101.2902 33.6130 34.1890 0.0000 0.0000 0.0000
# 2 33.6130 101.2902 34.1890 0.0000 0.0000 0.0000
# 3 34.1890 34.1890 65.8666 0.0000 0.0000 0.0000
# 4 0.0000 0.0000 0.0000 27.5558 0.0000 0.0000
# 5 0.0000 0.0000 0.0000 0.0000 27.5558 0.0000
# 6 0.0000 0.0000 0.0000 0.0000 0.0000 33.8386
#
#
#
# Elastic Compliance Matrix: (Units=1/GPa)
#
#
# Indices 1 2 3 4 5 6 
#
# 1 0.012418 -0.002358 -0.005221 0.000000 0.000000 0.000000
# 2 -0.002358 0.012418 -0.005221 0.000000 0.000000 0.000000
# 3 -0.005221 -0.005221 0.020603 0.000000 0.000000 0.000000
# 4 0.000000 0.000000 0.000000 0.036290 0.000000 0.000000
# 5 0.000000 0.000000 0.000000 0.000000 0.036290 0.000000
# 6 0.000000 0.000000 0.000000 0.000000 0.000000 0.029552
#
#
# Mechanical properties :
#
#
# Convention : Reuss Voigt Hill
#
# Bulk Modulus (GPa) = 50.41439 52.49211 51.45325
# Shear Modulus (GPa) = 27.81110 28.88711 28.34911
#
# Velocity S-wave (km/s) = 3.80765 3.88061 3.84431
# Velocity P-wave (km/s) = 6.75371 6.88793 6.82115
#
# Compressibility (1/GPa) = 0.01983561
#
# Stress axis : x y z
#
# Youngs Moduli (GPa) = 80.53054 80.53054 48.53737
#
# Poissons Ratio (x) = 0.18992 0.25343
# Poissons Ratio (y) = 0.18992 0.25343
# Poissons Ratio (z) = 0.42048 0.42048
#
# Static dielectric constant tensor:
#      x y z
#    x 3.568050 0.000000 0.000000 
#    y 0.000000 3.568050 0.000000 
#    z 0.000000 0.000000 3.427300 
# 
# 
# High freq. dielectric constant tensor:
#      x y z
#    x 1.752070 0.000000 0.000000 
#    y 0.000000 1.752070 0.000000 
#    z 0.000000 0.000000 1.737710 
# 
# From -- ./inp_files/2078.got.cif
#   From: 2010.03.12/outbox.cif.g09.slc.cpg/sg194_2_cif.got.tgz:2078.got - 2010.04.01 12:26:19.
