data_PCOD8330353
_publ_section_title
;
Structure prediction by ZEFSAII (Michael W. Deem and Ramdas Pophale) SiO2 
 PCOD8330353
Probable space group: P 63/M M C
;
_chemical_formula_sum "Si O2"
_cell_formula_units_Z 144
_cell_length_a 20.754930
_cell_length_b 20.754930
_cell_length_c 25.092992
_cell_angle_alpha 90.000000
_cell_angle_beta 90.000000
_cell_angle_gamma 120.000000
_cell_volume 9361.072866
_symmetry_space_group_name_H-M "P 63/M M C"
_symmetry_group_IT_number 194
_symmetry_cell_setting 'hexagonal'
loop_
_space_group_symop_operation_xyz
x,y,z
x-y,x,1/2+z
-y,x-y,z
-x,-y,1/2+z
-x+y,-x,z
y,-x+y,1/2+z
x-y,-y,-z
-x,-x+y,-z
y,x,-z
-y,-x,1/2-z
-x+y,y,1/2-z
x,x-y,1/2-z
-x,-y,-z
-x+y,-x,1/2-z
y,-x+y,-z
x,y,1/2-z
x-y,x,-z
-y,x-y,1/2-z
-x+y,y,z
x,x-y,z
-y,-x,z
y,x,1/2+z
x-y,-y,1/2+z
-x,-x+y,1/2+z
loop_
_atom_site_type_symbol
_atom_site_label
_atom_site_fract_x
_atom_site_fract_y
_atom_site_fract_z
Si Si1 0.710025 0.139750 0.357180
Si Si2 0.819400 0.332795 0.250000
Si Si3 0.974952 0.703040 0.082257
Si Si4 0.371699 0.113255 0.979671
Si Si5 0.333346 0.814229 0.961594
Si Si6 0.150404 0.997971 0.865720
Si Si7 0.144672 0.143361 0.250000
O O1 0.795672 0.204329 0.357229
O O2 0.671052 0.136076 0.301220
O O3 0.709055 0.062368 0.368113
O O4 0.664321 0.153520 0.402973
O O5 0.734459 0.265541 0.250000
O O6 0.818117 0.409059 0.250000
O O7 0.050694 0.704177 0.065732
O O8 0.996496 0.786972 0.094797
O O9 0.917744 0.676826 0.033254
O O10 0.362395 0.181198 0.958306
O O11 0.457154 0.141234 0.993707
O O12 0.412727 0.825453 0.976106
O O13 0.272691 0.727310 0.962746
O O14 0.151253 0.075627 0.870966
O O15 0.174010 0.985333 0.805762
O O16 0.068094 0.931907 0.880396
O O17 0.082932 0.165863 0.250000
O O18 0.107842 0.053921 0.250000
#
# Coordination Sequence:
#
# PCOD8330353 Si02
#       7
#    24  12  24  24  24  24  12
#     4   9  18  30  43  62  88 116 147 177 203 243
#     4  10  19  31  47  67  92 119 145 175 211 249
#     4  10  18  30  45  60  81 116 148 176 212 251
#     4   9  18  31  45  62  84 110 143 177 210 254
#     4   9  16  28  46  67  88 108 134 170 211 252
#     4  10  18  28  43  62  83 106 138 179 222 261
#     4   8  15  25  37  55  77  99 122 159 209 255
#
# _framework density 15.382852
#
# number of rings (size 3 to 8) (size 9 to 14) (size 15 to 20)
#    0.000    2.667    0.000    4.000    0.000    2.000 
#    0.000   11.667    0.000    0.000    0.000    5.833 
#    0.000    0.000    0.000    0.000    0.000    0.000 
#
# Total GULP energy -1784842.435584 kJ/mol
# GULP energy per Si atom -12394.739136 kJ/mol
# Density = 1.534784 g / cm^3
# Si number density = 15.382852 Si / 1000 Ang^3
#
#
#
# Elastic Constant Matrix: (Units=GPa)
#
#
# Indices 1 2 3 4 5 6 
#
# 1 97.9077 51.8099 40.5122 0.0000 0.0000 0.0000
# 2 51.8099 97.9077 40.5122 0.0000 0.0000 0.0000
# 3 40.5122 40.5122 55.2632 0.0000 0.0000 0.0000
# 4 0.0000 0.0000 0.0000 19.0855 0.0000 0.0000
# 5 0.0000 0.0000 0.0000 0.0000 19.0855 0.0000
# 6 0.0000 0.0000 0.0000 0.0000 0.0000 23.0489
#
#
#
# Elastic Compliance Matrix: (Units=1/GPa)
#
#
# Indices 1 2 3 4 5 6 
#
# 1 0.016382 -0.005311 -0.008116 0.000000 0.000000 0.000000
# 2 -0.005311 0.016382 -0.008116 0.000000 0.000000 0.000000
# 3 -0.008116 -0.008116 0.029995 0.000000 0.000000 0.000000
# 4 0.000000 0.000000 0.000000 0.052396 0.000000 0.000000
# 5 0.000000 0.000000 0.000000 0.000000 0.052396 0.000000
# 6 0.000000 0.000000 0.000000 0.000000 0.000000 0.043386
#
#
# Mechanical properties :
#
#
# Convention : Reuss Voigt Hill
#
# Bulk Modulus (GPa) = 50.83137 57.41637 54.12387
# Shear Modulus (GPa) = 19.18782 20.12694 19.65738
#
# Velocity S-wave (km/s) = 3.53562 3.62111 3.57862
# Velocity P-wave (km/s) = 7.05573 7.40872 7.23438
#
# Compressibility (1/GPa) = 0.01967289
#
# Stress axis : x y z
#
# Youngs Moduli (GPa) = 61.04127 61.04127 33.33868
#
# Poissons Ratio (x) = 0.32417 0.27059
# Poissons Ratio (y) = 0.32417 0.27059
# Poissons Ratio (z) = 0.49544 0.49544
#
# Static dielectric constant tensor:
#      x y z
#    x 2.838260 0.000000 0.000000 
#    y 0.000000 2.838260 0.000000 
#    z 0.000000 0.000000 3.015060 
# 
# 
# High freq. dielectric constant tensor:
#      x y z
#    x 1.579880 0.000000 0.000000 
#    y 0.000000 1.579880 0.000000 
#    z 0.000000 0.000000 1.576900 
# 
# From -- ./inp_files/9747.got.cif
#   From: 2010.03.12/outbox.cif.g09.slc.cpg/sg194_5_cif.got.tgz:9747.got - 2010.04.01 12:26:19.
