data_PCOD8330077
_publ_section_title
;
Structure prediction by ZEFSAII (Michael W. Deem and Ramdas Pophale) SiO2 
 PCOD8330077
Probable space group: P 63/M C M
;
_chemical_formula_sum "Si O2"
_cell_formula_units_Z 132
_cell_length_a 26.472270
_cell_length_b 26.472270
_cell_length_c 13.776695
_cell_angle_alpha 90.000000
_cell_angle_beta 90.000000
_cell_angle_gamma 120.000000
_cell_volume 8360.996523
_symmetry_space_group_name_H-M "P 63/M C M"
_symmetry_group_IT_number 193
_symmetry_cell_setting 'hexagonal'
loop_
_space_group_symop_operation_xyz
x,y,z
x-y,x,1/2+z
-y,x-y,z
-x,-y,1/2+z
-x+y,-x,z
y,-x+y,1/2+z
x-y,-y,1/2-z
-x,-x+y,1/2-z
y,x,1/2-z
-y,-x,-z
-x+y,y,-z
x,x-y,-z
-x,-y,-z
-x+y,-x,1/2-z
y,-x+y,-z
x,y,1/2-z
x-y,x,-z
-y,x-y,1/2-z
-x+y,y,1/2+z
x,x-y,1/2+z
-y,-x,1/2+z
y,x,z
x-y,-y,z
-x,-x+y,z
loop_
_atom_site_type_symbol
_atom_site_label
_atom_site_fract_x
_atom_site_fract_y
_atom_site_fract_z
Si Si1 0.069275 0.387893 0.140189
Si Si2 0.478924 0.413045 0.517897
Si Si3 0.773379 0.654920 0.977634
Si Si4 0.773121 0.840830 0.860851
Si Si5 0.335844 0.401102 0.357680
Si Si6 0.863209 0.931605 0.000000
O O1 0.092504 0.393243 0.250000
O O2 0.094499 0.453429 0.094925
O O3 0.000000 0.356108 0.136236
O O4 0.087189 0.347862 0.076983
O O5 0.549260 0.450741 0.500000
O O6 0.457118 0.457118 0.553367
O O7 0.454613 0.387066 0.413072
O O8 0.814994 0.719039 0.934675
O O9 0.727454 0.616210 0.896286
O O10 0.813116 0.626232 0.000000
O O11 0.757886 0.851058 0.750000
O O12 0.794164 0.794164 0.856988
O O13 0.823256 0.902040 0.904933
O O14 0.340350 0.423823 0.250000
O O15 0.344788 0.344788 0.365363
O O16 0.903620 0.903620 0.022948
#
# Coordination Sequence:
#
# PCOD8330077 Si02
#       6
#    24  24  24  24  24  12
#     4   9  18  31  45  63  90 122 152 185 228 271
#     4   8  14  25  42  65  91 116 145 178 209 246
#     4  11  20  31  45  63  87 118 156 193 227 266
#     4  10  20  35  53  70  88 110 141 185 236 292
#     4   9  17  29  45  63  85 115 150 185 221 259
#     4  10  21  38  56  74  92 110 136 180 248 326
#
# _framework density 15.787592
#
# number of rings (size 3 to 8) (size 9 to 14) (size 15 to 20)
#    0.000    2.545    0.909    3.364    0.000    4.000 
#    0.000    3.636    0.000    1.091    0.000    0.000 
#    0.000    0.000    0.000   34.909    0.000   75.636 
#
# Total GULP energy -1635450.183021 kJ/mol
# GULP energy per Si atom -12389.774114 kJ/mol
# Density = 1.575166 g / cm^3
# Si number density = 15.787592 Si / 1000 Ang^3
#
#
#
# Elastic Constant Matrix: (Units=GPa)
#
#
# Indices 1 2 3 4 5 6 
#
# 1 68.8621 40.4485 40.5897 0.0000 0.0000 0.0000
# 2 40.4485 68.8621 40.5897 0.0000 0.0000 0.0000
# 3 40.5897 40.5897 139.8601 0.0000 0.0000 0.0000
# 4 0.0000 0.0000 0.0000 12.7352 0.0000 0.0000
# 5 0.0000 0.0000 0.0000 0.0000 12.7352 0.0000
# 6 0.0000 0.0000 0.0000 0.0000 0.0000 14.2068
#
#
#
# Elastic Compliance Matrix: (Units=1/GPa)
#
#
# Indices 1 2 3 4 5 6 
#
# 1 0.023428 -0.011766 -0.003384 0.000000 0.000000 0.000000
# 2 -0.011766 0.023428 -0.003384 0.000000 0.000000 0.000000
# 3 -0.003384 -0.003384 0.009114 0.000000 0.000000 0.000000
# 4 0.000000 0.000000 0.000000 0.078523 0.000000 0.000000
# 5 0.000000 0.000000 0.000000 0.000000 0.078523 0.000000
# 6 0.000000 0.000000 0.000000 0.000000 0.000000 0.070389
#
#
# Mechanical properties :
#
#
# Convention : Reuss Voigt Hill
#
# Bulk Modulus (GPa) = 52.90967 57.87110 55.39038
# Shear Modulus (GPa) = 15.30103 18.33252 16.81677
#
# Velocity S-wave (km/s) = 3.11654 3.41133 3.26726
# Velocity P-wave (km/s) = 6.82178 7.22855 7.02811
#
# Compressibility (1/GPa) = 0.01890014
#
# Stress axis : x y z
#
# Youngs Moduli (GPa) = 42.68381 42.68381 109.71624
#
# Poissons Ratio (x) = 0.50224 0.37132
# Poissons Ratio (y) = 0.50224 0.37132
# Poissons Ratio (z) = 0.14446 0.14446
#
# Static dielectric constant tensor:
#      x y z
#    x 2.888340 0.000000 0.000000 
#    y 0.000000 2.888340 0.000000 
#    z 0.000000 0.000000 3.274620 
# 
# 
# High freq. dielectric constant tensor:
#      x y z
#    x 1.578630 0.000000 0.000000 
#    y 0.000000 1.578630 0.000000 
#    z 0.000000 0.000000 1.620540 
# 
# From -- ./inp_files/4177.got.cif
#   From: 2010.03.12/outbox.cif.g09.slc.cpg/sg193_3_cif.got.tgz:4177.got - 2010.04.01 12:20:39.
