data_PCOD8330982
_publ_section_title
;
Structure prediction by ZEFSAII (Michael W. Deem and Ramdas Pophale) SiO2 
 PCOD8330982
Probable space group: P 42 3 2
;
_chemical_formula_sum "Si O2"
_cell_formula_units_Z 104
_cell_length_a 17.628812
_cell_length_b 17.628812
_cell_length_c 17.628812
_cell_angle_alpha 90.000000
_cell_angle_beta 90.000000
_cell_angle_gamma 90.000000
_cell_volume 5478.594270
_symmetry_space_group_name_H-M "P 42 3 2"
_symmetry_group_IT_number 208
_symmetry_cell_setting 'cubic'
loop_
_space_group_symop_operation_xyz
x,y,z
1/2-y,1/2+x,1/2+z
-x,-y,z
1/2+y,1/2-x,1/2+z
1/2+x,1/2-z,1/2+y
x,-y,-z
1/2+x,1/2+z,1/2-y
1/2+z,1/2+y,1/2-x
-x,y,-z
1/2-z,1/2+y,1/2+x
z,x,y
y,z,x
-y,-z,x
z,-x,-y
-y,z,-x
-z,-x,y
-z,x,-y
y,-z,-x
1/2+y,1/2+x,1/2-z
1/2-y,1/2-x,1/2-z
1/2-x,1/2+z,1/2+y
1/2-x,1/2-z,1/2-y
1/2+z,1/2-y,1/2+x
1/2-z,1/2-y,1/2-x
loop_
_atom_site_type_symbol
_atom_site_label
_atom_site_fract_x
_atom_site_fract_y
_atom_site_fract_z
Si Si1 0.291478 0.574470 0.818232
Si Si2 0.301608 0.301608 0.698393
Si Si3 0.520904 0.412132 0.084842
Si Si4 0.405249 0.837524 0.326352
Si Si5 0.193027 0.914604 0.675592
O O1 0.250000 0.605252 0.894749
O O2 0.332581 0.496074 0.835864
O O3 0.345626 0.642880 0.792333
O O4 0.241012 0.552708 0.745957
O O5 0.250000 0.250000 0.750000
O O6 0.367604 0.246742 0.663416
O O7 0.500000 0.500000 0.095945
O O8 0.606735 0.386852 0.103264
O O9 0.475777 0.365243 0.146557
O O10 0.500000 0.386123 0.000000
O O11 0.375939 0.875939 0.250000
O O12 0.250000 0.890900 0.609100
#
# Coordination Sequence:
#
# PCOD8330982 Si02
#       5
#    24   8  24  24  24
#     4  10  21  36  60  87 117 162 202 251 309 370
#     4   9  21  42  60  90 120 162 213 249 306 372
#     4  11  24  40  59  89 126 162 208 259 315 380
#     4  11  23  39  64  86 123 164 206 260 309 378
#     4  10  21  39  58  87 121 157 205 252 307 369
#
# _framework density 18.982972
#
# number of rings (size 3 to 8) (size 9 to 14) (size 15 to 20)
#    0.000    1.615    2.308    1.846    6.462    2.769 
#    0.000    0.000    0.000    0.000    0.000    0.000 
#    0.000    0.000    0.000    0.000    0.000    0.000 
#
# Total GULP energy -1288787.740560 kJ/mol
# GULP energy per Si atom -12392.189813 kJ/mol
# Density = 1.893977 g / cm^3
# Si number density = 18.982972 Si / 1000 Ang^3
#
#
#
# Elastic Constant Matrix: (Units=GPa)
#
#
# Indices 1 2 3 4 5 6 
#
# 1 78.7827 42.4845 42.4849 0.0000 0.0000 0.0000
# 2 42.4845 78.7827 42.4849 0.0000 0.0000 0.0000
# 3 42.4849 42.4849 78.7829 0.0000 0.0000 0.0000
# 4 0.0000 0.0000 0.0000 30.8261 0.0000 0.0000
# 5 0.0000 0.0000 0.0000 0.0000 30.8261 0.0000
# 6 0.0000 0.0000 0.0000 0.0000 0.0000 30.8262
#
#
#
# Elastic Compliance Matrix: (Units=1/GPa)
#
#
# Indices 1 2 3 4 5 6 
#
# 1 0.020402 -0.007148 -0.007148 0.000000 0.000000 0.000000
# 2 -0.007148 0.020402 -0.007148 0.000000 0.000000 0.000000
# 3 -0.007148 -0.007148 0.020402 0.000000 0.000000 0.000000
# 4 0.000000 0.000000 0.000000 0.032440 0.000000 0.000000
# 5 0.000000 0.000000 0.000000 0.000000 0.032440 0.000000
# 6 0.000000 0.000000 0.000000 0.000000 0.000000 0.032440
#
#
# Mechanical properties :
#
#
# Convention : Reuss Voigt Hill
#
# Bulk Modulus (GPa) = 54.58412 54.58412 54.58412
# Shear Modulus (GPa) = 24.09418 25.75528 24.92473
#
# Velocity S-wave (km/s) = 3.56652 3.68741 3.62747
# Velocity P-wave (km/s) = 6.76585 6.85172 6.80892
#
# Compressibility (1/GPa) = 0.01832035
#
# Stress axis : x y z
#
# Youngs Moduli (GPa) = 49.01466 49.01466 49.01444
#
# Poissons Ratio (x) = 0.35033 0.35034
# Poissons Ratio (y) = 0.35033 0.35034
# Poissons Ratio (z) = 0.35034 0.35034
#
# Static dielectric constant tensor:
#      x y z
#    x 3.652810 0.000000 0.000000 
#    y 0.000000 3.652810 0.000000 
#    z 0.000000 0.000000 3.652810 
# 
# 
# High freq. dielectric constant tensor:
#      x y z
#    x 1.738210 0.000000 0.000000 
#    y 0.000000 1.738210 0.000000 
#    z 0.000000 0.000000 1.738210 
# 
# From -- ./inp_files/885.got.cif
#   From: 2010.03.12/outbox.cif.g09.slc.cpg/sg208_cif.got.tgz:885.got - 2010.03.30 09:03:42.
