data_PCOD8330909
_publ_section_title
;
Structure prediction by ZEFSAII (Michael W. Deem and Ramdas Pophale) SiO2 
 PCOD8330909
Probable space group: P M 3
;
_chemical_formula_sum "Si O2"
_cell_formula_units_Z 168
_cell_length_a 22.773063
_cell_length_b 22.773063
_cell_length_c 22.773063
_cell_angle_alpha 90.000000
_cell_angle_beta 90.000000
_cell_angle_gamma 90.000000
_cell_volume 11810.392821
_symmetry_space_group_name_H-M "P M 3"
_symmetry_group_IT_number 200
_symmetry_cell_setting 'cubic'
loop_
_space_group_symop_operation_xyz
x,y,z
z,x,y
y,z,x
-y,-z,x
z,-x,-y
-y,z,-x
-z,-x,y
-z,x,-y
y,-z,-x
-x,-y,z
x,-y,-z
-x,y,-z
-x,-y,-z
-z,-x,-y
-y,-z,-x
y,z,-x
-z,x,y
y,-z,x
z,x,-y
z,-x,y
-y,z,x
x,y,-z
-x,y,z
x,-y,z
loop_
_atom_site_type_symbol
_atom_site_label
_atom_site_fract_x
_atom_site_fract_y
_atom_site_fract_z
Si Si1 0.565476 0.752511 0.337592
Si Si2 0.566474 0.655102 0.246717
Si Si3 0.565099 0.233889 0.933879
Si Si4 0.640075 0.167542 0.252247
Si Si5 0.810127 0.568773 0.066280
Si Si6 0.269799 0.835974 0.351566
Si Si7 0.567126 0.904289 0.936875
O O1 0.500000 0.775860 0.345753
O O2 0.567434 0.688202 0.308833
O O3 0.592643 0.746428 0.402209
O O4 0.596893 0.799053 0.295896
O O5 0.500000 0.646080 0.224156
O O6 0.603442 0.691855 0.200720
O O7 0.500000 0.250042 0.908793
O O8 0.617833 0.262916 0.898559
O O9 0.573203 0.164816 0.930653
O O10 0.570297 0.257270 0.000000
O O11 0.608064 0.108563 0.230289
O O12 0.657856 0.207674 0.196710
O O13 0.699390 0.153548 0.288618
O O14 0.808265 0.500000 0.086329
O O15 0.877524 0.593550 0.067329
O O16 0.786073 0.575448 0.000000
O O17 0.500000 0.923950 0.940294
O O18 0.596590 0.924016 0.000000
#
# Coordination Sequence:
#
# PCOD8330909 Si02
#       7
#    24  24  24  24  24  24  24
#     4   9  17  28  42  58  78 102 125 159 200 237
#     4   9  17  27  41  60  77  98 128 158 195 242
#     4   9  16  26  43  64  81 101 131 165 202 240
#     4  10  19  30  43  60  81 107 141 171 202 245
#     4  10  19  29  43  63  87 114 140 168 205 251
#     4  10  18  29  44  59  80 107 136 172 206 238
#     4   8  14  25  41  61  83 106 133 163 196 236
#
# _framework density 14.22476
#
# number of rings (size 3 to 8) (size 9 to 14) (size 15 to 20)
#    0.000    2.714    1.429    2.286    0.000    4.571 
#    0.000    1.429    0.000    0.000    0.000    0.000 
#    0.000    0.000    0.000   35.429    0.000    0.000 
#
# Total GULP energy -2081684.792191 kJ/mol
# GULP energy per Si atom -12390.980906 kJ/mol
# Density = 1.419238 g / cm^3
# Si number density = 14.224760 Si / 1000 Ang^3
#
#
#
# Elastic Constant Matrix: (Units=GPa)
#
#
# Indices 1 2 3 4 5 6 
#
# 1 70.2487 30.8509 30.8509 0.0000 0.0000 0.0000
# 2 30.8509 70.2487 30.8509 0.0000 0.0000 0.0000
# 3 30.8509 30.8509 70.2487 0.0000 0.0000 0.0000
# 4 0.0000 0.0000 0.0000 17.4583 0.0000 0.0000
# 5 0.0000 0.0000 0.0000 0.0000 17.4583 0.0000
# 6 0.0000 0.0000 0.0000 0.0000 0.0000 17.4583
#
#
#
# Elastic Compliance Matrix: (Units=1/GPa)
#
#
# Indices 1 2 3 4 5 6 
#
# 1 0.019448 -0.005935 -0.005935 0.000000 0.000000 0.000000
# 2 -0.005935 0.019448 -0.005935 0.000000 0.000000 0.000000
# 3 -0.005935 -0.005935 0.019448 0.000000 0.000000 0.000000
# 4 0.000000 0.000000 0.000000 0.057279 0.000000 0.000000
# 5 0.000000 0.000000 0.000000 0.000000 0.057279 0.000000
# 6 0.000000 0.000000 0.000000 0.000000 0.000000 0.057279
#
#
# Mechanical properties :
#
#
# Convention : Reuss Voigt Hill
#
# Bulk Modulus (GPa) = 43.98353 43.98353 43.98353
# Shear Modulus (GPa) = 18.29047 18.35455 18.32251
#
# Velocity S-wave (km/s) = 3.58972 3.59600 3.59286
# Velocity P-wave (km/s) = 6.94039 6.94472 6.94256
#
# Compressibility (1/GPa) = 0.02273578
#
# Stress axis : x y z
#
# Youngs Moduli (GPa) = 51.42016 51.42016 51.42016
#
# Poissons Ratio (x) = 0.30515 0.30515
# Poissons Ratio (y) = 0.30515 0.30515
# Poissons Ratio (z) = 0.30515 0.30515
#
# Static dielectric constant tensor:
#      x y z
#    x 2.749450 0.000000 0.000000 
#    y 0.000000 2.749450 0.000000 
#    z 0.000000 0.000000 2.749450 
# 
# 
# High freq. dielectric constant tensor:
#      x y z
#    x 1.530110 0.000000 0.000000 
#    y 0.000000 1.530110 0.000000 
#    z 0.000000 0.000000 1.530110 
# 
# From -- ./inp_files/604.got.cif
#   From: 2010.03.12/outbox.cif.g09.slc.cpg/sg200_cif.got.tgz:604.got - 2010.03.30 09:01:43.
