data_PCOD8330178
_publ_section_title
;
Structure prediction by ZEFSAII (Michael W. Deem and Ramdas Pophale) SiO2 
 PCOD8330178
Probable space group: P 63/M C M
;
_chemical_formula_sum "Si O2"
_cell_formula_units_Z 132
_cell_length_a 17.348715
_cell_length_b 17.348715
_cell_length_c 25.324695
_cell_angle_alpha 90.000000
_cell_angle_beta 90.000000
_cell_angle_gamma 120.000000
_cell_volume 6600.996166
_symmetry_space_group_name_H-M "P 63/M C M"
_symmetry_group_IT_number 193
_symmetry_cell_setting 'hexagonal'
loop_
_space_group_symop_operation_xyz
x,y,z
x-y,x,1/2+z
-y,x-y,z
-x,-y,1/2+z
-x+y,-x,z
y,-x+y,1/2+z
x-y,-y,1/2-z
-x,-x+y,1/2-z
y,x,1/2-z
-y,-x,-z
-x+y,y,-z
x,x-y,-z
-x,-y,-z
-x+y,-x,1/2-z
y,-x+y,-z
x,y,1/2-z
x-y,x,-z
-y,x-y,1/2-z
-x+y,y,1/2+z
x,x-y,1/2+z
-y,-x,1/2+z
y,x,z
x-y,-y,z
-x,-x+y,z
loop_
_atom_site_type_symbol
_atom_site_label
_atom_site_fract_x
_atom_site_fract_y
_atom_site_fract_z
Si Si1 0.464998 0.359469 0.865165
Si Si2 0.785265 0.104609 0.044281
Si Si3 0.895676 0.384070 0.808506
Si Si4 0.166072 0.354511 0.840953
Si Si5 0.105466 0.634671 0.516557
Si Si6 0.896209 0.106812 0.750000
O O1 0.411120 0.411120 0.862170
O O2 0.565207 0.421389 0.842999
O O3 0.413810 0.271235 0.829535
O O4 0.469284 0.328818 0.924747
O O5 0.831064 0.149074 0.099450
O O6 0.739763 0.000000 0.050278
O O7 0.862274 0.137727 0.000000
O O8 0.714517 0.134298 0.025007
O O9 0.852745 0.364128 0.750000
O O10 0.878139 0.293963 0.835716
O O11 0.000000 0.448092 0.804204
O O12 0.123961 0.271626 0.801486
O O13 0.147321 0.573661 0.500000
O O14 0.000000 0.575483 0.518118
O O15 0.000000 0.135928 0.750000
O O16 0.837396 0.000000 0.750000
#
# Coordination Sequence:
#
# PCOD8330178 Si02
#       6
#    24  24  24  24  24  12
#     4  10  21  37  60  92 124 159 206 259 310 372
#     4  11  22  37  61  92 129 169 215 270 325 387
#     4  10  21  38  60  86 121 163 208 257 311 376
#     4  12  23  41  66  96 128 171 220 270 328 403
#     4   9  17  33  58  87 119 155 196 243 304 373
#     4  12  27  46  70  98 130 170 222 288 351 408
#
# _framework density 19.996983
#
# number of rings (size 3 to 8) (size 9 to 14) (size 15 to 20)
#    0.000    1.455    2.727    3.364    1.273    3.636 
#    1.091    0.000    0.000    0.545    0.000    0.000 
#    0.000    0.000    0.000    0.000    0.000    0.000 
#
# Total GULP energy -1636779.145896 kJ/mol
# GULP energy per Si atom -12399.842014 kJ/mol
# Density = 1.995147 g / cm^3
# Si number density = 19.996983 Si / 1000 Ang^3
#
#
#
# Elastic Constant Matrix: (Units=GPa)
#
#
# Indices 1 2 3 4 5 6 
#
# 1 86.3283 28.0802 33.1263 0.0000 0.0000 0.0000
# 2 28.0802 86.3283 33.1263 0.0000 0.0000 0.0000
# 3 33.1263 33.1263 134.9453 0.0000 0.0000 0.0000
# 4 0.0000 0.0000 0.0000 25.9278 0.0000 0.0000
# 5 0.0000 0.0000 0.0000 0.0000 25.9278 0.0000
# 6 0.0000 0.0000 0.0000 0.0000 0.0000 29.1241
#
#
#
# Elastic Compliance Matrix: (Units=1/GPa)
#
#
# Indices 1 2 3 4 5 6 
#
# 1 0.013678 -0.003489 -0.002501 0.000000 0.000000 0.000000
# 2 -0.003489 0.013678 -0.002501 0.000000 0.000000 0.000000
# 3 -0.002501 -0.002501 0.008638 0.000000 0.000000 0.000000
# 4 0.000000 0.000000 0.000000 0.038569 0.000000 0.000000
# 5 0.000000 0.000000 0.000000 0.000000 0.038569 0.000000
# 6 0.000000 0.000000 0.000000 0.000000 0.000000 0.034336
#
#
# Mechanical properties :
#
#
# Convention : Reuss Voigt Hill
#
# Bulk Modulus (GPa) = 52.59930 55.14082 53.87006
# Shear Modulus (GPa) = 29.27580 30.41386 29.84483
#
# Velocity S-wave (km/s) = 3.83039 3.90413 3.86744
# Velocity P-wave (km/s) = 6.77667 6.92513 6.85130
#
# Compressibility (1/GPa) = 0.01901166
#
# Stress axis : x y z
#
# Youngs Moduli (GPa) = 73.10755 73.10755 115.76225
#
# Poissons Ratio (x) = 0.25511 0.28954
# Poissons Ratio (y) = 0.25511 0.28954
# Poissons Ratio (z) = 0.18286 0.18286
#
# Static dielectric constant tensor:
#      x y z
#    x 3.561980 0.000000 0.000000 
#    y 0.000000 3.561980 0.000000 
#    z 0.000000 0.000000 3.896830 
# 
# 
# High freq. dielectric constant tensor:
#      x y z
#    x 1.768020 0.000000 0.000000 
#    y 0.000000 1.768020 0.000000 
#    z 0.000000 0.000000 1.794960 
# 
# From -- ./inp_files/7450.got.cif
#   From: 2010.03.12/outbox.cif.g09.slc.cpg/sg193_4_cif.got.tgz:7450.got - 2010.04.01 12:20:39.
