data_PCOD8330608
_publ_section_title
;
Structure prediction by ZEFSAII (Michael W. Deem and Ramdas Pophale) SiO2 
 PCOD8330608
Probable space group: P 63/M M C
;
_chemical_formula_sum "Si O2"
_cell_formula_units_Z 168
_cell_length_a 18.218591
_cell_length_b 18.218591
_cell_length_c 30.478368
_cell_angle_alpha 90.000000
_cell_angle_beta 90.000000
_cell_angle_gamma 120.000000
_cell_volume 8760.964340
_symmetry_space_group_name_H-M "P 63/M M C"
_symmetry_group_IT_number 194
_symmetry_cell_setting 'hexagonal'
loop_
_space_group_symop_operation_xyz
x,y,z
x-y,x,1/2+z
-y,x-y,z
-x,-y,1/2+z
-x+y,-x,z
y,-x+y,1/2+z
x-y,-y,-z
-x,-x+y,-z
y,x,-z
-y,-x,1/2-z
-x+y,y,1/2-z
x,x-y,1/2-z
-x,-y,-z
-x+y,-x,1/2-z
y,-x+y,-z
x,y,1/2-z
x-y,x,-z
-y,x-y,1/2-z
-x+y,y,z
x,x-y,z
-y,-x,z
y,x,1/2+z
x-y,-y,1/2+z
-x,-x+y,1/2+z
loop_
_atom_site_type_symbol
_atom_site_label
_atom_site_fract_x
_atom_site_fract_y
_atom_site_fract_z
Si Si1 0.499069 0.166707 0.321657
Si Si2 0.833474 0.999653 0.078959
Si Si3 0.833268 0.832910 0.180251
Si Si4 0.401733 0.971965 0.750000
Si Si5 0.657417 0.961788 0.046278
Si Si6 0.631635 0.095762 0.084849
Si Si7 0.503703 0.331572 0.509059
Si Si8 0.069273 0.307540 0.250000
O O1 0.597148 0.194296 0.315890
O O2 0.486812 0.243406 0.304835
O O3 0.441211 0.083714 0.293028
O O4 0.471629 0.149822 0.372347
O O5 0.908049 0.091952 0.062440
O O6 0.866220 0.933110 0.072140
O O7 0.812629 0.004663 0.129535
O O8 0.747014 0.965813 0.051747
O O9 0.861976 0.930988 0.188132
O O10 0.748831 0.773334 0.207205
O O11 0.909574 0.819147 0.196405
O O12 0.502645 0.005290 0.750000
O O13 0.386812 0.052609 0.750000
O O14 0.575758 0.868146 0.043072
O O15 0.643750 0.013958 0.084853
O O16 0.652372 0.000000 0.000000
O O17 0.531911 0.063822 0.086804
O O18 0.674775 0.151217 0.041751
O O19 0.546002 0.273001 0.513910
O O20 0.572055 0.427946 0.522008
O O21 0.170360 0.340720 0.250000
#
# Coordination Sequence:
#
# PCOD8330608 Si02
#       8
#    24  24  24  12  24  24  24  12
#     4  10  20  34  53  79 114 153 189 220 254 304
#     4  10  21  36  53  74 103 140 180 221 264 315
#     4   9  18  32  52  79 111 143 174 210 257 311
#     4  10  23  39  55  80 113 149 182 218 267 317
#     4  10  21  35  52  73 101 135 175 222 276 327
#     4   9  19  34  52  76 106 141 181 224 270 316
#     4  10  19  33  54  79 106 137 176 225 277 330
#     4  10  21  37  57  82 109 139 178 222 267 313
#
# _framework density 19.175972000000002
#
# number of rings (size 3 to 8) (size 9 to 14) (size 15 to 20)
#    0.000    2.286    0.000    2.286    2.000    7.429 
#    0.000    2.857    0.000    1.000    0.000    0.000 
#    0.000    0.000    0.000    0.000    0.000    0.000 
#
# Total GULP energy -2082664.095176 kJ/mol
# GULP energy per Si atom -12396.810090 kJ/mol
# Density = 1.913233 g / cm^3
# Si number density = 19.175972 Si / 1000 Ang^3
#
#
#
# Elastic Constant Matrix: (Units=GPa)
#
#
# Indices 1 2 3 4 5 6 
#
# 1 108.9360 58.4164 32.4325 0.0000 0.0000 0.0000
# 2 58.4164 108.9360 32.4325 0.0000 0.0000 0.0000
# 3 32.4325 32.4325 47.5498 0.0000 0.0000 0.0000
# 4 0.0000 0.0000 0.0000 20.7424 0.0000 0.0000
# 5 0.0000 0.0000 0.0000 0.0000 20.7424 0.0000
# 6 0.0000 0.0000 0.0000 0.0000 0.0000 25.2598
#
#
#
# Elastic Compliance Matrix: (Units=1/GPa)
#
#
# Indices 1 2 3 4 5 6 
#
# 1 0.013959 -0.005836 -0.005540 0.000000 0.000000 0.000000
# 2 -0.005836 0.013959 -0.005540 0.000000 0.000000 0.000000
# 3 -0.005540 -0.005540 0.028588 0.000000 0.000000 0.000000
# 4 0.000000 0.000000 0.000000 0.048210 0.000000 0.000000
# 5 0.000000 0.000000 0.000000 0.000000 0.048210 0.000000
# 6 0.000000 0.000000 0.000000 0.000000 0.000000 0.039589
#
#
# Mechanical properties :
#
#
# Convention : Reuss Voigt Hill
#
# Bulk Modulus (GPa) = 44.10605 56.88719 50.49662
# Shear Modulus (GPa) = 21.37614 22.82494 22.10054
#
# Velocity S-wave (km/s) = 3.34239 3.45380 3.39855
# Velocity P-wave (km/s) = 6.16003 6.75539 6.46457
#
# Compressibility (1/GPa) = 0.02267263
#
# Stress axis : x y z
#
# Youngs Moduli (GPa) = 71.64059 71.64059 34.97914
#
# Poissons Ratio (x) = 0.41807 0.19380
# Poissons Ratio (y) = 0.41807 0.19380
# Poissons Ratio (z) = 0.39692 0.39692
#
# Static dielectric constant tensor:
#      x y z
#    x 3.369810 0.000000 0.000000 
#    y 0.000000 3.369810 0.000000 
#    z 0.000000 0.000000 3.512250 
# 
# 
# High freq. dielectric constant tensor:
#      x y z
#    x 1.736210 0.000000 0.000000 
#    y 0.000000 1.736210 0.000000 
#    z 0.000000 0.000000 1.735900 
# 
# From -- ./inp_files/12318.got.cif
#   From: 2010.03.12/outbox.cif.g09.slc.cpg/sg194_7_cif.got.tgz:12318.got - 2010.04.01 12:26:19.
