data_PCOD8330241
_publ_section_title
;
Structure prediction by ZEFSAII (Michael W. Deem and Ramdas Pophale) SiO2 
 PCOD8330241
Probable space group: P 63/M C M
;
_chemical_formula_sum "Si O2"
_cell_formula_units_Z 84
_cell_length_a 14.219124
_cell_length_b 14.219124
_cell_length_c 21.811588
_cell_angle_alpha 90.000000
_cell_angle_beta 90.000000
_cell_angle_gamma 120.000000
_cell_volume 3819.122603
_symmetry_space_group_name_H-M "P 63/M C M"
_symmetry_group_IT_number 193
_symmetry_cell_setting 'hexagonal'
loop_
_space_group_symop_operation_xyz
x,y,z
x-y,x,1/2+z
-y,x-y,z
-x,-y,1/2+z
-x+y,-x,z
y,-x+y,1/2+z
x-y,-y,1/2-z
-x,-x+y,1/2-z
y,x,1/2-z
-y,-x,-z
-x+y,y,-z
x,x-y,-z
-x,-y,-z
-x+y,-x,1/2-z
y,-x+y,-z
x,y,1/2-z
x-y,x,-z
-y,x-y,1/2-z
-x+y,y,1/2+z
x,x-y,1/2+z
-y,-x,1/2+z
y,x,z
x-y,-y,z
-x,-x+y,z
loop_
_atom_site_type_symbol
_atom_site_label
_atom_site_fract_x
_atom_site_fract_y
_atom_site_fract_z
Si Si1 0.827739 0.261520 0.347765
Si Si2 0.747474 0.877546 0.750000
Si Si3 0.667102 0.546631 0.481194
Si Si4 0.880737 0.396969 0.817167
O O1 0.866069 0.187118 0.312053
O O2 0.892839 0.322187 0.408510
O O3 0.839487 0.358080 0.304593
O O4 0.699646 0.189726 0.364472
O O5 0.793255 0.793255 0.750000
O O6 0.849027 0.000000 0.750000
O O7 0.576916 0.423085 0.500000
O O8 0.787744 0.575487 0.500000
O O9 0.629188 0.629188 0.509085
O O10 0.878153 0.344913 0.750000
O O11 0.000000 0.457732 0.845469
#
# Coordination Sequence:
#
# PCOD8330241 Si02
#       4
#    24  12  24  24
#     4  12  23  40  65  94 132 169 211 266 332 402
#     4  12  25  42  64  94 132 176 223 272 332 402
#     4  11  25  45  68  97 132 177 230 287 345 402
#     4  11  21  36  59  93 132 169 205 249 314 395
#
# _framework density 21.994582000000001
#
# number of rings (size 3 to 8) (size 9 to 14) (size 15 to 20)
#    0.000    0.571    2.857    6.143    0.000    4.571 
#    0.000    0.000    0.000    0.286    0.000    0.000 
#    0.000    0.000    0.000    0.000    0.000    0.000 
#
# Total GULP energy -1040661.529579 kJ/mol
# GULP energy per Si atom -12388.827733 kJ/mol
# Density = 2.194452 g / cm^3
# Si number density = 21.994582 Si / 1000 Ang^3
#
#
#
# Elastic Constant Matrix: (Units=GPa)
#
#
# Indices 1 2 3 4 5 6 
#
# 1 117.6587 90.7399 28.2999 0.0000 0.0000 0.0000
# 2 90.7399 117.6587 28.2999 0.0000 0.0000 0.0000
# 3 28.2999 28.2999 78.0205 0.0000 0.0000 0.0000
# 4 0.0000 0.0000 0.0000 20.5308 0.0000 0.0000
# 5 0.0000 0.0000 0.0000 0.0000 20.5308 0.0000
# 6 0.0000 0.0000 0.0000 0.0000 0.0000 13.4594
#
#
#
# Elastic Compliance Matrix: (Units=1/GPa)
#
#
# Indices 1 2 3 4 5 6 
#
# 1 0.021236 -0.015913 -0.001931 0.000000 0.000000 0.000000
# 2 -0.015913 0.021236 -0.001931 0.000000 0.000000 0.000000
# 3 -0.001931 -0.001931 0.014218 0.000000 0.000000 0.000000
# 4 0.000000 0.000000 0.000000 0.048707 0.000000 0.000000
# 5 0.000000 0.000000 0.000000 0.000000 0.048707 0.000000
# 6 0.000000 0.000000 0.000000 0.000000 0.000000 0.074298
#
#
# Mechanical properties :
#
#
# Convention : Reuss Voigt Hill
#
# Bulk Modulus (GPa) = 58.34099 67.55747 62.94923
# Shear Modulus (GPa) = 18.27059 21.97076 20.12067
#
# Velocity S-wave (km/s) = 2.88529 3.16399 3.02785
# Velocity P-wave (km/s) = 6.13862 6.64304 6.39580
#
# Compressibility (1/GPa) = 0.01714061
#
# Stress axis : x y z
#
# Youngs Moduli (GPa) = 47.09023 47.09023 70.33441
#
# Poissons Ratio (x) = 0.74934 0.13580
# Poissons Ratio (y) = 0.74934 0.13580
# Poissons Ratio (z) = 0.09092 0.09092
#
# Static dielectric constant tensor:
#      x y z
#    x 4.081410 0.000000 0.000000 
#    y 0.000000 4.081410 0.000000 
#    z 0.000000 0.000000 3.748470 
# 
# 
# High freq. dielectric constant tensor:
#      x y z
#    x 1.867790 0.000000 0.000000 
#    y 0.000000 1.867790 0.000000 
#    z 0.000000 0.000000 1.858450 
# 
# From -- ./inp_files/7145.got.cif
#   From: 2010.03.12/outbox.cif.g09.slc.cpg/sg193_4_cif.got.tgz:7145.got - 2010.04.01 12:20:39.
