data_PCOD8330322
_publ_section_title
;
Structure prediction by ZEFSAII (Michael W. Deem and Ramdas Pophale) SiO2 
 PCOD8330322
Probable space group: P 63/M M C
;
_chemical_formula_sum "Si O2"
_cell_formula_units_Z 192
_cell_length_a 24.074285
_cell_length_b 24.074285
_cell_length_c 25.378946
_cell_angle_alpha 90.000000
_cell_angle_beta 90.000000
_cell_angle_gamma 120.000000
_cell_volume 12738.286382
_symmetry_space_group_name_H-M "P 63/M M C"
_symmetry_group_IT_number 194
_symmetry_cell_setting 'hexagonal'
loop_
_space_group_symop_operation_xyz
x,y,z
x-y,x,1/2+z
-y,x-y,z
-x,-y,1/2+z
-x+y,-x,z
y,-x+y,1/2+z
x-y,-y,-z
-x,-x+y,-z
y,x,-z
-y,-x,1/2-z
-x+y,y,1/2-z
x,x-y,1/2-z
-x,-y,-z
-x+y,-x,1/2-z
y,-x+y,-z
x,y,1/2-z
x-y,x,-z
-y,x-y,1/2-z
-x+y,y,z
x,x-y,z
-y,-x,z
y,x,1/2+z
x-y,-y,1/2+z
-x,-x+y,1/2+z
loop_
_atom_site_type_symbol
_atom_site_label
_atom_site_fract_x
_atom_site_fract_y
_atom_site_fract_z
Si Si1 0.359603 0.318349 0.872212
Si Si2 0.793739 0.333769 0.604292
Si Si3 0.419760 0.145994 0.960599
Si Si4 0.829858 0.784458 0.048547
Si Si5 0.871332 0.999908 0.648546
Si Si6 0.069489 0.263863 0.190261
Si Si7 0.513634 0.901371 0.311279
Si Si8 0.342614 0.052803 0.455044
O O1 0.379982 0.282917 0.914621
O O2 0.301664 0.260700 0.840949
O O3 0.416377 0.367938 0.834026
O O4 0.335794 0.361487 0.903699
O O5 0.785902 0.392951 0.586912
O O6 0.725580 0.274421 0.619146
O O7 0.824813 0.319389 0.553312
O O8 0.835308 0.347691 0.657179
O O9 0.399425 0.199713 0.959913
O O10 0.404346 0.114176 0.019032
O O11 0.894232 0.788464 0.029038
O O12 0.844039 0.836137 0.093408
O O13 0.780191 0.711402 0.065712
O O14 0.799929 0.799929 0.000000
O O15 0.945883 0.054118 0.643392
O O16 0.833772 0.020799 0.689222
O O17 0.866958 0.933479 0.667005
O O18 0.077139 0.287304 0.250000
O O19 0.139303 0.278606 0.168262
O O20 0.519462 0.888075 0.250000
O O21 0.464147 0.928294 0.318897
O O22 0.313790 0.000000 0.500000
#
# Coordination Sequence:
#
# PCOD8330322 Si02
#       8
#    24  24  24  24  24  24  24  24
#     4  10  17  30  46  65  87 112 142 178 221 268
#     4   9  17  29  45  65  90 121 152 180 209 246
#     4   9  17  28  43  63  88 114 140 173 211 255
#     4  10  18  28  42  62  84 108 137 174 220 274
#     4  10  20  33  46  60  80 108 142 180 227 282
#     4  10  20  32  46  64  83 105 140 187 232 271
#     4   9  18  31  46  65  90 119 149 181 218 260
#     4   9  17  27  41  63  85 109 137 173 215 261
#
# _framework density 15.072671
#
# number of rings (size 3 to 8) (size 9 to 14) (size 15 to 20)
#    0.000    2.500    1.250    1.750    0.000    1.000 
#    0.000    0.625    0.000    7.250    0.000    0.000 
#    0.000    0.000    0.000    0.000    0.000    0.000 
#
# Total GULP energy -2379441.355054 kJ/mol
# GULP energy per Si atom -12392.923724 kJ/mol
# Density = 1.503837 g / cm^3
# Si number density = 15.072671 Si / 1000 Ang^3
#
#
#
# Elastic Constant Matrix: (Units=GPa)
#
#
# Indices 1 2 3 4 5 6 
#
# 1 74.2957 36.9887 44.0083 0.0000 0.0000 0.0000
# 2 36.9887 74.2957 44.0083 0.0000 0.0000 0.0000
# 3 44.0083 44.0083 67.4634 0.0000 0.0000 0.0000
# 4 0.0000 0.0000 0.0000 20.4794 0.0000 0.0000
# 5 0.0000 0.0000 0.0000 0.0000 20.4794 0.0000
# 6 0.0000 0.0000 0.0000 0.0000 0.0000 18.6535
#
#
#
# Elastic Compliance Matrix: (Units=1/GPa)
#
#
# Indices 1 2 3 4 5 6 
#
# 1 0.022684 -0.004121 -0.012110 0.000000 0.000000 0.000000
# 2 -0.004121 0.022684 -0.012110 0.000000 0.000000 0.000000
# 3 -0.012110 -0.012110 0.030622 0.000000 0.000000 0.000000
# 4 0.000000 0.000000 0.000000 0.048830 0.000000 0.000000
# 5 0.000000 0.000000 0.000000 0.000000 0.048830 0.000000
# 6 0.000000 0.000000 0.000000 0.000000 0.000000 0.053609
#
#
# Mechanical properties :
#
#
# Convention : Reuss Voigt Hill
#
# Bulk Modulus (GPa) = 51.78492 51.78503 51.78497
# Shear Modulus (GPa) = 17.21914 17.99242 17.60578
#
# Velocity S-wave (km/s) = 3.38362 3.45876 3.42140
# Velocity P-wave (km/s) = 7.04958 7.09804 7.07385
#
# Compressibility (1/GPa) = 0.01931064
#
# Stress axis : x y z
#
# Youngs Moduli (GPa) = 44.08369 44.08369 32.65663
#
# Poissons Ratio (x) = 0.18165 0.39546
# Poissons Ratio (y) = 0.18165 0.39546
# Poissons Ratio (z) = 0.53383 0.53383
#
# Static dielectric constant tensor:
#      x y z
#    x 2.978580 0.000000 0.000000 
#    y 0.000000 2.978580 0.000000 
#    z 0.000000 0.000000 2.901220 
# 
# 
# High freq. dielectric constant tensor:
#      x y z
#    x 1.568090 0.000000 0.000000 
#    y 0.000000 1.568090 0.000000 
#    z 0.000000 0.000000 1.565080 
# 
# From -- ./inp_files/10165.got.cif
#   From: 2010.03.12/outbox.cif.g09.slc.cpg/sg194_6_cif.got.tgz:10165.got - 2010.04.01 12:26:19.
