data_PCOD8330503
_publ_section_title
;
Structure prediction by ZEFSAII (Michael W. Deem and Ramdas Pophale) SiO2 
 PCOD8330503
Probable space group: P 63/M M C
;
_chemical_formula_sum "Si O2"
_cell_formula_units_Z 144
_cell_length_a 32.648430
_cell_length_b 32.648430
_cell_length_c 8.727582
_cell_angle_alpha 90.000000
_cell_angle_beta 90.000000
_cell_angle_gamma 120.000000
_cell_volume 8056.551231
_symmetry_space_group_name_H-M "P 63/M M C"
_symmetry_group_IT_number 194
_symmetry_cell_setting 'hexagonal'
loop_
_space_group_symop_operation_xyz
x,y,z
x-y,x,1/2+z
-y,x-y,z
-x,-y,1/2+z
-x+y,-x,z
y,-x+y,1/2+z
x-y,-y,-z
-x,-x+y,-z
y,x,-z
-y,-x,1/2-z
-x+y,y,1/2-z
x,x-y,1/2-z
-x,-y,-z
-x+y,-x,1/2-z
y,-x+y,-z
x,y,1/2-z
x-y,x,-z
-y,x-y,1/2-z
-x+y,y,z
x,x-y,z
-y,-x,z
y,x,1/2+z
x-y,-y,1/2+z
-x,-x+y,1/2+z
loop_
_atom_site_type_symbol
_atom_site_label
_atom_site_fract_x
_atom_site_fract_y
_atom_site_fract_z
Si Si1 0.809434 0.950769 0.930886
Si Si2 0.521151 0.386059 0.929653
Si Si3 0.049545 0.284057 0.568974
Si Si4 0.049513 0.433338 0.931231
Si Si5 0.282909 0.900951 0.068845
Si Si6 0.718245 0.192383 0.930629
O O1 0.814170 0.954504 0.750000
O O2 0.816486 0.908243 0.993530
O O3 0.757655 0.940514 0.982083
O O4 0.850187 0.000000 0.000000
O O5 0.509032 0.384462 0.750000
O O6 0.575151 0.424850 0.966020
O O7 0.512760 0.334829 0.984134
O O8 0.486474 0.398494 0.021533
O O9 0.048190 0.288114 0.750000
O O10 0.090893 0.332802 0.499715
O O11 0.000000 0.274505 0.500000
O O12 0.046339 0.428741 0.750000
O O13 0.061547 0.394855 0.998877
O O14 0.000000 0.423606 0.000000
O O15 0.285594 0.907552 0.250000
O O16 0.270288 0.848363 0.019914
O O17 0.721462 0.197765 0.750000
O O18 0.757661 0.242340 0.005507
#
# Coordination Sequence:
#
# PCOD8330503 Si02
#       6
#    24  24  24  24  24  24
#     4   9  19  35  53  74 100 129 162 202 248 296
#     4   9  18  33  52  73  97 126 160 198 241 288
#     4  10  19  31  47  68  97 132 167 202 239 280
#     4  11  21  33  49  69  96 130 167 205 243 284
#     4  10  19  31  47  69  98 131 168 206 240 278
#     4   8  15  29  49  71  94 122 156 193 234 281
#
# _framework density 17.873653000000001
#
# number of rings (size 3 to 8) (size 9 to 14) (size 15 to 20)
#    0.000    2.500    0.000    4.000    0.000    2.333 
#    0.000    0.000    0.000   12.500    0.000    2.333 
#    0.000    0.000    0.000    0.500    0.000    2.667 
#
# Total GULP energy -1785451.954021 kJ/mol
# GULP energy per Si atom -12398.971903 kJ/mol
# Density = 1.783297 g / cm^3
# Si number density = 17.873653 Si / 1000 Ang^3
#
#
#
# Elastic Constant Matrix: (Units=GPa)
#
#
# Indices 1 2 3 4 5 6 
#
# 1 125.1469 87.4999 32.2333 0.0000 0.0000 0.0000
# 2 87.4999 125.1469 32.2333 0.0000 0.0000 0.0000
# 3 32.2333 32.2333 66.8944 0.0000 0.0000 0.0000
# 4 0.0000 0.0000 0.0000 20.8879 0.0000 0.0000
# 5 0.0000 0.0000 0.0000 0.0000 20.8879 0.0000
# 6 0.0000 0.0000 0.0000 0.0000 0.0000 18.8235
#
#
#
# Elastic Compliance Matrix: (Units=1/GPa)
#
#
# Indices 1 2 3 4 5 6 
#
# 1 0.016035 -0.010528 -0.002654 0.000000 0.000000 0.000000
# 2 -0.010528 0.016035 -0.002654 0.000000 0.000000 0.000000
# 3 -0.002654 -0.002654 0.017506 0.000000 0.000000 0.000000
# 4 0.000000 0.000000 0.000000 0.047875 0.000000 0.000000
# 5 0.000000 0.000000 0.000000 0.000000 0.047875 0.000000
# 6 0.000000 0.000000 0.000000 0.000000 0.000000 0.053125
#
#
# Mechanical properties :
#
#
# Convention : Reuss Voigt Hill
#
# Bulk Modulus (GPa) = 55.84728 69.01350 62.43039
# Shear Modulus (GPa) = 21.17845 23.13462 22.15654
#
# Velocity S-wave (km/s) = 3.44597 3.60160 3.52464
# Velocity P-wave (km/s) = 6.86632 7.48272 7.18114
#
# Compressibility (1/GPa) = 0.01790598
#
# Stress axis : x y z
#
# Youngs Moduli (GPa) = 62.36423 62.36423 57.12249
#
# Poissons Ratio (x) = 0.65655 0.15158
# Poissons Ratio (y) = 0.65655 0.15158
# Poissons Ratio (z) = 0.16549 0.16549
#
# Static dielectric constant tensor:
#      x y z
#    x 3.423860 0.000000 0.000000 
#    y 0.000000 3.423860 0.000000 
#    z 0.000000 0.000000 3.165970 
# 
# 
# High freq. dielectric constant tensor:
#      x y z
#    x 1.682440 0.000000 0.000000 
#    y 0.000000 1.682440 0.000000 
#    z 0.000000 0.000000 1.681130 
# 
# From -- ./inp_files/2140.got.cif
#   From: 2010.03.12/outbox.cif.g09.slc.cpg/sg194_2_cif.got.tgz:2140.got - 2010.04.01 12:26:19.
