data_PCOD8330176
_publ_section_title
;
Structure prediction by ZEFSAII (Michael W. Deem and Ramdas Pophale) SiO2 
 PCOD8330176
Probable space group: P 63/M C M
;
_chemical_formula_sum "Si O2"
_cell_formula_units_Z 72
_cell_length_a 17.712662
_cell_length_b 17.712662
_cell_length_c 13.775493
_cell_angle_alpha 90.000000
_cell_angle_beta 90.000000
_cell_angle_gamma 120.000000
_cell_volume 3742.876116
_symmetry_space_group_name_H-M "P 63/M C M"
_symmetry_group_IT_number 193
_symmetry_cell_setting 'hexagonal'
loop_
_space_group_symop_operation_xyz
x,y,z
x-y,x,1/2+z
-y,x-y,z
-x,-y,1/2+z
-x+y,-x,z
y,-x+y,1/2+z
x-y,-y,1/2-z
-x,-x+y,1/2-z
y,x,1/2-z
-y,-x,-z
-x+y,y,-z
x,x-y,-z
-x,-y,-z
-x+y,-x,1/2-z
y,-x+y,-z
x,y,1/2-z
x-y,x,-z
-y,x-y,1/2-z
-x+y,y,1/2+z
x,x-y,1/2+z
-y,-x,1/2+z
y,x,z
x-y,-y,z
-x,-x+y,z
loop_
_atom_site_type_symbol
_atom_site_label
_atom_site_fract_x
_atom_site_fract_y
_atom_site_fract_z
Si Si1 0.519449 0.412897 0.250000
Si Si2 0.336327 0.831904 0.544743
Si Si3 0.904100 0.240078 0.054807
Si Si4 0.694004 0.103948 0.750000
O O1 0.454625 0.454625 0.250000
O O2 0.506240 0.348624 0.160487
O O3 0.620608 0.488934 0.250000
O O4 0.260835 0.739166 0.500000
O O5 0.427830 0.855660 0.500000
O O6 0.315637 0.906637 0.512082
O O7 0.859060 0.242846 0.156286
O O8 0.000000 0.255642 0.071646
O O9 0.851505 0.148496 0.000000
O O10 0.646066 0.000000 0.750000
#
# Coordination Sequence:
#
# PCOD8330176 Si02
#       4
#    12  24  24  12
#     4  11  22  37  61  84 112 155 213 257 299 360
#     4  11  23  37  56  82 118 159 201 249 302 359
#     4  10  21  37  60  85 115 148 194 246 300 355
#     4   9  18  35  60  84 107 151 196 241 292 358
#
# _framework density 19.236543999999999
#
# number of rings (size 3 to 8) (size 9 to 14) (size 15 to 20)
#    0.000    1.667    3.333    1.333    0.000    8.000 
#    0.000    2.500    0.000    0.333    0.000    0.000 
#    0.000    0.000    0.000    0.000    0.000    0.000 
#
# Total GULP energy -891993.208645 kJ/mol
# GULP energy per Si atom -12388.794565 kJ/mol
# Density = 1.919276 g / cm^3
# Si number density = 19.236544 Si / 1000 Ang^3
#
#
#
# Elastic Constant Matrix: (Units=GPa)
#
#
# Indices 1 2 3 4 5 6 
#
# 1 66.8792 37.1297 41.0882 0.0000 0.0000 0.0000
# 2 37.1297 66.8792 41.0882 0.0000 0.0000 0.0000
# 3 41.0882 41.0882 187.3932 0.0000 0.0000 0.0000
# 4 0.0000 0.0000 0.0000 31.4682 0.0000 0.0000
# 5 0.0000 0.0000 0.0000 0.0000 31.4682 0.0000
# 6 0.0000 0.0000 0.0000 0.0000 0.0000 14.8747
#
#
#
# Elastic Compliance Matrix: (Units=1/GPa)
#
#
# Indices 1 2 3 4 5 6 
#
# 1 0.022622 -0.010992 -0.002550 0.000000 0.000000 0.000000
# 2 -0.010992 0.022622 -0.002550 0.000000 0.000000 0.000000
# 3 -0.002550 -0.002550 0.006455 0.000000 0.000000 0.000000
# 4 0.000000 0.000000 0.000000 0.031778 0.000000 0.000000
# 5 0.000000 0.000000 0.000000 0.000000 0.031778 0.000000
# 6 0.000000 0.000000 0.000000 0.000000 0.000000 0.067228
#
#
# Mechanical properties :
#
#
# Convention : Reuss Voigt Hill
#
# Bulk Modulus (GPa) = 51.24650 62.19596 56.72123
# Shear Modulus (GPa) = 22.60694 29.01859 25.81277
#
# Velocity S-wave (km/s) = 3.43185 3.88817 3.66712
# Velocity P-wave (km/s) = 6.51164 7.24980 6.89061
#
# Compressibility (1/GPa) = 0.01951353
#
# Stress axis : x y z
#
# Youngs Moduli (GPa) = 44.20548 44.20548 154.92992
#
# Poissons Ratio (x) = 0.48593 0.39504
# Poissons Ratio (y) = 0.48593 0.39504
# Poissons Ratio (z) = 0.11272 0.11272
#
# Static dielectric constant tensor:
#      x y z
#    x 3.281900 0.000000 0.000000 
#    y 0.000000 3.281900 0.000000 
#    z 0.000000 0.000000 3.970270 
# 
# 
# High freq. dielectric constant tensor:
#      x y z
#    x 1.725300 0.000000 0.000000 
#    y 0.000000 1.725300 0.000000 
#    z 0.000000 0.000000 1.773460 
# 
# From -- ./inp_files/2005.got.cif
#   From: 2010.03.12/outbox.cif.g09.slc.cpg/sg193_2_cif.got.tgz:2005.got - 2010.04.01 12:20:39.
