data_PCOD8330593
_publ_section_title
;
Structure prediction by ZEFSAII (Michael W. Deem and Ramdas Pophale) SiO2 
 PCOD8330593
Probable space group: P 63/M M C
;
_chemical_formula_sum "Si O2"
_cell_formula_units_Z 168
_cell_length_a 21.756267
_cell_length_b 21.756267
_cell_length_c 22.973462
_cell_angle_alpha 90.000000
_cell_angle_beta 90.000000
_cell_angle_gamma 120.000000
_cell_volume 9417.287692
_symmetry_space_group_name_H-M "P 63/M M C"
_symmetry_group_IT_number 194
_symmetry_cell_setting 'hexagonal'
loop_
_space_group_symop_operation_xyz
x,y,z
x-y,x,1/2+z
-y,x-y,z
-x,-y,1/2+z
-x+y,-x,z
y,-x+y,1/2+z
x-y,-y,-z
-x,-x+y,-z
y,x,-z
-y,-x,1/2-z
-x+y,y,1/2-z
x,x-y,1/2-z
-x,-y,-z
-x+y,-x,1/2-z
y,-x+y,-z
x,y,1/2-z
x-y,x,-z
-y,x-y,1/2-z
-x+y,y,z
x,x-y,z
-y,-x,z
y,x,1/2+z
x-y,-y,1/2+z
-x,-x+y,1/2+z
loop_
_atom_site_type_symbol
_atom_site_label
_atom_site_fract_x
_atom_site_fract_y
_atom_site_fract_z
Si Si1 0.881118 0.255491 0.186859
Si Si2 0.187248 0.667164 0.077514
Si Si3 0.461433 0.062415 0.355248
Si Si4 0.525769 0.906874 0.315663
Si Si5 0.925842 0.218600 0.074202
Si Si6 0.135172 0.135274 0.433219
Si Si7 0.923819 0.346401 0.019544
O O1 0.902784 0.239983 0.250000
O O2 0.799241 0.200760 0.172470
O O3 0.889790 0.333296 0.186748
O O4 0.930648 0.248559 0.139001
O O5 0.192897 0.596449 0.072592
O O6 0.264805 0.735196 0.070645
O O7 0.155562 0.671603 0.140507
O O8 0.136828 0.667124 0.026397
O O9 0.536840 0.073680 0.336157
O O10 0.464967 0.091204 0.420287
O O11 0.399397 0.980893 0.346174
O O12 0.550636 0.898992 0.250000
O O13 0.451846 0.903692 0.309077
O O14 0.854912 0.145089 0.061330
O O15 0.992715 0.205695 0.070987
O O16 0.928374 0.274887 0.027621
O O17 0.116442 0.116442 0.500000
O O18 0.133820 0.066910 0.402580
O O19 0.074786 0.149571 0.404914
O O20 0.000000 0.409854 0.000000
#
# Coordination Sequence:
#
# PCOD8330593 Si02
#       7
#    24  24  24  24  24  24  24
#     4   9  18  32  50  72  98 129 169 213 254 304
#     4  11  23  38  56  79 110 146 181 219 266 322
#     4  10  19  32  54  79 103 132 168 217 271 319
#     4   9  18  33  54  80 105 133 177 225 263 308
#     4   9  18  31  48  72 102 134 169 208 255 308
#     4   9  16  27  45  70  99 131 166 206 252 306
#     4  11  20  33  53  78 106 136 172 216 261 311
#
# _framework density 17.839531999999998
#
# number of rings (size 3 to 8) (size 9 to 14) (size 15 to 20)
#    0.000    2.286    1.429    2.000    0.000    2.857 
#    0.000    0.714    0.000    1.571    0.000    0.000 
#    0.000    1.143    0.000    0.000    0.000    0.000 
#
# Total GULP energy -2081879.813490 kJ/mol
# GULP energy per Si atom -12392.141747 kJ/mol
# Density = 1.779893 g / cm^3
# Si number density = 17.839532 Si / 1000 Ang^3
#
#
#
# Elastic Constant Matrix: (Units=GPa)
#
#
# Indices 1 2 3 4 5 6 
#
# 1 104.4061 48.5131 35.4090 0.0000 0.0000 0.0000
# 2 48.5131 104.4061 35.4090 0.0000 0.0000 0.0000
# 3 35.4090 35.4090 103.2444 0.0000 0.0000 0.0000
# 4 0.0000 0.0000 0.0000 15.3721 0.0000 0.0000
# 5 0.0000 0.0000 0.0000 0.0000 15.3721 0.0000
# 6 0.0000 0.0000 0.0000 0.0000 0.0000 27.9465
#
#
#
# Elastic Compliance Matrix: (Units=1/GPa)
#
#
# Indices 1 2 3 4 5 6 
#
# 1 0.012833 -0.005059 -0.002666 0.000000 0.000000 0.000000
# 2 -0.005059 0.012833 -0.002666 0.000000 0.000000 0.000000
# 3 -0.002666 -0.002666 0.011515 0.000000 0.000000 0.000000
# 4 0.000000 0.000000 0.000000 0.065053 0.000000 0.000000
# 5 0.000000 0.000000 0.000000 0.000000 0.065053 0.000000
# 6 0.000000 0.000000 0.000000 0.000000 0.000000 0.035783
#
#
# Mechanical properties :
#
#
# Convention : Reuss Voigt Hill
#
# Bulk Modulus (GPa) = 60.98331 61.19098 61.08714
# Shear Modulus (GPa) = 21.80393 24.58651 23.19522
#
# Velocity S-wave (km/s) = 3.49983 3.71644 3.60976
# Velocity P-wave (km/s) = 7.11269 7.26575 7.18963
#
# Compressibility (1/GPa) = 0.01639793
#
# Stress axis : x y z
#
# Youngs Moduli (GPa) = 77.92564 77.92564 86.84623
#
# Poissons Ratio (x) = 0.39419 0.23155
# Poissons Ratio (y) = 0.39419 0.23155
# Poissons Ratio (z) = 0.20777 0.20777
#
# Static dielectric constant tensor:
#      x y z
#    x 3.329720 0.000000 0.000000 
#    y 0.000000 3.329720 0.000000 
#    z 0.000000 0.000000 3.392960 
# 
# 
# High freq. dielectric constant tensor:
#      x y z
#    x 1.680970 0.000000 0.000000 
#    y 0.000000 1.680970 0.000000 
#    z 0.000000 0.000000 1.683790 
# 
# From -- ./inp_files/9788.got.cif
#   From: 2010.03.12/outbox.cif.g09.slc.cpg/sg194_5_cif.got.tgz:9788.got - 2010.04.01 12:26:19.
