data_PCOD8330589
_publ_section_title
;
Structure prediction by ZEFSAII (Michael W. Deem and Ramdas Pophale) SiO2 
 PCOD8330589
Probable space group: P 63/M M C
;
_chemical_formula_sum "Si O2"
_cell_formula_units_Z 192
_cell_length_a 23.871204
_cell_length_b 23.871204
_cell_length_c 21.517771
_cell_angle_alpha 90.000000
_cell_angle_beta 90.000000
_cell_angle_gamma 120.000000
_cell_volume 10618.827391
_symmetry_space_group_name_H-M "P 63/M M C"
_symmetry_group_IT_number 194
_symmetry_cell_setting 'hexagonal'
loop_
_space_group_symop_operation_xyz
x,y,z
x-y,x,1/2+z
-y,x-y,z
-x,-y,1/2+z
-x+y,-x,z
y,-x+y,1/2+z
x-y,-y,-z
-x,-x+y,-z
y,x,-z
-y,-x,1/2-z
-x+y,y,1/2-z
x,x-y,1/2-z
-x,-y,-z
-x+y,-x,1/2-z
y,-x+y,-z
x,y,1/2-z
x-y,x,-z
-y,x-y,1/2-z
-x+y,y,z
x,x-y,z
-y,-x,z
y,x,1/2+z
x-y,-y,1/2+z
-x,-x+y,1/2+z
loop_
_atom_site_type_symbol
_atom_site_label
_atom_site_fract_x
_atom_site_fract_y
_atom_site_fract_z
Si Si1 0.108255 0.346697 0.397309
Si Si2 0.999160 0.345560 0.820089
Si Si3 0.682731 0.074554 0.490824
Si Si4 0.008208 0.802845 0.069079
Si Si5 0.099611 0.324783 0.882074
Si Si6 0.874829 0.998509 0.181428
Si Si7 0.794700 0.461522 0.322373
Si Si8 0.602049 0.074278 0.392628
O O1 0.178154 0.356307 0.377664
O O2 0.115862 0.401851 0.446636
O O3 0.069144 0.351318 0.338422
O O4 0.064876 0.279844 0.434249
O O5 0.993155 0.363372 0.750000
O O6 0.057101 0.329134 0.825841
O O7 0.014781 0.407224 0.862956
O O8 0.733202 0.108638 0.435050
O O9 0.619979 0.077985 0.466246
O O10 0.664961 0.000000 0.500000
O O11 0.938198 0.745525 0.087707
O O12 0.029365 0.854452 0.124437
O O13 0.000000 0.826104 0.000000
O O14 0.169206 0.338411 0.857152
O O15 0.842694 0.995238 0.250000
O O16 0.907338 0.953669 0.184762
O O17 0.928461 0.071540 0.167016
O O18 0.809216 0.477706 0.250000
O O19 0.735396 0.470791 0.344582
O O20 0.775716 0.387858 0.336246
O O21 0.859033 0.511098 0.358813
O O22 0.529059 0.058118 0.384954
#
# Coordination Sequence:
#
# PCOD8330589 Si02
#       8
#    24  24  24  24  24  24  24  24
#     4  11  21  36  56  75 100 137 176 216 271 328
#     4  10  22  38  52  75 111 142 181 227 264 313
#     4  11  18  37  53  77 104 132 172 217 260 313
#     4  11  20  34  52  78 100 125 168 219 267 322
#     4  10  19  32  53  76 103 139 173 211 263 316
#     4  10  22  38  52  66  89 123 162 208 266 327
#     4   9  17  30  49  76 111 152 194 228 258 298
#     4  10  21  35  56  81 110 146 181 220 266 320
#
# _framework density 18.081092000000002
#
# number of rings (size 3 to 8) (size 9 to 14) (size 15 to 20)
#    0.000    1.750    5.000    1.750    0.000    8.500 
#    0.000    0.000    0.000    0.750    0.000    0.000 
#    0.000    0.000    0.000    0.375    0.000    3.250 
#
# Total GULP energy -2379208.626764 kJ/mol
# GULP energy per Si atom -12391.711598 kJ/mol
# Density = 1.803994 g / cm^3
# Si number density = 18.081092 Si / 1000 Ang^3
#
#
#
# Elastic Constant Matrix: (Units=GPa)
#
#
# Indices 1 2 3 4 5 6 
#
# 1 78.4096 41.1071 28.3860 0.0000 0.0000 0.0000
# 2 41.1071 78.4096 28.3860 0.0000 0.0000 0.0000
# 3 28.3860 28.3860 95.3415 0.0000 0.0000 0.0000
# 4 0.0000 0.0000 0.0000 18.4222 0.0000 0.0000
# 5 0.0000 0.0000 0.0000 0.0000 18.4222 0.0000
# 6 0.0000 0.0000 0.0000 0.0000 0.0000 18.6513
#
#
#
# Elastic Compliance Matrix: (Units=1/GPa)
#
#
# Indices 1 2 3 4 5 6 
#
# 1 0.018277 -0.008531 -0.002901 0.000000 0.000000 0.000000
# 2 -0.008531 0.018277 -0.002901 0.000000 0.000000 0.000000
# 3 -0.002901 -0.002901 0.012216 0.000000 0.000000 0.000000
# 4 0.000000 0.000000 0.000000 0.054282 0.000000 0.000000
# 5 0.000000 0.000000 0.000000 0.000000 0.054282 0.000000
# 6 0.000000 0.000000 0.000000 0.000000 0.000000 0.053616
#
#
# Mechanical properties :
#
#
# Convention : Reuss Voigt Hill
#
# Bulk Modulus (GPa) = 49.74874 49.76878 49.75876
# Shear Modulus (GPa) = 20.29891 21.38456 20.84173
#
# Velocity S-wave (km/s) = 3.35425 3.44278 3.39880
# Velocity P-wave (km/s) = 6.52497 6.58701 6.55606
#
# Compressibility (1/GPa) = 0.02010101
#
# Stress axis : x y z
#
# Youngs Moduli (GPa) = 54.71493 54.71493 81.85784
#
# Poissons Ratio (x) = 0.46679 0.23751
# Poissons Ratio (y) = 0.46679 0.23751
# Poissons Ratio (z) = 0.15875 0.15875
#
# Static dielectric constant tensor:
#      x y z
#    x 3.271840 0.000000 0.000000 
#    y 0.000000 3.271840 0.000000 
#    z 0.000000 0.000000 3.330680 
# 
# 
# High freq. dielectric constant tensor:
#      x y z
#    x 1.680570 0.000000 0.000000 
#    y 0.000000 1.680570 0.000000 
#    z 0.000000 0.000000 1.694310 
# 
# From -- ./inp_files/8740.got.cif
#   From: 2010.03.12/outbox.cif.g09.slc.cpg/sg194_5_cif.got.tgz:8740.got - 2010.04.01 12:26:19.
