data_PCOD8330911
_publ_section_title
;
Structure prediction by ZEFSAII (Michael W. Deem and Ramdas Pophale) SiO2 
 PCOD8330911
Probable space group: P M 3
;
_chemical_formula_sum "Si O2"
_cell_formula_units_Z 120
_cell_length_a 18.913802
_cell_length_b 18.913802
_cell_length_c 18.913802
_cell_angle_alpha 90.000000
_cell_angle_beta 90.000000
_cell_angle_gamma 90.000000
_cell_volume 6766.070441
_symmetry_space_group_name_H-M "P M 3"
_symmetry_group_IT_number 200
_symmetry_cell_setting 'cubic'
loop_
_space_group_symop_operation_xyz
x,y,z
z,x,y
y,z,x
-y,-z,x
z,-x,-y
-y,z,-x
-z,-x,y
-z,x,-y
y,-z,-x
-x,-y,z
x,-y,-z
-x,y,-z
-x,-y,-z
-z,-x,-y
-y,-z,-x
y,z,-x
-z,x,y
y,-z,x
z,x,-y
z,-x,y
-y,z,x
x,y,-z
-x,y,z
x,-y,z
loop_
_atom_site_type_symbol
_atom_site_label
_atom_site_fract_x
_atom_site_fract_y
_atom_site_fract_z
Si Si1 0.139516 0.580918 0.307511
Si Si2 0.081296 0.313078 0.803351
Si Si3 0.419544 0.916520 0.317501
Si Si4 0.918588 0.801907 0.312647
Si Si5 0.578914 0.344772 0.705636
O O1 0.114621 0.500000 0.308320
O O2 0.100947 0.618790 0.242880
O O3 0.118979 0.615089 0.382600
O O4 0.224119 0.587642 0.297685
O O5 0.095095 0.242470 0.758428
O O6 0.126858 0.310185 0.874020
O O7 0.000000 0.319201 0.826193
O O8 0.500000 0.889836 0.312455
O O9 0.379743 0.894950 0.245249
O O10 0.414378 0.000000 0.328285
O O11 0.000000 0.824365 0.319196
O O12 0.592315 0.294363 0.637245
O O13 0.500000 0.377252 0.701402
#
# Coordination Sequence:
#
# PCOD8330911 Si02
#       5
#    24  24  24  24  24
#     4  10  21  35  53  78 107 138 175 222 269 315
#     4  10  21  35  55  82 108 139 177 215 257 312
#     4   9  19  35  54  76 104 140 179 217 264 320
#     4   9  19  35  54  78 108 140 175 215 259 309
#     4   9  21  37  53  76 102 135 179 222 269 319
#
# _framework density 17.735554
#
# number of rings (size 3 to 8) (size 9 to 14) (size 15 to 20)
#    0.400    2.200    0.000    2.200    5.600    4.400 
#    0.000    3.000    0.000    0.400    0.000    4.200 
#    0.000    0.000    0.000   12.400    0.000    0.000 
#
# Total GULP energy -1487810.502307 kJ/mol
# GULP energy per Si atom -12398.420853 kJ/mol
# Density = 1.769519 g / cm^3
# Si number density = 17.735554 Si / 1000 Ang^3
#
#
#
# Elastic Constant Matrix: (Units=GPa)
#
#
# Indices 1 2 3 4 5 6 
#
# 1 114.8366 59.0312 59.0312 0.0000 0.0000 0.0000
# 2 59.0312 114.8366 59.0312 0.0000 0.0000 0.0000
# 3 59.0312 59.0312 114.8366 0.0000 0.0000 0.0000
# 4 0.0000 0.0000 0.0000 21.1996 0.0000 0.0000
# 5 0.0000 0.0000 0.0000 0.0000 21.1996 0.0000
# 6 0.0000 0.0000 0.0000 0.0000 0.0000 21.1996
#
#
#
# Elastic Compliance Matrix: (Units=1/GPa)
#
#
# Indices 1 2 3 4 5 6 
#
# 1 0.013378 -0.004542 -0.004542 0.000000 0.000000 0.000000
# 2 -0.004542 0.013378 -0.004542 0.000000 0.000000 0.000000
# 3 -0.004542 -0.004542 0.013378 0.000000 0.000000 0.000000
# 4 0.000000 0.000000 0.000000 0.047171 0.000000 0.000000
# 5 0.000000 0.000000 0.000000 0.000000 0.047171 0.000000
# 6 0.000000 0.000000 0.000000 0.000000 0.000000 0.047171
#
#
# Mechanical properties :
#
#
# Convention : Reuss Voigt Hill
#
# Bulk Modulus (GPa) = 77.63297 77.63297 77.63297
# Shear Modulus (GPa) = 23.45328 23.88084 23.66706
#
# Velocity S-wave (km/s) = 3.64041 3.67344 3.65696
# Velocity P-wave (km/s) = 7.84459 7.86510 7.85485
#
# Compressibility (1/GPa) = 0.01288113
#
# Stress axis : x y z
#
# Youngs Moduli (GPa) = 74.75236 74.75236 74.75236
#
# Poissons Ratio (x) = 0.33952 0.33952
# Poissons Ratio (y) = 0.33952 0.33952
# Poissons Ratio (z) = 0.33952 0.33952
#
# Static dielectric constant tensor:
#      x y z
#    x 3.223320 0.000000 0.000000 
#    y 0.000000 3.223320 0.000000 
#    z 0.000000 0.000000 3.223320 
# 
# 
# High freq. dielectric constant tensor:
#      x y z
#    x 1.681380 0.000000 0.000000 
#    y 0.000000 1.681380 0.000000 
#    z 0.000000 0.000000 1.681380 
# 
# From -- ./inp_files/451.got.cif
#   From: 2010.03.12/outbox.cif.g09.slc.cpg/sg200_cif.got.tgz:451.got - 2010.03.30 09:01:43.
