data_PCOD8330306
_publ_section_title
;
Structure prediction by ZEFSAII (Michael W. Deem and Ramdas Pophale) SiO2 
 PCOD8330306
Probable space group: P 63/M M C
;
_chemical_formula_sum "Si O2"
_cell_formula_units_Z 192
_cell_length_a 24.224539
_cell_length_b 24.224539
_cell_length_c 24.593167
_cell_angle_alpha 90.000000
_cell_angle_beta 90.000000
_cell_angle_gamma 120.000000
_cell_volume 12498.449296
_symmetry_space_group_name_H-M "P 63/M M C"
_symmetry_group_IT_number 194
_symmetry_cell_setting 'hexagonal'
loop_
_space_group_symop_operation_xyz
x,y,z
x-y,x,1/2+z
-y,x-y,z
-x,-y,1/2+z
-x+y,-x,z
y,-x+y,1/2+z
x-y,-y,-z
-x,-x+y,-z
y,x,-z
-y,-x,1/2-z
-x+y,y,1/2-z
x,x-y,1/2-z
-x,-y,-z
-x+y,-x,1/2-z
y,-x+y,-z
x,y,1/2-z
x-y,x,-z
-y,x-y,1/2-z
-x+y,y,z
x,x-y,z
-y,-x,z
y,x,1/2+z
x-y,-y,1/2+z
-x,-x+y,1/2+z
loop_
_atom_site_type_symbol
_atom_site_label
_atom_site_fract_x
_atom_site_fract_y
_atom_site_fract_z
Si Si1 0.626944 0.751075 0.000915
Si Si2 0.521697 0.601049 0.689354
Si Si3 0.944359 0.176800 0.033580
Si Si4 0.072024 0.474428 0.310835
Si Si5 0.805974 0.741998 0.152619
Si Si6 0.199608 0.273159 0.311077
Si Si7 0.078386 0.381368 0.614558
Si Si8 0.928958 0.623022 0.886538
O O1 0.602306 0.801153 0.004562
O O2 0.603345 0.707514 0.054424
O O3 0.703399 0.786484 0.001247
O O4 0.601412 0.713998 0.944032
O O5 0.520436 0.626213 0.750000
O O6 0.449976 0.550025 0.670517
O O7 0.564528 0.568203 0.690629
O O8 0.552189 0.659589 0.647200
O O9 0.895916 0.104085 0.043331
O O10 0.966332 0.206591 0.092542
O O11 0.000000 0.176744 0.000000
O O12 0.098456 0.476268 0.250000
O O13 0.092488 0.546244 0.329962
O O14 0.099663 0.442613 0.352211
O O15 0.878058 0.756115 0.166038
O O16 0.784869 0.783891 0.189013
O O17 0.757633 0.665478 0.153135
O O18 0.216223 0.301564 0.250000
O O19 0.124452 0.248903 0.323398
O O20 0.242078 0.328077 0.354060
O O21 0.003621 0.350507 0.604067
#
# Coordination Sequence:
#
# PCOD8330306 Si02
#       8
#    24  24  24  24  24  24  24  24
#     4  10  18  27  39  55  79 110 141 175 214 252
#     4   8  14  25  41  61  85 113 141 164 190 230
#     4   9  16  26  40  57  75  97 128 168 215 268
#     4   8  14  25  40  58  82 111 139 165 194 233
#     4   9  18  30  43  60  82 109 143 182 225 274
#     4  10  20  31  43  61  83 107 141 187 234 278
#     4   9  16  26  42  62  84 110 143 177 208 251
#     4  10  17  26  42  61  81 109 144 176 210 256
#
# _framework density 15.361905999999999
#
# number of rings (size 3 to 8) (size 9 to 14) (size 15 to 20)
#    0.000    2.875    0.000    5.250    0.000    4.750 
#    0.000    0.625    0.000    4.500    0.000    0.000 
#    0.000    0.000    0.000   10.500    0.000   36.625 
#
# Total GULP energy -2378674.646592 kJ/mol
# GULP energy per Si atom -12388.930451 kJ/mol
# Density = 1.532694 g / cm^3
# Si number density = 15.361906 Si / 1000 Ang^3
#
#
#
# Elastic Constant Matrix: (Units=GPa)
#
#
# Indices 1 2 3 4 5 6 
#
# 1 55.8167 30.7166 39.3643 0.0000 0.0000 0.0000
# 2 30.7166 55.8167 39.3643 0.0000 0.0000 0.0000
# 3 39.3643 39.3643 85.4779 0.0000 0.0000 0.0000
# 4 0.0000 0.0000 0.0000 22.5455 0.0000 0.0000
# 5 0.0000 0.0000 0.0000 0.0000 22.5455 0.0000
# 6 0.0000 0.0000 0.0000 0.0000 0.0000 12.5501
#
#
#
# Elastic Compliance Matrix: (Units=1/GPa)
#
#
# Indices 1 2 3 4 5 6 
#
# 1 0.029865 -0.009975 -0.009160 0.000000 0.000000 0.000000
# 2 -0.009975 0.029865 -0.009160 0.000000 0.000000 0.000000
# 3 -0.009160 -0.009160 0.020135 0.000000 0.000000 0.000000
# 4 0.000000 0.000000 0.000000 0.044355 0.000000 0.000000
# 5 0.000000 0.000000 0.000000 0.000000 0.044355 0.000000
# 6 0.000000 0.000000 0.000000 0.000000 0.000000 0.079681
#
#
# Mechanical properties :
#
#
# Convention : Reuss Voigt Hill
#
# Bulk Modulus (GPa) = 42.96219 46.22243 44.59231
# Shear Modulus (GPa) = 15.99469 17.37263 16.68366
#
# Velocity S-wave (km/s) = 3.23025 3.36652 3.29909
# Velocity P-wave (km/s) = 6.47612 6.72797 6.60325
#
# Compressibility (1/GPa) = 0.02327628
#
# Stress axis : x y z
#
# Youngs Moduli (GPa) = 33.48394 33.48394 49.66396
#
# Poissons Ratio (x) = 0.33401 0.45490
# Poissons Ratio (y) = 0.33401 0.45490
# Poissons Ratio (z) = 0.30670 0.30670
#
# Static dielectric constant tensor:
#      x y z
#    x 2.855890 0.000000 0.000000 
#    y 0.000000 2.855890 0.000000 
#    z 0.000000 0.000000 3.456700 
# 
# 
# High freq. dielectric constant tensor:
#      x y z
#    x 1.555630 0.000000 0.000000 
#    y 0.000000 1.555630 0.000000 
#    z 0.000000 0.000000 1.599150 
# 
# From -- ./inp_files/11223.got.cif
#   From: 2010.03.12/outbox.cif.g09.slc.cpg/sg194_6_cif.got.tgz:11223.got - 2010.04.01 12:26:19.
