data_PCOD8330479
_publ_section_title
;
Structure prediction by ZEFSAII (Michael W. Deem and Ramdas Pophale) SiO2 
 PCOD8330479
Probable space group: P 63/M M C
;
_chemical_formula_sum "Si O2"
_cell_formula_units_Z 96
_cell_length_a 17.892479
_cell_length_b 17.892479
_cell_length_c 20.357512
_cell_angle_alpha 90.000000
_cell_angle_beta 90.000000
_cell_angle_gamma 120.000000
_cell_volume 5644.121621
_symmetry_space_group_name_H-M "P 63/M M C"
_symmetry_group_IT_number 194
_symmetry_cell_setting 'hexagonal'
loop_
_space_group_symop_operation_xyz
x,y,z
x-y,x,1/2+z
-y,x-y,z
-x,-y,1/2+z
-x+y,-x,z
y,-x+y,1/2+z
x-y,-y,-z
-x,-x+y,-z
y,x,-z
-y,-x,1/2-z
-x+y,y,1/2-z
x,x-y,1/2-z
-x,-y,-z
-x+y,-x,1/2-z
y,-x+y,-z
x,y,1/2-z
x-y,x,-z
-y,x-y,1/2-z
-x+y,y,z
x,x-y,z
-y,-x,z
y,x,1/2+z
x-y,-y,1/2+z
-x,-x+y,1/2+z
loop_
_atom_site_type_symbol
_atom_site_label
_atom_site_fract_x
_atom_site_fract_y
_atom_site_fract_z
Si Si1 0.496096 0.828790 0.672080
Si Si2 0.942281 0.232017 0.873989
Si Si3 0.426920 0.403843 0.827757
Si Si4 0.999605 0.176658 0.750000
Si Si5 0.178464 0.000000 0.000000
O O1 0.493700 0.825127 0.750000
O O2 0.400888 0.801775 0.645727
O O3 0.523534 0.761767 0.643043
O O4 0.562670 0.925019 0.650081
O O5 0.847177 0.152824 0.872837
O O6 0.927654 0.314531 0.868004
O O7 0.992450 0.230356 0.938546
O O8 0.997645 0.229318 0.812899
O O9 0.424522 0.387469 0.750000
O O10 0.525691 0.474310 0.848326
O O11 0.086803 0.173605 0.750000
O O12 0.921092 0.078909 0.750000
O O13 0.166892 0.083446 0.007181
#
# Coordination Sequence:
#
# PCOD8330479 Si02
#       5
#    24  24  24  12  12
#     4   8  13  20  32  53  83 117 149 179 216 269
#     4  10  20  34  51  73  99 132 175 219 264 313
#     4   9  17  30  47  70  98 128 161 202 260 316
#     4  10  19  30  47  72 102 134 170 214 263 314
#     4  10  21  36  53  74 106 146 184 218 257 310
#
# _framework density 17.008846999999999
#
# number of rings (size 3 to 8) (size 9 to 14) (size 15 to 20)
#    0.000    2.750    1.250    2.750    0.000    3.000 
#    0.000    3.125    0.000    0.500    0.000    0.000 
#    0.000    2.000    0.000    0.000    0.000    0.000 
#
# Total GULP energy -1189521.231466 kJ/mol
# GULP energy per Si atom -12390.846161 kJ/mol
# Density = 1.697013 g / cm^3
# Si number density = 17.008847 Si / 1000 Ang^3
#
#
#
# Elastic Constant Matrix: (Units=GPa)
#
#
# Indices 1 2 3 4 5 6 
#
# 1 79.2738 41.5656 41.1792 0.0000 0.0000 0.0000
# 2 41.5656 79.2738 41.1792 0.0000 0.0000 0.0000
# 3 41.1792 41.1792 88.1877 0.0000 0.0000 0.0000
# 4 0.0000 0.0000 0.0000 19.3168 0.0000 0.0000
# 5 0.0000 0.0000 0.0000 0.0000 19.3168 0.0000
# 6 0.0000 0.0000 0.0000 0.0000 0.0000 18.8541
#
#
#
# Elastic Compliance Matrix: (Units=1/GPa)
#
#
# Indices 1 2 3 4 5 6 
#
# 1 0.019329 -0.007190 -0.005668 0.000000 0.000000 0.000000
# 2 -0.007190 0.019329 -0.005668 0.000000 0.000000 0.000000
# 3 -0.005668 -0.005668 0.016633 0.000000 0.000000 0.000000
# 4 0.000000 0.000000 0.000000 0.051769 0.000000 0.000000
# 5 0.000000 0.000000 0.000000 0.000000 0.051769 0.000000
# 6 0.000000 0.000000 0.000000 0.000000 0.000000 0.053039
#
#
# Mechanical properties :
#
#
# Convention : Reuss Voigt Hill
#
# Bulk Modulus (GPa) = 54.83175 54.95371 54.89273
# Shear Modulus (GPa) = 19.60791 19.68494 19.64642
#
# Velocity S-wave (km/s) = 3.39898 3.40565 3.40232
# Velocity P-wave (km/s) = 6.90734 6.91691 6.91213
#
# Compressibility (1/GPa) = 0.01823761
#
# Stress axis : x y z
#
# Youngs Moduli (GPa) = 51.73577 51.73577 60.12188
#
# Poissons Ratio (x) = 0.37200 0.34078
# Poissons Ratio (y) = 0.37200 0.34078
# Poissons Ratio (z) = 0.29324 0.29324
#
# Static dielectric constant tensor:
#      x y z
#    x 3.393140 0.000000 0.000000 
#    y 0.000000 3.393140 0.000000 
#    z 0.000000 0.000000 2.955020 
# 
# 
# High freq. dielectric constant tensor:
#      x y z
#    x 1.654540 0.000000 0.000000 
#    y 0.000000 1.654540 0.000000 
#    z 0.000000 0.000000 1.612330 
# 
# From -- ./inp_files/7847.got.cif
#   From: 2010.03.12/outbox.cif.g09.slc.cpg/sg194_4_cif.got.tgz:7847.got - 2010.04.01 12:26:19.
