data_PCOD8330734
_publ_section_title
;
Structure prediction by ZEFSAII (Michael W. Deem and Ramdas Pophale) SiO2 
 PCOD8330734
Probable space group: P 63/M M C
;
_chemical_formula_sum "Si O2"
_cell_formula_units_Z 144
_cell_length_a 31.435250
_cell_length_b 31.435250
_cell_length_c 8.855363
_cell_angle_alpha 90.000000
_cell_angle_beta 90.000000
_cell_angle_gamma 120.000000
_cell_volume 7578.283315
_symmetry_space_group_name_H-M "P 63/M M C"
_symmetry_group_IT_number 194
_symmetry_cell_setting 'hexagonal'
loop_
_space_group_symop_operation_xyz
x,y,z
x-y,x,1/2+z
-y,x-y,z
-x,-y,1/2+z
-x+y,-x,z
y,-x+y,1/2+z
x-y,-y,-z
-x,-x+y,-z
y,x,-z
-y,-x,1/2-z
-x+y,y,1/2-z
x,x-y,1/2-z
-x,-y,-z
-x+y,-x,1/2-z
y,-x+y,-z
x,y,1/2-z
x-y,x,-z
-y,x-y,1/2-z
-x+y,y,z
x,x-y,z
-y,-x,z
y,x,1/2+z
x-y,-y,1/2+z
-x,-x+y,1/2+z
loop_
_atom_site_type_symbol
_atom_site_label
_atom_site_fract_x
_atom_site_fract_y
_atom_site_fract_z
Si Si1 0.297360 0.098157 0.580210
Si Si2 0.147284 0.196939 0.572277
Si Si3 0.853198 0.247665 0.419845
Si Si4 0.574456 0.050854 0.427341
Si Si5 0.431195 0.764349 0.575762
Si Si6 0.144414 0.481654 0.427843
O O1 0.296483 0.079315 0.750000
O O2 0.300323 0.150162 0.583019
O O3 0.248544 0.059017 0.493932
O O4 0.344584 0.103168 0.492743
O O5 0.153342 0.153342 0.500000
O O6 0.154150 0.198035 0.750000
O O7 0.093414 0.186828 0.527543
O O8 0.868639 0.268492 0.250000
O O9 0.803833 0.196168 0.416086
O O10 0.843078 0.283473 0.521555
O O11 0.580410 0.047939 0.250000
O O12 0.530478 0.060956 0.468359
O O13 0.623930 0.094158 0.494777
O O14 0.564616 0.000000 0.500000
O O15 0.447097 0.777367 0.750000
O O16 0.375092 0.750183 0.552058
O O17 0.436379 0.718190 0.523151
O O18 0.465454 0.811437 0.475755
O O19 0.137935 0.480732 0.250000
#
# Coordination Sequence:
#
# PCOD8330734 Si02
#       6
#    24  24  24  24  24  24
#     4   9  17  31  52  77 105 137 173 214 261 313
#     4  10  20  34  54  81 112 147 188 232 278 329
#     4  10  20  35  55  78 107 144 184 225 270 321
#     4  10  21  39  62  84 106 134 170 214 265 321
#     4  10  21  38  59  82 110 147 192 241 292 343
#     4  12  24  36  54  82 114 147 184 225 272 330
#
# _framework density 19.001666
#
# number of rings (size 3 to 8) (size 9 to 14) (size 15 to 20)
#    0.000    1.833    0.000    4.667    0.000   10.333 
#    0.000    0.833    0.000    1.167    0.000    0.000 
#    0.000    0.000    0.000    0.000    0.000    0.000 
#
# Total GULP energy -1786185.213212 kJ/mol
# GULP energy per Si atom -12404.063981 kJ/mol
# Density = 1.895842 g / cm^3
# Si number density = 19.001666 Si / 1000 Ang^3
#
#
#
# Elastic Constant Matrix: (Units=GPa)
#
#
# Indices 1 2 3 4 5 6 
#
# 1 82.3283 32.0049 37.7672 0.0000 0.0000 0.0000
# 2 32.0049 82.3283 37.7672 0.0000 0.0000 0.0000
# 3 37.7672 37.7672 99.0564 0.0000 0.0000 0.0000
# 4 0.0000 0.0000 0.0000 30.9819 0.0000 0.0000
# 5 0.0000 0.0000 0.0000 0.0000 30.9819 0.0000
# 6 0.0000 0.0000 0.0000 0.0000 0.0000 25.1617
#
#
#
# Elastic Compliance Matrix: (Units=1/GPa)
#
#
# Indices 1 2 3 4 5 6 
#
# 1 0.015781 -0.004090 -0.004457 0.000000 0.000000 0.000000
# 2 -0.004090 0.015781 -0.004457 0.000000 0.000000 0.000000
# 3 -0.004457 -0.004457 0.013494 0.000000 0.000000 0.000000
# 4 0.000000 0.000000 0.000000 0.032277 0.000000 0.000000
# 5 0.000000 0.000000 0.000000 0.000000 0.032277 0.000000
# 6 0.000000 0.000000 0.000000 0.000000 0.000000 0.039743
#
#
# Mechanical properties :
#
#
# Convention : Reuss Voigt Hill
#
# Bulk Modulus (GPa) = 52.50252 53.19905 52.85078
# Shear Modulus (GPa) = 27.51593 27.83669 27.67631
#
# Velocity S-wave (km/s) = 3.80949 3.83163 3.82058
# Velocity P-wave (km/s) = 6.85858 6.90167 6.88016
#
# Compressibility (1/GPa) = 0.01904671
#
# Stress axis : x y z
#
# Youngs Moduli (GPa) = 63.36593 63.36593 74.10554
#
# Poissons Ratio (x) = 0.25918 0.33033
# Poissons Ratio (y) = 0.25918 0.33033
# Poissons Ratio (z) = 0.28245 0.28245
#
# Static dielectric constant tensor:
#      x y z
#    x 3.433480 0.000000 0.000000 
#    y 0.000000 3.433480 0.000000 
#    z 0.000000 0.000000 3.676560 
# 
# 
# High freq. dielectric constant tensor:
#      x y z
#    x 1.730530 0.000000 0.000000 
#    y 0.000000 1.730530 0.000000 
#    z 0.000000 0.000000 1.751630 
# 
# From -- ./inp_files/2096.got.cif
#   From: 2010.03.12/outbox.cif.g09.slc.cpg/sg194_2_cif.got.tgz:2096.got - 2010.04.01 12:26:19.
