data_PCOD8330782
_publ_section_title
;
Structure prediction by ZEFSAII (Michael W. Deem and Ramdas Pophale) SiO2 
 PCOD8330782
Probable space group: P 63/M M C
;
_chemical_formula_sum "Si O2"
_cell_formula_units_Z 64
_cell_length_a 13.963170
_cell_length_b 13.963170
_cell_length_c 20.185734
_cell_angle_alpha 90.000000
_cell_angle_beta 90.000000
_cell_angle_gamma 120.000000
_cell_volume 3408.342490
_symmetry_space_group_name_H-M "P 63/M M C"
_symmetry_group_IT_number 194
_symmetry_cell_setting 'hexagonal'
loop_
_space_group_symop_operation_xyz
x,y,z
x-y,x,1/2+z
-y,x-y,z
-x,-y,1/2+z
-x+y,-x,z
y,-x+y,1/2+z
x-y,-y,-z
-x,-x+y,-z
y,x,-z
-y,-x,1/2-z
-x+y,y,1/2-z
x,x-y,1/2-z
-x,-y,-z
-x+y,-x,1/2-z
y,-x+y,-z
x,y,1/2-z
x-y,x,-z
-y,x-y,1/2-z
-x+y,y,z
x,x-y,z
-y,-x,z
y,x,1/2+z
x-y,-y,1/2+z
-x,-x+y,1/2+z
loop_
_atom_site_type_symbol
_atom_site_label
_atom_site_fract_x
_atom_site_fract_y
_atom_site_fract_z
Si Si1 0.000000 0.000000 0.417374
Si Si2 0.653529 0.717849 0.175285
Si Si3 0.790773 0.895387 0.826056
Si Si4 0.482505 0.517496 0.094232
Si Si5 0.594774 0.189547 0.467341
O O1 0.122147 0.061074 0.386203
O O2 0.000000 0.000000 0.500000
O O3 0.611002 0.688953 0.250000
O O4 0.681432 0.840716 0.155796
O O5 0.764709 0.712410 0.164780
O O6 0.556302 0.631515 0.130584
O O7 0.842200 0.921100 0.750000
O O8 0.550009 0.449992 0.092077
O O9 0.447357 0.552643 0.027777
O O10 0.729308 0.270693 0.465813
#
# Coordination Sequence:
#
# PCOD8330782 Si02
#       5
#     4  24  12  12  12
#     4  12  22  38  52  96 118 152 190 249 292 353
#     4  10  21  37  62  92 116 150 199 249 305 364
#     4  10  20  39  63  84 120 162 192 237 311 380
#     4  11  21  38  62  86 119 160 198 261 292 353
#     4   9  22  41  57  80 116 165 207 234 301 368
#
# _framework density 18.777455
#
# number of rings (size 3 to 8) (size 9 to 14) (size 15 to 20)
#    0.375    1.500    1.875    2.250    2.625    0.000 
#    7.875    0.000    0.000    0.000    0.000    0.000 
#    0.000    0.000    0.000    0.000    0.000    0.000 
#
# Total GULP energy -792928.982306 kJ/mol
# GULP energy per Si atom -12389.515349 kJ/mol
# Density = 1.873472 g / cm^3
# Si number density = 18.777455 Si / 1000 Ang^3
#
#
#
# Elastic Constant Matrix: (Units=GPa)
#
#
# Indices 1 2 3 4 5 6 
#
# 1 65.2852 6.0656 9.6191 0.0000 0.0000 0.0000
# 2 6.0656 65.2852 9.6191 0.0000 0.0000 0.0000
# 3 9.6191 9.6191 63.9036 0.0000 0.0000 0.0000
# 4 0.0000 0.0000 0.0000 26.0356 0.0000 0.0000
# 5 0.0000 0.0000 0.0000 0.0000 26.0356 0.0000
# 6 0.0000 0.0000 0.0000 0.0000 0.0000 29.6098
#
#
#
# Elastic Compliance Matrix: (Units=1/GPa)
#
#
# Indices 1 2 3 4 5 6 
#
# 1 0.015747 -0.001139 -0.002199 0.000000 0.000000 0.000000
# 2 -0.001139 0.015747 -0.002199 0.000000 0.000000 0.000000
# 3 -0.002199 -0.002199 0.016311 0.000000 0.000000 0.000000
# 4 0.000000 0.000000 0.000000 0.038409 0.000000 0.000000
# 5 0.000000 0.000000 0.000000 0.000000 0.038409 0.000000
# 6 0.000000 0.000000 0.000000 0.000000 0.000000 0.033773
#
#
# Mechanical properties :
#
#
# Convention : Reuss Voigt Hill
#
# Bulk Modulus (GPa) = 27.22478 27.23130 27.22804
# Shear Modulus (GPa) = 27.51591 27.61420 27.56506
#
# Velocity S-wave (km/s) = 3.83217 3.83901 3.83559
# Velocity P-wave (km/s) = 5.84045 5.84673 5.84359
#
# Compressibility (1/GPa) = 0.03673125
#
# Stress axis : x y z
#
# Youngs Moduli (GPa) = 63.50328 63.50328 61.30995
#
# Poissons Ratio (x) = 0.07233 0.13481
# Poissons Ratio (y) = 0.07233 0.13481
# Poissons Ratio (z) = 0.13964 0.13964
#
# Static dielectric constant tensor:
#      x y z
#    x 3.442230 0.000000 0.000000 
#    y 0.000000 3.442230 0.000000 
#    z 0.000000 0.000000 3.467380 
# 
# 
# High freq. dielectric constant tensor:
#      x y z
#    x 1.729290 0.000000 0.000000 
#    y 0.000000 1.729290 0.000000 
#    z 0.000000 0.000000 1.719270 
# 
# From -- ./inp_files/7520.got.cif
#   From: 2010.03.12/outbox.cif.g09.slc.cpg/sg194_4_cif.got.tgz:7520.got - 2010.04.01 12:26:19.
