data_PCOD8330834
_publ_section_title
;
Structure prediction by ZEFSAII (Michael W. Deem and Ramdas Pophale) SiO2 
 PCOD8330834
Probable space group: P 63/M M C
;
_chemical_formula_sum "Si O2"
_cell_formula_units_Z 120
_cell_length_a 21.975424
_cell_length_b 21.975424
_cell_length_c 15.028756
_cell_angle_alpha 90.000000
_cell_angle_beta 90.000000
_cell_angle_gamma 120.000000
_cell_volume 6285.331551
_symmetry_space_group_name_H-M "P 63/M M C"
_symmetry_group_IT_number 194
_symmetry_cell_setting 'hexagonal'
loop_
_space_group_symop_operation_xyz
x,y,z
x-y,x,1/2+z
-y,x-y,z
-x,-y,1/2+z
-x+y,-x,z
y,-x+y,1/2+z
x-y,-y,-z
-x,-x+y,-z
y,x,-z
-y,-x,1/2-z
-x+y,y,1/2-z
x,x-y,1/2-z
-x,-y,-z
-x+y,-x,1/2-z
y,-x+y,-z
x,y,1/2-z
x-y,x,-z
-y,x-y,1/2-z
-x+y,y,z
x,x-y,z
-y,-x,z
y,x,1/2+z
x-y,-y,1/2+z
-x,-x+y,1/2+z
loop_
_atom_site_type_symbol
_atom_site_label
_atom_site_fract_x
_atom_site_fract_y
_atom_site_fract_z
Si Si1 0.727513 0.999994 0.105720
Si Si2 0.612882 0.530684 0.000003
Si Si3 0.136362 0.722936 0.649384
Si Si4 0.413441 0.136369 0.850618
Si Si5 0.864763 0.864763 0.394115
O O1 0.663865 0.930023 0.145631
O O2 0.733844 0.069966 0.145641
O O3 0.796149 0.999985 0.139289
O O4 0.720499 0.000000 0.000000
O O5 0.544709 0.455292 0.000017
O O6 0.657915 0.536012 0.086776
O O7 0.591952 0.591952 0.000000
O O8 0.657904 0.535999 0.913224
O O9 0.145963 0.703821 0.750000
O O10 0.205963 0.794038 0.617604
O O11 0.442153 0.145963 0.750000
O O12 0.411949 0.205975 0.882394
O O13 0.867330 0.867330 0.500000
O O14 0.931957 0.863913 0.354732
O O15 0.863944 0.931972 0.354731
#
# Coordination Sequence:
#
# PCOD8330834 Si02
#       5
#    24  24  24  24  24
#     4  11  19  32  53  82 117 156 200 246 295 345
#     4  11  23  40  62  89 119 153 192 243 300 353
#     4  11  22  37  60  89 124 162 196 238 290 345
#     4  11  22  37  60  89 124 162 196 238 290 345
#     4   9  17  27  42  67 102 149 202 252 296 338
#
# _framework density 19.092071000000001
#
# number of rings (size 3 to 8) (size 9 to 14) (size 15 to 20)
#    0.000    1.400    4.000    2.600    0.000    3.200 
#    0.000    2.000    0.000    3.200    0.000    0.000 
#    0.000    9.600    0.000    0.000    0.000    0.000 
#
# Total GULP energy -1488133.985926 kJ/mol
# GULP energy per Si atom -12401.116549 kJ/mol
# Density = 1.904862 g / cm^3
# Si number density = 19.092071 Si / 1000 Ang^3
#
#
#
# Elastic Constant Matrix: (Units=GPa)
#
#
# Indices 1 2 3 4 5 6 
#
# 1 102.5663 80.6359 41.8636 0.0000 0.0000 0.0000
# 2 80.6359 102.5663 41.8636 0.0000 0.0000 0.0000
# 3 41.8636 41.8636 101.2780 0.0000 0.0000 0.0000
# 4 0.0000 0.0000 0.0000 12.7455 0.0000 0.0000
# 5 0.0000 0.0000 0.0000 0.0000 12.7455 0.0000
# 6 0.0000 0.0000 0.0000 0.0000 0.0000 10.9652
#
#
#
# Elastic Compliance Matrix: (Units=1/GPa)
#
#
# Indices 1 2 3 4 5 6 
#
# 1 0.026164 -0.019435 -0.002782 0.000000 0.000000 0.000000
# 2 -0.019435 0.026164 -0.002782 0.000000 0.000000 0.000000
# 3 -0.002782 -0.002782 0.012174 0.000000 0.000000 0.000000
# 4 0.000000 0.000000 0.000000 0.078459 0.000000 0.000000
# 5 0.000000 0.000000 0.000000 0.000000 0.078459 0.000000
# 6 0.000000 0.000000 0.000000 0.000000 0.000000 0.091198
#
#
# Mechanical properties :
#
#
# Convention : Reuss Voigt Hill
#
# Bulk Modulus (GPa) = 68.93708 70.57074 69.75391
# Shear Modulus (GPa) = 13.60730 16.76106 15.18418
#
# Velocity S-wave (km/s) = 2.67258 2.96616 2.82319
# Velocity P-wave (km/s) = 6.76089 6.98387 6.87329
#
# Compressibility (1/GPa) = 0.01450598
#
# Stress axis : x y z
#
# Youngs Moduli (GPa) = 38.22000 38.22000 82.14549
#
# Poissons Ratio (x) = 0.74279 0.22851
# Poissons Ratio (y) = 0.74279 0.22851
# Poissons Ratio (z) = 0.10632 0.10632
#
# Static dielectric constant tensor:
#      x y z
#    x 3.446220 0.000000 0.000000 
#    y 0.000000 3.446220 0.000000 
#    z 0.000000 0.000000 3.584960 
# 
# 
# High freq. dielectric constant tensor:
#      x y z
#    x 1.735330 0.000000 0.000000 
#    y 0.000000 1.735330 0.000000 
#    z 0.000000 0.000000 1.746600 
# 
# From -- ./inp_files/5105.got.cif
#   From: 2010.03.12/outbox.cif.g09.slc.cpg/sg194_3_cif.got.tgz:5105.got - 2010.04.01 12:26:19.
