data_PCOD8330799
_publ_section_title
;
Structure prediction by ZEFSAII (Michael W. Deem and Ramdas Pophale) SiO2 
 PCOD8330799
Probable space group: P 63/M M C
;
_chemical_formula_sum "Si O2"
_cell_formula_units_Z 156
_cell_length_a 20.744011
_cell_length_b 20.744011
_cell_length_c 21.358456
_cell_angle_alpha 90.000000
_cell_angle_beta 90.000000
_cell_angle_gamma 120.000000
_cell_volume 7959.503063
_symmetry_space_group_name_H-M "P 63/M M C"
_symmetry_group_IT_number 194
_symmetry_cell_setting 'hexagonal'
loop_
_space_group_symop_operation_xyz
x,y,z
x-y,x,1/2+z
-y,x-y,z
-x,-y,1/2+z
-x+y,-x,z
y,-x+y,1/2+z
x-y,-y,-z
-x,-x+y,-z
y,x,-z
-y,-x,1/2-z
-x+y,y,1/2-z
x,x-y,1/2-z
-x,-y,-z
-x+y,-x,1/2-z
y,-x+y,-z
x,y,1/2-z
x-y,x,-z
-y,x-y,1/2-z
-x+y,y,z
x,x-y,z
-y,-x,z
y,x,1/2+z
x-y,-y,1/2+z
-x,-x+y,1/2+z
loop_
_atom_site_type_symbol
_atom_site_label
_atom_site_fract_x
_atom_site_fract_y
_atom_site_fract_z
Si Si1 0.579471 0.716543 0.031999
Si Si2 0.249187 0.199649 0.558065
Si Si3 0.185117 0.666998 0.914595
Si Si4 0.181188 0.666348 0.250000
Si Si5 0.201159 0.254833 0.821115
Si Si6 0.077567 0.666184 0.679218
Si Si7 0.074381 0.611446 0.360665
O O1 0.564395 0.782198 0.053567
O O2 0.665975 0.742732 0.039033
O O3 0.530447 0.643889 0.073370
O O4 0.551084 0.691566 0.961688
O O5 0.199596 0.199596 0.500000
O O6 0.234339 0.117170 0.565374
O O7 0.227068 0.218494 0.625236
O O8 0.178292 0.589146 0.934566
O O9 0.271978 0.728023 0.911358
O O10 0.146261 0.659894 0.848147
O O11 0.257752 0.742249 0.250000
O O12 0.198739 0.599370 0.250000
O O13 0.133205 0.664038 0.309250
O O14 0.210441 0.230387 0.750000
O O15 0.115492 0.230983 0.833083
O O16 0.249475 0.344162 0.825787
O O17 0.067823 0.637573 0.750000
O O18 0.000963 0.614993 0.643048
O O19 0.053815 0.526908 0.352941
#
# Coordination Sequence:
#
# PCOD8330799 Si02
#       7
#    24  24  24  12  24  24  24
#     4  10  22  39  59  87 118 153 197 246 298 351
#     4  11  22  38  62  91 125 159 198 249 302 363
#     4  11  24  41  61  84 116 159 208 257 306 363
#     4  10  21  36  56  82 117 162 204 244 290 352
#     4  10  21  39  64  92 123 159 202 250 304 368
#     4  11  22  39  61  88 119 154 198 251 309 362
#     4  11  21  35  56  84 120 157 194 242 298 352
#
# _framework density 19.599214
#
# number of rings (size 3 to 8) (size 9 to 14) (size 15 to 20)
#    0.000    1.385    2.308    3.462    0.000    3.385 
#    0.000    1.538    0.000    8.615    0.000    0.000 
#    0.000    0.000    0.000    0.000    0.000    0.000 
#
# Total GULP energy -1934620.460070 kJ/mol
# GULP energy per Si atom -12401.413206 kJ/mol
# Density = 1.955460 g / cm^3
# Si number density = 19.599214 Si / 1000 Ang^3
#
#
#
# Elastic Constant Matrix: (Units=GPa)
#
#
# Indices 1 2 3 4 5 6 
#
# 1 98.3327 40.6349 45.2092 0.0000 0.0000 0.0000
# 2 40.6349 98.3327 45.2092 0.0000 0.0000 0.0000
# 3 45.2092 45.2092 105.3329 0.0000 0.0000 0.0000
# 4 0.0000 0.0000 0.0000 32.8558 0.0000 0.0000
# 5 0.0000 0.0000 0.0000 0.0000 32.8558 0.0000
# 6 0.0000 0.0000 0.0000 0.0000 0.0000 28.8489
#
#
#
# Elastic Compliance Matrix: (Units=1/GPa)
#
#
# Indices 1 2 3 4 5 6 
#
# 1 0.013658 -0.003674 -0.004285 0.000000 0.000000 0.000000
# 2 -0.003674 0.013658 -0.004285 0.000000 0.000000 0.000000
# 3 -0.004285 -0.004285 0.013172 0.000000 0.000000 0.000000
# 4 0.000000 0.000000 0.000000 0.030436 0.000000 0.000000
# 5 0.000000 0.000000 0.000000 0.000000 0.030436 0.000000
# 6 0.000000 0.000000 0.000000 0.000000 0.000000 0.034663
#
#
# Mechanical properties :
#
#
# Convention : Reuss Voigt Hill
#
# Bulk Modulus (GPa) = 62.50195 62.67832 62.59014
# Shear Modulus (GPa) = 30.14864 30.30841 30.22853
#
# Velocity S-wave (km/s) = 3.92632 3.93671 3.93152
# Velocity P-wave (km/s) = 7.24665 7.26037 7.25351
#
# Compressibility (1/GPa) = 0.01599950
#
# Stress axis : x y z
#
# Youngs Moduli (GPa) = 73.21782 73.21782 75.91773
#
# Poissons Ratio (x) = 0.26899 0.32532
# Poissons Ratio (y) = 0.26899 0.32532
# Poissons Ratio (z) = 0.31375 0.31375
#
# Static dielectric constant tensor:
#      x y z
#    x 3.449910 0.000000 0.000000 
#    y 0.000000 3.449910 0.000000 
#    z 0.000000 0.000000 3.727780 
# 
# 
# High freq. dielectric constant tensor:
#      x y z
#    x 1.759000 0.000000 0.000000 
#    y 0.000000 1.759000 0.000000 
#    z 0.000000 0.000000 1.774880 
# 
# From -- ./inp_files/8374.got.cif
#   From: 2010.03.12/outbox.cif.g09.slc.cpg/sg194_5_cif.got.tgz:8374.got - 2010.04.01 12:26:19.
