data_PCOD8330096
_publ_section_title
;
Structure prediction by ZEFSAII (Michael W. Deem and Ramdas Pophale) SiO2 
 PCOD8330096
Probable space group: P 63/M C M
;
_chemical_formula_sum "Si O2"
_cell_formula_units_Z 96
_cell_length_a 14.303278
_cell_length_b 14.303278
_cell_length_c 25.429907
_cell_angle_alpha 90.000000
_cell_angle_beta 90.000000
_cell_angle_gamma 120.000000
_cell_volume 4505.537026
_symmetry_space_group_name_H-M "P 63/M C M"
_symmetry_group_IT_number 193
_symmetry_cell_setting 'hexagonal'
loop_
_space_group_symop_operation_xyz
x,y,z
x-y,x,1/2+z
-y,x-y,z
-x,-y,1/2+z
-x+y,-x,z
y,-x+y,1/2+z
x-y,-y,1/2-z
-x,-x+y,1/2-z
y,x,1/2-z
-y,-x,-z
-x+y,y,-z
x,x-y,-z
-x,-y,-z
-x+y,-x,1/2-z
y,-x+y,-z
x,y,1/2-z
x-y,x,-z
-y,x-y,1/2-z
-x+y,y,1/2+z
x,x-y,1/2+z
-y,-x,1/2+z
y,x,z
x-y,-y,z
-x,-x+y,z
loop_
_atom_site_type_symbol
_atom_site_label
_atom_site_fract_x
_atom_site_fract_y
_atom_site_fract_z
Si Si1 0.878288 0.485455 0.809384
Si Si2 0.275585 0.452322 0.359311
Si Si3 0.880432 0.119158 0.190834
Si Si4 0.873643 0.333210 0.521905
O O1 0.842805 0.492325 0.750000
O O2 0.871595 0.371343 0.817058
O O3 0.798980 0.493704 0.851470
O O4 0.000000 0.581840 0.819350
O O5 0.203226 0.325741 0.349242
O O6 0.328767 0.473673 0.416122
O O7 0.864233 0.151187 0.250000
O O8 0.000000 0.201333 0.170634
O O9 0.864167 0.000000 0.190652
O O10 0.786768 0.213233 0.500000
O O11 0.848806 0.424403 0.500000
O O12 0.000000 0.368650 0.509381
#
# Coordination Sequence:
#
# PCOD8330096 Si02
#       4
#    24  24  24  24
#     4  11  23  38  59  91 130 167 201 240 290 355
#     4  12  23  39  61  86 119 159 203 250 302 362
#     4  10  20  35  57  87 123 161 199 238 284 346
#     4  11  25  45  68  94 123 160 210 269 330 383
#
# _framework density 21.307116000000001
#
# number of rings (size 3 to 8) (size 9 to 14) (size 15 to 20)
#    0.000    1.000    0.000    7.750    0.000    9.000 
#    0.000    0.000    0.000    0.250    0.000    0.000 
#    0.000    0.000    0.000    0.000    0.000    0.000 
#
# Total GULP energy -1190193.494444 kJ/mol
# GULP energy per Si atom -12397.848900 kJ/mol
# Density = 2.125862 g / cm^3
# Si number density = 21.307116 Si / 1000 Ang^3
#
#
#
# Elastic Constant Matrix: (Units=GPa)
#
#
# Indices 1 2 3 4 5 6 
#
# 1 126.0889 57.2287 49.1782 0.0000 0.0000 0.0000
# 2 57.2287 126.0889 49.1782 0.0000 0.0000 0.0000
# 3 49.1782 49.1782 93.7952 0.0000 0.0000 0.0000
# 4 0.0000 0.0000 0.0000 14.7737 0.0000 0.0000
# 5 0.0000 0.0000 0.0000 0.0000 14.7737 0.0000
# 6 0.0000 0.0000 0.0000 0.0000 0.0000 34.4301
#
#
#
# Elastic Compliance Matrix: (Units=1/GPa)
#
#
# Indices 1 2 3 4 5 6 
#
# 1 0.011056 -0.003466 -0.003980 0.000000 0.000000 0.000000
# 2 -0.003466 0.011056 -0.003980 0.000000 0.000000 0.000000
# 3 -0.003980 -0.003980 0.014835 0.000000 0.000000 0.000000
# 4 0.000000 0.000000 0.000000 0.067688 0.000000 0.000000
# 5 0.000000 0.000000 0.000000 0.000000 0.067688 0.000000
# 6 0.000000 0.000000 0.000000 0.000000 0.000000 0.029044
#
#
# Mechanical properties :
#
#
# Convention : Reuss Voigt Hill
#
# Bulk Modulus (GPa) = 70.93948 73.01590 71.97769
# Shear Modulus (GPa) = 21.84206 25.48807 23.66506
#
# Velocity S-wave (km/s) = 3.20520 3.46240 3.33628
# Velocity P-wave (km/s) = 6.86031 7.09415 6.97821
#
# Compressibility (1/GPa) = 0.01409652
#
# Stress axis : x y z
#
# Youngs Moduli (GPa) = 90.44695 90.44695 67.40938
#
# Poissons Ratio (x) = 0.31348 0.26827
# Poissons Ratio (y) = 0.31348 0.26827
# Poissons Ratio (z) = 0.35995 0.35995
#
# Static dielectric constant tensor:
#      x y z
#    x 3.983000 0.000000 0.000000 
#    y 0.000000 3.983000 0.000000 
#    z 0.000000 0.000000 3.761960 
# 
# 
# High freq. dielectric constant tensor:
#      x y z
#    x 1.847640 0.000000 0.000000 
#    y 0.000000 1.847640 0.000000 
#    z 0.000000 0.000000 1.815450 
# 
# From -- ./inp_files/8089.got.cif
#   From: 2010.03.12/outbox.cif.g09.slc.cpg/sg193_5_cif.got.tgz:8089.got - 2010.04.01 12:20:39.
