data_PCOD8330275
_publ_section_title
;
Structure prediction by ZEFSAII (Michael W. Deem and Ramdas Pophale) SiO2 
 PCOD8330275
Probable space group: P 63/M C M
;
_chemical_formula_sum "Si O2"
_cell_formula_units_Z 120
_cell_length_a 32.410600
_cell_length_b 32.410600
_cell_length_c 10.237562
_cell_angle_alpha 90.000000
_cell_angle_beta 90.000000
_cell_angle_gamma 120.000000
_cell_volume 9313.251232
_symmetry_space_group_name_H-M "P 63/M C M"
_symmetry_group_IT_number 193
_symmetry_cell_setting 'hexagonal'
loop_
_space_group_symop_operation_xyz
x,y,z
x-y,x,1/2+z
-y,x-y,z
-x,-y,1/2+z
-x+y,-x,z
y,-x+y,1/2+z
x-y,-y,1/2-z
-x,-x+y,1/2-z
y,x,1/2-z
-y,-x,-z
-x+y,y,-z
x,x-y,-z
-x,-y,-z
-x+y,-x,1/2-z
y,-x+y,-z
x,y,1/2-z
x-y,x,-z
-y,x-y,1/2-z
-x+y,y,1/2+z
x,x-y,1/2+z
-y,-x,1/2+z
y,x,z
x-y,-y,z
-x,-x+y,z
loop_
_atom_site_type_symbol
_atom_site_label
_atom_site_fract_x
_atom_site_fract_y
_atom_site_fract_z
Si Si1 0.344835 0.053844 0.096848
Si Si2 0.181386 0.291789 0.599695
Si Si3 0.944495 0.818680 0.601088
Si Si4 0.622799 0.056779 0.509802
Si Si5 0.580185 0.056835 0.250000
Si Si6 0.943148 0.430259 0.250000
O O1 0.354162 0.054577 0.250000
O O2 0.322288 0.086083 0.058811
O O3 0.395913 0.074729 0.025768
O O4 0.308477 0.000000 0.050631
O O5 0.153859 0.307718 0.500000
O O6 0.173138 0.301762 0.750000
O O7 0.164757 0.236466 0.580726
O O8 0.917539 0.835078 0.500000
O O9 0.933841 0.827597 0.750000
O O10 0.000000 0.849158 0.568986
O O11 0.614448 0.076504 0.374973
O O12 0.603441 0.076788 0.623685
O O13 0.594354 0.000000 0.515713
O O14 0.543693 0.076891 0.250000
O O15 0.550885 0.000000 0.250000
O O16 0.000000 0.459519 0.250000
#
# Coordination Sequence:
#
# PCOD8330275 Si02
#       6
#    24  24  24  24  12  12
#     4   9  15  25  41  55  69  93 123 151 180 222
#     4   9  17  29  43  58  75  95 121 151 185 224
#     4   9  17  29  45  64  83 101 121 145 176 217
#     4   9  15  23  33  48  67  89 119 149 181 218
#     4   9  16  22  30  46  69  92 114 148 188 212
#     4   9  14  22  34  46  63  90 122 150 176 212
#
# _framework density 12.884866000000001
#
# number of rings (size 3 to 8) (size 9 to 14) (size 15 to 20)
#    0.000    3.000    1.000    1.200    0.000    5.200 
#    1.800    0.000    0.000    1.400    0.000    0.000 
#    0.000    0.000    0.000    0.000    0.000    0.000 
#
# Total GULP energy -1487628.995625 kJ/mol
# GULP energy per Si atom -12396.908297 kJ/mol
# Density = 1.285554 g / cm^3
# Si number density = 12.884866 Si / 1000 Ang^3
#
#
#
# Elastic Constant Matrix: (Units=GPa)
#
#
# Indices 1 2 3 4 5 6 
#
# 1 78.0309 40.6643 49.2657 0.0000 0.0000 0.0000
# 2 40.6643 78.0309 49.2657 0.0000 0.0000 0.0000
# 3 49.2657 49.2657 97.6096 0.0000 0.0000 0.0000
# 4 0.0000 0.0000 0.0000 16.4624 0.0000 0.0000
# 5 0.0000 0.0000 0.0000 0.0000 16.4624 0.0000
# 6 0.0000 0.0000 0.0000 0.0000 0.0000 18.6833
#
#
#
# Elastic Compliance Matrix: (Units=1/GPa)
#
#
# Indices 1 2 3 4 5 6 
#
# 1 0.020631 -0.006131 -0.007319 0.000000 0.000000 0.000000
# 2 -0.006131 0.020631 -0.007319 0.000000 0.000000 0.000000
# 3 -0.007319 -0.007319 0.017633 0.000000 0.000000 0.000000
# 4 0.000000 0.000000 0.000000 0.060744 0.000000 0.000000
# 5 0.000000 0.000000 0.000000 0.000000 0.060744 0.000000
# 6 0.000000 0.000000 0.000000 0.000000 0.000000 0.053524
#
#
# Mechanical properties :
#
#
# Convention : Reuss Voigt Hill
#
# Bulk Modulus (GPa) = 57.60787 59.11808 58.36297
# Shear Modulus (GPa) = 17.77906 17.95333 17.86619
#
# Velocity S-wave (km/s) = 3.71865 3.73683 3.72775
# Velocity P-wave (km/s) = 7.95265 8.03741 7.99514
#
# Compressibility (1/GPa) = 0.01735874
#
# Stress axis : x y z
#
# Youngs Moduli (GPa) = 48.47054 48.47054 56.71315
#
# Poissons Ratio (x) = 0.29716 0.41506
# Poissons Ratio (y) = 0.29716 0.41506
# Poissons Ratio (z) = 0.35474 0.35474
#
# Static dielectric constant tensor:
#      x y z
#    x 2.428380 0.000000 0.000000 
#    y 0.000000 2.428380 0.000000 
#    z 0.000000 0.000000 2.727410 
# 
# 
# High freq. dielectric constant tensor:
#      x y z
#    x 1.459310 0.000000 0.000000 
#    y 0.000000 1.459310 0.000000 
#    z 0.000000 0.000000 1.497720 
# 
# From -- ./inp_files/2507.got.cif
#   From: 2010.03.12/outbox.cif.g09.slc.cpg/sg193_2_cif.got.tgz:2507.got - 2010.04.01 12:20:39.
