data_PCOD8330361
_publ_section_title
;
Structure prediction by ZEFSAII (Michael W. Deem and Ramdas Pophale) SiO2 
 PCOD8330361
Probable space group: P 63/M M C
;
_chemical_formula_sum "Si O2"
_cell_formula_units_Z 168
_cell_length_a 21.302858
_cell_length_b 21.302858
_cell_length_c 27.364062
_cell_angle_alpha 90.000000
_cell_angle_beta 90.000000
_cell_angle_gamma 120.000000
_cell_volume 10754.418740
_symmetry_space_group_name_H-M "P 63/M M C"
_symmetry_group_IT_number 194
_symmetry_cell_setting 'hexagonal'
loop_
_space_group_symop_operation_xyz
x,y,z
x-y,x,1/2+z
-y,x-y,z
-x,-y,1/2+z
-x+y,-x,z
y,-x+y,1/2+z
x-y,-y,-z
-x,-x+y,-z
y,x,-z
-y,-x,1/2-z
-x+y,y,1/2-z
x,x-y,1/2-z
-x,-y,-z
-x+y,-x,1/2-z
y,-x+y,-z
x,y,1/2-z
x-y,x,-z
-y,x-y,1/2-z
-x+y,y,z
x,x-y,z
-y,-x,z
y,x,1/2+z
x-y,-y,1/2+z
-x,-x+y,1/2+z
loop_
_atom_site_type_symbol
_atom_site_label
_atom_site_fract_x
_atom_site_fract_y
_atom_site_fract_z
Si Si1 0.067677 0.374452 0.389956
Si Si2 0.053280 0.803641 0.455833
Si Si3 0.786177 0.717868 0.806172
Si Si4 0.556573 0.589367 0.947898
Si Si5 0.666439 0.474793 0.474830
Si Si6 0.333514 0.808250 0.088789
Si Si7 0.001303 0.856498 0.366714
O O1 0.079694 0.326824 0.430542
O O2 0.050859 0.335349 0.337517
O O3 0.140030 0.451474 0.383033
O O4 0.001617 0.386552 0.404946
O O5 0.124342 0.875659 0.475122
O O6 0.000000 0.760638 0.500000
O O7 0.009604 0.824506 0.417768
O O8 0.762877 0.708880 0.750000
O O9 0.848842 0.697684 0.816007
O O10 0.816010 0.800743 0.822005
O O11 0.492299 0.507702 0.938023
O O12 0.527474 0.646017 0.945810
O O13 0.593167 0.593167 0.000000
O O14 0.745721 0.491442 0.458286
O O15 0.609016 0.390985 0.463329
O O16 0.663061 0.489839 0.531778
O O17 0.410986 0.821972 0.107481
O O18 0.275055 0.724946 0.099029
O O19 0.920796 0.841592 0.361695
O O20 0.057736 0.942265 0.364474
#
# Coordination Sequence:
#
# PCOD8330361 Si02
#       7
#    24  24  24  24  24  24  24
#     4  11  19  31  47  68  88 120 157 188 226 275
#     4  10  20  31  43  62  91 124 156 186 217 262
#     4   9  19  35  51  66  87 115 151 196 241 286
#     4  10  18  30  44  65  96 127 154 184 225 270
#     4   9  17  28  43  63  91 125 159 190 221 259
#     4  10  18  28  44  66  91 118 151 190 228 264
#     4   9  17  30  48  69  90 114 147 188 234 279
#
# _framework density 15.621486000000001
#
# number of rings (size 3 to 8) (size 9 to 14) (size 15 to 20)
#    0.000    2.286    1.429    3.857    0.000    1.429 
#    0.000    2.857    0.000    4.857    0.000    0.000 
#    0.000    1.143    0.000    0.429    0.000    3.857 
#
# Total GULP energy -2083334.212574 kJ/mol
# GULP energy per Si atom -12400.798884 kJ/mol
# Density = 1.558593 g / cm^3
# Si number density = 15.621486 Si / 1000 Ang^3
#
#
#
# Elastic Constant Matrix: (Units=GPa)
#
#
# Indices 1 2 3 4 5 6 
#
# 1 95.5012 44.7767 37.2246 0.0000 0.0000 0.0000
# 2 44.7767 95.5012 37.2246 0.0000 0.0000 0.0000
# 3 37.2246 37.2246 71.9422 0.0000 0.0000 0.0000
# 4 0.0000 0.0000 0.0000 16.1713 0.0000 0.0000
# 5 0.0000 0.0000 0.0000 0.0000 16.1713 0.0000
# 6 0.0000 0.0000 0.0000 0.0000 0.0000 25.3623
#
#
#
# Elastic Compliance Matrix: (Units=1/GPa)
#
#
# Indices 1 2 3 4 5 6 
#
# 1 0.014771 -0.004943 -0.005085 0.000000 0.000000 0.000000
# 2 -0.004943 0.014771 -0.005085 0.000000 0.000000 0.000000
# 3 -0.005085 -0.005085 0.019162 0.000000 0.000000 0.000000
# 4 0.000000 0.000000 0.000000 0.061838 0.000000 0.000000
# 5 0.000000 0.000000 0.000000 0.000000 0.061838 0.000000
# 6 0.000000 0.000000 0.000000 0.000000 0.000000 0.039429
#
#
# Mechanical properties :
#
#
# Convention : Reuss Voigt Hill
#
# Bulk Modulus (GPa) = 54.12056 55.71070 54.91563
# Shear Modulus (GPa) = 20.14553 21.12224 20.63388
#
# Velocity S-wave (km/s) = 3.59500 3.68112 3.63831
# Velocity P-wave (km/s) = 7.20779 7.33538 7.27186
#
# Compressibility (1/GPa) = 0.01847727
#
# Stress axis : x y z
#
# Youngs Moduli (GPa) = 67.70085 67.70085 52.18621
#
# Poissons Ratio (x) = 0.33468 0.26536
# Poissons Ratio (y) = 0.33468 0.26536
# Poissons Ratio (z) = 0.34425 0.34425
#
# Static dielectric constant tensor:
#      x y z
#    x 3.006560 0.000000 0.000000 
#    y 0.000000 3.006560 0.000000 
#    z 0.000000 0.000000 2.654110 
# 
# 
# High freq. dielectric constant tensor:
#      x y z
#    x 1.605630 0.000000 0.000000 
#    y 0.000000 1.605630 0.000000 
#    z 0.000000 0.000000 1.550910 
# 
# From -- ./inp_files/11063.got.cif
#   From: 2010.03.12/outbox.cif.g09.slc.cpg/sg194_6_cif.got.tgz:11063.got - 2010.04.01 12:26:19.
