data_PCOD8330985
_publ_section_title
;
Structure prediction by ZEFSAII (Michael W. Deem and Ramdas Pophale) SiO2 
 PCOD8330985
Probable space group: P 42 3 2
;
_chemical_formula_sum "Si O2"
_cell_formula_units_Z 116
_cell_length_a 17.328804
_cell_length_b 17.328804
_cell_length_c 17.328804
_cell_angle_alpha 90.000000
_cell_angle_beta 90.000000
_cell_angle_gamma 90.000000
_cell_volume 5203.622331
_symmetry_space_group_name_H-M "P 42 3 2"
_symmetry_group_IT_number 208
_symmetry_cell_setting 'cubic'
loop_
_space_group_symop_operation_xyz
x,y,z
1/2-y,1/2+x,1/2+z
-x,-y,z
1/2+y,1/2-x,1/2+z
1/2+x,1/2-z,1/2+y
x,-y,-z
1/2+x,1/2+z,1/2-y
1/2+z,1/2+y,1/2-x
-x,y,-z
1/2-z,1/2+y,1/2+x
z,x,y
y,z,x
-y,-z,x
z,-x,-y
-y,z,-x
-z,-x,y
-z,x,-y
y,-z,-x
1/2+y,1/2+x,1/2-z
1/2-y,1/2-x,1/2-z
1/2-x,1/2+z,1/2+y
1/2-x,1/2-z,1/2-y
1/2+z,1/2-y,1/2+x
1/2-z,1/2-y,1/2-x
loop_
_atom_site_type_symbol
_atom_site_label
_atom_site_fract_x
_atom_site_fract_y
_atom_site_fract_z
Si Si1 0.669815 0.158148 0.941803
Si Si2 0.111116 0.337099 0.831415
Si Si3 0.803919 0.196082 0.196082
Si Si4 0.165358 0.199133 0.431229
Si Si5 0.437059 0.565085 0.684525
Si Si6 0.911903 0.250000 0.411903
O O1 0.707437 0.243939 0.948435
O O2 0.593254 0.151758 0.889939
O O3 0.733048 0.098113 0.909527
O O4 0.644410 0.133195 0.027848
O O5 0.118716 0.381285 0.750000
O O6 0.118689 0.244276 0.821793
O O7 0.176564 0.360026 0.892102
O O8 0.750000 0.250000 0.250000
O O9 0.143743 0.250000 0.356258
O O10 0.108028 0.224810 0.500497
O O11 0.500000 0.500000 0.696990
O O12 0.471288 0.637623 0.635139
#
# Coordination Sequence:
#
# PCOD8330985 Si02
#       6
#    24  24   8  24  24  12
#     4  11  24  42  69 105 129 187 237 300 339 439
#     4  11  19  37  66  99 141 172 233 286 356 420
#     4   9  15  30  57  96 141 174 213 288 345 417
#     4  11  25  45  67  96 141 181 242 287 363 417
#     4  10  23  42  69  97 140 181 228 293 370 435
#     4  12  23  44  70 100 142 194 219 298 358 434
#
# _framework density 22.292165000000001
#
# number of rings (size 3 to 8) (size 9 to 14) (size 15 to 20)
#    0.414    0.828    5.172    1.966    0.000    5.793 
#    4.966    0.000    0.000    2.483    0.000    0.000 
#    0.000    0.000    0.000    0.000    0.000    0.000 
#
# Total GULP energy -1437717.605990 kJ/mol
# GULP energy per Si atom -12394.117293 kJ/mol
# Density = 2.224143 g / cm^3
# Si number density = 22.292165 Si / 1000 Ang^3
#
#
#
# Elastic Constant Matrix: (Units=GPa)
#
#
# Indices 1 2 3 4 5 6 
#
# 1 108.6921 46.7064 46.7059 0.0000 0.0000 0.0000
# 2 46.7064 108.6921 46.7059 0.0000 0.0000 0.0000
# 3 46.7059 46.7059 108.6917 0.0000 0.0000 0.0000
# 4 0.0000 0.0000 0.0000 28.9100 0.0000 0.0000
# 5 0.0000 0.0000 0.0000 0.0000 28.9100 0.0000
# 6 0.0000 0.0000 0.0000 0.0000 0.0000 28.9104
#
#
#
# Elastic Compliance Matrix: (Units=1/GPa)
#
#
# Indices 1 2 3 4 5 6 
#
# 1 0.012404 -0.003728 -0.003728 0.000000 0.000000 0.000000
# 2 -0.003728 0.012404 -0.003728 0.000000 0.000000 0.000000
# 3 -0.003728 -0.003728 0.012404 0.000000 0.000000 0.000000
# 4 0.000000 0.000000 0.000000 0.034590 0.000000 0.000000
# 5 0.000000 0.000000 0.000000 0.000000 0.034590 0.000000
# 6 0.000000 0.000000 0.000000 0.000000 0.000000 0.034590
#
#
# Mechanical properties :
#
#
# Convention : Reuss Voigt Hill
#
# Bulk Modulus (GPa) = 67.36806 67.36806 67.36806
# Shear Modulus (GPa) = 29.70876 29.74328 29.72602
#
# Velocity S-wave (km/s) = 3.65458 3.65670 3.65564
# Velocity P-wave (km/s) = 6.93499 6.93648 6.93573
#
# Compressibility (1/GPa) = 0.01484383
#
# Stress axis : x y z
#
# Youngs Moduli (GPa) = 80.61622 80.61622 80.61625
#
# Poissons Ratio (x) = 0.30056 0.30056
# Poissons Ratio (y) = 0.30056 0.30056
# Poissons Ratio (z) = 0.30056 0.30056
#
# Static dielectric constant tensor:
#      x y z
#    x 3.970150 0.000000 0.000000 
#    y 0.000000 3.970150 0.000000 
#    z 0.000000 0.000000 3.970150 
# 
# 
# High freq. dielectric constant tensor:
#      x y z
#    x 1.870400 0.000000 0.000000 
#    y 0.000000 1.870400 0.000000 
#    z 0.000000 0.000000 1.870400 
# 
# From -- ./inp_files/996.got.cif
#   From: 2010.03.12/outbox.cif.g09.slc.cpg/sg208_cif.got.tgz:996.got - 2010.03.30 09:03:42.
