data_PCOD8330452
_publ_section_title
;
Structure prediction by ZEFSAII (Michael W. Deem and Ramdas Pophale) SiO2 
 PCOD8330452
Probable space group: P 63/M M C
;
_chemical_formula_sum "Si O2"
_cell_formula_units_Z 120
_cell_length_a 17.570443
_cell_length_b 17.570443
_cell_length_c 28.506782
_cell_angle_alpha 90.000000
_cell_angle_beta 90.000000
_cell_angle_gamma 120.000000
_cell_volume 7621.566601
_symmetry_space_group_name_H-M "P 63/M M C"
_symmetry_group_IT_number 194
_symmetry_cell_setting 'hexagonal'
loop_
_space_group_symop_operation_xyz
x,y,z
x-y,x,1/2+z
-y,x-y,z
-x,-y,1/2+z
-x+y,-x,z
y,-x+y,1/2+z
x-y,-y,-z
-x,-x+y,-z
y,x,-z
-y,-x,1/2-z
-x+y,y,1/2-z
x,x-y,1/2-z
-x,-y,-z
-x+y,-x,1/2-z
y,-x+y,-z
x,y,1/2-z
x-y,x,-z
-y,x-y,1/2-z
-x+y,y,z
x,x-y,z
-y,-x,z
y,x,1/2+z
x-y,-y,1/2+z
-x,-x+y,1/2+z
loop_
_atom_site_type_symbol
_atom_site_label
_atom_site_fract_x
_atom_site_fract_y
_atom_site_fract_z
Si Si1 0.833839 0.833972 0.054357
Si Si2 0.333295 0.844556 0.976798
Si Si3 0.270741 0.904580 0.434426
Si Si4 0.569196 0.606164 0.613745
Si Si5 0.666388 0.510387 0.303113
O O1 0.846465 0.923233 0.078531
O O2 0.735175 0.755499 0.060495
O O3 0.904505 0.809010 0.075863
O O4 0.853042 0.853042 0.000000
O O5 0.421294 0.842588 0.990235
O O6 0.254619 0.745382 0.970157
O O7 0.345143 0.897438 0.929263
O O8 0.312161 0.894357 0.017471
O O9 0.188633 0.811368 0.418892
O O10 0.343813 0.942384 0.393789
O O11 0.492474 0.507527 0.619102
O O12 0.577992 0.659011 0.661613
O O13 0.663392 0.540243 0.250000
O O14 0.755636 0.511272 0.313694
O O15 0.588261 0.411740 0.312703
#
# Coordination Sequence:
#
# PCOD8330452 Si02
#       5
#    24  24  24  24  24
#     4   9  16  25  37  53  74 101 134 172 212 251
#     4  10  19  30  44  63  89 121 154 183 212 252
#     4  10  20  31  43  60  84 115 149 183 217 254
#     4  10  19  30  45  64  88 116 145 181 221 260
#     4   9  17  29  46  69  96 123 148 175 211 258
#
# _framework density 15.744794000000001
#
# number of rings (size 3 to 8) (size 9 to 14) (size 15 to 20)
#    0.000    2.400    0.000    3.600    0.000    6.400 
#    0.000    2.000    0.000    1.000    0.000    0.000 
#    0.000    0.000    0.000    0.000    0.000    0.000 
#
# Total GULP energy -1487441.930346 kJ/mol
# GULP energy per Si atom -12395.349420 kJ/mol
# Density = 1.570896 g / cm^3
# Si number density = 15.744794 Si / 1000 Ang^3
#
#
#
# Elastic Constant Matrix: (Units=GPa)
#
#
# Indices 1 2 3 4 5 6 
#
# 1 92.8106 48.1222 44.4668 0.0000 0.0000 0.0000
# 2 48.1222 92.8106 44.4668 0.0000 0.0000 0.0000
# 3 44.4668 44.4668 83.0987 0.0000 0.0000 0.0000
# 4 0.0000 0.0000 0.0000 19.5406 0.0000 0.0000
# 5 0.0000 0.0000 0.0000 0.0000 19.5406 0.0000
# 6 0.0000 0.0000 0.0000 0.0000 0.0000 22.3442
#
#
#
# Elastic Compliance Matrix: (Units=1/GPa)
#
#
# Indices 1 2 3 4 5 6 
#
# 1 0.016545 -0.005832 -0.005733 0.000000 0.000000 0.000000
# 2 -0.005832 0.016545 -0.005733 0.000000 0.000000 0.000000
# 3 -0.005733 -0.005733 0.018169 0.000000 0.000000 0.000000
# 4 0.000000 0.000000 0.000000 0.051176 0.000000 0.000000
# 5 0.000000 0.000000 0.000000 0.000000 0.051176 0.000000
# 6 0.000000 0.000000 0.000000 0.000000 0.000000 0.044754
#
#
# Mechanical properties :
#
#
# Convention : Reuss Voigt Hill
#
# Bulk Modulus (GPa) = 60.00741 60.31460 60.16100
# Shear Modulus (GPa) = 20.96310 21.06268 21.01289
#
# Velocity S-wave (km/s) = 3.65284 3.66150 3.65717
# Velocity P-wave (km/s) = 7.48239 7.50108 7.49174
#
# Compressibility (1/GPa) = 0.01666461
#
# Stress axis : x y z
#
# Youngs Moduli (GPa) = 60.44071 60.44071 55.03864
#
# Poissons Ratio (x) = 0.35249 0.31552
# Poissons Ratio (y) = 0.35249 0.31552
# Poissons Ratio (z) = 0.34649 0.34649
#
# Static dielectric constant tensor:
#      x y z
#    x 3.127730 0.000000 0.000000 
#    y 0.000000 3.127730 0.000000 
#    z 0.000000 0.000000 2.788640 
# 
# 
# High freq. dielectric constant tensor:
#      x y z
#    x 1.609280 0.000000 0.000000 
#    y 0.000000 1.609280 0.000000 
#    z 0.000000 0.000000 1.558240 
# 
# From -- ./inp_files/11889.got.cif
#   From: 2010.03.12/outbox.cif.g09.slc.cpg/sg194_6_cif.got.tgz:11889.got - 2010.04.01 12:26:19.
