data_PCOD8330552
_publ_section_title
;
Structure prediction by ZEFSAII (Michael W. Deem and Ramdas Pophale) SiO2 
 PCOD8330552
Probable space group: P 63/M M C
;
_chemical_formula_sum "Si O2"
_cell_formula_units_Z 108
_cell_length_a 17.048045
_cell_length_b 17.048045
_cell_length_c 25.169730
_cell_angle_alpha 90.000000
_cell_angle_beta 90.000000
_cell_angle_gamma 120.000000
_cell_volume 6335.171186
_symmetry_space_group_name_H-M "P 63/M M C"
_symmetry_group_IT_number 194
_symmetry_cell_setting 'hexagonal'
loop_
_space_group_symop_operation_xyz
x,y,z
x-y,x,1/2+z
-y,x-y,z
-x,-y,1/2+z
-x+y,-x,z
y,-x+y,1/2+z
x-y,-y,-z
-x,-x+y,-z
y,x,-z
-y,-x,1/2-z
-x+y,y,1/2-z
x,x-y,1/2-z
-x,-y,-z
-x+y,-x,1/2-z
y,-x+y,-z
x,y,1/2-z
x-y,x,-z
-y,x-y,1/2-z
-x+y,y,z
x,x-y,z
-y,-x,z
y,x,1/2+z
x-y,-y,1/2+z
-x,-x+y,1/2+z
loop_
_atom_site_type_symbol
_atom_site_label
_atom_site_fract_x
_atom_site_fract_y
_atom_site_fract_z
Si Si1 0.153418 0.665661 0.858415
Si Si2 0.058115 0.302584 0.690748
Si Si3 0.817525 0.817388 0.904942
Si Si4 0.299063 0.000000 0.500000
Si Si5 0.666411 0.155177 0.483228
O O1 0.147110 0.573555 0.838282
O O2 0.252679 0.747322 0.843876
O O3 0.074885 0.675028 0.828646
O O4 0.135630 0.663089 0.920891
O O5 0.016201 0.281469 0.750000
O O6 0.153681 0.307362 0.689222
O O7 0.990596 0.222840 0.651347
O O8 0.843045 0.921523 0.902915
O O9 0.742723 0.766451 0.949860
O O10 0.906514 0.813027 0.918771
O O11 0.311085 0.914175 0.486388
O O12 0.570674 0.141348 0.503493
O O13 0.742772 0.257229 0.496777
#
# Coordination Sequence:
#
# PCOD8330552 Si02
#       5
#    24  24  24  12  24
#     4   9  16  28  47  72 101 133 167 201 241 291
#     4   9  18  33  50  68  95 129 162 200 246 291
#     4  11  22  36  53  73  97 127 165 210 258 308
#     4  12  21  34  53  76 104 134 164 202 257 310
#     4  10  19  32  50  74 103 136 171 207 245 293
#
# _framework density 17.047685999999999
#
# number of rings (size 3 to 8) (size 9 to 14) (size 15 to 20)
#    0.000    2.000    2.222    3.000    0.000    2.667 
#    0.000    1.111    0.000    2.667    0.000    0.000 
#    0.000    0.000    0.000    0.000    0.000    3.333 
#
# Total GULP energy -1339319.059064 kJ/mol
# GULP energy per Si atom -12401.102399 kJ/mol
# Density = 1.700888 g / cm^3
# Si number density = 17.047686 Si / 1000 Ang^3
#
#
#
# Elastic Constant Matrix: (Units=GPa)
#
#
# Indices 1 2 3 4 5 6 
#
# 1 83.5728 31.1571 13.5137 0.0000 0.0000 0.0000
# 2 31.1571 83.5728 13.5137 0.0000 0.0000 0.0000
# 3 13.5137 13.5137 48.3372 0.0000 0.0000 0.0000
# 4 0.0000 0.0000 0.0000 19.6868 0.0000 0.0000
# 5 0.0000 0.0000 0.0000 0.0000 19.6868 0.0000
# 6 0.0000 0.0000 0.0000 0.0000 0.0000 26.2079
#
#
#
# Elastic Compliance Matrix: (Units=1/GPa)
#
#
# Indices 1 2 3 4 5 6 
#
# 1 0.014204 -0.004874 -0.002609 0.000000 0.000000 0.000000
# 2 -0.004874 0.014204 -0.002609 0.000000 0.000000 0.000000
# 3 -0.002609 -0.002609 0.022147 0.000000 0.000000 0.000000
# 4 0.000000 0.000000 0.000000 0.050795 0.000000 0.000000
# 5 0.000000 0.000000 0.000000 0.000000 0.050795 0.000000
# 6 0.000000 0.000000 0.000000 0.000000 0.000000 0.038156
#
#
# Mechanical properties :
#
#
# Convention : Reuss Voigt Hill
#
# Bulk Modulus (GPa) = 32.92339 36.87241 34.89790
# Shear Modulus (GPa) = 22.66453 23.60287 23.13370
#
# Velocity S-wave (km/s) = 3.65016 3.72495 3.68774
# Velocity P-wave (km/s) = 6.09256 6.33848 6.21674
#
# Compressibility (1/GPa) = 0.03037354
#
# Stress axis : x y z
#
# Youngs Moduli (GPa) = 70.40054 70.40054 45.15372
#
# Poissons Ratio (x) = 0.34312 0.11779
# Poissons Ratio (y) = 0.34312 0.11779
# Poissons Ratio (z) = 0.18365 0.18365
#
# Static dielectric constant tensor:
#      x y z
#    x 3.119470 0.000000 0.000000 
#    y 0.000000 3.119470 0.000000 
#    z 0.000000 0.000000 3.173350 
# 
# 
# High freq. dielectric constant tensor:
#      x y z
#    x 1.650750 0.000000 0.000000 
#    y 0.000000 1.650750 0.000000 
#    z 0.000000 0.000000 1.637210 
# 
# From -- ./inp_files/9241.got.cif
#   From: 2010.03.12/outbox.cif.g09.slc.cpg/sg194_5_cif.got.tgz:9241.got - 2010.04.01 12:26:19.
