data_PCOD8330671
_publ_section_title
;
Structure prediction by ZEFSAII (Michael W. Deem and Ramdas Pophale) SiO2 
 PCOD8330671
Probable space group: P 63/M M C
;
_chemical_formula_sum "Si O2"
_cell_formula_units_Z 144
_cell_length_a 32.184327
_cell_length_b 32.184327
_cell_length_c 8.988080
_cell_angle_alpha 90.000000
_cell_angle_beta 90.000000
_cell_angle_gamma 120.000000
_cell_volume 8062.809989
_symmetry_space_group_name_H-M "P 63/M M C"
_symmetry_group_IT_number 194
_symmetry_cell_setting 'hexagonal'
loop_
_space_group_symop_operation_xyz
x,y,z
x-y,x,1/2+z
-y,x-y,z
-x,-y,1/2+z
-x+y,-x,z
y,-x+y,1/2+z
x-y,-y,-z
-x,-x+y,-z
y,x,-z
-y,-x,1/2-z
-x+y,y,1/2-z
x,x-y,1/2-z
-x,-y,-z
-x+y,-x,1/2-z
y,-x+y,-z
x,y,1/2-z
x-y,x,-z
-y,x-y,1/2-z
-x+y,y,z
x,x-y,z
-y,-x,z
y,x,1/2+z
x-y,-y,1/2+z
-x,-x+y,1/2+z
loop_
_atom_site_type_symbol
_atom_site_label
_atom_site_fract_x
_atom_site_fract_y
_atom_site_fract_z
Si Si1 0.806257 0.708571 0.576780
Si Si2 0.380000 0.855216 0.924978
Si Si3 0.191776 0.143658 0.423949
Si Si4 0.893472 0.275316 0.076680
Si Si5 0.385083 0.434158 0.920471
Si Si6 0.811493 0.527697 0.921592
O O1 0.798943 0.714261 0.750000
O O2 0.847651 0.695302 0.549741
O O3 0.818836 0.757596 0.495669
O O4 0.757284 0.667376 0.508290
O O5 0.368154 0.849944 0.750000
O O6 0.422450 0.844900 0.964734
O O7 0.394302 0.908699 0.978364
O O8 0.332759 0.816854 0.012338
O O9 0.150332 0.150332 0.500000
O O10 0.194308 0.154424 0.250000
O O11 0.178877 0.089439 0.456341
O O12 0.885456 0.261620 0.250000
O O13 0.935470 0.329820 0.051475
O O14 0.843750 0.267155 0.010754
O O15 0.398897 0.438291 0.750000
O O16 0.420721 0.420721 0.000000
O O17 0.827598 0.536508 0.750000
O O18 0.756203 0.512405 0.939953
#
# Coordination Sequence:
#
# PCOD8330671 Si02
#       6
#    24  24  24  24  24  24
#     4  10  20  33  50  74 104 136 171 212 254 298
#     4   9  19  36  55  75 100 129 164 207 252 302
#     4  10  21  37  57  80 105 135 171 210 254 304
#     4  10  20  33  49  71 102 139 177 215 253 296
#     4   9  19  33  48  69  97 130 168 209 251 291
#     4  10  20  33  51  77 105 131 164 207 254 305
#
# _framework density 17.859777999999999
#
# number of rings (size 3 to 8) (size 9 to 14) (size 15 to 20)
#    0.000    2.333    0.000    3.500    0.000   10.000 
#    0.000    1.667    0.000    0.500    0.000    0.000 
#    0.000    0.000    0.000    0.000    0.000    0.000 
#
# Total GULP energy -1786000.550336 kJ/mol
# GULP energy per Si atom -12402.781600 kJ/mol
# Density = 1.781913 g / cm^3
# Si number density = 17.859778 Si / 1000 Ang^3
#
#
#
# Elastic Constant Matrix: (Units=GPa)
#
#
# Indices 1 2 3 4 5 6 
#
# 1 90.5573 51.7327 49.9140 0.0000 0.0000 0.0000
# 2 51.7327 90.5573 49.9140 0.0000 0.0000 0.0000
# 3 49.9140 49.9140 95.9431 0.0000 0.0000 0.0000
# 4 0.0000 0.0000 0.0000 30.1043 0.0000 0.0000
# 5 0.0000 0.0000 0.0000 0.0000 30.1043 0.0000
# 6 0.0000 0.0000 0.0000 0.0000 0.0000 19.4123
#
#
#
# Elastic Compliance Matrix: (Units=1/GPa)
#
#
# Indices 1 2 3 4 5 6 
#
# 1 0.018412 -0.007345 -0.005758 0.000000 0.000000 0.000000
# 2 -0.007345 0.018412 -0.005758 0.000000 0.000000 0.000000
# 3 -0.005758 -0.005758 0.016414 0.000000 0.000000 0.000000
# 4 0.000000 0.000000 0.000000 0.033218 0.000000 0.000000
# 5 0.000000 0.000000 0.000000 0.000000 0.033218 0.000000
# 6 0.000000 0.000000 0.000000 0.000000 0.000000 0.051514
#
#
# Mechanical properties :
#
#
# Convention : Reuss Voigt Hill
#
# Bulk Modulus (GPa) = 64.44332 64.46434 64.45383
# Shear Modulus (GPa) = 23.35570 24.29067 23.82318
#
# Velocity S-wave (km/s) = 3.62017 3.69192 3.65622
# Velocity P-wave (km/s) = 7.32362 7.37203 7.34787
#
# Compressibility (1/GPa) = 0.01551751
#
# Stress axis : x y z
#
# Youngs Moduli (GPa) = 54.31193 54.31193 60.92448
#
# Poissons Ratio (x) = 0.39891 0.35079
# Poissons Ratio (y) = 0.39891 0.35079
# Poissons Ratio (z) = 0.31272 0.31272
#
# Static dielectric constant tensor:
#      x y z
#    x 3.233230 0.000000 0.000000 
#    y 0.000000 3.233230 0.000000 
#    z 0.000000 0.000000 3.406110 
# 
# 
# High freq. dielectric constant tensor:
#      x y z
#    x 1.681410 0.000000 0.000000 
#    y 0.000000 1.681410 0.000000 
#    z 0.000000 0.000000 1.703020 
# 
# From -- ./inp_files/2110.got.cif
#   From: 2010.03.12/outbox.cif.g09.slc.cpg/sg194_2_cif.got.tgz:2110.got - 2010.04.01 12:26:19.
