data_PCOD8330320
_publ_section_title
;
Structure prediction by ZEFSAII (Michael W. Deem and Ramdas Pophale) SiO2 
 PCOD8330320
Probable space group: P 63/M M C
;
_chemical_formula_sum "Si O2"
_cell_formula_units_Z 168
_cell_length_a 23.077768
_cell_length_b 23.077768
_cell_length_c 22.927704
_cell_angle_alpha 90.000000
_cell_angle_beta 90.000000
_cell_angle_gamma 120.000000
_cell_volume 10574.961725
_symmetry_space_group_name_H-M "P 63/M M C"
_symmetry_group_IT_number 194
_symmetry_cell_setting 'hexagonal'
loop_
_space_group_symop_operation_xyz
x,y,z
x-y,x,1/2+z
-y,x-y,z
-x,-y,1/2+z
-x+y,-x,z
y,-x+y,1/2+z
x-y,-y,-z
-x,-x+y,-z
y,x,-z
-y,-x,1/2-z
-x+y,y,1/2-z
x,x-y,1/2-z
-x,-y,-z
-x+y,-x,1/2-z
y,-x+y,-z
x,y,1/2-z
x-y,x,-z
-y,x-y,1/2-z
-x+y,y,z
x,x-y,z
-y,-x,z
y,x,1/2+z
x-y,-y,1/2+z
-x,-x+y,1/2+z
loop_
_atom_site_type_symbol
_atom_site_label
_atom_site_fract_x
_atom_site_fract_y
_atom_site_fract_z
Si Si1 0.656413 0.981872 0.682245
Si Si2 0.896913 0.669258 0.628070
Si Si3 0.872772 0.609178 0.084475
Si Si4 0.399057 0.925524 0.314847
Si Si5 0.468785 0.666568 0.528481
Si Si6 0.799128 0.074044 0.503595
Si Si7 0.483864 0.306815 0.898708
O O1 0.647762 0.960529 0.750000
O O2 0.632164 0.916136 0.643435
O O3 0.733419 0.039344 0.670493
O O4 0.612241 0.015028 0.662615
O O5 0.837113 0.674226 0.661459
O O6 0.917621 0.714621 0.571925
O O7 0.868559 0.595617 0.601969
O O8 0.806260 0.612519 0.096580
O O9 0.852412 0.533158 0.067416
O O10 0.915586 0.659734 0.032090
O O11 0.368000 0.904754 0.250000
O O12 0.478405 0.956809 0.314796
O O13 0.366445 0.857219 0.352254
O O14 0.451872 0.725936 0.537353
O O15 0.404071 0.595929 0.546686
O O16 0.487065 0.662900 0.461658
O O17 0.872853 0.127148 0.479534
O O18 0.787274 0.000000 0.500000
O O19 0.506878 0.253439 0.880897
#
# Coordination Sequence:
#
# PCOD8330320 Si02
#       7
#    24  24  24  24  24  24  24
#     4  10  20  32  48  68  92 122 155 193 234 278
#     4   9  16  28  47  69  97 126 149 181 222 270
#     4  10  20  33  49  69  94 123 156 194 239 289
#     4   9  18  31  44  61  89 123 157 192 230 275
#     4  10  19  31  47  68  92 119 154 201 253 299
#     4  10  17  29  50  73  97 128 158 188 225 272
#     4   9  16  27  44  66  90 118 153 188 230 279
#
# _framework density 15.886582000000001
#
# number of rings (size 3 to 8) (size 9 to 14) (size 15 to 20)
#    0.000    2.429    2.857    0.571    0.000    1.429 
#    0.000    2.857    0.000    3.429    0.000    0.000 
#    0.000    1.143    0.000    0.000    0.000   13.000 
#
# Total GULP energy -2081600.739614 kJ/mol
# GULP energy per Si atom -12390.480593 kJ/mol
# Density = 1.585042 g / cm^3
# Si number density = 15.886582 Si / 1000 Ang^3
#
#
#
# Elastic Constant Matrix: (Units=GPa)
#
#
# Indices 1 2 3 4 5 6 
#
# 1 77.7430 45.9815 30.3449 0.0000 0.0000 0.0000
# 2 45.9815 77.7430 30.3449 0.0000 0.0000 0.0000
# 3 30.3449 30.3449 63.7435 0.0000 0.0000 0.0000
# 4 0.0000 0.0000 0.0000 20.3309 0.0000 0.0000
# 5 0.0000 0.0000 0.0000 0.0000 20.3309 0.0000
# 6 0.0000 0.0000 0.0000 0.0000 0.0000 15.8808
#
#
#
# Elastic Compliance Matrix: (Units=1/GPa)
#
#
# Indices 1 2 3 4 5 6 
#
# 1 0.021015 -0.010470 -0.005020 0.000000 0.000000 0.000000
# 2 -0.010470 0.021015 -0.005020 0.000000 0.000000 0.000000
# 3 -0.005020 -0.005020 0.020467 0.000000 0.000000 0.000000
# 4 0.000000 0.000000 0.000000 0.049186 0.000000 0.000000
# 5 0.000000 0.000000 0.000000 0.000000 0.049186 0.000000
# 6 0.000000 0.000000 0.000000 0.000000 0.000000 0.062969
#
#
# Mechanical properties :
#
#
# Convention : Reuss Voigt Hill
#
# Bulk Modulus (GPa) = 46.56025 48.06356 47.31191
# Shear Modulus (GPa) = 18.38121 18.81238 18.59680
#
# Velocity S-wave (km/s) = 3.40520 3.44491 3.42511
# Velocity P-wave (km/s) = 6.69567 6.79287 6.74445
#
# Compressibility (1/GPa) = 0.02147755
#
# Stress axis : x y z
#
# Youngs Moduli (GPa) = 47.58569 47.58569 48.85858
#
# Poissons Ratio (x) = 0.49822 0.24526
# Poissons Ratio (y) = 0.49822 0.24526
# Poissons Ratio (z) = 0.23887 0.23887
#
# Static dielectric constant tensor:
#      x y z
#    x 3.055550 0.000000 0.000000 
#    y 0.000000 3.055550 0.000000 
#    z 0.000000 0.000000 2.916400 
# 
# 
# High freq. dielectric constant tensor:
#      x y z
#    x 1.598740 0.000000 0.000000 
#    y 0.000000 1.598740 0.000000 
#    z 0.000000 0.000000 1.597490 
# 
# From -- ./inp_files/8567.got.cif
#   From: 2010.03.12/outbox.cif.g09.slc.cpg/sg194_5_cif.got.tgz:8567.got - 2010.04.01 12:26:19.
