data_PCOD8330043
_publ_section_title
;
Structure prediction by ZEFSAII (Michael W. Deem and Ramdas Pophale) SiO2 
 PCOD8330043
Probable space group: P 63/M C M
;
_chemical_formula_sum "Si O2"
_cell_formula_units_Z 144
_cell_length_a 22.392569
_cell_length_b 22.392569
_cell_length_c 20.619184
_cell_angle_alpha 90.000000
_cell_angle_beta 90.000000
_cell_angle_gamma 120.000000
_cell_volume 8953.852753
_symmetry_space_group_name_H-M "P 63/M C M"
_symmetry_group_IT_number 193
_symmetry_cell_setting 'hexagonal'
loop_
_space_group_symop_operation_xyz
x,y,z
x-y,x,1/2+z
-y,x-y,z
-x,-y,1/2+z
-x+y,-x,z
y,-x+y,1/2+z
x-y,-y,1/2-z
-x,-x+y,1/2-z
y,x,1/2-z
-y,-x,-z
-x+y,y,-z
x,x-y,-z
-x,-y,-z
-x+y,-x,1/2-z
y,-x+y,-z
x,y,1/2-z
x-y,x,-z
-y,x-y,1/2-z
-x+y,y,1/2+z
x,x-y,1/2+z
-y,-x,1/2+z
y,x,z
x-y,-y,z
-x,-x+y,z
loop_
_atom_site_type_symbol
_atom_site_label
_atom_site_fract_x
_atom_site_fract_y
_atom_site_fract_z
Si Si1 0.081227 0.835842 0.938948
Si Si2 0.420189 0.502331 0.560670
Si Si3 0.169792 0.250368 0.176479
Si Si4 0.377145 0.295569 0.124554
Si Si5 0.498177 0.917772 0.321961
Si Si6 0.293063 0.374579 0.520571
O O1 0.106433 0.877291 0.871891
O O2 0.102142 0.776246 0.939516
O O3 0.000000 0.804067 0.944174
O O4 0.114142 0.885859 0.000000
O O5 0.445178 0.554823 0.500000
O O6 0.462097 0.462097 0.560304
O O7 0.434775 0.544946 0.627520
O O8 0.338139 0.448681 0.555567
O O9 0.142283 0.240347 0.250000
O O10 0.201825 0.201825 0.161190
O O11 0.227498 0.330189 0.166451
O O12 0.342270 0.342270 0.120611
O O13 0.451635 0.339852 0.158050
O O14 0.385306 0.273054 0.052118
O O15 0.468438 0.890841 0.250000
O O16 0.540952 0.000000 0.323087
O O17 0.339192 0.339192 0.515280
#
# Coordination Sequence:
#
# PCOD8330043 Si02
#       6
#    24  24  24  24  24  24
#     4  11  21  34  52  71  92 118 153 197 249 312
#     4   9  14  22  36  55  83 119 151 173 195 232
#     4  10  20  34  52  72  92 116 151 198 252 310
#     4   9  14  24  42  65  90 113 144 186 226 265
#     4   9  15  21  33  57  88 120 151 178 201 230
#     4   9  16  26  42  64  87 114 149 184 218 268
#
# _framework density 16.082463000000001
#
# number of rings (size 3 to 8) (size 9 to 14) (size 15 to 20)
#    0.000    2.500    3.333    1.000    0.000    2.333 
#    0.000    0.833    0.000    6.000    0.000    0.000 
#    0.000    0.000    0.000    9.000    0.000   11.667 
#
# Total GULP energy -1784891.167697 kJ/mol
# GULP energy per Si atom -12395.077553 kJ/mol
# Density = 1.604586 g / cm^3
# Si number density = 16.082463 Si / 1000 Ang^3
#
#
#
# Elastic Constant Matrix: (Units=GPa)
#
#
# Indices 1 2 3 4 5 6 
#
# 1 65.5541 33.9316 46.4106 0.0000 0.0000 0.0000
# 2 33.9316 65.5541 46.4106 0.0000 0.0000 0.0000
# 3 46.4106 46.4106 134.2959 0.0000 0.0000 0.0000
# 4 0.0000 0.0000 0.0000 21.6718 0.0000 0.0000
# 5 0.0000 0.0000 0.0000 0.0000 21.6718 0.0000
# 6 0.0000 0.0000 0.0000 0.0000 0.0000 15.8113
#
#
#
# Elastic Compliance Matrix: (Units=1/GPa)
#
#
# Indices 1 2 3 4 5 6 
#
# 1 0.023229 -0.008394 -0.005127 0.000000 0.000000 0.000000
# 2 -0.008394 0.023229 -0.005127 0.000000 0.000000 0.000000
# 3 -0.005127 -0.005127 0.010990 0.000000 0.000000 0.000000
# 4 0.000000 0.000000 0.000000 0.046143 0.000000 0.000000
# 5 0.000000 0.000000 0.000000 0.000000 0.046143 0.000000
# 6 0.000000 0.000000 0.000000 0.000000 0.000000 0.063246
#
#
# Mechanical properties :
#
#
# Convention : Reuss Voigt Hill
#
# Bulk Modulus (GPa) = 49.62108 57.65662 53.63885
# Shear Modulus (GPa) = 19.45584 21.07440 20.26512
#
# Velocity S-wave (km/s) = 3.48193 3.62387 3.55361
# Velocity P-wave (km/s) = 6.86194 7.31015 7.08959
#
# Compressibility (1/GPa) = 0.02015272
#
# Stress axis : x y z
#
# Youngs Moduli (GPa) = 43.04956 43.04956 90.99419
#
# Poissons Ratio (x) = 0.36136 0.46651
# Poissons Ratio (y) = 0.36136 0.46651
# Poissons Ratio (z) = 0.22071 0.22071
#
# Static dielectric constant tensor:
#      x y z
#    x 2.832120 0.000000 0.000000 
#    y 0.000000 2.832120 0.000000 
#    z 0.000000 0.000000 3.228030 
# 
# 
# High freq. dielectric constant tensor:
#      x y z
#    x 1.580520 0.000000 0.000000 
#    y 0.000000 1.580520 0.000000 
#    z 0.000000 0.000000 1.626630 
# 
# From -- ./inp_files/5569.got.cif
#   From: 2010.03.12/outbox.cif.g09.slc.cpg/sg193_3_cif.got.tgz:5569.got - 2010.04.01 12:20:39.
