data_PCOD8330846
_publ_section_title
;
Structure prediction by ZEFSAII (Michael W. Deem and Ramdas Pophale) SiO2 
 PCOD8330846
Probable space group: P 63/M M C
;
_chemical_formula_sum "Si O2"
_cell_formula_units_Z 156
_cell_length_a 21.294634
_cell_length_b 21.294634
_cell_length_c 20.351701
_cell_angle_alpha 90.000000
_cell_angle_beta 90.000000
_cell_angle_gamma 120.000000
_cell_volume 7992.298677
_symmetry_space_group_name_H-M "P 63/M M C"
_symmetry_group_IT_number 194
_symmetry_cell_setting 'hexagonal'
loop_
_space_group_symop_operation_xyz
x,y,z
x-y,x,1/2+z
-y,x-y,z
-x,-y,1/2+z
-x+y,-x,z
y,-x+y,1/2+z
x-y,-y,-z
-x,-x+y,-z
y,x,-z
-y,-x,1/2-z
-x+y,y,1/2-z
x,x-y,1/2-z
-x,-y,-z
-x+y,-x,1/2-z
y,-x+y,-z
x,y,1/2-z
x-y,x,-z
-y,x-y,1/2-z
-x+y,y,z
x,x-y,z
-y,-x,z
y,x,1/2+z
x-y,-y,1/2+z
-x,-x+y,1/2+z
loop_
_atom_site_type_symbol
_atom_site_label
_atom_site_fract_x
_atom_site_fract_y
_atom_site_fract_z
Si Si1 0.951336 0.191236 0.943004
Si Si2 0.184429 0.665578 0.750000
Si Si3 0.195929 0.667099 0.173070
Si Si4 0.942200 0.397743 0.598986
Si Si5 0.057504 0.798299 0.823156
Si Si6 0.130334 0.401074 0.495648
Si Si7 0.589054 0.907440 0.860537
O O1 0.887514 0.112487 0.925050
O O2 0.993491 0.221783 0.875318
O O3 0.923573 0.242635 0.973280
O O4 0.000000 0.184179 0.000000
O O5 0.257704 0.742297 0.750000
O O6 0.203761 0.601881 0.750000
O O7 0.138714 0.656947 0.816092
O O8 0.204601 0.669117 0.250000
O O9 0.211202 0.605601 0.142949
O O10 0.254889 0.745112 0.143152
O O11 0.114104 0.646531 0.157258
O O12 0.955303 0.477652 0.587321
O O13 0.903089 0.351152 0.533957
O O14 0.016748 0.403483 0.618634
O O15 0.031093 0.805147 0.750000
O O16 0.124699 0.875302 0.845751
O O17 0.081789 0.738417 0.817812
O O18 0.212358 0.424716 0.472227
O O19 0.134305 0.411648 0.573661
#
# Coordination Sequence:
#
# PCOD8330846 Si02
#       7
#    24  12  24  24  24  24  24
#     4  11  21  37  63  95 130 166 207 258 308 368
#     4  12  27  46  68  92 121 164 218 272 324 380
#     4   9  18  33  54  79 112 156 202 243 286 347
#     4  11  23  37  57  86 124 160 193 240 302 370
#     4  11  22  39  64  92 124 164 213 262 312 375
#     4  11  22  39  62  89 122 157 201 252 308 370
#     4  12  23  40  62  91 120 158 202 254 316 375
#
# _framework density 19.518789999999999
#
# number of rings (size 3 to 8) (size 9 to 14) (size 15 to 20)
#    0.000    1.077    3.846    3.462    1.077    2.769 
#    0.000    0.000    0.000    3.077    0.000    0.000 
#    0.000    0.000    0.000    0.000    0.000    0.000 
#
# Total GULP energy -1934016.810341 kJ/mol
# GULP energy per Si atom -12397.543656 kJ/mol
# Density = 1.947436 g / cm^3
# Si number density = 19.518790 Si / 1000 Ang^3
#
#
#
# Elastic Constant Matrix: (Units=GPa)
#
#
# Indices 1 2 3 4 5 6 
#
# 1 58.9784 60.2220 37.2590 0.0000 0.0000 0.0000
# 2 60.2220 58.9784 37.2590 0.0000 0.0000 0.0000
# 3 37.2590 37.2590 107.3979 0.0000 0.0000 0.0000
# 4 0.0000 0.0000 0.0000 16.1573 0.0000 0.0000
# 5 0.0000 0.0000 0.0000 0.0000 16.1573 0.0000
# 6 0.0000 0.0000 0.0000 0.0000 0.0000 -0.6218
#
#
#
# Elastic Compliance Matrix: (Units=1/GPa)
#
#
# Indices 1 2 3 4 5 6 
#
# 1 -0.396704 0.407417 -0.003716 0.000000 0.000000 0.000000
# 2 0.407417 -0.396704 -0.003716 0.000000 0.000000 0.000000
# 3 -0.003716 -0.003716 0.011890 0.000000 0.000000 0.000000
# 4 0.000000 0.000000 0.000000 0.061892 0.000000 0.000000
# 5 0.000000 0.000000 0.000000 0.000000 0.061892 0.000000
# 6 0.000000 0.000000 0.000000 0.000000 0.000000 -1.608242
#
#
# Mechanical properties :
#
#
# Convention : Reuss Voigt Hill
#
# Bulk Modulus (GPa) = 54.20307 54.98165 54.59236
# Shear Modulus (GPa) = -1.63410 12.37952 5.37271
#
# Velocity S-wave (km/s) = -0.91597 2.52114 1.66089
# Velocity P-wave (km/s) = 5.16830 6.05843 5.63098
#
# Compressibility (1/GPa) = 0.01844914
#
# Stress axis : x y z
#
# Youngs Moduli (GPa) = -2.52077 -2.52077 84.10540
#
# Poissons Ratio (x) = 1.02700 0.31257
# Poissons Ratio (y) = 1.02700 0.31257
# Poissons Ratio (z) = -0.00937 -0.00937
#
# Static dielectric constant tensor:
#      x y z
#    x 3.658560 0.000000 0.000000 
#    y 0.000000 3.658560 0.000000 
#    z 0.000000 0.000000 3.610970 
# 
# 
# High freq. dielectric constant tensor:
#      x y z
#    x 1.759750 0.000000 0.000000 
#    y 0.000000 1.759750 0.000000 
#    z 0.000000 0.000000 1.765050 
# 
# From -- ./inp_files/8373.got.cif
#   From: 2010.03.12/outbox.cif.g09.slc.cpg/sg194_5_cif.got.tgz:8373.got - 2010.04.01 12:26:19.
