data_PCOD8330397
_publ_section_title
;
Structure prediction by ZEFSAII (Michael W. Deem and Ramdas Pophale) SiO2 
 PCOD8330397
Probable space group: P 63/M M C
;
_chemical_formula_sum "Si O2"
_cell_formula_units_Z 112
_cell_length_a 28.985045
_cell_length_b 28.985045
_cell_length_c 9.909210
_cell_angle_alpha 90.000000
_cell_angle_beta 90.000000
_cell_angle_gamma 120.000000
_cell_volume 7209.707106
_symmetry_space_group_name_H-M "P 63/M M C"
_symmetry_group_IT_number 194
_symmetry_cell_setting 'hexagonal'
loop_
_space_group_symop_operation_xyz
x,y,z
x-y,x,1/2+z
-y,x-y,z
-x,-y,1/2+z
-x+y,-x,z
y,-x+y,1/2+z
x-y,-y,-z
-x,-x+y,-z
y,x,-z
-y,-x,1/2-z
-x+y,y,1/2-z
x,x-y,1/2-z
-x,-y,-z
-x+y,-x,1/2-z
y,-x+y,-z
x,y,1/2-z
x-y,x,-z
-y,x-y,1/2-z
-x+y,y,z
x,x-y,z
-y,-x,z
y,x,1/2+z
x-y,-y,1/2+z
-x,-x+y,1/2+z
loop_
_atom_site_type_symbol
_atom_site_label
_atom_site_fract_x
_atom_site_fract_y
_atom_site_fract_z
Si Si1 0.604623 0.748242 0.402087
Si Si2 0.774514 0.835554 0.750000
Si Si3 0.836010 0.060557 0.750000
Si Si4 0.060416 0.289075 0.000009
Si Si5 0.333334 0.666667 0.591972
Si Si6 0.393792 0.606209 0.586013
Si Si7 0.795888 0.312277 0.907716
O O1 0.614952 0.736542 0.250000
O O2 0.613858 0.806929 0.414131
O O3 0.646885 0.743985 0.499056
O O4 0.544488 0.705683 0.443450
O O5 0.798699 0.899349 0.750000
O O6 0.823980 0.824382 0.750000
O O7 0.735634 0.809245 0.873977
O O8 0.899925 0.100076 0.750000
O O9 0.810309 0.073235 0.624641
O O10 0.000000 0.276722 0.000000
O O11 0.333334 0.666667 0.750000
O O12 0.363227 0.636774 0.539884
O O13 0.398334 0.601667 0.750000
O O14 0.360514 0.549100 0.512888
O O15 0.800833 0.330014 0.750000
O O16 0.736353 0.263648 0.934518
#
# Coordination Sequence:
#
# PCOD8330397 Si02
#       7
#    24  12  12  24   4  12  24
#     4   9  16  29  49  67  89 121 155 189 227 277
#     4  10  20  30  42  69 102 121 147 199 239 267
#     4  10  18  30  50  67  86 127 167 187 221 279
#     4  10  19  30  47  70  94 122 156 190 229 279
#     4   9  18  27  43  59  85 132 154 179 217 264
#     4  11  19  31  45  63  94 126 157 187 226 276
#     4   9  18  30  45  67  88 115 158 197 226 264
#
# _framework density 15.534611999999999
#
# number of rings (size 3 to 8) (size 9 to 14) (size 15 to 20)
#    0.000    2.357    2.143    3.536    0.000    0.000 
#    1.929    0.000    0.000    0.214    0.000    0.750 
#    0.000    5.143    0.000    0.000    0.000    0.857 
#
# Total GULP energy -1388147.001678 kJ/mol
# GULP energy per Si atom -12394.169658 kJ/mol
# Density = 1.549925 g / cm^3
# Si number density = 15.534612 Si / 1000 Ang^3
#
#
#
# Elastic Constant Matrix: (Units=GPa)
#
#
# Indices 1 2 3 4 5 6 
#
# 1 102.5613 50.3580 42.2647 0.0000 0.0000 -0.0001
# 2 50.3580 102.5614 42.2646 0.0000 0.0000 0.0000
# 3 42.2647 42.2646 98.5236 0.0000 0.0000 0.0002
# 4 0.0000 0.0000 0.0000 29.3879 0.0000 0.0000
# 5 0.0000 0.0000 0.0000 0.0000 29.3879 0.0000
# 6 -0.0001 0.0000 0.0002 0.0000 0.0000 26.1017
#
#
#
# Elastic Compliance Matrix: (Units=1/GPa)
#
#
# Indices 1 2 3 4 5 6 
#
# 1 0.013864 -0.005292 -0.003677 0.000000 0.000000 0.000000
# 2 -0.005292 0.013864 -0.003677 0.000000 0.000000 0.000000
# 3 -0.003677 -0.003677 0.013305 0.000000 0.000000 0.000000
# 4 0.000000 0.000000 0.000000 0.034028 0.000000 0.000000
# 5 0.000000 0.000000 0.000000 0.000000 0.034028 0.000000
# 6 0.000000 0.000000 0.000000 0.000000 0.000000 0.038312
#
#
# Mechanical properties :
#
#
# Convention : Reuss Voigt Hill
#
# Bulk Modulus (GPa) = 63.53265 63.71343 63.62304
# Shear Modulus (GPa) = 28.09950 28.22608 28.16279
#
# Velocity S-wave (km/s) = 4.25765 4.26723 4.26244
# Velocity P-wave (km/s) = 8.07195 8.08591 8.07893
#
# Compressibility (1/GPa) = 0.01573994
#
# Stress axis : x y z
#
# Youngs Moduli (GPa) = 72.12943 72.12958 75.16098
#
# Poissons Ratio (x) = 0.38170 0.27639
# Poissons Ratio (y) = 0.38170 0.27638
# Poissons Ratio (z) = 0.26524 0.26524
#
# Static dielectric constant tensor:
#      x y z
#    x 2.998470 -0.000030 0.000000 
#    y -0.000030 2.998480 0.000000 
#    z 0.000000 0.000000 2.913600 
# 
# 
# High freq. dielectric constant tensor:
#      x y z
#    x 1.578140 0.000000 0.000000 
#    y 0.000000 1.578140 0.000000 
#    z 0.000000 0.000000 1.600050 
# 
# From -- ./inp_files/1975.got.cif
#   From: 2010.03.12/outbox.cif.g09.slc.cpg/sg194_1_cif.got.tgz:1975.got - 2010.04.01 12:26:19.
