data_PCOD8330303
_publ_section_title
;
Structure prediction by ZEFSAII (Michael W. Deem and Ramdas Pophale) SiO2 
 PCOD8330303
Probable space group: P 63/M M C
;
_chemical_formula_sum "Si O2"
_cell_formula_units_Z 108
_cell_length_a 18.174407
_cell_length_b 18.174407
_cell_length_c 24.705512
_cell_angle_alpha 90.000000
_cell_angle_beta 90.000000
_cell_angle_gamma 120.000000
_cell_volume 7067.161066
_symmetry_space_group_name_H-M "P 63/M M C"
_symmetry_group_IT_number 194
_symmetry_cell_setting 'hexagonal'
loop_
_space_group_symop_operation_xyz
x,y,z
x-y,x,1/2+z
-y,x-y,z
-x,-y,1/2+z
-x+y,-x,z
y,-x+y,1/2+z
x-y,-y,-z
-x,-x+y,-z
y,x,-z
-y,-x,1/2-z
-x+y,y,1/2-z
x,x-y,1/2-z
-x,-y,-z
-x+y,-x,1/2-z
y,-x+y,-z
x,y,1/2-z
x-y,x,-z
-y,x-y,1/2-z
-x+y,y,z
x,x-y,z
-y,-x,z
y,x,1/2+z
x-y,-y,1/2+z
-x,-x+y,1/2+z
loop_
_atom_site_type_symbol
_atom_site_label
_atom_site_fract_x
_atom_site_fract_y
_atom_site_fract_z
Si Si1 0.666305 0.169045 0.007747
Si Si2 0.830308 0.000522 0.187867
Si Si3 0.317286 0.071520 0.608547
Si Si4 0.334796 0.334796 0.000000
Si Si5 0.496208 0.829763 0.120108
O O1 0.587448 0.174896 0.033278
O O2 0.754957 0.245044 0.031923
O O3 0.654039 0.077341 0.021853
O O4 0.666664 0.180181 0.943887
O O5 0.805336 0.002332 0.250000
O O6 0.849930 0.924965 0.177676
O O7 0.753143 0.990088 0.150992
O O8 0.913144 0.086857 0.170761
O O9 0.318335 0.159168 0.600575
O O10 0.297469 0.027701 0.549910
O O11 0.409096 0.092252 0.632433
O O12 0.424353 0.848705 0.144346
O O13 0.483133 0.741567 0.145220
#
# Coordination Sequence:
#
# PCOD8330303 Si02
#       5
#    24  24  24  12  24
#     4   9  16  25  37  54  78 109 144 178 207 235
#     4   9  17  30  48  66  81 100 131 171 208 238
#     4   9  18  29  41  60  85 110 135 164 201 244
#     4  10  17  26  40  60  87 114 138 160 195 250
#     4   8  13  22  37  57  80 107 138 168 197 232
#
# _framework density 15.281948999999999
#
# number of rings (size 3 to 8) (size 9 to 14) (size 15 to 20)
#    0.000    3.111    0.000    3.000    0.000    5.333 
#    0.000    0.000    0.000    0.667    0.000    3.889 
#    0.000    1.778    0.000    0.000    0.000    1.556 
#
# Total GULP energy -1338595.929936 kJ/mol
# GULP energy per Si atom -12394.406759 kJ/mol
# Density = 1.524717 g / cm^3
# Si number density = 15.281949 Si / 1000 Ang^3
#
#
#
# Elastic Constant Matrix: (Units=GPa)
#
#
# Indices 1 2 3 4 5 6 
#
# 1 105.3153 55.1868 39.2533 0.0000 0.0000 0.0000
# 2 55.1868 105.3153 39.2533 0.0000 0.0000 0.0000
# 3 39.2533 39.2533 45.1318 0.0000 0.0000 0.0000
# 4 0.0000 0.0000 0.0000 14.7399 0.0000 0.0000
# 5 0.0000 0.0000 0.0000 0.0000 14.7399 0.0000
# 6 0.0000 0.0000 0.0000 0.0000 0.0000 25.0642
#
#
#
# Elastic Compliance Matrix: (Units=1/GPa)
#
#
# Indices 1 2 3 4 5 6 
#
# 1 0.015396 -0.004553 -0.009431 0.000000 0.000000 0.000000
# 2 -0.004553 0.015396 -0.009431 0.000000 0.000000 0.000000
# 3 -0.009431 -0.009431 0.038563 0.000000 0.000000 0.000000
# 4 0.000000 0.000000 0.000000 0.067843 0.000000 0.000000
# 5 0.000000 0.000000 0.000000 0.000000 0.067843 0.000000
# 6 0.000000 0.000000 0.000000 0.000000 0.000000 0.039897
#
#
# Mechanical properties :
#
#
# Convention : Reuss Voigt Hill
#
# Bulk Modulus (GPa) = 44.39459 58.12769 51.26114
# Shear Modulus (GPa) = 16.70694 19.04674 17.87684
#
# Velocity S-wave (km/s) = 3.31002 3.53421 3.42395
# Velocity P-wave (km/s) = 6.61224 7.40092 7.01766
#
# Compressibility (1/GPa) = 0.02252527
#
# Stress axis : x y z
#
# Youngs Moduli (GPa) = 64.95142 64.95142 25.93176
#
# Poissons Ratio (x) = 0.29570 0.24457
# Poissons Ratio (y) = 0.29570 0.24457
# Poissons Ratio (z) = 0.61256 0.61256
#
# Static dielectric constant tensor:
#      x y z
#    x 3.166190 0.000000 0.000000 
#    y 0.000000 3.166190 0.000000 
#    z 0.000000 0.000000 2.513640 
# 
# 
# High freq. dielectric constant tensor:
#      x y z
#    x 1.590150 0.000000 0.000000 
#    y 0.000000 1.590150 0.000000 
#    z 0.000000 0.000000 1.528200 
# 
# From -- ./inp_files/9277.got.cif
#   From: 2010.03.12/outbox.cif.g09.slc.cpg/sg194_5_cif.got.tgz:9277.got - 2010.04.01 12:26:19.
