data_PCOD8330293
_publ_section_title
;
Structure prediction by ZEFSAII (Michael W. Deem and Ramdas Pophale) SiO2 
 PCOD8330293
Probable space group: P 63/M M C
;
_chemical_formula_sum "Si O2"
_cell_formula_units_Z 192
_cell_length_a 24.721915
_cell_length_b 24.721915
_cell_length_c 24.580942
_cell_angle_alpha 90.000000
_cell_angle_beta 90.000000
_cell_angle_gamma 120.000000
_cell_volume 13010.481561
_symmetry_space_group_name_H-M "P 63/M M C"
_symmetry_group_IT_number 194
_symmetry_cell_setting 'hexagonal'
loop_
_space_group_symop_operation_xyz
x,y,z
x-y,x,1/2+z
-y,x-y,z
-x,-y,1/2+z
-x+y,-x,z
y,-x+y,1/2+z
x-y,-y,-z
-x,-x+y,-z
y,x,-z
-y,-x,1/2-z
-x+y,y,1/2-z
x,x-y,1/2-z
-x,-y,-z
-x+y,-x,1/2-z
y,-x+y,-z
x,y,1/2-z
x-y,x,-z
-y,x-y,1/2-z
-x+y,y,z
x,x-y,z
-y,-x,z
y,x,1/2+z
x-y,-y,1/2+z
-x,-x+y,1/2+z
loop_
_atom_site_type_symbol
_atom_site_label
_atom_site_fract_x
_atom_site_fract_y
_atom_site_fract_z
Si Si1 0.043737 0.337898 0.551470
Si Si2 0.934436 0.287235 0.620436
Si Si3 0.420628 0.147753 0.521404
Si Si4 0.779516 0.950162 0.546803
Si Si5 0.457717 0.291146 0.687586
Si Si6 0.541425 0.332940 0.912512
Si Si7 0.251398 0.063933 0.809446
Si Si8 0.998899 0.122088 0.143028
O O1 0.104681 0.403253 0.533093
O O2 0.063559 0.287515 0.570332
O O3 0.000000 0.310460 0.500000
O O4 0.001523 0.345086 0.599362
O O5 0.887320 0.257983 0.569542
O O6 0.901918 0.305518 0.668342
O O7 0.951660 0.236737 0.642670
O O8 0.419516 0.209758 0.505508
O O9 0.488534 0.164568 0.544050
O O10 0.769614 0.884807 0.523885
O O11 0.833685 0.977429 0.590648
O O12 0.800597 0.000000 0.500000
O O13 0.475659 0.313092 0.750000
O O14 0.434245 0.217123 0.681491
O O15 0.517888 0.330122 0.649417
O O16 0.560432 0.280216 0.921018
O O17 0.600185 0.399816 0.923866
O O18 0.271907 0.052340 0.750000
O O19 0.272492 0.136246 0.815553
O O20 0.176639 0.021173 0.812549
O O21 0.941425 0.058576 0.167204
O O22 0.054836 0.109671 0.126822
#
# Coordination Sequence:
#
# PCOD8330293 Si02
#       8
#    24  24  24  24  24  24  24  24
#     4   9  17  26  39  60  81 103 127 165 210 253
#     4  10  16  27  42  61  82 103 131 172 219 259
#     4   9  17  28  43  62  86 112 137 166 203 250
#     4  10  18  28  40  57  75  93 120 158 207 261
#     4   9  17  28  43  64  88 115 147 181 218 254
#     4   9  17  29  46  68  93 121 148 172 197 229
#     4  10  19  29  42  58  73  93 127 173 221 263
#     4  10  20  32  42  52  69  95 127 163 210 267
#
# _framework density 14.757332999999999
#
# number of rings (size 3 to 8) (size 9 to 14) (size 15 to 20)
#    0.000    2.500    1.250    3.250    0.000    1.500 
#    0.000    0.000    0.000   12.875    0.000    0.000 
#    0.000    0.000    0.000    0.000    0.000    0.000 
#
# Total GULP energy -2379069.434787 kJ/mol
# GULP energy per Si atom -12390.986640 kJ/mol
# Density = 1.472374 g / cm^3
# Si number density = 14.757333 Si / 1000 Ang^3
#
#
#
# Elastic Constant Matrix: (Units=GPa)
#
#
# Indices 1 2 3 4 5 6 
#
# 1 80.6321 44.4402 35.4694 0.0000 0.0000 0.0000
# 2 44.4402 80.6321 35.4694 0.0000 0.0000 0.0000
# 3 35.4694 35.4694 56.1122 0.0000 0.0000 0.0000
# 4 0.0000 0.0000 0.0000 14.8309 0.0000 0.0000
# 5 0.0000 0.0000 0.0000 0.0000 14.8309 0.0000
# 6 0.0000 0.0000 0.0000 0.0000 0.0000 18.0960
#
#
#
# Elastic Compliance Matrix: (Units=1/GPa)
#
#
# Indices 1 2 3 4 5 6 
#
# 1 0.020047 -0.007583 -0.007879 0.000000 0.000000 0.000000
# 2 -0.007583 0.020047 -0.007879 0.000000 0.000000 0.000000
# 3 -0.007879 -0.007879 0.027782 0.000000 0.000000 0.000000
# 4 0.000000 0.000000 0.000000 0.067427 0.000000 0.000000
# 5 0.000000 0.000000 0.000000 0.000000 0.067427 0.000000
# 6 0.000000 0.000000 0.000000 0.000000 0.000000 0.055261
#
#
# Mechanical properties :
#
#
# Convention : Reuss Voigt Hill
#
# Bulk Modulus (GPa) = 47.18058 49.79273 48.48666
# Shear Modulus (GPa) = 16.03915 16.35138 16.19526
#
# Velocity S-wave (km/s) = 3.30033 3.33230 3.31635
# Velocity P-wave (km/s) = 6.82373 6.97280 6.89867
#
# Compressibility (1/GPa) = 0.02119516
#
# Stress axis : x y z
#
# Youngs Moduli (GPa) = 49.88210 49.88210 35.99456
#
# Poissons Ratio (x) = 0.37827 0.28359
# Poissons Ratio (y) = 0.37827 0.28359
# Poissons Ratio (z) = 0.39301 0.39301
#
# Static dielectric constant tensor:
#      x y z
#    x 2.802320 0.000000 0.000000 
#    y 0.000000 2.802320 0.000000 
#    z 0.000000 0.000000 2.862250 
# 
# 
# High freq. dielectric constant tensor:
#      x y z
#    x 1.545710 0.000000 0.000000 
#    y 0.000000 1.545710 0.000000 
#    z 0.000000 0.000000 1.547120 
# 
# From -- ./inp_files/11177.got.cif
#   From: 2010.03.12/outbox.cif.g09.slc.cpg/sg194_6_cif.got.tgz:11177.got - 2010.04.01 12:26:19.
