data_PCOD8330630
_publ_section_title
;
Structure prediction by ZEFSAII (Michael W. Deem and Ramdas Pophale) SiO2 
 PCOD8330630
Probable space group: P 63/M M C
;
_chemical_formula_sum "Si O2"
_cell_formula_units_Z 78
_cell_length_a 26.723412
_cell_length_b 26.723412
_cell_length_c 7.398119
_cell_angle_alpha 90.000000
_cell_angle_beta 90.000000
_cell_angle_gamma 120.000000
_cell_volume 4575.470494
_symmetry_space_group_name_H-M "P 63/M M C"
_symmetry_group_IT_number 194
_symmetry_cell_setting 'hexagonal'
loop_
_space_group_symop_operation_xyz
x,y,z
x-y,x,1/2+z
-y,x-y,z
-x,-y,1/2+z
-x+y,-x,z
y,-x+y,1/2+z
x-y,-y,-z
-x,-x+y,-z
y,x,-z
-y,-x,1/2-z
-x+y,y,1/2-z
x,x-y,1/2-z
-x,-y,-z
-x+y,-x,1/2-z
y,-x+y,-z
x,y,1/2-z
x-y,x,-z
-y,x-y,1/2-z
-x+y,y,z
x,x-y,z
-y,-x,z
y,x,1/2+z
x-y,-y,1/2+z
-x,-x+y,1/2+z
loop_
_atom_site_type_symbol
_atom_site_label
_atom_site_fract_x
_atom_site_fract_y
_atom_site_fract_z
Si Si1 0.847284 0.368453 0.250000
Si Si2 0.332796 0.271593 0.541363
Si Si3 0.617389 0.554158 0.538429
Si Si4 0.233065 0.766936 0.750000
Si Si5 0.816589 0.633178 0.965237
O O1 0.818538 0.409269 0.250000
O O2 0.887065 0.385582 0.428637
O O3 0.796097 0.302220 0.250000
O O4 0.274691 0.274691 0.500000
O O5 0.344167 0.275186 0.750000
O O6 0.388527 0.326742 0.456739
O O7 0.329052 0.212657 0.470888
O O8 0.561811 0.561811 0.500000
O O9 0.621728 0.543158 0.750000
O O10 0.213879 0.786122 0.568080
O O11 0.810234 0.620468 0.750000
#
# Coordination Sequence:
#
# PCOD8330630 Si02
#       5
#    12  24  24   6  12
#     4  12  26  40  56  80 104 134 172 216 268 309
#     4   9  18  29  49  76 106 137 172 209 250 298
#     4  10  19  35  56  82 113 137 160 201 254 320
#     4  12  24  40  62  74  94 134 182 212 252 314
#     4  10  20  34  54  80 106 138 175 215 253 305
#
# _framework density 17.047426999999999
#
# number of rings (size 3 to 8) (size 9 to 14) (size 15 to 20)
#    0.000    1.846    4.615    0.000    4.308    1.231 
#    0.462    0.000    0.000    0.000    0.000    0.000 
#    0.000    0.000    0.000    0.462    0.000    5.538 
#
# Total GULP energy -966542.705167 kJ/mol
# GULP energy per Si atom -12391.573143 kJ/mol
# Density = 1.700863 g / cm^3
# Si number density = 17.047427 Si / 1000 Ang^3
#
#
#
# Elastic Constant Matrix: (Units=GPa)
#
#
# Indices 1 2 3 4 5 6 
#
# 1 115.6087 74.6492 26.2128 0.0000 0.0000 0.0000
# 2 74.6492 115.6087 26.2128 0.0000 0.0000 0.0000
# 3 26.2128 26.2128 81.3414 0.0000 0.0000 0.0000
# 4 0.0000 0.0000 0.0000 13.4337 0.0000 0.0000
# 5 0.0000 0.0000 0.0000 0.0000 13.4337 0.0000
# 6 0.0000 0.0000 0.0000 0.0000 0.0000 20.4797
#
#
#
# Elastic Compliance Matrix: (Units=1/GPa)
#
#
# Indices 1 2 3 4 5 6 
#
# 1 0.015091 -0.009323 -0.001859 0.000000 0.000000 0.000000
# 2 -0.009323 0.015091 -0.001859 0.000000 0.000000 0.000000
# 3 -0.001859 -0.001859 0.013492 0.000000 0.000000 0.000000
# 4 0.000000 0.000000 0.000000 0.074440 0.000000 0.000000
# 5 0.000000 0.000000 0.000000 0.000000 0.074440 0.000000
# 6 0.000000 0.000000 0.000000 0.000000 0.000000 0.048829
#
#
# Mechanical properties :
#
#
# Convention : Reuss Voigt Hill
#
# Bulk Modulus (GPa) = 56.84086 62.96760 59.90423
# Shear Modulus (GPa) = 18.29298 21.83502 20.06400
#
# Velocity S-wave (km/s) = 3.27932 3.58276 3.43440
# Velocity P-wave (km/s) = 6.91041 7.35743 7.13742
#
# Compressibility (1/GPa) = 0.01759298
#
# Stress axis : x y z
#
# Youngs Moduli (GPa) = 66.26335 66.26335 74.11849
#
# Poissons Ratio (x) = 0.61778 0.13777
# Poissons Ratio (y) = 0.61778 0.13777
# Poissons Ratio (z) = 0.12317 0.12317
#
# Static dielectric constant tensor:
#      x y z
#    x 3.798300 0.000000 0.000000 
#    y 0.000000 3.798300 0.000000 
#    z 0.000000 0.000000 3.212580 
# 
# 
# High freq. dielectric constant tensor:
#      x y z
#    x 1.630000 0.000000 0.000000 
#    y 0.000000 1.630000 0.000000 
#    z 0.000000 0.000000 1.672850 
# 
# From -- ./inp_files/1322.got.cif
#   From: 2010.03.12/outbox.cif.g09.slc.cpg/sg194_1_cif.got.tgz:1322.got - 2010.04.01 12:26:19.
