data_PCOD8330302
_publ_section_title
;
Structure prediction by ZEFSAII (Michael W. Deem and Ramdas Pophale) SiO2 
 PCOD8330302
Probable space group: P 63/M M C
;
_chemical_formula_sum "Si O2"
_cell_formula_units_Z 120
_cell_length_a 18.113605
_cell_length_b 18.113605
_cell_length_c 30.585485
_cell_angle_alpha 90.000000
_cell_angle_beta 90.000000
_cell_angle_gamma 120.000000
_cell_volume 8690.720625
_symmetry_space_group_name_H-M "P 63/M M C"
_symmetry_group_IT_number 194
_symmetry_cell_setting 'hexagonal'
loop_
_space_group_symop_operation_xyz
x,y,z
x-y,x,1/2+z
-y,x-y,z
-x,-y,1/2+z
-x+y,-x,z
y,-x+y,1/2+z
x-y,-y,-z
-x,-x+y,-z
y,x,-z
-y,-x,1/2-z
-x+y,y,1/2-z
x,x-y,1/2-z
-x,-y,-z
-x+y,-x,1/2-z
y,-x+y,-z
x,y,1/2-z
x-y,x,-z
-y,x-y,1/2-z
-x+y,y,z
x,x-y,z
-y,-x,z
y,x,1/2+z
x-y,-y,1/2+z
-x,-x+y,1/2+z
loop_
_atom_site_type_symbol
_atom_site_label
_atom_site_fract_x
_atom_site_fract_y
_atom_site_fract_z
Si Si1 0.333530 0.830445 0.902962
Si Si2 0.827901 0.002202 0.844891
Si Si3 0.333442 0.333442 0.500000
Si Si4 0.245200 0.315572 0.911975
Si Si5 0.497719 0.666339 0.006268
Si Si6 0.001279 0.166497 0.250000
O O1 0.424728 0.849455 0.883445
O O2 0.258192 0.741809 0.882760
O O3 0.316514 0.908539 0.892933
O O4 0.333325 0.820553 0.954653
O O5 0.916540 0.083461 0.859418
O O6 0.839992 0.919996 0.845445
O O7 0.755716 0.992794 0.878314
O O8 0.799502 0.016435 0.796020
O O9 0.268239 0.296094 0.540313
O O10 0.422210 0.345063 0.517887
O O11 0.157811 0.315621 0.917709
O O12 0.509768 0.754884 0.025855
O O13 0.413005 0.586996 0.026869
O O14 0.904674 0.095326 0.250000
O O15 0.062809 0.125618 0.250000
#
# Coordination Sequence:
#
# PCOD8330302 Si02
#       6
#    24  24  12  24  24  12
#     4   8  13  22  36  53  71  91 117 150 186 220
#     4   9  16  26  40  57  76  97 121 150 183 217
#     4  10  17  26  38  52  73 102 132 154 175 212
#     4   9  18  28  37  52  74  99 126 154 181 211
#     4   9  16  25  37  52  70  93 123 159 195 225
#     4   8  13  22  38  58  75  90 112 146 188 226
#
# _framework density 13.807829999999999
#
# number of rings (size 3 to 8) (size 9 to 14) (size 15 to 20)
#    0.000    3.200    0.000    2.800    0.000    5.600 
#    0.000    0.000    0.000    0.000    0.000    4.200 
#    0.000    0.000    0.000    2.800    0.000    0.800 
#
# Total GULP energy -1486637.773500 kJ/mol
# GULP energy per Si atom -12388.648113 kJ/mol
# Density = 1.377640 g / cm^3
# Si number density = 13.807830 Si / 1000 Ang^3
#
#
#
# Elastic Constant Matrix: (Units=GPa)
#
#
# Indices 1 2 3 4 5 6 
#
# 1 78.3231 37.0984 35.3617 0.0000 0.0000 0.0000
# 2 37.0984 78.3231 35.3617 0.0000 0.0000 0.0000
# 3 35.3617 35.3617 59.9670 0.0000 0.0000 0.0000
# 4 0.0000 0.0000 0.0000 9.1134 0.0000 0.0000
# 5 0.0000 0.0000 0.0000 0.0000 9.1134 0.0000
# 6 0.0000 0.0000 0.0000 0.0000 0.0000 20.6124
#
#
#
# Elastic Compliance Matrix: (Units=1/GPa)
#
#
# Indices 1 2 3 4 5 6 
#
# 1 0.018911 -0.005346 -0.007999 0.000000 0.000000 0.000000
# 2 -0.005346 0.018911 -0.007999 0.000000 0.000000 0.000000
# 3 -0.007999 -0.007999 0.026110 0.000000 0.000000 0.000000
# 4 0.000000 0.000000 0.000000 0.109728 0.000000 0.000000
# 5 0.000000 0.000000 0.000000 0.000000 0.109728 0.000000
# 6 0.000000 0.000000 0.000000 0.000000 0.000000 0.048515
#
#
# Mechanical properties :
#
#
# Convention : Reuss Voigt Hill
#
# Bulk Modulus (GPa) = 47.07317 48.02853 47.55085
# Shear Modulus (GPa) = 13.10019 15.02061 14.06040
#
# Velocity S-wave (km/s) = 3.08352 3.30181 3.19453
# Velocity P-wave (km/s) = 6.84420 7.02816 6.93679
#
# Compressibility (1/GPa) = 0.02124352
#
# Stress axis : x y z
#
# Youngs Moduli (GPa) = 52.87832 52.87832 38.29947
#
# Poissons Ratio (x) = 0.28268 0.30637
# Poissons Ratio (y) = 0.28268 0.30637
# Poissons Ratio (z) = 0.42299 0.42299
#
# Static dielectric constant tensor:
#      x y z
#    x 2.855290 0.000000 0.000000 
#    y 0.000000 2.855290 0.000000 
#    z 0.000000 0.000000 2.552710 
# 
# 
# High freq. dielectric constant tensor:
#      x y z
#    x 1.521150 0.000000 0.000000 
#    y 0.000000 1.521150 0.000000 
#    z 0.000000 0.000000 1.480140 
# 
# From -- ./inp_files/11928.got.cif
#   From: 2010.03.12/outbox.cif.g09.slc.cpg/sg194_6_cif.got.tgz:11928.got - 2010.04.01 12:26:19.
