data_PCOD8330821
_publ_section_title
;
Structure prediction by ZEFSAII (Michael W. Deem and Ramdas Pophale) SiO2 
 PCOD8330821
Probable space group: P 63/M M C
;
_chemical_formula_sum "Si O2"
_cell_formula_units_Z 60
_cell_length_a 15.051900
_cell_length_b 15.051900
_cell_length_c 15.205026
_cell_angle_alpha 90.000000
_cell_angle_beta 90.000000
_cell_angle_gamma 120.000000
_cell_volume 2983.324176
_symmetry_space_group_name_H-M "P 63/M M C"
_symmetry_group_IT_number 194
_symmetry_cell_setting 'hexagonal'
loop_
_space_group_symop_operation_xyz
x,y,z
x-y,x,1/2+z
-y,x-y,z
-x,-y,1/2+z
-x+y,-x,z
y,-x+y,1/2+z
x-y,-y,-z
-x,-x+y,-z
y,x,-z
-y,-x,1/2-z
-x+y,y,1/2-z
x,x-y,1/2-z
-x,-y,-z
-x+y,-x,1/2-z
y,-x+y,-z
x,y,1/2-z
x-y,x,-z
-y,x-y,1/2-z
-x+y,y,z
x,x-y,z
-y,-x,z
y,x,1/2+z
x-y,-y,1/2+z
-x,-x+y,1/2+z
loop_
_atom_site_type_symbol
_atom_site_label
_atom_site_fract_x
_atom_site_fract_y
_atom_site_fract_z
Si Si1 0.602810 0.205619 0.146650
Si Si2 0.793710 0.998368 0.250000
Si Si3 0.487841 0.512160 0.144749
Si Si4 0.346484 0.276910 0.583860
O O1 0.724984 0.275017 0.120791
O O2 0.594084 0.188168 0.250000
O O3 0.546336 0.092671 0.104728
O O4 0.890193 0.109808 0.250000
O O5 0.831067 0.915534 0.250000
O O6 0.727262 0.987235 0.334906
O O7 0.485898 0.514103 0.250000
O O8 0.543232 0.625919 0.105631
O O9 0.293335 0.293335 0.500000
O O10 0.363518 0.181759 0.567578
#
# Coordination Sequence:
#
# PCOD8330821 Si02
#       4
#    12  12  12  24
#     4   7  14  29  49  85 126 159 202 257 324 387
#     4  10  21  39  64  94 126 168 218 273 331 388
#     4  11  21  39  65  94 133 171 216 276 324 402
#     4  11  24  43  65  94 132 171 224 272 330 393
#
# _framework density 20.111794
#
# number of rings (size 3 to 8) (size 9 to 14) (size 15 to 20)
#    0.400    1.600    2.000    2.000    0.000    3.200 
#    1.200    0.000    0.000    6.400    0.000    0.000 
#    0.000    0.000    0.000    0.000    0.000    0.000 
#
# Total GULP energy -743765.981243 kJ/mol
# GULP energy per Si atom -12396.099687 kJ/mol
# Density = 2.006602 g / cm^3
# Si number density = 20.111794 Si / 1000 Ang^3
#
#
#
# Elastic Constant Matrix: (Units=GPa)
#
#
# Indices 1 2 3 4 5 6 
#
# 1 136.1833 104.9255 64.5703 0.0000 0.0000 0.0000
# 2 104.9255 136.1833 64.5703 0.0000 0.0000 0.0000
# 3 64.5703 64.5703 127.2681 0.0000 0.0000 0.0000
# 4 0.0000 0.0000 0.0000 24.4093 0.0000 0.0000
# 5 0.0000 0.0000 0.0000 0.0000 24.4093 0.0000
# 6 0.0000 0.0000 0.0000 0.0000 0.0000 15.6289
#
#
#
# Elastic Compliance Matrix: (Units=1/GPa)
#
#
# Indices 1 2 3 4 5 6 
#
# 1 0.018844 -0.013148 -0.002889 0.000000 0.000000 0.000000
# 2 -0.013148 0.018844 -0.002889 0.000000 0.000000 0.000000
# 3 -0.002889 -0.002889 0.010789 0.000000 0.000000 0.000000
# 4 0.000000 0.000000 0.000000 0.040968 0.000000 0.000000
# 5 0.000000 0.000000 0.000000 0.000000 0.040968 0.000000
# 6 0.000000 0.000000 0.000000 0.000000 0.000000 0.063984
#
#
# Mechanical properties :
#
#
# Convention : Reuss Voigt Hill
#
# Bulk Modulus (GPa) = 94.14583 96.41855 95.28219
# Shear Modulus (GPa) = 21.20514 23.92741 22.56628
#
# Velocity S-wave (km/s) = 3.25062 3.45297 3.35332
# Velocity P-wave (km/s) = 7.81035 7.99642 7.90393
#
# Compressibility (1/GPa) = 0.01062182
#
# Stress axis : x y z
#
# Youngs Moduli (GPa) = 53.06851 53.06851 92.68349
#
# Poissons Ratio (x) = 0.69777 0.26781
# Poissons Ratio (y) = 0.69777 0.26781
# Poissons Ratio (z) = 0.15334 0.15334
#
# Static dielectric constant tensor:
#      x y z
#    x 3.734290 0.000000 0.000000 
#    y 0.000000 3.734290 0.000000 
#    z 0.000000 0.000000 3.660860 
# 
# 
# High freq. dielectric constant tensor:
#      x y z
#    x 1.785180 0.000000 0.000000 
#    y 0.000000 1.785180 0.000000 
#    z 0.000000 0.000000 1.788900 
# 
# From -- ./inp_files/3937.got.cif
#   From: 2010.03.12/outbox.cif.g09.slc.cpg/sg194_2_cif.got.tgz:3937.got - 2010.04.01 12:26:19.
