data_PCOD8330759
_publ_section_title
;
Structure prediction by ZEFSAII (Michael W. Deem and Ramdas Pophale) SiO2 
 PCOD8330759
Probable space group: P 63/M M C
;
_chemical_formula_sum "Si O2"
_cell_formula_units_Z 108
_cell_length_a 17.116913
_cell_length_b 17.116913
_cell_length_c 21.463965
_cell_angle_alpha 90.000000
_cell_angle_beta 90.000000
_cell_angle_gamma 120.000000
_cell_volume 5446.173464
_symmetry_space_group_name_H-M "P 63/M M C"
_symmetry_group_IT_number 194
_symmetry_cell_setting 'hexagonal'
loop_
_space_group_symop_operation_xyz
x,y,z
x-y,x,1/2+z
-y,x-y,z
-x,-y,1/2+z
-x+y,-x,z
y,-x+y,1/2+z
x-y,-y,-z
-x,-x+y,-z
y,x,-z
-y,-x,1/2-z
-x+y,y,1/2-z
x,x-y,1/2-z
-x,-y,-z
-x+y,-x,1/2-z
y,-x+y,-z
x,y,1/2-z
x-y,x,-z
-y,x-y,1/2-z
-x+y,y,z
x,x-y,z
-y,-x,z
y,x,1/2+z
x-y,-y,1/2+z
-x,-x+y,1/2+z
loop_
_atom_site_type_symbol
_atom_site_label
_atom_site_fract_x
_atom_site_fract_y
_atom_site_fract_z
Si Si1 0.513404 0.667258 0.034684
Si Si2 0.362768 0.031690 0.637015
Si Si3 0.821933 0.821612 0.177868
Si Si4 0.482096 0.332580 0.750000
Si Si5 0.844838 0.332968 0.388907
O O1 0.507794 0.753897 0.056469
O O2 0.419719 0.580281 0.053175
O O3 0.593978 0.663652 0.069828
O O4 0.533136 0.670411 0.961806
O O5 0.425919 0.099568 0.689291
O O6 0.264916 0.022476 0.637101
O O7 0.352193 0.933841 0.648492
O O8 0.798740 0.794585 0.250000
O O9 0.904847 0.809693 0.155570
O O10 0.849637 0.924819 0.166800
O O11 0.575463 0.424538 0.750000
O O12 0.502044 0.251022 0.750000
O O13 0.821344 0.410672 0.373961
O O14 0.761202 0.238799 0.365848
#
# Coordination Sequence:
#
# PCOD8330759 Si02
#       5
#    24  24  24  12  24
#     4  10  20  35  57  83 114 150 190 235 282 337
#     4  12  22  36  56  84 116 147 187 234 283 332
#     4  10  20  36  57  81 108 141 182 228 277 329
#     4  12  25  40  57  80 114 154 190 226 273 336
#     4  10  21  38  59  84 112 147 190 237 288 338
#
# _framework density 19.830435999999999
#
# number of rings (size 3 to 8) (size 9 to 14) (size 15 to 20)
#    0.000    1.333    1.111    6.111    0.000    4.444 
#    0.000    2.222    0.000    0.000    0.000    1.556 
#    0.000   10.667    0.000    0.000    0.000    0.000 
#
# Total GULP energy -1339857.730336 kJ/mol
# GULP energy per Si atom -12406.090096 kJ/mol
# Density = 1.978530 g / cm^3
# Si number density = 19.830436 Si / 1000 Ang^3
#
#
#
# Elastic Constant Matrix: (Units=GPa)
#
#
# Indices 1 2 3 4 5 6 
#
# 1 128.3008 40.9621 6.3038 0.0000 0.0000 0.0000
# 2 40.9621 128.3008 6.3038 0.0000 0.0000 0.0000
# 3 6.3038 6.3038 11.8455 0.0000 0.0000 0.0000
# 4 0.0000 0.0000 0.0000 29.3339 0.0000 0.0000
# 5 0.0000 0.0000 0.0000 0.0000 29.3339 0.0000
# 6 0.0000 0.0000 0.0000 0.0000 0.0000 43.6694
#
#
#
# Elastic Compliance Matrix: (Units=1/GPa)
#
#
# Indices 1 2 3 4 5 6 
#
# 1 0.008801 -0.002649 -0.003274 0.000000 0.000000 0.000000
# 2 -0.002649 0.008801 -0.003274 0.000000 0.000000 0.000000
# 3 -0.003274 -0.003274 0.087905 0.000000 0.000000 0.000000
# 4 0.000000 0.000000 0.000000 0.034090 0.000000 0.000000
# 5 0.000000 0.000000 0.000000 0.000000 0.034090 0.000000
# 6 0.000000 0.000000 0.000000 0.000000 0.000000 0.022899
#
#
# Mechanical properties :
#
#
# Convention : Reuss Voigt Hill
#
# Bulk Modulus (GPa) = 11.47932 41.73184 26.60558
# Shear Modulus (GPa) = 20.49038 34.79260 27.64149
#
# Velocity S-wave (km/s) = 3.21795 4.19323 3.73754
# Velocity P-wave (km/s) = 4.42812 6.67340 5.66315
#
# Compressibility (1/GPa) = 0.08711319
#
# Stress axis : x y z
#
# Youngs Moduli (GPa) = 113.62673 113.62673 11.37594
#
# Poissons Ratio (x) = 0.30099 0.03724
# Poissons Ratio (y) = 0.30099 0.03724
# Poissons Ratio (z) = 0.37199 0.37199
#
# Static dielectric constant tensor:
#      x y z
#    x 3.743730 0.000000 0.000000 
#    y 0.000000 3.743730 0.000000 
#    z 0.000000 0.000000 3.428380 
# 
# 
# High freq. dielectric constant tensor:
#      x y z
#    x 1.789220 0.000000 0.000000 
#    y 0.000000 1.789220 0.000000 
#    z 0.000000 0.000000 1.746770 
# 
# From -- ./inp_files/7939.got.cif
#   From: 2010.03.12/outbox.cif.g09.slc.cpg/sg194_4_cif.got.tgz:7939.got - 2010.04.01 12:26:19.
