data_PCOD8330351
_publ_section_title
;
Structure prediction by ZEFSAII (Michael W. Deem and Ramdas Pophale) SiO2 
 PCOD8330351
Probable space group: P 63/M M C
;
_chemical_formula_sum "Si O2"
_cell_formula_units_Z 144
_cell_length_a 20.062382
_cell_length_b 20.062382
_cell_length_c 29.489980
_cell_angle_alpha 90.000000
_cell_angle_beta 90.000000
_cell_angle_gamma 120.000000
_cell_volume 10279.455256
_symmetry_space_group_name_H-M "P 63/M M C"
_symmetry_group_IT_number 194
_symmetry_cell_setting 'hexagonal'
loop_
_space_group_symop_operation_xyz
x,y,z
x-y,x,1/2+z
-y,x-y,z
-x,-y,1/2+z
-x+y,-x,z
y,-x+y,1/2+z
x-y,-y,-z
-x,-x+y,-z
y,x,-z
-y,-x,1/2-z
-x+y,y,1/2-z
x,x-y,1/2-z
-x,-y,-z
-x+y,-x,1/2-z
y,-x+y,-z
x,y,1/2-z
x-y,x,-z
-y,x-y,1/2-z
-x+y,y,z
x,x-y,z
-y,-x,z
y,x,1/2+z
x-y,-y,1/2+z
-x,-x+y,1/2+z
loop_
_atom_site_type_symbol
_atom_site_label
_atom_site_fract_x
_atom_site_fract_y
_atom_site_fract_z
Si Si1 0.863701 0.290895 0.420236
Si Si2 0.542745 0.457256 0.539885
Si Si3 0.055081 0.264045 0.880902
Si Si4 0.263307 0.206950 0.958451
Si Si5 0.922822 0.461411 0.068547
Si Si6 0.153825 0.153889 0.698072
Si Si7 0.857458 0.567488 0.525159
O O1 0.774290 0.225711 0.411364
O O2 0.920790 0.274179 0.389371
O O3 0.879439 0.376448 0.408793
O O4 0.885762 0.294781 0.473108
O O5 0.507393 0.492607 0.575977
O O6 0.536767 0.463234 0.485890
O O7 0.498046 0.366485 0.549108
O O8 0.128452 0.256904 0.893220
O O9 0.023259 0.231776 0.830551
O O10 0.988153 0.206431 0.914003
O O11 0.240743 0.120371 0.970715
O O12 0.353897 0.258810 0.947073
O O13 0.241602 0.241602 0.000000
O O14 0.179281 0.175829 0.750000
O O15 0.064544 0.129088 0.691276
O O16 0.163735 0.081868 0.682862
O O17 0.766577 0.533154 0.527749
#
# Coordination Sequence:
#
# PCOD8330351 Si02
#       7
#    24  12  24  24  12  24  24
#     4   9  16  27  39  56  79 102 132 165 203 237
#     4   9  16  24  38  54  70  96 136 168 198 234
#     4  10  18  28  42  58  77 103 132 166 198 233
#     4  11  19  27  39  54  75 104 136 165 194 228
#     4   9  16  24  38  56  73 102 132 166 197 234
#     4   9  17  29  44  61  80 102 130 164 203 241
#     4   9  17  27  38  54  75 102 132 164 203 237
#
# _framework density 14.008524
#
# number of rings (size 3 to 8) (size 9 to 14) (size 15 to 20)
#    0.000    2.500    1.667    2.167    2.333    0.667 
#    1.000    0.000    0.000    4.000    0.000    0.583 
#    0.000    0.000    0.000    0.000    0.167    0.000 
#
# Total GULP energy -1784152.815376 kJ/mol
# GULP energy per Si atom -12389.950107 kJ/mol
# Density = 1.397664 g / cm^3
# Si number density = 14.008524 Si / 1000 Ang^3
#
#
#
# Elastic Constant Matrix: (Units=GPa)
#
#
# Indices 1 2 3 4 5 6 
#
# 1 89.5600 50.9303 26.2532 0.0000 0.0000 0.0000
# 2 50.9303 89.5600 26.2532 0.0000 0.0000 0.0000
# 3 26.2532 26.2532 39.1584 0.0000 0.0000 0.0000
# 4 0.0000 0.0000 0.0000 12.3182 0.0000 0.0000
# 5 0.0000 0.0000 0.0000 0.0000 12.3182 0.0000
# 6 0.0000 0.0000 0.0000 0.0000 0.0000 19.3148
#
#
#
# Elastic Compliance Matrix: (Units=1/GPa)
#
#
# Indices 1 2 3 4 5 6 
#
# 1 0.017692 -0.008195 -0.006368 0.000000 0.000000 0.000000
# 2 -0.008195 0.017692 -0.006368 0.000000 0.000000 0.000000
# 3 -0.006368 -0.006368 0.034075 0.000000 0.000000 0.000000
# 4 0.000000 0.000000 0.000000 0.081181 0.000000 0.000000
# 5 0.000000 0.000000 0.000000 0.000000 0.081181 0.000000
# 6 0.000000 0.000000 0.000000 0.000000 0.000000 0.051774
#
#
# Mechanical properties :
#
#
# Convention : Reuss Voigt Hill
#
# Bulk Modulus (GPa) = 36.23130 47.23908 41.73519
# Shear Modulus (GPa) = 14.94074 16.44634 15.69354
#
# Velocity S-wave (km/s) = 3.26935 3.43012 3.35070
# Velocity P-wave (km/s) = 6.33809 7.03438 6.69529
#
# Compressibility (1/GPa) = 0.02760044
#
# Stress axis : x y z
#
# Youngs Moduli (GPa) = 56.52178 56.52178 29.34666
#
# Poissons Ratio (x) = 0.46317 0.18687
# Poissons Ratio (y) = 0.46317 0.18687
# Poissons Ratio (z) = 0.35991 0.35991
#
# Static dielectric constant tensor:
#      x y z
#    x 2.850870 0.000000 0.000000 
#    y 0.000000 2.850870 0.000000 
#    z 0.000000 0.000000 2.529940 
# 
# 
# High freq. dielectric constant tensor:
#      x y z
#    x 1.536240 0.000000 0.000000 
#    y 0.000000 1.536240 0.000000 
#    z 0.000000 0.000000 1.481150 
# 
# From -- ./inp_files/9742.got.cif
#   From: 2010.03.12/outbox.cif.g09.slc.cpg/sg194_5_cif.got.tgz:9742.got - 2010.04.01 12:26:19.
