data_PCOD8330459
_publ_section_title
;
Structure prediction by ZEFSAII (Michael W. Deem and Ramdas Pophale) SiO2 
 PCOD8330459
Probable space group: P 63/M M C
;
_chemical_formula_sum "Si O2"
_cell_formula_units_Z 132
_cell_length_a 17.970880
_cell_length_b 17.970880
_cell_length_c 27.183829
_cell_angle_alpha 90.000000
_cell_angle_beta 90.000000
_cell_angle_gamma 120.000000
_cell_volume 7602.911754
_symmetry_space_group_name_H-M "P 63/M M C"
_symmetry_group_IT_number 194
_symmetry_cell_setting 'hexagonal'
loop_
_space_group_symop_operation_xyz
x,y,z
x-y,x,1/2+z
-y,x-y,z
-x,-y,1/2+z
-x+y,-x,z
y,-x+y,1/2+z
x-y,-y,-z
-x,-x+y,-z
y,x,-z
-y,-x,1/2-z
-x+y,y,1/2-z
x,x-y,1/2-z
-x,-y,-z
-x+y,-x,1/2-z
y,-x+y,-z
x,y,1/2-z
x-y,x,-z
-y,x-y,1/2-z
-x+y,y,z
x,x-y,z
-y,-x,z
y,x,1/2+z
x-y,-y,1/2+z
-x,-x+y,1/2+z
loop_
_atom_site_type_symbol
_atom_site_label
_atom_site_fract_x
_atom_site_fract_y
_atom_site_fract_z
Si Si1 0.837972 0.334715 0.141754
Si Si2 0.158167 0.664789 0.071199
Si Si3 0.834396 0.499985 0.464630
Si Si4 0.099343 0.371054 0.341388
Si Si5 0.490704 0.332307 0.750000
Si Si6 0.078087 0.755211 0.692498
O O1 0.843175 0.421588 0.160805
O O2 0.738358 0.261643 0.136525
O O3 0.884512 0.349461 0.087509
O O4 0.886273 0.309292 0.181715
O O5 0.160535 0.580268 0.088723
O O6 0.255952 0.744049 0.071694
O O7 0.099074 0.682901 0.107712
O O8 0.114383 0.649509 0.016453
O O9 0.763343 0.526685 0.466188
O O10 0.793509 0.396755 0.464483
O O11 0.173720 0.347440 0.339560
O O12 0.109123 0.435175 0.297563
O O13 0.011304 0.279995 0.336391
O O14 0.577337 0.422664 0.750000
O O15 0.515035 0.257518 0.750000
O O16 0.061466 0.755304 0.750000
O O17 0.148205 0.851796 0.674594
#
# Coordination Sequence:
#
# PCOD8330459 Si02
#       6
#    24  24  24  24  12  24
#     4   9  17  29  46  68  95 128 166 203 237 271
#     4   9  16  26  43  69 102 137 169 196 222 258
#     4   8  13  23  40  63  92 128 167 202 231 261
#     4  10  20  34  51  71  94 122 155 191 235 284
#     4  10  19  30  45  68 100 136 166 188 209 244
#     4  10  21  37  53  69  88 115 153 198 248 296
#
# _framework density 17.361768999999999
#
# number of rings (size 3 to 8) (size 9 to 14) (size 15 to 20)
#    0.000    2.727    0.909    1.182    0.000    4.727 
#    0.000    2.727    0.000    4.727    0.000    0.000 
#    0.000    0.000    0.000    0.000    0.000   21.455 
#
# Total GULP energy -1635317.642011 kJ/mol
# GULP energy per Si atom -12388.770015 kJ/mol
# Density = 1.732225 g / cm^3
# Si number density = 17.361769 Si / 1000 Ang^3
#
#
#
# Elastic Constant Matrix: (Units=GPa)
#
#
# Indices 1 2 3 4 5 6 
#
# 1 64.2227 33.7645 7.8797 0.0000 0.0000 0.0000
# 2 33.7645 64.2227 7.8797 0.0000 0.0000 0.0000
# 3 7.8797 7.8797 22.7008 0.0000 0.0000 0.0000
# 4 0.0000 0.0000 0.0000 17.1445 0.0000 0.0000
# 5 0.0000 0.0000 0.0000 0.0000 17.1445 0.0000
# 6 0.0000 0.0000 0.0000 0.0000 0.0000 15.2291
#
#
#
# Elastic Compliance Matrix: (Units=1/GPa)
#
#
# Indices 1 2 3 4 5 6 
#
# 1 0.021820 -0.011012 -0.003752 0.000000 0.000000 0.000000
# 2 -0.011012 0.021820 -0.003752 0.000000 0.000000 0.000000
# 3 -0.003752 -0.003752 0.046656 0.000000 0.000000 0.000000
# 4 0.000000 0.000000 0.000000 0.058328 0.000000 0.000000
# 5 0.000000 0.000000 0.000000 0.000000 0.058328 0.000000
# 6 0.000000 0.000000 0.000000 0.000000 0.000000 0.065664
#
#
# Mechanical properties :
#
#
# Convention : Reuss Voigt Hill
#
# Bulk Modulus (GPa) = 18.77364 27.79933 23.28649
# Shear Modulus (GPa) = 15.27172 16.67840 15.97506
#
# Velocity S-wave (km/s) = 2.96905 3.10278 3.03665
# Velocity P-wave (km/s) = 4.75293 5.37428 5.07313
#
# Compressibility (1/GPa) = 0.05326618
#
# Stress axis : x y z
#
# Youngs Moduli (GPa) = 45.82867 45.82867 21.43347
#
# Poissons Ratio (x) = 0.50465 0.08042
# Poissons Ratio (y) = 0.50465 0.08042
# Poissons Ratio (z) = 0.17194 0.17194
#
# Static dielectric constant tensor:
#      x y z
#    x 3.001850 0.000000 0.000000 
#    y 0.000000 3.001850 0.000000 
#    z 0.000000 0.000000 3.618570 
# 
# 
# High freq. dielectric constant tensor:
#      x y z
#    x 1.639640 0.000000 0.000000 
#    y 0.000000 1.639640 0.000000 
#    z 0.000000 0.000000 1.687730 
# 
# From -- ./inp_files/10805.got.cif
#   From: 2010.03.12/outbox.cif.g09.slc.cpg/sg194_6_cif.got.tgz:10805.got - 2010.04.01 12:26:19.
