data_PCOD8330174
_publ_section_title
;
Structure prediction by ZEFSAII (Michael W. Deem and Ramdas Pophale) SiO2 
 PCOD8330174
Probable space group: P 63/M C M
;
_chemical_formula_sum "Si O2"
_cell_formula_units_Z 144
_cell_length_a 30.918791
_cell_length_b 30.918791
_cell_length_c 9.087461
_cell_angle_alpha 90.000000
_cell_angle_beta 90.000000
_cell_angle_gamma 120.000000
_cell_volume 7523.470094
_symmetry_space_group_name_H-M "P 63/M C M"
_symmetry_group_IT_number 193
_symmetry_cell_setting 'hexagonal'
loop_
_space_group_symop_operation_xyz
x,y,z
x-y,x,1/2+z
-y,x-y,z
-x,-y,1/2+z
-x+y,-x,z
y,-x+y,1/2+z
x-y,-y,1/2-z
-x,-x+y,1/2-z
y,x,1/2-z
-y,-x,-z
-x+y,y,-z
x,x-y,-z
-x,-y,-z
-x+y,-x,1/2-z
y,-x+y,-z
x,y,1/2-z
x-y,x,-z
-y,x-y,1/2-z
-x+y,y,1/2+z
x,x-y,1/2+z
-y,-x,1/2+z
y,x,z
x-y,-y,z
-x,-x+y,z
loop_
_atom_site_type_symbol
_atom_site_label
_atom_site_fract_x
_atom_site_fract_y
_atom_site_fract_z
Si Si1 0.337891 0.479371 0.918462
Si Si2 0.516133 0.943048 0.078190
Si Si3 0.942675 0.700693 0.079069
Si Si4 0.944068 0.799932 0.422520
Si Si5 0.763265 0.146852 0.920461
Si Si6 0.756347 0.332521 0.075836
O O1 0.351791 0.476300 0.750000
O O2 0.280103 0.440068 0.949271
O O3 0.347026 0.533948 0.956600
O O4 0.371574 0.465468 0.020074
O O5 0.505232 0.934465 0.250000
O O6 0.558449 0.000000 0.043151
O O7 0.464539 0.929078 0.000000
O O8 0.930552 0.687309 0.250000
O O9 0.931645 0.744543 0.033106
O O10 0.000000 0.717318 0.046007
O O11 0.908349 0.652599 0.982005
O O12 0.907294 0.814587 0.500000
O O13 0.938532 0.802884 0.250000
O O14 0.000000 0.839562 0.473446
O O15 0.775871 0.148077 0.750000
O O16 0.813307 0.186694 0.000000
O O17 0.745555 0.329647 0.250000
O O18 0.720450 0.279551 0.000000
O O19 0.745936 0.372968 0.000000
#
# Coordination Sequence:
#
# PCOD8330174 Si02
#       6
#    24  24  24  24  24  24
#     4  10  23  40  58  82 112 147 186 228 272 320
#     4  10  21  37  59  86 114 146 184 226 274 326
#     4   9  19  36  56  79 109 143 179 223 274 325
#     4   9  18  32  50  74 103 134 171 216 264 314
#     4  11  23  38  56  80 111 147 187 228 272 324
#     4  11  23  40  61  85 112 142 178 220 270 324
#
# _framework density 19.140103
#
# number of rings (size 3 to 8) (size 9 to 14) (size 15 to 20)
#    0.000    2.000    0.000    4.167    0.000    8.333 
#    0.000    5.000    0.000    0.167    0.000    0.000 
#    0.000    0.000    0.000    0.000    0.000    0.000 
#
# Total GULP energy -1786217.789119 kJ/mol
# GULP energy per Si atom -12404.290202 kJ/mol
# Density = 1.909654 g / cm^3
# Si number density = 19.140103 Si / 1000 Ang^3
#
#
#
# Elastic Constant Matrix: (Units=GPa)
#
#
# Indices 1 2 3 4 5 6 
#
# 1 90.5634 33.2983 51.3337 0.0000 0.0000 0.0000
# 2 33.2983 90.5634 51.3337 0.0000 0.0000 0.0000
# 3 51.3337 51.3337 96.7277 0.0000 0.0000 0.0000
# 4 0.0000 0.0000 0.0000 34.8469 0.0000 0.0000
# 5 0.0000 0.0000 0.0000 0.0000 34.8469 0.0000
# 6 0.0000 0.0000 0.0000 0.0000 0.0000 28.6326
#
#
#
# Elastic Compliance Matrix: (Units=1/GPa)
#
#
# Indices 1 2 3 4 5 6 
#
# 1 0.015938 -0.001524 -0.007650 0.000000 0.000000 0.000000
# 2 -0.001524 0.015938 -0.007650 0.000000 0.000000 0.000000
# 3 -0.007650 -0.007650 0.018458 0.000000 0.000000 0.000000
# 4 0.000000 0.000000 0.000000 0.028697 0.000000 0.000000
# 5 0.000000 0.000000 0.000000 0.000000 0.028697 0.000000
# 6 0.000000 0.000000 0.000000 0.000000 0.000000 0.034925
#
#
# Mechanical properties :
#
#
# Convention : Reuss Voigt Hill
#
# Bulk Modulus (GPa) = 59.92520 61.08734 60.50627
# Shear Modulus (GPa) = 27.49318 29.12455 28.30886
#
# Velocity S-wave (km/s) = 3.79412 3.90507 3.84999
# Velocity P-wave (km/s) = 7.11129 7.23311 7.17246
#
# Compressibility (1/GPa) = 0.01668747
#
# Stress axis : x y z
#
# Youngs Moduli (GPa) = 62.74142 62.74142 54.17789
#
# Poissons Ratio (x) = 0.09563 0.41444
# Poissons Ratio (y) = 0.09563 0.41444
# Poissons Ratio (z) = 0.47995 0.47995
#
# Static dielectric constant tensor:
#      x y z
#    x 3.518660 0.000000 0.000000 
#    y 0.000000 3.518660 0.000000 
#    z 0.000000 0.000000 3.494770 
# 
# 
# High freq. dielectric constant tensor:
#      x y z
#    x 1.745980 0.000000 0.000000 
#    y 0.000000 1.745980 0.000000 
#    z 0.000000 0.000000 1.748020 
# 
# From -- ./inp_files/1509.got.cif
#   From: 2010.03.12/outbox.cif.g09.slc.cpg/sg193_1_cif.got.tgz:1509.got - 2010.04.01 12:20:39.
