data_PCOD8330183
_publ_section_title
;
Structure prediction by ZEFSAII (Michael W. Deem and Ramdas Pophale) SiO2 
 PCOD8330183
Probable space group: P 63/M C M
;
_chemical_formula_sum "Si O2"
_cell_formula_units_Z 80
_cell_length_a 17.825778
_cell_length_b 17.825778
_cell_length_c 15.250801
_cell_angle_alpha 90.000000
_cell_angle_beta 90.000000
_cell_angle_gamma 120.000000
_cell_volume 4196.819325
_symmetry_space_group_name_H-M "P 63/M C M"
_symmetry_group_IT_number 193
_symmetry_cell_setting 'hexagonal'
loop_
_space_group_symop_operation_xyz
x,y,z
x-y,x,1/2+z
-y,x-y,z
-x,-y,1/2+z
-x+y,-x,z
y,-x+y,1/2+z
x-y,-y,1/2-z
-x,-x+y,1/2-z
y,x,1/2-z
-y,-x,-z
-x+y,y,-z
x,x-y,-z
-x,-y,-z
-x+y,-x,1/2-z
y,-x+y,-z
x,y,1/2-z
x-y,x,-z
-y,x-y,1/2-z
-x+y,y,1/2+z
x,x-y,1/2+z
-y,-x,1/2+z
y,x,z
x-y,-y,z
-x,-x+y,z
loop_
_atom_site_type_symbol
_atom_site_label
_atom_site_fract_x
_atom_site_fract_y
_atom_site_fract_z
Si Si1 0.666667 0.333334 0.146946
Si Si2 0.167250 0.504945 0.901839
Si Si3 0.099886 0.361308 0.250000
Si Si4 0.632733 0.733353 0.750000
Si Si5 0.465978 0.099962 0.087188
O O1 0.666667 0.333334 0.250000
O O2 0.729572 0.431156 0.112794
O O3 0.125108 0.425256 0.836308
O O4 0.119210 0.559193 0.882955
O O5 0.154112 0.470049 0.001076
O O6 0.161503 0.318924 0.250000
O O7 0.124325 0.422280 0.334854
O O8 0.000000 0.285727 0.250000
O O9 0.705093 0.705093 0.750000
O O10 0.409296 0.000000 0.062387
#
# Coordination Sequence:
#
# PCOD8330183 Si02
#       5
#     8  24  12  12  24
#     4  12  24  37  50  77 119 166 198 232 284 329
#     4  11  22  36  54  80 116 150 197 238 270 323
#     4  10  23  41  59  78 111 147 182 230 293 353
#     4  12  23  37  59  84 107 139 184 238 285 339
#     4  10  21  38  57  81 112 154 194 238 290 331
#
# _framework density 19.062055999999998
#
# number of rings (size 3 to 8) (size 9 to 14) (size 15 to 20)
#    0.000    1.200    1.500    6.300    0.000   12.000 
#    0.000    0.000    0.000    0.300    0.000    0.000 
#    0.000    0.000    0.000    9.600    0.000    0.000 
#
# Total GULP energy -992295.553306 kJ/mol
# GULP energy per Si atom -12403.694416 kJ/mol
# Density = 1.901867 g / cm^3
# Si number density = 19.062056 Si / 1000 Ang^3
#
#
#
# Elastic Constant Matrix: (Units=GPa)
#
#
# Indices 1 2 3 4 5 6 
#
# 1 103.5018 47.3109 56.4592 0.0000 0.0000 0.0000
# 2 47.3109 103.5023 56.4594 0.0000 0.0000 0.0002
# 3 56.4592 56.4594 138.7913 0.0001 0.0000 0.0001
# 4 0.0000 0.0000 0.0001 17.9033 0.0001 0.0000
# 5 0.0000 0.0000 0.0000 0.0001 17.9031 0.0000
# 6 0.0000 0.0002 0.0001 0.0000 0.0000 28.0959
#
#
#
# Elastic Compliance Matrix: (Units=1/GPa)
#
#
# Indices 1 2 3 4 5 6 
#
# 1 0.013666 -0.004131 -0.003879 0.000000 0.000000 0.000000
# 2 -0.004131 0.013666 -0.003879 0.000000 0.000000 0.000000
# 3 -0.003879 -0.003879 0.010361 0.000000 0.000000 0.000000
# 4 0.000000 0.000000 0.000000 0.055856 0.000000 0.000000
# 5 0.000000 0.000000 0.000000 0.000000 0.055856 0.000000
# 6 0.000000 0.000000 0.000000 0.000000 0.000000 0.035592
#
#
# Mechanical properties :
#
#
# Convention : Reuss Voigt Hill
#
# Bulk Modulus (GPa) = 71.86186 74.02827 72.94507
# Shear Modulus (GPa) = 23.42895 25.15151 24.29023
#
# Velocity S-wave (km/s) = 3.50964 3.63637 3.57357
# Velocity P-wave (km/s) = 7.36235 7.52002 7.44160
#
# Compressibility (1/GPa) = 0.01391559
#
# Stress axis : x y z
#
# Youngs Moduli (GPa) = 73.17618 73.17645 96.51837
#
# Poissons Ratio (x) = 0.30228 0.37437
# Poissons Ratio (y) = 0.30227 0.37437
# Poissons Ratio (z) = 0.28383 0.28383
#
# Static dielectric constant tensor:
#      x y z
#    x 3.491390 0.000000 0.000000 
#    y 0.000000 3.491390 0.000000 
#    z 0.000000 0.000000 3.656310 
# 
# 
# High freq. dielectric constant tensor:
#      x y z
#    x 1.720850 0.000000 0.000000 
#    y 0.000000 1.720850 0.000000 
#    z 0.000000 0.000000 1.764620 
# 
# From -- ./inp_files/5027.got.cif
#   From: 2010.03.12/outbox.cif.g09.slc.cpg/sg193_3_cif.got.tgz:5027.got - 2010.04.01 12:20:39.
