data_PCOD8330830
_publ_section_title
;
Structure prediction by ZEFSAII (Michael W. Deem and Ramdas Pophale) SiO2 
 PCOD8330830
Probable space group: P 63/M M C
;
_chemical_formula_sum "Si O2"
_cell_formula_units_Z 156
_cell_length_a 21.131692
_cell_length_b 21.131692
_cell_length_c 20.735240
_cell_angle_alpha 90.000000
_cell_angle_beta 90.000000
_cell_angle_gamma 120.000000
_cell_volume 8018.778963
_symmetry_space_group_name_H-M "P 63/M M C"
_symmetry_group_IT_number 194
_symmetry_cell_setting 'hexagonal'
loop_
_space_group_symop_operation_xyz
x,y,z
x-y,x,1/2+z
-y,x-y,z
-x,-y,1/2+z
-x+y,-x,z
y,-x+y,1/2+z
x-y,-y,-z
-x,-x+y,-z
y,x,-z
-y,-x,1/2-z
-x+y,y,1/2-z
x,x-y,1/2-z
-x,-y,-z
-x+y,-x,1/2-z
y,-x+y,-z
x,y,1/2-z
x-y,x,-z
-y,x-y,1/2-z
-x+y,y,z
x,x-y,z
-y,-x,z
y,x,1/2+z
x-y,-y,1/2+z
-x,-x+y,1/2+z
loop_
_atom_site_type_symbol
_atom_site_label
_atom_site_fract_x
_atom_site_fract_y
_atom_site_fract_z
Si Si1 0.811867 0.479935 0.520506
Si Si2 0.252761 0.051202 0.437730
Si Si3 0.793276 0.060174 0.675685
Si Si4 0.475954 0.810632 0.250000
Si Si5 0.593250 0.042768 0.176629
Si Si6 0.673449 0.100763 0.635815
Si Si7 0.720350 0.583895 0.095028
O O1 0.725673 0.451346 0.526190
O O2 0.825518 0.412759 0.532548
O O3 0.855375 0.546056 0.569872
O O4 0.842688 0.515826 0.451644
O O5 0.236243 0.118122 0.439758
O O6 0.339332 0.079770 0.438734
O O7 0.216371 0.000000 0.500000
O O8 0.219840 0.005812 0.371540
O O9 0.776595 0.032185 0.750000
O O10 0.876964 0.123037 0.668313
O O11 0.742732 0.094111 0.656529
O O12 0.389333 0.778665 0.250000
O O13 0.494790 0.747395 0.250000
O O14 0.509392 0.858137 0.312792
O O15 0.592496 0.017634 0.250000
O O16 0.533880 0.067760 0.165571
O O17 0.673626 0.107748 0.160157
O O18 0.579278 0.977934 0.127848
O O19 0.793986 0.587972 0.117905
#
# Coordination Sequence:
#
# PCOD8330830 Si02
#       7
#    24  24  24  12  24  24  24
#     4  11  23  39  58  81 114 157 204 251 301 357
#     4  11  23  41  64  93 126 158 197 249 306 367
#     4  11  22  39  65  94 124 163 205 247 299 362
#     4  12  23  36  52  78 115 160 208 250 292 344
#     4  11  22  38  60  87 121 160 199 244 301 362
#     4  12  22  37  57  84 117 157 202 245 297 351
#     4  10  23  40  60  89 119 152 198 253 307 358
#
# _framework density 19.454333999999999
#
# number of rings (size 3 to 8) (size 9 to 14) (size 15 to 20)
#    0.000    0.923    3.077    4.846    0.000    1.846 
#    0.000    4.615    0.000    3.077    0.000    0.000 
#    0.000    0.000    0.000    0.000    0.000    0.000 
#
# Total GULP energy -1934585.428796 kJ/mol
# GULP energy per Si atom -12401.188646 kJ/mol
# Density = 1.941006 g / cm^3
# Si number density = 19.454334 Si / 1000 Ang^3
#
#
#
# Elastic Constant Matrix: (Units=GPa)
#
#
# Indices 1 2 3 4 5 6 
#
# 1 103.4729 46.3658 44.2392 0.0000 0.0000 0.0000
# 2 46.3658 103.4729 44.2392 0.0000 0.0000 0.0000
# 3 44.2392 44.2392 73.1448 0.0000 0.0000 0.0000
# 4 0.0000 0.0000 0.0000 30.8417 0.0000 0.0000
# 5 0.0000 0.0000 0.0000 0.0000 30.8417 0.0000
# 6 0.0000 0.0000 0.0000 0.0000 0.0000 28.5535
#
#
#
# Elastic Compliance Matrix: (Units=1/GPa)
#
#
# Indices 1 2 3 4 5 6 
#
# 1 0.013946 -0.003565 -0.006279 0.000000 0.000000 0.000000
# 2 -0.003565 0.013946 -0.006279 0.000000 0.000000 0.000000
# 3 -0.006279 -0.006279 0.021267 0.000000 0.000000 0.000000
# 4 0.000000 0.000000 0.000000 0.032424 0.000000 0.000000
# 5 0.000000 0.000000 0.000000 0.000000 0.032424 0.000000
# 6 0.000000 0.000000 0.000000 0.000000 0.000000 0.035022
#
#
# Mechanical properties :
#
#
# Convention : Reuss Voigt Hill
#
# Bulk Modulus (GPa) = 59.12242 61.08655 60.10448
# Shear Modulus (GPa) = 26.75064 27.73047 27.24056
#
# Velocity S-wave (km/s) = 3.71219 3.77956 3.74603
# Velocity P-wave (km/s) = 6.98785 7.10738 7.04787
#
# Compressibility (1/GPa) = 0.01691406
#
# Stress axis : x y z
#
# Youngs Moduli (GPa) = 71.70403 71.70403 47.02195
#
# Poissons Ratio (x) = 0.25561 0.29525
# Poissons Ratio (y) = 0.25561 0.29525
# Poissons Ratio (z) = 0.45022 0.45022
#
# Static dielectric constant tensor:
#      x y z
#    x 3.567700 0.000000 0.000000 
#    y 0.000000 3.567700 0.000000 
#    z 0.000000 0.000000 3.593390 
# 
# 
# High freq. dielectric constant tensor:
#      x y z
#    x 1.758550 0.000000 0.000000 
#    y 0.000000 1.758550 0.000000 
#    z 0.000000 0.000000 1.757490 
# 
# From -- ./inp_files/8359.got.cif
#   From: 2010.03.12/outbox.cif.g09.slc.cpg/sg194_5_cif.got.tgz:8359.got - 2010.04.01 12:26:19.
