data_PCOD8330654
_publ_section_title
;
Structure prediction by ZEFSAII (Michael W. Deem and Ramdas Pophale) SiO2 
 PCOD8330654
Probable space group: P 63/M M C
;
_chemical_formula_sum "Si O2"
_cell_formula_units_Z 120
_cell_length_a 17.034043
_cell_length_b 17.034043
_cell_length_c 26.542486
_cell_angle_alpha 90.000000
_cell_angle_beta 90.000000
_cell_angle_gamma 120.000000
_cell_volume 6669.721610
_symmetry_space_group_name_H-M "P 63/M M C"
_symmetry_group_IT_number 194
_symmetry_cell_setting 'hexagonal'
loop_
_space_group_symop_operation_xyz
x,y,z
x-y,x,1/2+z
-y,x-y,z
-x,-y,1/2+z
-x+y,-x,z
y,-x+y,1/2+z
x-y,-y,-z
-x,-x+y,-z
y,x,-z
-y,-x,1/2-z
-x+y,y,1/2-z
x,x-y,1/2-z
-x,-y,-z
-x+y,-x,1/2-z
y,-x+y,-z
x,y,1/2-z
x-y,x,-z
-y,x-y,1/2-z
-x+y,y,z
x,x-y,z
-y,-x,z
y,x,1/2+z
x-y,-y,1/2+z
-x,-x+y,1/2+z
loop_
_atom_site_type_symbol
_atom_site_label
_atom_site_fract_x
_atom_site_fract_y
_atom_site_fract_z
Si Si1 0.845502 0.332921 0.645894
Si Si2 0.845619 0.331857 0.053346
Si Si3 0.241992 0.306960 0.600787
Si Si4 0.060190 0.300735 0.193033
Si Si5 0.381631 0.099556 0.954676
O O1 0.861695 0.430848 0.660211
O O2 0.738525 0.261476 0.646483
O O3 0.897803 0.306224 0.686701
O O4 0.886239 0.335460 0.591007
O O5 0.858423 0.429212 0.065315
O O6 0.739785 0.260216 0.042808
O O7 0.882751 0.300181 0.100813
O O8 0.906670 0.337032 0.005226
O O9 0.137286 0.274571 0.587557
O O10 0.245407 0.269028 0.655627
O O11 0.284020 0.273071 0.556840
O O12 0.025027 0.273398 0.250000
O O13 0.137864 0.275728 0.180202
O O14 0.360830 0.180415 0.959574
#
# Coordination Sequence:
#
# PCOD8330654 Si02
#       5
#    24  24  24  24  24
#     4   9  16  26  43  69 100 132 164 198 239 289
#     4  10  20  33  50  74 105 140 175 208 239 273
#     4  10  20  32  49  74  99 126 161 201 251 305
#     4   9  19  36  54  70  92 124 162 208 260 306
#     4   9  18  32  49  70  99 135 170 203 242 288
#
# _framework density 17.991755999999999
#
# number of rings (size 3 to 8) (size 9 to 14) (size 15 to 20)
#    0.000    2.600    0.000    3.400    0.000    5.600 
#    0.000    3.000    0.000    4.400    0.000    0.000 
#    0.000   20.800    0.000    0.000    0.000    0.000 
#
# Total GULP energy -1487450.682069 kJ/mol
# GULP energy per Si atom -12395.422351 kJ/mol
# Density = 1.795081 g / cm^3
# Si number density = 17.991756 Si / 1000 Ang^3
#
#
#
# Elastic Constant Matrix: (Units=GPa)
#
#
# Indices 1 2 3 4 5 6 
#
# 1 86.6320 42.8080 26.2058 0.0000 0.0000 0.0000
# 2 42.8080 86.6320 26.2058 0.0000 0.0000 0.0000
# 3 26.2058 26.2058 77.9763 0.0000 0.0000 0.0000
# 4 0.0000 0.0000 0.0000 20.0294 0.0000 0.0000
# 5 0.0000 0.0000 0.0000 0.0000 20.0294 0.0000
# 6 0.0000 0.0000 0.0000 0.0000 0.0000 21.9120
#
#
#
# Elastic Compliance Matrix: (Units=1/GPa)
#
#
# Indices 1 2 3 4 5 6 
#
# 1 0.015881 -0.006938 -0.003005 0.000000 0.000000 0.000000
# 2 -0.006938 0.015881 -0.003005 0.000000 0.000000 0.000000
# 3 -0.003005 -0.003005 0.014844 0.000000 0.000000 0.000000
# 4 0.000000 0.000000 0.000000 0.049927 0.000000 0.000000
# 5 0.000000 0.000000 0.000000 0.000000 0.049927 0.000000
# 6 0.000000 0.000000 0.000000 0.000000 0.000000 0.045637
#
#
# Mechanical properties :
#
#
# Convention : Reuss Voigt Hill
#
# Bulk Modulus (GPa) = 48.29039 49.07551 48.68295
# Shear Modulus (GPa) = 22.23249 22.79552 22.51401
#
# Velocity S-wave (km/s) = 3.51907 3.56335 3.54128
# Velocity P-wave (km/s) = 6.58866 6.65326 6.62104
#
# Compressibility (1/GPa) = 0.02070805
#
# Stress axis : x y z
#
# Youngs Moduli (GPa) = 62.97026 62.97026 67.36528
#
# Poissons Ratio (x) = 0.43689 0.20246
# Poissons Ratio (y) = 0.43689 0.20246
# Poissons Ratio (z) = 0.18925 0.18925
#
# Static dielectric constant tensor:
#      x y z
#    x 3.273090 0.000000 0.000000 
#    y 0.000000 3.273090 0.000000 
#    z 0.000000 0.000000 3.323130 
# 
# 
# High freq. dielectric constant tensor:
#      x y z
#    x 1.688520 0.000000 0.000000 
#    y 0.000000 1.688520 0.000000 
#    z 0.000000 0.000000 1.681100 
# 
# From -- ./inp_files/11906.got.cif
#   From: 2010.03.12/outbox.cif.g09.slc.cpg/sg194_6_cif.got.tgz:11906.got - 2010.04.01 12:26:19.
