data_PCOD8330044
_publ_section_title
;
Structure prediction by ZEFSAII (Michael W. Deem and Ramdas Pophale) SiO2 
 PCOD8330044
Probable space group: P 63/M C M
;
_chemical_formula_sum "Si O2"
_cell_formula_units_Z 144
_cell_length_a 22.087150
_cell_length_b 22.087150
_cell_length_c 19.797402
_cell_angle_alpha 90.000000
_cell_angle_beta 90.000000
_cell_angle_gamma 120.000000
_cell_volume 8364.080321
_symmetry_space_group_name_H-M "P 63/M C M"
_symmetry_group_IT_number 193
_symmetry_cell_setting 'hexagonal'
loop_
_space_group_symop_operation_xyz
x,y,z
x-y,x,1/2+z
-y,x-y,z
-x,-y,1/2+z
-x+y,-x,z
y,-x+y,1/2+z
x-y,-y,1/2-z
-x,-x+y,1/2-z
y,x,1/2-z
-y,-x,-z
-x+y,y,-z
x,x-y,-z
-x,-y,-z
-x+y,-x,1/2-z
y,-x+y,-z
x,y,1/2-z
x-y,x,-z
-y,x-y,1/2-z
-x+y,y,1/2+z
x,x-y,1/2+z
-y,-x,1/2+z
y,x,z
x-y,-y,z
-x,-x+y,z
loop_
_atom_site_type_symbol
_atom_site_label
_atom_site_fract_x
_atom_site_fract_y
_atom_site_fract_z
Si Si1 0.917610 0.733651 0.674118
Si Si2 0.920335 0.613118 0.901115
Si Si3 0.802337 0.472912 0.423074
Si Si4 0.620908 0.698846 0.559439
Si Si5 0.533988 0.196019 0.416183
Si Si6 0.919288 0.161986 0.933356
O O1 0.887415 0.720821 0.750000
O O2 0.895232 0.659261 0.639748
O O3 0.888533 0.775587 0.631076
O O4 0.000000 0.780884 0.674451
O O5 0.870623 0.532095 0.882518
O O6 0.000000 0.635422 0.883083
O O7 0.910328 0.621717 0.979672
O O8 0.867757 0.548647 0.403712
O O9 0.808375 0.409265 0.390569
O O10 0.731100 0.464758 0.392610
O O11 0.803340 0.467946 0.503308
O O12 0.635069 0.635069 0.574755
O O13 0.683355 0.771279 0.586812
O O14 0.000000 0.183640 0.943948
O O15 0.876554 0.123447 0.000000
#
# Coordination Sequence:
#
# PCOD8330044 Si02
#       6
#    24  24  24  24  24  24
#     4  10  20  34  52  74 100 128 163 208 253 298
#     4   9  16  28  45  67  92 122 159 202 251 292
#     4   9  16  24  36  58  92 129 162 194 243 296
#     4   9  17  27  44  68  95 124 157 199 248 297
#     4   9  16  24  37  58  89 129 161 197 239 296
#     4  11  20  32  53  77 101 131 165 203 249 303
#
# _framework density 17.216477999999999
#
# number of rings (size 3 to 8) (size 9 to 14) (size 15 to 20)
#    0.000    2.500    1.667    1.833    2.333    2.333 
#    0.000    3.333    0.000    3.000    0.000    4.667 
#    0.000    5.333    0.000    0.000    0.000    0.000 
#
# Total GULP energy -1785035.139325 kJ/mol
# GULP energy per Si atom -12396.077356 kJ/mol
# Density = 1.717729 g / cm^3
# Si number density = 17.216478 Si / 1000 Ang^3
#
#
#
# Elastic Constant Matrix: (Units=GPa)
#
#
# Indices 1 2 3 4 5 6 
#
# 1 104.2015 52.6267 26.8040 0.0000 0.0000 0.0000
# 2 52.6267 104.2015 26.8040 0.0000 0.0000 0.0000
# 3 26.8040 26.8040 43.4155 0.0000 0.0000 0.0000
# 4 0.0000 0.0000 0.0000 10.3023 0.0000 0.0000
# 5 0.0000 0.0000 0.0000 0.0000 10.3023 0.0000
# 6 0.0000 0.0000 0.0000 0.0000 0.0000 25.7874
#
#
#
# Elastic Compliance Matrix: (Units=1/GPa)
#
#
# Indices 1 2 3 4 5 6 
#
# 1 0.013736 -0.005654 -0.004990 0.000000 0.000000 0.000000
# 2 -0.005654 0.013736 -0.004990 0.000000 0.000000 0.000000
# 3 -0.004990 -0.004990 0.029194 0.000000 0.000000 0.000000
# 4 0.000000 0.000000 0.000000 0.097065 0.000000 0.000000
# 5 0.000000 0.000000 0.000000 0.000000 0.097065 0.000000
# 6 0.000000 0.000000 0.000000 0.000000 0.000000 0.038779
#
#
# Mechanical properties :
#
#
# Convention : Reuss Voigt Hill
#
# Bulk Modulus (GPa) = 39.37070 51.58753 45.47912
# Shear Modulus (GPa) = 15.18338 18.98401 17.08369
#
# Velocity S-wave (km/s) = 2.97292 3.32424 3.15348
# Velocity P-wave (km/s) = 5.89084 6.69053 6.30338
#
# Compressibility (1/GPa) = 0.02539960
#
# Stress axis : x y z
#
# Youngs Moduli (GPa) = 72.80319 72.80319 34.25320
#
# Poissons Ratio (x) = 0.41160 0.17091
# Poissons Ratio (y) = 0.41160 0.17091
# Poissons Ratio (z) = 0.36327 0.36327
#
# Static dielectric constant tensor:
#      x y z
#    x 3.379940 0.000000 0.000000 
#    y 0.000000 3.379940 0.000000 
#    z 0.000000 0.000000 2.806050 
# 
# 
# High freq. dielectric constant tensor:
#      x y z
#    x 1.669900 0.000000 0.000000 
#    y 0.000000 1.669900 0.000000 
#    z 0.000000 0.000000 1.601930 
# 
# From -- ./inp_files/6564.got.cif
#   From: 2010.03.12/outbox.cif.g09.slc.cpg/sg193_4_cif.got.tgz:6564.got - 2010.04.01 12:20:39.
