data_PCOD8330122
_publ_section_title
;
Structure prediction by ZEFSAII (Michael W. Deem and Ramdas Pophale) SiO2 
 PCOD8330122
Probable space group: P 63/M C M
;
_chemical_formula_sum "Si O2"
_cell_formula_units_Z 168
_cell_length_a 26.014116
_cell_length_b 26.014116
_cell_length_c 14.061467
_cell_angle_alpha 90.000000
_cell_angle_beta 90.000000
_cell_angle_gamma 120.000000
_cell_volume 8240.990408
_symmetry_space_group_name_H-M "P 63/M C M"
_symmetry_group_IT_number 193
_symmetry_cell_setting 'hexagonal'
loop_
_space_group_symop_operation_xyz
x,y,z
x-y,x,1/2+z
-y,x-y,z
-x,-y,1/2+z
-x+y,-x,z
y,-x+y,1/2+z
x-y,-y,1/2-z
-x,-x+y,1/2-z
y,x,1/2-z
-y,-x,-z
-x+y,y,-z
x,x-y,-z
-x,-y,-z
-x+y,-x,1/2-z
y,-x+y,-z
x,y,1/2-z
x-y,x,-z
-y,x-y,1/2-z
-x+y,y,1/2+z
x,x-y,1/2+z
-y,-x,1/2+z
y,x,z
x-y,-y,z
-x,-x+y,z
loop_
_atom_site_type_symbol
_atom_site_label
_atom_site_fract_x
_atom_site_fract_y
_atom_site_fract_z
Si Si1 0.932000 0.068001 0.500000
Si Si2 0.069164 0.594888 0.498005
Si Si3 0.870070 0.107657 0.856153
Si Si4 0.770581 0.541161 0.000000
Si Si5 0.328055 0.065077 0.116581
Si Si6 0.852363 0.539551 0.856234
Si Si7 0.570902 0.870500 0.355158
Si Si8 0.759715 0.065067 0.096449
O O1 0.894012 0.070347 0.588099
O O2 0.000000 0.094925 0.531276
O O3 0.080002 0.540001 0.500000
O O4 0.095778 0.627185 0.598044
O O5 0.101806 0.636623 0.406800
O O6 0.000000 0.574679 0.493219
O O7 0.896128 0.118493 0.750000
O O8 0.799331 0.072167 0.852345
O O9 0.891428 0.170289 0.906983
O O10 0.713920 0.508100 0.072536
O O11 0.823027 0.576008 0.076182
O O12 0.389320 0.119708 0.155573
O O13 0.313668 0.000000 0.154606
O O14 0.334165 0.065687 0.004143
O O15 0.834877 0.511116 0.750000
O O16 0.541704 0.845604 0.250000
O O17 0.639738 0.916951 0.332694
O O18 0.748014 0.000000 0.123843
#
# Coordination Sequence:
#
# PCOD8330122 Si02
#       8
#    12  24  24  12  24  24  24  24
#     4  12  27  47  66  82 103 136 184 242 306 374
#     4  10  22  39  57  82 121 166 211 255 287 322
#     4  12  25  40  60  86 112 140 177 229 292 360
#     4  10  20  37  54  80 117 144 186 240 297 344
#     4  11  21  36  56  79 110 147 185 228 284 348
#     4  11  22  36  58  85 117 158 200 240 292 352
#     4  11  22  36  58  85 117 158 200 240 292 352
#     4  11  21  36  56  79 110 147 185 228 284 348
#
# _framework density 20.385899999999999
#
# number of rings (size 3 to 8) (size 9 to 14) (size 15 to 20)
#    0.000    1.000    4.286    3.929    0.000    6.286 
#    0.000    1.429    0.000    0.857    0.000    0.000 
#   45.714    0.000   13.714    0.000    0.000    0.000 
#
# Total GULP energy -2081444.361532 kJ/mol
# GULP energy per Si atom -12389.549771 kJ/mol
# Density = 2.033950 g / cm^3
# Si number density = 20.385900 Si / 1000 Ang^3
#
#
#
# Elastic Constant Matrix: (Units=GPa)
#
#
# Indices 1 2 3 4 5 6 
#
# 1 81.8381 33.2973 30.9694 0.0000 0.0000 0.0000
# 2 33.2973 81.8381 30.9694 0.0000 0.0000 0.0000
# 3 30.9694 30.9694 149.8640 0.0000 0.0000 0.0000
# 4 0.0000 0.0000 0.0000 3.7687 0.0000 0.0000
# 5 0.0000 0.0000 0.0000 0.0000 3.7687 0.0000
# 6 0.0000 0.0000 0.0000 0.0000 0.0000 24.2704
#
#
#
# Elastic Compliance Matrix: (Units=1/GPa)
#
#
# Indices 1 2 3 4 5 6 
#
# 1 0.015186 -0.005415 -0.002019 0.000000 0.000000 0.000000
# 2 -0.005415 0.015186 -0.002019 0.000000 0.000000 0.000000
# 3 -0.002019 -0.002019 0.007507 0.000000 0.000000 0.000000
# 4 0.000000 0.000000 0.000000 0.265341 0.000000 0.000000
# 5 0.000000 0.000000 0.000000 0.000000 0.265341 0.000000
# 6 0.000000 0.000000 0.000000 0.000000 0.000000 0.041202
#
#
# Mechanical properties :
#
#
# Convention : Reuss Voigt Hill
#
# Bulk Modulus (GPa) = 52.70514 56.00139 54.35327
# Shear Modulus (GPa) = 7.87408 20.91517 14.39462
#
# Velocity S-wave (km/s) = 1.96746 3.20654 2.66015
# Velocity P-wave (km/s) = 5.57414 6.42180 6.01292
#
# Compressibility (1/GPa) = 0.01897348
#
# Stress axis : x y z
#
# Youngs Moduli (GPa) = 65.84796 65.84796 133.20353
#
# Poissons Ratio (x) = 0.35655 0.26898
# Poissons Ratio (y) = 0.35655 0.26898
# Poissons Ratio (z) = 0.13297 0.13297
#
# Static dielectric constant tensor:
#      x y z
#    x 3.518050 0.000000 0.000000 
#    y 0.000000 3.518050 0.000000 
#    z 0.000000 0.000000 3.983010 
# 
# 
# High freq. dielectric constant tensor:
#      x y z
#    x 1.770900 0.000000 0.000000 
#    y 0.000000 1.770900 0.000000 
#    z 0.000000 0.000000 1.815110 
# 
# From -- ./inp_files/4397.got.cif
#   From: 2010.03.12/outbox.cif.g09.slc.cpg/sg193_3_cif.got.tgz:4397.got - 2010.04.01 12:20:39.
