data_PCOD8330160
_publ_section_title
;
Structure prediction by ZEFSAII (Michael W. Deem and Ramdas Pophale) SiO2 
 PCOD8330160
Probable space group: P 63/M C M
;
_chemical_formula_sum "Si O2"
_cell_formula_units_Z 72
_cell_length_a 21.238154
_cell_length_b 21.238154
_cell_length_c 10.004636
_cell_angle_alpha 90.000000
_cell_angle_beta 90.000000
_cell_angle_gamma 120.000000
_cell_volume 3908.098086
_symmetry_space_group_name_H-M "P 63/M C M"
_symmetry_group_IT_number 193
_symmetry_cell_setting 'hexagonal'
loop_
_space_group_symop_operation_xyz
x,y,z
x-y,x,1/2+z
-y,x-y,z
-x,-y,1/2+z
-x+y,-x,z
y,-x+y,1/2+z
x-y,-y,1/2-z
-x,-x+y,1/2-z
y,x,1/2-z
-y,-x,-z
-x+y,y,-z
x,x-y,-z
-x,-y,-z
-x+y,-x,1/2-z
y,-x+y,-z
x,y,1/2-z
x-y,x,-z
-y,x-y,1/2-z
-x+y,y,1/2+z
x,x-y,1/2+z
-y,-x,1/2+z
y,x,z
x-y,-y,z
-x,-x+y,z
loop_
_atom_site_type_symbol
_atom_site_label
_atom_site_fract_x
_atom_site_fract_y
_atom_site_fract_z
Si Si1 0.449255 0.365447 0.250000
Si Si2 0.598410 0.512066 0.250000
Si Si3 0.288139 0.849887 0.478621
Si Si4 0.809385 0.083293 0.598179
O O1 0.391779 0.391779 0.250000
O O2 0.530474 0.431986 0.250000
O O3 0.432599 0.315583 0.377440
O O4 0.573003 0.573003 0.250000
O O5 0.643702 0.516347 0.118434
O O6 0.237468 0.762533 0.500000
O O7 0.240575 0.880543 0.412345
O O8 0.878197 0.121804 0.500000
O O9 0.837635 0.091628 0.750000
O O10 0.762695 0.000000 0.554934
#
# Coordination Sequence:
#
# PCOD8330160 Si02
#       4
#    12  12  24  24
#     4  11  23  36  58  86 108 141 189 233 280 338
#     4  11  21  38  60  82 112 145 181 233 288 334
#     4  11  22  37  56  82 113 146 182 228 283 336
#     4  10  21  36  56  84 117 151 186 229 280 332
#
# _framework density 18.423283000000001
#
# number of rings (size 3 to 8) (size 9 to 14) (size 15 to 20)
#    0.000    1.333    1.667    5.000    7.000    3.333 
#    0.000    0.000    0.000   13.667    0.000    0.000 
#    0.000    0.000    0.000    0.000    0.000    0.000 
#
# Total GULP energy -892927.641031 kJ/mol
# GULP energy per Si atom -12401.772792 kJ/mol
# Density = 1.838135 g / cm^3
# Si number density = 18.423283 Si / 1000 Ang^3
#
#
#
# Elastic Constant Matrix: (Units=GPa)
#
#
# Indices 1 2 3 4 5 6 
#
# 1 71.1132 23.0568 22.1869 0.0000 0.0000 0.0000
# 2 23.0568 71.1132 22.1869 0.0000 0.0000 0.0000
# 3 22.1869 22.1869 112.1029 0.0000 0.0000 0.0000
# 4 0.0000 0.0000 0.0000 83.4409 0.0000 0.0000
# 5 0.0000 0.0000 0.0000 0.0000 83.4409 0.0000
# 6 0.0000 0.0000 0.0000 0.0000 0.0000 24.0282
#
#
#
# Elastic Compliance Matrix: (Units=1/GPa)
#
#
# Indices 1 2 3 4 5 6 
#
# 1 0.016260 -0.004549 -0.002318 0.000000 0.000000 0.000000
# 2 -0.004549 0.016260 -0.002318 0.000000 0.000000 0.000000
# 3 -0.002318 -0.002318 0.009838 0.000000 0.000000 0.000000
# 4 0.000000 0.000000 0.000000 0.011985 0.000000 0.000000
# 5 0.000000 0.000000 0.000000 0.000000 0.011985 0.000000
# 6 0.000000 0.000000 0.000000 0.000000 0.000000 0.041618
#
#
# Mechanical properties :
#
#
# Convention : Reuss Voigt Hill
#
# Bulk Modulus (GPa) = 41.68570 43.24340 42.46455
# Shear Modulus (GPa) = 37.22725 50.64192 43.93458
#
# Velocity S-wave (km/s) = 4.50006 5.24859 4.88867
# Velocity P-wave (km/s) = 7.04815 7.76230 7.41383
#
# Compressibility (1/GPa) = 0.02398904
#
# Stress axis : x y z
#
# Youngs Moduli (GPa) = 61.50026 61.50026 101.64819
#
# Poissons Ratio (x) = 0.27975 0.23561
# Poissons Ratio (y) = 0.27975 0.23561
# Poissons Ratio (z) = 0.14255 0.14255
#
# Static dielectric constant tensor:
#      x y z
#    x 3.454990 0.000000 0.000000 
#    y 0.000000 3.454990 0.000000 
#    z 0.000000 0.000000 3.600960 
# 
# 
# High freq. dielectric constant tensor:
#      x y z
#    x 1.705480 0.000000 0.000000 
#    y 0.000000 1.705480 0.000000 
#    z 0.000000 0.000000 1.739100 
# 
# From -- ./inp_files/2008.got.cif
#   From: 2010.03.12/outbox.cif.g09.slc.cpg/sg193_2_cif.got.tgz:2008.got - 2010.04.01 12:20:39.
