data_PCOD8330951
_publ_section_title
;
Structure prediction by ZEFSAII (Michael W. Deem and Ramdas Pophale) SiO2 
 PCOD8330951
Probable space group: P A 3
;
_chemical_formula_sum "Si O2"
_cell_formula_units_Z 40
_cell_length_a 12.549093
_cell_length_b 12.549093
_cell_length_c 12.549093
_cell_angle_alpha 90.000000
_cell_angle_beta 90.000000
_cell_angle_gamma 90.000000
_cell_volume 1976.227842
_symmetry_space_group_name_H-M "P A 3"
_symmetry_group_IT_number 205
_symmetry_cell_setting 'cubic'
loop_
_space_group_symop_operation_xyz
x,y,z
z,x,y
y,z,x
1/2-y,-z,1/2+x
1/2+z,1/2-x,-y
-y,1/2+z,1/2-x
1/2-z,-x,1/2+y
-z,1/2+x,1/2-y
1/2+y,1/2-z,-x
1/2-x,-y,1/2+z
1/2+x,1/2-y,-z
-x,1/2+y,1/2-z
-x,-y,-z
-z,-x,-y
-y,-z,-x
1/2+y,z,1/2-x
1/2-z,1/2+x,y
y,1/2-z,1/2+x
1/2+z,x,1/2-y
z,1/2-x,1/2+y
1/2-y,1/2+z,x
1/2+x,y,1/2-z
1/2-x,1/2+y,z
x,1/2-y,1/2+z
loop_
_atom_site_type_symbol
_atom_site_label
_atom_site_fract_x
_atom_site_fract_y
_atom_site_fract_z
Si Si1 0.262127 0.237873 0.762126
Si Si2 0.883589 0.616411 0.383590
Si Si3 0.377663 0.788822 0.951748
O O1 0.189351 0.310651 0.689350
O O2 0.253217 0.116653 0.722517
O O3 0.812891 0.516650 0.422731
O O4 0.472395 0.835105 0.881628
#
# Coordination Sequence:
#
# PCOD8330951 Si02
#       3
#     8   8  24
#     4   9  21  39  54  79 119 151 186 240 289 341
#     4   9  21  36  58  88 114 151 196 234 292 356
#     4  10  21  39  60  85 117 154 195 242 295 351
#
# _framework density 20.240583000000001
#
# number of rings (size 3 to 8) (size 9 to 14) (size 15 to 20)
#    0.000    2.400    0.000    0.600    0.000   14.400 
#    0.000    3.000    0.000    0.000    0.000    0.000 
#    0.000    0.000    0.000    0.000    0.000    0.000 
#
# Total GULP energy -496006.452134 kJ/mol
# GULP energy per Si atom -12400.161303 kJ/mol
# Density = 2.019451 g / cm^3
# Si number density = 20.240583 Si / 1000 Ang^3
#
#
#
# Elastic Constant Matrix: (Units=GPa)
#
#
# Indices 1 2 3 4 5 6 
#
# 1 117.7325 60.4249 60.4229 0.0000 0.0000 0.0000
# 2 60.4249 117.7324 60.4244 0.0000 0.0000 0.0000
# 3 60.4229 60.4244 117.7307 0.0000 0.0000 0.0000
# 4 0.0000 0.0000 0.0000 21.4312 0.0000 0.0000
# 5 0.0000 0.0000 0.0000 0.0000 21.4298 0.0000
# 6 0.0000 0.0000 0.0000 0.0000 0.0000 21.4308
#
#
#
# Elastic Compliance Matrix: (Units=1/GPa)
#
#
# Indices 1 2 3 4 5 6 
#
# 1 0.013030 -0.004419 -0.004419 0.000000 0.000000 0.000000
# 2 -0.004419 0.013030 -0.004420 0.000000 0.000000 0.000000
# 3 -0.004419 -0.004420 0.013030 0.000000 0.000000 0.000000
# 4 0.000000 0.000000 0.000000 0.046661 0.000000 0.000000
# 5 0.000000 0.000000 0.000000 0.000000 0.046664 0.000000
# 6 0.000000 0.000000 0.000000 0.000000 0.000000 0.046662
#
#
# Mechanical properties :
#
#
# Convention : Reuss Voigt Hill
#
# Bulk Modulus (GPa) = 79.52665 79.52665 79.52665
# Shear Modulus (GPa) = 23.83389 24.31992 24.07691
#
# Velocity S-wave (km/s) = 3.43524 3.47009 3.45271
# Velocity P-wave (km/s) = 7.42364 7.44522 7.43444
#
# Compressibility (1/GPa) = 0.01257440
#
# Stress axis : x y z
#
# Youngs Moduli (GPa) = 76.74546 76.74400 76.74428
#
# Poissons Ratio (x) = 0.33917 0.33915
# Poissons Ratio (y) = 0.33918 0.33917
# Poissons Ratio (z) = 0.33915 0.33917
#
# Static dielectric constant tensor:
#      x y z
#    x 3.797880 0.000000 0.000000 
#    y 0.000000 3.797850 0.000000 
#    z 0.000000 0.000000 3.797870 
# 
# 
# High freq. dielectric constant tensor:
#      x y z
#    x 1.793120 0.000000 0.000000 
#    y 0.000000 1.793120 0.000000 
#    z 0.000000 0.000000 1.793120 
# 
# From -- ./inp_files/124.got.cif
#   From: 2010.03.12/outbox.cif.g09.slc.cpg/sg205_cif.got.tgz:124.got - 2010.03.30 09:02:58.
