data_PCOD8330853
_publ_section_title
;
Structure prediction by ZEFSAII (Michael W. Deem and Ramdas Pophale) SiO2 
 PCOD8330853
Probable space group: P 63/M M C
;
_chemical_formula_sum "Si O2"
_cell_formula_units_Z 120
_cell_length_a 18.324742
_cell_length_b 18.324742
_cell_length_c 29.510138
_cell_angle_alpha 90.000000
_cell_angle_beta 90.000000
_cell_angle_gamma 120.000000
_cell_volume 8581.784600
_symmetry_space_group_name_H-M "P 63/M M C"
_symmetry_group_IT_number 194
_symmetry_cell_setting 'hexagonal'
loop_
_space_group_symop_operation_xyz
x,y,z
x-y,x,1/2+z
-y,x-y,z
-x,-y,1/2+z
-x+y,-x,z
y,-x+y,1/2+z
x-y,-y,-z
-x,-x+y,-z
y,x,-z
-y,-x,1/2-z
-x+y,y,1/2-z
x,x-y,1/2-z
-x,-y,-z
-x+y,-x,1/2-z
y,-x+y,-z
x,y,1/2-z
x-y,x,-z
-y,x-y,1/2-z
-x+y,y,z
x,x-y,z
-y,-x,z
y,x,1/2+z
x-y,-y,1/2+z
-x,-x+y,1/2+z
loop_
_atom_site_type_symbol
_atom_site_label
_atom_site_fract_x
_atom_site_fract_y
_atom_site_fract_z
Si Si1 0.169060 0.168510 0.802432
Si Si2 0.496173 0.829851 0.640791
Si Si3 0.333560 0.505479 0.532989
Si Si4 0.755907 0.683225 0.466751
Si Si5 0.926981 0.680368 0.135350
O O1 0.192297 0.190205 0.750000
O O2 0.075841 0.151681 0.812743
O O3 0.238965 0.246741 0.831423
O O4 0.171517 0.085759 0.817169
O O5 0.423159 0.846317 0.660425
O O6 0.482482 0.741241 0.660450
O O7 0.491675 0.824098 0.586915
O O8 0.588776 0.907847 0.653858
O O9 0.263435 0.526869 0.514335
O O10 0.425116 0.574885 0.513781
O O11 0.310039 0.412155 0.517238
O O12 0.747494 0.747494 0.500000
O O13 0.850861 0.701721 0.469920
O O14 0.734417 0.698287 0.415586
O O15 0.838272 0.676544 0.134383
#
# Coordination Sequence:
#
# PCOD8330853 Si02
#       5
#    24  24  24  24  24
#     4   9  16  26  41  59  75  90 111 142 180 219
#     4   8  12  19  33  52  73  97 124 150 173 201
#     4   8  13  21  34  52  72  93 118 149 183 215
#     4   9  17  27  37  50  70  97 126 152 177 207
#     4   8  15  26  37  52  74  96 118 146 181 215
#
# _framework density 13.983105
#
# number of rings (size 3 to 8) (size 9 to 14) (size 15 to 20)
#    0.000    3.600    0.000    3.000    0.000    3.600 
#    0.000    0.000    0.000    0.800    0.000    0.000 
#    0.000    1.600    0.000    0.600    0.000    1.400 
#
# Total GULP energy -1487000.798242 kJ/mol
# GULP energy per Si atom -12391.673319 kJ/mol
# Density = 1.395128 g / cm^3
# Si number density = 13.983105 Si / 1000 Ang^3
#
#
#
# Elastic Constant Matrix: (Units=GPa)
#
#
# Indices 1 2 3 4 5 6 
#
# 1 82.4302 47.0412 36.2453 0.0000 0.0000 0.0000
# 2 47.0412 82.4302 36.2453 0.0000 0.0000 0.0000
# 3 36.2453 36.2453 41.8404 0.0000 0.0000 0.0000
# 4 0.0000 0.0000 0.0000 14.2382 0.0000 0.0000
# 5 0.0000 0.0000 0.0000 0.0000 14.2382 0.0000
# 6 0.0000 0.0000 0.0000 0.0000 0.0000 17.6945
#
#
#
# Elastic Compliance Matrix: (Units=1/GPa)
#
#
# Indices 1 2 3 4 5 6 
#
# 1 0.021628 -0.006630 -0.012993 0.000000 0.000000 0.000000
# 2 -0.006630 0.021628 -0.012993 0.000000 0.000000 0.000000
# 3 -0.012993 -0.012993 0.046411 0.000000 0.000000 0.000000
# 4 0.000000 0.000000 0.000000 0.070233 0.000000 0.000000
# 5 0.000000 0.000000 0.000000 0.000000 0.070233 0.000000
# 6 0.000000 0.000000 0.000000 0.000000 0.000000 0.056515
#
#
# Mechanical properties :
#
#
# Convention : Reuss Voigt Hill
#
# Bulk Modulus (GPa) = 40.92194 49.52937 45.22566
# Shear Modulus (GPa) = 13.88801 15.04546 14.46674
#
# Velocity S-wave (km/s) = 3.15493 3.28376 3.21999
# Velocity P-wave (km/s) = 6.52688 7.06224 6.79983
#
# Compressibility (1/GPa) = 0.02443677
#
# Stress axis : x y z
#
# Youngs Moduli (GPa) = 46.23681 46.23681 21.54680
#
# Poissons Ratio (x) = 0.30653 0.27995
# Poissons Ratio (y) = 0.30653 0.27995
# Poissons Ratio (z) = 0.60073 0.60073
#
# Static dielectric constant tensor:
#      x y z
#    x 2.842010 0.000000 0.000000 
#    y 0.000000 2.842010 0.000000 
#    z 0.000000 0.000000 2.459940 
# 
# 
# High freq. dielectric constant tensor:
#      x y z
#    x 1.522440 0.000000 0.000000 
#    y 0.000000 1.522440 0.000000 
#    z 0.000000 0.000000 1.491980 
# 
# From -- ./inp_files/11865.got.cif
#   From: 2010.03.12/outbox.cif.g09.slc.cpg/sg194_6_cif.got.tgz:11865.got - 2010.04.01 12:26:19.
