data_PCOD8330173
_publ_section_title
;
Structure prediction by ZEFSAII (Michael W. Deem and Ramdas Pophale) SiO2 
 PCOD8330173
Probable space group: P 63/M C M
;
_chemical_formula_sum "Si O2"
_cell_formula_units_Z 104
_cell_length_a 17.401405
_cell_length_b 17.401405
_cell_length_c 20.138792
_cell_angle_alpha 90.000000
_cell_angle_beta 90.000000
_cell_angle_gamma 120.000000
_cell_volume 5281.200769
_symmetry_space_group_name_H-M "P 63/M C M"
_symmetry_group_IT_number 193
_symmetry_cell_setting 'hexagonal'
loop_
_space_group_symop_operation_xyz
x,y,z
x-y,x,1/2+z
-y,x-y,z
-x,-y,1/2+z
-x+y,-x,z
y,-x+y,1/2+z
x-y,-y,1/2-z
-x,-x+y,1/2-z
y,x,1/2-z
-y,-x,-z
-x+y,y,-z
x,x-y,-z
-x,-y,-z
-x+y,-x,1/2-z
y,-x+y,-z
x,y,1/2-z
x-y,x,-z
-y,x-y,1/2-z
-x+y,y,1/2+z
x,x-y,1/2+z
-y,-x,1/2+z
y,x,z
x-y,-y,z
-x,-x+y,z
loop_
_atom_site_type_symbol
_atom_site_label
_atom_site_fract_x
_atom_site_fract_y
_atom_site_fract_z
Si Si1 0.633734 0.099217 0.123973
Si Si2 0.333334 0.666668 0.829446
Si Si3 0.170659 0.667981 0.627211
Si Si4 0.722997 0.100397 0.750000
Si Si5 0.898389 0.266666 0.008385
Si Si6 0.268677 0.373983 0.250000
O O1 0.574622 0.142841 0.110589
O O2 0.700798 0.138515 0.185898
O O3 0.565270 0.000000 0.144973
O O4 0.687583 0.103486 0.059153
O O5 0.333334 0.666668 0.750000
O O6 0.435746 0.724153 0.855517
O O7 0.115663 0.676091 0.687138
O O8 0.154353 0.710824 0.562873
O O9 0.830671 0.161704 0.750000
O O10 0.703285 0.000000 0.750000
O O11 0.000000 0.298199 0.029324
O O12 0.840918 0.159083 0.000000
O O13 0.298819 0.298819 0.250000
#
# Coordination Sequence:
#
# PCOD8330173 Si02
#       6
#    24   8  24  12  24  12
#     4  10  21  37  59  83 114 154 194 238 289 345
#     4  12  24  39  55  80 121 166 200 238 291 342
#     4  12  23  37  56  83 118 154 198 238 283 339
#     4  12  23  35  55  82 109 141 186 242 293 343
#     4  11  23  40  60  85 116 154 197 247 300 356
#     4  10  21  39  59  80 109 149 194 238 293 359
#
# _framework density 19.692492000000001
#
# number of rings (size 3 to 8) (size 9 to 14) (size 15 to 20)
#    0.000    0.923    1.154    7.615    0.000    2.769 
#    0.000    2.308    0.000    0.462    0.000    0.000 
#    0.000    7.385    0.000    0.000    0.000    1.385 
#
# Total GULP energy -1289171.709150 kJ/mol
# GULP energy per Si atom -12395.881819 kJ/mol
# Density = 1.964767 g / cm^3
# Si number density = 19.692492 Si / 1000 Ang^3
#
#
#
# Elastic Constant Matrix: (Units=GPa)
#
#
# Indices 1 2 3 4 5 6 
#
# 1 106.8497 62.6643 16.8370 -0.0002 -0.0002 0.0000
# 2 62.6643 106.8495 16.8369 0.0000 0.0002 0.0001
# 3 16.8370 16.8369 107.6059 0.0000 0.0000 0.0000
# 4 -0.0002 0.0000 0.0000 29.4037 -0.0001 -0.0002
# 5 -0.0002 0.0002 0.0000 -0.0001 29.4049 0.0001
# 6 0.0000 0.0001 0.0000 -0.0002 0.0001 22.0924
#
#
#
# Elastic Compliance Matrix: (Units=1/GPa)
#
#
# Indices 1 2 3 4 5 6 
#
# 1 0.014360 -0.008272 -0.000953 0.000000 0.000000 0.000000
# 2 -0.008272 0.014360 -0.000953 0.000000 0.000000 0.000000
# 3 -0.000953 -0.000953 0.009591 0.000000 0.000000 0.000000
# 4 0.000000 0.000000 0.000000 0.034009 0.000000 0.000000
# 5 0.000000 0.000000 0.000000 0.000000 0.034008 0.000000
# 6 0.000000 0.000000 0.000000 0.000000 0.000000 0.045265
#
#
# Mechanical properties :
#
#
# Convention : Reuss Voigt Hill
#
# Bulk Modulus (GPa) = 55.68671 57.10906 56.39788
# Shear Modulus (GPa) = 28.10038 31.17797 29.63917
#
# Velocity S-wave (km/s) = 3.78161 3.98331 3.88377
# Velocity P-wave (km/s) = 6.88527 7.08654 6.98663
#
# Compressibility (1/GPa) = 0.01795761
#
# Stress axis : x y z
#
# Youngs Moduli (GPa) = 69.63693 69.63677 104.26120
#
# Poissons Ratio (x) = 0.57602 0.09933
# Poissons Ratio (y) = 0.57602 0.09932
# Poissons Ratio (z) = 0.06634 0.06634
#
# Static dielectric constant tensor:
#      x y z
#    x 3.765810 0.000000 0.000000 
#    y 0.000000 3.765810 0.000000 
#    z 0.000000 0.000000 3.227720 
# 
# 
# High freq. dielectric constant tensor:
#      x y z
#    x 1.761390 0.000000 0.000000 
#    y 0.000000 1.761390 0.000000 
#    z 0.000000 0.000000 1.784390 
# 
# From -- ./inp_files/6339.got.cif
#   From: 2010.03.12/outbox.cif.g09.slc.cpg/sg193_4_cif.got.tgz:6339.got - 2010.04.01 12:20:39.
