data_PCOD8330528
_publ_section_title
;
Structure prediction by ZEFSAII (Michael W. Deem and Ramdas Pophale) SiO2 
 PCOD8330528
Probable space group: P 63/M M C
;
_chemical_formula_sum "Si O2"
_cell_formula_units_Z 168
_cell_length_a 17.394724
_cell_length_b 17.394724
_cell_length_c 33.241624
_cell_angle_alpha 90.000000
_cell_angle_beta 90.000000
_cell_angle_gamma 120.000000
_cell_volume 8710.597555
_symmetry_space_group_name_H-M "P 63/M M C"
_symmetry_group_IT_number 194
_symmetry_cell_setting 'hexagonal'
loop_
_space_group_symop_operation_xyz
x,y,z
x-y,x,1/2+z
-y,x-y,z
-x,-y,1/2+z
-x+y,-x,z
y,-x+y,1/2+z
x-y,-y,-z
-x,-x+y,-z
y,x,-z
-y,-x,1/2-z
-x+y,y,1/2-z
x,x-y,1/2-z
-x,-y,-z
-x+y,-x,1/2-z
y,-x+y,-z
x,y,1/2-z
x-y,x,-z
-y,x-y,1/2-z
-x+y,y,z
x,x-y,z
-y,-x,z
y,x,1/2+z
x-y,-y,1/2+z
-x,-x+y,1/2+z
loop_
_atom_site_type_symbol
_atom_site_label
_atom_site_fract_x
_atom_site_fract_y
_atom_site_fract_z
Si Si1 0.941029 0.701217 0.961831
Si Si2 0.806753 0.777798 0.750000
Si Si3 0.509552 0.842880 0.347494
Si Si4 0.287639 0.389623 0.750000
Si Si5 0.608954 0.039133 0.329803
Si Si6 0.834904 0.999747 0.663531
Si Si7 0.493620 0.333100 0.558618
Si Si8 0.925095 0.251480 0.389004
O O1 0.862401 0.724801 0.955291
O O2 0.898199 0.595157 0.967458
O O3 0.008323 0.732333 0.924916
O O4 0.000000 0.753458 0.000000
O O5 0.862334 0.724667 0.750000
O O6 0.702537 0.712539 0.750000
O O7 0.835167 0.840933 0.788550
O O8 0.407399 0.814798 0.338786
O O9 0.525111 0.762556 0.333264
O O10 0.530477 0.862514 0.394710
O O11 0.577408 0.933945 0.324411
O O12 0.190439 0.380877 0.750000
O O13 0.340233 0.438012 0.709377
O O14 0.524380 0.048759 0.337142
O O15 0.664321 0.078958 0.371543
O O16 0.866898 0.933449 0.646354
O O17 0.735551 0.966088 0.650006
O O18 0.901717 0.098284 0.646966
O O19 0.529345 0.264673 0.551553
O O20 0.569624 0.430377 0.544407
O O21 0.827321 0.172680 0.401082
#
# Coordination Sequence:
#
# PCOD8330528 Si02
#       8
#    24  12  24  12  24  24  24  24
#     4  11  23  39  59  86 121 159 202 247 296 356
#     4  10  20  31  50  82 117 150 187 230 284 346
#     4   9  17  31  54  85 121 156 189 227 280 347
#     4  12  23  41  62  84 116 162 211 250 295 352
#     4  11  23  38  60  88 118 150 193 249 303 352
#     4  10  19  31  49  76 110 147 187 231 281 339
#     4   9  17  31  54  86 120 154 190 233 285 347
#     4  11  22  38  61  83 108 147 193 245 302 357
#
# _framework density 19.286852
#
# number of rings (size 3 to 8) (size 9 to 14) (size 15 to 20)
#    0.000    1.714    2.857    2.571    0.000    2.571 
#    0.000    0.714    0.000    7.571    0.000    1.000 
#    0.000    0.000    0.000    0.000    0.000    0.000 
#
# Total GULP energy -2081955.172295 kJ/mol
# GULP energy per Si atom -12392.590311 kJ/mol
# Density = 1.924295 g / cm^3
# Si number density = 19.286852 Si / 1000 Ang^3
#
#
#
# Elastic Constant Matrix: (Units=GPa)
#
#
# Indices 1 2 3 4 5 6 
#
# 1 103.9008 57.7620 36.7960 0.0000 0.0000 0.0000
# 2 57.7620 103.9008 36.7960 0.0000 0.0000 0.0000
# 3 36.7960 36.7960 85.7263 0.0000 0.0000 0.0000
# 4 0.0000 0.0000 0.0000 24.6004 0.0000 0.0000
# 5 0.0000 0.0000 0.0000 0.0000 24.6004 0.0000
# 6 0.0000 0.0000 0.0000 0.0000 0.0000 23.0694
#
#
#
# Elastic Compliance Matrix: (Units=1/GPa)
#
#
# Indices 1 2 3 4 5 6 
#
# 1 0.014681 -0.006993 -0.003300 0.000000 0.000000 0.000000
# 2 -0.006993 0.014681 -0.003300 0.000000 0.000000 0.000000
# 3 -0.003300 -0.003300 0.014498 0.000000 0.000000 0.000000
# 4 0.000000 0.000000 0.000000 0.040650 0.000000 0.000000
# 5 0.000000 0.000000 0.000000 0.000000 0.040650 0.000000
# 6 0.000000 0.000000 0.000000 0.000000 0.000000 0.043347
#
#
# Mechanical properties :
#
#
# Convention : Reuss Voigt Hill
#
# Bulk Modulus (GPa) = 59.97299 61.80399 60.88849
# Shear Modulus (GPa) = 24.84476 25.26562 25.05519
#
# Velocity S-wave (km/s) = 3.59300 3.62331 3.60819
# Velocity P-wave (km/s) = 6.95526 7.04405 6.99980
#
# Compressibility (1/GPa) = 0.01667417
#
# Stress axis : x y z
#
# Youngs Moduli (GPa) = 68.11620 68.11620 68.97602
#
# Poissons Ratio (x) = 0.47633 0.22761
# Poissons Ratio (y) = 0.47633 0.22761
# Poissons Ratio (z) = 0.22477 0.22477
#
# Static dielectric constant tensor:
#      x y z
#    x 3.549640 0.000000 0.000000 
#    y 0.000000 3.549640 0.000000 
#    z 0.000000 0.000000 3.375820 
# 
# 
# High freq. dielectric constant tensor:
#      x y z
#    x 1.748750 0.000000 0.000000 
#    y 0.000000 1.748750 0.000000 
#    z 0.000000 0.000000 1.724230 
# 
# From -- ./inp_files/12310.got.cif
#   From: 2010.03.12/outbox.cif.g09.slc.cpg/sg194_7_cif.got.tgz:12310.got - 2010.04.01 12:26:19.
