data_PCOD8330420
_publ_section_title
;
Structure prediction by ZEFSAII (Michael W. Deem and Ramdas Pophale) SiO2 
 PCOD8330420
Probable space group: P 63/M M C
;
_chemical_formula_sum "Si O2"
_cell_formula_units_Z 144
_cell_length_a 22.009762
_cell_length_b 22.009762
_cell_length_c 19.403780
_cell_angle_alpha 90.000000
_cell_angle_beta 90.000000
_cell_angle_gamma 120.000000
_cell_volume 8140.436004
_symmetry_space_group_name_H-M "P 63/M M C"
_symmetry_group_IT_number 194
_symmetry_cell_setting 'hexagonal'
loop_
_space_group_symop_operation_xyz
x,y,z
x-y,x,1/2+z
-y,x-y,z
-x,-y,1/2+z
-x+y,-x,z
y,-x+y,1/2+z
x-y,-y,-z
-x,-x+y,-z
y,x,-z
-y,-x,1/2-z
-x+y,y,1/2-z
x,x-y,1/2-z
-x,-y,-z
-x+y,-x,1/2-z
y,-x+y,-z
x,y,1/2-z
x-y,x,-z
-y,x-y,1/2-z
-x+y,y,z
x,x-y,z
-y,-x,z
y,x,1/2+z
x-y,-y,1/2+z
-x,-x+y,1/2+z
loop_
_atom_site_type_symbol
_atom_site_label
_atom_site_fract_x
_atom_site_fract_y
_atom_site_fract_z
Si Si1 0.140199 0.140199 0.500000
Si Si2 0.857195 0.997378 0.250000
Si Si3 0.746559 0.629176 0.945387
Si Si4 0.530917 0.926837 0.670177
Si Si5 0.456733 0.047400 0.933849
Si Si6 0.745116 0.628498 0.105619
Si Si7 0.225374 0.228992 0.122167
O O1 0.130730 0.065365 0.521802
O O2 0.194782 0.170884 0.437559
O O3 0.886715 0.943358 0.250000
O O4 0.805985 0.979967 0.185618
O O5 0.923189 0.076812 0.250000
O O6 0.801248 0.602496 0.932380
O O7 0.671198 0.564744 0.923497
O O8 0.771372 0.699507 0.901666
O O9 0.742722 0.644749 0.025488
O O10 0.552359 0.934666 0.750000
O O11 0.446461 0.892921 0.661655
O O12 0.557044 0.879953 0.630614
O O13 0.569130 0.003207 0.636110
O O14 0.540685 0.081369 0.944938
O O15 0.416095 0.000000 0.000000
O O16 0.808635 0.617270 0.125674
O O17 0.752858 0.696614 0.144446
#
# Coordination Sequence:
#
# PCOD8330420 Si02
#       7
#    12  12  24  24  24  24  24
#     4  12  23  38  56  74  99 138 190 242 292 346
#     4  12  27  44  58  74 103 150 198 244 298 358
#     4  11  20  34  56  83 112 144 184 230 280 338
#     4  10  21  36  55  83 116 146 180 226 274 326
#     4  10  18  33  56  80 106 143 186 226 271 325
#     4  11  21  34  56  84 112 145 185 230 280 335
#     4  12  23  39  55  80 110 141 183 243 298 344
#
# _framework density 17.68947
#
# number of rings (size 3 to 8) (size 9 to 14) (size 15 to 20)
#    0.000    1.000    5.000    3.167    1.167    0.333 
#    0.000    1.667    0.000    0.667    0.000    0.000 
#    0.000    0.000    0.000    0.000    0.000    0.000 
#
# Total GULP energy -1785453.785505 kJ/mol
# GULP energy per Si atom -12398.984622 kJ/mol
# Density = 1.764921 g / cm^3
# Si number density = 17.689470 Si / 1000 Ang^3
#
#
#
# Elastic Constant Matrix: (Units=GPa)
#
#
# Indices 1 2 3 4 5 6 
#
# 1 115.5169 65.5315 34.6730 0.0000 0.0000 0.0000
# 2 65.5315 115.5169 34.6730 0.0000 0.0000 0.0000
# 3 34.6730 34.6730 91.9880 0.0000 0.0000 0.0000
# 4 0.0000 0.0000 0.0000 21.3722 0.0000 0.0000
# 5 0.0000 0.0000 0.0000 0.0000 21.3722 0.0000
# 6 0.0000 0.0000 0.0000 0.0000 0.0000 24.9927
#
#
#
# Elastic Compliance Matrix: (Units=1/GPa)
#
#
# Indices 1 2 3 4 5 6 
#
# 1 0.013231 -0.006775 -0.002433 0.000000 0.000000 0.000000
# 2 -0.006775 0.013231 -0.002433 0.000000 0.000000 0.000000
# 3 -0.002433 -0.002433 0.012705 0.000000 0.000000 0.000000
# 4 0.000000 0.000000 0.000000 0.046790 0.000000 0.000000
# 5 0.000000 0.000000 0.000000 0.000000 0.046790 0.000000
# 6 0.000000 0.000000 0.000000 0.000000 0.000000 0.040012
#
#
# Mechanical properties :
#
#
# Convention : Reuss Voigt Hill
#
# Bulk Modulus (GPa) = 62.95982 65.86409 64.41196
# Shear Modulus (GPa) = 24.83419 26.09038 25.46228
#
# Velocity S-wave (km/s) = 3.75093 3.84462 3.79806
# Velocity P-wave (km/s) = 7.37755 7.55132 7.46494
#
# Compressibility (1/GPa) = 0.01588314
#
# Stress axis : x y z
#
# Youngs Moduli (GPa) = 75.58226 75.58226 78.70739
#
# Poissons Ratio (x) = 0.51209 0.19151
# Poissons Ratio (y) = 0.51209 0.19151
# Poissons Ratio (z) = 0.18391 0.18391
#
# Static dielectric constant tensor:
#      x y z
#    x 3.330940 0.000000 0.000000 
#    y 0.000000 3.330940 0.000000 
#    z 0.000000 0.000000 0.091360 
# 
# 
# High freq. dielectric constant tensor:
#      x y z
#    x 1.675680 0.000000 0.000000 
#    y 0.000000 1.675680 0.000000 
#    z 0.000000 0.000000 1.682430 
# 
# From -- ./inp_files/8317.got.cif
#   From: 2010.03.12/outbox.cif.g09.slc.cpg/sg194_5_cif.got.tgz:8317.got - 2010.04.01 12:26:19.
