data_PCOD8330740
_publ_section_title
;
Structure prediction by ZEFSAII (Michael W. Deem and Ramdas Pophale) SiO2 
 PCOD8330740
Probable space group: P 63/M M C
;
_chemical_formula_sum "Si O2"
_cell_formula_units_Z 100
_cell_length_a 26.132529
_cell_length_b 26.132529
_cell_length_c 9.043473
_cell_angle_alpha 90.000000
_cell_angle_beta 90.000000
_cell_angle_gamma 120.000000
_cell_volume 5348.460097
_symmetry_space_group_name_H-M "P 63/M M C"
_symmetry_group_IT_number 194
_symmetry_cell_setting 'hexagonal'
loop_
_space_group_symop_operation_xyz
x,y,z
x-y,x,1/2+z
-y,x-y,z
-x,-y,1/2+z
-x+y,-x,z
y,-x+y,1/2+z
x-y,-y,-z
-x,-x+y,-z
y,x,-z
-y,-x,1/2-z
-x+y,y,1/2-z
x,x-y,1/2-z
-x,-y,-z
-x+y,-x,1/2-z
y,-x+y,-z
x,y,1/2-z
x-y,x,-z
-y,x-y,1/2-z
-x+y,y,z
x,x-y,z
-y,-x,z
y,x,1/2+z
x-y,-y,1/2+z
-x,-x+y,1/2+z
loop_
_atom_site_type_symbol
_atom_site_label
_atom_site_fract_x
_atom_site_fract_y
_atom_site_fract_z
Si Si1 0.333334 0.666667 0.423838
Si Si2 0.332326 0.865515 0.922523
Si Si3 0.468459 0.936918 0.576296
Si Si4 0.176135 0.234470 0.577654
Si Si5 0.456535 0.728268 0.920798
Si Si6 0.236980 0.880970 0.077456
O O1 0.333334 0.666667 0.250000
O O2 0.300098 0.600195 0.478357
O O3 0.324939 0.874516 0.750000
O O4 0.400304 0.899719 0.972672
O O5 0.303816 0.796922 0.960651
O O6 0.299115 0.891973 0.016611
O O7 0.473635 0.947269 0.750000
O O8 0.500000 0.000000 0.500000
O O9 0.183026 0.183026 0.500000
O O10 0.190156 0.237290 0.750000
O O11 0.109629 0.219257 0.547286
O O12 0.222741 0.296591 0.506127
O O13 0.437055 0.718528 0.750000
O O14 0.242498 0.895661 0.250000
O O15 0.186229 0.813772 0.044349
#
# Coordination Sequence:
#
# PCOD8330740 Si02
#       6
#     4  24  12  24  12  24
#     4  12  25  35  49  78 115 143 178 234 295 365
#     4  10  20  37  61  82 104 140 190 238 282 339
#     4  10  23  40  56  78 107 144 188 228 272 336
#     4  10  21  37  59  87 119 154 192 231 276 326
#     4  10  20  37  61  82 105 141 185 238 295 347
#     4  10  20  34  55  84 117 147 180 226 284 341
#
# _framework density 18.696968999999999
#
# number of rings (size 3 to 8) (size 9 to 14) (size 15 to 20)
#    0.000    1.920    1.200    2.520    0.000    7.200 
#    0.000    3.600    0.000    0.240    0.000    0.000 
#    0.000    0.000    0.000    0.000    0.000    0.000 
#
# Total GULP energy -1240499.768369 kJ/mol
# GULP energy per Si atom -12404.997684 kJ/mol
# Density = 1.865441 g / cm^3
# Si number density = 18.696969 Si / 1000 Ang^3
#
#
#
# Elastic Constant Matrix: (Units=GPa)
#
#
# Indices 1 2 3 4 5 6 
#
# 1 126.8684 75.7737 65.4649 0.0000 0.0000 0.0001
# 2 75.7737 126.8684 65.4649 0.0001 0.0000 0.0000
# 3 65.4649 65.4649 101.0984 0.0001 0.0000 0.0001
# 4 0.0000 0.0001 0.0001 31.7819 0.0000 0.0000
# 5 0.0000 0.0000 0.0000 0.0000 31.7819 0.0000
# 6 0.0001 0.0000 0.0001 0.0000 0.0000 25.5474
#
#
#
# Elastic Compliance Matrix: (Units=1/GPa)
#
#
# Indices 1 2 3 4 5 6 
#
# 1 0.014028 -0.005543 -0.005494 0.000000 0.000000 0.000000
# 2 -0.005543 0.014028 -0.005494 0.000000 0.000000 0.000000
# 3 -0.005494 -0.005494 0.017007 0.000000 0.000000 0.000000
# 4 0.000000 0.000000 0.000000 0.031464 0.000000 0.000000
# 5 0.000000 0.000000 0.000000 0.000000 0.031464 0.000000
# 6 0.000000 0.000000 0.000000 0.000000 0.000000 0.039143
#
#
# Mechanical properties :
#
#
# Convention : Reuss Voigt Hill
#
# Bulk Modulus (GPa) = 83.33713 85.36023 84.34868
# Shear Modulus (GPa) = 27.14474 27.69767 27.42121
#
# Velocity S-wave (km/s) = 3.81442 3.85307 3.83379
# Velocity P-wave (km/s) = 8.00431 8.09621 8.05039
#
# Compressibility (1/GPa) = 0.01199945
#
# Stress axis : x y z
#
# Youngs Moduli (GPa) = 71.28573 71.28570 58.80062
#
# Poissons Ratio (x) = 0.39517 0.32306
# Poissons Ratio (y) = 0.39517 0.32306
# Poissons Ratio (z) = 0.39165 0.39165
#
# Static dielectric constant tensor:
#      x y z
#    x 3.448650 0.000000 0.000000 
#    y 0.000000 3.448660 0.000000 
#    z 0.000000 0.000000 3.406960 
# 
# 
# High freq. dielectric constant tensor:
#      x y z
#    x 1.725870 0.000000 0.000000 
#    y 0.000000 1.725870 0.000000 
#    z 0.000000 0.000000 1.728780 
# 
# From -- ./inp_files/1674.got.cif
#   From: 2010.03.12/outbox.cif.g09.slc.cpg/sg194_1_cif.got.tgz:1674.got - 2010.04.01 12:26:19.
