data_PCOD8330262
_publ_section_title
;
Structure prediction by ZEFSAII (Michael W. Deem and Ramdas Pophale) SiO2 
 PCOD8330262
Probable space group: P 63/M C M
;
_chemical_formula_sum "Si O2"
_cell_formula_units_Z 56
_cell_length_a 13.665665
_cell_length_b 13.665665
_cell_length_c 18.008337
_cell_angle_alpha 90.000000
_cell_angle_beta 90.000000
_cell_angle_gamma 120.000000
_cell_volume 2912.498976
_symmetry_space_group_name_H-M "P 63/M C M"
_symmetry_group_IT_number 193
_symmetry_cell_setting 'hexagonal'
loop_
_space_group_symop_operation_xyz
x,y,z
x-y,x,1/2+z
-y,x-y,z
-x,-y,1/2+z
-x+y,-x,z
y,-x+y,1/2+z
x-y,-y,1/2-z
-x,-x+y,1/2-z
y,x,1/2-z
-y,-x,-z
-x+y,y,-z
x,x-y,-z
-x,-y,-z
-x+y,-x,1/2-z
y,-x+y,-z
x,y,1/2-z
x-y,x,-z
-y,x-y,1/2-z
-x+y,y,1/2+z
x,x-y,1/2+z
-y,-x,1/2+z
y,x,z
x-y,-y,z
-x,-x+y,z
loop_
_atom_site_type_symbol
_atom_site_label
_atom_site_fract_x
_atom_site_fract_y
_atom_site_fract_z
Si Si1 0.874421 0.124678 0.161680
Si Si2 0.471924 0.130906 0.163345
Si Si3 0.666668 0.333335 0.912427
O O1 0.876710 0.122639 0.250000
O O2 0.838638 0.215502 0.136633
O O3 0.000000 0.163039 0.131734
O O4 0.786698 0.000000 0.129906
O O5 0.498944 0.157769 0.250000
O O6 0.584830 0.206803 0.117037
O O7 0.429917 0.000000 0.147307
O O8 0.666668 0.333334 0.000000
#
# Coordination Sequence:
#
# PCOD8330262 Si02
#       3
#    24  24   8
#     4   8  13  23  44  76 109 136 164 205 258 310
#     4   9  19  36  56  78 104 135 177 224 263 310
#     4  12  25  38  55  78 106 140 175 216 271 332
#
# _framework density 19.227474999999998
#
# number of rings (size 3 to 8) (size 9 to 14) (size 15 to 20)
#    0.000    3.000    0.000    4.286    0.000    4.286 
#    0.000    4.286    0.000    0.000    0.000    0.000 
#    0.000    8.571    0.000    0.000    0.000    0.000 
#
# Total GULP energy -694139.294315 kJ/mol
# GULP energy per Si atom -12395.344541 kJ/mol
# Density = 1.918371 g / cm^3
# Si number density = 19.227475 Si / 1000 Ang^3
#
#
#
# Elastic Constant Matrix: (Units=GPa)
#
#
# Indices 1 2 3 4 5 6 
#
# 1 101.7895 46.8505 43.5926 -0.0008 0.0008 -0.0001
# 2 46.8505 101.7876 43.5924 -0.0004 0.0011 0.0003
# 3 43.5926 43.5924 66.2472 -0.0004 -0.0021 0.0000
# 4 -0.0008 -0.0004 -0.0004 -7.3970 0.0008 -0.0002
# 5 0.0008 0.0011 -0.0021 0.0008 -7.3776 0.0002
# 6 -0.0001 0.0003 0.0000 -0.0002 0.0002 27.4692
#
#
#
# Elastic Compliance Matrix: (Units=1/GPa)
#
#
# Indices 1 2 3 4 5 6 
#
# 1 0.014579 -0.003623 -0.007210 -0.000001 0.000003 0.000000
# 2 -0.003623 0.014580 -0.007210 0.000000 0.000004 0.000000
# 3 -0.007210 -0.007210 0.024583 0.000000 -0.000009 0.000000
# 4 -0.000001 0.000000 0.000000 -0.135190 -0.000015 -0.000001
# 5 0.000003 0.000004 -0.000009 -0.000015 -0.135545 0.000001
# 6 0.000000 0.000000 0.000000 -0.000001 0.000001 0.036404
#
#
# Mechanical properties :
#
#
# Convention : Reuss Voigt Hill
#
# Bulk Modulus (GPa) = 56.63279 59.76617 58.19948
# Shear Modulus (GPa) = -36.07074 11.59148 -12.23963
#
# Velocity S-wave (km/s) = -4.33598 2.45798 -2.52577
# Velocity P-wave (km/s) = 2.10960 6.26153 4.67211
#
# Compressibility (1/GPa) = 0.01765762
#
# Stress axis : x y z
#
# Youngs Moduli (GPa) = 68.59030 68.58870 40.67777
#
# Poissons Ratio (x) = 0.24849 0.29327
# Poissons Ratio (y) = 0.24849 0.29328
# Poissons Ratio (z) = 0.49452 0.49452
#
# Static dielectric constant tensor:
#      x y z
#    x 3.683730 0.000000 0.000000 
#    y 0.000000 3.683730 0.000000 
#    z 0.000000 0.000000 2.857150 
# 
# 
# High freq. dielectric constant tensor:
#      x y z
#    x 1.753430 0.000000 0.000000 
#    y 0.000000 1.753430 0.000000 
#    z 0.000000 0.000000 1.678500 
# 
# From -- ./inp_files/2952.got.cif
#   From: 2010.03.12/outbox.cif.g09.slc.cpg/sg193_2_cif.got.tgz:2952.got - 2010.04.01 12:20:39.
