data_PCOD8330447
_publ_section_title
;
Structure prediction by ZEFSAII (Michael W. Deem and Ramdas Pophale) SiO2 
 PCOD8330447
Probable space group: P 63/M M C
;
_chemical_formula_sum "Si O2"
_cell_formula_units_Z 108
_cell_length_a 31.184365
_cell_length_b 31.184365
_cell_length_c 8.248467
_cell_angle_alpha 90.000000
_cell_angle_beta 90.000000
_cell_angle_gamma 120.000000
_cell_volume 6946.686231
_symmetry_space_group_name_H-M "P 63/M M C"
_symmetry_group_IT_number 194
_symmetry_cell_setting 'hexagonal'
loop_
_space_group_symop_operation_xyz
x,y,z
x-y,x,1/2+z
-y,x-y,z
-x,-y,1/2+z
-x+y,-x,z
y,-x+y,1/2+z
x-y,-y,-z
-x,-x+y,-z
y,x,-z
-y,-x,1/2-z
-x+y,y,1/2-z
x,x-y,1/2-z
-x,-y,-z
-x+y,-x,1/2-z
y,-x+y,-z
x,y,1/2-z
x-y,x,-z
-y,x-y,1/2-z
-x+y,y,z
x,x-y,z
-y,-x,z
y,x,1/2+z
x-y,-y,1/2+z
-x,-x+y,1/2+z
loop_
_atom_site_type_symbol
_atom_site_label
_atom_site_fract_x
_atom_site_fract_y
_atom_site_fract_z
Si Si1 0.508472 0.305181 0.430799
Si Si2 0.898646 0.203211 0.431396
Si Si3 0.566338 0.334188 0.750000
Si Si4 0.847730 0.593511 0.930963
Si Si5 0.053003 0.200896 0.061829
O O1 0.525975 0.330107 0.250000
O O2 0.511502 0.255751 0.434367
O O3 0.540741 0.338967 0.583282
O O4 0.451661 0.292077 0.455260
O O5 0.918203 0.218558 0.250000
O O6 0.845830 0.154170 0.437393
O O7 0.893649 0.247939 0.509725
O O8 0.938543 0.193996 0.524690
O O9 0.622590 0.377411 0.750000
O O10 0.564647 0.282324 0.750000
O O11 0.858897 0.582810 0.750000
O O12 0.798435 0.596870 0.933733
O O13 0.054374 0.194294 0.250000
O O14 0.097080 0.194159 0.981269
O O15 0.000000 0.158546 0.000000
#
# Coordination Sequence:
#
# PCOD8330447 Si02
#       5
#    24  24  12  24  24
#     4   9  16  26  39  54  72  96 129 171 218 267
#     4   9  16  25  39  61  86 110 136 168 204 246
#     4  10  19  30  40  52  70  98 138 184 229 268
#     4   9  14  22  37  57  80 103 128 163 205 250
#     4  10  20  33  48  66  88 116 149 185 221 257
#
# _framework density 15.546982
#
# number of rings (size 3 to 8) (size 9 to 14) (size 15 to 20)
#    0.000    2.667    1.111    2.111    0.000    7.111 
#    0.000    0.000    0.000    1.556    0.000    0.000 
#    0.000    0.000    0.000    0.000    0.000    1.111 
#
# Total GULP energy -1338097.878852 kJ/mol
# GULP energy per Si atom -12389.795175 kJ/mol
# Density = 1.551160 g / cm^3
# Si number density = 15.546982 Si / 1000 Ang^3
#
#
#
# Elastic Constant Matrix: (Units=GPa)
#
#
# Indices 1 2 3 4 5 6 
#
# 1 34.4650 33.4478 26.2202 0.0000 0.0000 0.0000
# 2 33.4478 34.4650 26.2202 0.0000 0.0000 0.0000
# 3 26.2202 26.2202 111.5286 0.0000 0.0000 0.0000
# 4 0.0000 0.0000 0.0000 17.3689 0.0000 0.0000
# 5 0.0000 0.0000 0.0000 0.0000 17.3689 0.0000
# 6 0.0000 0.0000 0.0000 0.0000 0.0000 0.5086
#
#
#
# Elastic Compliance Matrix: (Units=1/GPa)
#
#
# Indices 1 2 3 4 5 6 
#
# 1 0.500546 -0.482556 -0.004230 0.000000 0.000000 0.000000
# 2 -0.482556 0.500546 -0.004230 0.000000 0.000000 0.000000
# 3 -0.004230 -0.004230 0.010955 0.000000 0.000000 0.000000
# 4 0.000000 0.000000 0.000000 0.057574 0.000000 0.000000
# 5 0.000000 0.000000 0.000000 0.000000 0.057574 0.000000
# 6 0.000000 0.000000 0.000000 0.000000 0.000000 1.966205
#
#
# Mechanical properties :
#
#
# Convention : Reuss Voigt Hill
#
# Bulk Modulus (GPa) = 33.31318 39.13721 36.22519
# Shear Modulus (GPa) = 1.22386 13.35397 7.28892
#
# Velocity S-wave (km/s) = 0.88821 2.93395 2.16760
# Velocity P-wave (km/s) = 4.74614 6.05851 5.44203
#
# Compressibility (1/GPa) = 0.03001815
#
# Stress axis : x y z
#
# Youngs Moduli (GPa) = 1.99782 1.99782 91.28211
#
# Poissons Ratio (x) = 0.96406 0.38609
# Poissons Ratio (y) = 0.96406 0.38609
# Poissons Ratio (z) = 0.00845 0.00845
#
# Static dielectric constant tensor:
#      x y z
#    x 2.620610 0.000000 0.000000 
#    y 0.000000 2.620610 0.000000 
#    z 0.000000 0.000000 3.287460 
# 
# 
# High freq. dielectric constant tensor:
#      x y z
#    x 1.550130 0.000000 0.000000 
#    y 0.000000 1.550130 0.000000 
#    z 0.000000 0.000000 1.618960 
# 
# From -- ./inp_files/1888.got.cif
#   From: 2010.03.12/outbox.cif.g09.slc.cpg/sg194_1_cif.got.tgz:1888.got - 2010.04.01 12:26:19.
