data_PCOD8330126
_publ_section_title
;
Structure prediction by ZEFSAII (Michael W. Deem and Ramdas Pophale) SiO2 
 PCOD8330126
Probable space group: P 63/M C M
;
_chemical_formula_sum "Si O2"
_cell_formula_units_Z 72
_cell_length_a 21.754858
_cell_length_b 21.754858
_cell_length_c 9.269294
_cell_angle_alpha 90.000000
_cell_angle_beta 90.000000
_cell_angle_gamma 120.000000
_cell_volume 3799.179338
_symmetry_space_group_name_H-M "P 63/M C M"
_symmetry_group_IT_number 193
_symmetry_cell_setting 'hexagonal'
loop_
_space_group_symop_operation_xyz
x,y,z
x-y,x,1/2+z
-y,x-y,z
-x,-y,1/2+z
-x+y,-x,z
y,-x+y,1/2+z
x-y,-y,1/2-z
-x,-x+y,1/2-z
y,x,1/2-z
-y,-x,-z
-x+y,y,-z
x,x-y,-z
-x,-y,-z
-x+y,-x,1/2-z
y,-x+y,-z
x,y,1/2-z
x-y,x,-z
-y,x-y,1/2-z
-x+y,y,1/2+z
x,x-y,1/2+z
-y,-x,1/2+z
y,x,z
x-y,-y,z
-x,-x+y,z
loop_
_atom_site_type_symbol
_atom_site_label
_atom_site_fract_x
_atom_site_fract_y
_atom_site_fract_z
Si Si1 0.916646 0.077764 0.750000
Si Si2 0.263942 0.131971 0.000000
Si Si3 0.599436 0.740813 0.919278
Si Si4 0.515808 0.598835 0.087945
O O1 0.871467 0.082234 0.620181
O O2 0.000000 0.136992 0.750000
O O3 0.909097 0.000000 0.750000
O O4 0.314869 0.212671 0.058289
O O5 0.580167 0.730779 0.750000
O O6 0.563865 0.781933 0.000000
O O7 0.571051 0.666226 0.996506
O O8 0.503497 0.619667 0.250000
O O9 0.546729 0.546729 0.103443
O O10 0.441452 0.558549 0.000000
#
# Coordination Sequence:
#
# PCOD8330126 Si02
#       4
#    12  12  24  24
#     4  12  25  42  60  82 114 156 210 270 334 400
#     4  10  22  42  59  86 114 154 204 258 320 382
#     4  10  20  38  57  86 116 153 198 248 302 356
#     4  10  21  36  57  87 122 159 194 235 291 353
#
# _framework density 18.951460000000001
#
# number of rings (size 3 to 8) (size 9 to 14) (size 15 to 20)
#    1.000    0.667    1.667    3.167    2.333    4.667 
#    0.000    1.667    0.000    0.667    0.000    4.667 
#    0.000    0.000    0.000    0.000    0.000    0.000 
#
# Total GULP energy -892050.274249 kJ/mol
# GULP energy per Si atom -12389.587142 kJ/mol
# Density = 1.890833 g / cm^3
# Si number density = 18.951460 Si / 1000 Ang^3
#
#
#
# Elastic Constant Matrix: (Units=GPa)
#
#
# Indices 1 2 3 4 5 6 
#
# 1 72.9561 23.7875 39.6431 0.0000 0.0000 0.0000
# 2 23.7875 72.9561 39.6431 0.0000 0.0000 0.0000
# 3 39.6431 39.6431 191.3564 0.0000 0.0000 0.0000
# 4 0.0000 0.0000 0.0000 26.1052 0.0000 0.0000
# 5 0.0000 0.0000 0.0000 0.0000 26.1052 0.0000
# 6 0.0000 0.0000 0.0000 0.0000 0.0000 24.5843
#
#
#
# Elastic Compliance Matrix: (Units=1/GPa)
#
#
# Indices 1 2 3 4 5 6 
#
# 1 0.016394 -0.003944 -0.002579 0.000000 0.000000 0.000000
# 2 -0.003944 0.016394 -0.002579 0.000000 0.000000 0.000000
# 3 -0.002579 -0.002579 0.006295 0.000000 0.000000 0.000000
# 4 0.000000 0.000000 0.000000 0.038307 0.000000 0.000000
# 5 0.000000 0.000000 0.000000 0.000000 0.038307 0.000000
# 6 0.000000 0.000000 0.000000 0.000000 0.000000 0.040676
#
#
# Mechanical properties :
#
#
# Convention : Reuss Voigt Hill
#
# Bulk Modulus (GPa) = 47.89694 60.37955 54.13824
# Shear Modulus (GPa) = 27.54255 30.97193 29.25724
#
# Velocity S-wave (km/s) = 3.81638 4.04700 3.93338
# Velocity P-wave (km/s) = 6.68940 7.33259 7.01837
#
# Compressibility (1/GPa) = 0.02087816
#
# Stress axis : x y z
#
# Youngs Moduli (GPa) = 60.99660 60.99660 158.86701
#
# Poissons Ratio (x) = 0.24056 0.40977
# Poissons Ratio (y) = 0.24056 0.40977
# Poissons Ratio (z) = 0.15733 0.15733
#
# Static dielectric constant tensor:
#      x y z
#    x 3.226390 0.000000 0.000000 
#    y 0.000000 3.226390 0.000000 
#    z 0.000000 0.000000 3.644440 
# 
# 
# High freq. dielectric constant tensor:
#      x y z
#    x 1.713230 0.000000 0.000000 
#    y 0.000000 1.713230 0.000000 
#    z 0.000000 0.000000 1.764140 
# 
# From -- ./inp_files/840.got.cif
#   From: 2010.03.12/outbox.cif.g09.slc.cpg/sg193_1_cif.got.tgz:840.got - 2010.04.01 12:20:39.
