data_PCOD8330485
_publ_section_title
;
Structure prediction by ZEFSAII (Michael W. Deem and Ramdas Pophale) SiO2 
 PCOD8330485
Probable space group: P 63/M M C
;
_chemical_formula_sum "Si O2"
_cell_formula_units_Z 168
_cell_length_a 22.272428
_cell_length_b 22.272428
_cell_length_c 21.719134
_cell_angle_alpha 90.000000
_cell_angle_beta 90.000000
_cell_angle_gamma 120.000000
_cell_volume 9330.571900
_symmetry_space_group_name_H-M "P 63/M M C"
_symmetry_group_IT_number 194
_symmetry_cell_setting 'hexagonal'
loop_
_space_group_symop_operation_xyz
x,y,z
x-y,x,1/2+z
-y,x-y,z
-x,-y,1/2+z
-x+y,-x,z
y,-x+y,1/2+z
x-y,-y,-z
-x,-x+y,-z
y,x,-z
-y,-x,1/2-z
-x+y,y,1/2-z
x,x-y,1/2-z
-x,-y,-z
-x+y,-x,1/2-z
y,-x+y,-z
x,y,1/2-z
x-y,x,-z
-y,x-y,1/2-z
-x+y,y,z
x,x-y,z
-y,-x,z
y,x,1/2+z
x-y,-y,1/2+z
-x,-x+y,1/2+z
loop_
_atom_site_type_symbol
_atom_site_label
_atom_site_fract_x
_atom_site_fract_y
_atom_site_fract_z
Si Si1 0.926824 0.719280 0.516234
Si Si2 0.605624 0.530940 0.920228
Si Si3 0.719521 0.976763 0.141676
Si Si4 0.136467 0.135882 0.321838
Si Si5 0.747315 0.629519 0.104926
Si Si6 0.610969 0.525298 0.438694
Si Si7 0.137937 0.722860 0.318280
O O1 0.872072 0.744144 0.530391
O O2 0.941152 0.684793 0.575847
O O3 0.900086 0.662524 0.462889
O O4 0.000000 0.787670 0.500000
O O5 0.541921 0.458080 0.899092
O O6 0.581511 0.587926 0.922437
O O7 0.664593 0.547139 0.870025
O O8 0.628095 0.524539 0.989317
O O9 0.664886 0.923805 0.190453
O O10 0.793666 0.981711 0.143828
O O11 0.730434 0.053699 0.150136
O O12 0.153666 0.147709 0.250000
O O13 0.147274 0.073637 0.346700
O O14 0.057787 0.115573 0.335212
O O15 0.812905 0.625809 0.131444
O O16 0.681862 0.551307 0.099873
O O17 0.551611 0.448390 0.417967
O O18 0.146666 0.697897 0.250000
O O19 0.209087 0.790914 0.338532
#
# Coordination Sequence:
#
# PCOD8330485 Si02
#       7
#    24  24  24  24  24  24  24
#     4   9  18  28  42  62  88 121 157 201 252 304
#     4   9  18  33  53  75 101 132 168 213 262 311
#     4  11  19  31  46  65  96 128 164 208 258 302
#     4  10  20  33  47  61  80 114 164 217 262 301
#     4  10  19  30  48  74 101 130 162 198 248 308
#     4   9  17  31  53  78 101 128 164 210 264 315
#     4  11  22  33  49  75 107 144 182 217 256 304
#
# _framework density 18.005327000000001
#
# number of rings (size 3 to 8) (size 9 to 14) (size 15 to 20)
#    0.000    2.143    1.429    4.000    4.000    4.286 
#    0.000    0.000    0.000    0.714    0.000    0.000 
#    0.000    0.000    0.000    0.000    0.000    2.857 
#
# Total GULP energy -2082164.438906 kJ/mol
# GULP energy per Si atom -12393.835946 kJ/mol
# Density = 1.796435 g / cm^3
# Si number density = 18.005327 Si / 1000 Ang^3
#
#
#
# Elastic Constant Matrix: (Units=GPa)
#
#
# Indices 1 2 3 4 5 6 
#
# 1 94.3065 37.7281 23.2380 0.0000 0.0000 0.0000
# 2 37.7281 94.3065 23.2380 0.0000 0.0000 0.0000
# 3 23.2380 23.2380 50.5008 0.0000 0.0000 0.0000
# 4 0.0000 0.0000 0.0000 21.0321 0.0000 0.0000
# 5 0.0000 0.0000 0.0000 0.0000 21.0321 0.0000
# 6 0.0000 0.0000 0.0000 0.0000 0.0000 28.2892
#
#
#
# Elastic Compliance Matrix: (Units=1/GPa)
#
#
# Indices 1 2 3 4 5 6 
#
# 1 0.013356 -0.004318 -0.004159 0.000000 0.000000 0.000000
# 2 -0.004318 0.013356 -0.004159 0.000000 0.000000 0.000000
# 3 -0.004159 -0.004159 0.023629 0.000000 0.000000 0.000000
# 4 0.000000 0.000000 0.000000 0.047546 0.000000 0.000000
# 5 0.000000 0.000000 0.000000 0.000000 0.047546 0.000000
# 6 0.000000 0.000000 0.000000 0.000000 0.000000 0.035349
#
#
# Mechanical properties :
#
#
# Convention : Reuss Voigt Hill
#
# Bulk Modulus (GPa) = 39.88917 45.28020 42.58469
# Shear Modulus (GPa) = 23.31968 24.39799 23.85883
#
# Velocity S-wave (km/s) = 3.60273 3.68508 3.64414
# Velocity P-wave (km/s) = 6.28557 6.58098 6.43497
#
# Compressibility (1/GPa) = 0.02506946
#
# Stress axis : x y z
#
# Youngs Moduli (GPa) = 74.87211 74.87211 42.32105
#
# Poissons Ratio (x) = 0.32333 0.17600
# Poissons Ratio (y) = 0.32333 0.17600
# Poissons Ratio (z) = 0.31137 0.31137
#
# Static dielectric constant tensor:
#      x y z
#    x 3.292590 0.000000 0.000000 
#    y 0.000000 3.292590 0.000000 
#    z 0.000000 0.000000 3.184270 
# 
# 
# High freq. dielectric constant tensor:
#      x y z
#    x 1.684950 0.000000 0.000000 
#    y 0.000000 1.684950 0.000000 
#    z 0.000000 0.000000 1.676470 
# 
# From -- ./inp_files/9821.got.cif
#   From: 2010.03.12/outbox.cif.g09.slc.cpg/sg194_5_cif.got.tgz:9821.got - 2010.04.01 12:26:19.
