data_PCOD8330727
_publ_section_title
;
Structure prediction by ZEFSAII (Michael W. Deem and Ramdas Pophale) SiO2 
 PCOD8330727
Probable space group: P 63/M M C
;
_chemical_formula_sum "Si O2"
_cell_formula_units_Z 144
_cell_length_a 30.114239
_cell_length_b 30.114239
_cell_length_c 9.218597
_cell_angle_alpha 90.000000
_cell_angle_beta 90.000000
_cell_angle_gamma 120.000000
_cell_volume 7240.011352
_symmetry_space_group_name_H-M "P 63/M M C"
_symmetry_group_IT_number 194
_symmetry_cell_setting 'hexagonal'
loop_
_space_group_symop_operation_xyz
x,y,z
x-y,x,1/2+z
-y,x-y,z
-x,-y,1/2+z
-x+y,-x,z
y,-x+y,1/2+z
x-y,-y,-z
-x,-x+y,-z
y,x,-z
-y,-x,1/2-z
-x+y,y,1/2-z
x,x-y,1/2-z
-x,-y,-z
-x+y,-x,1/2-z
y,-x+y,-z
x,y,1/2-z
x-y,x,-z
-y,x-y,1/2-z
-x+y,y,z
x,x-y,z
-y,-x,z
y,x,1/2+z
x-y,-y,1/2+z
-x,-x+y,1/2+z
loop_
_atom_site_type_symbol
_atom_site_label
_atom_site_fract_x
_atom_site_fract_y
_atom_site_fract_z
Si Si1 0.562734 0.229449 0.080426
Si Si2 0.428589 0.955428 0.592582
Si Si3 0.485292 0.354706 0.579812
Si Si4 0.688916 0.794356 0.919004
Si Si5 0.194971 0.047812 0.089668
Si Si6 0.365580 0.054513 0.579845
O O1 0.551059 0.216697 0.250000
O O2 0.614521 0.229041 0.035268
O O3 0.570624 0.285312 0.044352
O O4 0.513609 0.187543 0.988873
O O5 0.401044 0.948528 0.750000
O O6 0.488094 0.976188 0.623719
O O7 0.408032 0.902167 0.505240
O O8 0.425242 0.000000 0.500000
O O9 0.497743 0.362332 0.750000
O O10 0.424855 0.329352 0.546503
O O11 0.682510 0.778003 0.750000
O O12 0.667576 0.833788 0.942930
O O13 0.747551 0.821789 0.970651
O O14 0.661145 0.746404 0.023003
O O15 0.195390 0.028246 0.250000
O O16 0.173996 0.086998 0.086899
O O17 0.155178 0.000000 0.000000
O O18 0.355489 0.043513 0.750000
O O19 0.344267 0.000000 0.500000
#
# Coordination Sequence:
#
# PCOD8330727 Si02
#       6
#    24  24  24  24  24  24
#     4  10  22  42  68  95 121 151 190 239 298 366
#     4  10  20  34  54  80 109 142 181 224 269 319
#     4  11  24  39  56  82 116 152 190 234 284 340
#     4   9  19  36  57  81 110 145 187 238 294 348
#     4   9  18  32  50  75 105 134 170 218 268 320
#     4  11  24  39  56  81 116 159 205 251 296 348
#
# _framework density 19.889472000000001
#
# number of rings (size 3 to 8) (size 9 to 14) (size 15 to 20)
#    0.000    2.000    0.000    4.167    0.000   11.667 
#    0.000    5.000    0.000    1.167    0.000    0.000 
#    0.000    0.000    0.000    0.000    0.000    0.000 
#
# Total GULP energy -1784383.960690 kJ/mol
# GULP energy per Si atom -12391.555283 kJ/mol
# Density = 1.984420 g / cm^3
# Si number density = 19.889472 Si / 1000 Ang^3
#
#
#
# Elastic Constant Matrix: (Units=GPa)
#
#
# Indices 1 2 3 4 5 6 
#
# 1 106.5620 58.0816 64.9195 0.0000 0.0000 0.0000
# 2 58.0816 106.5620 64.9195 0.0000 0.0000 0.0000
# 3 64.9195 64.9195 127.6891 0.0000 0.0000 0.0000
# 4 0.0000 0.0000 0.0000 32.1699 0.0000 0.0000
# 5 0.0000 0.0000 0.0000 0.0000 32.1699 0.0000
# 6 0.0000 0.0000 0.0000 0.0000 0.0000 24.2402
#
#
#
# Elastic Compliance Matrix: (Units=1/GPa)
#
#
# Indices 1 2 3 4 5 6 
#
# 1 0.015383 -0.005244 -0.005155 0.000000 0.000000 0.000000
# 2 -0.005244 0.015383 -0.005155 0.000000 0.000000 0.000000
# 3 -0.005155 -0.005155 0.013073 0.000000 0.000000 0.000000
# 4 0.000000 0.000000 0.000000 0.031085 0.000000 0.000000
# 5 0.000000 0.000000 0.000000 0.000000 0.031085 0.000000
# 6 0.000000 0.000000 0.000000 0.000000 0.000000 0.041254
#
#
# Mechanical properties :
#
#
# Convention : Reuss Voigt Hill
#
# Bulk Modulus (GPa) = 78.54441 79.62825 79.08633
# Shear Modulus (GPa) = 27.38024 27.90883 27.64454
#
# Velocity S-wave (km/s) = 3.71431 3.74999 3.73219
# Velocity P-wave (km/s) = 7.61387 7.67282 7.64340
#
# Compressibility (1/GPa) = 0.01273165
#
# Stress axis : x y z
#
# Youngs Moduli (GPa) = 65.00752 65.00752 76.49322
#
# Poissons Ratio (x) = 0.34090 0.39430
# Poissons Ratio (y) = 0.34090 0.39430
# Poissons Ratio (z) = 0.33510 0.33510
#
# Static dielectric constant tensor:
#      x y z
#    x 3.596360 0.000000 0.000000 
#    y 0.000000 3.596360 0.000000 
#    z 0.000000 0.000000 3.803690 
# 
# 
# High freq. dielectric constant tensor:
#      x y z
#    x 1.771860 0.000000 0.000000 
#    y 0.000000 1.771860 0.000000 
#    z 0.000000 0.000000 1.780930 
# 
# From -- ./inp_files/2113.got.cif
#   From: 2010.03.12/outbox.cif.g09.slc.cpg/sg194_2_cif.got.tgz:2113.got - 2010.04.01 12:26:19.
