data_PCOD8330163
_publ_section_title
;
Structure prediction by ZEFSAII (Michael W. Deem and Ramdas Pophale) SiO2 
 PCOD8330163
Probable space group: P 63/M C M
;
_chemical_formula_sum "Si O2"
_cell_formula_units_Z 120
_cell_length_a 20.475760
_cell_length_b 20.475760
_cell_length_c 16.468639
_cell_angle_alpha 90.000000
_cell_angle_beta 90.000000
_cell_angle_gamma 120.000000
_cell_volume 5979.548632
_symmetry_space_group_name_H-M "P 63/M C M"
_symmetry_group_IT_number 193
_symmetry_cell_setting 'hexagonal'
loop_
_space_group_symop_operation_xyz
x,y,z
x-y,x,1/2+z
-y,x-y,z
-x,-y,1/2+z
-x+y,-x,z
y,-x+y,1/2+z
x-y,-y,1/2-z
-x,-x+y,1/2-z
y,x,1/2-z
-y,-x,-z
-x+y,y,-z
x,x-y,-z
-x,-y,-z
-x+y,-x,1/2-z
y,-x+y,-z
x,y,1/2-z
x-y,x,-z
-y,x-y,1/2-z
-x+y,y,1/2+z
x,x-y,1/2+z
-y,-x,1/2+z
y,x,z
x-y,-y,z
-x,-x+y,z
loop_
_atom_site_type_symbol
_atom_site_label
_atom_site_fract_x
_atom_site_fract_y
_atom_site_fract_z
Si Si1 0.084591 0.914462 0.402839
Si Si2 0.250885 0.497145 0.403919
Si Si3 0.476311 0.476311 0.841429
Si Si4 0.814473 0.666228 0.406705
Si Si5 0.416640 0.579671 0.653917
Si Si6 0.000000 0.677989 0.843160
O O1 0.085305 0.914696 0.500000
O O2 0.119159 0.863526 0.368159
O O3 0.000000 0.879159 0.369240
O O4 0.134006 0.000000 0.370250
O O5 0.247304 0.494607 0.500000
O O6 0.215376 0.411548 0.368088
O O7 0.335881 0.546495 0.376160
O O8 0.203125 0.533771 0.372703
O O9 0.502811 0.502811 0.750000
O O10 0.540692 0.463028 0.883277
O O11 0.399032 0.399032 0.842605
O O12 0.833325 0.666650 0.500000
O O13 0.736998 0.665808 0.394476
O O14 0.418286 0.577143 0.750000
O O15 0.000000 0.704482 0.750000
#
# Coordination Sequence:
#
# PCOD8330163 Si02
#       6
#    24  24  12  24  24  12
#     4   9  16  28  50  81 114 148 191 238 280 333
#     4  11  23  39  57  87 124 157 196 252 313 369
#     4   9  20  38  62  88 116 149 205 263 305 364
#     4  10  21  36  58  90 124 158 200 251 307 370
#     4  11  22  40  64  87 114 158 206 253 310 375
#     4  11  20  38  67  93 119 160 217 271 303 360
#
# _framework density 20.068404999999998
#
# number of rings (size 3 to 8) (size 9 to 14) (size 15 to 20)
#    0.000    1.800    3.000    1.800    1.400    1.600 
#    1.800    3.000    0.000    0.600    0.000    0.000 
#    0.000    0.000    0.000    0.000    0.000    0.000 
#
# Total GULP energy -1486998.261670 kJ/mol
# GULP energy per Si atom -12391.652181 kJ/mol
# Density = 2.002273 g / cm^3
# Si number density = 20.068405 Si / 1000 Ang^3
#
#
#
# Elastic Constant Matrix: (Units=GPa)
#
#
# Indices 1 2 3 4 5 6 
#
# 1 155.1312 67.0997 24.0442 0.0000 0.0000 0.0000
# 2 67.0997 155.1312 24.0442 0.0000 0.0000 0.0000
# 3 24.0442 24.0442 46.6061 0.0000 0.0000 0.0000
# 4 0.0000 0.0000 0.0000 -21.5923 0.0000 0.0000
# 5 0.0000 0.0000 0.0000 0.0000 -21.5923 0.0000
# 6 0.0000 0.0000 0.0000 0.0000 0.0000 44.0157
#
#
#
# Elastic Compliance Matrix: (Units=1/GPa)
#
#
# Indices 1 2 3 4 5 6 
#
# 1 0.008212 -0.003147 -0.002613 0.000000 0.000000 0.000000
# 2 -0.003147 0.008212 -0.002613 0.000000 0.000000 0.000000
# 3 -0.002613 -0.002613 0.024153 0.000000 0.000000 0.000000
# 4 0.000000 0.000000 0.000000 -0.046313 0.000000 0.000000
# 5 0.000000 0.000000 0.000000 0.000000 -0.046313 0.000000
# 6 0.000000 0.000000 0.000000 0.000000 0.000000 0.022719
#
#
# Mechanical properties :
#
#
# Convention : Reuss Voigt Hill
#
# Bulk Modulus (GPa) = 41.96302 65.24943 53.60623
# Shear Modulus (GPa) = -1077.94025 16.27826 -530.83099
#
# Velocity S-wave (km/s) = -23.20127 2.85114 -16.28143
# Velocity P-wave (km/s) = 26.39653 6.58959 18.07421
#
# Compressibility (1/GPa) = 0.02383050
#
# Stress axis : x y z
#
# Youngs Moduli (GPa) = 121.76658 121.76658 41.40323
#
# Poissons Ratio (x) = 0.38322 0.10819
# Poissons Ratio (y) = 0.38322 0.10819
# Poissons Ratio (z) = 0.31820 0.31820
#
# Static dielectric constant tensor:
#      x y z
#    x 3.956620 0.000000 0.000000 
#    y 0.000000 3.956620 0.000000 
#    z 0.000000 0.000000 3.404520 
# 
# 
# High freq. dielectric constant tensor:
#      x y z
#    x 1.798880 0.000000 0.000000 
#    y 0.000000 1.798880 0.000000 
#    z 0.000000 0.000000 1.746230 
# 
# From -- ./inp_files/5400.got.cif
#   From: 2010.03.12/outbox.cif.g09.slc.cpg/sg193_3_cif.got.tgz:5400.got - 2010.04.01 12:20:39.
