data_PCOD8330871
_publ_section_title
;
Structure prediction by ZEFSAII (Michael W. Deem and Ramdas Pophale) SiO2 
 PCOD8330871
Probable space group: P 2 3
;
_chemical_formula_sum "Si O2"
_cell_formula_units_Z 84
_cell_length_a 18.369868
_cell_length_b 18.369868
_cell_length_c 18.369868
_cell_angle_alpha 90.000000
_cell_angle_beta 90.000000
_cell_angle_gamma 90.000000
_cell_volume 6198.949621
_symmetry_space_group_name_H-M "P 2 3"
_symmetry_group_IT_number 195
_symmetry_cell_setting 'cubic'
loop_
_space_group_symop_operation_xyz
x,y,z
z,x,y
y,z,x
-y,-z,x
z,-x,-y
-y,z,-x
-z,-x,y
-z,x,-y
y,-z,-x
-x,-y,z
x,-y,-z
-x,y,-z
loop_
_atom_site_type_symbol
_atom_site_label
_atom_site_fract_x
_atom_site_fract_y
_atom_site_fract_z
Si Si1 0.915883 0.314053 0.417823
Si Si2 0.713703 0.084652 0.416365
Si Si3 0.159512 0.415172 0.857433
Si Si4 0.084652 0.583635 0.713703
Si Si5 0.417823 0.915883 0.685947
Si Si6 0.857433 0.840488 0.415172
Si Si7 0.586518 0.000000 0.916898
O O1 0.894087 0.376042 0.360839
O O2 0.864268 0.245424 0.401659
O O3 0.902579 0.343280 0.500000
O O4 0.000000 0.289747 0.409240
O O5 0.781433 0.129774 0.382008
O O6 0.700462 0.105386 0.500000
O O7 0.732410 1.000000 0.406918
O O8 0.139815 0.500000 0.856233
O O9 0.119618 0.379706 0.927379
O O10 0.105913 0.623958 0.639161
O O11 0.129774 0.617992 0.781433
O O12 0.401659 0.864268 0.754576
O O13 0.927379 0.880382 0.379706
O O14 0.500000 0.000000 0.905951
O O15 0.610304 0.000000 0.000000
#
# Coordination Sequence:
#
# PCOD8330871 Si02
#       7
#    12  12  12  12  12  12  12
#     4   9  16  27  41  55  75 103 129 154 188 228
#     4   9  17  27  39  56  77  99 126 161 191 219
#     4   9  15  25  38  54  76  99 124 155 188 221
#     4   9  17  27  39  56  77  99 126 161 191 219
#     4   9  16  27  41  55  75 103 129 154 188 228
#     4   9  15  25  38  54  76  99 124 155 188 221
#     4   9  14  20  36  58  75  95 123 152 184 221
#
# _framework density 13.550682
#
# number of rings (size 3 to 8) (size 9 to 14) (size 15 to 20)
#    0.000    3.000    1.429    0.857    0.000    4.000 
#    1.714    2.857    0.000    0.000    0.000    0.000 
#    0.000    0.000    0.000    0.000    0.000    0.000 
#
# Total GULP energy -1041214.553569 kJ/mol
# GULP energy per Si atom -12395.411352 kJ/mol
# Density = 1.351984 g / cm^3
# Si number density = 13.550682 Si / 1000 Ang^3
#
#
#
# Elastic Constant Matrix: (Units=GPa)
#
#
# Indices 1 2 3 4 5 6 
#
# 1 73.1396 42.5995 42.5995 0.0000 0.0000 0.0000
# 2 42.5995 73.1396 42.5995 0.0000 0.0000 0.0000
# 3 42.5995 42.5995 73.1396 0.0000 0.0000 0.0000
# 4 0.0000 0.0000 0.0000 12.8173 0.0000 0.0000
# 5 0.0000 0.0000 0.0000 0.0000 12.8173 0.0000
# 6 0.0000 0.0000 0.0000 0.0000 0.0000 12.8173
#
#
#
# Elastic Compliance Matrix: (Units=1/GPa)
#
#
# Indices 1 2 3 4 5 6 
#
# 1 0.023934 -0.008809 -0.008809 0.000000 0.000000 0.000000
# 2 -0.008809 0.023934 -0.008809 0.000000 0.000000 0.000000
# 3 -0.008809 -0.008809 0.023934 0.000000 0.000000 0.000000
# 4 0.000000 0.000000 0.000000 0.078020 0.000000 0.000000
# 5 0.000000 0.000000 0.000000 0.000000 0.078020 0.000000
# 6 0.000000 0.000000 0.000000 0.000000 0.000000 0.078020
#
#
# Mechanical properties :
#
#
# Convention : Reuss Voigt Hill
#
# Bulk Modulus (GPa) = 52.77949 52.77949 52.77949
# Shear Modulus (GPa) = 13.69732 13.79837 13.74785
#
# Velocity S-wave (km/s) = 3.18279 3.19451 3.18866
# Velocity P-wave (km/s) = 7.24853 7.25540 7.25196
#
# Compressibility (1/GPa) = 0.01894675
#
# Stress axis : x y z
#
# Youngs Moduli (GPa) = 41.78083 41.78083 41.78083
#
# Poissons Ratio (x) = 0.36806 0.36806
# Poissons Ratio (y) = 0.36806 0.36806
# Poissons Ratio (z) = 0.36806 0.36806
#
# Static dielectric constant tensor:
#      x y z
#    x 2.595680 0.000000 0.000000 
#    y 0.000000 2.595680 0.000000 
#    z 0.000000 0.000000 2.595680 
# 
# 
# High freq. dielectric constant tensor:
#      x y z
#    x 1.497800 0.000000 0.000000 
#    y 0.000000 1.497800 0.000000 
#    z 0.000000 0.000000 1.497800 
# 
# From -- ./inp_files/463.got.cif
#   From: 2010.03.12/outbox.cif.g09.slc.cpg/sg195_cif.got.tgz:463.got - 2010.04.01 12:33:13.
