data_PCOD8330476
_publ_section_title
;
Structure prediction by ZEFSAII (Michael W. Deem and Ramdas Pophale) SiO2 
 PCOD8330476
Probable space group: P 63/M M C
;
_chemical_formula_sum "Si O2"
_cell_formula_units_Z 120
_cell_length_a 22.083364
_cell_length_b 22.083364
_cell_length_c 17.893191
_cell_angle_alpha 90.000000
_cell_angle_beta 90.000000
_cell_angle_gamma 120.000000
_cell_volume 7556.990765
_symmetry_space_group_name_H-M "P 63/M M C"
_symmetry_group_IT_number 194
_symmetry_cell_setting 'hexagonal'
loop_
_space_group_symop_operation_xyz
x,y,z
x-y,x,1/2+z
-y,x-y,z
-x,-y,1/2+z
-x+y,-x,z
y,-x+y,1/2+z
x-y,-y,-z
-x,-x+y,-z
y,x,-z
-y,-x,1/2-z
-x+y,y,1/2-z
x,x-y,1/2-z
-x,-y,-z
-x+y,-x,1/2-z
y,-x+y,-z
x,y,1/2-z
x-y,x,-z
-y,x-y,1/2-z
-x+y,y,z
x,x-y,z
-y,-x,z
y,x,1/2+z
x-y,-y,1/2+z
-x,-x+y,1/2+z
loop_
_atom_site_type_symbol
_atom_site_label
_atom_site_fract_x
_atom_site_fract_y
_atom_site_fract_z
Si Si1 0.104880 0.620874 0.665608
Si Si2 0.732016 0.796812 0.953470
Si Si3 0.320693 0.996590 0.836549
Si Si4 0.128452 0.735194 0.432712
Si Si5 0.527471 0.193493 0.476016
O O1 0.133004 0.645288 0.750000
O O2 0.075147 0.537574 0.656315
O O3 0.043844 0.637392 0.646717
O O4 0.168634 0.663753 0.609147
O O5 0.755308 0.877654 0.937993
O O6 0.716313 0.755191 0.875691
O O7 0.793336 0.793336 0.000000
O O8 0.661303 0.757941 0.000164
O O9 0.305411 0.998674 0.750000
O O10 0.371344 0.074998 0.864694
O O11 0.198551 0.801450 0.401531
O O12 0.144557 0.677240 0.465910
O O13 0.594692 0.189383 0.500614
O O14 0.545177 0.272589 0.480889
#
# Coordination Sequence:
#
# PCOD8330476 Si02
#       5
#    24  24  24  24  24
#     4   9  18  30  43  64  95 126 156 194 240 289
#     4   9  17  31  49  70  97 127 158 191 231 278
#     4  10  19  30  47  71  96 123 157 196 237 284
#     4   9  18  32  47  66  94 125 156 193 239 285
#     4  10  19  31  47  66  89 122 165 207 244 283
#
# _framework density 15.879336
#
# number of rings (size 3 to 8) (size 9 to 14) (size 15 to 20)
#    0.000    2.600    2.000    0.200    0.000    2.000 
#    0.000    4.000    0.000    1.400    0.000    0.000 
#    0.000    1.600    0.000    0.600    0.000    0.000 
#
# Total GULP energy -1487829.871522 kJ/mol
# GULP energy per Si atom -12398.582263 kJ/mol
# Density = 1.584319 g / cm^3
# Si number density = 15.879336 Si / 1000 Ang^3
#
#
#
# Elastic Constant Matrix: (Units=GPa)
#
#
# Indices 1 2 3 4 5 6 
#
# 1 97.7575 55.3811 46.8494 0.0000 0.0000 0.0000
# 2 55.3811 97.7575 46.8494 0.0000 0.0000 0.0000
# 3 46.8494 46.8494 81.5500 0.0000 0.0000 0.0000
# 4 0.0000 0.0000 0.0000 20.4764 0.0000 0.0000
# 5 0.0000 0.0000 0.0000 0.0000 20.4764 0.0000
# 6 0.0000 0.0000 0.0000 0.0000 0.0000 21.1882
#
#
#
# Elastic Compliance Matrix: (Units=1/GPa)
#
#
# Indices 1 2 3 4 5 6 
#
# 1 0.016834 -0.006764 -0.005785 0.000000 0.000000 0.000000
# 2 -0.006764 0.016834 -0.005785 0.000000 0.000000 0.000000
# 3 -0.005785 -0.005785 0.018909 0.000000 0.000000 0.000000
# 4 0.000000 0.000000 0.000000 0.048837 0.000000 0.000000
# 5 0.000000 0.000000 0.000000 0.000000 0.048837 0.000000
# 6 0.000000 0.000000 0.000000 0.000000 0.000000 0.047196
#
#
# Mechanical properties :
#
#
# Convention : Reuss Voigt Hill
#
# Bulk Modulus (GPa) = 62.85823 63.91384 63.38603
# Shear Modulus (GPa) = 20.88409 20.96053 20.92231
#
# Velocity S-wave (km/s) = 3.63047 3.63711 3.63379
# Velocity P-wave (km/s) = 7.56601 7.61414 7.59011
#
# Compressibility (1/GPa) = 0.01590882
#
# Stress axis : x y z
#
# Youngs Moduli (GPa) = 59.40439 59.40439 52.88497
#
# Poissons Ratio (x) = 0.40183 0.30593
# Poissons Ratio (y) = 0.40183 0.30593
# Poissons Ratio (z) = 0.34364 0.34364
#
# Static dielectric constant tensor:
#      x y z
#    x 3.080600 0.000000 0.000000 
#    y 0.000000 3.080600 0.000000 
#    z 0.000000 0.000000 2.910290 
# 
# 
# High freq. dielectric constant tensor:
#      x y z
#    x 1.603660 0.000000 0.000000 
#    y 0.000000 1.603660 0.000000 
#    z 0.000000 0.000000 1.601200 
# 
# From -- ./inp_files/5043.got.cif
#   From: 2010.03.12/outbox.cif.g09.slc.cpg/sg194_3_cif.got.tgz:5043.got - 2010.04.01 12:26:19.
