data_PCOD8330753
_publ_section_title
;
Structure prediction by ZEFSAII (Michael W. Deem and Ramdas Pophale) SiO2 
 PCOD8330753
Probable space group: P 63/M M C
;
_chemical_formula_sum "Si O2"
_cell_formula_units_Z 88
_cell_length_a 25.406454
_cell_length_b 25.406454
_cell_length_c 8.895223
_cell_angle_alpha 90.000000
_cell_angle_beta 90.000000
_cell_angle_gamma 120.000000
_cell_volume 4972.509033
_symmetry_space_group_name_H-M "P 63/M M C"
_symmetry_group_IT_number 194
_symmetry_cell_setting 'hexagonal'
loop_
_space_group_symop_operation_xyz
x,y,z
x-y,x,1/2+z
-y,x-y,z
-x,-y,1/2+z
-x+y,-x,z
y,-x+y,1/2+z
x-y,-y,-z
-x,-x+y,-z
y,x,-z
-y,-x,1/2-z
-x+y,y,1/2-z
x,x-y,1/2-z
-x,-y,-z
-x+y,-x,1/2-z
y,-x+y,-z
x,y,1/2-z
x-y,x,-z
-y,x-y,1/2-z
-x+y,y,z
x,x-y,z
-y,-x,z
y,x,1/2+z
x-y,-y,1/2+z
-x,-x+y,1/2+z
loop_
_atom_site_type_symbol
_atom_site_label
_atom_site_fract_x
_atom_site_fract_y
_atom_site_fract_z
Si Si1 0.601624 0.398377 0.071560
Si Si2 0.760682 0.939323 0.072397
Si Si3 0.517162 0.696854 0.427607
Si Si4 0.298237 0.938815 0.073506
Si Si5 0.333334 0.666668 0.071704
O O1 0.605452 0.394549 0.250000
O O2 0.532044 0.362420 0.017617
O O3 0.633164 0.366837 0.987556
O O4 0.766678 0.944075 0.250000
O O5 0.765924 0.882962 0.010513
O O6 0.696194 0.930296 0.019199
O O7 0.815136 0.000000 0.000000
O O8 0.505864 0.685934 0.250000
O O9 0.515748 0.757874 0.474447
O O10 0.580391 0.702337 0.477667
O O11 0.306509 0.947371 0.250000
O O12 0.353219 0.000000 0.000000
O O13 0.333334 0.666667 0.250000
#
# Coordination Sequence:
#
# PCOD8330753 Si02
#       5
#    12  24  24  24   4
#     4  12  24  36  53  81 110 132 165 216 264 298
#     4   9  17  30  49  74 104 134 168 210 254 302
#     4  10  20  35  56  77 101 137 176 208 250 312
#     4   9  18  33  53  77 103 134 171 210 254 304
#     4  12  22  38  58  75 103 140 172 204 253 314
#
# _framework density 17.697303000000002
#
# number of rings (size 3 to 8) (size 9 to 14) (size 15 to 20)
#    0.000    2.182    1.364    2.455    0.000    4.909 
#    0.000    0.682    0.000    5.182    0.000    0.000 
#    0.000    0.000    0.000    0.000    0.000    0.000 
#
# Total GULP energy -1091124.096476 kJ/mol
# GULP energy per Si atom -12399.137460 kJ/mol
# Density = 1.765702 g / cm^3
# Si number density = 17.697303 Si / 1000 Ang^3
#
#
#
# Elastic Constant Matrix: (Units=GPa)
#
#
# Indices 1 2 3 4 5 6 
#
# 1 131.9369 66.4023 40.7061 0.0001 0.0000 0.0000
# 2 66.4023 131.9371 40.7062 0.0000 0.0000 0.0000
# 3 40.7061 40.7062 52.4356 0.0002 0.0000 0.0000
# 4 0.0001 0.0000 0.0002 27.0762 0.0000 0.0000
# 5 0.0000 0.0000 0.0000 0.0000 27.0768 -0.0001
# 6 0.0000 0.0000 0.0000 0.0000 -0.0001 32.7673
#
#
#
# Elastic Compliance Matrix: (Units=1/GPa)
#
#
# Indices 1 2 3 4 5 6 
#
# 1 0.011329 -0.003930 -0.005745 0.000000 0.000000 0.000000
# 2 -0.003930 0.011329 -0.005745 0.000000 0.000000 0.000000
# 3 -0.005745 -0.005745 0.027990 0.000000 0.000000 0.000000
# 4 0.000000 0.000000 0.000000 0.036933 0.000000 0.000000
# 5 0.000000 0.000000 0.000000 0.000000 0.036932 0.000000
# 6 0.000000 0.000000 0.000000 0.000000 0.000000 0.030518
#
#
# Mechanical properties :
#
#
# Convention : Reuss Voigt Hill
#
# Bulk Modulus (GPa) = 50.47556 67.99320 59.23438
# Shear Modulus (GPa) = 25.97763 28.61707 27.29735
#
# Velocity S-wave (km/s) = 3.83546 4.02559 3.93168
# Velocity P-wave (km/s) = 6.94247 7.75311 7.35896
#
# Compressibility (1/GPa) = 0.01981157
#
# Stress axis : x y z
#
# Youngs Moduli (GPa) = 88.26548 88.26557 35.72692
#
# Poissons Ratio (x) = 0.34685 0.20523
# Poissons Ratio (y) = 0.34685 0.20524
# Poissons Ratio (z) = 0.50704 0.50705
#
# Static dielectric constant tensor:
#      x y z
#    x 3.424200 0.000000 0.000000 
#    y 0.000000 3.424200 0.000000 
#    z 0.000000 0.000000 3.146390 
# 
# 
# High freq. dielectric constant tensor:
#      x y z
#    x 1.682360 0.000000 0.000000 
#    y 0.000000 1.682360 0.000000 
#    z 0.000000 0.000000 1.675430 
# 
# From -- ./inp_files/1458.got.cif
#   From: 2010.03.12/outbox.cif.g09.slc.cpg/sg194_1_cif.got.tgz:1458.got - 2010.04.01 12:26:19.
