data_PCOD8330073
_publ_section_title
;
Structure prediction by ZEFSAII (Michael W. Deem and Ramdas Pophale) SiO2 
 PCOD8330073
Probable space group: P 63/M C M
;
_chemical_formula_sum "Si O2"
_cell_formula_units_Z 104
_cell_length_a 21.292591
_cell_length_b 21.292591
_cell_length_c 14.687841
_cell_angle_alpha 90.000000
_cell_angle_beta 90.000000
_cell_angle_gamma 120.000000
_cell_volume 5766.942460
_symmetry_space_group_name_H-M "P 63/M C M"
_symmetry_group_IT_number 193
_symmetry_cell_setting 'hexagonal'
loop_
_space_group_symop_operation_xyz
x,y,z
x-y,x,1/2+z
-y,x-y,z
-x,-y,1/2+z
-x+y,-x,z
y,-x+y,1/2+z
x-y,-y,1/2-z
-x,-x+y,1/2-z
y,x,1/2-z
-y,-x,-z
-x+y,y,-z
x,x-y,-z
-x,-y,-z
-x+y,-x,1/2-z
y,-x+y,-z
x,y,1/2-z
x-y,x,-z
-y,x-y,1/2-z
-x+y,y,1/2+z
x,x-y,1/2+z
-y,-x,1/2+z
y,x,z
x-y,-y,z
-x,-x+y,z
loop_
_atom_site_type_symbol
_atom_site_label
_atom_site_fract_x
_atom_site_fract_y
_atom_site_fract_z
Si Si1 0.347010 0.347010 0.854721
Si Si2 0.539762 0.653548 0.649304
Si Si3 0.264867 0.871113 0.477006
Si Si4 0.486695 0.763548 0.849733
Si Si5 0.333334 0.666668 0.606743
Si Si6 0.504728 0.504728 0.106544
O O1 0.327323 0.327323 0.750000
O O2 0.347733 0.279471 0.902850
O O3 0.422837 0.422837 0.863127
O O4 0.577090 0.672909 0.750000
O O5 0.599034 0.688392 0.567926
O O6 0.490119 0.689920 0.637461
O O7 0.493541 0.566158 0.642516
O O8 0.178763 0.821238 0.500000
O O9 0.291377 0.819688 0.430144
O O10 0.517038 0.799069 0.750000
O O11 0.402655 0.739148 0.856119
O O12 0.333334 0.666667 0.500000
O O13 0.500000 0.500000 0.000000
#
# Coordination Sequence:
#
# PCOD8330073 Si02
#       6
#    12  24  24  24   8  12
#     4  12  24  37  60  85 108 144 187 235 284 333
#     4  10  20  35  51  69  94 131 172 224 285 339
#     4  10  21  39  56  78 107 138 176 229 283 340
#     4  10  22  36  51  69  96 132 175 226 288 352
#     4  12  22  32  46  63  88 128 176 230 289 357
#     4  12  22  35  53  76 105 137 184 237 287 334
#
# _framework density 18.033818
#
# number of rings (size 3 to 8) (size 9 to 14) (size 15 to 20)
#    0.000    1.385    2.308    4.500    3.231    1.846 
#    0.000    0.000    0.000    0.000    0.000    0.000 
#    0.000    0.000    0.000    0.346    0.000    0.462 
#
# Total GULP energy -1288793.393361 kJ/mol
# GULP energy per Si atom -12392.244167 kJ/mol
# Density = 1.799277 g / cm^3
# Si number density = 18.033818 Si / 1000 Ang^3
#
#
#
# Elastic Constant Matrix: (Units=GPa)
#
#
# Indices 1 2 3 4 5 6 
#
# 1 65.5852 23.4253 31.6842 -0.0001 0.0001 0.0002
# 2 23.4253 65.5860 31.6842 0.0003 0.0004 0.0002
# 3 31.6842 31.6842 162.6504 0.0001 -0.0006 0.0000
# 4 -0.0001 0.0003 0.0001 32.6074 0.0019 -0.0001
# 5 0.0001 0.0004 -0.0006 0.0019 32.6061 0.0002
# 6 0.0002 0.0002 0.0000 -0.0001 0.0002 21.0805
#
#
#
# Elastic Compliance Matrix: (Units=1/GPa)
#
#
# Indices 1 2 3 4 5 6 
#
# 1 0.018381 -0.005338 -0.002541 0.000000 0.000000 0.000000
# 2 -0.005338 0.018381 -0.002541 0.000000 0.000000 0.000000
# 3 -0.002541 -0.002541 0.007138 0.000000 0.000000 0.000000
# 4 0.000000 0.000000 0.000000 0.030668 -0.000002 0.000000
# 5 0.000000 0.000000 0.000000 -0.000002 0.030669 0.000000
# 6 0.000000 0.000000 0.000000 0.000000 0.000000 0.047437
#
#
# Mechanical properties :
#
#
# Convention : Reuss Voigt Hill
#
# Bulk Modulus (GPa) = 43.36221 51.93433 47.64827
# Shear Modulus (GPa) = 27.59369 31.06066 29.32717
#
# Velocity S-wave (km/s) = 3.91590 4.15463 4.03703
# Velocity P-wave (km/s) = 6.67404 7.20246 6.94328
#
# Compressibility (1/GPa) = 0.02306156
#
# Stress axis : x y z
#
# Youngs Moduli (GPa) = 54.40291 54.40370 140.09389
#
# Poissons Ratio (x) = 0.29039 0.35596
# Poissons Ratio (y) = 0.29039 0.35596
# Poissons Ratio (z) = 0.13823 0.13823
#
# Static dielectric constant tensor:
#      x y z
#    x 3.240700 0.000000 0.000000 
#    y 0.000000 3.240690 0.000000 
#    z 0.000000 0.000000 3.848040 
# 
# 
# High freq. dielectric constant tensor:
#      x y z
#    x 1.655860 0.000000 0.000000 
#    y 0.000000 1.655860 0.000000 
#    z 0.000000 0.000000 1.738010 
# 
# From -- ./inp_files/3774.got.cif
#   From: 2010.03.12/outbox.cif.g09.slc.cpg/sg193_2_cif.got.tgz:3774.got - 2010.04.01 12:20:39.
