data_PCOD8330102
_publ_section_title
;
Structure prediction by ZEFSAII (Michael W. Deem and Ramdas Pophale) SiO2 
 PCOD8330102
Probable space group: P 63/M C M
;
_chemical_formula_sum "Si O2"
_cell_formula_units_Z 68
_cell_length_a 14.868464
_cell_length_b 14.868464
_cell_length_c 16.123267
_cell_angle_alpha 90.000000
_cell_angle_beta 90.000000
_cell_angle_gamma 120.000000
_cell_volume 3086.852578
_symmetry_space_group_name_H-M "P 63/M C M"
_symmetry_group_IT_number 193
_symmetry_cell_setting 'hexagonal'
loop_
_space_group_symop_operation_xyz
x,y,z
x-y,x,1/2+z
-y,x-y,z
-x,-y,1/2+z
-x+y,-x,z
y,-x+y,1/2+z
x-y,-y,1/2-z
-x,-x+y,1/2-z
y,x,1/2-z
-y,-x,-z
-x+y,y,-z
x,x-y,-z
-x,-y,-z
-x+y,-x,1/2-z
y,-x+y,-z
x,y,1/2-z
x-y,x,-z
-y,x-y,1/2-z
-x+y,y,1/2+z
x,x-y,1/2+z
-y,-x,1/2+z
y,x,z
x-y,-y,z
-x,-x+y,z
loop_
_atom_site_type_symbol
_atom_site_label
_atom_site_fract_x
_atom_site_fract_y
_atom_site_fract_z
Si Si1 0.426321 0.887952 0.595855
Si Si2 0.666667 0.333335 0.345345
Si Si3 0.882441 0.760308 0.750000
Si Si4 0.216597 0.334127 0.412865
O O1 0.446991 0.893981 0.500000
O O2 0.421909 0.782839 0.627237
O O3 0.316796 0.877888 0.615704
O O4 0.516768 0.000000 0.634343
O O5 0.666667 0.333334 0.250000
O O6 0.804460 0.804460 0.750000
O O7 0.862779 0.694226 0.835197
O O8 0.000000 0.852944 0.750000
O O9 0.175608 0.351216 0.500000
O O10 0.242339 0.242339 0.427823
#
# Coordination Sequence:
#
# PCOD8330102 Si02
#       4
#    24   8  12  24
#     4  10  22  42  66  89 121 165 212 261 316 382
#     4  12  25  38  64  96 130 170 205 258 325 389
#     4  10  21  36  56  84 122 168 217 272 330 392
#     4  10  20  35  59  86 120 163 209 267 327 384
#
# _framework density 22.028911000000001
#
# number of rings (size 3 to 8) (size 9 to 14) (size 15 to 20)
#    0.000    1.765    0.000    4.412    2.471    0.706 
#    0.000    1.765    0.000    5.647    0.000    0.000 
#    0.000    0.000    0.000    1.059    0.000    0.000 
#
# Total GULP energy -842433.610363 kJ/mol
# GULP energy per Si atom -12388.729564 kJ/mol
# Density = 2.197877 g / cm^3
# Si number density = 22.028911 Si / 1000 Ang^3
#
#
#
# Elastic Constant Matrix: (Units=GPa)
#
#
# Indices 1 2 3 4 5 6 
#
# 1 92.6352 11.1217 15.0661 0.0002 -0.0001 -0.0002
# 2 11.1217 92.6347 15.0654 0.0000 0.0000 0.0000
# 3 15.0661 15.0654 106.3318 0.0001 0.0000 -0.0003
# 4 0.0002 0.0000 0.0001 24.2435 0.0000 0.0000
# 5 -0.0001 0.0000 0.0000 0.0000 24.2436 -0.0001
# 6 -0.0002 0.0000 -0.0003 0.0000 -0.0001 40.7556
#
#
#
# Elastic Compliance Matrix: (Units=1/GPa)
#
#
# Indices 1 2 3 4 5 6 
#
# 1 0.011160 -0.001108 -0.001424 0.000000 0.000000 0.000000
# 2 -0.001108 0.011160 -0.001424 0.000000 0.000000 0.000000
# 3 -0.001424 -0.001424 0.009808 0.000000 0.000000 0.000000
# 4 0.000000 0.000000 0.000000 0.041248 0.000000 0.000000
# 5 0.000000 0.000000 0.000000 0.000000 0.041248 0.000000
# 6 0.000000 0.000000 0.000000 0.000000 0.000000 0.024536
#
#
# Mechanical properties :
#
#
# Convention : Reuss Voigt Hill
#
# Bulk Modulus (GPa) = 41.29758 41.56756 41.43257
# Shear Modulus (GPa) = 32.22795 34.53844 33.38320
#
# Velocity S-wave (km/s) = 3.82905 3.96393 3.89707
# Velocity P-wave (km/s) = 6.19165 6.31354 6.25289
#
# Compressibility (1/GPa) = 0.02421449
#
# Stress axis : x y z
#
# Youngs Moduli (GPa) = 89.60805 89.60769 101.95659
#
# Poissons Ratio (x) = 0.09930 0.14521
# Poissons Ratio (y) = 0.09930 0.14520
# Poissons Ratio (z) = 0.12762 0.12761
#
# Static dielectric constant tensor:
#      x y z
#    x 3.827780 0.000010 -0.000010 
#    y 0.000010 3.827780 -0.000010 
#    z -0.000010 -0.000010 3.935170 
# 
# 
# High freq. dielectric constant tensor:
#      x y z
#    x 1.864480 0.000000 0.000000 
#    y 0.000000 1.864480 0.000000 
#    z 0.000000 0.000000 1.863970 
# 
# From -- ./inp_files/3144.got.cif
#   From: 2010.03.12/outbox.cif.g09.slc.cpg/sg193_2_cif.got.tgz:3144.got - 2010.04.01 12:20:39.
