data_PCOD8330426
_publ_section_title
;
Structure prediction by ZEFSAII (Michael W. Deem and Ramdas Pophale) SiO2 
 PCOD8330426
Probable space group: P 63/M M C
;
_chemical_formula_sum "Si O2"
_cell_formula_units_Z 112
_cell_length_a 30.315400
_cell_length_b 30.315400
_cell_length_c 8.891971
_cell_angle_alpha 90.000000
_cell_angle_beta 90.000000
_cell_angle_gamma 120.000000
_cell_volume 7077.099071
_symmetry_space_group_name_H-M "P 63/M M C"
_symmetry_group_IT_number 194
_symmetry_cell_setting 'hexagonal'
loop_
_space_group_symop_operation_xyz
x,y,z
x-y,x,1/2+z
-y,x-y,z
-x,-y,1/2+z
-x+y,-x,z
y,-x+y,1/2+z
x-y,-y,-z
-x,-x+y,-z
y,x,-z
-y,-x,1/2-z
-x+y,y,1/2-z
x,x-y,1/2-z
-x,-y,-z
-x+y,-x,1/2-z
y,-x+y,-z
x,y,1/2-z
x-y,x,-z
-y,x-y,1/2-z
-x+y,y,z
x,x-y,z
-y,-x,z
y,x,1/2+z
x-y,-y,1/2+z
-x,-x+y,1/2+z
loop_
_atom_site_type_symbol
_atom_site_label
_atom_site_fract_x
_atom_site_fract_y
_atom_site_fract_z
Si Si1 0.205077 0.693002 0.927552
Si Si2 0.390661 0.609340 0.071017
Si Si3 0.333334 0.666667 0.071945
Si Si4 0.408285 0.151793 0.918902
Si Si5 0.847182 0.795689 0.573025
Si Si6 0.793471 0.691709 0.418948
O O1 0.200631 0.686004 0.750000
O O2 0.261070 0.738931 0.975072
O O3 0.192812 0.640251 0.005504
O O4 0.161650 0.704495 0.984988
O O5 0.392738 0.607263 0.250000
O O6 0.361832 0.638169 0.010041
O O7 0.333334 0.666667 0.250000
O O8 0.412608 0.134959 0.750000
O O9 0.404285 0.202143 0.914045
O O10 0.357869 0.106811 0.997679
O O11 0.840562 0.840562 0.500000
O O12 0.840047 0.795014 0.750000
O O13 0.903185 0.806369 0.529066
O O14 0.803673 0.741819 0.508285
O O15 0.775660 0.694180 0.250000
O O16 0.843944 0.687888 0.415330
#
# Coordination Sequence:
#
# PCOD8330426 Si02
#       6
#    24  12   4  24  24  24
#     4  10  19  28  37  51  70  95 130 174 222 271
#     4  11  19  29  39  49  65  93 132 178 227 275
#     4   9  18  27  37  47  61  87 127 176 226 273
#     4   9  16  26  40  57  77 103 135 172 214 264
#     4  10  20  33  50  73 100 130 163 196 228 262
#     4   9  16  27  44  65  89 116 145 179 218 261
#
# _framework density 15.825692999999999
#
# number of rings (size 3 to 8) (size 9 to 14) (size 15 to 20)
#    0.000    2.357    1.071    2.893    0.000    7.286 
#    0.000    0.000    0.000    0.214    0.000    0.000 
#    0.000    0.000    0.000    0.964    0.000   13.500 
#
# Total GULP energy -1388803.663904 kJ/mol
# GULP energy per Si atom -12400.032713 kJ/mol
# Density = 1.578967 g / cm^3
# Si number density = 15.825693 Si / 1000 Ang^3
#
#
#
# Elastic Constant Matrix: (Units=GPa)
#
#
# Indices 1 2 3 4 5 6 
#
# 1 73.0018 43.9558 42.8874 0.0000 0.0000 0.0000
# 2 43.9558 73.0019 42.8874 0.0000 0.0000 0.0000
# 3 42.8874 42.8874 110.8149 0.0000 0.0000 0.0000
# 4 0.0000 0.0000 0.0000 25.0855 0.0000 0.0000
# 5 0.0000 0.0000 0.0000 0.0000 25.0854 0.0000
# 6 0.0000 0.0000 0.0000 0.0000 0.0000 14.5231
#
#
#
# Elastic Compliance Matrix: (Units=1/GPa)
#
#
# Indices 1 2 3 4 5 6 
#
# 1 0.023183 -0.011245 -0.004621 0.000000 0.000000 0.000000
# 2 -0.011245 0.023183 -0.004620 0.000000 0.000000 0.000000
# 3 -0.004621 -0.004620 0.012600 0.000000 0.000000 0.000000
# 4 0.000000 0.000000 0.000000 0.039864 0.000000 0.000000
# 5 0.000000 0.000000 0.000000 0.000000 0.039864 0.000000
# 6 0.000000 0.000000 0.000000 0.000000 0.000000 0.068856
#
#
# Mechanical properties :
#
#
# Convention : Reuss Voigt Hill
#
# Bulk Modulus (GPa) = 55.56820 57.36442 56.46631
# Shear Modulus (GPa) = 19.64477 21.41133 20.52805
#
# Velocity S-wave (km/s) = 3.52706 3.68223 3.60548
# Velocity P-wave (km/s) = 7.19554 7.37596 7.28631
#
# Compressibility (1/GPa) = 0.01799590
#
# Stress axis : x y z
#
# Youngs Moduli (GPa) = 43.13435 43.13444 79.36199
#
# Poissons Ratio (x) = 0.48503 0.36669
# Poissons Ratio (y) = 0.48503 0.36669
# Poissons Ratio (z) = 0.19930 0.19930
#
# Static dielectric constant tensor:
#      x y z
#    x 2.810100 0.000000 0.000000 
#    y 0.000000 2.810100 0.000000 
#    z 0.000000 0.000000 3.149510 
# 
# 
# High freq. dielectric constant tensor:
#      x y z
#    x 1.572740 0.000000 0.000000 
#    y 0.000000 1.572740 0.000000 
#    z 0.000000 0.000000 1.628250 
# 
# From -- ./inp_files/1937.got.cif
#   From: 2010.03.12/outbox.cif.g09.slc.cpg/sg194_1_cif.got.tgz:1937.got - 2010.04.01 12:26:19.
