data_PCOD8330818
_publ_section_title
;
Structure prediction by ZEFSAII (Michael W. Deem and Ramdas Pophale) SiO2 
 PCOD8330818
Probable space group: P 63/M M C
;
_chemical_formula_sum "Si O2"
_cell_formula_units_Z 54
_cell_length_a 24.734536
_cell_length_b 24.734536
_cell_length_c 5.169524
_cell_angle_alpha 90.000000
_cell_angle_beta 90.000000
_cell_angle_gamma 120.000000
_cell_volume 2738.979130
_symmetry_space_group_name_H-M "P 63/M M C"
_symmetry_group_IT_number 194
_symmetry_cell_setting 'hexagonal'
loop_
_space_group_symop_operation_xyz
x,y,z
x-y,x,1/2+z
-y,x-y,z
-x,-y,1/2+z
-x+y,-x,z
y,-x+y,1/2+z
x-y,-y,-z
-x,-x+y,-z
y,x,-z
-y,-x,1/2-z
-x+y,y,1/2-z
x,x-y,1/2-z
-x,-y,-z
-x+y,-x,1/2-z
y,-x+y,-z
x,y,1/2-z
x-y,x,-z
-y,x-y,1/2-z
-x+y,y,z
x,x-y,z
-y,-x,z
y,x,1/2+z
x-y,-y,1/2+z
-x,-x+y,1/2+z
loop_
_atom_site_type_symbol
_atom_site_label
_atom_site_fract_x
_atom_site_fract_y
_atom_site_fract_z
Si Si1 0.528405 0.665511 0.750000
Si Si2 0.960149 0.293265 0.250000
Si Si3 0.521058 0.478943 0.250000
Si Si4 0.458913 0.790413 0.250000
Si Si5 0.167422 0.207043 0.750000
O O1 0.602986 0.708562 0.750000
O O2 0.511494 0.594678 0.750000
O O3 0.501230 0.681139 0.499845
O O4 0.943075 0.221812 0.250000
O O5 0.000000 0.329876 0.500000
O O6 0.500000 0.500000 0.500000
O O7 0.401598 0.803197 0.250000
O O8 0.432803 0.716402 0.250000
O O9 0.171267 0.171267 0.500000
O O10 0.102594 0.205187 0.750000
#
# Coordination Sequence:
#
# PCOD8330818 Si02
#       5
#    12  12   6  12  12
#     4  12  23  41  62  91 124 152 214 256 312 387
#     4  10  21  39  61  91 128 163 197 244 303 372
#     4  12  22  36  62  90 124 162 190 248 326 386
#     4  12  25  44  62  84 115 160 209 271 316 372
#     4  10  21  38  63  91 124 164 206 247 296 358
#
# _framework density 19.715374000000001
#
# number of rings (size 3 to 8) (size 9 to 14) (size 15 to 20)
#    0.000    0.889    2.222    5.556    0.000    1.778 
#    0.000    2.222    0.000    4.444    0.000    0.000 
#    0.000    0.000    0.000    0.000    0.000    0.000 
#
# Total GULP energy -669976.986193 kJ/mol
# GULP energy per Si atom -12406.981226 kJ/mol
# Density = 1.967050 g / cm^3
# Si number density = 19.715374 Si / 1000 Ang^3
#
#
#
# Elastic Constant Matrix: (Units=GPa)
#
#
# Indices 1 2 3 4 5 6 
#
# 1 113.5219 53.1266 54.9110 0.0000 0.0000 0.0000
# 2 53.1266 113.5219 54.9110 0.0000 0.0000 0.0000
# 3 54.9110 54.9110 192.4259 0.0000 0.0000 0.0000
# 4 0.0000 0.0000 0.0000 33.6854 0.0000 0.0000
# 5 0.0000 0.0000 0.0000 0.0000 33.6854 0.0000
# 6 0.0000 0.0000 0.0000 0.0000 0.0000 30.1976
#
#
#
# Elastic Compliance Matrix: (Units=1/GPa)
#
#
# Indices 1 2 3 4 5 6 
#
# 1 0.011974 -0.004584 -0.002109 0.000000 0.000000 0.000000
# 2 -0.004584 0.011974 -0.002109 0.000000 0.000000 0.000000
# 3 -0.002109 -0.002109 0.006400 0.000000 0.000000 0.000000
# 4 0.000000 0.000000 0.000000 0.029686 0.000000 0.000000
# 5 0.000000 0.000000 0.000000 0.000000 0.029686 0.000000
# 6 0.000000 0.000000 0.000000 0.000000 0.000000 0.033115
#
#
# Mechanical properties :
#
#
# Convention : Reuss Voigt Hill
#
# Bulk Modulus (GPa) = 78.45884 82.81857 80.63871
# Shear Modulus (GPa) = 34.55711 36.61509 35.58610
#
# Velocity S-wave (km/s) = 4.19119 4.31418 4.25313
# Velocity P-wave (km/s) = 7.95635 8.18013 8.06902
#
# Compressibility (1/GPa) = 0.01274554
#
# Stress axis : x y z
#
# Youngs Moduli (GPa) = 83.51412 83.51412 156.23936
#
# Poissons Ratio (x) = 0.38279 0.32950
# Poissons Ratio (y) = 0.38279 0.32950
# Poissons Ratio (z) = 0.17613 0.17613
#
# Static dielectric constant tensor:
#      x y z
#    x 3.566100 0.000000 0.000000 
#    y 0.000000 3.566100 0.000000 
#    z 0.000000 0.000000 3.931320 
# 
# 
# High freq. dielectric constant tensor:
#      x y z
#    x 1.770070 0.000000 0.000000 
#    y 0.000000 1.770070 0.000000 
#    z 0.000000 0.000000 1.794580 
# 
# From -- ./inp_files/171.got.cif
#   From: 2010.03.12/outbox.cif.g09.slc.cpg/sg194_1_cif.got.tgz:171.got - 2010.04.01 12:26:19.
