data_PCOD8330811
_publ_section_title
;
Structure prediction by ZEFSAII (Michael W. Deem and Ramdas Pophale) SiO2 
 PCOD8330811
Probable space group: P 63/M M C
;
_chemical_formula_sum "Si O2"
_cell_formula_units_Z 68
_cell_length_a 14.379082
_cell_length_b 14.379082
_cell_length_c 22.044616
_cell_angle_alpha 90.000000
_cell_angle_beta 90.000000
_cell_angle_gamma 120.000000
_cell_volume 3947.257791
_symmetry_space_group_name_H-M "P 63/M M C"
_symmetry_group_IT_number 194
_symmetry_cell_setting 'hexagonal'
loop_
_space_group_symop_operation_xyz
x,y,z
x-y,x,1/2+z
-y,x-y,z
-x,-y,1/2+z
-x+y,-x,z
y,-x+y,1/2+z
x-y,-y,-z
-x,-x+y,-z
y,x,-z
-y,-x,1/2-z
-x+y,y,1/2-z
x,x-y,1/2-z
-x,-y,-z
-x+y,-x,1/2-z
y,-x+y,-z
x,y,1/2-z
x-y,x,-z
-y,x-y,1/2-z
-x+y,y,z
x,x-y,z
-y,-x,z
y,x,1/2+z
x-y,-y,1/2+z
-x,-x+y,1/2+z
loop_
_atom_site_type_symbol
_atom_site_label
_atom_site_fract_x
_atom_site_fract_y
_atom_site_fract_z
Si Si1 0.213914 0.427828 0.056114
Si Si2 0.456314 0.336425 0.750000
Si Si3 0.786036 0.213965 0.411850
Si Si4 0.333334 0.666668 0.913528
Si Si5 0.333334 0.666668 0.057393
Si Si6 0.616105 0.012350 0.877385
O O1 0.273848 0.547696 0.083311
O O2 0.284393 0.378347 0.080857
O O3 0.209812 0.419623 0.984212
O O4 0.584734 0.415267 0.750000
O O5 0.429593 0.214797 0.750000
O O6 0.404247 0.359300 0.807825
O O7 0.725822 0.274179 0.387687
O O8 0.904641 0.282463 0.385103
O O9 0.333334 0.666667 0.985617
O O10 0.500975 0.001950 0.897446
#
# Coordination Sequence:
#
# PCOD8330811 Si02
#       6
#    12  12  12   4   4  24
#     4  11  20  33  56  86 118 149 189 236 288 339
#     4  10  21  37  58  84 112 148 186 236 288 336
#     4  11  22  35  54  84 120 157 189 227 278 343
#     4   9  18  33  51  73 119 163 189 213 265 338
#     4   9  18  27  51  85 113 151 183 231 280 338
#     4  11  22  36  57  84 117 152 194 234 282 341
#
# _framework density 17.227150000000002
#
# number of rings (size 3 to 8) (size 9 to 14) (size 15 to 20)
#    0.000    1.412    5.294    1.235    0.000    2.118 
#    0.000    0.000    0.000    0.706    0.000    2.471 
#    0.000    0.000    0.000    0.000    0.000    0.000 
#
# Total GULP energy -842962.502910 kJ/mol
# GULP energy per Si atom -12396.507396 kJ/mol
# Density = 1.718794 g / cm^3
# Si number density = 17.227150 Si / 1000 Ang^3
#
#
#
# Elastic Constant Matrix: (Units=GPa)
#
#
# Indices 1 2 3 4 5 6 
#
# 1 132.3315 66.4597 40.8846 -0.0006 -0.0005 -0.0001
# 2 66.4597 132.3309 40.8846 0.0003 -0.0002 0.0000
# 3 40.8846 40.8846 92.3566 -0.0011 -0.0009 0.0000
# 4 -0.0006 0.0003 -0.0011 -106.2685 0.0697 -0.0002
# 5 -0.0005 -0.0002 -0.0009 0.0697 -106.5228 0.0004
# 6 -0.0001 0.0000 0.0000 -0.0002 0.0004 32.9359
#
#
#
# Elastic Compliance Matrix: (Units=1/GPa)
#
#
# Indices 1 2 3 4 5 6 
#
# 1 0.010666 -0.004515 -0.002723 0.000000 0.000000 0.000000
# 2 -0.004515 0.010666 -0.002723 0.000000 0.000000 0.000000
# 3 -0.002723 -0.002723 0.013238 0.000000 0.000000 0.000000
# 4 0.000000 0.000000 0.000000 -0.009410 -0.000006 0.000000
# 5 0.000000 0.000000 0.000000 -0.000006 -0.009388 0.000000
# 6 0.000000 0.000000 0.000000 0.000000 0.000000 0.030362
#
#
# Mechanical properties :
#
#
# Convention : Reuss Voigt Hill
#
# Bulk Modulus (GPa) = 68.26769 72.60853 70.43811
# Shear Modulus (GPa) = 70.48432 -22.05174 24.21629
#
# Velocity S-wave (km/s) = 6.40340 -3.58167 3.75334
# Velocity P-wave (km/s) = 9.71521 5.01346 7.73046
#
# Compressibility (1/GPa) = 0.01464822
#
# Stress axis : x y z
#
# Youngs Moduli (GPa) = 93.75874 93.75821 75.53941
#
# Poissons Ratio (x) = 0.42335 0.20567
# Poissons Ratio (y) = 0.42336 0.20567
# Poissons Ratio (z) = 0.25527 0.25527
#
# Static dielectric constant tensor:
#      x y z
#    x 3.191030 0.000000 0.000000 
#    y 0.000000 3.191030 0.000000 
#    z 0.000000 0.000000 3.150570 
# 
# 
# High freq. dielectric constant tensor:
#      x y z
#    x 1.656430 0.000000 0.000000 
#    y 0.000000 1.656430 0.000000 
#    z 0.000000 0.000000 1.667860 
# 
# From -- ./inp_files/7527.got.cif
#   From: 2010.03.12/outbox.cif.g09.slc.cpg/sg194_4_cif.got.tgz:7527.got - 2010.04.01 12:26:19.
