data_PCOD8330132
_publ_section_title
;
Structure prediction by ZEFSAII (Michael W. Deem and Ramdas Pophale) SiO2 
 PCOD8330132
Probable space group: P 63/M C M
;
_chemical_formula_sum "Si O2"
_cell_formula_units_Z 88
_cell_length_a 16.617484
_cell_length_b 16.617484
_cell_length_c 18.366710
_cell_angle_alpha 90.000000
_cell_angle_beta 90.000000
_cell_angle_gamma 120.000000
_cell_volume 4392.305499
_symmetry_space_group_name_H-M "P 63/M C M"
_symmetry_group_IT_number 193
_symmetry_cell_setting 'hexagonal'
loop_
_space_group_symop_operation_xyz
x,y,z
x-y,x,1/2+z
-y,x-y,z
-x,-y,1/2+z
-x+y,-x,z
y,-x+y,1/2+z
x-y,-y,1/2-z
-x,-x+y,1/2-z
y,x,1/2-z
-y,-x,-z
-x+y,y,-z
x,x-y,-z
-x,-y,-z
-x+y,-x,1/2-z
y,-x+y,-z
x,y,1/2-z
x-y,x,-z
-y,x-y,1/2-z
-x+y,y,1/2+z
x,x-y,1/2+z
-y,-x,1/2+z
y,x,z
x-y,-y,z
-x,-x+y,z
loop_
_atom_site_type_symbol
_atom_site_label
_atom_site_fract_x
_atom_site_fract_y
_atom_site_fract_z
Si Si1 0.000000 0.000000 0.664141
Si Si2 0.108758 0.454635 0.670527
Si Si3 0.000000 0.814479 0.837362
Si Si4 0.402986 0.512950 0.926612
Si Si5 0.806782 0.642108 0.417666
O O1 0.907621 0.000000 0.636758
O O2 0.000000 0.000000 0.750000
O O3 0.154951 0.463197 0.750000
O O4 0.145431 0.557681 0.638688
O O5 0.125219 0.389426 0.616221
O O6 0.000000 0.408163 0.679241
O O7 0.910257 0.725702 0.869261
O O8 0.000000 0.806831 0.750000
O O9 0.447773 0.447773 0.928986
O O10 0.294303 0.447850 0.915856
O O11 0.426878 0.573123 0.000000
O O12 0.838653 0.677306 0.500000
#
# Coordination Sequence:
#
# PCOD8330132 Si02
#       5
#     4  24  12  24  24
#     4   9  24  51  67  89 139 186 217 278 346 384
#     4  10  23  41  65  92 127 171 216 267 324 394
#     4  11  26  45  70  99 136 183 232 286 339 398
#     4  10  20  41  64  87 123 163 207 260 321 382
#     4  12  24  40  68 100 131 171 222 275 337 405
#
# _framework density 20.035036999999999
#
# number of rings (size 3 to 8) (size 9 to 14) (size 15 to 20)
#    0.000    1.364    4.091    0.818    3.818    2.182 
#    1.636    2.045    0.000    0.000    0.000    0.000 
#    0.000    0.000    0.000    0.000    0.000    0.000 
#
# Total GULP energy -1091162.926236 kJ/mol
# GULP energy per Si atom -12399.578707 kJ/mol
# Density = 1.998944 g / cm^3
# Si number density = 20.035037 Si / 1000 Ang^3
#
#
#
# Elastic Constant Matrix: (Units=GPa)
#
#
# Indices 1 2 3 4 5 6 
#
# 1 84.0881 44.5291 40.2413 0.0000 0.0000 0.0000
# 2 44.5291 84.0881 40.2413 0.0000 0.0000 0.0000
# 3 40.2413 40.2413 150.6609 0.0000 0.0000 0.0000
# 4 0.0000 0.0000 0.0000 31.8950 0.0000 0.0000
# 5 0.0000 0.0000 0.0000 0.0000 31.8950 0.0000
# 6 0.0000 0.0000 0.0000 0.0000 0.0000 19.7795
#
#
#
# Elastic Compliance Matrix: (Units=1/GPa)
#
#
# Indices 1 2 3 4 5 6 
#
# 1 0.017307 -0.007972 -0.002493 0.000000 0.000000 0.000000
# 2 -0.007972 0.017307 -0.002493 0.000000 0.000000 0.000000
# 3 -0.002493 -0.002493 0.007969 0.000000 0.000000 0.000000
# 4 0.000000 0.000000 0.000000 0.031353 0.000000 0.000000
# 5 0.000000 0.000000 0.000000 0.000000 0.031353 0.000000
# 6 0.000000 0.000000 0.000000 0.000000 0.000000 0.050557
#
#
# Mechanical properties :
#
#
# Convention : Reuss Voigt Hill
#
# Bulk Modulus (GPa) = 60.00160 63.20671 61.60415
# Shear Modulus (GPa) = 26.69244 29.63561 28.16403
#
# Velocity S-wave (km/s) = 3.65401 3.85020 3.75339
# Velocity P-wave (km/s) = 6.91489 7.16812 7.04264
#
# Compressibility (1/GPa) = 0.01666622
#
# Stress axis : x y z
#
# Youngs Moduli (GPa) = 57.78019 57.78019 125.47985
#
# Poissons Ratio (x) = 0.46061 0.31288
# Poissons Ratio (y) = 0.46061 0.31288
# Poissons Ratio (z) = 0.14407 0.14407
#
# Static dielectric constant tensor:
#      x y z
#    x 3.660590 0.000000 0.000000 
#    y 0.000000 3.660590 0.000000 
#    z 0.000000 0.000000 4.163920 
# 
# 
# High freq. dielectric constant tensor:
#      x y z
#    x 1.779970 0.000000 0.000000 
#    y 0.000000 1.779970 0.000000 
#    z 0.000000 0.000000 1.795940 
# 
# From -- ./inp_files/5124.got.cif
#   From: 2010.03.12/outbox.cif.g09.slc.cpg/sg193_3_cif.got.tgz:5124.got - 2010.04.01 12:20:39.
