data_PCOD8330199
_publ_section_title
;
Structure prediction by ZEFSAII (Michael W. Deem and Ramdas Pophale) SiO2 
 PCOD8330199
Probable space group: P 63/M C M
;
_chemical_formula_sum "Si O2"
_cell_formula_units_Z 120
_cell_length_a 15.519052
_cell_length_b 15.519052
_cell_length_c 28.412421
_cell_angle_alpha 90.000000
_cell_angle_beta 90.000000
_cell_angle_gamma 120.000000
_cell_volume 5926.103737
_symmetry_space_group_name_H-M "P 63/M C M"
_symmetry_group_IT_number 193
_symmetry_cell_setting 'hexagonal'
loop_
_space_group_symop_operation_xyz
x,y,z
x-y,x,1/2+z
-y,x-y,z
-x,-y,1/2+z
-x+y,-x,z
y,-x+y,1/2+z
x-y,-y,1/2-z
-x,-x+y,1/2-z
y,x,1/2-z
-y,-x,-z
-x+y,y,-z
x,x-y,-z
-x,-y,-z
-x+y,-x,1/2-z
y,-x+y,-z
x,y,1/2-z
x-y,x,-z
-y,x-y,1/2-z
-x+y,y,1/2+z
x,x-y,1/2+z
-y,-x,1/2+z
y,x,z
x-y,-y,z
-x,-x+y,z
loop_
_atom_site_type_symbol
_atom_site_label
_atom_site_fract_x
_atom_site_fract_y
_atom_site_fract_z
Si Si1 0.113912 0.750837 0.634456
Si Si2 0.830125 0.491104 0.028311
Si Si3 0.892068 0.185587 0.953032
Si Si4 0.884307 0.590055 0.303490
Si Si5 0.552500 0.437078 0.122618
O O1 0.127424 0.805696 0.584746
O O2 0.185045 0.827180 0.673615
O O3 0.142874 0.665566 0.629273
O O4 0.000000 0.704606 0.651083
O O5 0.894571 0.609620 0.028482
O O6 0.814686 0.453144 0.082236
O O7 0.727120 0.454239 0.000000
O O8 0.887605 0.443803 0.000000
O O9 0.000000 0.217988 0.930614
O O10 0.878622 0.121379 0.000000
O O11 0.848492 0.560489 0.250000
O O12 0.861892 0.488822 0.329744
O O13 0.000000 0.671360 0.306462
O O14 0.483990 0.483990 0.107915
#
# Coordination Sequence:
#
# PCOD8330199 Si02
#       5
#    24  24  24  24  24
#     4  11  23  40  65  94 123 164 212 258 306 369
#     4  11  22  33  53  85 119 162 200 245 298 354
#     4  11  22  38  59  86 124 170 215 258 309 369
#     4  10  22  43  69  93 121 160 201 252 319 376
#     4  10  21  39  61  87 122 160 203 248 297 366
#
# _framework density 20.249392
#
# number of rings (size 3 to 8) (size 9 to 14) (size 15 to 20)
#    0.000    1.400    2.000    4.400    0.000    4.400 
#    1.200    2.000    0.000    7.600    0.000    0.000 
#    0.000    0.000    0.000    0.000    0.000    0.000 
#
# Total GULP energy -1487798.453868 kJ/mol
# GULP energy per Si atom -12398.320449 kJ/mol
# Density = 2.020330 g / cm^3
# Si number density = 20.249392 Si / 1000 Ang^3
#
#
#
# Elastic Constant Matrix: (Units=GPa)
#
#
# Indices 1 2 3 4 5 6 
#
# 1 88.5210 41.8348 47.5239 0.0000 0.0000 0.0000
# 2 41.8348 88.5210 47.5239 0.0000 0.0000 0.0000
# 3 47.5239 47.5239 164.1794 0.0000 0.0000 0.0000
# 4 0.0000 0.0000 0.0000 29.4582 0.0000 0.0000
# 5 0.0000 0.0000 0.0000 0.0000 29.4582 0.0000
# 6 0.0000 0.0000 0.0000 0.0000 0.0000 23.3431
#
#
#
# Elastic Compliance Matrix: (Units=1/GPa)
#
#
# Indices 1 2 3 4 5 6 
#
# 1 0.015572 -0.005848 -0.002815 0.000000 0.000000 0.000000
# 2 -0.005848 0.015572 -0.002815 0.000000 0.000000 0.000000
# 3 -0.002815 -0.002815 0.007720 0.000000 0.000000 0.000000
# 4 0.000000 0.000000 0.000000 0.033946 0.000000 0.000000
# 5 0.000000 0.000000 0.000000 0.000000 0.033946 0.000000
# 6 0.000000 0.000000 0.000000 0.000000 0.000000 0.042839
#
#
# Mechanical properties :
#
#
# Convention : Reuss Voigt Hill
#
# Bulk Modulus (GPa) = 62.85741 68.33185 65.59463
# Shear Modulus (GPa) = 28.11311 30.07450 29.09380
#
# Velocity S-wave (km/s) = 3.73009 3.85802 3.79459
# Velocity P-wave (km/s) = 7.04702 7.32558 7.18765
#
# Compressibility (1/GPa) = 0.01590902
#
# Stress axis : x y z
#
# Youngs Moduli (GPa) = 64.21955 64.21955 129.52765
#
# Poissons Ratio (x) = 0.37556 0.36457
# Poissons Ratio (y) = 0.37556 0.36457
# Poissons Ratio (z) = 0.18075 0.18075
#
# Static dielectric constant tensor:
#      x y z
#    x 3.658080 0.000000 0.000000 
#    y 0.000000 3.658080 0.000000 
#    z 0.000000 0.000000 3.691380 
# 
# 
# High freq. dielectric constant tensor:
#      x y z
#    x 1.783770 0.000000 0.000000 
#    y 0.000000 1.783770 0.000000 
#    z 0.000000 0.000000 1.786030 
# 
# From -- ./inp_files/8934.got.cif
#   From: 2010.03.12/outbox.cif.g09.slc.cpg/sg193_5_cif.got.tgz:8934.got - 2010.04.01 12:20:39.
