data_PCOD8330657
_publ_section_title
;
Structure prediction by ZEFSAII (Michael W. Deem and Ramdas Pophale) SiO2 
 PCOD8330657
Probable space group: P 63/M M C
;
_chemical_formula_sum "Si O2"
_cell_formula_units_Z 144
_cell_length_a 32.341884
_cell_length_b 32.341884
_cell_length_c 9.175000
_cell_angle_alpha 90.000000
_cell_angle_beta 90.000000
_cell_angle_gamma 120.000000
_cell_volume 8311.268924
_symmetry_space_group_name_H-M "P 63/M M C"
_symmetry_group_IT_number 194
_symmetry_cell_setting 'hexagonal'
loop_
_space_group_symop_operation_xyz
x,y,z
x-y,x,1/2+z
-y,x-y,z
-x,-y,1/2+z
-x+y,-x,z
y,-x+y,1/2+z
x-y,-y,-z
-x,-x+y,-z
y,x,-z
-y,-x,1/2-z
-x+y,y,1/2-z
x,x-y,1/2-z
-x,-y,-z
-x+y,-x,1/2-z
y,-x+y,-z
x,y,1/2-z
x-y,x,-z
-y,x-y,1/2-z
-x+y,y,z
x,x-y,z
-y,-x,z
y,x,1/2+z
x-y,-y,1/2+z
-x,-x+y,1/2+z
loop_
_atom_site_type_symbol
_atom_site_label
_atom_site_fract_x
_atom_site_fract_y
_atom_site_fract_z
Si Si1 0.276578 0.385012 0.919341
Si Si2 0.719218 0.529649 0.580849
Si Si3 0.809223 0.095112 0.082400
Si Si4 0.857219 0.810009 0.579319
Si Si5 0.950554 0.385536 0.420874
Si Si6 0.612718 0.132281 0.918854
O O1 0.269654 0.390891 0.750000
O O2 0.240578 0.330941 0.969523
O O3 0.330249 0.397479 0.955679
O O4 0.263795 0.420728 0.000318
O O5 0.722388 0.541681 0.750000
O O6 0.755100 0.510199 0.538676
O O7 0.665242 0.489606 0.538006
O O8 0.806827 0.079189 0.250000
O O9 0.850354 0.149647 0.060339
O O10 0.818417 0.059960 0.982531
O O11 0.850719 0.850719 0.500000
O O12 0.848415 0.810777 0.750000
O O13 0.910489 0.820977 0.544462
O O14 0.956759 0.396291 0.250000
O O15 0.913389 0.400225 0.482788
O O16 0.000000 0.417863 0.500000
O O17 0.611137 0.117838 0.750000
O O18 0.574804 0.149608 0.951088
#
# Coordination Sequence:
#
# PCOD8330657 Si02
#       6
#    24  24  24  24  24  24
#     4   9  18  31  47  69  97 129 163 197 233 274
#     4   9  17  29  47  71  96 122 154 193 237 284
#     4   9  17  30  48  70  98 130 161 193 229 271
#     4  10  21  36  54  76 100 127 160 196 234 277
#     4  10  20  33  48  67  93 124 160 201 241 281
#     4   9  18  33  51  69  91 121 156 194 237 285
#
# _framework density 17.325873999999999
#
# number of rings (size 3 to 8) (size 9 to 14) (size 15 to 20)
#    0.000    2.667    0.000    1.500    0.000    4.667 
#    0.000    3.333    0.000    0.500    0.000    2.333 
#    0.000    0.000    0.000    8.333    0.000    8.667 
#
# Total GULP energy -1785666.926690 kJ/mol
# GULP energy per Si atom -12400.464769 kJ/mol
# Density = 1.728644 g / cm^3
# Si number density = 17.325874 Si / 1000 Ang^3
#
#
#
# Elastic Constant Matrix: (Units=GPa)
#
#
# Indices 1 2 3 4 5 6 
#
# 1 107.7457 69.0532 49.8202 0.0000 0.0000 0.0000
# 2 69.0532 107.7457 49.8202 0.0000 0.0000 0.0000
# 3 49.8202 49.8202 70.1981 0.0000 0.0000 0.0000
# 4 0.0000 0.0000 0.0000 25.1457 0.0000 0.0000
# 5 0.0000 0.0000 0.0000 0.0000 25.1457 0.0000
# 6 0.0000 0.0000 0.0000 0.0000 0.0000 19.3462
#
#
#
# Elastic Compliance Matrix: (Units=1/GPa)
#
#
# Indices 1 2 3 4 5 6 
#
# 1 0.017636 -0.008209 -0.006690 0.000000 0.000000 0.000000
# 2 -0.008209 0.017636 -0.006690 0.000000 0.000000 0.000000
# 3 -0.006690 -0.006690 0.023741 0.000000 0.000000 0.000000
# 4 0.000000 0.000000 0.000000 0.039768 0.000000 0.000000
# 5 0.000000 0.000000 0.000000 0.000000 0.039768 0.000000
# 6 0.000000 0.000000 0.000000 0.000000 0.000000 0.051690
#
#
# Mechanical properties :
#
#
# Convention : Reuss Voigt Hill
#
# Bulk Modulus (GPa) = 63.15471 69.23075 66.19273
# Shear Modulus (GPa) = 20.94719 21.72727 21.33723
#
# Velocity S-wave (km/s) = 3.48086 3.54508 3.51311
# Velocity P-wave (km/s) = 7.25847 7.53668 7.39888
#
# Compressibility (1/GPa) = 0.01583413
#
# Stress axis : x y z
#
# Youngs Moduli (GPa) = 56.70324 56.70324 42.12050
#
# Poissons Ratio (x) = 0.46548 0.28179
# Poissons Ratio (y) = 0.46548 0.28179
# Poissons Ratio (z) = 0.37935 0.37935
#
# Static dielectric constant tensor:
#      x y z
#    x 3.248810 0.000000 0.000000 
#    y 0.000000 3.248810 0.000000 
#    z 0.000000 0.000000 3.254740 
# 
# 
# High freq. dielectric constant tensor:
#      x y z
#    x 1.660260 0.000000 0.000000 
#    y 0.000000 1.660260 0.000000 
#    z 0.000000 0.000000 1.672400 
# 
# From -- ./inp_files/2150.got.cif
#   From: 2010.03.12/outbox.cif.g09.slc.cpg/sg194_2_cif.got.tgz:2150.got - 2010.04.01 12:26:19.
