data_PCOD8330342
_publ_section_title
;
Structure prediction by ZEFSAII (Michael W. Deem and Ramdas Pophale) SiO2 
 PCOD8330342
Probable space group: P 63/M M C
;
_chemical_formula_sum "Si O2"
_cell_formula_units_Z 120
_cell_length_a 17.051923
_cell_length_b 17.051923
_cell_length_c 31.686084
_cell_angle_alpha 90.000000
_cell_angle_beta 90.000000
_cell_angle_gamma 120.000000
_cell_volume 7978.953363
_symmetry_space_group_name_H-M "P 63/M M C"
_symmetry_group_IT_number 194
_symmetry_cell_setting 'hexagonal'
loop_
_space_group_symop_operation_xyz
x,y,z
x-y,x,1/2+z
-y,x-y,z
-x,-y,1/2+z
-x+y,-x,z
y,-x+y,1/2+z
x-y,-y,-z
-x,-x+y,-z
y,x,-z
-y,-x,1/2-z
-x+y,y,1/2-z
x,x-y,1/2-z
-x,-y,-z
-x+y,-x,1/2-z
y,-x+y,-z
x,y,1/2-z
x-y,x,-z
-y,x-y,1/2-z
-x+y,y,z
x,x-y,z
-y,-x,z
y,x,1/2+z
x-y,-y,1/2+z
-x,-x+y,1/2+z
loop_
_atom_site_type_symbol
_atom_site_label
_atom_site_fract_x
_atom_site_fract_y
_atom_site_fract_z
Si Si1 0.982083 0.401445 0.609691
Si Si2 0.338026 0.258283 0.818210
Si Si3 0.841635 0.510817 0.750000
Si Si4 0.153161 0.666100 0.035973
Si Si5 0.491124 0.157114 0.441618
Si Si6 0.001455 0.813530 0.250000
O O1 0.960840 0.480420 0.625720
O O2 0.970579 0.327268 0.643923
O O3 0.923590 0.350025 0.569033
O O4 0.084730 0.446931 0.595095
O O5 0.326669 0.163335 0.834785
O O6 0.427711 0.309813 0.790689
O O7 0.248266 0.236941 0.791463
O O8 0.732783 0.465565 0.750000
O O9 0.869859 0.434930 0.750000
O O10 0.183263 0.591632 0.041651
O O11 0.238098 0.761903 0.046750
O O12 0.116929 0.663483 0.988400
O O13 0.598986 0.197972 0.441946
O O14 0.469155 0.234577 0.429939
O O15 0.903955 0.807910 0.250000
O O16 0.081727 0.918274 0.250000
#
# Coordination Sequence:
#
# PCOD8330342 Si02
#       6
#    24  24  12  24  24  12
#     4  10  18  27  41  61  85 112 140 168 200 241
#     4   9  18  30  43  62  86 108 129 159 201 243
#     4   9  16  27  42  59  81 109 138 161 184 223
#     4   9  16  26  40  58  82 112 144 175 204 235
#     4   9  17  28  41  57  78 107 143 180 212 238
#     4   9  18  33  52  69  83 101 128 163 204 249
#
# _framework density 15.039567
#
# number of rings (size 3 to 8) (size 9 to 14) (size 15 to 20)
#    0.000    2.800    0.000    3.600    0.000    4.800 
#    0.000    0.000    0.000    6.400    0.000    0.000 
#    0.000    0.000    0.000    4.000    0.000   60.600 
#
# Total GULP energy -1487041.613031 kJ/mol
# GULP energy per Si atom -12392.013442 kJ/mol
# Density = 1.500534 g / cm^3
# Si number density = 15.039567 Si / 1000 Ang^3
#
#
#
# Elastic Constant Matrix: (Units=GPa)
#
#
# Indices 1 2 3 4 5 6 
#
# 1 80.2377 39.4767 42.2858 0.0000 0.0000 0.0000
# 2 39.4767 80.2377 42.2858 0.0000 0.0000 0.0000
# 3 42.2858 42.2858 77.1083 0.0000 0.0000 0.0000
# 4 0.0000 0.0000 0.0000 20.0958 0.0000 0.0000
# 5 0.0000 0.0000 0.0000 0.0000 20.0958 0.0000
# 6 0.0000 0.0000 0.0000 0.0000 0.0000 20.3805
#
#
#
# Elastic Compliance Matrix: (Units=1/GPa)
#
#
# Indices 1 2 3 4 5 6 
#
# 1 0.019085 -0.005449 -0.007478 0.000000 0.000000 0.000000
# 2 -0.005449 0.019085 -0.007478 0.000000 0.000000 0.000000
# 3 -0.007478 -0.007478 0.021170 0.000000 0.000000 0.000000
# 4 0.000000 0.000000 0.000000 0.049762 0.000000 0.000000
# 5 0.000000 0.000000 0.000000 0.000000 0.049762 0.000000
# 6 0.000000 0.000000 0.000000 0.000000 0.000000 0.049067
#
#
# Mechanical properties :
#
#
# Convention : Reuss Voigt Hill
#
# Bulk Modulus (GPa) = 53.96426 53.96448 53.96437
# Shear Modulus (GPa) = 19.61437 19.68345 19.64891
#
# Velocity S-wave (km/s) = 3.61527 3.62163 3.61845
# Velocity P-wave (km/s) = 7.30659 7.31080 7.30870
#
# Compressibility (1/GPa) = 0.01853078
#
# Stress axis : x y z
#
# Youngs Moduli (GPa) = 52.39826 52.39826 47.23562
#
# Poissons Ratio (x) = 0.28550 0.35322
# Poissons Ratio (y) = 0.28550 0.35322
# Poissons Ratio (z) = 0.39183 0.39183
#
# Static dielectric constant tensor:
#      x y z
#    x 2.803800 0.000000 0.000000 
#    y 0.000000 2.803800 0.000000 
#    z 0.000000 0.000000 2.924510 
# 
# 
# High freq. dielectric constant tensor:
#      x y z
#    x 1.566720 0.000000 0.000000 
#    y 0.000000 1.566720 0.000000 
#    z 0.000000 0.000000 1.570450 
# 
# From -- ./inp_files/10704.got.cif
#   From: 2010.03.12/outbox.cif.g09.slc.cpg/sg194_6_cif.got.tgz:10704.got - 2010.04.01 12:26:19.
