data_PCOD8330106
_publ_section_title
;
Structure prediction by ZEFSAII (Michael W. Deem and Ramdas Pophale) SiO2 
 PCOD8330106
Probable space group: P 63/M C M
;
_chemical_formula_sum "Si O2"
_cell_formula_units_Z 144
_cell_length_a 32.370059
_cell_length_b 32.370059
_cell_length_c 8.761072
_cell_angle_alpha 90.000000
_cell_angle_beta 90.000000
_cell_angle_gamma 120.000000
_cell_volume 7950.141585
_symmetry_space_group_name_H-M "P 63/M C M"
_symmetry_group_IT_number 193
_symmetry_cell_setting 'hexagonal'
loop_
_space_group_symop_operation_xyz
x,y,z
x-y,x,1/2+z
-y,x-y,z
-x,-y,1/2+z
-x+y,-x,z
y,-x+y,1/2+z
x-y,-y,1/2-z
-x,-x+y,1/2-z
y,x,1/2-z
-y,-x,-z
-x+y,y,-z
x,x-y,-z
-x,-y,-z
-x+y,-x,1/2-z
y,-x+y,-z
x,y,1/2-z
x-y,x,-z
-y,x-y,1/2-z
-x+y,y,1/2+z
x,x-y,1/2+z
-y,-x,1/2+z
y,x,z
x-y,-y,z
-x,-x+y,z
loop_
_atom_site_type_symbol
_atom_site_label
_atom_site_fract_x
_atom_site_fract_y
_atom_site_fract_z
Si Si1 0.610056 0.054457 0.069842
Si Si2 0.861006 0.053925 0.929588
Si Si3 0.279148 0.223689 0.072881
Si Si4 0.142812 0.528281 0.430932
Si Si5 0.717601 0.194315 0.069988
Si Si6 0.283553 0.384242 0.428576
O O1 0.611393 0.064654 0.250000
O O2 0.662518 0.067092 0.011267
O O3 0.572463 0.000000 0.028876
O O4 0.594771 0.088225 0.982865
O O5 0.865058 0.057167 0.750000
O O6 0.841774 0.000000 0.987694
O O7 0.913072 0.086929 0.000000
O O8 0.825131 0.071918 0.983012
O O9 0.277580 0.210403 0.250000
O O10 0.261059 0.261059 0.047185
O O11 0.332437 0.247553 0.000711
O O12 0.160594 0.580297 0.500000
O O13 0.145785 0.530813 0.250000
O O14 0.178111 0.511216 0.494895
O O15 0.713342 0.198959 0.250000
O O16 0.733916 0.155611 0.031465
O O17 0.755368 0.244633 0.000000
O O18 0.284100 0.376102 0.250000
#
# Coordination Sequence:
#
# PCOD8330106 Si02
#       6
#    24  24  24  24  24  24
#     4   9  17  31  51  75 105 141 180 221 262 304
#     4  10  21  36  53  74  99 127 161 202 248 298
#     4   9  16  28  48  73 102 138 177 213 249 289
#     4  11  22  37  56  78 104 135 172 214 261 312
#     4  10  20  36  56  79 106 136 171 211 257 308
#     4   8  15  28  48  74 104 139 178 216 253 294
#
# _framework density 18.112886
#
# number of rings (size 3 to 8) (size 9 to 14) (size 15 to 20)
#    0.000    2.500    0.000    4.000    0.000    4.333 
#    0.000    5.833    0.000    4.500    0.000    2.333 
#    0.000    0.000    0.000    0.000    0.000    0.000 
#
# Total GULP energy -1785565.524195 kJ/mol
# GULP energy per Si atom -12399.760585 kJ/mol
# Density = 1.807166 g / cm^3
# Si number density = 18.112886 Si / 1000 Ang^3
#
#
#
# Elastic Constant Matrix: (Units=GPa)
#
#
# Indices 1 2 3 4 5 6 
#
# 1 105.5068 73.2941 48.8738 0.0000 0.0000 0.0000
# 2 73.2941 105.5068 48.8738 0.0000 0.0000 0.0000
# 3 48.8738 48.8738 85.9067 0.0000 0.0000 0.0000
# 4 0.0000 0.0000 0.0000 25.2836 0.0000 0.0000
# 5 0.0000 0.0000 0.0000 0.0000 25.2836 0.0000
# 6 0.0000 0.0000 0.0000 0.0000 0.0000 16.1063
#
#
#
# Elastic Compliance Matrix: (Units=1/GPa)
#
#
# Indices 1 2 3 4 5 6 
#
# 1 0.019581 -0.011463 -0.004618 0.000000 0.000000 0.000000
# 2 -0.011463 0.019581 -0.004618 0.000000 0.000000 0.000000
# 3 -0.004618 -0.004618 0.016895 0.000000 0.000000 0.000000
# 4 0.000000 0.000000 0.000000 0.039551 0.000000 0.000000
# 5 0.000000 0.000000 0.000000 0.000000 0.039551 0.000000
# 6 0.000000 0.000000 0.000000 0.000000 0.000000 0.062087
#
#
# Mechanical properties :
#
#
# Convention : Reuss Voigt Hill
#
# Bulk Modulus (GPa) = 68.22437 71.00043 69.61240
# Shear Modulus (GPa) = 20.53121 21.72658 21.12889
#
# Velocity S-wave (km/s) = 3.37042 3.46715 3.41913
# Velocity P-wave (km/s) = 7.27285 7.43721 7.35549
#
# Compressibility (1/GPa) = 0.01465752
#
# Stress axis : x y z
#
# Youngs Moduli (GPa) = 51.07089 51.07089 59.18818
#
# Poissons Ratio (x) = 0.58543 0.27334
# Poissons Ratio (y) = 0.58543 0.27334
# Poissons Ratio (z) = 0.23586 0.23586
#
# Static dielectric constant tensor:
#      x y z
#    x 3.382540 0.000000 0.000000 
#    y 0.000000 3.382540 0.000000 
#    z 0.000000 0.000000 3.181740 
# 
# 
# High freq. dielectric constant tensor:
#      x y z
#    x 1.694940 0.000000 0.000000 
#    y 0.000000 1.694940 0.000000 
#    z 0.000000 0.000000 1.689640 
# 
# From -- ./inp_files/1522.got.cif
#   From: 2010.03.12/outbox.cif.g09.slc.cpg/sg193_1_cif.got.tgz:1522.got - 2010.04.01 12:20:39.
