data_PCOD8330458
_publ_section_title
;
Structure prediction by ZEFSAII (Michael W. Deem and Ramdas Pophale) SiO2 
 PCOD8330458
Probable space group: P 63/M M C
;
_chemical_formula_sum "Si O2"
_cell_formula_units_Z 108
_cell_length_a 17.581003
_cell_length_b 17.581003
_cell_length_c 25.254899
_cell_angle_alpha 90.000000
_cell_angle_beta 90.000000
_cell_angle_gamma 120.000000
_cell_volume 6760.262561
_symmetry_space_group_name_H-M "P 63/M M C"
_symmetry_group_IT_number 194
_symmetry_cell_setting 'hexagonal'
loop_
_space_group_symop_operation_xyz
x,y,z
x-y,x,1/2+z
-y,x-y,z
-x,-y,1/2+z
-x+y,-x,z
y,-x+y,1/2+z
x-y,-y,-z
-x,-x+y,-z
y,x,-z
-y,-x,1/2-z
-x+y,y,1/2-z
x,x-y,1/2-z
-x,-y,-z
-x+y,-x,1/2-z
y,-x+y,-z
x,y,1/2-z
x-y,x,-z
-y,x-y,1/2-z
-x+y,y,z
x,x-y,z
-y,-x,z
y,x,1/2+z
x-y,-y,1/2+z
-x,-x+y,1/2+z
loop_
_atom_site_type_symbol
_atom_site_label
_atom_site_fract_x
_atom_site_fract_y
_atom_site_fract_z
Si Si1 0.242597 0.924973 0.311126
Si Si2 0.902019 0.275466 0.146290
Si Si3 0.413808 0.001969 0.441172
Si Si4 0.331995 0.488137 0.750000
Si Si5 0.507729 0.841172 0.132617
O O1 0.240915 0.944352 0.250000
O O2 0.144799 0.855202 0.331699
O O3 0.306289 0.884034 0.319854
O O4 0.276415 0.015610 0.342711
O O5 0.817073 0.182928 0.134839
O O6 0.923263 0.334677 0.094255
O O7 0.890859 0.323674 0.197520
O O8 0.515711 0.031421 0.444158
O O9 0.376775 0.000000 0.500000
O O10 0.356018 0.904132 0.418065
O O11 0.426262 0.573739 0.750000
O O12 0.258138 0.516275 0.750000
O O13 0.417259 0.834517 0.151585
O O14 0.489982 0.744991 0.116884
#
# Coordination Sequence:
#
# PCOD8330458 Si02
#       5
#    24  24  24  12  24
#     4   9  17  30  45  64  91 121 148 181 230 279
#     4  10  19  31  49  73  94 122 162 200 238 283
#     4   9  18  32  47  65  92 125 160 198 240 283
#     4  10  19  30  45  68 100 132 162 194 233 276
#     4   9  17  28  43  63  87 116 150 186 228 276
#
# _framework density 15.975711
#
# number of rings (size 3 to 8) (size 9 to 14) (size 15 to 20)
#    0.000    2.667    1.111    1.000    0.000    2.222 
#    0.000    0.000    0.000    2.222    0.000    0.000 
#    0.000    0.889    0.000    0.000    0.000    0.000 
#
# Total GULP energy -1338875.299565 kJ/mol
# GULP energy per Si atom -12396.993514 kJ/mol
# Density = 1.593935 g / cm^3
# Si number density = 15.975711 Si / 1000 Ang^3
#
#
#
# Elastic Constant Matrix: (Units=GPa)
#
#
# Indices 1 2 3 4 5 6 
#
# 1 89.6302 47.3600 34.8551 0.0000 0.0000 0.0000
# 2 47.3600 89.6302 34.8551 0.0000 0.0000 0.0000
# 3 34.8551 34.8551 95.1328 0.0000 0.0000 0.0000
# 4 0.0000 0.0000 0.0000 16.7881 0.0000 0.0000
# 5 0.0000 0.0000 0.0000 0.0000 16.7881 0.0000
# 6 0.0000 0.0000 0.0000 0.0000 0.0000 21.1351
#
#
#
# Elastic Compliance Matrix: (Units=1/GPa)
#
#
# Indices 1 2 3 4 5 6 
#
# 1 0.016315 -0.007342 -0.003287 0.000000 0.000000 0.000000
# 2 -0.007342 0.016315 -0.003287 0.000000 0.000000 0.000000
# 3 -0.003287 -0.003287 0.012921 0.000000 0.000000 0.000000
# 4 0.000000 0.000000 0.000000 0.059566 0.000000 0.000000
# 5 0.000000 0.000000 0.000000 0.000000 0.059566 0.000000
# 6 0.000000 0.000000 0.000000 0.000000 0.000000 0.047315
#
#
# Mechanical properties :
#
#
# Convention : Reuss Voigt Hill
#
# Bulk Modulus (GPa) = 56.44573 56.50373 56.47473
# Shear Modulus (GPa) = 20.34697 21.43047 20.88872
#
# Velocity S-wave (km/s) = 3.57265 3.66654 3.61990
# Velocity P-wave (km/s) = 7.24067 7.30548 7.27315
#
# Compressibility (1/GPa) = 0.01771613
#
# Stress axis : x y z
#
# Youngs Moduli (GPa) = 61.29323 61.29323 77.39604
#
# Poissons Ratio (x) = 0.45004 0.25444
# Poissons Ratio (y) = 0.45004 0.25444
# Poissons Ratio (z) = 0.20150 0.20150
#
# Static dielectric constant tensor:
#      x y z
#    x 3.043950 0.000000 0.000000 
#    y 0.000000 3.043950 0.000000 
#    z 0.000000 0.000000 3.009000 
# 
# 
# High freq. dielectric constant tensor:
#      x y z
#    x 1.607100 0.000000 0.000000 
#    y 0.000000 1.607100 0.000000 
#    z 0.000000 0.000000 1.606220 
# 
# From -- ./inp_files/9255.got.cif
#   From: 2010.03.12/outbox.cif.g09.slc.cpg/sg194_5_cif.got.tgz:9255.got - 2010.04.01 12:26:19.
