data_PCOD8330605
_publ_section_title
;
Structure prediction by ZEFSAII (Michael W. Deem and Ramdas Pophale) SiO2 
 PCOD8330605
Probable space group: P 63/M M C
;
_chemical_formula_sum "Si O2"
_cell_formula_units_Z 156
_cell_length_a 21.724906
_cell_length_b 21.724906
_cell_length_c 20.505403
_cell_angle_alpha 90.000000
_cell_angle_beta 90.000000
_cell_angle_gamma 120.000000
_cell_volume 8381.364973
_symmetry_space_group_name_H-M "P 63/M M C"
_symmetry_group_IT_number 194
_symmetry_cell_setting 'hexagonal'
loop_
_space_group_symop_operation_xyz
x,y,z
x-y,x,1/2+z
-y,x-y,z
-x,-y,1/2+z
-x+y,-x,z
y,-x+y,1/2+z
x-y,-y,-z
-x,-x+y,-z
y,x,-z
-y,-x,1/2-z
-x+y,y,1/2-z
x,x-y,1/2-z
-x,-y,-z
-x+y,-x,1/2-z
y,-x+y,-z
x,y,1/2-z
x-y,x,-z
-y,x-y,1/2-z
-x+y,y,z
x,x-y,z
-y,-x,z
y,x,1/2+z
x-y,-y,1/2+z
-x,-x+y,1/2+z
loop_
_atom_site_type_symbol
_atom_site_label
_atom_site_fract_x
_atom_site_fract_y
_atom_site_fract_z
Si Si1 0.646309 0.595616 0.444907
Si Si2 0.353936 0.954944 0.320028
Si Si3 0.472102 0.667324 0.976465
Si Si4 0.790017 0.073249 0.991017
Si Si5 0.001712 0.146631 0.250000
Si Si6 0.275498 0.069317 0.838335
Si Si7 0.524445 0.191831 0.871368
O O1 0.590655 0.590655 0.500000
O O2 0.620039 0.606289 0.375203
O O3 0.645518 0.522093 0.437634
O O4 0.724803 0.656890 0.467016
O O5 0.394955 0.979336 0.250000
O O6 0.278565 0.948044 0.304945
O O7 0.345381 0.879327 0.337396
O O8 0.484576 0.742288 0.949880
O O9 0.390550 0.609451 0.964220
O O10 0.491961 0.673483 0.052139
O O11 0.861374 0.138627 0.019011
O O12 0.781819 0.077995 0.914362
O O13 0.791511 0.000000 0.000000
O O14 0.923231 0.076770 0.250000
O O15 0.061079 0.122157 0.250000
O O16 0.011287 0.194963 0.185008
O O17 0.288848 0.144424 0.812000
O O18 0.602631 0.205261 0.855358
O O19 0.519892 0.259946 0.845964
#
# Coordination Sequence:
#
# PCOD8330605 Si02
#       7
#    24  24  24  24  12  24  24
#     4  11  20  36  58  86 115 152 191 233 287 346
#     4  12  23  37  56  84 119 152 197 238 287 335
#     4  10  20  36  61  90 119 150 192 242 289 339
#     4  10  19  33  54  80 107 140 184 232 285 343
#     4  10  21  36  54  76 107 146 188 232 286 348
#     4  10  19  33  53  79 107 139 185 235 280 336
#     4  10  21  37  59  88 121 158 196 235 280 337
#
# _framework density 18.612721000000001
#
# number of rings (size 3 to 8) (size 9 to 14) (size 15 to 20)
#    0.000    1.538    5.385    1.308    0.000    6.462 
#    0.000    0.000    0.000    1.077    0.000    0.000 
#    0.000    1.231    0.000    0.000    0.000    0.000 
#
# Total GULP energy -1932827.498111 kJ/mol
# GULP energy per Si atom -12389.919860 kJ/mol
# Density = 1.857036 g / cm^3
# Si number density = 18.612721 Si / 1000 Ang^3
#
#
#
# Elastic Constant Matrix: (Units=GPa)
#
#
# Indices 1 2 3 4 5 6 
#
# 1 96.9485 43.2997 45.6610 0.0000 0.0000 0.0000
# 2 43.2997 96.9485 45.6610 0.0000 0.0000 0.0000
# 3 45.6610 45.6610 107.9031 0.0000 0.0000 0.0000
# 4 0.0000 0.0000 0.0000 29.2891 0.0000 0.0000
# 5 0.0000 0.0000 0.0000 0.0000 29.2891 0.0000
# 6 0.0000 0.0000 0.0000 0.0000 0.0000 26.8244
#
#
#
# Elastic Compliance Matrix: (Units=1/GPa)
#
#
# Indices 1 2 3 4 5 6 
#
# 1 0.014241 -0.004399 -0.004165 0.000000 0.000000 0.000000
# 2 -0.004399 0.014241 -0.004165 0.000000 0.000000 0.000000
# 3 -0.004165 -0.004165 0.012792 0.000000 0.000000 0.000000
# 4 0.000000 0.000000 0.000000 0.034142 0.000000 0.000000
# 5 0.000000 0.000000 0.000000 0.000000 0.034142 0.000000
# 6 0.000000 0.000000 0.000000 0.000000 0.000000 0.037279
#
#
# Mechanical properties :
#
#
# Convention : Reuss Voigt Hill
#
# Bulk Modulus (GPa) = 63.22205 63.44927 63.33566
# Shear Modulus (GPa) = 28.15819 28.22573 28.19196
#
# Velocity S-wave (km/s) = 3.89375 3.89842 3.89609
# Velocity P-wave (km/s) = 7.36586 7.37745 7.37166
#
# Compressibility (1/GPa) = 0.01581727
#
# Stress axis : x y z
#
# Youngs Moduli (GPa) = 70.22000 70.22000 78.17106
#
# Poissons Ratio (x) = 0.30888 0.32557
# Poissons Ratio (y) = 0.30888 0.32557
# Poissons Ratio (z) = 0.29246 0.29246
#
# Static dielectric constant tensor:
#      x y z
#    x 3.544300 0.000000 0.000000 
#    y 0.000000 3.544300 0.000000 
#    z 0.000000 0.000000 3.399240 
# 
# 
# High freq. dielectric constant tensor:
#      x y z
#    x 1.719590 0.000000 0.000000 
#    y 0.000000 1.719590 0.000000 
#    z 0.000000 0.000000 1.707440 
# 
# From -- ./inp_files/8419.got.cif
#   From: 2010.03.12/outbox.cif.g09.slc.cpg/sg194_5_cif.got.tgz:8419.got - 2010.04.01 12:26:19.
