data_PCOD8330935
_publ_section_title
;
Structure prediction by ZEFSAII (Michael W. Deem and Ramdas Pophale) SiO2 
 PCOD8330935
Probable space group: F D 3
;
_chemical_formula_sum "Si O2"
_cell_formula_units_Z 344
_cell_length_a 24.219456
_cell_length_b 24.219456
_cell_length_c 24.219456
_cell_angle_alpha 90.000000
_cell_angle_beta 90.000000
_cell_angle_gamma 90.000000
_cell_volume 14206.698125
_symmetry_space_group_name_H-M "F D 3"
_symmetry_group_IT_number 203
_space_group.IT_coordinate_system_code '2'
_symmetry_cell_setting 'cubic'
loop_
_space_group_symop_operation_xyz
x,y,z
z,x,y
y,z,x
1/4-y,1/4-z,x
z,1/4-x,1/4-y
1/4-y,z,1/4-x
1/4-z,1/4-x,y
1/4-z,x,1/4-y
y,1/4-z,1/4-x
1/4-x,1/4-y,z
x,1/4-y,1/4-z
1/4-x,y,1/4-z
-x,-y,-z
-z,-x,-y
-y,-z,-x
3/4+y,3/4+z,-x
-z,3/4+x,3/4+y
3/4+y,-z,3/4+x
3/4+z,3/4+x,-y
3/4+z,-x,3/4+y
-y,3/4+z,3/4+x
3/4+x,3/4+y,-z
-x,3/4+y,3/4+z
3/4+x,-y,3/4+z
x,1/2+y,1/2+z
z,1/2+x,1/2+y
y,1/2+z,1/2+x
1/4-y,3/4-z,1/2+x
z,3/4-x,3/4-y
1/4-y,1/2+z,3/4-x
1/4-z,3/4-x,1/2+y
1/4-z,1/2+x,3/4-y
y,3/4-z,3/4-x
1/4-x,3/4-y,1/2+z
x,3/4-y,3/4-z
1/4-x,1/2+y,3/4-z
-x,1/2-y,1/2-z
-z,1/2-x,1/2-y
-y,1/2-z,1/2-x
3/4+y,1/4+z,1/2-x
-z,1/4+x,1/4+y
3/4+y,1/2-z,1/4+x
3/4+z,1/4+x,1/2-y
3/4+z,1/2-x,1/4+y
-y,1/4+z,1/4+x
3/4+x,1/4+y,1/2-z
-x,1/4+y,1/4+z
3/4+x,1/2-y,1/4+z
1/2+x,y,1/2+z
1/2+z,x,1/2+y
1/2+y,z,1/2+x
3/4-y,1/4-z,1/2+x
1/2+z,1/4-x,3/4-y
3/4-y,z,3/4-x
3/4-z,1/4-x,1/2+y
3/4-z,x,3/4-y
1/2+y,1/4-z,3/4-x
3/4-x,1/4-y,1/2+z
1/2+x,1/4-y,3/4-z
3/4-x,y,3/4-z
1/2-x,-y,1/2-z
1/2-z,-x,1/2-y
1/2-y,-z,1/2-x
1/4+y,3/4+z,1/2-x
1/2-z,3/4+x,1/4+y
1/4+y,-z,1/4+x
1/4+z,3/4+x,1/2-y
1/4+z,-x,1/4+y
1/2-y,3/4+z,1/4+x
1/4+x,3/4+y,1/2-z
1/2-x,3/4+y,1/4+z
1/4+x,-y,1/4+z
1/2+x,1/2+y,z
1/2+z,1/2+x,y
1/2+y,1/2+z,x
3/4-y,3/4-z,x
1/2+z,3/4-x,1/4-y
3/4-y,1/2+z,1/4-x
3/4-z,3/4-x,y
3/4-z,1/2+x,1/4-y
1/2+y,3/4-z,1/4-x
3/4-x,3/4-y,z
1/2+x,3/4-y,1/4-z
3/4-x,1/2+y,1/4-z
1/2-x,1/2-y,-z
1/2-z,1/2-x,-y
1/2-y,1/2-z,-x
1/4+y,1/4+z,-x
1/2-z,1/4+x,3/4+y
1/4+y,1/2-z,3/4+x
1/4+z,1/4+x,-y
1/4+z,1/2-x,3/4+y
1/2-y,1/4+z,3/4+x
1/4+x,1/4+y,-z
1/2-x,1/4+y,3/4+z
1/4+x,1/2-y,3/4+z
loop_
_atom_site_type_symbol
_atom_site_label
_atom_site_fract_x
_atom_site_fract_y
_atom_site_fract_z
Si Si1 0.219244 0.914122 0.662003
Si Si2 0.228915 0.728915 0.728915
Si Si3 0.375000 0.375000 0.875000
Si Si4 0.375000 0.875000 0.011510
Si Si5 0.445509 0.445509 0.304491
Si Si6 0.120814 0.188644 0.952089
Si Si7 0.951175 0.298826 0.298827
O O1 0.277474 0.943866 0.659985
O O2 0.179383 0.951895 0.626466
O O3 0.224560 0.854110 0.632828
O O4 0.266754 0.766754 0.766754
O O5 0.265033 0.685998 0.694756
O O6 0.337076 0.337075 0.912926
O O7 0.429821 0.862819 0.975070
O O8 0.125000 0.125000 0.934950
O O9 0.172906 0.208487 0.988830
#
# Coordination Sequence:
#
# PCOD8330935 Si02
#       7
#    96  32   8  48  32  96  32
#     4  12  27  49  78 109 151 202 257 327 401 472
#     4  12  22  40  72 105 148 208 261 314 383 462
#     4  12  16  34  72 100 148 202 292 312 360 442
#     4  12  24  48  70 110 144 188 254 316 392 484
#     4  12  27  46  79 111 144 199 248 328 409 473
#     4  12  23  42  71 109 153 200 263 322 379 461
#     4  12  21  40  73 113 148 214 264 318 387 465
#
# _framework density 24.213930999999999
#
# number of rings (size 3 to 8) (size 9 to 14) (size 15 to 20)
#    0.000    0.000    5.581    5.860    0.000    0.000 
#    0.000    0.000    0.000    1.674    0.000    0.000 
#    0.000    0.000    0.000    0.000    0.000    0.000 
#
# Total GULP energy -1066694.811005 kJ/mol
# GULP energy per Si atom -12403.428035 kJ/mol
# Density = 2.415882 g / cm^3
# Si number density = 24.213931 Si / 1000 Ang^3
#
#
#
# Elastic Constant Matrix: (Units=GPa)
#
#
# Indices 1 2 3 4 5 6 
#
# 1 121.0241 41.3389 41.3380 0.0000 0.0000 0.0000
# 2 41.3389 121.0219 41.3384 0.0000 0.0000 0.0000
# 3 41.3380 41.3384 121.0211 0.0000 0.0000 0.0000
# 4 0.0000 0.0000 0.0000 34.9448 0.0000 0.0000
# 5 0.0000 0.0000 0.0000 0.0000 34.9444 0.0000
# 6 0.0000 0.0000 0.0000 0.0000 0.0000 34.9457
#
#
#
# Elastic Compliance Matrix: (Units=1/GPa)
#
#
# Indices 1 2 3 4 5 6 
#
# 1 0.010003 -0.002547 -0.002547 0.000000 0.000000 0.000000
# 2 -0.002547 0.010003 -0.002547 0.000000 0.000000 0.000000
# 3 -0.002547 -0.002547 0.010003 0.000000 0.000000 0.000000
# 4 0.000000 0.000000 0.000000 0.028617 0.000000 0.000000
# 5 0.000000 0.000000 0.000000 0.000000 0.028617 0.000000
# 6 0.000000 0.000000 0.000000 0.000000 0.000000 0.028616
#
#
# Mechanical properties :
#
#
# Convention : Reuss Voigt Hill
#
# Bulk Modulus (GPa) = 67.89974 67.89974 67.89974
# Shear Modulus (GPa) = 36.75184 36.90376 36.82780
#
# Velocity S-wave (km/s) = 3.90012 3.90817 3.90415
# Velocity P-wave (km/s) = 6.95584 6.96186 6.95885
#
# Compressibility (1/GPa) = 0.01472760
#
# Stress axis : x y z
#
# Youngs Moduli (GPa) = 99.97368 99.97139 99.97129
#
# Poissons Ratio (x) = 0.25461 0.25460
# Poissons Ratio (y) = 0.25461 0.25461
# Poissons Ratio (z) = 0.25461 0.25461
#
# Static dielectric constant tensor:
#      x y z
#    x 4.508140 0.000000 0.000000 
#    y 0.000000 4.508060 0.000000 
#    z 0.000000 0.000000 4.508220 
# 
# 
# High freq. dielectric constant tensor:
#      x y z
#    x 1.970020 0.000000 0.000000 
#    y 0.000000 1.970020 0.000000 
#    z 0.000000 0.000000 1.970030 
# 
# From -- ./inp_files/608.got.cif
#   From: 2010.03.12/outbox.cif.g09.slc.cpg/sg203_cif.got.tgz:608.got - 2010.03.30 09:02:32.
