data_PCOD8330207
_publ_section_title
;
Structure prediction by ZEFSAII (Michael W. Deem and Ramdas Pophale) SiO2 
 PCOD8330207
Probable space group: P 63/M C M
;
_chemical_formula_sum "Si O2"
_cell_formula_units_Z 104
_cell_length_a 19.581870
_cell_length_b 19.581870
_cell_length_c 15.047043
_cell_angle_alpha 90.000000
_cell_angle_beta 90.000000
_cell_angle_gamma 120.000000
_cell_volume 4996.778749
_symmetry_space_group_name_H-M "P 63/M C M"
_symmetry_group_IT_number 193
_symmetry_cell_setting 'hexagonal'
loop_
_space_group_symop_operation_xyz
x,y,z
x-y,x,1/2+z
-y,x-y,z
-x,-y,1/2+z
-x+y,-x,z
y,-x+y,1/2+z
x-y,-y,1/2-z
-x,-x+y,1/2-z
y,x,1/2-z
-y,-x,-z
-x+y,y,-z
x,x-y,-z
-x,-y,-z
-x+y,-x,1/2-z
y,-x+y,-z
x,y,1/2-z
x-y,x,-z
-y,x-y,1/2-z
-x+y,y,1/2+z
x,x-y,1/2+z
-y,-x,1/2+z
y,x,z
x-y,-y,z
-x,-x+y,z
loop_
_atom_site_type_symbol
_atom_site_label
_atom_site_fract_x
_atom_site_fract_y
_atom_site_fract_z
Si Si1 0.355152 0.447190 0.250000
Si Si2 0.088094 0.679153 0.849451
Si Si3 0.293588 0.200673 0.250000
Si Si4 0.423141 0.581719 0.898818
Si Si5 0.666668 0.333334 0.643798
Si Si6 0.092195 0.266732 0.412081
O O1 0.393167 0.393167 0.250000
O O2 0.259843 0.389487 0.250000
O O3 0.384472 0.498646 0.160266
O O4 0.096475 0.714291 0.750000
O O5 0.148803 0.647850 0.859784
O O6 0.104391 0.749262 0.917345
O O7 0.000000 0.605505 0.864060
O O8 0.253695 0.253695 0.250000
O O9 0.262536 0.144596 0.165560
O O10 0.397520 0.647205 0.894936
O O11 0.436566 0.563435 0.000000
O O12 0.666667 0.333334 0.750000
O O13 0.123256 0.246511 0.500000
O O14 0.000000 0.203534 0.396975
#
# Coordination Sequence:
#
# PCOD8330207 Si02
#       6
#    12  24  12  24   8  24
#     4  11  26  44  64  98 135 179 229 285 344 401
#     4  10  21  40  65  93 126 172 222 273 331 393
#     4  11  25  44  70 100 136 177 224 277 340 409
#     4  12  26  42  65  94 135 178 229 281 337 397
#     4  12  25  44  64  88 125 178 226 272 325 385
#     4  11  24  43  71 102 136 175 223 280 347 416
#
# _framework density 20.813409
#
# number of rings (size 3 to 8) (size 9 to 14) (size 15 to 20)
#    0.000    0.923    3.462    2.423    6.462    1.846 
#    0.000    0.000    0.000    6.923    0.000    0.000 
#    0.000    0.000    0.000    0.000    0.000    0.000 
#
# Total GULP energy -1289759.616436 kJ/mol
# GULP energy per Si atom -12401.534773 kJ/mol
# Density = 2.076604 g / cm^3
# Si number density = 20.813409 Si / 1000 Ang^3
#
#
#
# Elastic Constant Matrix: (Units=GPa)
#
#
# Indices 1 2 3 4 5 6 
#
# 1 105.6066 39.5787 44.6556 0.0000 0.0001 -0.0001
# 2 39.5787 105.6061 44.6556 -0.0002 0.0001 -0.0001
# 3 44.6556 44.6556 153.5449 0.0000 0.0003 0.0000
# 4 0.0000 -0.0002 0.0000 20.5299 -0.0005 0.0000
# 5 0.0001 0.0001 0.0003 -0.0005 20.5311 -0.0001
# 6 -0.0001 -0.0001 0.0000 0.0000 -0.0001 33.0138
#
#
#
# Elastic Compliance Matrix: (Units=1/GPa)
#
#
# Indices 1 2 3 4 5 6 
#
# 1 0.011767 -0.003378 -0.002440 0.000000 0.000000 0.000000
# 2 -0.003378 0.011767 -0.002440 0.000000 0.000000 0.000000
# 3 -0.002440 -0.002440 0.007932 0.000000 0.000000 0.000000
# 4 0.000000 0.000000 0.000000 0.048709 0.000001 0.000000
# 5 0.000000 0.000000 0.000000 0.000001 0.048707 0.000000
# 6 0.000000 0.000000 0.000000 0.000000 0.000000 0.030290
#
#
# Mechanical properties :
#
#
# Convention : Reuss Voigt Hill
#
# Bulk Modulus (GPa) = 66.88841 69.17082 68.02962
# Shear Modulus (GPa) = 27.67468 30.53946 29.10707
#
# Velocity S-wave (km/s) = 3.65040 3.83469 3.74368
# Velocity P-wave (km/s) = 7.06924 7.27409 7.17240
#
# Compressibility (1/GPa) = 0.01495027
#
# Stress axis : x y z
#
# Youngs Moduli (GPa) = 84.98476 84.98429 126.07479
#
# Poissons Ratio (x) = 0.28710 0.30758
# Poissons Ratio (y) = 0.28711 0.30758
# Poissons Ratio (z) = 0.20733 0.20733
#
# Static dielectric constant tensor:
#      x y z
#    x 3.795240 0.000000 0.000000 
#    y 0.000000 3.795260 0.000000 
#    z 0.000000 0.000000 3.698590 
# 
# 
# High freq. dielectric constant tensor:
#      x y z
#    x 1.816660 0.000000 0.000000 
#    y 0.000000 1.816660 0.000000 
#    z 0.000000 0.000000 1.818620 
# 
# From -- ./inp_files/3761.got.cif
#   From: 2010.03.12/outbox.cif.g09.slc.cpg/sg193_2_cif.got.tgz:3761.got - 2010.04.01 12:20:39.
