data_PCOD8330120
_publ_section_title
;
Structure prediction by ZEFSAII (Michael W. Deem and Ramdas Pophale) SiO2 
 PCOD8330120
Probable space group: P 63/M C M
;
_chemical_formula_sum "Si O2"
_cell_formula_units_Z 168
_cell_length_a 20.603258
_cell_length_b 20.603258
_cell_length_c 24.200446
_cell_angle_alpha 90.000000
_cell_angle_beta 90.000000
_cell_angle_gamma 120.000000
_cell_volume 8896.635618
_symmetry_space_group_name_H-M "P 63/M C M"
_symmetry_group_IT_number 193
_symmetry_cell_setting 'hexagonal'
loop_
_space_group_symop_operation_xyz
x,y,z
x-y,x,1/2+z
-y,x-y,z
-x,-y,1/2+z
-x+y,-x,z
y,-x+y,1/2+z
x-y,-y,1/2-z
-x,-x+y,1/2-z
y,x,1/2-z
-y,-x,-z
-x+y,y,-z
x,x-y,-z
-x,-y,-z
-x+y,-x,1/2-z
y,-x+y,-z
x,y,1/2-z
x-y,x,-z
-y,x-y,1/2-z
-x+y,y,1/2+z
x,x-y,1/2+z
-y,-x,1/2+z
y,x,z
x-y,-y,z
-x,-x+y,z
loop_
_atom_site_type_symbol
_atom_site_label
_atom_site_fract_x
_atom_site_fract_y
_atom_site_fract_z
Si Si1 0.088057 0.437464 0.110574
Si Si2 0.166678 0.083347 0.436336
Si Si3 0.667175 0.487701 0.001219
Si Si4 0.233690 0.915733 0.189430
Si Si5 0.803963 0.084508 0.145001
Si Si6 0.339147 0.425776 0.395029
Si Si7 0.553003 0.464473 0.688379
O O1 0.103919 0.377362 0.140582
O O2 0.117522 0.506947 0.152641
O O3 0.000000 0.402511 0.096642
O O4 0.135710 0.464658 0.054879
O O5 0.187841 0.093921 0.500000
O O6 0.098232 0.098232 0.424622
O O7 0.241597 0.143422 0.407119
O O8 0.141777 0.000000 0.415487
O O9 0.670217 0.534756 0.948184
O O10 0.591476 0.408525 0.000000
O O11 0.736764 0.473527 0.000000
O O12 0.265057 0.910749 0.250000
O O13 0.144952 0.856087 0.190371
O O14 0.248693 0.000000 0.180594
O O15 0.740406 0.100383 0.123853
O O16 0.768183 0.000000 0.169316
O O17 0.396226 0.396226 0.410015
O O18 0.369748 0.482719 0.343446
O O19 0.570840 0.446220 0.750000
O O20 0.504597 0.504597 0.694380
#
# Coordination Sequence:
#
# PCOD8330120 Si02
#       7
#    24  24  24  24  24  24  24
#     4  10  20  36  61  88 113 143 183 236 291 342
#     4   9  17  30  50  75 107 149 197 243 286 334
#     4  12  24  39  58  83 114 155 191 230 276 339
#     4  10  21  37  57  83 114 149 194 245 293 343
#     4  10  21  35  52  79 115 154 190 234 288 345
#     4  10  21  37  57  84 116 146 184 231 284 346
#     4   9  17  32  57  87 113 137 172 223 282 343
#
# _framework density 18.883544000000001
#
# number of rings (size 3 to 8) (size 9 to 14) (size 15 to 20)
#    0.000    2.000    1.429    2.429    0.000    5.429 
#    0.000    4.286    0.000    0.286    0.000    0.000 
#    0.000    0.000    0.000    0.000    0.000    0.000 
#
# Total GULP energy -2082813.592790 kJ/mol
# GULP energy per Si atom -12397.699957 kJ/mol
# Density = 1.884056 g / cm^3
# Si number density = 18.883544 Si / 1000 Ang^3
#
#
#
# Elastic Constant Matrix: (Units=GPa)
#
#
# Indices 1 2 3 4 5 6 
#
# 1 98.0455 48.6111 41.4340 0.0000 0.0000 0.0000
# 2 48.6111 98.0455 41.4340 0.0000 0.0000 0.0000
# 3 41.4340 41.4340 108.8812 0.0000 0.0000 0.0000
# 4 0.0000 0.0000 0.0000 10.0595 0.0000 0.0000
# 5 0.0000 0.0000 0.0000 0.0000 10.0595 0.0000
# 6 0.0000 0.0000 0.0000 0.0000 0.0000 24.7172
#
#
#
# Elastic Compliance Matrix: (Units=1/GPa)
#
#
# Indices 1 2 3 4 5 6 
#
# 1 0.014458 -0.005771 -0.003306 0.000000 0.000000 0.000000
# 2 -0.005771 0.014458 -0.003306 0.000000 0.000000 0.000000
# 3 -0.003306 -0.003306 0.011700 0.000000 0.000000 0.000000
# 4 0.000000 0.000000 0.000000 0.099408 0.000000 0.000000
# 5 0.000000 0.000000 0.000000 0.000000 0.099408 0.000000
# 6 0.000000 0.000000 0.000000 0.000000 0.000000 0.040458
#
#
# Mechanical properties :
#
#
# Convention : Reuss Voigt Hill
#
# Bulk Modulus (GPa) = 63.08841 63.10339 63.09590
# Shear Modulus (GPa) = 16.13224 20.53343 18.33283
#
# Velocity S-wave (km/s) = 2.92601 3.30111 3.11921
# Velocity P-wave (km/s) = 6.70053 6.92961 6.81603
#
# Compressibility (1/GPa) = 0.01585077
#
# Stress axis : x y z
#
# Youngs Moduli (GPa) = 69.16749 69.16749 85.46903
#
# Poissons Ratio (x) = 0.39918 0.28252
# Poissons Ratio (y) = 0.39918 0.28252
# Poissons Ratio (z) = 0.22864 0.22864
#
# Static dielectric constant tensor:
#      x y z
#    x 3.473170 0.000000 0.000000 
#    y 0.000000 3.473170 0.000000 
#    z 0.000000 0.000000 3.905870 
# 
# 
# High freq. dielectric constant tensor:
#      x y z
#    x 1.729630 0.000000 0.000000 
#    y 0.000000 1.729630 0.000000 
#    z 0.000000 0.000000 1.736670 
# 
# From -- ./inp_files/7704.got.cif
#   From: 2010.03.12/outbox.cif.g09.slc.cpg/sg193_4_cif.got.tgz:7704.got - 2010.04.01 12:20:39.
