data_PCOD8330471
_publ_section_title
;
Structure prediction by ZEFSAII (Michael W. Deem and Ramdas Pophale) SiO2 
 PCOD8330471
Probable space group: P 63/M M C
;
_chemical_formula_sum "Si O2"
_cell_formula_units_Z 108
_cell_length_a 30.778042
_cell_length_b 30.778042
_cell_length_c 8.160515
_cell_angle_alpha 90.000000
_cell_angle_beta 90.000000
_cell_angle_gamma 120.000000
_cell_volume 6694.685427
_symmetry_space_group_name_H-M "P 63/M M C"
_symmetry_group_IT_number 194
_symmetry_cell_setting 'hexagonal'
loop_
_space_group_symop_operation_xyz
x,y,z
x-y,x,1/2+z
-y,x-y,z
-x,-y,1/2+z
-x+y,-x,z
y,-x+y,1/2+z
x-y,-y,-z
-x,-x+y,-z
y,x,-z
-y,-x,1/2-z
-x+y,y,1/2-z
x,x-y,1/2-z
-x,-y,-z
-x+y,-x,1/2-z
y,-x+y,-z
x,y,1/2-z
x-y,x,-z
-y,x-y,1/2-z
-x+y,y,z
x,x-y,z
-y,-x,z
y,x,1/2+z
x-y,-y,1/2+z
-x,-x+y,1/2+z
loop_
_atom_site_type_symbol
_atom_site_label
_atom_site_fract_x
_atom_site_fract_y
_atom_site_fract_z
Si Si1 0.665852 0.230667 0.750000
Si Si2 0.149489 0.945645 0.560470
Si Si3 0.947539 0.702095 0.937724
Si Si4 0.853594 0.244717 0.439733
Si Si5 0.200696 0.696078 0.567367
O O1 0.717705 0.282296 0.750000
O O2 0.621466 0.242932 0.750000
O O3 0.661309 0.199613 0.583184
O O4 0.139702 0.943955 0.750000
O O5 0.098795 0.901206 0.475916
O O6 0.194895 0.935011 0.531426
O O7 0.161562 0.000000 0.500000
O O8 0.953416 0.717493 0.750000
O O9 0.903735 0.645181 0.961890
O O10 0.000000 0.707927 0.000000
O O11 0.862120 0.238569 0.250000
O O12 0.807182 0.192819 0.507524
O O13 0.842608 0.290207 0.466432
O O14 0.192619 0.670558 0.750000
O O15 0.253353 0.746648 0.570638
#
# Coordination Sequence:
#
# PCOD8330471 Si02
#       5
#    12  24  24  24  24
#     4  10  19  30  46  68  98 130 164 200 235 274
#     4  10  20  33  48  65  87 115 147 183 224 268
#     4  11  21  30  43  64  92 123 150 183 221 269
#     4   9  17  30  47  65  88 120 154 189 229 272
#     4   8  16  30  46  65  91 124 158 196 237 275
#
# _framework density 16.132199
#
# number of rings (size 3 to 8) (size 9 to 14) (size 15 to 20)
#    0.000    2.444    0.000    6.111    1.556    5.333 
#    0.000    0.000    0.000    1.556    0.000    0.000 
#    0.000    0.889    0.444    0.000    0.000    0.000 
#
# Total GULP energy -1338644.750669 kJ/mol
# GULP energy per Si atom -12394.858802 kJ/mol
# Density = 1.609548 g / cm^3
# Si number density = 16.132199 Si / 1000 Ang^3
#
#
#
# Elastic Constant Matrix: (Units=GPa)
#
#
# Indices 1 2 3 4 5 6 
#
# 1 67.4829 21.8926 31.6048 0.0000 0.0000 0.0000
# 2 21.8926 67.4829 31.6048 0.0000 0.0000 0.0000
# 3 31.6048 31.6048 88.8005 0.0000 0.0000 0.0000
# 4 0.0000 0.0000 0.0000 21.9013 0.0000 0.0000
# 5 0.0000 0.0000 0.0000 0.0000 21.9013 0.0000
# 6 0.0000 0.0000 0.0000 0.0000 0.0000 22.7951
#
#
#
# Elastic Compliance Matrix: (Units=1/GPa)
#
#
# Indices 1 2 3 4 5 6 
#
# 1 0.018443 -0.003491 -0.005322 0.000000 0.000000 0.000000
# 2 -0.003491 0.018443 -0.005322 0.000000 0.000000 0.000000
# 3 -0.005322 -0.005322 0.015049 0.000000 0.000000 0.000000
# 4 0.000000 0.000000 0.000000 0.045659 0.000000 0.000000
# 5 0.000000 0.000000 0.000000 0.000000 0.045659 0.000000
# 6 0.000000 0.000000 0.000000 0.000000 0.000000 0.043869
#
#
# Mechanical properties :
#
#
# Convention : Reuss Voigt Hill
#
# Bulk Modulus (GPa) = 42.25227 43.77454 43.01341
# Shear Modulus (GPa) = 22.39322 22.56382 22.47852
#
# Velocity S-wave (km/s) = 3.72977 3.74395 3.73687
# Velocity P-wave (km/s) = 6.69301 6.77373 6.73349
#
# Compressibility (1/GPa) = 0.02366737
#
# Stress axis : x y z
#
# Youngs Moduli (GPa) = 54.21976 54.21976 66.44848
#
# Poissons Ratio (x) = 0.18928 0.35362
# Poissons Ratio (y) = 0.18928 0.35362
# Poissons Ratio (z) = 0.28854 0.28854
#
# Static dielectric constant tensor:
#      x y z
#    x 2.887090 0.000000 0.000000 
#    y 0.000000 2.887090 0.000000 
#    z 0.000000 0.000000 3.309870 
# 
# 
# High freq. dielectric constant tensor:
#      x y z
#    x 1.592300 0.000000 0.000000 
#    y 0.000000 1.592300 0.000000 
#    z 0.000000 0.000000 1.636940 
# 
# From -- ./inp_files/1891.got.cif
#   From: 2010.03.12/outbox.cif.g09.slc.cpg/sg194_1_cif.got.tgz:1891.got - 2010.04.01 12:26:19.
