data_PCOD8330560
_publ_section_title
;
Structure prediction by ZEFSAII (Michael W. Deem and Ramdas Pophale) SiO2 
 PCOD8330560
Probable space group: P 63/M M C
;
_chemical_formula_sum "Si O2"
_cell_formula_units_Z 144
_cell_length_a 21.812936
_cell_length_b 21.812936
_cell_length_c 19.954565
_cell_angle_alpha 90.000000
_cell_angle_beta 90.000000
_cell_angle_gamma 120.000000
_cell_volume 8222.448211
_symmetry_space_group_name_H-M "P 63/M M C"
_symmetry_group_IT_number 194
_symmetry_cell_setting 'hexagonal'
loop_
_space_group_symop_operation_xyz
x,y,z
x-y,x,1/2+z
-y,x-y,z
-x,-y,1/2+z
-x+y,-x,z
y,-x+y,1/2+z
x-y,-y,-z
-x,-x+y,-z
y,x,-z
-y,-x,1/2-z
-x+y,y,1/2-z
x,x-y,1/2-z
-x,-y,-z
-x+y,-x,1/2-z
y,-x+y,-z
x,y,1/2-z
x-y,x,-z
-y,x-y,1/2-z
-x+y,y,z
x,x-y,z
-y,-x,z
y,x,1/2+z
x-y,-y,1/2+z
-x,-x+y,1/2+z
loop_
_atom_site_type_symbol
_atom_site_label
_atom_site_fract_x
_atom_site_fract_y
_atom_site_fract_z
Si Si1 0.142593 0.142434 0.577074
Si Si2 0.462548 0.392009 0.535601
Si Si3 0.422318 0.318581 0.174488
Si Si4 0.205726 0.267004 0.826147
Si Si5 0.408770 0.959295 0.321955
Si Si6 0.524127 0.192787 0.436013
O O1 0.164511 0.164511 0.500000
O O2 0.145189 0.072595 0.596257
O O3 0.198599 0.205525 0.624345
O O4 0.063146 0.126292 0.590185
O O5 0.400224 0.400224 0.500000
O O6 0.531198 0.468803 0.539850
O O7 0.439797 0.361638 0.611859
O O8 0.478026 0.337802 0.495635
O O9 0.428803 0.296374 0.250000
O O10 0.341135 0.271875 0.150038
O O11 0.444147 0.400483 0.168975
O O12 0.476475 0.306616 0.130370
O O13 0.216303 0.248385 0.750000
O O14 0.137573 0.275146 0.831943
O O15 0.366220 0.936033 0.250000
O O16 0.470352 0.940703 0.317459
O O17 0.595693 0.191385 0.422897
O O18 0.543064 0.271532 0.456337
#
# Coordination Sequence:
#
# PCOD8330560 Si02
#       6
#    24  24  24  24  24  24
#     4   9  17  31  51  74  99 127 162 206 257 311
#     4   9  16  30  50  73  99 129 168 211 251 298
#     4  10  19  32  51  73 100 137 178 214 252 304
#     4   9  18  32  47  65  94 131 170 209 246 290
#     4   9  16  28  50  78 101 123 161 214 263 301
#     4  11  22  35  52  76 108 142 175 214 262 315
#
# _framework density 17.513033
#
# number of rings (size 3 to 8) (size 9 to 14) (size 15 to 20)
#    0.000    2.500    1.667    1.333    0.000    3.000 
#    3.000    0.000    0.000    2.500    0.000    2.333 
#    0.000    1.333    0.000    0.000    0.000    0.000 
#
# Total GULP energy -1784803.050212 kJ/mol
# GULP energy per Si atom -12394.465626 kJ/mol
# Density = 1.747317 g / cm^3
# Si number density = 17.513033 Si / 1000 Ang^3
#
#
#
# Elastic Constant Matrix: (Units=GPa)
#
#
# Indices 1 2 3 4 5 6 
#
# 1 75.9808 28.5596 51.4660 0.0000 0.0000 0.0000
# 2 28.5596 75.9808 51.4660 0.0000 0.0000 0.0000
# 3 51.4660 51.4660 133.9326 0.0000 0.0000 0.0000
# 4 0.0000 0.0000 0.0000 22.9852 0.0000 0.0000
# 5 0.0000 0.0000 0.0000 0.0000 22.9852 0.0000
# 6 0.0000 0.0000 0.0000 0.0000 0.0000 23.7106
#
#
#
# Elastic Compliance Matrix: (Units=1/GPa)
#
#
# Indices 1 2 3 4 5 6 
#
# 1 0.018238 -0.002850 -0.005913 0.000000 0.000000 0.000000
# 2 -0.002850 0.018238 -0.005913 0.000000 0.000000 0.000000
# 3 -0.005913 -0.005913 0.012011 0.000000 0.000000 0.000000
# 4 0.000000 0.000000 0.000000 0.043506 0.000000 0.000000
# 5 0.000000 0.000000 0.000000 0.000000 0.043506 0.000000
# 6 0.000000 0.000000 0.000000 0.000000 0.000000 0.042175
#
#
# Mechanical properties :
#
#
# Convention : Reuss Voigt Hill
#
# Bulk Modulus (GPa) = 52.26242 60.98635 56.62438
# Shear Modulus (GPa) = 23.42976 24.22971 23.82973
#
# Velocity S-wave (km/s) = 3.66163 3.72361 3.69275
# Velocity P-wave (km/s) = 6.91256 7.30658 7.11230
#
# Compressibility (1/GPa) = 0.01913421
#
# Stress axis : x y z
#
# Youngs Moduli (GPa) = 54.83163 54.83163 83.25851
#
# Poissons Ratio (x) = 0.15627 0.49231
# Poissons Ratio (y) = 0.15627 0.49231
# Poissons Ratio (z) = 0.32422 0.32422
#
# Static dielectric constant tensor:
#      x y z
#    x 3.015450 0.000000 0.000000 
#    y 0.000000 3.015450 0.000000 
#    z 0.000000 0.000000 3.706000 
# 
# 
# High freq. dielectric constant tensor:
#      x y z
#    x 1.650680 0.000000 0.000000 
#    y 0.000000 1.650680 0.000000 
#    z 0.000000 0.000000 1.690860 
# 
# From -- ./inp_files/8212.got.cif
#   From: 2010.03.12/outbox.cif.g09.slc.cpg/sg194_5_cif.got.tgz:8212.got - 2010.04.01 12:26:19.
