data_PCOD8330265
_publ_section_title
;
Structure prediction by ZEFSAII (Michael W. Deem and Ramdas Pophale) SiO2 
 PCOD8330265
Probable space group: P 63/M C M
;
_chemical_formula_sum "Si O2"
_cell_formula_units_Z 144
_cell_length_a 23.813788
_cell_length_b 23.813788
_cell_length_c 19.076327
_cell_angle_alpha 90.000000
_cell_angle_beta 90.000000
_cell_angle_gamma 120.000000
_cell_volume 9368.765229
_symmetry_space_group_name_H-M "P 63/M C M"
_symmetry_group_IT_number 193
_symmetry_cell_setting 'hexagonal'
loop_
_space_group_symop_operation_xyz
x,y,z
x-y,x,1/2+z
-y,x-y,z
-x,-y,1/2+z
-x+y,-x,z
y,-x+y,1/2+z
x-y,-y,1/2-z
-x,-x+y,1/2-z
y,x,1/2-z
-y,-x,-z
-x+y,y,-z
x,x-y,-z
-x,-y,-z
-x+y,-x,1/2-z
y,-x+y,-z
x,y,1/2-z
x-y,x,-z
-y,x-y,1/2-z
-x+y,y,1/2+z
x,x-y,1/2+z
-y,-x,1/2+z
y,x,z
x-y,-y,z
-x,-x+y,z
loop_
_atom_site_type_symbol
_atom_site_label
_atom_site_fract_x
_atom_site_fract_y
_atom_site_fract_z
Si Si1 0.071444 0.927076 0.333362
Si Si2 0.408059 0.591159 0.081278
Si Si3 0.074568 0.485380 0.168611
Si Si4 0.412171 0.151660 0.331748
Si Si5 0.732166 0.804570 0.333307
Si Si6 0.740779 0.481346 0.581279
O O1 0.068382 0.927084 0.250000
O O2 0.121409 0.903239 0.357455
O O3 0.000000 0.879215 0.364946
O O4 0.096800 0.000000 0.360760
O O5 0.448836 0.566112 0.125240
O O6 0.333542 0.549449 0.104242
O O7 0.430214 0.665686 0.097573
O O8 0.418103 0.581898 0.000000
O O9 0.081479 0.504112 0.250000
O O10 0.099984 0.435466 0.153552
O O11 0.000000 0.451918 0.144093
O O12 0.416707 0.168784 0.250000
O O13 0.339397 0.120932 0.361935
O O14 0.454299 0.218134 0.373366
O O15 0.729507 0.799465 0.250000
O O16 0.757624 0.757624 0.362722
O O17 0.750337 0.500674 0.500000
#
# Coordination Sequence:
#
# PCOD8330265 Si02
#       6
#    24  24  24  24  24  24
#     4   8  12  17  27  46  73 103 132 162 196 232
#     4   9  17  29  45  63  83 108 136 165 200 244
#     4   9  17  28  42  61  84 107 132 167 207 240
#     4   9  16  26  41  60  80 104 134 166 200 238
#     4   8  13  21  34  53  76 101 130 163 196 232
#     4   9  17  29  44  62  83 106 132 164 201 239
#
# _framework density 15.370222
#
# number of rings (size 3 to 8) (size 9 to 14) (size 15 to 20)
#    0.000    3.333    0.000    2.000    0.000    5.000 
#    0.000    0.000    0.000    3.000    0.000    2.333 
#    0.000    0.000    0.000    0.000    0.000    8.833 
#
# Total GULP energy -1784973.090263 kJ/mol
# GULP energy per Si atom -12395.646460 kJ/mol
# Density = 1.533524 g / cm^3
# Si number density = 15.370222 Si / 1000 Ang^3
#
#
#
# Elastic Constant Matrix: (Units=GPa)
#
#
# Indices 1 2 3 4 5 6 
#
# 1 130.8836 77.1467 39.1666 0.0000 0.0000 0.0000
# 2 77.1467 130.8836 39.1666 0.0000 0.0000 0.0000
# 3 39.1666 39.1666 31.4930 0.0000 0.0000 0.0000
# 4 0.0000 0.0000 0.0000 16.4238 0.0000 0.0000
# 5 0.0000 0.0000 0.0000 0.0000 16.4238 0.0000
# 6 0.0000 0.0000 0.0000 0.0000 0.0000 26.8684
#
#
#
# Elastic Compliance Matrix: (Units=1/GPa)
#
#
# Indices 1 2 3 4 5 6 
#
# 1 0.013825 -0.004784 -0.011244 0.000000 0.000000 0.000000
# 2 -0.004784 0.013825 -0.011244 0.000000 0.000000 0.000000
# 3 -0.011244 -0.011244 0.059720 0.000000 0.000000 0.000000
# 4 0.000000 0.000000 0.000000 0.060887 0.000000 0.000000
# 5 0.000000 0.000000 0.000000 0.000000 0.060887 0.000000
# 6 0.000000 0.000000 0.000000 0.000000 0.000000 0.037218
#
#
# Mechanical properties :
#
#
# Convention : Reuss Voigt Hill
#
# Bulk Modulus (GPa) = 30.46312 67.13557 48.79935
# Shear Modulus (GPa) = 16.03349 21.12856 18.58102
#
# Velocity S-wave (km/s) = 3.23329 3.71164 3.48069
# Velocity P-wave (km/s) = 5.81391 7.88303 6.92617
#
# Compressibility (1/GPa) = 0.03282658
#
# Stress axis : x y z
#
# Youngs Moduli (GPa) = 72.33286 72.33286 16.74494
#
# Poissons Ratio (x) = 0.34606 0.18827
# Poissons Ratio (y) = 0.34606 0.18827
# Poissons Ratio (z) = 0.81328 0.81328
#
# Static dielectric constant tensor:
#      x y z
#    x 3.052980 0.000000 0.000000 
#    y 0.000000 3.052980 0.000000 
#    z 0.000000 0.000000 2.613180 
# 
# 
# High freq. dielectric constant tensor:
#      x y z
#    x 1.586720 0.000000 0.000000 
#    y 0.000000 1.586720 0.000000 
#    z 0.000000 0.000000 1.549000 
# 
# From -- ./inp_files/5546.got.cif
#   From: 2010.03.12/outbox.cif.g09.slc.cpg/sg193_3_cif.got.tgz:5546.got - 2010.04.01 12:20:39.
