data_PCOD8330324
_publ_section_title
;
Structure prediction by ZEFSAII (Michael W. Deem and Ramdas Pophale) SiO2 
 PCOD8330324
Probable space group: P 63/M M C
;
_chemical_formula_sum "Si O2"
_cell_formula_units_Z 108
_cell_length_a 17.983172
_cell_length_b 17.983172
_cell_length_c 22.536799
_cell_angle_alpha 90.000000
_cell_angle_beta 90.000000
_cell_angle_gamma 120.000000
_cell_volume 6311.832413
_symmetry_space_group_name_H-M "P 63/M M C"
_symmetry_group_IT_number 194
_symmetry_cell_setting 'hexagonal'
loop_
_space_group_symop_operation_xyz
x,y,z
x-y,x,1/2+z
-y,x-y,z
-x,-y,1/2+z
-x+y,-x,z
y,-x+y,1/2+z
x-y,-y,-z
-x,-x+y,-z
y,x,-z
-y,-x,1/2-z
-x+y,y,1/2-z
x,x-y,1/2-z
-x,-y,-z
-x+y,-x,1/2-z
y,-x+y,-z
x,y,1/2-z
x-y,x,-z
-y,x-y,1/2-z
-x+y,y,z
x,x-y,z
-y,-x,z
y,x,1/2+z
x-y,-y,1/2+z
-x,-x+y,1/2+z
loop_
_atom_site_type_symbol
_atom_site_label
_atom_site_fract_x
_atom_site_fract_y
_atom_site_fract_z
Si Si1 0.972556 0.572410 0.588583
Si Si2 0.165284 0.000300 0.370668
Si Si3 0.653672 0.913180 0.180728
Si Si4 0.216052 0.216052 0.000000
Si Si5 0.593911 0.880503 0.982713
O O1 0.989420 0.494710 0.599535
O O2 0.930673 0.584929 0.647911
O O3 0.902461 0.547625 0.535843
O O4 0.065339 0.657459 0.574362
O O5 0.182815 0.091408 0.346347
O O6 0.165411 0.000591 0.442057
O O7 0.238058 0.984374 0.343279
O O8 0.072565 0.927436 0.347853
O O9 0.646814 0.925570 0.250000
O O10 0.635673 0.817837 0.165753
O O11 0.223934 0.308738 0.002779
O O12 0.554179 0.777090 0.970904
#
# Coordination Sequence:
#
# PCOD8330324 Si02
#       5
#    24  24  24  12  24
#     4  10  20  33  53  80 103 127 165 210 256 302
#     4  11  20  31  46  71 104 138 173 207 242 282
#     4  10  21  36  53  71  96 134 175 210 249 298
#     4  10  18  26  48  74  98 132 172 204 234 280
#     4  10  17  30  52  77 104 133 162 196 245 302
#
# _framework density 17.110719
#
# number of rings (size 3 to 8) (size 9 to 14) (size 15 to 20)
#    0.000    2.000    4.444    4.222    0.000    0.889 
#    0.000    1.111    0.000    9.333    0.000    0.000 
#    0.000    0.000    0.000    0.000    0.000    0.000 
#
# Total GULP energy -1338572.782678 kJ/mol
# GULP energy per Si atom -12394.192432 kJ/mol
# Density = 1.707177 g / cm^3
# Si number density = 17.110719 Si / 1000 Ang^3
#
#
#
# Elastic Constant Matrix: (Units=GPa)
#
#
# Indices 1 2 3 4 5 6 
#
# 1 83.7456 50.4588 30.0458 0.0000 0.0000 0.0000
# 2 50.4588 83.7456 30.0458 0.0000 0.0000 0.0000
# 3 30.0458 30.0458 84.9460 0.0000 0.0000 0.0000
# 4 0.0000 0.0000 0.0000 7.7238 0.0000 0.0000
# 5 0.0000 0.0000 0.0000 0.0000 7.7238 0.0000
# 6 0.0000 0.0000 0.0000 0.0000 0.0000 16.6434
#
#
#
# Elastic Compliance Matrix: (Units=1/GPa)
#
#
# Indices 1 2 3 4 5 6 
#
# 1 0.019448 -0.010594 -0.003132 0.000000 0.000000 0.000000
# 2 -0.010594 0.019448 -0.003132 0.000000 0.000000 0.000000
# 3 -0.003132 -0.003132 0.013987 0.000000 0.000000 0.000000
# 4 0.000000 0.000000 0.000000 0.129470 0.000000 0.000000
# 5 0.000000 0.000000 0.000000 0.000000 0.129470 0.000000
# 6 0.000000 0.000000 0.000000 0.000000 0.000000 0.060084
#
#
# Mechanical properties :
#
#
# Convention : Reuss Voigt Hill
#
# Bulk Modulus (GPa) = 52.16933 52.61534 52.39234
# Shear Modulus (GPa) = 12.13560 15.87730 14.00645
#
# Velocity S-wave (km/s) = 2.66604 3.04948 2.86418
# Velocity P-wave (km/s) = 6.32713 6.57387 6.45168
#
# Compressibility (1/GPa) = 0.01916835
#
# Stress axis : x y z
#
# Youngs Moduli (GPa) = 51.41985 51.41985 71.49260
#
# Poissons Ratio (x) = 0.54475 0.22388
# Poissons Ratio (y) = 0.54475 0.22388
# Poissons Ratio (z) = 0.16102 0.16102
#
# Static dielectric constant tensor:
#      x y z
#    x 3.097790 0.000000 0.000000 
#    y 0.000000 3.097790 0.000000 
#    z 0.000000 0.000000 3.065490 
# 
# 
# High freq. dielectric constant tensor:
#      x y z
#    x 1.644280 0.000000 0.000000 
#    y 0.000000 1.644280 0.000000 
#    z 0.000000 0.000000 1.642740 
# 
# From -- ./inp_files/7956.got.cif
#   From: 2010.03.12/outbox.cif.g09.slc.cpg/sg194_4_cif.got.tgz:7956.got - 2010.04.01 12:26:19.
