data_PCOD8330613
_publ_section_title
;
Structure prediction by ZEFSAII (Michael W. Deem and Ramdas Pophale) SiO2 
 PCOD8330613
Probable space group: P 63/M M C
;
_chemical_formula_sum "Si O2"
_cell_formula_units_Z 168
_cell_length_a 21.498420
_cell_length_b 21.498420
_cell_length_c 22.978658
_cell_angle_alpha 90.000000
_cell_angle_beta 90.000000
_cell_angle_gamma 120.000000
_cell_volume 9197.469989
_symmetry_space_group_name_H-M "P 63/M M C"
_symmetry_group_IT_number 194
_symmetry_cell_setting 'hexagonal'
loop_
_space_group_symop_operation_xyz
x,y,z
x-y,x,1/2+z
-y,x-y,z
-x,-y,1/2+z
-x+y,-x,z
y,-x+y,1/2+z
x-y,-y,-z
-x,-x+y,-z
y,x,-z
-y,-x,1/2-z
-x+y,y,1/2-z
x,x-y,1/2-z
-x,-y,-z
-x+y,-x,1/2-z
y,-x+y,-z
x,y,1/2-z
x-y,x,-z
-y,x-y,1/2-z
-x+y,y,z
x,x-y,z
-y,-x,z
y,x,1/2+z
x-y,-y,1/2+z
-x,-x+y,1/2+z
loop_
_atom_site_type_symbol
_atom_site_label
_atom_site_fract_x
_atom_site_fract_y
_atom_site_fract_z
Si Si1 0.284834 0.427634 0.107778
Si Si2 0.550946 0.589929 0.316038
Si Si3 0.659261 0.086604 0.394745
Si Si4 0.272046 0.283392 0.432109
Si Si5 0.666519 0.186978 0.495510
Si Si6 0.665970 0.195007 0.184770
Si Si7 0.139406 0.139448 0.569451
O O1 0.213824 0.427647 0.129363
O O2 0.334828 0.440865 0.163512
O O3 0.261970 0.350903 0.079738
O O4 0.326893 0.489686 0.060181
O O5 0.582483 0.599028 0.250000
O O6 0.467080 0.532921 0.315466
O O7 0.587628 0.561398 0.362419
O O8 0.710861 0.054169 0.404626
O O9 0.645327 0.117955 0.454174
O O10 0.697979 0.153784 0.351214
O O11 0.275216 0.275216 0.500000
O O12 0.205042 0.212695 0.405258
O O13 0.602975 0.205949 0.494132
O O14 0.741803 0.258198 0.476730
O O15 0.652597 0.165324 0.250000
O O16 0.590774 0.181548 0.157287
O O17 0.720528 0.279473 0.183016
O O18 0.140038 0.140038 0.500000
O O19 0.073347 0.146694 0.593672
O O20 0.131391 0.065696 0.593293
#
# Coordination Sequence:
#
# PCOD8330613 Si02
#       7
#    24  24  24  24  24  24  24
#     4  10  21  36  55  78 106 139 177 221 271 330
#     4  10  21  37  57  79 102 133 178 229 278 327
#     4  11  21  33  52  76 104 138 176 215 264 315
#     4  10  19  34  49  73 102 139 173 209 253 310
#     4  11  22  35  52  76 108 144 181 221 267 322
#     4  10  20  34  51  71  98 135 178 221 262 304
#     4   9  17  28  46  69  97 131 167 205 243 290
#
# _framework density 18.265892999999998
#
# number of rings (size 3 to 8) (size 9 to 14) (size 15 to 20)
#    0.000    1.857    1.429    3.429    0.000    4.286 
#    0.000    3.571    0.000    0.286    0.000    0.000 
#    0.000    0.000    0.000    4.000    0.000   62.429 
#
# Total GULP energy -2082546.684385 kJ/mol
# GULP energy per Si atom -12396.111217 kJ/mol
# Density = 1.822432 g / cm^3
# Si number density = 18.265893 Si / 1000 Ang^3
#
#
#
# Elastic Constant Matrix: (Units=GPa)
#
#
# Indices 1 2 3 4 5 6 
#
# 1 111.2524 48.9986 31.8177 0.0000 0.0000 0.0000
# 2 48.9986 111.2524 31.8177 0.0000 0.0000 0.0000
# 3 31.8177 31.8177 60.6553 0.0000 0.0000 0.0000
# 4 0.0000 0.0000 0.0000 22.9808 0.0000 0.0000
# 5 0.0000 0.0000 0.0000 0.0000 22.9808 0.0000
# 6 0.0000 0.0000 0.0000 0.0000 0.0000 31.1269
#
#
#
# Elastic Compliance Matrix: (Units=1/GPa)
#
#
# Indices 1 2 3 4 5 6 
#
# 1 0.011973 -0.004091 -0.004135 0.000000 0.000000 0.000000
# 2 -0.004091 0.011973 -0.004135 0.000000 0.000000 0.000000
# 3 -0.004135 -0.004135 0.020824 0.000000 0.000000 0.000000
# 4 0.000000 0.000000 0.000000 0.043515 0.000000 0.000000
# 5 0.000000 0.000000 0.000000 0.000000 0.043515 0.000000
# 6 0.000000 0.000000 0.000000 0.000000 0.000000 0.032127
#
#
# Mechanical properties :
#
#
# Convention : Reuss Voigt Hill
#
# Bulk Modulus (GPa) = 49.87556 56.49202 53.18379
# Shear Modulus (GPa) = 25.59785 26.78607 26.19196
#
# Velocity S-wave (km/s) = 3.74759 3.83358 3.79083
# Velocity P-wave (km/s) = 6.78900 7.11266 6.95271
#
# Compressibility (1/GPa) = 0.02004990
#
# Stress axis : x y z
#
# Youngs Moduli (GPa) = 83.52343 83.52343 48.02048
#
# Poissons Ratio (x) = 0.34166 0.19855
# Poissons Ratio (y) = 0.34166 0.19855
# Poissons Ratio (z) = 0.34534 0.34534
#
# Static dielectric constant tensor:
#      x y z
#    x 3.508770 0.000000 0.000000 
#    y 0.000000 3.508770 0.000000 
#    z 0.000000 0.000000 3.236950 
# 
# 
# High freq. dielectric constant tensor:
#      x y z
#    x 1.712730 0.000000 0.000000 
#    y 0.000000 1.712730 0.000000 
#    z 0.000000 0.000000 1.680490 
# 
# From -- ./inp_files/9839.got.cif
#   From: 2010.03.12/outbox.cif.g09.slc.cpg/sg194_5_cif.got.tgz:9839.got - 2010.04.01 12:26:19.
