data_PCOD8330455
_publ_section_title
;
Structure prediction by ZEFSAII (Michael W. Deem and Ramdas Pophale) SiO2 
 PCOD8330455
Probable space group: P 63/M M C
;
_chemical_formula_sum "Si O2"
_cell_formula_units_Z 156
_cell_length_a 21.604582
_cell_length_b 21.604582
_cell_length_c 21.095318
_cell_angle_alpha 90.000000
_cell_angle_beta 90.000000
_cell_angle_gamma 120.000000
_cell_volume 8527.239176
_symmetry_space_group_name_H-M "P 63/M M C"
_symmetry_group_IT_number 194
_symmetry_cell_setting 'hexagonal'
loop_
_space_group_symop_operation_xyz
x,y,z
x-y,x,1/2+z
-y,x-y,z
-x,-y,1/2+z
-x+y,-x,z
y,-x+y,1/2+z
x-y,-y,-z
-x,-x+y,-z
y,x,-z
-y,-x,1/2-z
-x+y,y,1/2-z
x,x-y,1/2-z
-x,-y,-z
-x+y,-x,1/2-z
y,-x+y,-z
x,y,1/2-z
x-y,x,-z
-y,x-y,1/2-z
-x+y,y,z
x,x-y,z
-y,-x,z
y,x,1/2+z
x-y,-y,1/2+z
-x,-x+y,1/2+z
loop_
_atom_site_type_symbol
_atom_site_label
_atom_site_fract_x
_atom_site_fract_y
_atom_site_fract_z
Si Si1 0.135892 0.135892 0.000000
Si Si2 0.045747 0.652288 0.562422
Si Si3 0.333162 0.527456 0.376553
Si Si4 0.069912 0.795274 0.177463
Si Si5 0.056833 0.649089 0.177254
Si Si6 0.199830 0.937118 0.596777
Si Si7 0.190277 0.667253 0.522929
O O1 0.196194 0.160716 0.051574
O O2 0.123125 0.061563 0.969776
O O3 0.060179 0.732770 0.562399
O O4 0.121150 0.654862 0.561802
O O5 0.000000 0.611932 0.500000
O O6 0.006406 0.610302 0.627001
O O7 0.256769 0.513538 0.351526
O O8 0.388456 0.611545 0.370989
O O9 0.362945 0.486253 0.334283
O O10 0.327058 0.502290 0.449129
O O11 0.071765 0.813395 0.250000
O O12 0.132177 0.867824 0.143126
O O13 0.088407 0.733083 0.164763
O O14 0.989261 0.767261 0.156445
O O15 0.028729 0.627325 0.250000
O O16 0.144271 0.855730 0.617983
O O17 0.203904 0.601952 0.536366
O O18 0.260143 0.739858 0.545835
#
# Coordination Sequence:
#
# PCOD8330455 Si02
#       7
#    12  24  24  24  24  24  24
#     4  10  19  30  44  64  93 130 168 210 260 318
#     4  11  20  36  57  85 110 143 184 230 281 332
#     4  10  20  34  53  78 111 151 192 230 270 323
#     4   9  18  33  52  72  96 132 177 220 266 326
#     4  10  21  36  54  79 112 146 182 227 281 335
#     4  10  20  32  48  73 103 132 168 218 275 325
#     4  10  21  37  59  86 116 150 187 231 279 332
#
# _framework density 18.294315000000001
#
# number of rings (size 3 to 8) (size 9 to 14) (size 15 to 20)
#    0.000    2.000    2.308    1.769    0.000    3.692 
#    0.000    0.000    0.000    2.615    0.000    0.000 
#    0.000    1.231    0.000    0.000    0.000    0.000 
#
# Total GULP energy -1933853.364635 kJ/mol
# GULP energy per Si atom -12396.495927 kJ/mol
# Density = 1.825268 g / cm^3
# Si number density = 18.294315 Si / 1000 Ang^3
#
#
#
# Elastic Constant Matrix: (Units=GPa)
#
#
# Indices 1 2 3 4 5 6 
#
# 1 70.0216 77.1608 37.9820 0.0000 0.0000 0.0000
# 2 77.1608 70.0216 37.9820 0.0000 0.0000 0.0000
# 3 37.9820 37.9820 76.6280 0.0000 0.0000 0.0000
# 4 0.0000 0.0000 0.0000 27.1120 0.0000 0.0000
# 5 0.0000 0.0000 0.0000 0.0000 27.1120 0.0000
# 6 0.0000 0.0000 0.0000 0.0000 0.0000 -3.5696
#
#
#
# Elastic Compliance Matrix: (Units=1/GPa)
#
#
# Indices 1 2 3 4 5 6 
#
# 1 -0.065471 0.074601 -0.004525 0.000000 0.000000 0.000000
# 2 0.074601 -0.065471 -0.004525 0.000000 0.000000 0.000000
# 3 -0.004525 -0.004525 0.017536 0.000000 0.000000 0.000000
# 4 0.000000 0.000000 0.000000 0.036884 0.000000 0.000000
# 5 0.000000 0.000000 0.000000 0.000000 0.036884 0.000000
# 6 0.000000 0.000000 0.000000 0.000000 0.000000 -0.280142
#
#
# Mechanical properties :
#
#
# Convention : Reuss Voigt Hill
#
# Bulk Modulus (GPa) = 56.51476 58.10231 57.30854
# Shear Modulus (GPa) = -11.23646 14.36729 1.56542
#
# Velocity S-wave (km/s) = -2.48100 2.80544 0.92604
# Velocity P-wave (km/s) = 4.76989 6.50559 5.70414
#
# Compressibility (1/GPa) = 0.01769449
#
# Stress axis : x y z
#
# Youngs Moduli (GPa) = -15.27404 -15.27404 57.02472
#
# Poissons Ratio (x) = 1.13945 0.25806
# Poissons Ratio (y) = 1.13945 0.25806
# Poissons Ratio (z) = -0.06912 -0.06912
#
# Static dielectric constant tensor:
#      x y z
#    x 3.526310 0.000000 0.000000 
#    y 0.000000 3.526310 0.000000 
#    z 0.000000 0.000000 3.732740 
# 
# 
# High freq. dielectric constant tensor:
#      x y z
#    x 1.713940 0.000000 0.000000 
#    y 0.000000 1.713940 0.000000 
#    z 0.000000 0.000000 1.681870 
# 
# From -- ./inp_files/8381.got.cif
#   From: 2010.03.12/outbox.cif.g09.slc.cpg/sg194_5_cif.got.tgz:8381.got - 2010.04.01 12:26:19.
