data_PCOD8330170
_publ_section_title
;
Structure prediction by ZEFSAII (Michael W. Deem and Ramdas Pophale) SiO2 
 PCOD8330170
Probable space group: P 63/M C M
;
_chemical_formula_sum "Si O2"
_cell_formula_units_Z 104
_cell_length_a 14.291841
_cell_length_b 14.291841
_cell_length_c 29.859749
_cell_angle_alpha 90.000000
_cell_angle_beta 90.000000
_cell_angle_gamma 120.000000
_cell_volume 5281.936020
_symmetry_space_group_name_H-M "P 63/M C M"
_symmetry_group_IT_number 193
_symmetry_cell_setting 'hexagonal'
loop_
_space_group_symop_operation_xyz
x,y,z
x-y,x,1/2+z
-y,x-y,z
-x,-y,1/2+z
-x+y,-x,z
y,-x+y,1/2+z
x-y,-y,1/2-z
-x,-x+y,1/2-z
y,x,1/2-z
-y,-x,-z
-x+y,y,-z
x,x-y,-z
-x,-y,-z
-x+y,-x,1/2-z
y,-x+y,-z
x,y,1/2-z
x-y,x,-z
-y,x-y,1/2-z
-x+y,y,1/2+z
x,x-y,1/2+z
-y,-x,1/2+z
y,x,z
x-y,-y,z
-x,-x+y,z
loop_
_atom_site_type_symbol
_atom_site_label
_atom_site_fract_x
_atom_site_fract_y
_atom_site_fract_z
Si Si1 0.333334 0.666667 0.448590
Si Si2 0.724540 0.471882 0.750000
Si Si3 0.339882 0.218441 0.594419
Si Si4 0.290962 0.880114 0.667713
Si Si5 0.127433 0.872568 0.000000
Si Si6 0.442011 0.559967 0.096546
O O1 0.333334 0.666667 0.500000
O O2 0.216061 0.645494 0.433354
O O3 0.594752 0.383966 0.750000
O O4 0.757780 0.549169 0.793213
O O5 0.241856 0.241856 0.603129
O O6 0.335417 0.134352 0.631121
O O7 0.331043 0.174293 0.543825
O O8 0.453180 0.325288 0.602130
O O9 0.387541 0.869935 0.644686
O O10 0.338638 0.000000 0.688206
O O11 0.000000 0.820766 0.006101
O O12 0.475090 0.475090 0.075322
#
# Coordination Sequence:
#
# PCOD8330170 Si02
#       6
#     8  12  24  24  12  24
#     4  12  24  36  57  82 116 157 207 255 294 355
#     4  10  23  36  62  86 115 154 188 236 288 352
#     4  10  21  37  58  85 118 156 196 244 297 350
#     4  11  21  38  61  87 117 152 195 243 295 354
#     4  10  21  38  60  86 116 156 203 250 300 352
#     4  10  22  37  57  79 114 157 196 241 294 355
#
# _framework density 19.68975
#
# number of rings (size 3 to 8) (size 9 to 14) (size 15 to 20)
#    0.231    1.385    2.308    2.538    1.615    0.462 
#    0.000    1.731    0.000    0.462    0.000    0.000 
#    0.000    0.000    0.000    0.000    0.000    0.000 
#
# Total GULP energy -1289196.619443 kJ/mol
# GULP energy per Si atom -12396.121341 kJ/mol
# Density = 1.964493 g / cm^3
# Si number density = 19.689750 Si / 1000 Ang^3
#
#
#
# Elastic Constant Matrix: (Units=GPa)
#
#
# Indices 1 2 3 4 5 6 
#
# 1 68.9875 24.5573 35.2555 0.0000 0.0001 0.0000
# 2 24.5573 68.9882 35.2552 0.0000 -0.0002 0.0003
# 3 35.2555 35.2552 114.1853 -0.0001 0.0001 -0.0002
# 4 0.0000 0.0000 -0.0001 20.4715 0.0001 0.0001
# 5 0.0001 -0.0002 0.0001 0.0001 20.4717 0.0000
# 6 0.0000 0.0003 -0.0002 0.0001 0.0000 22.2149
#
#
#
# Elastic Compliance Matrix: (Units=1/GPa)
#
#
# Indices 1 2 3 4 5 6 
#
# 1 0.018220 -0.004287 -0.004302 0.000000 0.000000 0.000000
# 2 -0.004287 0.018220 -0.004302 0.000000 0.000000 0.000000
# 3 -0.004302 -0.004302 0.011414 0.000000 0.000000 0.000000
# 4 0.000000 0.000000 0.000000 0.048848 0.000000 0.000000
# 5 0.000000 0.000000 0.000000 0.000000 0.048848 0.000000
# 6 0.000000 0.000000 0.000000 0.000000 0.000000 0.045015
#
#
# Mechanical properties :
#
#
# Convention : Reuss Voigt Hill
#
# Bulk Modulus (GPa) = 45.30601 49.14410 47.22505
# Shear Modulus (GPa) = 22.35102 23.10450 22.72776
#
# Velocity S-wave (km/s) = 3.37287 3.42925 3.40118
# Velocity P-wave (km/s) = 6.18290 6.37911 6.28177
#
# Compressibility (1/GPa) = 0.02207213
#
# Stress axis : x y z
#
# Youngs Moduli (GPa) = 54.88505 54.88585 87.61121
#
# Poissons Ratio (x) = 0.23531 0.37689
# Poissons Ratio (y) = 0.23531 0.37687
# Poissons Ratio (z) = 0.23610 0.23610
#
# Static dielectric constant tensor:
#      x y z
#    x 3.668600 0.000000 0.000000 
#    y 0.000000 3.668600 0.000000 
#    z 0.000000 0.000000 3.379450 
# 
# 
# High freq. dielectric constant tensor:
#      x y z
#    x 1.766130 0.000000 0.000000 
#    y 0.000000 1.766130 0.000000 
#    z 0.000000 0.000000 1.751740 
# 
# From -- ./inp_files/8890.got.cif
#   From: 2010.03.12/outbox.cif.g09.slc.cpg/sg193_5_cif.got.tgz:8890.got - 2010.04.01 12:20:39.
