data_PCOD8330724
_publ_section_title
;
Structure prediction by ZEFSAII (Michael W. Deem and Ramdas Pophale) SiO2 
 PCOD8330724
Probable space group: P 63/M M C
;
_chemical_formula_sum "Si O2"
_cell_formula_units_Z 88
_cell_length_a 25.824636
_cell_length_b 25.824636
_cell_length_c 9.065473
_cell_angle_alpha 90.000000
_cell_angle_beta 90.000000
_cell_angle_gamma 120.000000
_cell_volume 5235.877994
_symmetry_space_group_name_H-M "P 63/M M C"
_symmetry_group_IT_number 194
_symmetry_cell_setting 'hexagonal'
loop_
_space_group_symop_operation_xyz
x,y,z
x-y,x,1/2+z
-y,x-y,z
-x,-y,1/2+z
-x+y,-x,z
y,-x+y,1/2+z
x-y,-y,-z
-x,-x+y,-z
y,x,-z
-y,-x,1/2-z
-x+y,y,1/2-z
x,x-y,1/2-z
-x,-y,-z
-x+y,-x,1/2-z
y,-x+y,-z
x,y,1/2-z
x-y,x,-z
-y,x-y,1/2-z
-x+y,y,z
x,x-y,z
-y,-x,z
y,x,1/2+z
x-y,-y,1/2+z
-x,-x+y,1/2+z
loop_
_atom_site_type_symbol
_atom_site_label
_atom_site_fract_x
_atom_site_fract_y
_atom_site_fract_z
Si Si1 0.298131 0.822659 0.422256
Si Si2 0.240180 0.357560 0.584379
Si Si3 0.333334 0.666667 0.072915
Si Si4 0.238156 0.059047 0.576921
Si Si5 0.600561 0.399440 0.924513
O O1 0.297844 0.836065 0.250000
O O2 0.244820 0.755181 0.456931
O O3 0.291106 0.872674 0.510635
O O4 0.362279 0.831177 0.473707
O O5 0.259658 0.352054 0.750000
O O6 0.179821 0.359642 0.585565
O O7 0.230313 0.301002 0.489260
O O8 0.333334 0.666667 0.250000
O O9 0.267023 0.633512 0.007018
O O10 0.238527 0.048710 0.750000
O O11 0.226448 0.113224 0.540426
O O12 0.185211 0.000000 0.500000
O O13 0.603666 0.396335 0.750000
#
# Coordination Sequence:
#
# PCOD8330724 Si02
#       5
#    24  24   4  24  12
#     4   9  15  23  37  57  82 114 155 202 248 294
#     4   9  17  29  44  63  90 123 157 195 238 280
#     4   9  12  18  30  51  79 110 154 201 247 299
#     4  10  20  34  54  80 107 133 160 189 222 261
#     4   9  14  20  33  55  82 114 155 203 251 299
#
# _framework density 16.807115
#
# number of rings (size 3 to 8) (size 9 to 14) (size 15 to 20)
#    0.000    2.727    1.364    1.636    0.000    4.909 
#    0.000    0.682    0.000    0.273    0.000    0.955 
#    0.000    0.000    0.000    0.000    0.000    0.000 
#
# Total GULP energy -1090796.096569 kJ/mol
# GULP energy per Si atom -12395.410188 kJ/mol
# Density = 1.676886 g / cm^3
# Si number density = 16.807115 Si / 1000 Ang^3
#
#
#
# Elastic Constant Matrix: (Units=GPa)
#
#
# Indices 1 2 3 4 5 6 
#
# 1 86.1952 47.7529 48.5960 0.0000 0.0000 0.0000
# 2 47.7529 86.1954 48.5960 0.0000 0.0000 0.0000
# 3 48.5960 48.5960 91.9145 0.0000 0.0000 0.0000
# 4 0.0000 0.0000 0.0000 20.3901 0.0000 0.0000
# 5 0.0000 0.0000 0.0000 0.0000 20.3902 0.0000
# 6 0.0000 0.0000 0.0000 0.0000 0.0000 19.2212
#
#
#
# Elastic Compliance Matrix: (Units=1/GPa)
#
#
# Indices 1 2 3 4 5 6 
#
# 1 0.019063 -0.006950 -0.006404 0.000000 0.000000 0.000000
# 2 -0.006950 0.019063 -0.006404 0.000000 0.000000 0.000000
# 3 -0.006404 -0.006404 0.017651 0.000000 0.000000 0.000000
# 4 0.000000 0.000000 0.000000 0.049043 0.000000 0.000000
# 5 0.000000 0.000000 0.000000 0.000000 0.049043 0.000000
# 6 0.000000 0.000000 0.000000 0.000000 0.000000 0.052026
#
#
# Mechanical properties :
#
#
# Convention : Reuss Voigt Hill
#
# Bulk Modulus (GPa) = 61.49967 61.57722 61.53845
# Shear Modulus (GPa) = 19.93424 19.95764 19.94594
#
# Velocity S-wave (km/s) = 3.44766 3.44968 3.44867
# Velocity P-wave (km/s) = 7.24702 7.25150 7.24926
#
# Compressibility (1/GPa) = 0.01626025
#
# Stress axis : x y z
#
# Youngs Moduli (GPa) = 52.45886 52.45898 56.65352
#
# Poissons Ratio (x) = 0.36461 0.36280
# Poissons Ratio (y) = 0.36461 0.36280
# Poissons Ratio (z) = 0.33594 0.33594
#
# Static dielectric constant tensor:
#      x y z
#    x 3.051600 0.000000 0.000000 
#    y 0.000000 3.051600 0.000000 
#    z 0.000000 0.000000 3.096010 
# 
# 
# High freq. dielectric constant tensor:
#      x y z
#    x 1.624370 0.000000 0.000000 
#    y 0.000000 1.624370 0.000000 
#    z 0.000000 0.000000 1.638340 
# 
# From -- ./inp_files/1502.got.cif
#   From: 2010.03.12/outbox.cif.g09.slc.cpg/sg194_1_cif.got.tgz:1502.got - 2010.04.01 12:26:19.
