data_PCOD8330658
_publ_section_title
;
Structure prediction by ZEFSAII (Michael W. Deem and Ramdas Pophale) SiO2 
 PCOD8330658
Probable space group: P 63/M M C
;
_chemical_formula_sum "Si O2"
_cell_formula_units_Z 144
_cell_length_a 32.207687
_cell_length_b 32.207687
_cell_length_c 9.164978
_cell_angle_alpha 90.000000
_cell_angle_beta 90.000000
_cell_angle_gamma 120.000000
_cell_volume 8233.436351
_symmetry_space_group_name_H-M "P 63/M M C"
_symmetry_group_IT_number 194
_symmetry_cell_setting 'hexagonal'
loop_
_space_group_symop_operation_xyz
x,y,z
x-y,x,1/2+z
-y,x-y,z
-x,-y,1/2+z
-x+y,-x,z
y,-x+y,1/2+z
x-y,-y,-z
-x,-x+y,-z
y,x,-z
-y,-x,1/2-z
-x+y,y,1/2-z
x,x-y,1/2-z
-x,-y,-z
-x+y,-x,1/2-z
y,-x+y,-z
x,y,1/2-z
x-y,x,-z
-y,x-y,1/2-z
-x+y,y,z
x,x-y,z
-y,-x,z
y,x,1/2+z
x-y,-y,1/2+z
-x,-x+y,1/2+z
loop_
_atom_site_type_symbol
_atom_site_label
_atom_site_fract_x
_atom_site_fract_y
_atom_site_fract_z
Si Si1 0.524459 0.143096 0.579199
Si Si2 0.617940 0.570699 0.921437
Si Si3 0.095685 0.286928 0.917948
Si Si4 0.047374 0.856706 0.420770
Si Si5 0.192013 0.477776 0.579612
Si Si6 0.903609 0.286182 0.419938
O O1 0.525379 0.152287 0.750000
O O2 0.574050 0.148099 0.523980
O O3 0.482098 0.090009 0.539080
O O4 0.516983 0.183190 0.500102
O O5 0.616751 0.578526 0.750000
O O6 0.576583 0.576583 0.000000
O O7 0.669279 0.610563 0.984235
O O8 0.080781 0.272937 0.750000
O O9 0.150420 0.300839 0.943618
O O10 0.091051 0.332195 0.965693
O O11 0.060088 0.242438 0.017594
O O12 0.037746 0.847902 0.250000
O O13 0.089871 0.910130 0.455968
O O14 0.000000 0.850264 0.500000
O O15 0.194642 0.488299 0.750000
O O16 0.241608 0.483216 0.521664
O O17 0.150186 0.424098 0.543310
O O18 0.915248 0.298946 0.250000
#
# Coordination Sequence:
#
# PCOD8330658 Si02
#       6
#    24  24  24  24  24  24
#     4   9  19  35  52  71  96 125 159 200 244 292
#     4  10  20  33  48  67  93 126 164 205 247 287
#     4   9  17  30  49  72  98 129 163 197 233 275
#     4  10  21  36  54  76 100 127 160 197 237 281
#     4   9  17  30  50  76 102 126 156 196 241 290
#     4   9  17  30  48  70  98 132 166 199 237 281
#
# _framework density 17.489660000000001
#
# number of rings (size 3 to 8) (size 9 to 14) (size 15 to 20)
#    0.000    2.667    0.000    1.500    0.000    6.000 
#    0.000    0.000    0.000    3.500    0.000    0.000 
#    0.000    0.000    0.000    0.000    0.000    0.000 
#
# Total GULP energy -1785962.866231 kJ/mol
# GULP energy per Si atom -12402.519904 kJ/mol
# Density = 1.744985 g / cm^3
# Si number density = 17.489660 Si / 1000 Ang^3
#
#
#
# Elastic Constant Matrix: (Units=GPa)
#
#
# Indices 1 2 3 4 5 6 
#
# 1 103.7668 61.6364 48.8399 0.0000 0.0000 0.0000
# 2 61.6364 103.7668 48.8399 0.0000 0.0000 0.0000
# 3 48.8399 48.8399 68.2856 0.0000 0.0000 0.0000
# 4 0.0000 0.0000 0.0000 28.9732 0.0000 0.0000
# 5 0.0000 0.0000 0.0000 0.0000 28.9732 0.0000
# 6 0.0000 0.0000 0.0000 0.0000 0.0000 21.0652
#
#
#
# Elastic Compliance Matrix: (Units=1/GPa)
#
#
# Indices 1 2 3 4 5 6 
#
# 1 0.017101 -0.006634 -0.007486 0.000000 0.000000 0.000000
# 2 -0.006634 0.017101 -0.007486 0.000000 0.000000 0.000000
# 3 -0.007486 -0.007486 0.025353 0.000000 0.000000 0.000000
# 4 0.000000 0.000000 0.000000 0.034515 0.000000 0.000000
# 5 0.000000 0.000000 0.000000 0.000000 0.034515 0.000000
# 6 0.000000 0.000000 0.000000 0.000000 0.000000 0.047472
#
#
# Mechanical properties :
#
#
# Convention : Reuss Voigt Hill
#
# Bulk Modulus (GPa) = 61.19212 66.05016 63.62114
# Shear Modulus (GPa) = 22.25012 23.56918 22.90965
#
# Velocity S-wave (km/s) = 3.57064 3.67496 3.62318
# Velocity P-wave (km/s) = 7.21546 7.47358 7.34565
#
# Compressibility (1/GPa) = 0.01634197
#
# Stress axis : x y z
#
# Youngs Moduli (GPa) = 58.47495 58.47495 39.44295
#
# Poissons Ratio (x) = 0.38795 0.29528
# Poissons Ratio (y) = 0.38795 0.29528
# Poissons Ratio (z) = 0.43776 0.43776
#
# Static dielectric constant tensor:
#      x y z
#    x 3.238590 0.000000 0.000000 
#    y 0.000000 3.238590 0.000000 
#    z 0.000000 0.000000 3.215950 
# 
# 
# High freq. dielectric constant tensor:
#      x y z
#    x 1.668080 0.000000 0.000000 
#    y 0.000000 1.668080 0.000000 
#    z 0.000000 0.000000 1.675960 
# 
# From -- ./inp_files/2076.got.cif
#   From: 2010.03.12/outbox.cif.g09.slc.cpg/sg194_2_cif.got.tgz:2076.got - 2010.04.01 12:26:19.
