data_PCOD8330747
_publ_section_title
;
Structure prediction by ZEFSAII (Michael W. Deem and Ramdas Pophale) SiO2 
 PCOD8330747
Probable space group: P 63/M M C
;
_chemical_formula_sum "Si O2"
_cell_formula_units_Z 82
_cell_length_a 20.338266
_cell_length_b 20.338266
_cell_length_c 11.749207
_cell_angle_alpha 90.000000
_cell_angle_beta 90.000000
_cell_angle_gamma 120.000000
_cell_volume 4208.884744
_symmetry_space_group_name_H-M "P 63/M M C"
_symmetry_group_IT_number 194
_symmetry_cell_setting 'hexagonal'
loop_
_space_group_symop_operation_xyz
x,y,z
x-y,x,1/2+z
-y,x-y,z
-x,-y,1/2+z
-x+y,-x,z
y,-x+y,1/2+z
x-y,-y,-z
-x,-x+y,-z
y,x,-z
-y,-x,1/2-z
-x+y,y,1/2-z
x,x-y,1/2-z
-x,-y,-z
-x+y,-x,1/2-z
y,-x+y,-z
x,y,1/2-z
x-y,x,-z
-y,x-y,1/2-z
-x+y,y,z
x,x-y,z
-y,-x,z
y,x,1/2+z
x-y,-y,1/2+z
-x,-x+y,1/2+z
loop_
_atom_site_type_symbol
_atom_site_label
_atom_site_fract_x
_atom_site_fract_y
_atom_site_fract_z
Si Si1 0.548225 0.848987 0.621663
Si Si2 0.411546 0.588454 0.500370
Si Si3 0.871242 0.284579 0.750000
Si Si4 0.666668 0.333334 0.381795
Si Si5 0.686807 0.769909 0.470476
Si Si6 0.421426 0.842852 0.250000
O O1 0.542597 0.873565 0.750000
O O2 0.517559 0.758780 0.615244
O O3 0.500097 0.870512 0.534557
O O4 0.634566 0.894454 0.581964
O O5 0.375965 0.624036 0.580146
O O6 0.398244 0.601757 0.368282
O O7 0.780248 0.219753 0.750000
O O8 0.912391 0.274636 0.640002
O O9 0.886172 0.371810 0.750000
O O10 0.666667 0.333334 0.250000
O O11 0.756309 0.756309 0.500000
O O12 0.720019 0.860010 0.453994
#
# Coordination Sequence:
#
# PCOD8330747 Si02
#       6
#    24  12  12   4  24   6
#     4  10  20  35  54  79 113 152 201 250 295 348
#     4  12  22  34  52  80 114 159 205 264 313 351
#     4  10  22  42  59  85 129 162 201 256 302 346
#     4  12  24  34  50  76 114 159 217 275 322 345
#     4  10  22  41  66  90 117 155 194 242 299 364
#     4  12  24  36  54  80 122 162 214 248 296 358
#
# _framework density 19.482596000000001
#
# number of rings (size 3 to 8) (size 9 to 14) (size 15 to 20)
#    0.000    1.463    4.390    1.317    4.098    0.000 
#    0.439    2.927    0.000    0.293    0.000    0.000 
#    0.000    0.000    0.000    0.000    0.000    0.000 
#
# Total GULP energy -1016025.760298 kJ/mol
# GULP energy per Si atom -12390.558052 kJ/mol
# Density = 1.943825 g / cm^3
# Si number density = 19.482596 Si / 1000 Ang^3
#
#
#
# Elastic Constant Matrix: (Units=GPa)
#
#
# Indices 1 2 3 4 5 6 
#
# 1 89.7252 50.3920 34.1165 0.0000 0.0000 -0.0002
# 2 50.3920 89.7248 34.1157 0.0001 0.0000 0.0000
# 3 34.1165 34.1157 160.7799 0.0000 0.0000 -0.0002
# 4 0.0000 0.0001 0.0000 22.1577 0.0000 0.0000
# 5 0.0000 0.0000 0.0000 0.0000 22.1578 0.0001
# 6 -0.0002 0.0000 -0.0002 0.0000 0.0001 19.6661
#
#
#
# Elastic Compliance Matrix: (Units=1/GPa)
#
#
# Indices 1 2 3 4 5 6 
#
# 1 0.016692 -0.008732 -0.001689 0.000000 0.000000 0.000000
# 2 -0.008732 0.016692 -0.001689 0.000000 0.000000 0.000000
# 3 -0.001689 -0.001689 0.006936 0.000000 0.000000 0.000000
# 4 0.000000 0.000000 0.000000 0.045131 0.000000 0.000000
# 5 0.000000 0.000000 0.000000 0.000000 0.045131 0.000000
# 6 0.000000 0.000000 0.000000 0.000000 0.000000 0.050849
#
#
# Mechanical properties :
#
#
# Convention : Reuss Voigt Hill
#
# Bulk Modulus (GPa) = 62.11379 64.16423 63.13901
# Shear Modulus (GPa) = 23.69477 27.57005 25.63241
#
# Velocity S-wave (km/s) = 3.49119 3.76588 3.63113
# Velocity P-wave (km/s) = 6.94277 7.20519 7.07520
#
# Compressibility (1/GPa) = 0.01609948
#
# Stress axis : x y z
#
# Youngs Moduli (GPa) = 59.91030 59.91019 144.16650
#
# Poissons Ratio (x) = 0.52315 0.24349
# Poissons Ratio (y) = 0.52316 0.24347
# Poissons Ratio (z) = 0.10119 0.10118
#
# Static dielectric constant tensor:
#      x y z
#    x 3.324810 0.000000 0.000000 
#    y 0.000000 3.324810 0.000000 
#    z 0.000000 0.000000 3.730960 
# 
# 
# High freq. dielectric constant tensor:
#      x y z
#    x 1.722100 0.000000 0.000000 
#    y 0.000000 1.722100 0.000000 
#    z 0.000000 0.000000 1.784310 
# 
# From -- ./inp_files/2867.got.cif
#   From: 2010.03.12/outbox.cif.g09.slc.cpg/sg194_2_cif.got.tgz:2867.got - 2010.04.01 12:26:19.
