data_PCOD8330699
_publ_section_title
;
Structure prediction by ZEFSAII (Michael W. Deem and Ramdas Pophale) SiO2 
 PCOD8330699
Probable space group: P 63/M M C
;
_chemical_formula_sum "Si O2"
_cell_formula_units_Z 168
_cell_length_a 18.972165
_cell_length_b 18.972165
_cell_length_c 28.066788
_cell_angle_alpha 90.000000
_cell_angle_beta 90.000000
_cell_angle_gamma 120.000000
_cell_volume 8748.974123
_symmetry_space_group_name_H-M "P 63/M M C"
_symmetry_group_IT_number 194
_symmetry_cell_setting 'hexagonal'
loop_
_space_group_symop_operation_xyz
x,y,z
x-y,x,1/2+z
-y,x-y,z
-x,-y,1/2+z
-x+y,-x,z
y,-x+y,1/2+z
x-y,-y,-z
-x,-x+y,-z
y,x,-z
-y,-x,1/2-z
-x+y,y,1/2-z
x,x-y,1/2-z
-x,-y,-z
-x+y,-x,1/2-z
y,-x+y,-z
x,y,1/2-z
x-y,x,-z
-y,x-y,1/2-z
-x+y,y,z
x,x-y,z
-y,-x,z
y,x,1/2+z
x-y,-y,1/2+z
-x,-x+y,1/2+z
loop_
_atom_site_type_symbol
_atom_site_label
_atom_site_fract_x
_atom_site_fract_y
_atom_site_fract_z
Si Si1 0.842930 0.000188 0.556309
Si Si2 0.340859 0.042622 0.196639
Si Si3 0.513451 0.179539 0.304985
Si Si4 0.417634 0.418228 0.056143
Si Si5 0.702455 0.563967 0.802145
Si Si6 0.507717 0.173138 0.900468
Si Si7 0.083166 0.326692 0.903094
O O1 0.856287 0.928144 0.577014
O O2 0.755060 0.985183 0.571567
O O3 0.846983 0.000000 0.500000
O O4 0.913560 0.086441 0.576760
O O5 0.319265 0.061325 0.250000
O O6 0.438042 0.089293 0.189222
O O7 0.307508 0.074125 0.153811
O O8 0.306579 0.948329 0.189069
O O9 0.533121 0.200464 0.250000
O O10 0.591621 0.183241 0.330411
O O11 0.495421 0.247710 0.328174
O O12 0.509930 0.490071 0.068446
O O13 0.351627 0.442178 0.074009
O O14 0.399177 0.333763 0.081779
O O15 0.405075 0.405075 0.000000
O O16 0.666428 0.524824 0.750000
O O17 0.798552 0.597104 0.804010
O O18 0.657452 0.497908 0.843324
O O19 0.598698 0.197395 0.916069
O O20 0.490922 0.245461 0.915649
O O21 0.174475 0.348951 0.918806
#
# Coordination Sequence:
#
# PCOD8330699 Si02
#       7
#    24  24  24  24  24  24  24
#     4   9  18  33  55  84 115 142 169 209 268 333
#     4  10  20  34  51  73 104 142 183 227 273 322
#     4   9  17  29  46  68  94 127 169 218 270 318
#     4  10  22  40  59  80 110 148 186 226 279 337
#     4   9  18  33  53  78 108 142 181 223 268 324
#     4  10  20  35  57  85 114 146 184 226 273 327
#     4  11  22  35  54  82 109 138 181 231 274 318
#
# _framework density 19.202251
#
# number of rings (size 3 to 8) (size 9 to 14) (size 15 to 20)
#    0.000    2.286    1.429    1.286    0.000    5.143 
#    0.000    1.429    0.000    1.143    0.000    0.000 
#    0.000    1.143    0.000    0.000    0.000    0.000 
#
# Total GULP energy -2081937.360624 kJ/mol
# GULP energy per Si atom -12392.484289 kJ/mol
# Density = 1.915855 g / cm^3
# Si number density = 19.202251 Si / 1000 Ang^3
#
#
#
# Elastic Constant Matrix: (Units=GPa)
#
#
# Indices 1 2 3 4 5 6 
#
# 1 102.5647 56.8721 29.6441 0.0000 0.0000 0.0000
# 2 56.8721 102.5647 29.6441 0.0000 0.0000 0.0000
# 3 29.6441 29.6441 73.9627 0.0000 0.0000 0.0000
# 4 0.0000 0.0000 0.0000 20.8111 0.0000 0.0000
# 5 0.0000 0.0000 0.0000 0.0000 20.8111 0.0000
# 6 0.0000 0.0000 0.0000 0.0000 0.0000 22.8463
#
#
#
# Elastic Compliance Matrix: (Units=1/GPa)
#
#
# Indices 1 2 3 4 5 6 
#
# 1 0.014628 -0.007257 -0.002954 0.000000 0.000000 0.000000
# 2 -0.007257 0.014628 -0.002954 0.000000 0.000000 0.000000
# 3 -0.002954 -0.002954 0.015888 0.000000 0.000000 0.000000
# 4 0.000000 0.000000 0.000000 0.048051 0.000000 0.000000
# 5 0.000000 0.000000 0.000000 0.000000 0.048051 0.000000
# 6 0.000000 0.000000 0.000000 0.000000 0.000000 0.043771
#
#
# Mechanical properties :
#
#
# Convention : Reuss Voigt Hill
#
# Bulk Modulus (GPa) = 53.15457 56.82362 54.98909
# Shear Modulus (GPa) = 22.97581 23.75579 23.36580
#
# Velocity S-wave (km/s) = 3.46282 3.52111 3.49209
# Velocity P-wave (km/s) = 6.61284 6.79613 6.70511
#
# Compressibility (1/GPa) = 0.01881306
#
# Stress axis : x y z
#
# Youngs Moduli (GPa) = 68.36204 68.36204 62.93925
#
# Poissons Ratio (x) = 0.49613 0.18593
# Poissons Ratio (y) = 0.49613 0.18593
# Poissons Ratio (z) = 0.20195 0.20195
#
# Static dielectric constant tensor:
#      x y z
#    x 3.506820 0.000000 0.000000 
#    y 0.000000 3.506820 0.000000 
#    z 0.000000 0.000000 3.586860 
# 
# 
# High freq. dielectric constant tensor:
#      x y z
#    x 1.741380 0.000000 0.000000 
#    y 0.000000 1.741380 0.000000 
#    z 0.000000 0.000000 1.734370 
# 
# From -- ./inp_files/12280.got.cif
#   From: 2010.03.12/outbox.cif.g09.slc.cpg/sg194_7_cif.got.tgz:12280.got - 2010.04.01 12:26:19.
