data_PCOD8330547
_publ_section_title
;
Structure prediction by ZEFSAII (Michael W. Deem and Ramdas Pophale) SiO2 
 PCOD8330547
Probable space group: P 63/M M C
;
_chemical_formula_sum "Si O2"
_cell_formula_units_Z 144
_cell_length_a 32.275754
_cell_length_b 32.275754
_cell_length_c 9.043915
_cell_angle_alpha 90.000000
_cell_angle_beta 90.000000
_cell_angle_gamma 120.000000
_cell_volume 8159.055682
_symmetry_space_group_name_H-M "P 63/M M C"
_symmetry_group_IT_number 194
_symmetry_cell_setting 'hexagonal'
loop_
_space_group_symop_operation_xyz
x,y,z
x-y,x,1/2+z
-y,x-y,z
-x,-y,1/2+z
-x+y,-x,z
y,-x+y,1/2+z
x-y,-y,-z
-x,-x+y,-z
y,x,-z
-y,-x,1/2-z
-x+y,y,1/2-z
x,x-y,1/2-z
-x,-y,-z
-x+y,-x,1/2-z
y,-x+y,-z
x,y,1/2-z
x-y,x,-z
-y,x-y,1/2-z
-x+y,y,z
x,x-y,z
-y,-x,z
y,x,1/2+z
x-y,-y,1/2+z
-x,-x+y,1/2+z
loop_
_atom_site_type_symbol
_atom_site_label
_atom_site_fract_x
_atom_site_fract_y
_atom_site_fract_z
Si Si1 0.951452 0.665708 0.077109
Si Si2 0.477012 0.619509 0.578271
Si Si3 0.289151 0.096949 0.578888
Si Si4 0.857499 0.810259 0.421506
Si Si5 0.048444 0.430207 0.922076
Si Si6 0.333126 0.571855 0.424527
O O1 0.954086 0.676685 0.250000
O O2 0.942430 0.613219 0.044382
O O3 0.908238 0.669202 0.001418
O O4 0.000000 0.705230 0.000000
O O5 0.484191 0.633112 0.750000
O O6 0.432065 0.567936 0.547468
O O7 0.522798 0.617676 0.514864
O O8 0.469972 0.659892 0.496253
O O9 0.284949 0.082517 0.750000
O O10 0.303430 0.151715 0.558829
O O11 0.239492 0.061681 0.499912
O O12 0.851646 0.851646 0.500000
O O13 0.843504 0.805849 0.250000
O O14 0.912293 0.824585 0.443425
O O15 0.041738 0.436104 0.750000
O O16 0.000000 0.421885 0.000000
O O17 0.332516 0.565923 0.250000
O O18 0.283416 0.566831 0.481129
O O19 0.376114 0.623887 0.473449
#
# Coordination Sequence:
#
# PCOD8330547 Si02
#       6
#    24  24  24  24  24  24
#     4  10  19  32  50  69  92 122 156 193 232 278
#     4   9  18  33  51  72 100 130 161 201 246 291
#     4  10  20  33  49  70  96 124 155 192 232 275
#     4  10  20  33  50  72  97 125 156 191 233 280
#     4   9  19  34  51  72  96 125 161 200 243 288
#     4   9  17  30  49  73 100 130 164 201 241 286
#
# _framework density 17.649101000000002
#
# number of rings (size 3 to 8) (size 9 to 14) (size 15 to 20)
#    0.000    2.500    0.000    2.167    0.000    4.667 
#    0.000    0.833    0.000    6.167    0.000    0.000 
#    0.000    0.000    0.000    0.000    0.000    0.000 
#
# Total GULP energy -1785863.227250 kJ/mol
# GULP energy per Si atom -12401.827967 kJ/mol
# Density = 1.760893 g / cm^3
# Si number density = 17.649101 Si / 1000 Ang^3
#
#
#
# Elastic Constant Matrix: (Units=GPa)
#
#
# Indices 1 2 3 4 5 6 
#
# 1 111.9309 61.6941 50.3662 0.0000 0.0000 0.0000
# 2 61.6941 111.9309 50.3662 0.0000 0.0000 0.0000
# 3 50.3662 50.3662 84.9757 0.0000 0.0000 0.0000
# 4 0.0000 0.0000 0.0000 28.7280 0.0000 0.0000
# 5 0.0000 0.0000 0.0000 0.0000 28.7280 0.0000
# 6 0.0000 0.0000 0.0000 0.0000 0.0000 25.1184
#
#
#
# Elastic Compliance Matrix: (Units=1/GPa)
#
#
# Indices 1 2 3 4 5 6 
#
# 1 0.014342 -0.005564 -0.005203 0.000000 0.000000 0.000000
# 2 -0.005564 0.014342 -0.005203 0.000000 0.000000 0.000000
# 3 -0.005203 -0.005203 0.017936 0.000000 0.000000 0.000000
# 4 0.000000 0.000000 0.000000 0.034809 0.000000 0.000000
# 5 0.000000 0.000000 0.000000 0.000000 0.034809 0.000000
# 6 0.000000 0.000000 0.000000 0.000000 0.000000 0.039811
#
#
# Mechanical properties :
#
#
# Convention : Reuss Voigt Hill
#
# Bulk Modulus (GPa) = 68.11827 70.41005 69.26416
# Shear Modulus (GPa) = 25.92258 26.27564 26.09911
#
# Velocity S-wave (km/s) = 3.83662 3.86266 3.84966
# Velocity P-wave (km/s) = 7.63583 7.73786 7.68701
#
# Compressibility (1/GPa) = 0.01468035
#
# Stress axis : x y z
#
# Youngs Moduli (GPa) = 69.72569 69.72569 55.75460
#
# Poissons Ratio (x) = 0.38794 0.29009
# Poissons Ratio (y) = 0.38794 0.29009
# Poissons Ratio (z) = 0.36278 0.36278
#
# Static dielectric constant tensor:
#      x y z
#    x 3.279850 0.000000 0.000000 
#    y 0.000000 3.279850 0.000000 
#    z 0.000000 0.000000 3.301720 
# 
# 
# High freq. dielectric constant tensor:
#      x y z
#    x 1.675790 0.000000 0.000000 
#    y 0.000000 1.675790 0.000000 
#    z 0.000000 0.000000 1.687320 
# 
# From -- ./inp_files/2135.got.cif
#   From: 2010.03.12/outbox.cif.g09.slc.cpg/sg194_2_cif.got.tgz:2135.got - 2010.04.01 12:26:19.
