data_PCOD8330224
_publ_section_title
;
Structure prediction by ZEFSAII (Michael W. Deem and Ramdas Pophale) SiO2 
 PCOD8330224
Probable space group: P 63/M C M
;
_chemical_formula_sum "Si O2"
_cell_formula_units_Z 104
_cell_length_a 13.614002
_cell_length_b 13.614002
_cell_length_c 34.182498
_cell_angle_alpha 90.000000
_cell_angle_beta 90.000000
_cell_angle_gamma 120.000000
_cell_volume 5486.634739
_symmetry_space_group_name_H-M "P 63/M C M"
_symmetry_group_IT_number 193
_symmetry_cell_setting 'hexagonal'
loop_
_space_group_symop_operation_xyz
x,y,z
x-y,x,1/2+z
-y,x-y,z
-x,-y,1/2+z
-x+y,-x,z
y,-x+y,1/2+z
x-y,-y,1/2-z
-x,-x+y,1/2-z
y,x,1/2-z
-y,-x,-z
-x+y,y,-z
x,x-y,-z
-x,-y,-z
-x+y,-x,1/2-z
y,-x+y,-z
x,y,1/2-z
x-y,x,-z
-y,x-y,1/2-z
-x+y,y,1/2+z
x,x-y,1/2+z
-y,-x,1/2+z
y,x,z
x-y,-y,z
-x,-x+y,z
loop_
_atom_site_type_symbol
_atom_site_label
_atom_site_fract_x
_atom_site_fract_y
_atom_site_fract_z
Si Si1 0.679907 0.000000 0.796757
Si Si2 0.432295 0.224895 0.420578
Si Si3 0.000000 0.454926 0.704123
Si Si4 0.333334 0.666667 0.547154
Si Si5 0.583126 0.000000 0.946198
Si Si6 0.355721 0.126084 0.665925
Si Si7 0.000000 0.640591 0.464376
O O1 0.566879 0.000000 0.811587
O O2 0.789771 0.111806 0.813043
O O3 0.687856 0.000000 0.750000
O O4 0.553431 0.324821 0.435907
O O5 0.424567 0.105611 0.423997
O O6 0.409937 0.240207 0.376111
O O7 0.348082 0.241182 0.449711
O O8 0.112626 0.451961 0.689833
O O9 0.000000 0.457863 0.750000
O O10 0.333334 0.666667 0.500000
O O11 0.465807 0.000000 0.942881
O O12 0.623837 0.000000 0.989930
O O13 0.243094 0.000000 0.662793
#
# Coordination Sequence:
#
# PCOD8330224 Si02
#       7
#    12  24  12   8  12  24  12
#     4  11  23  43  72  95 127 172 209 257 330 391
#     4  12  23  38  60  88 128 168 206 264 319 370
#     4   9  21  43  66  95 133 167 210 261 312 396
#     4  12  24  36  60  96 130 173 229 264 306 387
#     4  11  23  35  61  83 122 161 216 264 309 367
#     4  10  24  42  64  95 133 163 214 267 321 390
#     4  11  21  39  55  87 118 165 214 260 313 369
#
# _framework density 18.955154
#
# number of rings (size 3 to 8) (size 9 to 14) (size 15 to 20)
#    0.692    0.462    3.462    3.462    3.231    1.846 
#    2.077    0.000    0.000    0.462    0.000    1.615 
#    0.000    0.000    0.000    0.000    0.000    0.000 
#
# Total GULP energy -1288775.618131 kJ/mol
# GULP energy per Si atom -12392.073251 kJ/mol
# Density = 1.891201 g / cm^3
# Si number density = 18.955154 Si / 1000 Ang^3
#
#
#
# Elastic Constant Matrix: (Units=GPa)
#
#
# Indices 1 2 3 4 5 6 
#
# 1 108.1378 51.6006 42.9152 -0.0001 0.0001 0.0001
# 2 51.6006 108.1377 42.9154 -0.0001 0.0000 0.0000
# 3 42.9152 42.9154 107.1038 0.0002 -0.0002 0.0001
# 4 -0.0001 -0.0001 0.0002 43.8017 -0.0010 0.0001
# 5 0.0001 0.0000 -0.0002 -0.0010 43.8013 0.0000
# 6 0.0001 0.0000 0.0001 0.0001 0.0000 28.2686
#
#
#
# Elastic Compliance Matrix: (Units=1/GPa)
#
#
# Indices 1 2 3 4 5 6 
#
# 1 0.012833 -0.004855 -0.003197 0.000000 0.000000 0.000000
# 2 -0.004855 0.012833 -0.003197 0.000000 0.000000 0.000000
# 3 -0.003197 -0.003197 0.011898 0.000000 0.000000 0.000000
# 4 0.000000 0.000000 0.000000 0.022830 0.000001 0.000000
# 5 0.000000 0.000000 0.000000 0.000001 0.022830 0.000000
# 6 0.000000 0.000000 0.000000 0.000000 0.000000 0.035375
#
#
# Mechanical properties :
#
#
# Convention : Reuss Voigt Hill
#
# Bulk Modulus (GPa) = 66.36752 66.47129 66.41941
# Shear Modulus (GPa) = 34.21893 35.57086 34.89490
#
# Velocity S-wave (km/s) = 4.25344 4.33665 4.29525
# Velocity P-wave (km/s) = 7.69489 7.76010 7.72756
#
# Compressibility (1/GPa) = 0.01506761
#
# Stress axis : x y z
#
# Youngs Moduli (GPa) = 77.92626 77.92603 84.04460
#
# Poissons Ratio (x) = 0.37832 0.26866
# Poissons Ratio (y) = 0.37832 0.26866
# Poissons Ratio (z) = 0.24910 0.24910
#
# Static dielectric constant tensor:
#      x y z
#    x 3.568870 0.000000 0.000000 
#    y 0.000000 3.568870 0.000000 
#    z 0.000000 0.000000 3.459360 
# 
# 
# High freq. dielectric constant tensor:
#      x y z
#    x 1.733290 0.000000 0.000000 
#    y 0.000000 1.733290 0.000000 
#    z 0.000000 0.000000 1.747830 
# 
# From -- ./inp_files/8911.got.cif
#   From: 2010.03.12/outbox.cif.g09.slc.cpg/sg193_5_cif.got.tgz:8911.got - 2010.04.01 12:20:39.
