data_PCOD8330437
_publ_section_title
;
Structure prediction by ZEFSAII (Michael W. Deem and Ramdas Pophale) SiO2 
 PCOD8330437
Probable space group: P 63/M M C
;
_chemical_formula_sum "Si O2"
_cell_formula_units_Z 96
_cell_length_a 28.793118
_cell_length_b 28.793118
_cell_length_c 8.900492
_cell_angle_alpha 90.000000
_cell_angle_beta 90.000000
_cell_angle_gamma 120.000000
_cell_volume 6390.311667
_symmetry_space_group_name_H-M "P 63/M M C"
_symmetry_group_IT_number 194
_symmetry_cell_setting 'hexagonal'
loop_
_space_group_symop_operation_xyz
x,y,z
x-y,x,1/2+z
-y,x-y,z
-x,-y,1/2+z
-x+y,-x,z
y,-x+y,1/2+z
x-y,-y,-z
-x,-x+y,-z
y,x,-z
-y,-x,1/2-z
-x+y,y,1/2-z
x,x-y,1/2-z
-x,-y,-z
-x+y,-x,1/2-z
y,-x+y,-z
x,y,1/2-z
x-y,x,-z
-y,x-y,1/2-z
-x+y,y,z
x,x-y,z
-y,-x,z
y,x,1/2+z
x-y,-y,1/2+z
-x,-x+y,1/2+z
loop_
_atom_site_type_symbol
_atom_site_label
_atom_site_fract_x
_atom_site_fract_y
_atom_site_fract_z
Si Si1 0.247001 0.304899 0.072779
Si Si2 0.944159 0.525667 0.075628
Si Si3 0.570603 0.878606 0.426468
Si Si4 0.570015 0.785008 0.581227
Si Si5 0.848616 0.151385 0.419353
O O1 0.241929 0.295796 0.250000
O O2 0.285736 0.367280 0.031808
O O3 0.271313 0.271313 0.000000
O O4 0.187457 0.282962 0.006243
O O5 0.948728 0.540299 0.250000
O O6 0.929449 0.464725 0.048569
O O7 0.898298 0.532992 0.999937
O O8 0.000000 0.566862 0.000000
O O9 0.561773 0.873788 0.250000
O O10 0.549370 0.819647 0.492993
O O11 0.546727 0.773364 0.750000
O O12 0.633658 0.816829 0.583648
O O13 0.860263 0.139738 0.250000
#
# Coordination Sequence:
#
# PCOD8330437 Si02
#       5
#    24  24  24  12  12
#     4  10  19  29  42  61  84 112 145 178 212 251
#     4  10  20  32  45  62  86 116 148 181 218 260
#     4  10  19  30  45  64  87 113 144 180 216 256
#     4   9  17  29  45  63  85 111 139 174 214 253
#     4   9  17  29  43  59  81 109 140 176 213 247
#
# _framework density 15.022741
#
# number of rings (size 3 to 8) (size 9 to 14) (size 15 to 20)
#    0.000    2.250    0.000    3.750    0.000    9.500 
#    0.000    0.000    0.000    0.000    0.000    0.000 
#    1.250    0.000    2.250    0.375    2.250    5.250 
#
# Total GULP energy -1190602.681419 kJ/mol
# GULP energy per Si atom -12402.111265 kJ/mol
# Density = 1.498855 g / cm^3
# Si number density = 15.022741 Si / 1000 Ang^3
#
#
#
# Elastic Constant Matrix: (Units=GPa)
#
#
# Indices 1 2 3 4 5 6 
#
# 1 92.6412 43.9188 54.4346 0.0000 0.0000 0.0000
# 2 43.9188 92.6412 54.4346 0.0000 0.0000 0.0000
# 3 54.4346 54.4346 109.8952 0.0000 0.0000 0.0000
# 4 0.0000 0.0000 0.0000 28.0765 0.0000 0.0000
# 5 0.0000 0.0000 0.0000 0.0000 28.0765 0.0000
# 6 0.0000 0.0000 0.0000 0.0000 0.0000 24.3612
#
#
#
# Elastic Compliance Matrix: (Units=1/GPa)
#
#
# Indices 1 2 3 4 5 6 
#
# 1 0.016313 -0.004211 -0.005994 0.000000 0.000000 0.000000
# 2 -0.004211 0.016313 -0.005994 0.000000 0.000000 0.000000
# 3 -0.005994 -0.005994 0.015038 0.000000 0.000000 0.000000
# 4 0.000000 0.000000 0.000000 0.035617 0.000000 0.000000
# 5 0.000000 0.000000 0.000000 0.000000 0.035617 0.000000
# 6 0.000000 0.000000 0.000000 0.000000 0.000000 0.041049
#
#
# Mechanical properties :
#
#
# Convention : Reuss Voigt Hill
#
# Bulk Modulus (GPa) = 65.51409 66.75041 66.13225
# Shear Modulus (GPa) = 25.32481 25.59549 25.46015
#
# Velocity S-wave (km/s) = 4.11026 4.13217 4.12123
# Velocity P-wave (km/s) = 8.13820 8.20340 8.17087
#
# Compressibility (1/GPa) = 0.01526389
#
# Stress axis : x y z
#
# Youngs Moduli (GPa) = 61.30069 61.30069 66.49856
#
# Poissons Ratio (x) = 0.25816 0.39861
# Poissons Ratio (y) = 0.25816 0.39861
# Poissons Ratio (z) = 0.36746 0.36746
#
# Static dielectric constant tensor:
#      x y z
#    x 2.785280 0.000000 0.000000 
#    y 0.000000 2.785280 0.000000 
#    z 0.000000 0.000000 3.117300 
# 
# 
# High freq. dielectric constant tensor:
#      x y z
#    x 1.551800 0.000000 0.000000 
#    y 0.000000 1.551800 0.000000 
#    z 0.000000 0.000000 1.599910 
# 
# From -- ./inp_files/1783.got.cif
#   From: 2010.03.12/outbox.cif.g09.slc.cpg/sg194_1_cif.got.tgz:1783.got - 2010.04.01 12:26:19.
