data_PCOD8330565
_publ_section_title
;
Structure prediction by ZEFSAII (Michael W. Deem and Ramdas Pophale) SiO2 
 PCOD8330565
Probable space group: P 63/M M C
;
_chemical_formula_sum "Si O2"
_cell_formula_units_Z 120
_cell_length_a 17.448453
_cell_length_b 17.448453
_cell_length_c 25.892000
_cell_angle_alpha 90.000000
_cell_angle_beta 90.000000
_cell_angle_gamma 120.000000
_cell_volume 6826.688490
_symmetry_space_group_name_H-M "P 63/M M C"
_symmetry_group_IT_number 194
_symmetry_cell_setting 'hexagonal'
loop_
_space_group_symop_operation_xyz
x,y,z
x-y,x,1/2+z
-y,x-y,z
-x,-y,1/2+z
-x+y,-x,z
y,-x+y,1/2+z
x-y,-y,-z
-x,-x+y,-z
y,x,-z
-y,-x,1/2-z
-x+y,y,1/2-z
x,x-y,1/2-z
-x,-y,-z
-x+y,-x,1/2-z
y,-x+y,-z
x,y,1/2-z
x-y,x,-z
-y,x-y,1/2-z
-x+y,y,z
x,x-y,z
-y,-x,z
y,x,1/2+z
x-y,-y,1/2+z
-x,-x+y,1/2+z
loop_
_atom_site_type_symbol
_atom_site_label
_atom_site_fract_x
_atom_site_fract_y
_atom_site_fract_z
Si Si1 0.094602 0.731188 0.844729
Si Si2 0.508587 0.666201 0.053246
Si Si3 0.666361 0.161652 0.065018
Si Si4 0.063543 0.760442 0.401969
Si Si5 0.000000 0.180249 0.000000
Si Si6 0.484336 0.151353 0.250000
O O1 0.167923 0.832078 0.832803
O O2 0.108343 0.698600 0.900098
O O3 0.097308 0.669336 0.799770
O O4 0.999729 0.724895 0.851356
O O5 0.480409 0.740205 0.061227
O O6 0.427732 0.572269 0.071922
O O7 0.595320 0.689002 0.085479
O O8 0.531751 0.661918 0.993539
O O9 0.571512 0.143024 0.084612
O O10 0.733667 0.266334 0.070150
O O11 0.146675 0.853326 0.385726
O O12 0.013636 0.772994 0.450421
O O13 0.084713 0.169426 0.989615
O O14 0.577106 0.154211 0.250000
O O15 0.503744 0.251872 0.250000
#
# Coordination Sequence:
#
# PCOD8330565 Si02
#       6
#    24  24  24  24  12  12
#     4  10  20  34  50  69  94 123 157 198 244 290
#     4   9  17  28  43  65  94 129 164 195 229 274
#     4   9  16  26  42  65  95 129 161 191 226 275
#     4  10  20  33  49  70  97 129 163 202 247 289
#     4  10  19  32  51  74 102 134 168 204 243 292
#     4  10  21  36  55  78 104 132 160 192 233 284
#
# _framework density 17.578067999999998
#
# number of rings (size 3 to 8) (size 9 to 14) (size 15 to 20)
#    0.000    2.400    0.000    3.000    0.000    6.400 
#    0.000    5.000    0.000    0.400    0.000    0.000 
#    0.000    0.000    0.000    0.000    0.000    0.000 
#
# Total GULP energy -1487910.094271 kJ/mol
# GULP energy per Si atom -12399.250786 kJ/mol
# Density = 1.753806 g / cm^3
# Si number density = 17.578068 Si / 1000 Ang^3
#
#
#
# Elastic Constant Matrix: (Units=GPa)
#
#
# Indices 1 2 3 4 5 6 
#
# 1 101.8839 55.9424 43.3384 0.0000 0.0000 0.0000
# 2 55.9424 101.8839 43.3384 0.0000 0.0000 0.0000
# 3 43.3384 43.3384 60.7589 0.0000 0.0000 0.0000
# 4 0.0000 0.0000 0.0000 23.8253 0.0000 0.0000
# 5 0.0000 0.0000 0.0000 0.0000 23.8253 0.0000
# 6 0.0000 0.0000 0.0000 0.0000 0.0000 22.9707
#
#
#
# Elastic Compliance Matrix: (Units=1/GPa)
#
#
# Indices 1 2 3 4 5 6 
#
# 1 0.016092 -0.005675 -0.007430 0.000000 0.000000 0.000000
# 2 -0.005675 0.016092 -0.007430 0.000000 0.000000 0.000000
# 3 -0.007430 -0.007430 0.027058 0.000000 0.000000 0.000000
# 4 0.000000 0.000000 0.000000 0.041972 0.000000 0.000000
# 5 0.000000 0.000000 0.000000 0.000000 0.041972 0.000000
# 6 0.000000 0.000000 0.000000 0.000000 0.000000 0.043534
#
#
# Mechanical properties :
#
#
# Convention : Reuss Voigt Hill
#
# Bulk Modulus (GPa) = 55.03248 61.08502 58.05875
# Shear Modulus (GPa) = 21.38156 22.25144 21.81650
#
# Velocity S-wave (km/s) = 3.49144 3.56176 3.52678
# Velocity P-wave (km/s) = 6.90138 7.19312 7.04876
#
# Compressibility (1/GPa) = 0.01817109
#
# Stress axis : x y z
#
# Youngs Moduli (GPa) = 62.14387 62.14387 36.95782
#
# Poissons Ratio (x) = 0.35267 0.27460
# Poissons Ratio (y) = 0.35267 0.27460
# Poissons Ratio (z) = 0.46173 0.46173
#
# Static dielectric constant tensor:
#      x y z
#    x 3.319910 0.000000 0.000000 
#    y 0.000000 3.319910 0.000000 
#    z 0.000000 0.000000 2.956890 
# 
# 
# High freq. dielectric constant tensor:
#      x y z
#    x 1.682850 0.000000 0.000000 
#    y 0.000000 1.682850 0.000000 
#    z 0.000000 0.000000 1.640220 
# 
# From -- ./inp_files/10717.got.cif
#   From: 2010.03.12/outbox.cif.g09.slc.cpg/sg194_6_cif.got.tgz:10717.got - 2010.04.01 12:26:19.
