data_PCOD8330284
_publ_section_title
;
Structure prediction by ZEFSAII (Michael W. Deem and Ramdas Pophale) SiO2 
 PCOD8330284
Probable space group: P 63/M C M
;
_chemical_formula_sum "Si O2"
_cell_formula_units_Z 116
_cell_length_a 15.000000
_cell_length_b 15.000000
_cell_length_c 30.000000
_cell_angle_alpha 90.000000
_cell_angle_beta 90.000000
_cell_angle_gamma 120.000000
_cell_volume 5845.671476
_symmetry_space_group_name_H-M "P 63/M C M"
_symmetry_group_IT_number 193
_symmetry_cell_setting 'hexagonal'
loop_
_space_group_symop_operation_xyz
x,y,z
x-y,x,1/2+z
-y,x-y,z
-x,-y,1/2+z
-x+y,-x,z
y,-x+y,1/2+z
x-y,-y,1/2-z
-x,-x+y,1/2-z
y,x,1/2-z
-y,-x,-z
-x+y,y,-z
x,x-y,-z
-x,-y,-z
-x+y,-x,1/2-z
y,-x+y,-z
x,y,1/2-z
x-y,x,-z
-y,x-y,1/2-z
-x+y,y,1/2+z
x,x-y,1/2+z
-y,-x,1/2+z
y,x,z
x-y,-y,z
-x,-x+y,z
loop_
_atom_site_type_symbol
_atom_site_label
_atom_site_fract_x
_atom_site_fract_y
_atom_site_fract_z
Si Si1 0.646703 0.434868 0.750000
Si Si2 0.118053 0.881671 0.949581
Si Si3 0.886170 0.635145 0.628820
Si Si4 0.333334 0.666667 0.949136
Si Si5 0.422722 0.112351 0.828873
Si Si6 0.443281 0.886848 0.593219
O O1 0.556964 0.315880 0.750000
O O2 0.634466 0.487017 0.793595
O O3 0.143574 0.811631 0.917718
O O4 0.000000 0.854239 0.945522
O O5 0.190330 0.000000 0.935709
O O6 0.139923 0.860078 0.000000
O O7 0.812284 0.627878 0.668991
O O8 0.876229 0.524843 0.623632
O O9 0.000000 0.720565 0.643667
O O10 0.400272 0.613756 0.936842
O O11 0.333334 0.666667 0.000000
O O12 0.469450 0.113751 0.876694
O O13 0.332268 0.000000 0.815532
O O14 0.503610 0.000000 0.568176
#
# Coordination Sequence:
#
# PCOD8330284 Si02
#       6
#    12  24  24   8  24  24
#     4  10  23  36  62  88 115 148 182 236 286 350
#     4   9  17  30  50  77 109 146 190 240 291 340
#     4  10  20  35  56  81 112 152 192 237 289 352
#     4  12  24  39  63  85 119 163 210 261 303 354
#     4  11  21  38  61  87 117 151 190 237 294 356
#     4  10  22  39  60  82 116 157 199 245 298 360
#
# _framework density 19.843743
#
# number of rings (size 3 to 8) (size 9 to 14) (size 15 to 20)
#    0.207    1.655    2.069    2.379    0.000    2.069 
#    0.000    1.552    0.000    0.414    0.000    0.000 
#    0.000    0.000    0.000    0.000    0.000    0.207 
#
# Total GULP energy -1437565.308709 kJ/mol
# GULP energy per Si atom -12392.804385 kJ/mol
# Density = 1.979858 g / cm^3
# Si number density = 19.843743 Si / 1000 Ang^3
#
#
#
# Elastic Constant Matrix: (Units=GPa)
#
#
# Indices 1 2 3 4 5 6 
#
# 1 94.9024 37.4422 26.2126 -0.0002 -0.0009 0.0006
# 2 37.4422 94.9015 26.2130 0.0000 0.0001 0.0000
# 3 26.2126 26.2130 39.1971 -0.0007 0.0002 0.0002
# 4 -0.0002 0.0000 -0.0007 -33.7019 0.0011 -0.0005
# 5 -0.0009 0.0001 0.0002 0.0011 -33.7027 0.0001
# 6 0.0006 0.0000 0.0002 -0.0005 0.0001 28.7296
#
#
#
# Elastic Compliance Matrix: (Units=1/GPa)
#
#
# Indices 1 2 3 4 5 6 
#
# 1 0.013841 -0.003562 -0.006874 0.000000 0.000000 0.000000
# 2 -0.003562 0.013841 -0.006874 0.000000 0.000000 0.000000
# 3 -0.006874 -0.006874 0.034706 -0.000001 0.000000 0.000000
# 4 0.000000 0.000000 -0.000001 -0.029672 -0.000001 0.000000
# 5 0.000000 0.000000 0.000000 -0.000001 -0.029671 0.000000
# 6 0.000000 0.000000 0.000000 0.000000 0.000000 0.034807
#
#
# Mechanical properties :
#
#
# Convention : Reuss Voigt Hill
#
# Bulk Modulus (GPa) = 36.01270 45.41516 40.71393
# Shear Modulus (GPa) = 61.17738 1.54055 31.35896
#
# Velocity S-wave (km/s) = 5.55846 0.88206 3.97960
# Velocity P-wave (km/s) = 7.70603 4.89627 6.45586
#
# Compressibility (1/GPa) = 0.02776798
#
# Stress axis : x y z
#
# Youngs Moduli (GPa) = 72.24828 72.24694 28.81336
#
# Poissons Ratio (x) = 0.25736 0.19806
# Poissons Ratio (y) = 0.25736 0.19807
# Poissons Ratio (z) = 0.49663 0.49664
#
# Static dielectric constant tensor:
#      x y z
#    x 3.580120 0.000000 0.000000 
#    y 0.000000 3.580120 0.000010 
#    z 0.000000 0.000010 3.054230 
# 
# 
# High freq. dielectric constant tensor:
#      x y z
#    x 1.777560 0.000000 0.000000 
#    y 0.000000 1.777560 0.000000 
#    z 0.000000 0.000000 1.728710 
# 
# From -- ./inp_files/9007.got.cif
#   From: 2010.03.12/outbox.ucp.g09.slc.cvg/sg193_5_cif.got.tgz:9007.got - 2010.05.04 20:48:08.
