data_PCOD8330899
_publ_section_title
;
Structure prediction by ZEFSAII (Michael W. Deem and Ramdas Pophale) SiO2 
 PCOD8330899
Probable space group: P 21 3
;
_chemical_formula_sum "Si O2"
_cell_formula_units_Z 52
_cell_length_a 13.427282
_cell_length_b 13.427282
_cell_length_c 13.427282
_cell_angle_alpha 90.000000
_cell_angle_beta 90.000000
_cell_angle_gamma 90.000000
_cell_volume 2420.830209
_symmetry_space_group_name_H-M "P 21 3"
_symmetry_group_IT_number 198
_symmetry_cell_setting 'cubic'
loop_
_space_group_symop_operation_xyz
x,y,z
z,x,y
y,z,x
1/2-y,-z,1/2+x
1/2+z,1/2-x,-y
-y,1/2+z,1/2-x
1/2-z,-x,1/2+y
-z,1/2+x,1/2-y
1/2+y,1/2-z,-x
1/2-x,-y,1/2+z
1/2+x,1/2-y,-z
-x,1/2+y,1/2-z
loop_
_atom_site_type_symbol
_atom_site_label
_atom_site_fract_x
_atom_site_fract_y
_atom_site_fract_z
Si Si1 0.981550 0.898216 0.195951
Si Si2 0.630289 0.951470 0.816701
Si Si3 0.366695 0.062314 0.177900
Si Si4 0.781064 0.781064 0.781063
Si Si5 0.645233 0.645233 0.645233
Si Si6 0.450194 0.950193 0.549809
Si Si7 0.816540 0.683462 0.316541
O O1 0.048508 0.890485 0.295215
O O2 0.947182 0.794271 0.152477
O O3 0.041404 0.943504 0.103187
O O4 0.892100 0.974474 0.224341
O O5 0.537680 0.878241 0.834917
O O6 0.729001 0.888105 0.793431
O O7 0.652870 0.018846 0.914025
O O8 0.297050 0.158049 0.150017
O O9 0.713084 0.713084 0.713084
O O10 0.383286 0.883286 0.616716
#
# Coordination Sequence:
#
# PCOD8330899 Si02
#       7
#    12  12  12   4   4   4   4
#     4  12  24  41  74 104 141 185 244 299 366 438
#     4  12  26  46  72 109 147 197 246 309 381 445
#     4  12  25  45  73 108 146 191 248 309 371 445
#     4  12  27  49  70 102 154 205 240 304 392 457
#     4  12  21  45  73 104 142 180 240 313 356 433
#     4  12  24  40  70 111 136 181 237 292 371 436
#     4  12  21  42  70 110 142 177 249 316 353 424
#
# _framework density 21.480236000000001
#
# number of rings (size 3 to 8) (size 9 to 14) (size 15 to 20)
#    0.000    0.000    6.923    4.615    0.000    1.846 
#    0.000    0.000    0.000    0.000    0.000    0.000 
#    0.000    0.000    0.000    0.000    0.000    0.000 
#
# Total GULP energy -644804.325617 kJ/mol
# GULP energy per Si atom -12400.083185 kJ/mol
# Density = 2.143135 g / cm^3
# Si number density = 21.480236 Si / 1000 Ang^3
#
#
#
# Elastic Constant Matrix: (Units=GPa)
#
#
# Indices 1 2 3 4 5 6 
#
# 1 112.3944 42.6116 42.6112 0.0000 0.0000 0.0000
# 2 42.6116 112.3947 42.6112 0.0000 0.0000 0.0000
# 3 42.6112 42.6112 112.3933 0.0000 0.0000 0.0000
# 4 0.0000 0.0000 0.0000 34.1157 0.0000 0.0000
# 5 0.0000 0.0000 0.0000 0.0000 34.1142 0.0000
# 6 0.0000 0.0000 0.0000 0.0000 0.0000 34.1159
#
#
#
# Elastic Compliance Matrix: (Units=1/GPa)
#
#
# Indices 1 2 3 4 5 6 
#
# 1 0.011240 -0.003090 -0.003090 0.000000 0.000000 0.000000
# 2 -0.003090 0.011240 -0.003090 0.000000 0.000000 0.000000
# 3 -0.003090 -0.003090 0.011240 0.000000 0.000000 0.000000
# 4 0.000000 0.000000 0.000000 0.029312 0.000000 0.000000
# 5 0.000000 0.000000 0.000000 0.000000 0.029313 0.000000
# 6 0.000000 0.000000 0.000000 0.000000 0.000000 0.029312
#
#
# Mechanical properties :
#
#
# Convention : Reuss Voigt Hill
#
# Bulk Modulus (GPa) = 65.87226 65.87226 65.87226
# Shear Modulus (GPa) = 34.42154 34.42572 34.42363
#
# Velocity S-wave (km/s) = 4.00744 4.00768 4.00756
# Velocity P-wave (km/s) = 7.22120 7.22138 7.22129
#
# Compressibility (1/GPa) = 0.01518090
#
# Stress axis : x y z
#
# Youngs Moduli (GPa) = 88.96642 88.96670 88.96570
#
# Poissons Ratio (x) = 0.27490 0.27490
# Poissons Ratio (y) = 0.27490 0.27490
# Poissons Ratio (z) = 0.27490 0.27490
#
# Static dielectric constant tensor:
#      x y z
#    x 3.823850 0.000000 0.000000 
#    y 0.000000 3.823890 0.000000 
#    z 0.000000 0.000000 3.823890 
# 
# 
# High freq. dielectric constant tensor:
#      x y z
#    x 1.847560 0.000000 0.000000 
#    y 0.000000 1.847560 0.000000 
#    z 0.000000 0.000000 1.847560 
# 
# From -- ./inp_files/316.got.cif
#   From: 2010.03.12/outbox.cif.g09.slc.cpg/sg198_cif.got.tgz:316.got - 2010.04.01 12:33:50.
