data_PCOD8330766
_publ_section_title
;
Structure prediction by ZEFSAII (Michael W. Deem and Ramdas Pophale) SiO2 
 PCOD8330766
Probable space group: P 63/M M C
;
_chemical_formula_sum "Si O2"
_cell_formula_units_Z 96
_cell_length_a 17.912993
_cell_length_b 17.912993
_cell_length_c 19.516638
_cell_angle_alpha 90.000000
_cell_angle_beta 90.000000
_cell_angle_gamma 120.000000
_cell_volume 5423.403922
_symmetry_space_group_name_H-M "P 63/M M C"
_symmetry_group_IT_number 194
_symmetry_cell_setting 'hexagonal'
loop_
_space_group_symop_operation_xyz
x,y,z
x-y,x,1/2+z
-y,x-y,z
-x,-y,1/2+z
-x+y,-x,z
y,-x+y,1/2+z
x-y,-y,-z
-x,-x+y,-z
y,x,-z
-y,-x,1/2-z
-x+y,y,1/2-z
x,x-y,1/2-z
-x,-y,-z
-x+y,-x,1/2-z
y,-x+y,-z
x,y,1/2-z
x-y,x,-z
-y,x-y,1/2-z
-x+y,y,z
x,x-y,z
-y,-x,z
y,x,1/2+z
x-y,-y,1/2+z
-x,-x+y,1/2+z
loop_
_atom_site_type_symbol
_atom_site_label
_atom_site_fract_x
_atom_site_fract_y
_atom_site_fract_z
Si Si1 0.624594 0.080275 0.171642
Si Si2 0.385108 0.445296 0.061975
Si Si3 0.191966 0.808035 0.608012
Si Si4 0.098460 0.901541 0.423872
Si Si5 0.096515 0.903486 0.912680
Si Si6 0.194654 0.805347 0.446638
O O1 0.641207 0.065774 0.250000
O O2 0.558173 0.116346 0.166136
O O3 0.712122 0.148202 0.136059
O O4 0.585172 0.989343 0.133542
O O5 0.456819 0.543182 0.043862
O O6 0.295028 0.442261 0.072617
O O7 0.383117 0.383117 0.000000
O O8 0.141649 0.858352 0.628844
O O9 0.189423 0.810578 0.527253
O O10 0.097922 0.902079 0.505583
O O11 0.149240 0.850761 0.405398
O O12 0.003430 0.855314 0.390721
#
# Coordination Sequence:
#
# PCOD8330766 Si02
#       6
#    24  24  12  12  12  12
#     4  10  21  37  56  78 109 148 186 224 272 331
#     4  10  20  36  56  78 108 145 184 226 275 328
#     4  11  19  31  53  80 111 141 181 226 274 330
#     4   9  17  26  42  71 106 144 178 218 265 312
#     4   9  17  27  43  69 106 143 179 218 262 311
#     4  11  20  30  55  84 110 140 178 233 276 326
#
# _framework density 17.701060999999999
#
# number of rings (size 3 to 8) (size 9 to 14) (size 15 to 20)
#    0.000    2.000    2.500    2.125    3.500    1.000 
#    1.500    0.625    0.000    0.000    0.000    2.625 
#    0.000    0.000    0.000    0.000    0.000    0.000 
#
# Total GULP energy -1190118.034229 kJ/mol
# GULP energy per Si atom -12397.062857 kJ/mol
# Density = 1.766077 g / cm^3
# Si number density = 17.701061 Si / 1000 Ang^3
#
#
#
# Elastic Constant Matrix: (Units=GPa)
#
#
# Indices 1 2 3 4 5 6 
#
# 1 142.0692 53.7172 23.7833 0.0000 0.0000 0.0000
# 2 53.7172 142.0692 23.7833 0.0000 0.0000 0.0000
# 3 23.7833 23.7833 52.1943 0.0000 0.0000 0.0000
# 4 0.0000 0.0000 0.0000 22.2787 0.0000 0.0000
# 5 0.0000 0.0000 0.0000 0.0000 22.2787 0.0000
# 6 0.0000 0.0000 0.0000 0.0000 0.0000 44.1760
#
#
#
# Elastic Compliance Matrix: (Units=1/GPa)
#
#
# Indices 1 2 3 4 5 6 
#
# 1 0.008531 -0.002787 -0.002617 0.000000 0.000000 0.000000
# 2 -0.002787 0.008531 -0.002617 0.000000 0.000000 0.000000
# 3 -0.002617 -0.002617 0.021544 0.000000 0.000000 0.000000
# 4 0.000000 0.000000 0.000000 0.044886 0.000000 0.000000
# 5 0.000000 0.000000 0.000000 0.000000 0.044886 0.000000
# 6 0.000000 0.000000 0.000000 0.000000 0.000000 0.022637
#
#
# Mechanical properties :
#
#
# Convention : Reuss Voigt Hill
#
# Bulk Modulus (GPa) = 44.32091 59.87781 52.09936
# Shear Modulus (GPa) = 28.64038 33.41663 31.02850
#
# Velocity S-wave (km/s) = 4.02681 4.34963 4.19133
# Velocity P-wave (km/s) = 6.83470 7.68937 7.27460
#
# Compressibility (1/GPa) = 0.02256271
#
# Stress axis : x y z
#
# Youngs Moduli (GPa) = 117.22098 117.22098 46.41609
#
# Poissons Ratio (x) = 0.32675 0.12148
# Poissons Ratio (y) = 0.32675 0.12148
# Poissons Ratio (z) = 0.30678 0.30678
#
# Static dielectric constant tensor:
#      x y z
#    x 3.381260 0.000000 0.000000 
#    y 0.000000 3.381260 0.000000 
#    z 0.000000 0.000000 3.071830 
# 
# 
# High freq. dielectric constant tensor:
#      x y z
#    x 1.687560 0.000000 0.000000 
#    y 0.000000 1.687560 0.000000 
#    z 0.000000 0.000000 1.650400 
# 
# From -- ./inp_files/7850.got.cif
#   From: 2010.03.12/outbox.cif.g09.slc.cpg/sg194_4_cif.got.tgz:7850.got - 2010.04.01 12:26:19.
