data_PCOD8330008
_publ_section_title
;
Structure prediction by ZEFSAII (Michael W. Deem and Ramdas Pophale) SiO2 
 PCOD8330008
Probable space group: P 63/M C M
;
_chemical_formula_sum "Si O2"
_cell_formula_units_Z 168
_cell_length_a 29.918570
_cell_length_b 29.918570
_cell_length_c 14.865421
_cell_angle_alpha 90.000000
_cell_angle_beta 90.000000
_cell_angle_gamma 120.000000
_cell_volume 11523.635396
_symmetry_space_group_name_H-M "P 63/M C M"
_symmetry_group_IT_number 193
_symmetry_cell_setting 'hexagonal'
loop_
_space_group_symop_operation_xyz
x,y,z
x-y,x,1/2+z
-y,x-y,z
-x,-y,1/2+z
-x+y,-x,z
y,-x+y,1/2+z
x-y,-y,1/2-z
-x,-x+y,1/2-z
y,x,1/2-z
-y,-x,-z
-x+y,y,-z
x,x-y,-z
-x,-y,-z
-x+y,-x,1/2-z
y,-x+y,-z
x,y,1/2-z
x-y,x,-z
-y,x-y,1/2-z
-x+y,y,1/2+z
x,x-y,1/2+z
-y,-x,1/2+z
y,x,z
x-y,-y,z
-x,-x+y,z
loop_
_atom_site_type_symbol
_atom_site_label
_atom_site_fract_x
_atom_site_fract_y
_atom_site_fract_z
Si Si1 0.293546 0.232964 0.352716
Si Si2 0.469350 0.938699 0.852011
Si Si3 0.232355 0.116178 0.855889
Si Si4 0.362422 0.061105 1.000000
Si Si5 0.943144 0.056856 0.602820
Si Si6 0.400670 0.462134 0.500000
Si Si7 0.293546 0.060582 0.147284
O O1 0.311440 0.235474 0.250000
O O2 0.255095 0.255095 0.363673
O O3 0.262923 0.174889 0.390186
O O4 0.345161 0.265653 0.411202
O O5 0.457679 0.915357 0.750000
O O6 0.503366 0.919953 0.908870
O O7 0.500000 0.000000 0.845128
O O8 0.416588 0.919953 0.908870
O O9 0.228302 0.114151 0.750000
O O10 0.175109 0.087555 0.893311
O O11 0.262924 0.174890 0.890186
O O12 0.424259 0.085454 1.000000
O O13 0.345162 0.079508 0.088798
O O14 0.336233 0.000000 0.999999
O O15 0.951282 0.048719 0.500000
O O16 0.000000 0.089563 0.648893
O O17 0.910438 0.000000 0.648893
O O18 0.430344 0.430344 0.500000
O O19 0.311440 0.075966 0.250000
O O20 0.255095 0.000000 0.136327
#
# Coordination Sequence:
#
# PCOD8330008 Si02
#       7
#    24  24  24  24  24  24  24
#     4   9  18  30  42  58  77  95 120 155 196 245
#     4   8  13  21  34  51  73 100 127 153 178 203
#     4  10  20  33  47  61  76  94 120 155 195 246
#     4   9  17  27  40  55  75 100 123 151 187 226
#     4  10  21  34  48  64  80  96 114 142 188 255
#     4   8  14  23  33  51  74  96 126 155 177 208
#     4   9  18  30  42  58  77  95 120 155 196 245
#
# _framework density 14.578733
#
# number of rings (size 3 to 8) (size 9 to 14) (size 15 to 20)
#    0.000    3.000    0.000    1.857    2.000    3.429 
#    0.000    5.714    0.000    0.857    0.000    0.000 
#    0.000    0.000    0.000    0.000    0.000    0.000 
#
# Total GULP energy -2082044.912950 kJ/mol
# GULP energy per Si atom -12393.124482 kJ/mol
# Density = 1.454555 g / cm^3
# Si number density = 14.578733 Si / 1000 Ang^3
#
#
#
# Elastic Constant Matrix: (Units=GPa)
#
#
# Indices 1 2 3 4 5 6 
#
# 1 86.3096 41.9183 39.3823 0.0000 0.0000 0.0000
# 2 41.9183 86.3096 39.3823 0.0000 0.0000 0.0000
# 3 39.3823 39.3823 92.5871 0.0000 0.0000 0.0000
# 4 0.0000 0.0000 0.0000 21.8274 0.0000 0.0000
# 5 0.0000 0.0000 0.0000 0.0000 21.8274 0.0000
# 6 0.0000 0.0000 0.0000 0.0000 0.0000 22.1956
#
#
#
# Elastic Compliance Matrix: (Units=1/GPa)
#
#
# Indices 1 2 3 4 5 6 
#
# 1 0.016542 -0.005985 -0.004490 0.000000 0.000000 0.000000
# 2 -0.005985 0.016542 -0.004490 0.000000 0.000000 0.000000
# 3 -0.004490 -0.004490 0.014621 0.000000 0.000000 0.000000
# 4 0.000000 0.000000 0.000000 0.045814 0.000000 0.000000
# 5 0.000000 0.000000 0.000000 0.000000 0.045814 0.000000
# 6 0.000000 0.000000 0.000000 0.000000 0.000000 0.045054
#
#
# Mechanical properties :
#
#
# Convention : Reuss Voigt Hill
#
# Bulk Modulus (GPa) = 56.26584 56.28579 56.27581
# Shear Modulus (GPa) = 22.70227 22.80498 22.75362
#
# Velocity S-wave (km/s) = 3.95044 3.95937 3.95491
# Velocity P-wave (km/s) = 7.71273 7.71972 7.71623
#
# Compressibility (1/GPa) = 0.01777277
#
# Stress axis : x y z
#
# Youngs Moduli (GPa) = 60.45254 60.45254 68.39636
#
# Poissons Ratio (x) = 0.36181 0.30713
# Poissons Ratio (y) = 0.36181 0.30713
# Poissons Ratio (z) = 0.27146 0.27146
#
# Static dielectric constant tensor:
#      x y z
#    x 2.788540 0.000000 0.000000 
#    y 0.000000 2.788540 0.000000 
#    z 0.000000 0.000000 3.022370 
# 
# 
# High freq. dielectric constant tensor:
#      x y z
#    x 1.520490 0.000000 0.000000 
#    y 0.000000 1.520490 0.000000 
#    z 0.000000 0.000000 1.571020 
# 
# From -- ./inp_files/4407.got.cif
#   From: 2010.03.12/outbox.cif.g09.slc.cpg/sg193_3_cif.got.tgz:4407.got - 2010.04.01 12:20:39.
