data_PCOD8330311
_publ_section_title
;
Structure prediction by ZEFSAII (Michael W. Deem and Ramdas Pophale) SiO2 
 PCOD8330311
Probable space group: P 63/M M C
;
_chemical_formula_sum "Si O2"
_cell_formula_units_Z 192
_cell_length_a 23.283989
_cell_length_b 23.283989
_cell_length_c 25.118831
_cell_angle_alpha 90.000000
_cell_angle_beta 90.000000
_cell_angle_gamma 120.000000
_cell_volume 11793.557439
_symmetry_space_group_name_H-M "P 63/M M C"
_symmetry_group_IT_number 194
_symmetry_cell_setting 'hexagonal'
loop_
_space_group_symop_operation_xyz
x,y,z
x-y,x,1/2+z
-y,x-y,z
-x,-y,1/2+z
-x+y,-x,z
y,-x+y,1/2+z
x-y,-y,-z
-x,-x+y,-z
y,x,-z
-y,-x,1/2-z
-x+y,y,1/2-z
x,x-y,1/2-z
-x,-y,-z
-x+y,-x,1/2-z
y,-x+y,-z
x,y,1/2-z
x-y,x,-z
-y,x-y,1/2-z
-x+y,y,z
x,x-y,z
-y,-x,z
y,x,1/2+z
x-y,-y,1/2+z
-x,-x+y,1/2+z
loop_
_atom_site_type_symbol
_atom_site_label
_atom_site_fract_x
_atom_site_fract_y
_atom_site_fract_z
Si Si1 0.638308 0.884436 0.004163
Si Si2 0.528328 0.602089 0.690187
Si Si3 0.958289 0.172452 0.955104
Si Si4 0.083730 0.478184 0.309234
Si Si5 0.810358 0.754536 0.141000
Si Si6 0.200444 0.273061 0.308179
Si Si7 0.069783 0.376908 0.606458
Si Si8 0.915810 0.617078 0.885801
O O1 0.629719 0.814860 0.986968
O O2 0.714838 0.936596 0.017673
O O3 0.597504 0.876811 0.058254
O O4 0.608477 0.905386 0.954652
O O5 0.530645 0.630887 0.750000
O O6 0.452419 0.547582 0.675449
O O7 0.573067 0.568077 0.691534
O O8 0.557908 0.660149 0.645005
O O9 0.895495 0.104506 0.935371
O O10 0.008577 0.206816 0.907764
O O11 0.000000 0.159124 0.000000
O O12 0.111415 0.480282 0.250000
O O13 0.103825 0.551913 0.328172
O O14 0.116067 0.448987 0.349829
O O15 0.885844 0.771688 0.149250
O O16 0.784999 0.780275 0.190459
O O17 0.763577 0.675911 0.132104
O O18 0.224214 0.307242 0.250000
O O19 0.121332 0.242663 0.314444
O O20 0.234761 0.326022 0.355279
O O21 0.992104 0.349592 0.603014
#
# Coordination Sequence:
#
# PCOD8330311 Si02
#       8
#    24  24  24  24  24  24  24  24
#     4  11  19  29  44  64  92 123 156 199 249 299
#     4   8  15  29  48  68  92 124 156 181 207 247
#     4  11  19  31  49  66  84 115 159 211 268 323
#     4   8  14  25  41  63  91 120 147 175 208 249
#     4  11  21  32  47  67  90 120 158 205 266 326
#     4  10  20  33  48  65  85 114 159 213 262 311
#     4  10  18  28  45  69  92 118 156 193 229 281
#     4  10  17  27  45  65  87 117 157 193 228 280
#
# _framework density 16.280075
#
# number of rings (size 3 to 8) (size 9 to 14) (size 15 to 20)
#    0.000    2.125    3.750    3.000    0.000    3.250 
#    0.000    0.625    0.000    8.875    0.000    0.000 
#    0.000    0.000    0.000   10.500    0.000   36.625 
#
# Total GULP energy -2378944.529510 kJ/mol
# GULP energy per Si atom -12390.336091 kJ/mol
# Density = 1.624302 g / cm^3
# Si number density = 16.280075 Si / 1000 Ang^3
#
#
#
# Elastic Constant Matrix: (Units=GPa)
#
#
# Indices 1 2 3 4 5 6 
#
# 1 59.7942 32.3409 39.9882 0.0000 0.0000 0.0000
# 2 32.3409 59.7942 39.9882 0.0000 0.0000 0.0000
# 3 39.9882 39.9882 123.6296 0.0000 0.0000 0.0000
# 4 0.0000 0.0000 0.0000 16.0873 0.0000 0.0000
# 5 0.0000 0.0000 0.0000 0.0000 16.0873 0.0000
# 6 0.0000 0.0000 0.0000 0.0000 0.0000 13.7266
#
#
#
# Elastic Compliance Matrix: (Units=1/GPa)
#
#
# Indices 1 2 3 4 5 6 
#
# 1 0.025758 -0.010667 -0.004881 0.000000 0.000000 0.000000
# 2 -0.010667 0.025758 -0.004881 0.000000 0.000000 0.000000
# 3 -0.004881 -0.004881 0.011246 0.000000 0.000000 0.000000
# 4 0.000000 0.000000 0.000000 0.062161 0.000000 0.000000
# 5 0.000000 0.000000 0.000000 0.000000 0.062161 0.000000
# 6 0.000000 0.000000 0.000000 0.000000 0.000000 0.072851
#
#
# Mechanical properties :
#
#
# Convention : Reuss Voigt Hill
#
# Bulk Modulus (GPa) = 45.65563 51.98363 48.81963
# Shear Modulus (GPa) = 16.22875 17.90697 17.06786
#
# Velocity S-wave (km/s) = 3.16071 3.32012 3.24140
# Velocity P-wave (km/s) = 6.43622 6.83357 6.63787
#
# Compressibility (1/GPa) = 0.02190311
#
# Stress axis : x y z
#
# Youngs Moduli (GPa) = 38.82282 38.82282 88.91846
#
# Poissons Ratio (x) = 0.41414 0.43402
# Poissons Ratio (y) = 0.41414 0.43402
# Poissons Ratio (z) = 0.18950 0.18950
#
# Static dielectric constant tensor:
#      x y z
#    x 3.081260 0.000000 0.000000 
#    y 0.000000 3.081260 0.000000 
#    z 0.000000 0.000000 3.565050 
# 
# 
# High freq. dielectric constant tensor:
#      x y z
#    x 1.586660 0.000000 0.000000 
#    y 0.000000 1.586660 0.000000 
#    z 0.000000 0.000000 1.644170 
# 
# From -- ./inp_files/11222.got.cif
#   From: 2010.03.12/outbox.cif.g09.slc.cpg/sg194_6_cif.got.tgz:11222.got - 2010.04.01 12:26:19.
