data_PCOD8330964
_publ_section_title
;
Structure prediction by ZEFSAII (Michael W. Deem and Ramdas Pophale) SiO2 
 PCOD8330964
Probable space group: I A 3
;
_chemical_formula_sum "Si O2"
_cell_formula_units_Z 168
_cell_length_a 20.431545
_cell_length_b 20.431545
_cell_length_c 20.431545
_cell_angle_alpha 90.000000
_cell_angle_beta 90.000000
_cell_angle_gamma 90.000000
_cell_volume 8529.108232
_symmetry_space_group_name_H-M "I A 3"
_symmetry_group_IT_number 206
_symmetry_cell_setting 'cubic'
loop_
_space_group_symop_operation_xyz
x,y,z
z,x,y
y,z,x
-y,1/2-z,x
z,-x,1/2-y
1/2-y,z,-x
-z,1/2-x,y
1/2-z,x,-y
y,-z,1/2-x
-x,1/2-y,z
x,-y,1/2-z
1/2-x,y,-z
-x,-y,-z
-z,-x,-y
-y,-z,-x
y,1/2+z,-x
-z,x,1/2+y
1/2+y,-z,x
z,1/2+x,-y
1/2+z,-x,y
-y,z,1/2+x
x,1/2+y,-z
-x,y,1/2+z
1/2+x,-y,z
1/2+x,1/2+y,1/2+z
1/2+z,1/2+x,1/2+y
1/2+y,1/2+z,1/2+x
1/2-y,-z,1/2+x
1/2+z,1/2-x,-y
-y,1/2+z,1/2-x
1/2-z,-x,1/2+y
-z,1/2+x,1/2-y
1/2+y,1/2-z,-x
1/2-x,-y,1/2+z
1/2+x,1/2-y,-z
-x,1/2+y,1/2-z
1/2-x,1/2-y,1/2-z
1/2-z,1/2-x,1/2-y
1/2-y,1/2-z,1/2-x
1/2+y,z,1/2-x
1/2-z,1/2+x,y
y,1/2-z,1/2+x
1/2+z,x,1/2-y
z,1/2-x,1/2+y
1/2-y,1/2+z,x
1/2+x,y,1/2-z
1/2-x,1/2+y,z
x,1/2-y,1/2+z
loop_
_atom_site_type_symbol
_atom_site_label
_atom_site_fract_x
_atom_site_fract_y
_atom_site_fract_z
Si Si1 0.908931 0.053093 0.163129
Si Si2 0.174468 0.365485 0.256079
Si Si3 0.167394 0.068552 0.888850
Si Si4 0.500000 0.750000 0.017825
O O1 0.879431 0.084586 0.228928
O O2 0.922431 0.108547 0.109039
O O3 0.975892 0.019355 0.185754
O O4 0.857609 0.002557 0.132451
O O5 0.234980 0.359005 0.206203
O O6 0.196739 0.392230 0.326664
O O7 0.227131 0.062690 0.939642
#
# Coordination Sequence:
#
# PCOD8330964 Si02
#       4
#    48  48  48  24
#     4  11  20  39  66  88 122 168 214 256 313 393
#     4  10  20  37  62  90 121 163 211 259 316 383
#     4  11  22  39  65  95 122 164 218 265 318 379
#     4  12  22  42  62  92 132 162 212 270 318 390
#
# _framework density 19.697251000000001
#
# number of rings (size 3 to 8) (size 9 to 14) (size 15 to 20)
#    0.000    1.143    5.714    2.000    0.000    0.000 
#   12.000    1.429    0.000    0.000    0.000    0.000 
#    0.000    0.000    0.000    0.000    0.000    0.000 
#
# Total GULP energy -1041790.344962 kJ/mol
# GULP energy per Si atom -12402.266011 kJ/mol
# Density = 1.965242 g / cm^3
# Si number density = 19.697251 Si / 1000 Ang^3
#
#
#
# Elastic Constant Matrix: (Units=GPa)
#
#
# Indices 1 2 3 4 5 6 
#
# 1 104.7178 46.3163 46.3163 0.0000 0.0000 0.0000
# 2 46.3163 104.7178 46.3163 0.0000 0.0000 0.0000
# 3 46.3163 46.3163 104.7178 0.0000 0.0000 0.0000
# 4 0.0000 0.0000 0.0000 25.5446 0.0000 0.0000
# 5 0.0000 0.0000 0.0000 0.0000 25.5446 0.0000
# 6 0.0000 0.0000 0.0000 0.0000 0.0000 25.5446
#
#
#
# Elastic Compliance Matrix: (Units=1/GPa)
#
#
# Indices 1 2 3 4 5 6 
#
# 1 0.013104 -0.004019 -0.004019 0.000000 0.000000 0.000000
# 2 -0.004019 0.013104 -0.004019 0.000000 0.000000 0.000000
# 3 -0.004019 -0.004019 0.013104 0.000000 0.000000 0.000000
# 4 0.000000 0.000000 0.000000 0.039147 0.000000 0.000000
# 5 0.000000 0.000000 0.000000 0.000000 0.039147 0.000000
# 6 0.000000 0.000000 0.000000 0.000000 0.000000 0.039147
#
#
# Mechanical properties :
#
#
# Convention : Reuss Voigt Hill
#
# Bulk Modulus (GPa) = 65.78349 65.78349 65.78349
# Shear Modulus (GPa) = 26.89141 27.00707 26.94924
#
# Velocity S-wave (km/s) = 3.69892 3.70687 3.70289
# Velocity P-wave (km/s) = 7.19114 7.19659 7.19387
#
# Compressibility (1/GPa) = 0.01520138
#
# Stress axis : x y z
#
# Youngs Moduli (GPa) = 76.31102 76.31102 76.31102
#
# Poissons Ratio (x) = 0.30666 0.30666
# Poissons Ratio (y) = 0.30666 0.30666
# Poissons Ratio (z) = 0.30666 0.30666
#
# Static dielectric constant tensor:
#      x y z
#    x 3.535760 0.000000 0.000000 
#    y 0.000000 3.535760 0.000000 
#    z 0.000000 0.000000 3.535760 
# 
# 
# High freq. dielectric constant tensor:
#      x y z
#    x 1.763590 0.000000 0.000000 
#    y 0.000000 1.763590 0.000000 
#    z 0.000000 0.000000 1.763590 
# 
# From -- ./inp_files/450.got.cif
#   From: 2010.03.12/outbox.cif.g09.slc.cpg/sg206_cif.got.tgz:450.got - 2010.03.30 09:03:11.
