data_PCOD8330877
_publ_section_title
;
Structure prediction by ZEFSAII (Michael W. Deem and Ramdas Pophale) SiO2 
 PCOD8330877
Probable space group: I 2 3
;
_chemical_formula_sum "Si O2"
_cell_formula_units_Z 84
_cell_length_a 15.840168
_cell_length_b 15.840168
_cell_length_c 15.840168
_cell_angle_alpha 90.000000
_cell_angle_beta 90.000000
_cell_angle_gamma 90.000000
_cell_volume 3974.471162
_symmetry_space_group_name_H-M "I 2 3"
_symmetry_group_IT_number 197
_symmetry_cell_setting 'cubic'
loop_
_space_group_symop_operation_xyz
x,y,z
z,x,y
y,z,x
-y,-z,x
z,-x,-y
-y,z,-x
-z,-x,y
-z,x,-y
y,-z,-x
-x,-y,z
x,-y,-z
-x,y,-z
1/2+x,1/2+y,1/2+z
1/2+z,1/2+x,1/2+y
1/2+y,1/2+z,1/2+x
1/2-y,1/2-z,1/2+x
1/2+z,1/2-x,1/2-y
1/2-y,1/2+z,1/2-x
1/2-z,1/2-x,1/2+y
1/2-z,1/2+x,1/2-y
1/2+y,1/2-z,1/2-x
1/2-x,1/2-y,1/2+z
1/2+x,1/2-y,1/2-z
1/2-x,1/2+y,1/2-z
loop_
_atom_site_type_symbol
_atom_site_label
_atom_site_fract_x
_atom_site_fract_y
_atom_site_fract_z
Si Si1 0.794217 0.000000 0.500000
Si Si2 0.248926 0.342269 0.900454
Si Si3 0.164476 0.067850 0.673090
Si Si4 0.739297 0.344844 0.410208
O O1 0.740430 0.918987 0.467839
O O2 0.850553 0.963553 0.576916
O O3 0.305449 0.264962 0.934907
O O4 0.156178 0.308183 0.879032
O O5 0.288746 0.376695 0.815553
O O6 0.118219 0.001348 0.736061
O O7 0.717754 0.418288 0.342570
#
# Coordination Sequence:
#
# PCOD8330877 Si02
#       4
#    12  24  24  24
#     4  10  22  34  60  96 128 162 202 270 322 373
#     4  11  20  36  62  93 125 173 211 262 311 399
#     4  11  21  38  63  90 126 170 220 257 323 387
#     4   9  18  36  60  83 119 166 213 262 311 378
#
# _framework density 21.134888
#
# number of rings (size 3 to 8) (size 9 to 14) (size 15 to 20)
#    0.571    1.143    2.857    4.000    0.000    0.000 
#    0.000    1.429    0.000    9.429    0.000    0.000 
#    2.857    0.000    0.000    0.000    0.000    0.000 
#
# Total GULP energy -520388.622181 kJ/mol
# GULP energy per Si atom -12390.205290 kJ/mol
# Density = 2.108678 g / cm^3
# Si number density = 21.134888 Si / 1000 Ang^3
#
#
#
# Elastic Constant Matrix: (Units=GPa)
#
#
# Indices 1 2 3 4 5 6 
#
# 1 77.4905 14.3796 14.3796 0.0000 0.0000 0.0000
# 2 14.3796 77.4905 14.3796 0.0000 0.0000 0.0000
# 3 14.3796 14.3796 77.4905 0.0000 0.0000 0.0000
# 4 0.0000 0.0000 0.0000 22.4899 0.0000 0.0000
# 5 0.0000 0.0000 0.0000 0.0000 22.4899 0.0000
# 6 0.0000 0.0000 0.0000 0.0000 0.0000 22.4899
#
#
#
# Elastic Compliance Matrix: (Units=1/GPa)
#
#
# Indices 1 2 3 4 5 6 
#
# 1 0.013701 -0.002144 -0.002144 0.000000 0.000000 0.000000
# 2 -0.002144 0.013701 -0.002144 0.000000 0.000000 0.000000
# 3 -0.002144 -0.002144 0.013701 0.000000 0.000000 0.000000
# 4 0.000000 0.000000 0.000000 0.044464 0.000000 0.000000
# 5 0.000000 0.000000 0.000000 0.000000 0.044464 0.000000
# 6 0.000000 0.000000 0.000000 0.000000 0.000000 0.044464
#
#
# Mechanical properties :
#
#
# Convention : Reuss Voigt Hill
#
# Bulk Modulus (GPa) = 35.41655 35.41655 35.41655
# Shear Modulus (GPa) = 25.40992 26.11614 25.76303
#
# Velocity S-wave (km/s) = 3.47114 3.51905 3.49518
# Velocity P-wave (km/s) = 5.73227 5.77108 5.75171
#
# Compressibility (1/GPa) = 0.02823539
#
# Stress axis : x y z
#
# Youngs Moduli (GPa) = 72.98908 72.98909 72.98909
#
# Poissons Ratio (x) = 0.15652 0.15652
# Poissons Ratio (y) = 0.15652 0.15652
# Poissons Ratio (z) = 0.15652 0.15652
#
# Static dielectric constant tensor:
#      x y z
#    x 3.876200 0.000000 0.000000 
#    y 0.000000 3.876200 0.000000 
#    z 0.000000 0.000000 3.876200 
# 
# 
# High freq. dielectric constant tensor:
#      x y z
#    x 1.817850 0.000000 0.000000 
#    y 0.000000 1.817850 0.000000 
#    z 0.000000 0.000000 1.817850 
# 
# From -- ./inp_files/405.got.cif
#   From: 2010.03.12/outbox.cif.g09.slc.cpg/sg197_cif.got.tgz:405.got - 2010.04.01 12:33:32.
