data_PCOD8330705
_publ_section_title
;
Structure prediction by ZEFSAII (Michael W. Deem and Ramdas Pophale) SiO2 
 PCOD8330705
Probable space group: P 63/M M C
;
_chemical_formula_sum "Si O2"
_cell_formula_units_Z 144
_cell_length_a 31.460962
_cell_length_b 31.460962
_cell_length_c 9.018016
_cell_angle_alpha 90.000000
_cell_angle_beta 90.000000
_cell_angle_gamma 120.000000
_cell_volume 7730.109208
_symmetry_space_group_name_H-M "P 63/M M C"
_symmetry_group_IT_number 194
_symmetry_cell_setting 'hexagonal'
loop_
_space_group_symop_operation_xyz
x,y,z
x-y,x,1/2+z
-y,x-y,z
-x,-y,1/2+z
-x+y,-x,z
y,-x+y,1/2+z
x-y,-y,-z
-x,-x+y,-z
y,x,-z
-y,-x,1/2-z
-x+y,y,1/2-z
x,x-y,1/2-z
-x,-y,-z
-x+y,-x,1/2-z
y,-x+y,-z
x,y,1/2-z
x-y,x,-z
-y,x-y,1/2-z
-x+y,y,z
x,x-y,z
-y,-x,z
y,x,1/2+z
x-y,-y,1/2+z
-x,-x+y,1/2+z
loop_
_atom_site_type_symbol
_atom_site_label
_atom_site_fract_x
_atom_site_fract_y
_atom_site_fract_z
Si Si1 0.245526 0.390250 0.416798
Si Si2 0.480135 0.147823 0.074538
Si Si3 0.572949 0.524013 0.075801
Si Si4 0.147008 0.951275 0.075982
Si Si5 0.431441 0.764605 0.420944
Si Si6 0.903004 0.197887 0.416708
O O1 0.264113 0.390682 0.250000
O O2 0.193733 0.387465 0.412686
O O3 0.282657 0.439206 0.501395
O O4 0.240704 0.342939 0.502314
O O5 0.477051 0.150917 0.250000
O O6 0.471729 0.095260 0.022830
O O7 0.533321 0.189545 0.022117
O O8 0.572322 0.530699 0.250000
O O9 0.528927 0.471074 0.024699
O O10 0.567139 0.567139 0.000000
O O11 0.156206 0.959260 0.250000
O O12 0.092671 0.907330 0.039601
O O13 0.188313 0.941130 0.007745
O O14 0.152306 0.000000 0.000000
O O15 0.447254 0.777896 0.250000
O O16 0.375974 0.751948 0.446422
O O17 0.435137 0.717569 0.470405
O O18 0.922936 0.214969 0.250000
O O19 0.850925 0.149076 0.412320
#
# Coordination Sequence:
#
# PCOD8330705 Si02
#       6
#    24  24  24  24  24  24
#     4  10  20  34  52  75 105 140 178 218 259 308
#     4  11  22  35  53  79 109 138 172 216 265 320
#     4   9  19  36  56  76  98 125 159 202 252 305
#     4  10  20  34  54  81 112 146 185 229 276 326
#     4  10  21  37  56  78 106 142 184 228 273 322
#     4   9  17  31  52  76 102 134 172 213 258 309
#
# _framework density 18.628456
#
# number of rings (size 3 to 8) (size 9 to 14) (size 15 to 20)
#    0.000    2.167    0.000    3.167    0.000    9.333 
#    0.000    2.500    0.000    3.167    0.000    0.000 
#    0.000    0.000    0.000    0.000    0.000    0.000 
#
# Total GULP energy -1786018.211803 kJ/mol
# GULP energy per Si atom -12402.904249 kJ/mol
# Density = 1.858606 g / cm^3
# Si number density = 18.628456 Si / 1000 Ang^3
#
#
#
# Elastic Constant Matrix: (Units=GPa)
#
#
# Indices 1 2 3 4 5 6 
#
# 1 82.8313 33.8901 46.3231 0.0000 0.0000 0.0000
# 2 33.8901 82.8313 46.3231 0.0000 0.0000 0.0000
# 3 46.3231 46.3231 108.4590 0.0000 0.0000 0.0000
# 4 0.0000 0.0000 0.0000 30.2979 0.0000 0.0000
# 5 0.0000 0.0000 0.0000 0.0000 30.2979 0.0000
# 6 0.0000 0.0000 0.0000 0.0000 0.0000 24.4706
#
#
#
# Elastic Compliance Matrix: (Units=1/GPa)
#
#
# Indices 1 2 3 4 5 6 
#
# 1 0.016697 -0.003736 -0.005536 0.000000 0.000000 0.000000
# 2 -0.003736 0.016697 -0.005536 0.000000 0.000000 0.000000
# 3 -0.005536 -0.005536 0.013949 0.000000 0.000000 0.000000
# 4 0.000000 0.000000 0.000000 0.033006 0.000000 0.000000
# 5 0.000000 0.000000 0.000000 0.000000 0.033006 0.000000
# 6 0.000000 0.000000 0.000000 0.000000 0.000000 0.040865
#
#
# Mechanical properties :
#
#
# Convention : Reuss Voigt Hill
#
# Bulk Modulus (GPa) = 56.40713 58.57715 57.49214
# Shear Modulus (GPa) = 26.35135 26.85230 26.60183
#
# Velocity S-wave (km/s) = 3.76516 3.80078 3.78302
# Velocity P-wave (km/s) = 7.01768 7.12562 7.07186
#
# Compressibility (1/GPa) = 0.01772825
#
# Stress axis : x y z
#
# Youngs Moduli (GPa) = 59.89080 59.89080 71.69064
#
# Poissons Ratio (x) = 0.22373 0.39687
# Poissons Ratio (y) = 0.22373 0.39687
# Poissons Ratio (z) = 0.33155 0.33155
#
# Static dielectric constant tensor:
#      x y z
#    x 3.370680 0.000000 0.000000 
#    y 0.000000 3.370680 0.000000 
#    z 0.000000 0.000000 3.579450 
# 
# 
# High freq. dielectric constant tensor:
#      x y z
#    x 1.714300 0.000000 0.000000 
#    y 0.000000 1.714300 0.000000 
#    z 0.000000 0.000000 1.733480 
# 
# From -- ./inp_files/2105.got.cif
#   From: 2010.03.12/outbox.cif.g09.slc.cpg/sg194_2_cif.got.tgz:2105.got - 2010.04.01 12:26:19.
