data_PCOD8330130
_publ_section_title
;
Structure prediction by ZEFSAII (Michael W. Deem and Ramdas Pophale) SiO2 
 PCOD8330130
Probable space group: P 63/M C M
;
_chemical_formula_sum "Si O2"
_cell_formula_units_Z 84
_cell_length_a 17.419672
_cell_length_b 17.419672
_cell_length_c 15.721778
_cell_angle_alpha 90.000000
_cell_angle_beta 90.000000
_cell_angle_gamma 120.000000
_cell_volume 4131.542626
_symmetry_space_group_name_H-M "P 63/M C M"
_symmetry_group_IT_number 193
_symmetry_cell_setting 'hexagonal'
loop_
_space_group_symop_operation_xyz
x,y,z
x-y,x,1/2+z
-y,x-y,z
-x,-y,1/2+z
-x+y,-x,z
y,-x+y,1/2+z
x-y,-y,1/2-z
-x,-x+y,1/2-z
y,x,1/2-z
-y,-x,-z
-x+y,y,-z
x,x-y,-z
-x,-y,-z
-x+y,-x,1/2-z
y,-x+y,-z
x,y,1/2-z
x-y,x,-z
-y,x-y,1/2-z
-x+y,y,1/2+z
x,x-y,1/2+z
-y,-x,1/2+z
y,x,z
x-y,-y,z
-x,-x+y,z
loop_
_atom_site_type_symbol
_atom_site_label
_atom_site_fract_x
_atom_site_fract_y
_atom_site_fract_z
Si Si1 0.098571 0.900491 0.100477
Si Si2 0.103882 0.742256 0.654848
Si Si3 0.383045 0.602480 0.250000
Si Si4 0.522577 0.417916 0.592248
O O1 0.155159 0.853303 0.127390
O O2 0.000000 0.840761 0.137954
O O3 0.139910 0.000000 0.137802
O O4 0.095945 0.904056 0.000000
O O5 0.132494 0.733501 0.750000
O O6 0.130542 0.685201 0.594015
O O7 0.000000 0.703893 0.648135
O O8 0.433879 0.710852 0.250000
O O9 0.406498 0.564938 0.165962
O O10 0.567011 0.432990 0.500000
O O11 0.482889 0.482889 0.608909
#
# Coordination Sequence:
#
# PCOD8330130 Si02
#       4
#    24  24  12  24
#     4   9  17  30  48  75 113 160 210 253 292 339
#     4   9  17  32  55  80 109 147 191 244 298 349
#     4  10  23  40  60  92 128 158 191 248 316 368
#     4  10  20  39  67  91 117 161 209 251 307 381
#
# _framework density 20.331389000000001
#
# number of rings (size 3 to 8) (size 9 to 14) (size 15 to 20)
#    0.286    2.286    1.429    0.714    0.000    2.857 
#    5.143    0.000    0.000    3.429    0.000    0.000 
#    0.000    0.000    0.000    0.000    0.000    0.000 
#
# Total GULP energy -1041039.928377 kJ/mol
# GULP energy per Si atom -12393.332481 kJ/mol
# Density = 2.028511 g / cm^3
# Si number density = 20.331389 Si / 1000 Ang^3
#
#
#
# Elastic Constant Matrix: (Units=GPa)
#
#
# Indices 1 2 3 4 5 6 
#
# 1 99.0160 31.6723 55.7881 0.0000 0.0000 0.0000
# 2 31.6723 99.0160 55.7881 0.0000 0.0000 0.0000
# 3 55.7881 55.7881 126.4115 0.0000 0.0000 0.0000
# 4 0.0000 0.0000 0.0000 23.0038 0.0000 0.0000
# 5 0.0000 0.0000 0.0000 0.0000 23.0038 0.0000
# 6 0.0000 0.0000 0.0000 0.0000 0.0000 33.6718
#
#
#
# Elastic Compliance Matrix: (Units=1/GPa)
#
#
# Indices 1 2 3 4 5 6 
#
# 1 0.013564 -0.001286 -0.005418 0.000000 0.000000 0.000000
# 2 -0.001286 0.013564 -0.005418 0.000000 0.000000 0.000000
# 3 -0.005418 -0.005418 0.012693 0.000000 0.000000 0.000000
# 4 0.000000 0.000000 0.000000 0.043471 0.000000 0.000000
# 5 0.000000 0.000000 0.000000 0.000000 0.043471 0.000000
# 6 0.000000 0.000000 0.000000 0.000000 0.000000 0.029698
#
#
# Mechanical properties :
#
#
# Convention : Reuss Voigt Hill
#
# Bulk Modulus (GPa) = 64.20524 67.88228 66.04376
# Shear Modulus (GPa) = 26.89650 28.01556 27.45603
#
# Velocity S-wave (km/s) = 3.64112 3.71610 3.67880
# Velocity P-wave (km/s) = 7.02317 7.20228 7.11329
#
# Compressibility (1/GPa) = 0.01557505
#
# Stress axis : x y z
#
# Youngs Moduli (GPa) = 73.72708 73.72708 78.78201
#
# Poissons Ratio (x) = 0.09479 0.42688
# Poissons Ratio (y) = 0.09479 0.42688
# Poissons Ratio (z) = 0.39949 0.39949
#
# Static dielectric constant tensor:
#      x y z
#    x 3.676260 0.000000 0.000000 
#    y 0.000000 3.676260 0.000000 
#    z 0.000000 0.000000 3.524800 
# 
# 
# High freq. dielectric constant tensor:
#      x y z
#    x 1.781770 0.000000 0.000000 
#    y 0.000000 1.781770 0.000000 
#    z 0.000000 0.000000 1.784680 
# 
# From -- ./inp_files/3337.got.cif
#   From: 2010.03.12/outbox.cif.g09.slc.cpg/sg193_2_cif.got.tgz:3337.got - 2010.04.01 12:20:39.
