data_PCOD8330451
_publ_section_title
;
Structure prediction by ZEFSAII (Michael W. Deem and Ramdas Pophale) SiO2 
 PCOD8330451
Probable space group: P 63/M M C
;
_chemical_formula_sum "Si O2"
_cell_formula_units_Z 168
_cell_length_a 20.868022
_cell_length_b 20.868022
_cell_length_c 25.815537
_cell_angle_alpha 90.000000
_cell_angle_beta 90.000000
_cell_angle_gamma 120.000000
_cell_volume 9735.861048
_symmetry_space_group_name_H-M "P 63/M M C"
_symmetry_group_IT_number 194
_symmetry_cell_setting 'hexagonal'
loop_
_space_group_symop_operation_xyz
x,y,z
x-y,x,1/2+z
-y,x-y,z
-x,-y,1/2+z
-x+y,-x,z
y,-x+y,1/2+z
x-y,-y,-z
-x,-x+y,-z
y,x,-z
-y,-x,1/2-z
-x+y,y,1/2-z
x,x-y,1/2-z
-x,-y,-z
-x+y,-x,1/2-z
y,-x+y,-z
x,y,1/2-z
x-y,x,-z
-y,x-y,1/2-z
-x+y,y,z
x,x-y,z
-y,-x,z
y,x,1/2+z
x-y,-y,1/2+z
-x,-x+y,1/2+z
loop_
_atom_site_type_symbol
_atom_site_label
_atom_site_fract_x
_atom_site_fract_y
_atom_site_fract_z
Si Si1 0.144352 0.144571 0.341779
Si Si2 0.313661 0.948190 0.092119
Si Si3 0.406748 0.129746 0.308031
Si Si4 0.962937 0.779244 0.947073
Si Si5 0.615171 0.527319 0.510212
Si Si6 0.732889 0.029691 0.693191
Si Si7 0.910544 0.530149 0.102638
O O1 0.160619 0.080310 0.323286
O O2 0.164638 0.160997 0.402197
O O3 0.191105 0.219503 0.309213
O O4 0.058170 0.116340 0.332555
O O5 0.266344 0.976760 0.060513
O O6 0.322229 0.889215 0.055248
O O7 0.272354 0.917999 0.148102
O O8 0.395991 0.011079 0.105287
O O9 0.438550 0.133447 0.250000
O O10 0.386481 0.193241 0.316406
O O11 0.467817 0.140325 0.350976
O O12 0.331618 0.053608 0.316748
O O13 0.875144 0.750287 0.947319
O O14 0.000000 0.820417 0.000000
O O15 0.575590 0.575590 0.500000
O O16 0.555074 0.444927 0.528911
O O17 0.649763 0.523463 0.454450
O O18 0.726847 0.059222 0.750000
O O19 0.923818 0.461909 0.112061
#
# Coordination Sequence:
#
# PCOD8330451 Si02
#       7
#    24  24  24  24  24  24  24
#     4  10  20  32  45  60  78 104 142 187 231 274
#     4   9  16  28  44  63  86 112 142 176 223 276
#     4   9  17  29  44  62  87 119 152 184 217 255
#     4  10  19  30  44  62  87 117 146 181 227 278
#     4   8  13  23  40  62  88 114 138 168 211 263
#     4   9  18  31  45  60  79 105 140 182 227 272
#     4   9  16  26  43  66  89 114 146 183 220 258
#
# _framework density 17.255793000000001
#
# number of rings (size 3 to 8) (size 9 to 14) (size 15 to 20)
#    0.000    2.857    0.000    3.571    0.000    1.429 
#    0.000    5.714    0.000    4.714    0.000    0.000 
#    0.000    0.000    0.000    3.429    0.000    0.857 
#
# Total GULP energy -2081286.287935 kJ/mol
# GULP energy per Si atom -12388.608857 kJ/mol
# Density = 1.721652 g / cm^3
# Si number density = 17.255793 Si / 1000 Ang^3
#
#
#
# Elastic Constant Matrix: (Units=GPa)
#
#
# Indices 1 2 3 4 5 6 
#
# 1 47.1602 18.3053 28.8299 0.0000 0.0000 0.0000
# 2 18.3053 47.1602 28.8299 0.0000 0.0000 0.0000
# 3 28.8299 28.8299 131.0328 0.0000 0.0000 0.0000
# 4 0.0000 0.0000 0.0000 17.1494 0.0000 0.0000
# 5 0.0000 0.0000 0.0000 0.0000 17.1494 0.0000
# 6 0.0000 0.0000 0.0000 0.0000 0.0000 14.4275
#
#
#
# Elastic Compliance Matrix: (Units=1/GPa)
#
#
# Indices 1 2 3 4 5 6 
#
# 1 0.026801 -0.007855 -0.004169 0.000000 0.000000 0.000000
# 2 -0.007855 0.026801 -0.004169 0.000000 0.000000 0.000000
# 3 -0.004169 -0.004169 0.009466 0.000000 0.000000 0.000000
# 4 0.000000 0.000000 0.000000 0.058311 0.000000 0.000000
# 5 0.000000 0.000000 0.000000 0.000000 0.058311 0.000000
# 6 0.000000 0.000000 0.000000 0.000000 0.000000 0.069312
#
#
# Mechanical properties :
#
#
# Convention : Reuss Voigt Hill
#
# Bulk Modulus (GPa) = 32.58921 41.92040 37.25480
# Shear Modulus (GPa) = 17.14586 19.70448 18.42517
#
# Velocity S-wave (km/s) = 3.15561 3.38287 3.27122
# Velocity P-wave (km/s) = 5.67487 6.29323 5.99203
#
# Compressibility (1/GPa) = 0.03068501
#
# Stress axis : x y z
#
# Youngs Moduli (GPa) = 37.31136 37.31136 105.64035
#
# Poissons Ratio (x) = 0.29307 0.44038
# Poissons Ratio (y) = 0.29307 0.44038
# Poissons Ratio (z) = 0.15554 0.15554
#
# Static dielectric constant tensor:
#      x y z
#    x 2.978000 0.000000 0.000000 
#    y 0.000000 2.978000 0.000000 
#    z 0.000000 0.000000 3.900500 
# 
# 
# High freq. dielectric constant tensor:
#      x y z
#    x 1.628290 0.000000 0.000000 
#    y 0.000000 1.628290 0.000000 
#    z 0.000000 0.000000 1.688980 
# 
# From -- ./inp_files/11065.got.cif
#   From: 2010.03.12/outbox.cif.g09.slc.cpg/sg194_6_cif.got.tgz:11065.got - 2010.04.01 12:26:19.
