data_PCOD8330585
_publ_section_title
;
Structure prediction by ZEFSAII (Michael W. Deem and Ramdas Pophale) SiO2 
 PCOD8330585
Probable space group: P 63/M M C
;
_chemical_formula_sum "Si O2"
_cell_formula_units_Z 120
_cell_length_a 21.079226
_cell_length_b 21.079226
_cell_length_c 16.913049
_cell_angle_alpha 90.000000
_cell_angle_beta 90.000000
_cell_angle_gamma 120.000000
_cell_volume 6508.214514
_symmetry_space_group_name_H-M "P 63/M M C"
_symmetry_group_IT_number 194
_symmetry_cell_setting 'hexagonal'
loop_
_space_group_symop_operation_xyz
x,y,z
x-y,x,1/2+z
-y,x-y,z
-x,-y,1/2+z
-x+y,-x,z
y,-x+y,1/2+z
x-y,-y,-z
-x,-x+y,-z
y,x,-z
-y,-x,1/2-z
-x+y,y,1/2-z
x,x-y,1/2-z
-x,-y,-z
-x+y,-x,1/2-z
y,-x+y,-z
x,y,1/2-z
x-y,x,-z
-y,x-y,1/2-z
-x+y,y,z
x,x-y,z
-y,-x,z
y,x,1/2+z
x-y,-y,1/2+z
-x,-x+y,1/2+z
loop_
_atom_site_type_symbol
_atom_site_label
_atom_site_fract_x
_atom_site_fract_y
_atom_site_fract_z
Si Si1 0.857576 0.857369 0.343982
Si Si2 0.721677 0.016446 0.157802
Si Si3 0.148045 0.439626 0.594017
Si Si4 0.467881 0.532120 0.159927
Si Si5 0.348586 0.415901 0.443788
Si Si6 0.445084 0.890168 0.661294
O O1 0.859522 0.859455 0.250000
O O2 0.934449 0.868897 0.377043
O O3 0.793392 0.778227 0.372680
O O4 0.845297 0.922649 0.376837
O O5 0.707584 0.997625 0.250000
O O6 0.728312 0.094680 0.142607
O O7 0.654350 0.953804 0.109718
O O8 0.230298 0.460596 0.612776
O O9 0.133460 0.427231 0.500102
O O10 0.139414 0.507931 0.618129
O O11 0.452816 0.547185 0.250000
O O12 0.514777 0.608040 0.113496
O O13 0.511425 0.488576 0.160525
O O14 0.404686 0.404686 0.500000
O O15 0.429957 0.859914 0.750000
#
# Coordination Sequence:
#
# PCOD8330585 Si02
#       6
#    24  24  24  12  24  12
#     4   9  17  29  46  69  99 137 181 226 271 317
#     4  10  19  32  53  81 110 143 182 231 283 329
#     4  11  23  37  55  80 115 153 185 221 275 339
#     4  11  18  32  60  88 108 134 176 232 284 326
#     4  10  19  32  52  79 111 141 174 217 267 335
#     4  11  21  35  59  87 112 144 184 230 280 330
#
# _framework density 18.438237000000001
#
# number of rings (size 3 to 8) (size 9 to 14) (size 15 to 20)
#    0.000    1.800    4.000    2.900    0.000    4.000 
#    0.600    0.000    0.000    1.800    0.000    0.000 
#    0.000   16.000    0.000    0.000    0.000    0.000 
#
# Total GULP energy -1488031.498049 kJ/mol
# GULP energy per Si atom -12400.262484 kJ/mol
# Density = 1.839627 g / cm^3
# Si number density = 18.438237 Si / 1000 Ang^3
#
#
#
# Elastic Constant Matrix: (Units=GPa)
#
#
# Indices 1 2 3 4 5 6 
#
# 1 90.2931 75.5193 26.8541 0.0000 0.0000 0.0000
# 2 75.5193 90.2931 26.8541 0.0000 0.0000 0.0000
# 3 26.8541 26.8541 91.1591 0.0000 0.0000 0.0000
# 4 0.0000 0.0000 0.0000 -10.0321 0.0000 0.0000
# 5 0.0000 0.0000 0.0000 0.0000 -10.0321 0.0000
# 6 0.0000 0.0000 0.0000 0.0000 0.0000 7.3869
#
#
#
# Elastic Compliance Matrix: (Units=1/GPa)
#
#
# Indices 1 2 3 4 5 6 
#
# 1 0.037177 -0.030510 -0.001964 0.000000 0.000000 0.000000
# 2 -0.030510 0.037177 -0.001964 0.000000 0.000000 0.000000
# 3 -0.001964 -0.001964 0.012127 0.000000 0.000000 0.000000
# 4 0.000000 0.000000 0.000000 -0.099680 0.000000 0.000000
# 5 0.000000 0.000000 0.000000 0.000000 -0.099680 0.000000
# 6 0.000000 0.000000 0.000000 0.000000 0.000000 0.135375
#
#
# Mechanical properties :
#
#
# Convention : Reuss Voigt Hill
#
# Bulk Modulus (GPa) = 56.80191 58.91116 57.85654
# Shear Modulus (GPa) = 51.41892 6.96572 29.19232
#
# Velocity S-wave (km/s) = 5.28655 1.94578 3.98332
# Velocity P-wave (km/s) = 8.25451 6.08835 7.25276
#
# Compressibility (1/GPa) = 0.01760504
#
# Stress axis : x y z
#
# Youngs Moduli (GPa) = 26.89822 26.89822 82.46075
#
# Poissons Ratio (x) = 0.82067 0.16195
# Poissons Ratio (y) = 0.82067 0.16195
# Poissons Ratio (z) = 0.05283 0.05283
#
# Static dielectric constant tensor:
#      x y z
#    x 3.361080 0.000000 0.000000 
#    y 0.000000 3.361080 0.000000 
#    z 0.000000 0.000000 3.541150 
# 
# 
# High freq. dielectric constant tensor:
#      x y z
#    x 1.700880 0.000000 0.000000 
#    y 0.000000 1.700880 0.000000 
#    z 0.000000 0.000000 1.714380 
# 
# From -- ./inp_files/6729.got.cif
#   From: 2010.03.12/outbox.cif.g09.slc.cpg/sg194_4_cif.got.tgz:6729.got - 2010.04.01 12:26:19.
