data_PCOD8330718
_publ_section_title
;
Structure prediction by ZEFSAII (Michael W. Deem and Ramdas Pophale) SiO2 
 PCOD8330718
Probable space group: P 63/M M C
;
_chemical_formula_sum "Si O2"
_cell_formula_units_Z 108
_cell_length_a 17.214401
_cell_length_b 17.214401
_cell_length_c 22.390075
_cell_angle_alpha 90.000000
_cell_angle_beta 90.000000
_cell_angle_gamma 120.000000
_cell_volume 5746.058072
_symmetry_space_group_name_H-M "P 63/M M C"
_symmetry_group_IT_number 194
_symmetry_cell_setting 'hexagonal'
loop_
_space_group_symop_operation_xyz
x,y,z
x-y,x,1/2+z
-y,x-y,z
-x,-y,1/2+z
-x+y,-x,z
y,-x+y,1/2+z
x-y,-y,-z
-x,-x+y,-z
y,x,-z
-y,-x,1/2-z
-x+y,y,1/2-z
x,x-y,1/2-z
-x,-y,-z
-x+y,-x,1/2-z
y,-x+y,-z
x,y,1/2-z
x-y,x,-z
-y,x-y,1/2-z
-x+y,y,z
x,x-y,z
-y,-x,z
y,x,1/2+z
x-y,-y,1/2+z
-x,-x+y,1/2+z
loop_
_atom_site_type_symbol
_atom_site_label
_atom_site_fract_x
_atom_site_fract_y
_atom_site_fract_z
Si Si1 0.260414 0.913631 0.087542
Si Si2 0.334289 0.837925 0.316781
Si Si3 0.279153 0.897433 0.628895
Si Si4 0.852945 0.332855 0.250000
Si Si5 0.487950 0.332520 0.487792
O O1 0.151984 0.848017 0.080335
O O2 0.293843 0.885041 0.144715
O O3 0.291298 0.016034 0.103641
O O4 0.311550 0.908822 0.028751
O O5 0.347028 0.876611 0.250000
O O6 0.429241 0.858481 0.343836
O O7 0.268886 0.731114 0.316935
O O8 0.175501 0.824500 0.635359
O O9 0.329099 0.907500 0.691977
O O10 0.329361 0.867725 0.581201
O O11 0.750666 0.249335 0.250000
O O12 0.850125 0.425063 0.250000
O O13 0.517274 0.258637 0.501423
O O14 0.569983 0.430018 0.503439
#
# Coordination Sequence:
#
# PCOD8330718 Si02
#       5
#    24  24  24  12  24
#     4  10  21  35  52  76 103 133 169 212 264 313
#     4   9  17  28  43  66  99 136 169 198 232 282
#     4  10  22  38  54  75 102 135 175 220 269 313
#     4  10  21  36  55  78 106 140 178 216 255 300
#     4  10  20  34  53  78 110 145 178 210 248 299
#
# _framework density 18.795493
#
# number of rings (size 3 to 8) (size 9 to 14) (size 15 to 20)
#    0.000    2.222    0.000    2.556    1.556    5.333 
#    0.000    4.444    0.000    0.444    0.000    0.000 
#    0.000    5.333    0.000    0.000    0.000    0.000 
#
# Total GULP energy -1338522.955487 kJ/mol
# GULP energy per Si atom -12393.731069 kJ/mol
# Density = 1.875271 g / cm^3
# Si number density = 18.795493 Si / 1000 Ang^3
#
#
#
# Elastic Constant Matrix: (Units=GPa)
#
#
# Indices 1 2 3 4 5 6 
#
# 1 73.7565 44.8565 30.1849 0.0000 0.0000 0.0000
# 2 44.8565 73.7565 30.1849 0.0000 0.0000 0.0000
# 3 30.1849 30.1849 107.4151 0.0000 0.0000 0.0000
# 4 0.0000 0.0000 0.0000 22.6612 0.0000 0.0000
# 5 0.0000 0.0000 0.0000 0.0000 22.6612 0.0000
# 6 0.0000 0.0000 0.0000 0.0000 0.0000 14.4500
#
#
#
# Elastic Compliance Matrix: (Units=1/GPa)
#
#
# Indices 1 2 3 4 5 6 
#
# 1 0.022220 -0.012382 -0.002765 0.000000 0.000000 0.000000
# 2 -0.012382 0.022220 -0.002765 0.000000 0.000000 0.000000
# 3 -0.002765 -0.002765 0.010863 0.000000 0.000000 0.000000
# 4 0.000000 0.000000 0.000000 0.044128 0.000000 0.000000
# 5 0.000000 0.000000 0.000000 0.000000 0.044128 0.000000
# 6 0.000000 0.000000 0.000000 0.000000 0.000000 0.069204
#
#
# Mechanical properties :
#
#
# Convention : Reuss Voigt Hill
#
# Bulk Modulus (GPa) = 51.33233 51.70896 51.52065
# Shear Modulus (GPa) = 19.60166 21.93459 20.76812
#
# Velocity S-wave (km/s) = 3.23289 3.41986 3.32769
# Velocity P-wave (km/s) = 6.42695 6.57001 6.49887
#
# Compressibility (1/GPa) = 0.01948090
#
# Stress axis : x y z
#
# Youngs Moduli (GPa) = 45.00454 45.00454 92.05207
#
# Poissons Ratio (x) = 0.55725 0.25448
# Poissons Ratio (y) = 0.55725 0.25448
# Poissons Ratio (z) = 0.12442 0.12442
#
# Static dielectric constant tensor:
#      x y z
#    x 3.451010 0.000000 0.000000 
#    y 0.000000 3.451010 0.000000 
#    z 0.000000 0.000000 3.719600 
# 
# 
# High freq. dielectric constant tensor:
#      x y z
#    x 1.706410 0.000000 0.000000 
#    y 0.000000 1.706410 0.000000 
#    z 0.000000 0.000000 1.753550 
# 
# From -- ./inp_files/7898.got.cif
#   From: 2010.03.12/outbox.cif.g09.slc.cpg/sg194_4_cif.got.tgz:7898.got - 2010.04.01 12:26:19.
