data_PCOD8330036
_publ_section_title
;
Structure prediction by ZEFSAII (Michael W. Deem and Ramdas Pophale) SiO2 
 PCOD8330036
Probable space group: P 63/M C M
;
_chemical_formula_sum "Si O2"
_cell_formula_units_Z 144
_cell_length_a 31.140654
_cell_length_b 31.140654
_cell_length_c 8.739909
_cell_angle_alpha 90.000000
_cell_angle_beta 90.000000
_cell_angle_gamma 120.000000
_cell_volume 7339.948298
_symmetry_space_group_name_H-M "P 63/M C M"
_symmetry_group_IT_number 193
_symmetry_cell_setting 'hexagonal'
loop_
_space_group_symop_operation_xyz
x,y,z
x-y,x,1/2+z
-y,x-y,z
-x,-y,1/2+z
-x+y,-x,z
y,-x+y,1/2+z
x-y,-y,1/2-z
-x,-x+y,1/2-z
y,x,1/2-z
-y,-x,-z
-x+y,y,-z
x,x-y,-z
-x,-y,-z
-x+y,-x,1/2-z
y,-x+y,-z
x,y,1/2-z
x-y,x,-z
-y,x-y,1/2-z
-x+y,y,1/2+z
x,x-y,1/2+z
-y,-x,1/2+z
y,x,z
x-y,-y,z
-x,-x+y,z
loop_
_atom_site_type_symbol
_atom_site_label
_atom_site_fract_x
_atom_site_fract_y
_atom_site_fract_z
Si Si1 0.425663 0.666951 0.932060
Si Si2 0.239640 0.850162 0.570316
Si Si3 0.482622 0.054966 0.429326
Si Si4 0.944152 0.233814 0.926831
Si Si5 0.200499 0.055702 0.429623
Si Si6 0.669022 0.517926 0.430376
O O1 0.422343 0.667512 0.750000
O O2 0.372887 0.627114 0.000000
O O3 0.440977 0.720489 0.000000
O O4 0.467021 0.653585 0.982805
O O5 0.185735 0.814266 0.500000
O O6 0.239960 0.840322 0.750000
O O7 0.253794 0.906688 0.535493
O O8 0.278040 0.838512 0.486400
O O9 0.536068 0.072135 0.500000
O O10 0.489028 0.053963 0.250000
O O11 0.466027 0.094588 0.474562
O O12 0.441622 0.000000 0.489250
O O13 0.940715 0.219003 0.750000
O O14 0.000000 0.276595 0.970888
O O15 0.927569 0.184010 0.021926
O O16 0.182287 0.091144 0.500000
O O17 0.198776 0.059033 0.250000
O O18 0.163651 0.000000 0.489096
O O19 0.670647 0.509604 0.250000
#
# Coordination Sequence:
#
# PCOD8330036 Si02
#       6
#    24  24  24  24  24  24
#     4  12  25  43  65  90 119 149 185 228 279 334
#     4  11  23  38  56  79 110 148 188 228 274 328
#     4   9  19  36  58  84 113 145 182 225 273 324
#     4   9  19  36  57  81 110 144 183 229 279 330
#     4  10  20  33  52  79 108 140 180 225 275 330
#     4  11  23  39  59  84 115 151 191 233 278 327
#
# _framework density 19.618669000000001
#
# number of rings (size 3 to 8) (size 9 to 14) (size 15 to 20)
#    0.000    1.667    0.000    4.667    0.000    7.000 
#    0.000    0.000    0.000    0.167    0.000    0.000 
#    0.000    0.000    0.000    0.000    0.000    0.000 
#
# Total GULP energy -1786149.268417 kJ/mol
# GULP energy per Si atom -12403.814364 kJ/mol
# Density = 1.957402 g / cm^3
# Si number density = 19.618669 Si / 1000 Ang^3
#
#
#
# Elastic Constant Matrix: (Units=GPa)
#
#
# Indices 1 2 3 4 5 6 
#
# 1 96.9444 36.5174 38.0636 0.0000 0.0000 0.0000
# 2 36.5174 96.9444 38.0636 0.0000 0.0000 0.0000
# 3 38.0636 38.0636 91.8280 0.0000 0.0000 0.0000
# 4 0.0000 0.0000 0.0000 30.4388 0.0000 0.0000
# 5 0.0000 0.0000 0.0000 0.0000 30.4388 0.0000
# 6 0.0000 0.0000 0.0000 0.0000 0.0000 30.2135
#
#
#
# Elastic Compliance Matrix: (Units=1/GPa)
#
#
# Indices 1 2 3 4 5 6 
#
# 1 0.013181 -0.003368 -0.004068 0.000000 0.000000 0.000000
# 2 -0.003368 0.013181 -0.004068 0.000000 0.000000 0.000000
# 3 -0.004068 -0.004068 0.014262 0.000000 0.000000 0.000000
# 4 0.000000 0.000000 0.000000 0.032853 0.000000 0.000000
# 5 0.000000 0.000000 0.000000 0.000000 0.032853 0.000000
# 6 0.000000 0.000000 0.000000 0.000000 0.000000 0.033098
#
#
# Mechanical properties :
#
#
# Convention : Reuss Voigt Hill
#
# Bulk Modulus (GPa) = 56.76126 56.77844 56.76985
# Shear Modulus (GPa) = 29.70779 29.75636 29.73208
#
# Velocity S-wave (km/s) = 3.89557 3.89876 3.89716
# Velocity P-wave (km/s) = 7.01634 7.01932 7.01783
#
# Compressibility (1/GPa) = 0.01761765
#
# Stress axis : x y z
#
# Youngs Moduli (GPa) = 75.86726 75.86726 70.11639
#
# Poissons Ratio (x) = 0.25552 0.28520
# Poissons Ratio (y) = 0.25552 0.28520
# Poissons Ratio (z) = 0.30859 0.30859
#
# Static dielectric constant tensor:
#      x y z
#    x 3.633520 0.000000 0.000000 
#    y 0.000000 3.633520 0.000000 
#    z 0.000000 0.000000 3.618890 
# 
# 
# High freq. dielectric constant tensor:
#      x y z
#    x 1.766360 0.000000 0.000000 
#    y 0.000000 1.766360 0.000000 
#    z 0.000000 0.000000 1.771540 
# 
# From -- ./inp_files/1570.got.cif
#   From: 2010.03.12/outbox.cif.g09.slc.cpg/sg193_1_cif.got.tgz:1570.got - 2010.04.01 12:20:39.
