data_PCOD8330816
_publ_section_title
;
Structure prediction by ZEFSAII (Michael W. Deem and Ramdas Pophale) SiO2 
 PCOD8330816
Probable space group: P 63/M M C
;
_chemical_formula_sum "Si O2"
_cell_formula_units_Z 136
_cell_length_a 29.404361
_cell_length_b 29.404361
_cell_length_c 8.932293
_cell_angle_alpha 90.000000
_cell_angle_beta 90.000000
_cell_angle_gamma 120.000000
_cell_volume 6688.320625
_symmetry_space_group_name_H-M "P 63/M M C"
_symmetry_group_IT_number 194
_symmetry_cell_setting 'hexagonal'
loop_
_space_group_symop_operation_xyz
x,y,z
x-y,x,1/2+z
-y,x-y,z
-x,-y,1/2+z
-x+y,-x,z
y,-x+y,1/2+z
x-y,-y,-z
-x,-x+y,-z
y,x,-z
-y,-x,1/2-z
-x+y,y,1/2-z
x,x-y,1/2-z
-x,-y,-z
-x+y,-x,1/2-z
y,-x+y,-z
x,y,1/2-z
x-y,x,-z
-y,x-y,1/2-z
-x+y,y,z
x,x-y,z
-y,-x,z
y,x,1/2+z
x-y,-y,1/2+z
-x,-x+y,1/2+z
loop_
_atom_site_type_symbol
_atom_site_label
_atom_site_fract_x
_atom_site_fract_y
_atom_site_fract_z
Si Si1 0.477505 0.056051 0.575266
Si Si2 0.158375 0.946100 0.574258
Si Si3 0.323099 0.213745 0.926057
Si Si4 0.333334 0.666667 0.427544
Si Si5 0.417270 0.107856 0.079932
Si Si6 0.606995 0.213990 0.924813
Si Si7 0.791164 0.308438 0.081320
O O1 0.463102 0.050874 0.750000
O O2 0.541392 0.082783 0.555178
O O3 0.452110 0.086317 0.494759
O O4 0.451758 0.000000 0.500000
O O5 0.169483 0.954116 0.750000
O O6 0.098471 0.901530 0.540537
O O7 0.198491 0.930245 0.502885
O O8 0.167837 0.000000 0.500000
O O9 0.317471 0.218527 0.750000
O O10 0.339046 0.169523 0.963183
O O11 0.365337 0.270665 0.988565
O O12 0.333334 0.666667 0.250000
O O13 0.363121 0.636880 0.486597
O O14 0.401838 0.086567 0.250000
O O15 0.454907 0.170414 0.077862
O O16 0.604446 0.208892 0.750000
O O17 0.547519 0.185957 0.984398
O O18 0.783728 0.322184 0.250000
O O19 0.735941 0.264060 0.012291
#
# Coordination Sequence:
#
# PCOD8330816 Si02
#       7
#    24  24  24   4  24  12  24
#     4  10  22  41  62  83 108 138 177 226 284 347
#     4  10  21  38  63  96 134 176 220 265 312 360
#     4  10  21  38  60  87 121 159 201 250 305 362
#     4   9  18  33  49  71  97 126 166 221 283 333
#     4  11  23  38  59  84 113 147 187 236 290 354
#     4  11  21  35  53  73 100 132 175 227 281 339
#     4  10  22  38  54  76 106 141 180 222 275 339
#
# _framework density 20.333953999999999
#
# number of rings (size 3 to 8) (size 9 to 14) (size 15 to 20)
#    0.000    1.765    0.882    2.912    1.235    6.000 
#    0.000    3.529    0.000    0.176    0.000    0.000 
#    0.000    0.000    0.000    0.000    0.000    0.000 
#
# Total GULP energy -1686173.332118 kJ/mol
# GULP energy per Si atom -12398.333324 kJ/mol
# Density = 2.028767 g / cm^3
# Si number density = 20.333954 Si / 1000 Ang^3
#
#
#
# Elastic Constant Matrix: (Units=GPa)
#
#
# Indices 1 2 3 4 5 6 
#
# 1 98.7563 54.5047 56.8225 0.0000 0.0000 0.0000
# 2 54.5047 98.7565 56.8224 0.0000 0.0000 0.0000
# 3 56.8225 56.8224 135.3220 0.0000 0.0000 0.0000
# 4 0.0000 0.0000 0.0000 33.7687 0.0000 0.0000
# 5 0.0000 0.0000 0.0000 0.0000 33.7687 0.0000
# 6 0.0000 0.0000 0.0000 0.0000 0.0000 22.1258
#
#
#
# Elastic Compliance Matrix: (Units=1/GPa)
#
#
# Indices 1 2 3 4 5 6 
#
# 1 0.016037 -0.006561 -0.003979 0.000000 0.000000 0.000000
# 2 -0.006561 0.016036 -0.003979 0.000000 0.000000 0.000000
# 3 -0.003979 -0.003979 0.010731 0.000000 0.000000 0.000000
# 4 0.000000 0.000000 0.000000 0.029613 0.000000 0.000000
# 5 0.000000 0.000000 0.000000 0.000000 0.029613 0.000000
# 6 0.000000 0.000000 0.000000 0.000000 0.000000 0.045196
#
#
# Mechanical properties :
#
#
# Convention : Reuss Voigt Hill
#
# Bulk Modulus (GPa) = 72.63937 74.34820 73.49379
# Shear Modulus (GPa) = 27.64680 28.91167 28.27923
#
# Velocity S-wave (km/s) = 3.69133 3.77482 3.73331
# Velocity P-wave (km/s) = 7.34633 7.45936 7.40306
#
# Compressibility (1/GPa) = 0.01376664
#
# Stress axis : x y z
#
# Youngs Moduli (GPa) = 62.35767 62.35784 93.18748
#
# Poissons Ratio (x) = 0.40916 0.37076
# Poissons Ratio (y) = 0.40916 0.37076
# Poissons Ratio (z) = 0.24810 0.24810
#
# Static dielectric constant tensor:
#      x y z
#    x 3.681470 0.000000 0.000000 
#    y 0.000000 3.681470 0.000000 
#    z 0.000000 0.000000 3.738270 
# 
# 
# High freq. dielectric constant tensor:
#      x y z
#    x 1.790250 0.000000 0.000000 
#    y 0.000000 1.790250 0.000000 
#    z 0.000000 0.000000 1.803340 
# 
# From -- ./inp_files/2173.got.cif
#   From: 2010.03.12/outbox.cif.g09.slc.cpg/sg194_2_cif.got.tgz:2173.got - 2010.04.01 12:26:19.
