data_PCOD8330700
_publ_section_title
;
Structure prediction by ZEFSAII (Michael W. Deem and Ramdas Pophale) SiO2 
 PCOD8330700
Probable space group: P 63/M M C
;
_chemical_formula_sum "Si O2"
_cell_formula_units_Z 100
_cell_length_a 26.380746
_cell_length_b 26.380746
_cell_length_c 9.066637
_cell_angle_alpha 90.000000
_cell_angle_beta 90.000000
_cell_angle_gamma 120.000000
_cell_volume 5464.507230
_symmetry_space_group_name_H-M "P 63/M M C"
_symmetry_group_IT_number 194
_symmetry_cell_setting 'hexagonal'
loop_
_space_group_symop_operation_xyz
x,y,z
x-y,x,1/2+z
-y,x-y,z
-x,-y,1/2+z
-x+y,-x,z
y,-x+y,1/2+z
x-y,-y,-z
-x,-x+y,-z
y,x,-z
-y,-x,1/2-z
-x+y,y,1/2-z
x,x-y,1/2-z
-x,-y,-z
-x+y,-x,1/2-z
y,-x+y,-z
x,y,1/2-z
x-y,x,-z
-y,x-y,1/2-z
-x+y,y,z
x,x-y,z
-y,-x,z
y,x,1/2+z
x-y,-y,1/2+z
-x,-x+y,1/2+z
loop_
_atom_site_type_symbol
_atom_site_label
_atom_site_fract_x
_atom_site_fract_y
_atom_site_fract_z
Si Si1 0.059264 0.349130 0.423425
Si Si2 0.666667 0.333334 0.426755
Si Si3 0.731766 0.463531 0.075396
Si Si4 0.173350 0.941150 0.077285
Si Si5 0.468607 0.937214 0.923465
Si Si6 0.333022 0.467960 0.575569
O O1 0.053849 0.355677 0.250000
O O2 0.071720 0.296936 0.462710
O O3 0.111566 0.407529 0.490116
O O4 0.000000 0.338446 0.500000
O O5 0.666667 0.333334 0.250000
O O6 0.601360 0.300680 0.490901
O O7 0.730355 0.460709 0.250000
O O8 0.696280 0.494731 0.020866
O O9 0.170796 0.949793 0.250000
O O10 0.112999 0.887002 0.018488
O O11 0.183110 0.000000 0.000000
O O12 0.473969 0.947937 0.750000
O O13 0.400906 0.900381 0.972039
O O14 0.500000 0.000000 0.000000
O O15 0.326210 0.456603 0.750000
#
# Coordination Sequence:
#
# PCOD8330700 Si02
#       6
#    24   4  12  24  12  24
#     4  10  20  34  53  76 106 141 174 212 258 309
#     4   9  15  30  54  75 100 134 175 219 274 323
#     4   9  18  31  51  77 103 134 172 221 270 319
#     4   9  19  35  54  78 108 140 174 211 252 298
#     4  10  21  35  52  72 100 134 170 212 258 308
#     4  10  20  34  51  76 105 133 171 217 265 316
#
# _framework density 18.299911000000002
#
# number of rings (size 3 to 8) (size 9 to 14) (size 15 to 20)
#    0.000    2.400    0.000    2.160    1.680    7.200 
#    0.000    0.000    0.000    0.240    0.000    2.520 
#    0.000    0.000    0.000    0.000    0.000    0.000 
#
# Total GULP energy -1240201.438191 kJ/mol
# GULP energy per Si atom -12402.014382 kJ/mol
# Density = 1.825826 g / cm^3
# Si number density = 18.299911 Si / 1000 Ang^3
#
#
#
# Elastic Constant Matrix: (Units=GPa)
#
#
# Indices 1 2 3 4 5 6 
#
# 1 159.9827 90.4527 41.9874 0.0001 0.0000 0.0000
# 2 90.4527 159.9830 41.9874 0.0001 0.0000 0.0000
# 3 41.9874 41.9874 40.9434 0.0000 0.0000 0.0000
# 4 0.0001 0.0001 0.0000 25.4541 0.0000 0.0000
# 5 0.0000 0.0000 0.0000 0.0000 25.4542 0.0000
# 6 0.0000 0.0000 0.0000 0.0000 0.0000 34.7649
#
#
#
# Elastic Compliance Matrix: (Units=1/GPa)
#
#
# Indices 1 2 3 4 5 6 
#
# 1 0.010234 -0.004148 -0.006241 0.000000 0.000000 0.000000
# 2 -0.004148 0.010234 -0.006241 0.000000 0.000000 0.000000
# 3 -0.006241 -0.006241 0.037224 0.000000 0.000000 0.000000
# 4 0.000000 0.000000 0.000000 0.039286 0.000000 0.000000
# 5 0.000000 0.000000 0.000000 0.000000 0.039286 0.000000
# 6 0.000000 0.000000 0.000000 0.000000 0.000000 0.028765
#
#
# Mechanical properties :
#
#
# Convention : Reuss Voigt Hill
#
# Bulk Modulus (GPa) = 40.93013 78.86268 59.89640
# Shear Modulus (GPa) = 24.22091 29.56676 26.89383
#
# Velocity S-wave (km/s) = 3.64201 4.02391 3.83772
# Velocity P-wave (km/s) = 6.33250 8.04843 7.24147
#
# Compressibility (1/GPa) = 0.02443188
#
# Stress axis : x y z
#
# Youngs Moduli (GPa) = 97.71358 97.71384 26.86440
#
# Poissons Ratio (x) = 0.40534 0.16766
# Poissons Ratio (y) = 0.40534 0.16766
# Poissons Ratio (z) = 0.60982 0.60982
#
# Static dielectric constant tensor:
#      x y z
#    x 3.499760 0.000000 0.000000 
#    y 0.000000 3.499760 0.000000 
#    z 0.000000 0.000000 3.134760 
# 
# 
# High freq. dielectric constant tensor:
#      x y z
#    x 1.715510 0.000000 0.000000 
#    y 0.000000 1.715510 0.000000 
#    z 0.000000 0.000000 1.687410 
# 
# From -- ./inp_files/1667.got.cif
#   From: 2010.03.12/outbox.cif.g09.slc.cpg/sg194_1_cif.got.tgz:1667.got - 2010.04.01 12:26:19.
