data_PCOD8330683
_publ_section_title
;
Structure prediction by ZEFSAII (Michael W. Deem and Ramdas Pophale) SiO2 
 PCOD8330683
Probable space group: P 63/M M C
;
_chemical_formula_sum "Si O2"
_cell_formula_units_Z 144
_cell_length_a 30.040207
_cell_length_b 30.040207
_cell_length_c 9.938068
_cell_angle_alpha 90.000000
_cell_angle_beta 90.000000
_cell_angle_gamma 120.000000
_cell_volume 7766.734111
_symmetry_space_group_name_H-M "P 63/M M C"
_symmetry_group_IT_number 194
_symmetry_cell_setting 'hexagonal'
loop_
_space_group_symop_operation_xyz
x,y,z
x-y,x,1/2+z
-y,x-y,z
-x,-y,1/2+z
-x+y,-x,z
y,-x+y,1/2+z
x-y,-y,-z
-x,-x+y,-z
y,x,-z
-y,-x,1/2-z
-x+y,y,1/2-z
x,x-y,1/2-z
-x,-y,-z
-x+y,-x,1/2-z
y,-x+y,-z
x,y,1/2-z
x-y,x,-z
-y,x-y,1/2-z
-x+y,y,z
x,x-y,z
-y,-x,z
y,x,1/2+z
x-y,-y,1/2+z
-x,-x+y,1/2+z
loop_
_atom_site_type_symbol
_atom_site_label
_atom_site_fract_x
_atom_site_fract_y
_atom_site_fract_z
Si Si1 0.951772 0.525889 0.903882
Si Si2 0.049155 0.847257 0.406916
Si Si3 0.956074 0.699698 0.899537
Si Si4 0.485770 0.191141 0.398000
Si Si5 0.420415 0.305613 0.901300
Si Si6 0.664789 0.231066 0.897420
O O1 0.970399 0.540482 0.750000
O O2 0.926929 0.463465 0.923851
O O3 0.914755 0.548682 0.939696
O O4 0.000000 0.554996 0.000000
O O5 0.034638 0.847514 0.250000
O O6 0.097537 0.902464 0.447534
O O7 0.065683 0.803965 0.432641
O O8 0.000000 0.835208 0.500000
O O9 0.979641 0.711976 0.750000
O O10 0.914752 0.640515 0.912424
O O11 0.000000 0.707509 0.000000
O O12 0.482657 0.166902 0.250000
O O13 0.495191 0.247596 0.377512
O O14 0.434945 0.158339 0.486370
O O15 0.531780 0.192029 0.485663
O O16 0.436278 0.298984 0.750000
O O17 0.652952 0.203740 0.750000
O O18 0.625258 0.250515 0.930209
O O19 0.721117 0.278884 0.895738
#
# Coordination Sequence:
#
# PCOD8330683 Si02
#       6
#    24  24  24  24  24  24
#     4   9  18  32  49  71  99 128 161 203 249 298
#     4   9  18  33  53  79 111 144 178 218 263 310
#     4   9  18  32  51  76 104 134 171 215 261 306
#     4  10  22  37  49  66  95 127 159 198 244 293
#     4  10  20  33  51  73  96 129 171 211 255 307
#     4   9  17  31  52  74  93 115 147 189 238 295
#
# _framework density 18.540610999999998
#
# number of rings (size 3 to 8) (size 9 to 14) (size 15 to 20)
#    0.000    2.667    0.000    1.167    0.000    5.000 
#    0.000    3.333    0.000    1.167    0.000    0.000 
#    0.000    0.000    0.000    0.000    0.000    0.000 
#
# Total GULP energy -1783927.343238 kJ/mol
# GULP energy per Si atom -12388.384328 kJ/mol
# Density = 1.849841 g / cm^3
# Si number density = 18.540611 Si / 1000 Ang^3
#
#
#
# Elastic Constant Matrix: (Units=GPa)
#
#
# Indices 1 2 3 4 5 6 
#
# 1 76.4385 34.7492 47.3343 0.0000 0.0000 0.0000
# 2 34.7492 76.4385 47.3343 0.0000 0.0000 0.0000
# 3 47.3343 47.3343 134.0110 0.0000 0.0000 0.0000
# 4 0.0000 0.0000 0.0000 10.7056 0.0000 0.0000
# 5 0.0000 0.0000 0.0000 0.0000 10.7056 0.0000
# 6 0.0000 0.0000 0.0000 0.0000 0.0000 20.8446
#
#
#
# Elastic Compliance Matrix: (Units=1/GPa)
#
#
# Indices 1 2 3 4 5 6 
#
# 1 0.018424 -0.005563 -0.004543 0.000000 0.000000 0.000000
# 2 -0.005563 0.018424 -0.004543 0.000000 0.000000 0.000000
# 3 -0.004543 -0.004543 0.010671 0.000000 0.000000 0.000000
# 4 0.000000 0.000000 0.000000 0.093409 0.000000 0.000000
# 5 0.000000 0.000000 0.000000 0.000000 0.093409 0.000000
# 6 0.000000 0.000000 0.000000 0.000000 0.000000 0.047974
#
#
# Mechanical properties :
#
#
# Convention : Reuss Voigt Hill
#
# Bulk Modulus (GPa) = 54.87527 60.63596 57.75562
# Shear Modulus (GPa) = 15.73889 18.94915 17.34402
#
# Velocity S-wave (km/s) = 2.91673 3.20040 3.06185
# Velocity P-wave (km/s) = 6.40349 6.81411 6.61199
#
# Compressibility (1/GPa) = 0.01822314
#
# Stress axis : x y z
#
# Youngs Moduli (GPa) = 54.27585 54.27585 93.70916
#
# Poissons Ratio (x) = 0.30192 0.42572
# Poissons Ratio (y) = 0.30192 0.42572
# Poissons Ratio (z) = 0.24657 0.24657
#
# Static dielectric constant tensor:
#      x y z
#    x 3.278500 0.000000 0.000000 
#    y 0.000000 3.278500 0.000000 
#    z 0.000000 0.000000 3.895960 
# 
# 
# High freq. dielectric constant tensor:
#      x y z
#    x 1.704390 0.000000 0.000000 
#    y 0.000000 1.704390 0.000000 
#    z 0.000000 0.000000 1.731280 
# 
# From -- ./inp_files/2084.got.cif
#   From: 2010.03.12/outbox.cif.g09.slc.cpg/sg194_2_cif.got.tgz:2084.got - 2010.04.01 12:26:19.
