data_PCOD8330028
_publ_section_title
;
Structure prediction by ZEFSAII (Michael W. Deem and Ramdas Pophale) SiO2 
 PCOD8330028
Probable space group: P 63/M C M
;
_chemical_formula_sum "Si O2"
_cell_formula_units_Z 132
_cell_length_a 23.387162
_cell_length_b 23.387162
_cell_length_c 15.644241
_cell_angle_alpha 90.000000
_cell_angle_beta 90.000000
_cell_angle_gamma 120.000000
_cell_volume 7410.374853
_symmetry_space_group_name_H-M "P 63/M C M"
_symmetry_group_IT_number 193
_symmetry_cell_setting 'hexagonal'
loop_
_space_group_symop_operation_xyz
x,y,z
x-y,x,1/2+z
-y,x-y,z
-x,-y,1/2+z
-x+y,-x,z
y,-x+y,1/2+z
x-y,-y,1/2-z
-x,-x+y,1/2-z
y,x,1/2-z
-y,-x,-z
-x+y,y,-z
x,x-y,-z
-x,-y,-z
-x+y,-x,1/2-z
y,-x+y,-z
x,y,1/2-z
x-y,x,-z
-y,x-y,1/2-z
-x+y,y,1/2+z
x,x-y,1/2+z
-y,-x,1/2+z
y,x,z
x-y,-y,z
-x,-x+y,z
loop_
_atom_site_type_symbol
_atom_site_label
_atom_site_fract_x
_atom_site_fract_y
_atom_site_fract_z
Si Si1 0.076235 0.868699 0.416643
Si Si2 0.312325 0.389116 0.847755
Si Si3 0.815924 0.643348 0.907583
Si Si4 0.076324 0.600747 0.992799
Si Si5 0.076344 0.927168 0.250000
Si Si6 0.676057 0.601346 0.654732
O O1 0.086354 0.913647 0.500000
O O2 0.113545 0.828798 0.430023
O O3 0.108146 0.915492 0.334302
O O4 0.000000 0.816994 0.402947
O O5 0.331240 0.414332 0.750000
O O6 0.334121 0.334121 0.867853
O O7 0.233454 0.357053 0.858737
O O8 0.347617 0.451121 0.913361
O O9 0.750638 0.615142 0.850051
O O10 0.803282 0.606564 0.000000
O O11 0.000000 0.553862 0.972287
O O12 0.110683 0.555342 0.000000
O O13 0.088721 0.635420 0.084221
O O14 0.000000 0.876610 0.250000
O O15 0.087456 0.000000 0.250000
O O16 0.650554 0.572980 0.750000
O O17 0.664583 0.664583 0.639894
#
# Coordination Sequence:
#
# PCOD8330028 Si02
#       6
#    24  24  24  24  12  24
#     4  10  22  36  51  72  97 131 179 234 290 346
#     4  10  21  35  52  78 111 147 182 220 270 324
#     4  11  21  34  53  74 109 148 181 227 274 324
#     4   9  18  34  54  77 106 137 170 207 248 306
#     4  10  21  36  52  68  88 120 170 232 296 350
#     4  10  20  33  52  77 108 145 184 222 266 315
#
# _framework density 17.812864000000001
#
# number of rings (size 3 to 8) (size 9 to 14) (size 15 to 20)
#    0.000    2.000    1.818    1.727    2.545    4.364 
#    0.000    3.636    0.000    2.909    0.000    0.000 
#    7.273    0.000    2.182    0.000    0.000    0.000 
#
# Total GULP energy -1635455.334558 kJ/mol
# GULP energy per Si atom -12389.813141 kJ/mol
# Density = 1.777232 g / cm^3
# Si number density = 17.812864 Si / 1000 Ang^3
#
#
#
# Elastic Constant Matrix: (Units=GPa)
#
#
# Indices 1 2 3 4 5 6 
#
# 1 75.2523 41.6683 38.4781 0.0000 0.0000 0.0000
# 2 41.6683 75.2523 38.4781 0.0000 0.0000 0.0000
# 3 38.4781 38.4781 159.3545 0.0000 0.0000 0.0000
# 4 0.0000 0.0000 0.0000 16.6173 0.0000 0.0000
# 5 0.0000 0.0000 0.0000 0.0000 16.6173 0.0000
# 6 0.0000 0.0000 0.0000 0.0000 0.0000 16.7920
#
#
#
# Elastic Compliance Matrix: (Units=1/GPa)
#
#
# Indices 1 2 3 4 5 6 
#
# 1 0.019973 -0.009804 -0.002455 0.000000 0.000000 0.000000
# 2 -0.009804 0.019973 -0.002455 0.000000 0.000000 0.000000
# 3 -0.002455 -0.002455 0.007461 0.000000 0.000000 0.000000
# 4 0.000000 0.000000 0.000000 0.060178 0.000000 0.000000
# 5 0.000000 0.000000 0.000000 0.000000 0.060178 0.000000
# 6 0.000000 0.000000 0.000000 0.000000 0.000000 0.059552
#
#
# Mechanical properties :
#
#
# Convention : Reuss Voigt Hill
#
# Bulk Modulus (GPa) = 55.62560 60.78976 58.20768
# Shear Modulus (GPa) = 19.03049 22.75428 20.89239
#
# Velocity S-wave (km/s) = 3.27212 3.57796 3.42845
# Velocity P-wave (km/s) = 6.75065 7.16031 6.95849
#
# Compressibility (1/GPa) = 0.01797733
#
# Stress axis : x y z
#
# Youngs Moduli (GPa) = 50.06878 50.06878 134.02856
#
# Poissons Ratio (x) = 0.49085 0.32910
# Poissons Ratio (y) = 0.49085 0.32910
# Poissons Ratio (z) = 0.12294 0.12294
#
# Static dielectric constant tensor:
#      x y z
#    x 3.133130 0.000000 0.000000 
#    y 0.000000 3.133130 0.000000 
#    z 0.000000 0.000000 3.932150 
# 
# 
# High freq. dielectric constant tensor:
#      x y z
#    x 1.656070 0.000000 0.000000 
#    y 0.000000 1.656070 0.000000 
#    z 0.000000 0.000000 1.717270 
# 
# From -- ./inp_files/4127.got.cif
#   From: 2010.03.12/outbox.cif.g09.slc.cpg/sg193_3_cif.got.tgz:4127.got - 2010.04.01 12:20:39.
